#------------------------------------------------------------------------------
#$Date: 2017-10-05 10:44:18 +0300 (Thu, 05 Oct 2017) $
#$Revision: 201754 $
#$URL: file:///home/coder/svn-repositories/cod/cif/1/54/69/1546977.cif $
#------------------------------------------------------------------------------
#
# This file is available in the Crystallography Open Database (COD),
# http://www.crystallography.net/
#
# All data on this site have been placed in the public domain by the
# contributors.
#
data_1546977
loop_
_publ_author_name
'Zhou, Min'
'Ma, Hang-Ying'
'Xing, Huan-Huan'
'Li, Ping'
'Li, Gan-Peng'
'Geng, Hui-Chun'
'Hu, Qiu-Fen'
'Yang, Guang-Yu'
_publ_section_title
;
 Biomimetic Synthesis of Macahydantoins A and B from Lepidium meyenii, and
 Structure Revision of Macahydantoin B as a Class of Thiohydantoin with a
 4-Methyl-hexahydropyrrolo[1,2-c]imidazole Skeleton.
;
_journal_issue                   18
_journal_name_full               'Organic letters'
_journal_page_first              4952
_journal_page_last               4955
_journal_paper_doi               10.1021/acs.orglett.7b02433
_journal_volume                  19
_journal_year                    2017
_chemical_absolute_configuration ad
_chemical_formula_moiety         'C14 H16 N2 O S'
_chemical_formula_sum            'C14 H16 N2 O S'
_chemical_formula_weight         260.35
_space_group_crystal_system      orthorhombic
_space_group_IT_number           19
_space_group_name_Hall           'P 2ac 2ab'
_space_group_name_H-M_alt        'P 21 21 21'
_symmetry_space_group_name_Hall  'P 2ac 2ab'
_symmetry_space_group_name_H-M   'P 21 21 21'
_atom_sites_solution_hydrogens   geom
_atom_sites_solution_primary     direct
_atom_sites_solution_secondary   difmap
_audit_creation_method           SHELXL-2014/7
_cell_angle_alpha                90
_cell_angle_beta                 90
_cell_angle_gamma                90
_cell_formula_units_Z            4
_cell_length_a                   6.1830(7)
_cell_length_b                   11.5573(13)
_cell_length_c                   17.814(2)
_cell_measurement_reflns_used    3889
_cell_measurement_temperature    100(2)
_cell_measurement_theta_max      26.85
_cell_measurement_theta_min      2.29
_cell_volume                     1273.0(2)
_computing_cell_refinement       'Bruker SAINT'
_computing_data_collection       'Bruker APEX2'
_computing_data_reduction        'Bruker SAINT'
_computing_molecular_graphics    'Bruker SHELXTL'
_computing_publication_material  'Bruker SHELXTL'
_computing_structure_refinement  'SHELXL-2014 (Sheldrick 2014)'
_computing_structure_solution    'SHELXS-97 (Sheldrick 2008)'
_diffrn_ambient_temperature      100(2)
_diffrn_measured_fraction_theta_full 0.998
_diffrn_measured_fraction_theta_max 0.997
_diffrn_measurement_device_type  'Bruker APEX-II CCD'
_diffrn_measurement_method       '\f and \w scans'
_diffrn_radiation_type           MoK\a
_diffrn_radiation_wavelength     0.71073
_diffrn_reflns_av_R_equivalents  0.0356
_diffrn_reflns_av_unetI/netI     0.0330
_diffrn_reflns_Laue_measured_fraction_full 0.998
_diffrn_reflns_Laue_measured_fraction_max 0.997
_diffrn_reflns_limit_h_max       7
_diffrn_reflns_limit_h_min       -8
_diffrn_reflns_limit_k_max       15
_diffrn_reflns_limit_k_min       -15
_diffrn_reflns_limit_l_max       23
_diffrn_reflns_limit_l_min       -23
_diffrn_reflns_number            12659
_diffrn_reflns_point_group_measured_fraction_full 0.999
_diffrn_reflns_point_group_measured_fraction_max 0.997
_diffrn_reflns_theta_full        25.242
_diffrn_reflns_theta_max         28.146
_diffrn_reflns_theta_min         2.100
_diffrn_source                   'fine-focus sealed tube'
_exptl_absorpt_coefficient_mu    0.243
_exptl_absorpt_correction_type   multi-scan
_exptl_absorpt_process_details   sadabs
_exptl_crystal_colour            yellow
_exptl_crystal_density_diffrn    1.358
_exptl_crystal_description       prism
_exptl_crystal_F_000             552
_exptl_crystal_size_max          0.460
_exptl_crystal_size_mid          0.230
_exptl_crystal_size_min          0.100
_exptl_transmission_factor_max   0.4310
_exptl_transmission_factor_min   0.3807
_refine_diff_density_max         1.227
_refine_diff_density_min         -0.390
_refine_diff_density_rms         0.104
_refine_ls_abs_structure_details
;
 Flack x determined using 1020 quotients [(I+)-(I-)]/[(I+)+(I-)]
 (Parsons, Flack and Wagner, Acta Cryst. B69 (2013) 249-259).
;
_refine_ls_abs_structure_Flack   0.03(3)
_refine_ls_extinction_method     none
_refine_ls_goodness_of_fit_ref   1.057
_refine_ls_hydrogen_treatment    constr
_refine_ls_matrix_type           full
_refine_ls_number_parameters     163
_refine_ls_number_reflns         3118
_refine_ls_number_restraints     0
_refine_ls_restrained_S_all      1.057
_refine_ls_R_factor_all          0.0832
_refine_ls_R_factor_gt           0.0761
_refine_ls_shift/su_max          0.000
_refine_ls_shift/su_mean         0.000
_refine_ls_structure_factor_coef Fsqd
_refine_ls_weighting_details
'w=1/[\s^2^(Fo^2^)+(0.0899P)^2^+2.8812P] where P=(Fo^2^+2Fc^2^)/3'
_refine_ls_weighting_scheme      calc
_refine_ls_wR_factor_gt          0.1882
_refine_ls_wR_factor_ref         0.1935
_reflns_Friedel_coverage         0.718
_reflns_Friedel_fraction_full    1.000
_reflns_Friedel_fraction_max     0.998
_reflns_number_gt                2809
_reflns_number_total             3118
_reflns_threshold_expression     'I > 2\s(I)'
_cod_data_source_file            ol7b02433_si_002.cif
_cod_data_source_block           mo_zm1_0m
_cod_depositor_comments          'Adding full bibliography for 1546977.cif.'
_cod_original_cell_volume        1273.0(3)
_cod_database_code               1546977
_shelx_shelxl_version_number     2014/7
_shelx_space_group_comment
;
The symmetry employed for this shelxl refinement is uniquely defined
by the following loop, which should always be used as a source of
symmetry information in preference to the above space-group names.
They are only intended as comments.
;
_shelx_estimated_absorpt_t_min   0.896
_shelx_estimated_absorpt_t_max   0.976
_shelx_res_file
;

    mo_zm1_0m.res created by SHELXL-2014/7

TITL mo_zm1_0m in P2(1)2(1)2(1)
CELL 0.71073 6.1830 11.5573 17.8140 90.000 90.000 90.000
ZERR 4.00 0.0007 0.0013 0.0021 0.000 0.000 0.000
LATT -1
SYMM x+1/2, -y+1/2, -z
SYMM -x, y+1/2, -z+1/2
SYMM -x+1/2, -y, z+1/2
SFAC C  H  N  O  S
UNIT 56  64  8  4  4
L.S. 10
ACTA
BOND $H
FMAP 2
PLAN -4
HTAB C11 S1_$3
HTAB C9 S1_$2
HTAB C7 O1_$1
HTAB C5 S1
CONF
HTAB
SIZE 0.100 0.230 0.460
HTAB C5 S1
EQIV $1 x-1/2, -y+3/2, -z
HTAB C7 O1_$1
EQIV $2 -x+2, y-1/2, -z+1/2
HTAB C9 S1_$2
EQIV $3 x-1, y, z
HTAB C11 S1_$3
TEMP -173.000
WGHT    0.089900    2.881200
FVAR       0.26781
S1    5    0.839716    0.984566    0.204899    11.00000    0.03802    0.03416 =
         0.02683   -0.00674   -0.00460   -0.00953
O1    4    0.482475    0.795304   -0.003657    11.00000    0.02757    0.02812 =
         0.02110    0.00003    0.00068   -0.00645
C5    1    0.655735    0.994361    0.047031    11.00000    0.03164    0.03026 =
         0.03080    0.00708   -0.00842   -0.00658
AFIX  23
H4    2    0.761893    0.958414    0.012580    11.00000   -1.20000
H5    2    0.732003    1.054551    0.076406    11.00000   -1.20000
AFIX   0
N2    3    0.533813    0.824863    0.219568    11.00000    0.02984    0.03063 =
         0.02696    0.00134    0.00243    0.00380
C1    1    0.172292    1.172164   -0.081321    11.00000    0.03760    0.02143 =
         0.04990   -0.00158   -0.00944    0.00324
AFIX  43
H1    2    0.069381    1.214819   -0.109645    11.00000   -1.20000
AFIX   0
C2    1    0.135609    1.150617   -0.007567    11.00000    0.02970    0.01755 =
         0.05979   -0.01045    0.00263   -0.00401
AFIX  43
H17   2    0.005961    1.177298    0.015224    11.00000   -1.20000
AFIX   0
C3    1    0.286037    1.089832    0.034983    11.00000    0.04365    0.02304 =
         0.02367   -0.00733    0.00530   -0.01401
AFIX  43
H3    2    0.258293    1.074980    0.086542    11.00000   -1.20000
AFIX   0
C4    1    0.480240    1.049987    0.001864    11.00000    0.03625    0.01611 =
         0.02031   -0.00042   -0.00221   -0.01560
N1    3    0.571307    0.904921    0.098972    11.00000    0.02577    0.02550 =
         0.02863    0.00410   -0.00256   -0.00416
C6    1    0.482140    0.804231    0.064449    11.00000    0.02210    0.02477 =
         0.03268    0.00213    0.00116    0.00037
C7    1    0.393670    0.712956    0.117185    11.00000    0.02117    0.02730 =
         0.03252   -0.00110   -0.00210    0.00321
AFIX  13
H12   2    0.261216    0.677376    0.094715    11.00000   -1.20000
AFIX   0
C8    1    0.559473    0.617860    0.134695    11.00000    0.03006    0.03027 =
         0.03780   -0.00284    0.00309    0.00577
AFIX  23
H8    2    0.615607    0.586617    0.086757    11.00000   -1.20000
H7    2    0.484951    0.553978    0.161187    11.00000   -1.20000
AFIX   0
C9    1    0.750202    0.657808    0.182403    11.00000    0.02723    0.02639 =
         0.04475   -0.00227   -0.00969    0.01427
AFIX  23
H11   2    0.850695    0.703797    0.151072    11.00000   -1.20000
H2    2    0.829673    0.589503    0.201479    11.00000   -1.20000
AFIX   0
C10   1    0.643600    0.901793    0.173352    11.00000    0.03744    0.02278 =
         0.02610   -0.00135   -0.00262    0.00330
C11   1    0.333621    0.774952    0.190133    11.00000    0.02239    0.02962 =
         0.03957   -0.00403    0.01002    0.00465
AFIX  23
H13   2    0.225980    0.836518    0.180270    11.00000   -1.20000
H14   2    0.271306    0.719571    0.226598    11.00000   -1.20000
AFIX   0
C12   1    0.670250    0.733384    0.250515    11.00000    0.04070    0.03806 =
         0.02435    0.00529   -0.00622   -0.00267
AFIX  23
H10   2    0.586687    0.685296    0.286207    11.00000   -1.20000
H9    2    0.795229    0.767254    0.277420    11.00000   -1.20000
AFIX   0
C13   1    0.513009    1.073172   -0.073941    11.00000    0.02964    0.01598 =
         0.02249   -0.00322    0.00266   -0.00021
AFIX  43
H16   2    0.641987    1.048504   -0.098104    11.00000   -1.20000
AFIX   0
C14   1    0.353555    1.133446   -0.114506    11.00000    0.04347    0.02172 =
         0.03300    0.00227   -0.00555   -0.00372
AFIX  43
H15   2    0.374528    1.147097   -0.166588    11.00000   -1.20000
AFIX   0
HKLF 4 1 1 0 0 0 1 0 0 0 1

REM  mo_zm1_0m in P2(1)2(1)2(1)
REM R1 =  0.0761 for    2809 Fo > 4sig(Fo)  and  0.0832 for all    3118 data
REM    163 parameters refined using      0 restraints

END

WGHT      0.1071      2.3682

REM Instructions for potential hydrogen bonds
HTAB C5 S1
HTAB C7 O1_$1
HTAB C9 S1_$2
HTAB C11 S1_$3

REM Highest difference peak  1.227,  deepest hole -0.390,  1-sigma level  0.104
Q1    1   0.7378  1.0249  0.1981  11.00000  0.05    1.23
Q2    1   0.7583  0.7801  0.1991  11.00000  0.05    1.03
Q3    1   0.7048  0.8714  0.0828  11.00000  0.05    0.98
Q4    1   0.3801  0.6578  0.1564  11.00000  0.05    0.85
;
_shelx_res_checksum              46261
_shelx_hkl_file
;
  -1   0   0    0.31    0.09
   1   0   0    0.16    0.07
   2   0   0    2.53    0.20
  -2   0   0    2.63    0.23
  -3   0   0   -0.06    0.19
   3   0   0    0.30    0.18
  -3   0   0   -0.37    0.35
   4   0   0    2.01    0.28
  -4   0   0    2.35    0.33
  -4   0   0    2.63    0.62
  -5   0   0   -0.79    0.71
   5   0   0    0.03    0.29
  -5   0   0   -0.08    0.34
  -6   0   0   71.04    2.60
  -7   0   0   -1.01    0.78
  -8   0   0    2.08    1.05
   0   1   0    0.00    0.04
   0  -1   0   -0.02    0.02
  -1  -1   0   62.97    1.39
  -1   1   0   63.45    1.45
  -1   1   0   63.82    1.37
   1   1   0   66.27    1.36
  -1  -1   0   62.23    1.43
   1  -1   0   64.88    1.35
  -2   1   0    4.14    0.44
   2  -1   0    4.27    0.30
   2   1   0    3.47    0.23
  -2  -1   0    3.32    0.41
  -2  -1   0    3.48    0.29
  -3   1   0   15.61    0.54
  -3  -1   0   13.84    0.81
   3  -1   0   14.92    0.54
   3   1   0   15.15    0.51
  -3  -1   0   15.64    0.59
  -3   1   0   15.45    0.84
   4   1   0    9.47    0.48
  -4  -1   0    9.23    0.86
  -4   1   0    9.47    0.84
  -4  -1   0    8.87    0.56
  -5   1   0   28.73    0.91
  -5   1   0   23.41    1.54
   5  -1   0   28.36    0.92
  -5  -1   0   28.85    1.04
  -5  -1   0   30.18    1.63
   5   1   0   28.17    0.91
  -6   1   0    3.33    0.87
  -6  -1   0    3.08    0.91
  -7  -1   0    0.59    0.85
  -7   1   0    1.64    0.86
  -8   1   0    2.32    1.03
  -8  -1   0    1.31    0.98
   0   2   0   19.53    0.43
   0   2   0   19.02    0.53
   0  -2   0   19.71    0.54
   0  -2   0   19.09    0.43
  -1   2   0   15.59    0.58
  -1  -2   0   14.61    0.57
  -1   2   0   15.72    0.52
   1  -2   0   15.31    0.48
   1   2   0   15.06    0.54
  -1  -2   0   15.35    0.54
  -2  -2   0   38.69    1.12
  -2   2   0   39.32    0.98
  -2   2   0   39.51    1.15
   2  -2   0   40.46    0.94
   2   2   0   38.85    0.95
  -2  -2   0   38.13    1.03
   3  -2   0    3.22    0.28
  -3  -2   0    1.87    0.46
  -3   2   0    2.99    0.26
  -3  -2   0    2.30    0.33
  -3   2   0    2.13    0.48
   3   2   0    2.44    0.26
  -4   2   0   17.05    0.67
  -4  -2   0   16.92    1.08
  -4  -2   0   17.58    0.76
  -4   2   0   18.56    1.16
   4   2   0   16.14    0.62
   5  -2   0    0.71    0.32
  -5   2   0    1.10    0.78
  -5   2   0    0.94    0.34
  -5  -2   0    1.49    0.79
   5   2   0    0.76    0.30
  -5  -2   0    0.33    0.42
  -6  -2   0    5.41    0.58
  -6   2   0    3.33    0.87
  -6  -2   0    4.54    0.95
  -7   2   0    0.57    0.78
  -7  -2   0    0.51    0.87
  -8   2   0    1.38    0.90
  -8  -2   0    1.28    0.99
   0   3   0    0.63    0.27
   0  -3   0    0.69    0.27
   0  -3   0    0.01    0.14
   0   3   0    0.37    0.11
   1   3   0  997.00   19.98
  -1  -3   0  977.07   19.96
  -1   3   0 1000.00   20.10
  -1  -3   0  973.46   19.79
   1  -3   0  998.14   20.09
  -1   3   0  989.06   20.07
   2   3   0  148.83    3.15
  -2   3   0  140.00    3.17
   2  -3   0  151.23    3.14
  -2  -3   0  145.20    3.23
  -2   3   0  151.50    3.32
  -2  -3   0  150.98    3.26
   3   3   0    0.43    0.24
  -3   3   0    0.21    0.23
  -3  -3   0   -0.07    0.40
   3  -3   0    0.50    0.21
  -3   3   0    0.39    0.41
  -3  -3   0    0.12    0.29
   4   3   0   11.29    0.58
  -4   3   0   12.55    1.10
  -4  -3   0   12.54    1.06
  -4  -3   0   11.99    0.73
  -4   3   0   12.37    0.63
  -5  -3   0   45.47    1.94
  -5   3   0   47.29    1.37
  -5   3   0   48.13    1.96
   5   3   0   44.29    1.41
  -5  -3   0   48.70    1.51
  -6  -3   0    3.60    0.93
  -6   3   0    4.33    0.91
  -6  -3   0    3.75    0.56
  -7  -3   0    9.76    1.25
  -7   3   0    9.75    1.18
  -8   3   0    0.49    0.90
  -8  -3   0   -0.02    0.97
   0  -4   0    4.28    0.38
   0   4   0    5.26    0.21
   0   4   0    5.94    0.48
  -1  -4   0  502.83   10.47
  -1   4   0  506.57   10.35
  -1  -4   0  522.00   10.29
   1   4   0  513.14   10.43
   1  -4   0  514.54   10.41
   2   4   0    8.77    0.51
   2  -4   0   10.34    0.51
  -2   4   0    8.77    0.60
  -2  -4   0    8.72    0.57
  -2  -4   0    9.21    0.56
  -2   4   0    9.32    0.53
  -3  -4   0   46.71    1.44
  -3  -4   0   45.54    1.34
  -3   4   0   45.02    1.47
  -3   4   0   45.34    1.28
   3   4   0   47.10    1.22
   4  -4   0    9.48    0.58
   4   4   0   10.37    0.61
  -4  -4   0   10.14    0.89
  -4   4   0    9.99    0.90
  -4  -4   0   10.09    0.77
  -4   4   0    9.66    0.68
  -5   4   0   72.80    2.45
  -5   4   0   72.83    1.95
  -5  -4   0   74.61    2.08
  -5  -4   0   75.42    2.45
  -6  -4   0   32.89    1.32
  -6  -4   0   32.59    1.80
  -6   4   0   33.73    1.79
  -7  -4   0   12.69    1.34
  -7   4   0   12.74    1.31
   0  -5   0    0.20    0.28
   0   5   0    0.44    0.28
  -1   5   0   67.76    1.74
   1   5   0   69.04    1.74
  -1  -5   0   71.27    1.53
  -1   5   0   67.93    1.60
  -2  -5   0   13.78    0.77
   2   5   0   12.99    0.67
  -2   5   0   13.80    0.67
  -2   5   0   13.48    0.69
  -2  -5   0   12.95    0.63
  -3   5   0    1.56    0.38
   3   5   0    1.46    0.37
  -3   5   0    1.91    0.51
  -3  -5   0    1.44    0.46
  -3  -5   0    1.35    0.47
   3  -5   0    1.88    0.38
   4  -5   0    1.83    0.42
   4   5   0    1.88    0.42
  -4   5   0    2.06    0.46
  -4  -5   0    1.78    0.56
  -4  -5   0    1.91    0.67
  -4   5   0    1.85    0.65
  -5   5   0   11.18    0.81
  -5   5   0   10.18    1.02
  -5  -5   0   11.00    1.05
  -5  -5   0   12.02    0.86
  -6   5   0    0.01    0.68
  -6  -5   0   -0.11    0.79
  -6  -5   0    0.84    0.49
  -7  -5   0    0.46    0.88
  -7   5   0    0.30    0.76
   0   6   0   49.43    1.44
   0  -6   0   48.90    1.42
  -1   6   0    0.43    0.21
  -1  -6   0    0.13    0.18
   1  -6   0   -0.19    0.31
  -1  -6   0    0.34    0.14
   1   6   0    0.53    0.36
  -1   6   0    0.50    0.34
   2  -6   0   21.11    0.85
   2   6   0   21.26    0.93
  -2  -6   0   21.62    0.78
  -2  -6   0   20.49    0.95
  -2   6   0   20.87    0.90
  -2   6   0   20.39    0.83
  -3   6   0   41.68    1.35
  -3  -6   0   41.63    1.39
  -3  -6   0   41.53    1.44
   3  -6   0   40.59    1.27
  -3   6   0   40.64    1.44
   3   6   0   39.64    1.28
   4   6   0    5.26    0.54
  -4   6   0    6.04    0.64
  -4  -6   0    6.10    0.79
  -4   6   0    5.22    0.79
  -4  -6   0    5.11    0.67
   4  -6   0    5.16    0.57
  -5  -6   0    5.76    0.88
  -5   6   0    5.20    0.81
  -5   6   0    6.46    0.65
  -5  -6   0    5.43    0.69
  -6   6   0    9.34    1.08
  -6  -6   0    8.92    0.83
  -6  -6   0    9.52    1.16
  -7  -6   0    1.95    0.97
  -7   6   0    1.93    0.84
   0  -7   0   -0.40    0.39
   0   7   0    0.21    0.40
  -1   7   0    7.02    0.62
   1  -7   0    7.97    0.69
   1   7   0    8.31    0.67
  -1  -7   0    8.75    0.69
  -1   7   0    7.96    0.42
  -2   7   0  124.27    3.05
  -2  -7   0  127.68    2.80
  -2   7   0  119.65    2.88
   2  -7   0  121.23    2.97
  -2  -7   0  133.42    3.14
   2   7   0  127.38    3.03
  -3   7   0    4.15    0.61
   3  -7   0    2.63    0.52
   3   7   0    3.63    0.55
  -3   7   0    3.09    0.56
  -3  -7   0    4.01    0.59
  -3  -7   0    2.76    0.63
  -4   7   0    7.33    0.79
  -4  -7   0    5.82    0.78
   4  -7   0    6.76    0.62
   4   7   0    5.66    0.58
  -4   7   0    7.50    0.72
  -4  -7   0    6.93    0.75
  -5  -7   0    7.48    0.93
  -5   7   0    7.64    0.92
  -5  -7   0    7.64    0.82
  -5   7   0    6.94    0.73
  -6   7   0    1.12    0.68
  -6  -7   0    0.25    0.85
  -6  -7   0    0.29    0.58
  -7   7   0   20.70    1.66
   0  -8   0    0.68    0.54
   0   8   0    0.78    0.50
   1   8   0   21.91    1.13
   1  -8   0   20.49    1.02
  -1   8   0   22.28    0.69
   2  -8   0   85.58    2.31
   2   8   0   91.25    2.41
  -2   8   0   87.21    2.41
  -2   8   0   85.41    2.15
  -3  -8   0   -0.28    0.59
   3   8   0    0.52    0.50
   3  -8   0    0.74    0.50
  -3   8   0    0.81    0.56
  -3   8   0   -0.08    0.47
  -4   8   0   68.34    2.10
   4   8   0   66.03    1.91
  -4  -8   0   68.42    2.12
  -4   8   0   69.22    2.11
  -5  -8   0    0.65    0.58
  -5   8   0    0.73    0.56
  -5   8   0    1.04    0.61
  -6   8   0    0.16    0.64
  -6  -8   0    0.97    0.63
   0   9   0    1.10    0.58
   0  -9   0   -0.16    0.55
   1  -9   0   45.49    1.60
  -1  -9   0   46.70    1.67
   1   9   0   44.40    1.68
   2   9   0    9.79    0.88
   2  -9   0    9.18    0.81
  -2  -9   0    8.55    0.88
  -2   9   0   10.87    0.93
  -2   9   0    9.97    0.91
  -3   9   0    0.19    0.52
   3  -9   0    0.12    0.47
   3   9   0    1.23    0.50
  -3  -9   0    1.10    0.58
  -3   9   0    0.32    0.39
  -4   9   0    6.69    0.73
  -4  -9   0    5.24    0.78
  -4   9   0    7.84    0.90
   4   9   0    5.52    0.64
  -5  -9   0    8.10    0.93
  -5   9   0    7.33    0.85
  -5   9   0    8.67    0.95
  -6  -9   0    2.91    0.76
  -6   9   0    3.98    0.82
   0  10   0   34.19    1.60
   0 -10   0   35.15    1.51
  -1 -10   0   22.72    1.31
  -1  10   0   24.21    1.38
   1 -10   0   23.04    1.26
   1  10   0   22.92    1.31
  -2 -10   0    2.14    0.66
   2  10   0    1.92    0.62
  -2  10   0    3.52    0.72
   2 -10   0    3.66    0.63
  -3 -10   0   19.39    1.22
   3 -10   0   19.27    1.10
  -3  10   0   18.21    1.29
   3  10   0   21.56    1.16
  -4  10   0    0.04    0.62
  -4 -10   0    0.33    0.63
   4  10   0    0.86    0.50
  -5  10   0    0.33    0.66
  -5 -10   0    0.80    0.64
  -6 -10   0    3.17    0.80
   0 -11   0    0.52    0.63
   0  11   0    0.22    0.61
   1  11   0   17.13    1.25
  -1  11   0   16.36    1.30
  -1 -11   0   16.81    1.18
   1 -11   0   16.88    1.16
   2  11   0    3.84    0.72
   2 -11   0    3.25    0.69
  -2 -11   0    3.94    0.78
  -2  11   0    4.54    0.84
  -3  11   0   13.75    1.16
   3  11   0   10.35    0.92
  -3 -11   0   11.63    1.05
   3 -11   0   11.39    0.99
  -4  11   0   -0.26    0.65
   4  11   0    1.18    0.54
  -4 -11   0    1.29    0.68
  -5 -11   0    8.75    1.06
  -5  11   0    6.89    1.06
   0  12   0    8.34    0.98
   0 -12   0    8.59    0.96
  -1  12   0    8.10    1.00
   1 -12   0    8.04    0.89
  -1 -12   0    7.83    0.93
   1  12   0    6.26    0.90
   2  12   0   12.73    1.09
  -2 -12   0   11.30    1.11
   2 -12   0   14.04    1.12
  -2  12   0   14.64    1.24
  -3 -12   0   17.99    1.28
   3 -12   0   16.28    1.17
  -3  12   0   17.64    1.37
   3  12   0   19.07    1.23
   4  12   0    1.00    0.55
  -4  12   0   -0.44    0.74
  -4 -12   0    0.24    0.71
  -5 -12   0    2.21    0.84
  -5  12   0    0.22    0.86
   0 -13   0    0.51    0.68
   0  13   0   -0.71    0.68
   1  13   0    1.58    0.72
  -1  13   0    1.68    0.79
  -1 -13   0    0.30    0.67
   1 -13   0    1.84    0.71
   2  13   0    0.51    0.66
   2 -13   0    0.75    0.63
  -2  13   0    0.79    0.77
  -2 -13   0    0.28    0.67
  -3 -13   0    6.68    0.97
  -3  13   0    8.58    1.13
   3  13   0    7.67    0.93
  -4 -13   0    8.91    1.12
  -4  13   0   10.46    1.27
   4  13   0    7.77    1.15
   0 -14   0    2.55    0.80
   0  14   0    3.38    0.89
  -1 -14   0    0.35    0.72
   1  14   0    0.90    0.76
  -1  14   0   -0.20    0.79
   1 -14   0    0.69    0.68
  -2 -14   0    1.21    0.81
  -2  14   0    0.76    0.88
   2  14   0    0.78    0.71
   2 -14   0    0.52    0.72
  -3 -14   0    1.36    0.79
   3  14   0    0.43    0.65
  -3  14   0   -0.23    0.89
   0 -15   0    0.12    0.73
   0  15   0   -0.44    0.83
   1  15   0    1.09    0.90
  -1  15   0    0.60    0.91
   1 -15   0    2.29    0.83
  -1 -15   0    1.78    0.85
   0   0   1   -0.06    0.02
   0   0  -1   -0.05    0.00
   0   0   1   -0.05    0.02
   0   0  -1   -0.06    0.01
   0   0   1   -0.08    0.02
  -1   0   1  310.80    6.10
   1   0   1  296.83    6.06
  -1   0  -1  303.38    6.14
   1   0  -1  311.09    6.19
   1   0  -1  298.24    6.08
   2   0  -1   15.08    0.49
  -2   0   1   15.29    0.46
   2   0   1   15.81    0.42
  -2   0  -1   14.93    0.51
  -3   0  -1   19.29    0.64
   3   0  -1   19.04    0.61
  -3   0   1   15.11    0.77
  -3   0  -1   18.35    0.89
   3   0   1   18.75    0.54
  -3   0   1   19.73    0.59
  -4   0   1    1.35    0.28
   4   0   1    1.47    0.24
  -4   0  -1    1.59    0.61
  -4   0  -1    1.95    0.35
  -4   0   1    1.60    0.58
   4   0  -1    1.54    0.30
  -5   0   1    2.52    0.39
  -5   0  -1    3.39    0.47
  -5   0  -1    2.49    0.85
   5   0  -1    2.44    0.38
  -5   0   1    3.26    0.83
  -6   0  -1    2.88    0.64
  -6   0  -1    3.81    0.89
  -6   0   1    2.01    0.83
  -7   0   1    4.33    1.04
  -7   0  -1    5.89    1.07
  -8   0  -1    2.47    1.02
  -8   0   1    1.45    1.02
   0   1   1  138.48    2.83
   0  -1  -1  138.08    2.82
   0   1  -1  139.87    2.86
   0  -1  -1  140.50    2.83
   0   1   1  140.31    2.80
  -1   1   1  306.86    6.22
   1   1  -1  312.71    6.15
  -1  -1  -1  306.38    6.18
   1  -1   1  306.37    6.15
  -1   1   1  301.73    6.08
  -1  -1  -1  302.30    6.20
  -1   1  -1  304.64    6.23
   1  -1  -1  306.26    6.10
  -1  -1   1  305.46    6.15
   1   1   1  311.07    6.10
  -1  -1   1  301.88    6.21
   1  -1  -1  296.26    6.15
  -1   1  -1  301.89    6.12
  -2   1   1  138.40    3.09
   2   1  -1  141.00    2.90
  -2  -1  -1  143.30    2.96
  -2  -1  -1  138.28    3.08
  -2   1  -1  136.80    3.10
  -2   1  -1  137.06    2.86
  -2  -1   1  126.25    3.05
   2   1   1  139.63    2.83
  -2  -1   1  142.29    2.93
   2  -1  -1  137.01    2.91
  -3   1   1   27.75    0.74
  -3  -1  -1   28.97    1.10
   3   1  -1   27.87    0.79
  -3   1   1   29.34    1.13
  -3  -1  -1   27.31    0.85
  -3  -1   1   28.01    0.81
  -3   1  -1   26.39    0.81
   3  -1  -1   26.19    0.80
  -3   1  -1   28.24    0.74
   3   1   1   27.70    0.71
  -3  -1   1   27.61    1.06
  -3   1  -1   27.97    1.09
   4   1  -1   42.57    1.14
  -4   1   1   41.93    1.58
  -4  -1  -1   42.28    1.23
  -4  -1  -1   41.39    1.57
  -4   1  -1   42.54    1.09
  -4  -1   1   44.50    1.19
  -4  -1   1   45.16    1.61
   4   1   1   42.75    1.06
   4  -1  -1   41.93    1.17
  -5   1   1   20.07    1.44
  -5  -1  -1   23.59    1.55
  -5  -1  -1   26.04    1.02
   5   1  -1   26.50    0.90
  -5   1  -1   19.52    1.42
   5  -1  -1   25.24    0.83
  -5  -1   1   26.43    0.95
  -5  -1   1   22.63    1.54
  -6   1   1    2.31    0.84
  -6  -1  -1    1.59    0.44
  -6  -1  -1    1.26    0.80
  -6   1  -1    1.36    0.79
  -6  -1   1    1.05    0.80
  -7  -1  -1   -0.19    0.81
  -7   1   1   -0.12    0.76
  -7   1  -1    1.67    0.83
  -7  -1   1    1.22    0.91
  -8   1   1    3.08    1.04
  -8  -1  -1    2.03    0.99
  -8   1  -1    3.07    1.05
  -8  -1   1    1.94    1.01
   0   2  -1  163.48    3.33
   0   2   1  165.09    3.38
   0  -2  -1  163.16    3.38
  -1   2   1  634.77   12.80
  -1  -2  -1  629.15   12.67
   1  -2   1  624.91   12.89
  -1   2   1  609.05   12.79
  -1  -2  -1  624.78   12.71
   1   2  -1  650.89   12.73
  -1  -2   1  628.35   12.70
  -1  -2   1  634.93   12.73
   1  -2  -1  648.85   12.79
  -1   2  -1  630.62   12.91
   1   2   1  645.39   12.65
  -1   2  -1  621.78   12.85
  -2  -2  -1   36.58    1.09
  -2   2   1   37.74    0.98
  -2   2   1   38.52    1.13
  -2  -2  -1   35.74    1.01
   2  -2   1   38.88    0.95
   2   2  -1   37.74    0.96
  -2  -2   1   36.87    0.99
  -2   2  -1   38.32    1.16
   2  -2  -1   39.07    0.88
  -2   2  -1   37.90    0.95
   2   2   1   39.46    0.91
  -2  -2   1   37.06    1.10
  -3  -2  -1   99.96    2.34
   3  -2   1  103.67    2.25
  -3  -2  -1  100.87    2.51
  -3   2   1  100.01    2.53
   3   2  -1   98.57    2.23
  -3  -2   1   97.57    2.29
   3   2   1  100.00    2.16
  -3   2  -1   98.35    2.21
   3  -2  -1  105.24    2.18
  -3   2  -1  102.14    2.56
  -3  -2   1   98.83    2.50
   4  -2   1   16.87    0.66
  -4  -2  -1   16.68    1.12
   4   2  -1   16.43    0.66
  -4   2   1   15.12    0.68
  -4   2   1   17.15    1.09
  -4  -2  -1   16.73    0.78
   4   2   1   17.34    0.59
  -4   2  -1   18.35    1.16
  -4  -2   1   15.62    1.08
  -4  -2   1   17.39    0.76
   4  -2  -1   15.93    0.59
  -5   2   1   23.01    0.90
  -5  -2  -1   21.10    1.48
  -5  -2  -1   22.99    0.98
  -5   2   1   24.82    1.55
   5   2  -1   22.29    0.85
   5  -2   1   22.87    0.87
  -5  -2   1   23.02    1.47
  -5  -2   1   22.31    0.94
  -5   2  -1   23.48    1.53
  -5   2  -1   21.73    0.84
  -6   2   1   13.26    1.26
  -6  -2  -1   13.36    0.85
  -6  -2  -1   14.99    1.42
  -6  -2   1   13.74    1.25
  -6   2  -1   13.44    1.22
  -7   2   1    9.15    1.17
  -7  -2  -1    7.11    1.14
  -7   2  -1    7.74    1.11
  -7  -2   1    8.46    1.23
  -8   2   1    1.53    0.93
  -8  -2  -1    0.80    1.01
  -8  -2   1    0.96    1.01
  -8   2  -1    0.77    0.89
   0  -3   1  295.11    6.37
   0   3   1  313.09    6.36
   0  -3  -1  318.79    6.36
   0   3  -1  314.25    6.26
   1  -3   1   94.35    2.08
  -1   3   1   94.90    2.07
  -1  -3  -1   92.51    2.00
   1   3  -1   92.92    2.10
  -1   3   1   94.90    2.10
   1  -3  -1   93.99    2.05
   1   3   1   93.88    2.09
  -1   3  -1   93.21    2.09
  -1  -3   1   90.91    2.12
  -1  -3   1   95.83    2.06
  -1   3  -1   94.87    2.10
   2  -3   1  132.34    2.82
  -2  -3  -1  126.87    2.89
   2   3  -1  131.40    2.83
  -2  -3  -1  128.38    2.90
  -2   3   1  127.69    2.95
  -2   3  -1  129.31    2.83
  -2  -3   1  131.31    2.92
  -2   3  -1  132.33    2.98
   2   3   1  131.19    2.79
   2  -3  -1  131.28    2.76
  -2  -3   1  135.36    2.91
   3   3  -1   46.91    1.24
  -3  -3  -1   46.93    1.47
  -3   3   1   46.82    1.27
  -3  -3  -1   48.92    1.36
  -3   3   1   49.65    1.53
  -3  -3   1   46.05    1.31
  -3  -3   1   48.47    1.49
  -3   3  -1   49.20    1.52
   3   3   1   48.76    1.18
   3  -3  -1   50.70    1.17
   4  -3   1   28.18    0.91
  -4  -3  -1   27.89    1.06
   4   3  -1   27.90    0.91
  -4  -3  -1   29.19    1.34
  -4   3   1   29.99    0.98
  -4   3   1   29.17    1.36
   4  -3  -1   28.63    0.83
   4   3   1   26.42    0.83
  -4  -3   1   26.21    0.99
  -4   3  -1   27.85    0.93
  -4  -3   1   26.86    1.37
  -4   3  -1   27.22    1.37
   5  -3   1    7.28    0.59
  -5   3   1    8.54    1.00
  -5  -3  -1    7.00    0.95
  -5   3   1    8.56    0.67
   5   3  -1    6.59    0.52
  -5  -3  -1    7.06    0.67
  -5  -3   1    8.43    0.67
  -5  -3   1    7.14    0.97
  -5   3  -1    7.71    0.57
  -5   3  -1    8.60    1.01
  -6   3   1   10.10    1.11
  -6  -3  -1   10.96    1.16
  -6  -3  -1   10.32    0.83
  -6   3  -1   10.85    1.14
  -6  -3   1   10.03    0.76
  -6  -3   1   11.32    1.19
  -7  -3  -1   -0.09    0.85
  -7   3   1    0.22    0.75
  -7   3  -1    0.15    0.75
  -7  -3   1    0.61    0.90
  -8   3   1    4.88    1.14
  -8  -3  -1    6.37    1.26
  -8  -3   1    4.58    1.20
  -8   3  -1    6.15    1.14
   0  -4  -1   14.54    0.59
   0   4  -1   14.77    0.44
   0   4   1   15.10    0.62
   1  -4   1   33.70    0.96
  -1  -4  -1   32.93    0.82
  -1   4   1   33.09    0.89
   1   4  -1   32.88    1.00
   1   4   1   34.90    0.99
  -1  -4   1   34.99    0.88
  -1   4  -1   34.40    0.93
   1  -4  -1   33.78    0.93
  -1  -4   1   32.75    1.02
  -2  -4  -1   60.38    1.56
  -2  -4  -1   58.72    1.48
  -2   4   1   58.53    1.57
   2   4  -1   57.83    1.47
  -2   4   1   57.77    1.50
  -2   4  -1   58.82    1.50
  -2  -4   1   59.58    1.52
   2   4   1   58.31    1.45
  -2  -4   1   59.84    1.55
   2  -4  -1   60.62    1.42
  -2   4  -1   58.03    1.57
  -3   4   1    5.15    0.44
   3  -4   1    5.30    0.42
   3   4  -1    4.64    0.40
  -3  -4  -1    3.81    0.49
  -3  -4  -1    4.64    0.55
  -3   4   1    5.16    0.60
   3   4   1    5.49    0.45
  -3   4  -1    5.58    0.61
   3  -4  -1    5.28    0.41
  -3  -4   1    5.00    0.48
  -3  -4   1    5.00    0.57
  -3   4  -1    5.50    0.45
  -4  -4  -1   15.58    1.15
  -4   4   1   16.13    0.80
   4   4  -1   15.54    0.75
   4  -4   1   17.48    0.75
  -4  -4  -1   16.09    0.90
  -4   4   1   18.30    1.18
  -4   4  -1   16.82    1.11
  -4  -4   1   16.04    0.90
   4   4   1   15.28    0.68
  -4  -4   1   16.78    1.19
  -4   4  -1   16.25    0.79
  -5  -4  -1   12.28    0.86
   5  -4   1   12.08    0.75
   5   4  -1   11.63    0.69
  -5   4   1   10.74    1.07
  -5   4   1   11.23    0.76
  -5  -4  -1   13.77    1.26
  -5   4  -1   12.63    1.13
  -5  -4   1   12.01    0.84
  -5  -4   1   10.25    1.04
  -5   4  -1   12.06    0.77
  -6  -4  -1    0.85    0.50
  -6   4   1    1.56    0.79
  -6  -4  -1    1.20    0.82
  -6  -4   1    1.08    0.49
  -6   4  -1    0.69    0.73
  -6  -4   1    0.45    0.79
  -7   4   1    2.74    0.91
  -7  -4  -1    3.93    1.00
  -7  -4   1    2.88    0.99
  -7   4  -1    3.19    0.90
   0  -5  -1    3.73    0.38
   0   5  -1    3.68    0.24
   0  -5   1    4.21    0.42
   0   5   1    3.50    0.38
   0   5  -1    3.77    0.40
  -1   5   1   16.14    0.69
   1   5  -1   17.50    0.76
  -1   5   1   17.17    0.58
   1  -5   1   16.96    0.73
  -1  -5  -1   16.99    0.48
  -1   5  -1   16.56    0.60
  -1  -5   1   16.89    0.75
  -1  -5   1   17.21    0.56
   1   5   1   16.56    0.73
  -1   5  -1   16.14    0.72
  -2  -5  -1  122.70    2.72
  -2   5   1  119.61    2.82
   2  -5   1  124.34    2.80
  -2  -5  -1  122.15    2.87
   2   5  -1  120.55    2.79
  -2   5   1  123.49    2.83
  -2  -5   1  122.46    2.86
  -2   5  -1  121.80    2.83
   2   5   1  123.73    2.79
  -2  -5   1  123.66    2.76
  -2   5  -1  120.82    2.83
   3   5  -1   53.21    1.43
  -3   5   1   52.85    1.63
  -3   5   1   51.84    1.48
  -3  -5  -1   51.78    1.55
   3  -5   1   52.12    1.43
  -3  -5  -1   52.49    1.55
  -3   5  -1   52.79    1.64
  -3  -5   1   51.97    1.57
   3   5   1   51.30    1.39
  -3   5  -1   52.50    1.49
  -3  -5   1   50.64    1.53
  -4   5   1   95.14    2.66
   4   5  -1   94.58    2.29
  -4  -5  -1   92.88    2.60
  -4   5   1   96.39    2.40
   4  -5   1   94.64    2.29
  -4  -5  -1   93.35    2.46
  -4  -5   1   91.05    2.61
   4   5   1   91.20    2.22
  -4   5  -1   96.35    2.67
  -4   5  -1   91.93    2.34
  -4  -5   1   93.57    2.44
   4  -5  -1   94.04    2.22
  -5   5   1   30.86    1.20
  -5   5   1   31.65    1.60
  -5  -5  -1   31.03    1.54
  -5  -5  -1   32.80    1.31
   5   5  -1   34.36    1.11
  -5  -5   1   31.96    1.59
  -5   5  -1   31.35    1.18
  -5  -5   1   30.01    1.26
  -5   5  -1   31.21    1.56
  -6  -5  -1    5.36    0.96
  -6   5   1    4.30    0.89
  -6  -5  -1    4.21    0.67
  -6  -5   1    4.46    0.96
  -6   5  -1    5.03    0.88
  -6  -5   1    5.64    0.68
  -7   5   1    2.24    0.91
  -7  -5  -1    4.51    1.03
  -7   5  -1    3.53    0.87
  -7  -5   1    3.37    1.05
   0   6  -1   12.73    0.75
   0  -6  -1   13.08    0.73
   0  -6   1   13.57    0.72
   0   6  -1   13.51    0.43
   0   6   1   14.15    0.75
  -1  -6  -1   18.18    0.84
   1   6  -1   17.24    0.85
  -1   6   1   17.63    0.58
   1  -6   1   16.72    0.78
  -1   6   1   15.32    0.74
  -1   6  -1   17.20    0.61
  -1  -6   1   18.03    0.57
   1   6   1   18.18    0.83
  -1   6  -1   17.32    0.83
   1  -6  -1   16.25    0.75
  -2  -6  -1    3.56    0.38
   2  -6   1    2.88    0.43
  -2  -6  -1    3.11    0.52
  -2   6   1    3.52    0.43
  -2   6   1    3.65    0.45
   2   6  -1    3.73    0.47
  -2   6  -1    3.47    0.42
   2   6   1    3.51    0.46
  -2  -6   1    2.76    0.50
  -2  -6   1    3.31    0.41
  -2   6  -1    2.60    0.46
   2  -6  -1    2.82    0.40
  -3   6   1   93.92    2.46
   3   6  -1   93.85    2.32
  -3  -6  -1   92.65    2.35
  -3  -6  -1   92.97    2.47
   3  -6   1   92.89    2.34
  -3   6   1   91.11    2.39
  -3  -6   1   93.47    2.45
   3   6   1   95.63    2.31
  -3   6  -1   96.00    2.41
  -3   6  -1   93.82    2.48
  -3  -6   1   96.53    2.40
   3  -6  -1   93.84    2.27
   4   6  -1   13.99    0.84
  -4  -6  -1   13.97    1.11
  -4  -6  -1   13.07    0.96
  -4   6   1   13.94    1.12
   4  -6   1   14.10    0.85
  -4   6   1   14.49    0.93
  -4   6  -1   14.63    0.92
  -4  -6   1   13.22    0.96
  -4  -6   1   14.00    1.11
   4   6   1   13.64    0.78
  -4   6  -1   13.41    1.09
   4  -6  -1   13.02    0.75
  -5  -6  -1    0.03    0.64
  -5   6   1    0.13    0.58
  -5   6   1    0.24    0.44
   5   6  -1    0.42    0.37
  -5  -6  -1    0.71    0.52
  -5  -6   1   -0.10    0.47
  -5   6  -1    0.03    0.57
  -5   6  -1   -0.05    0.42
  -5  -6   1   -1.51    0.62
  -6   6   1    4.59    0.91
  -6  -6  -1    5.04    0.71
  -6  -6  -1    5.02    0.96
  -6  -6   1    4.36    1.00
  -6   6  -1    5.05    0.89
  -6  -6   1    4.82    0.69
  -7  -6  -1    2.19    0.88
  -7  -6  -1    1.83    0.94
  -7   6   1    3.83    0.95
  -7   6  -1    1.30    0.81
  -7  -6   1    2.23    1.02
   0  -7  -1    1.74    0.45
   0   7  -1    1.50    0.18
   0   7  -1    1.28    0.44
   0   7   1    2.18    0.46
   0  -7   1    1.39    0.45
  -1   7   1   97.86    2.18
   1   7  -1   99.28    2.52
   1  -7   1   98.38    2.49
  -1  -7  -1   99.23    2.52
  -1   7  -1   95.44    2.22
  -1   7  -1  100.21    2.54
   1  -7  -1   98.27    2.43
  -1  -7   1  100.56    2.17
   1   7   1  102.82    2.53
   2   7  -1   12.52    0.87
  -2   7   1   11.32    0.67
  -2   7   1   12.37    0.83
  -2  -7  -1   11.78    0.61
  -2  -7  -1    8.10    0.75
   2  -7   1   11.90    0.81
  -2  -7   1   12.00    0.69
   2   7   1   12.97    0.84
  -2  -7   1   11.78    0.90
  -2   7  -1   10.75    0.83
  -2   7  -1   12.33    0.71
   2  -7  -1   12.24    0.75
   3   7  -1   13.50    0.89
  -3   7   1   13.35    0.91
  -3  -7  -1   13.60    0.88
  -3  -7  -1   13.16    0.96
   3  -7   1   12.97    0.85
  -3   7   1   13.63    0.91
  -3   7  -1   12.87    0.95
  -3   7  -1   13.64    0.91
   3   7   1   13.50    0.89
  -3  -7   1   13.34    0.90
  -3  -7   1   12.01    1.00
   3  -7  -1   14.34    0.81
  -4   7   1    6.20    0.68
   4  -7   1    5.17    0.60
  -4  -7  -1    5.66    0.75
   4   7  -1    5.57    0.58
  -4   7   1    5.36    0.73
  -4  -7  -1    4.65    0.71
  -4   7  -1    4.95    0.65
   4   7   1    6.28    0.57
  -4  -7   1    5.59    0.72
  -4   7  -1    6.57    0.75
  -4  -7   1    6.07    0.79
  -5  -7  -1   18.43    1.14
  -5   7   1   19.05    1.32
  -5   7   1   17.25    1.08
  -5  -7  -1   18.36    1.27
  -5  -7   1   17.95    1.34
  -5   7  -1   16.97    1.25
  -5   7  -1   18.06    1.08
  -5  -7   1   16.84    1.11
  -6  -7  -1    0.97    0.62
  -6   7   1    3.19    0.80
  -6   7  -1    2.86    0.78
  -6  -7   1    1.33    0.86
  -6  -7   1    1.34    0.59
  -7   7   1    2.59    0.87
  -7  -7  -1    1.75    0.72
  -7   7  -1    1.98    0.84
   0  -8  -1    9.53    0.78
   0  -8   1    9.66    0.79
   0   8   1   11.26    0.91
   0   8  -1    9.56    0.82
   1  -8   1    7.83    0.73
   1   8  -1    8.44    0.77
  -1  -8  -1    7.03    0.73
  -1   8   1    8.00    0.40
   1  -8  -1    8.77    0.72
  -1   8  -1    7.61    0.65
   1   8   1    7.69    0.74
  -1   8  -1    8.55    0.47
   2   8  -1    1.97    0.55
  -2   8   1    2.43    0.57
  -2   8   1    2.00    0.41
   2  -8   1    1.47    0.54
   2   8   1    1.53    0.56
  -2   8  -1    2.35    0.59
  -2   8  -1    2.06    0.41
  -2  -8   1    2.37    0.66
   2  -8  -1    1.92    0.51
   3   8  -1    6.24    0.66
   3  -8   1    6.54    0.70
  -3  -8  -1    7.37    0.81
  -3   8   1    6.46    0.76
  -3   8   1    6.93    0.69
   3  -8  -1    6.86    0.66
  -3   8  -1    6.73    0.76
   3   8   1    7.43    0.71
  -3  -8   1    6.78    0.82
  -3   8  -1    6.28    0.68
   4  -8   1   14.22    0.94
  -4   8   1   16.02    1.04
  -4   8   1   15.26    1.07
  -4  -8  -1   16.13    1.10
   4   8  -1   13.85    0.92
  -4   8  -1   16.05    1.05
  -4  -8   1   14.71    1.09
   4   8   1   15.23    0.89
  -4   8  -1   15.24    1.09
  -5  -8  -1    8.40    0.90
  -5   8   1    6.98    0.79
  -5   8   1    7.59    0.90
  -5   8  -1    7.70    0.87
  -5  -8   1    6.73    0.84
  -5   8  -1    7.48    0.85
  -6   8   1    9.98    1.08
  -6  -8  -1    8.43    0.95
  -6   8  -1    8.30    1.02
  -6  -8   1    9.64    0.95
   0  -9  -1   10.65    0.88
   0   9   1   12.35    1.05
   0  -9   1   10.77    0.92
   0   9  -1   10.71    0.91
  -1  -9  -1    7.12    0.81
   1  -9   1    6.92    0.76
   1   9  -1    5.64    0.75
   1   9   1    5.45    0.73
  -1   9  -1    6.13    0.78
   1  -9  -1    6.83    0.74
  -1  -9   1    6.55    0.79
   2   9  -1   26.03    1.31
   2  -9   1   25.87    1.26
  -2   9   1   27.51    1.37
  -2  -9  -1   29.96    1.40
  -2   9  -1   27.34    1.00
  -2   9  -1   29.13    1.43
   2   9   1   26.76    1.32
  -2  -9   1   27.77    1.39
   2  -9  -1   27.03    1.22
  -3   9   1   13.55    1.09
  -3   9   1   15.00    0.86
  -3  -9  -1   14.41    1.09
   3   9  -1   14.04    0.99
   3  -9   1   14.07    0.99
   3  -9  -1   14.60    0.90
   3   9   1   13.50    0.99
  -3   9  -1   15.62    1.11
  -3   9  -1   15.36    0.87
  -3  -9   1   14.81    1.12
  -4   9   1    4.68    0.74
   4  -9   1    4.69    0.73
  -4  -9  -1    4.55    0.75
   4   9  -1    3.69    0.58
  -4   9   1    5.49    0.66
  -4  -9   1    5.29    0.78
  -4   9  -1    4.12    0.66
  -4   9  -1    2.89    0.68
   4   9   1    5.66    0.62
  -5  -9  -1    4.19    0.75
  -5   9   1    3.17    0.72
  -5   9   1    4.80    0.77
  -5   9  -1    3.86    0.72
  -5  -9   1    3.24    0.76
  -5   9  -1    3.86    0.76
  -6   9   1    4.65    0.86
  -6  -9  -1    3.54    0.77
  -6  -9   1    4.42    0.81
  -6   9  -1    5.32    0.89
   0  10   1    3.13    0.70
   0 -10   1    2.78    0.70
   0  10  -1    3.75    0.71
   0 -10  -1    3.80    0.73
  -1 -10  -1    2.27    0.64
   1  10  -1    2.65    0.68
   1 -10   1    2.58    0.65
  -1  10   1    1.59    0.65
   1  10   1    3.16    0.68
   1 -10  -1    1.22    0.62
  -1 -10   1    2.79    0.73
  -1  10  -1    3.04    0.70
   2 -10   1   23.17    1.19
  -2  10   1   20.46    1.30
  -2 -10  -1   24.03    1.29
   2  10  -1   22.32    1.25
   2  10   1   22.86    1.26
   2 -10  -1   21.24    1.17
  -2  10  -1   22.46    1.38
  -2 -10   1   21.44    1.23
  -3 -10  -1    2.78    0.68
   3  10  -1    4.59    0.67
  -3  10   1    3.51    0.73
   3 -10   1    5.08    0.71
   3 -10  -1    3.84    0.62
  -3 -10   1    3.55    0.72
  -3  10  -1    3.27    0.74
   3  10   1    5.04    0.67
  -4  10   1   11.93    1.10
  -4 -10  -1   10.32    1.00
   4  10  -1    8.58    0.78
   4  10   1    7.65    0.73
  -4 -10   1    8.07    0.94
  -4  10  -1    8.73    0.98
  -5  10   1    2.99    0.83
  -5 -10  -1    2.15    0.73
  -5 -10   1    3.82    0.77
  -5  10  -1    1.96    0.75
  -6 -10  -1    2.25    0.82
  -6 -10   1    3.31    0.84
   0  11   1   74.04    2.38
   0 -11   1   71.44    2.32
   0  11  -1   70.86    2.33
   0 -11  -1   73.84    2.25
  -1 -11  -1    6.08    0.84
   1 -11   1    5.81    0.80
  -1  11   1    5.88    0.84
   1  11  -1    5.08    0.80
   1 -11  -1    7.41    0.82
  -1  11  -1    5.43    0.84
   1  11   1    6.64    0.86
  -1 -11   1    5.48    0.81
   2  11  -1    9.52    0.92
  -2 -11  -1   12.44    1.07
  -2  11   1   13.31    1.11
   2 -11   1   12.25    1.05
   2 -11  -1   12.41    1.00
  -2  11  -1   13.15    1.10
  -2 -11   1    9.14    0.94
   2  11   1   11.24    0.99
   3  11  -1    3.34    0.67
   3 -11   1    3.13    0.68
  -3 -11  -1    2.77    0.75
  -3  11   1    1.75    0.74
  -3  11  -1    2.32    0.77
   3  11   1    2.75    0.64
  -3 -11   1    1.75    0.70
   3 -11  -1    2.54    0.62
  -4 -11  -1    1.67    0.71
  -4  11   1   -0.60    0.65
   4  11  -1    1.01    0.53
  -4 -11   1    0.62    0.63
   4  11   1    0.71    0.52
  -4  11  -1    0.42    0.71
  -5  11   1   10.71    1.18
  -5 -11  -1   10.64    1.12
  -5  11  -1   11.15    1.17
  -5 -11   1   10.83    1.09
   0  12  -1   19.04    1.47
   0 -12   1   20.38    1.32
   0 -12  -1   22.54    1.37
   0  12   1   19.60    1.44
  -1 -12  -1    1.06    0.68
  -1  12   1    1.43    0.71
   1 -12   1    0.84    0.67
   1  12  -1    0.77    0.66
  -1 -12   1    0.46    0.65
   1 -12  -1    1.63    0.70
   1  12   1    0.97    0.68
  -1  12  -1    0.01    0.67
  -2 -12  -1   11.88    1.09
  -2  12   1   13.00    1.21
   2 -12   1   12.88    1.05
   2  12  -1   11.64    1.02
   2 -12  -1   12.82    1.00
  -2 -12   1    9.57    1.02
  -2  12  -1   13.75    1.21
   2  12   1   11.11    1.03
  -3  12   1    2.56    0.84
   3  12  -1    3.12    0.68
   3 -12   1    3.06    0.74
  -3 -12  -1    3.34    0.78
   3  12   1    1.64    0.63
  -3 -12   1    3.16    0.79
  -3  12  -1    2.15    0.81
  -4  12   1    4.95    1.00
   4  12  -1    4.35    0.72
  -4 -12  -1    5.94    0.93
   4  12   1    3.66    1.05
  -4  12  -1    3.65    0.92
  -4 -12   1    4.84    0.92
  -5  12   1   -0.11    0.86
  -5 -12  -1    1.20    0.81
  -5  12  -1   -0.49    0.82
  -5 -12   1    0.86    0.76
   0 -13   1    1.82    0.79
   0  13   1    0.39    0.72
   0 -13  -1    2.12    0.70
   0  13  -1    1.04    0.75
   1 -13   1   18.73    1.32
   1  13  -1   18.15    1.44
  -1  13   1   19.47    1.43
  -1 -13  -1   19.69    1.41
  -1  13  -1   18.16    1.50
   1 -13  -1   19.05    1.28
  -1 -13   1   17.80    1.38
   1  13   1   16.90    1.40
   2 -13   1    2.82    0.76
  -2 -13  -1    1.81    0.73
  -2  13   1    2.29    0.85
   2  13  -1    2.65    0.71
  -2 -13   1    2.05    0.75
  -2  13  -1    1.36    0.82
   2  13   1    1.90    0.69
   2 -13  -1    1.82    0.68
   3 -13   1    5.51    0.95
  -3 -13  -1    6.16    0.96
  -3  13   1    5.68    1.07
   3  13  -1    6.76    0.88
  -3 -13   1    4.88    0.90
  -3  13  -1    4.42    1.00
   3  13   1    5.81    0.83
   4  13  -1    4.67    0.77
  -4 -13  -1    5.21    1.00
  -4  13   1    6.86    1.14
  -4  13  -1    6.22    1.11
  -4 -13   1    6.09    1.03
   0  14  -1    7.74    1.09
   0  14   1    6.15    1.04
   0 -14  -1    7.25    0.98
   0 -14   1    6.95    0.98
  -1  14   1    7.93    1.12
  -1 -14  -1    7.93    1.06
   1 -14   1    8.14    1.01
   1  14  -1    7.97    1.05
  -1  14  -1    7.03    1.09
  -1 -14   1    8.17    1.03
   1 -14  -1    6.63    0.94
   1  14   1    6.11    1.00
   2 -14   1    2.79    0.79
  -2  14   1    1.67    0.92
  -2 -14  -1    1.87    0.81
   2  14  -1    1.33    0.74
   2 -14  -1    0.57    0.71
  -2  14  -1    1.95    0.91
  -2 -14   1    1.60    0.82
   2  14   1    2.14    0.83
   3  14  -1    2.33    0.74
  -3  14   1    2.39    1.02
  -3 -14  -1    2.40    0.88
  -3 -14   1    2.46    0.83
   3  14   1    3.64    0.80
  -3  14  -1    2.15    0.96
   0  15  -1    1.22    0.88
   0 -15  -1    1.09    0.81
   0 -15   1   -0.33    0.73
   0  15   1   -0.85    0.82
  -1 -15  -1    5.61    1.00
   1  15  -1    6.58    1.09
   1 -15   1    7.08    1.04
  -1  15   1    5.22    1.12
   1 -15  -1    6.88    0.98
  -1  15  -1    4.58    1.07
  -1 -15   1    4.88    1.00
   1  15   1    6.19    1.05
   0   0  -2   35.48    0.78
  -1   0   2  541.62   10.45
  -1   0  -2  518.21   10.60
  -1   0  -2  516.16   10.52
   1   0  -2  528.33   10.69
   1   0  -2  504.06   10.40
   2   0  -2  327.01    6.66
  -2   0   2  335.62    6.57
  -2   0  -2  316.06    6.67
  -3   0  -2   19.11    0.95
  -3   0   2   19.89    0.59
  -3   0  -2   19.20    0.70
   3   0  -2   19.84    0.67
   4   0  -2   57.54    1.47
  -4   0  -2   56.37    1.52
  -4   0  -2   57.35    1.31
  -4   0   2   56.60    1.39
  -4   0   2   57.48    1.86
  -4   0  -2   58.84    1.92
  -5   0   2    4.59    0.89
  -5   0  -2    4.17    0.87
   5   0  -2    4.10    0.46
  -5   0   2    4.01    0.41
  -5   0  -2    3.85    0.51
  -6   0   2    0.87    0.79
  -6   0  -2    0.36    0.41
  -6   0  -2    0.37    0.76
  -7   0  -2    2.04    0.88
  -7   0   2    1.35    0.90
  -8   0   2    0.71    1.00
  -8   0  -2    4.03    1.09
   0  -1   2   40.05    0.90
   0   1  -2   39.93    0.91
   0  -1  -2   40.72    0.88
   0  -1  -2   39.24    0.88
   0   1  -2   40.92    0.90
   0  -1  -2   40.08    0.88
  -1  -1  -2  576.37   11.59
   1   1  -2  574.25   11.73
   1  -1   2  567.96   11.89
  -1  -1  -2  541.53   11.48
  -1   1   2  577.98   11.73
  -1  -1  -2  562.09   11.62
  -1   1  -2  588.99   11.87
  -1  -1   2  588.77   11.59
  -1  -1   2  574.28   11.61
   1   1   2  601.10   11.52
   1  -1  -2  572.90   11.70
  -1   1  -2  589.91   11.66
  -2   1   2   75.45    1.89
  -2  -1  -2   77.60    1.78
  -2  -1  -2   74.45    1.88
   2   1  -2   76.33    1.73
  -2   1  -2   77.03    1.64
  -2  -1   2   77.59    1.70
  -2   1  -2   78.43    1.92
   2  -1  -2   77.60    1.75
   2  -1  -2   78.72    1.60
  -3   1   2    9.22    0.75
   3   1  -2    8.81    0.46
  -3  -1  -2    8.82    0.74
  -3  -1  -2    8.42    0.50
  -3  -1   2    8.99    0.70
  -3   1  -2    8.80    0.47
  -3   1  -2    8.54    0.36
   3  -1  -2    8.84    0.47
   3   1   2    8.67    0.30
  -3  -1   2    8.39    0.43
  -4  -1  -2   16.21    0.75
   4   1  -2   15.73    0.66
  -4   1   2   18.50    1.13
  -4  -1  -2   14.95    1.09
   4   1   2   14.68    0.50
  -4   1  -2   16.30    0.55
  -4  -1   2   15.35    1.06
  -4  -1   2   14.73    0.64
   4  -1  -2   16.56    0.70
  -5   1   2   17.47    1.41
   5   1  -2   15.23    0.74
  -5  -1  -2   14.79    0.86
  -5  -1  -2   13.43    1.29
   5  -1   2   15.54    0.74
   5  -1  -2   14.58    0.77
  -5   1  -2   13.64    1.25
  -5  -1   2   17.06    1.37
  -5  -1   2   15.66    0.75
  -6  -1  -2    3.55    0.91
  -6   1   2    3.87    0.89
  -6  -1  -2    3.82    0.55
  -6  -1   2    4.25    0.94
  -6   1  -2    3.75    0.88
  -7   1   2    6.35    1.08
  -7  -1  -2    4.83    1.01
  -7  -1   2    4.50    1.08
  -7   1  -2    6.60    1.06
  -8  -1  -2    4.94    1.14
  -8   1   2    2.95    1.09
  -8   1  -2    3.86    1.07
  -8  -1   2    2.78    1.07
   0  -2   2   16.93    0.59
   0   2   2   21.91    0.51
   0   2  -2   21.73    0.57
   0   2  -2   16.79    0.57
   0  -2  -2   21.94    0.58
   0   2   2   21.92    0.58
  -1   2   2  110.28    2.36
  -1  -2  -2  107.36    2.32
   1  -2   2  109.21    2.34
  -1   2   2  108.52    2.35
   1   2  -2  109.13    2.35
  -1  -2   2  104.18    2.34
   1   2   2  109.75    2.28
  -1   2  -2  109.08    2.40
  -1  -2   2  106.71    2.36
  -1   2  -2  108.75    2.33
   1  -2  -2  108.22    2.24
  -2  -2  -2   34.23    0.99
   2  -2   2   34.98    0.93
  -2   2   2   35.25    1.07
   2   2  -2   34.47    0.94
  -2  -2  -2   34.54    1.04
   2   2   2   37.12    0.83
   2  -2  -2   34.46    0.95
   2  -2  -2   35.91    0.80
  -2   2  -2   34.22    1.10
  -2   2  -2   35.65    0.90
  -2  -2   2   35.61    0.95
   3   2  -2   24.71    0.79
  -3   2   2   25.69    1.08
  -3  -2  -2   25.12    0.87
  -3  -2  -2   23.53    1.04
   3  -2  -2   25.00    0.83
   3   2   2   25.16    0.65
  -3   2  -2   25.60    1.10
  -3  -2   2   26.56    1.08
  -3   2  -2   26.80    0.74
  -3  -2   2   24.97    0.80
   3  -2  -2   25.28    0.65
  -4   2   2    6.98    0.80
  -4  -2  -2    7.17    0.80
  -4  -2  -2    7.56    0.59
   4   2  -2    7.75    0.53
   4  -2   2    7.50    0.52
   4  -2  -2    7.12    0.39
  -4  -2   2    7.13    0.80
  -4   2  -2    5.30    0.40
   4   2   2    7.27    0.36
  -4  -2   2    6.74    0.54
  -4   2  -2    8.68    0.86
  -5  -2  -2   16.61    1.38
  -5   2   2   15.43    0.80
   5   2  -2   16.87    0.77
   5  -2   2   16.47    0.76
  -5  -2  -2   17.22    0.91
  -5   2   2   16.79    1.39
  -5  -2   2   15.52    0.81
  -5  -2   2   16.39    1.43
  -5   2  -2   16.12    1.40
  -6  -2  -2    5.56    0.62
  -6   2   2    3.51    0.90
  -6  -2  -2    6.68    1.01
  -6   2  -2    5.55    0.96
  -6  -2   2    5.11    0.96
  -7  -2  -2    0.91    0.89
  -7   2   2    0.69    0.86
  -7   2  -2    0.53    0.75
  -7  -2   2    0.58    0.90
  -8   2   2    1.16    0.99
  -8  -2  -2    2.43    1.03
  -8  -2   2    1.35    1.09
  -8   2  -2    0.87    0.88
   0  -3  -2  404.76    8.23
   0   3  -2  403.08    8.30
   0   3   2  409.12    8.24
   1  -3   2   96.71    2.21
  -1  -3  -2   99.27    2.13
   1   3  -2   94.63    2.21
  -1   3   2   97.82    2.19
  -1   3  -2  101.37    2.24
  -1  -3   2  100.28    2.20
  -1  -3   2   98.70    2.25
   1   3   2  102.65    2.19
  -1   3  -2  103.11    2.24
   1  -3  -2  101.07    2.14
  -2   3   2  104.33    2.43
   2  -3   2   99.56    2.29
  -2  -3  -2  102.94    2.38
  -2  -3  -2  101.50    2.36
   2   3  -2  103.87    2.32
   2  -3  -2  105.08    2.20
  -2   3  -2  104.12    2.30
  -2  -3   2  101.80    2.35
  -2   3  -2  106.09    2.46
   2   3   2  105.22    2.25
  -3  -3  -2   28.96    0.97
  -3  -3  -2   27.18    1.09
   3   3  -2   30.87    0.92
  -3   3   2   28.34    1.14
   3  -3   2   29.12    0.89
  -3   3   2   27.64    0.92
   3   3   2   29.67    0.79
   3  -3  -2   29.62    0.77
  -3   3  -2   29.42    1.17
  -3  -3   2   29.87    0.96
  -3  -3   2   29.66    1.14
  -4   3   2   34.69    1.11
  -4  -3  -2   33.51    1.46
  -4   3   2   34.06    1.48
  -4  -3  -2   33.08    1.19
   4   3  -2   35.03    1.09
   4  -3   2   34.34    1.08
  -4  -3   2   34.48    1.12
  -4   3  -2   34.58    1.50
  -4  -3   2   34.51    1.48
  -4   3  -2   35.60    1.05
   4   3   2   34.73    0.92
   4  -3  -2   34.03    0.91
  -5   3   2   10.28    1.06
  -5  -3  -2    9.56    0.81
  -5  -3  -2   10.24    1.06
   5   3  -2   10.60    0.70
  -5   3   2    9.74    0.71
   5  -3   2    9.79    0.68
  -5  -3   2   10.72    0.77
  -5  -3   2   11.36    1.12
  -5   3  -2   10.10    1.04
  -6  -3  -2    7.55    1.05
  -6  -3  -2    5.88    0.69
  -6   3   2    5.57    0.95
  -6  -3   2    4.99    0.97
  -6   3  -2    4.89    0.90
  -7  -3  -2    1.31    0.88
  -7   3   2    1.48    0.86
  -7  -3   2    0.73    0.92
  -7   3  -2    0.44    0.73
  -8   3   2    1.52    0.97
  -8  -3  -2    3.14    1.08
  -8   3  -2    2.64    0.95
  -8  -3   2    1.51    1.07
  -1   4   2  175.94    3.67
   1   4  -2  171.37    3.76
  -1  -4  -2  179.14    3.58
  -1   4  -2  172.30    3.72
  -1  -4   2  175.09    3.68
   1  -4  -2  174.54    3.68
   1   4   2  174.16    3.73
  -1  -4   2  172.42    3.79
  -2   4   2   97.37    2.27
  -2  -4  -2   97.21    2.28
  -2  -4  -2   99.30    2.20
  -2   4   2   92.84    2.21
   2   4  -2   96.78    2.20
   2   4   2   96.92    2.15
  -2  -4   2   96.56    2.26
  -2   4  -2   94.28    2.28
  -2   4  -2   80.79    2.18
   2  -4  -2   96.20    2.10
   3  -4   2   50.69    1.32
  -3  -4  -2   47.36    1.42
  -3  -4  -2   48.24    1.49
  -3   4   2   49.68    1.54
   3   4  -2   47.92    1.32
  -3   4   2   48.86    1.37
  -3  -4   2   49.07    1.52
  -3   4  -2   47.92    1.53
   3   4   2   48.47    1.23
  -3   4  -2   48.65    1.33
   3  -4  -2   48.26    1.20
  -3  -4   2   45.39    1.37
  -4   4   2   29.78    1.42
  -4   4   2   29.51    1.08
  -4  -4  -2   29.19    1.39
  -4  -4  -2   31.00    1.21
   4   4  -2   30.17    1.04
   4  -4   2   31.50    1.04
  -4   4  -2   30.65    1.05
  -4  -4   2   31.13    1.43
  -4  -4   2   30.25    1.14
   4   4   2   30.92    0.90
  -4   4  -2   28.70    1.36
   4  -4  -2   28.80    0.87
   5  -4   2   19.79    0.87
  -5   4   2   19.72    1.36
  -5  -4  -2   18.08    1.40
   5   4  -2   21.00    0.88
  -5  -4  -2   20.19    1.04
  -5   4   2   19.24    0.93
  -5  -4   2   21.55    1.45
  -5  -4   2   19.00    0.97
  -5   4  -2   20.23    1.39
  -5   4  -2   20.34    1.00
  -6  -4  -2   10.64    1.14
  -6  -4  -2   11.35    0.91
  -6   4   2   11.53    1.21
  -6  -4   2   11.16    1.21
  -6  -4   2   10.74    0.84
  -6   4  -2    9.67    1.11
  -7   4   2    0.70    0.84
  -7  -4  -2    1.45    0.91
  -7  -4   2    2.84    1.03
  -7   4  -2    2.25    0.83
   0  -5  -2   10.10    0.55
   0   5  -2   11.32    0.42
   0   5   2   11.88    0.59
   0  -5   2   10.52    0.59
   1   5  -2    0.81    0.32
   1  -5   2    1.08    0.32
  -1   5   2   -0.06    0.07
  -1  -5  -2    0.66    0.34
  -1   5   2    0.75    0.23
  -1   5  -2    0.78    0.32
   1   5   2    0.31    0.28
  -1  -5   2    0.17    0.19
  -1   5  -2    0.29    0.22
   1  -5  -2    0.25    0.13
  -1  -5   2   -0.04    0.32
  -2  -5  -2   81.91    1.89
   2   5  -2   77.81    1.97
   2  -5   2   78.23    1.97
  -2   5   2   79.25    1.99
  -2   5   2   78.40    1.98
  -2  -5  -2   81.26    2.06
  -2   5  -2   81.20    2.00
  -2   5  -2   79.28    2.01
   2   5   2   79.16    1.95
   2  -5  -2   82.03    1.88
  -2  -5   2   84.10    2.08
  -3  -5  -2   14.37    0.88
   3   5  -2   13.15    0.74
   3  -5   2   14.97    0.74
  -3   5   2   13.85    0.89
  -3   5   2   12.97    0.73
  -3  -5  -2   15.07    0.87
  -3  -5   2   14.36    0.87
  -3   5  -2   13.88    0.88
  -3   5  -2   14.33    0.76
   3  -5  -2   14.30    0.61
   3   5   2   14.62    0.68
  -3  -5   2   13.95    0.80
  -4  -5  -2    2.26    0.67
  -4   5   2    3.19    0.71
  -4  -5  -2    2.45    0.57
   4  -5   2    2.82    0.47
   4   5  -2    2.86    0.47
  -4   5   2    3.20    0.50
  -4   5  -2    1.88    0.64
  -4  -5   2    2.41    0.55
  -4   5  -2    3.09    0.50
   4   5   2    2.41    0.37
  -4  -5   2    3.15    0.74
  -5   5   2    2.86    0.77
  -5   5   2    3.12    0.51
  -5  -5  -2    2.44    0.56
  -5  -5  -2    2.36    0.73
   5  -5   2    2.08    0.44
   5   5  -2    3.36    0.46
  -5   5  -2    2.19    0.68
  -5  -5   2    2.85    0.79
  -5   5  -2    2.04    0.47
  -5  -5   2    1.82    0.52
  -6  -5  -2   19.35    1.12
  -6   5   2   17.25    1.46
  -6  -5  -2   19.81    1.47
  -6  -5   2   16.72    1.57
  -6  -5   2   16.30    1.03
  -6   5  -2   17.04    1.40
  -7  -5  -2    6.08    1.08
  -7   5   2    3.97    0.97
  -7  -5  -2    7.26    0.81
  -7  -5   2    5.18    1.15
  -7   5  -2    6.80    1.01
   0  -6   2   20.98    0.87
   0   6  -2   19.80    0.61
   0   6   2   20.37    0.85
   0  -6  -2   18.92    0.83
  -1  -6  -2   79.87    2.07
   1  -6   2   80.85    2.08
  -1   6   2   79.32    1.82
   1   6  -2   83.44    2.09
  -1  -6   2   83.92    1.86
  -1   6  -2   79.82    1.90
   1   6   2   79.81    2.05
  -1  -6   2   80.97    2.11
  -1   6  -2   79.33    2.09
   1  -6  -2   84.00    2.02
  -2   6   2    5.86    0.51
  -2  -6  -2    5.40    0.49
   2  -6   2    5.28    0.54
   2   6  -2    6.04    0.55
  -2   6   2    5.69    0.52
  -2  -6  -2    5.91    0.59
  -2  -6   2    6.32    0.62
  -2   6  -2    6.38    0.54
   2   6   2    6.01    0.53
   2  -6  -2    6.30    0.53
  -2   6  -2    6.11    0.56
  -3  -6  -2    9.18    0.76
   3  -6   2   10.14    0.77
  -3   6   2   10.81    0.79
  -3   6   2   10.87    0.89
  -3  -6  -2   10.91    0.81
   3   6  -2    9.96    0.77
  -3  -6   2   10.83    0.86
   3  -6  -2   10.42    0.65
  -3   6  -2    9.88    0.86
  -3  -6   2   11.37    0.92
   3   6   2   10.18    0.72
  -3   6  -2   10.29    0.80
  -4  -6  -2   20.42    1.10
  -4  -6  -2   20.22    1.24
   4   6  -2   19.48    0.96
  -4   6   2   19.01    1.02
   4  -6   2   20.31    0.97
  -4   6   2   18.88    1.24
   4   6   2   20.24    0.87
  -4  -6   2   20.38    1.28
  -4   6  -2   18.17    1.17
  -4   6  -2   19.74    1.03
  -4  -6   2   19.61    1.10
  -5  -6  -2    8.79    0.94
  -5  -6  -2    9.20    0.85
  -5   6   2    9.25    0.98
  -5   6   2    8.88    0.77
   5   6  -2    8.54    0.72
  -5  -6   2    9.30    1.03
  -5  -6   2    9.77    0.83
  -5   6  -2    8.80    0.73
  -5   6  -2    7.99    0.93
  -6  -6  -2    1.95    0.81
  -6   6   2    1.38    0.63
  -6   6   2    0.63    0.71
  -6  -6  -2    0.84    0.57
  -6   6  -2    0.23    0.66
  -6  -6   2    0.11    0.82
  -6  -6   2    2.06    0.58
  -7  -6  -2    3.79    0.99
  -7   6   2    3.60    0.97
  -7  -6  -2    3.73    0.77
  -7   6  -2    5.42    0.98
  -7  -6   2    1.30    1.01
   0   7   2    1.53    0.42
   0  -7   2    1.84    0.48
   0  -7  -2    0.57    0.41
   0   7  -2   -0.08    0.39
   0   7  -2    1.14    0.20
   1   7  -2   46.79    1.48
   1  -7   2   47.37    1.48
  -1   7   2   44.55    1.10
  -1  -7  -2   44.23    1.44
   1   7   2   41.83    1.42
  -1   7  -2   44.56    1.46
  -1   7  -2   44.74    1.19
  -1  -7   2   45.95    1.16
   1  -7  -2   44.74    1.36
  -2  -7  -2    3.19    0.35
  -2   7   2    3.07    0.44
   2  -7   2    3.38    0.56
   2   7  -2    3.05    0.52
  -2   7   2    3.17    0.52
  -2   7  -2    3.61    0.56
  -2  -7   2    3.30    0.62
  -2   7  -2    4.07    0.48
   2  -7  -2    2.04    0.44
   2   7   2    4.06    0.56
  -3  -7  -2   31.12    1.30
  -3   7   2   31.57    1.25
  -3  -7  -2   29.41    1.12
   3  -7   2   31.94    1.23
   3   7  -2   31.03    1.22
  -3   7   2   33.92    1.30
  -3  -7   2   31.47    1.25
  -3   7  -2   30.21    1.27
  -3   7  -2   29.53    1.26
   3  -7  -2   30.00    1.08
  -3  -7   2   32.19    1.36
   3   7   2   31.40    1.19
  -4   7   2    9.04    0.79
   4  -7   2    9.09    0.75
   4   7  -2   10.46    0.80
  -4  -7  -2    9.99    0.91
  -4  -7  -2    8.52    0.83
  -4   7   2    9.61    0.88
  -4  -7   2   10.13    0.86
  -4  -7   2    8.46    0.87
   4   7   2    9.48    0.73
  -4   7  -2    7.67    0.81
  -4   7  -2   10.47    0.88
  -5   7   2   25.99    1.45
  -5  -7  -2   27.60    1.48
  -5   7   2   28.22    1.31
  -5  -7  -2   27.28    1.34
   5   7  -2   27.19    1.13
  -5  -7   2   27.45    1.32
  -5   7  -2   25.63    1.21
  -5  -7   2   26.04    1.52
  -5   7  -2   25.73    1.41
  -6  -7  -2    7.16    0.84
  -6   7   2    7.95    1.04
  -6   7   2    7.04    0.83
  -6  -7   2    7.84    1.10
  -6   7  -2    8.11    1.00
  -6  -7   2    7.61    0.84
  -7   7   2    1.31    0.84
  -7  -7  -2    1.00    0.70
  -7   7  -2    1.41    0.77
   0   8   2   87.87    2.36
   0   8  -2   85.25    1.95
   0  -8  -2   84.06    2.30
   0  -8   2   90.75    2.39
  -1   8   2   22.91    0.66
   1   8  -2   23.70    1.17
  -1  -8  -2   23.91    1.13
   1  -8   2   23.52    1.12
   1  -8  -2   23.20    1.05
   1   8   2   21.44    1.12
  -1   8  -2   24.79    1.18
  -1   8  -2   23.57    0.80
  -1  -8   2   22.83    0.76
  -2   8   2   20.31    0.84
  -2   8   2   22.39    1.12
   2   8  -2   21.02    1.10
   2  -8   2   20.76    1.10
  -2  -8   2   19.51    1.12
  -2   8  -2   19.39    1.15
   2   8   2   20.68    1.12
  -2   8  -2   19.60    0.88
   2  -8  -2   21.18    1.00
   3   8  -2   92.37    2.48
   3  -8   2   92.90    2.51
  -3   8   2   92.64    2.58
  -3   8   2   92.74    2.47
  -3  -8  -2   95.66    2.64
   3  -8  -2   92.87    2.36
  -3  -8   2   93.38    2.64
   3   8   2   94.35    2.46
  -3   8  -2   95.50    2.50
  -3   8  -2   94.16    2.60
  -3  -8   2   93.42    2.50
  -4  -8  -2    3.16    0.68
   4  -8   2    3.59    0.61
  -4   8   2    2.91    0.62
  -4   8   2    3.98    0.66
   4   8  -2    2.80    0.53
  -4  -8   2    3.15    0.67
  -4   8  -2    3.11    0.64
  -4   8  -2    4.01    0.66
   4   8   2    3.99    0.52
  -5  -8  -2    1.28    0.62
  -5   8   2    1.14    0.57
  -5   8   2    1.11    0.63
   5   8  -2    1.22    0.47
  -5   8  -2    0.12    0.55
  -5  -8   2    1.03    0.62
  -5   8  -2    1.30    0.60
  -6   8   2   10.10    0.97
  -6   8   2   10.12    1.10
  -6  -8  -2   11.18    1.03
  -6   8  -2    9.98    1.13
  -6  -8   2    8.84    0.92
   0  -9  -2   40.86    1.54
   0   9   2   41.26    1.60
   0  -9   2   41.77    1.61
   1   9  -2   13.23    1.08
  -1  -9  -2   13.82    1.10
   1  -9   2   14.04    1.02
   1   9   2   14.03    1.10
  -1   9  -2   15.89    1.18
  -1  -9   2    8.62    0.83
  -1   9  -2   13.53    0.68
   1  -9  -2   11.62    0.95
   2   9  -2   23.85    1.23
  -2   9   2   22.42    1.25
  -2  -9  -2   24.51    1.25
   2  -9   2   22.20    1.24
   2   9   2   23.29    1.24
  -2  -9   2   23.56    1.32
   2  -9  -2   22.64    1.09
  -2   9  -2   23.27    0.95
  -2   9  -2   23.63    1.32
  -3  -9  -2   15.21    1.11
  -3   9   2   15.17    1.10
   3  -9   2   13.36    1.03
   3   9  -2   15.57    0.97
   3   9   2   14.82    0.99
  -3   9  -2   14.80    0.88
  -3  -9   2   14.25    1.07
   3  -9  -2   14.17    0.85
  -3   9  -2   14.76    1.10
  -4   9   2    0.29    0.46
  -4   9   2   -0.16    0.52
  -4  -9  -2   -0.95    0.56
   4   9  -2    0.52    0.48
   4  -9   2   -0.09    0.54
  -4  -9   2    1.01    0.63
  -4   9  -2    0.27    0.58
  -4   9  -2    0.27    0.47
   4   9   2    1.13    0.46
  -5  -9  -2    0.94    0.66
  -5   9   2    0.84    0.59
  -5   9   2    0.09    0.56
  -5   9  -2    0.12    0.61
  -5   9  -2    0.58    0.55
  -5  -9   2    0.48    0.60
  -6   9   2    5.21    0.89
  -6   9   2    2.88    0.81
  -6  -9  -2    4.47    0.85
  -6  -9   2    3.76    0.79
  -6   9  -2    3.96    0.88
   0  10   2    0.55    0.59
   0 -10  -2   -0.16    0.54
   0 -10   2   -0.20    0.61
   0  10  -2   -0.11    0.60
   1 -10   2   19.57    1.22
  -1 -10  -2   21.19    1.26
  -1  10   2   19.63    1.27
   1  10  -2   19.52    1.25
   1 -10  -2   19.32    1.12
   1  10   2   17.93    1.23
  -1 -10   2   20.25    1.27
  -1  10  -2   21.96    1.31
   2 -10   2   26.28    1.30
  -2  10   2   27.69    1.40
   2  10  -2   25.65    1.27
  -2 -10  -2   26.26    1.31
   2 -10  -2   25.18    1.17
   2  10   2   26.07    1.30
  -2  10  -2   24.68    1.39
  -2 -10   2   24.05    1.36
  -3  10   2    9.32    0.94
  -3 -10  -2    7.15    0.85
   3  10  -2    6.16    0.71
   3 -10   2    7.11    0.83
  -3  10  -2    7.85    0.90
   3  10   2    7.08    0.74
  -3 -10   2    5.87    0.86
   3 -10  -2    6.61    0.70
   4  10  -2   12.50    0.97
   4 -10   2   10.83    1.01
  -4 -10  -2   13.08    1.13
  -4  10   2   13.51    1.12
  -4 -10   2   11.61    1.03
  -4  10  -2   12.43    1.07
   4  10   2   12.62    0.94
  -5  10   2    4.67    0.86
  -5 -10  -2    5.20    0.88
  -5 -10   2    4.68    0.83
  -5  10  -2    4.51    0.86
  -6 -10  -2    2.30    0.82
  -6  10   2    0.06    0.74
  -6 -10   2    2.44    0.79
   0  11   2   24.07    1.43
   0  11  -2   21.78    1.39
   0 -11   2   25.56    1.35
   0 -11  -2   26.92    1.33
   1  11  -2   13.28    1.05
  -1  11   2   13.06    1.10
   1 -11   2   12.10    1.06
  -1 -11  -2   13.03    1.07
  -1  11  -2   11.82    1.05
   1 -11  -2   12.03    1.01
   1  11   2   11.75    1.01
  -1 -11   2   13.34    1.15
   2  11  -2   14.46    1.16
  -2 -11  -2   14.24    1.18
  -2  11   2   15.25    1.21
   2 -11   2   14.30    1.12
   2 -11  -2   15.15    1.04
  -2  11  -2   17.40    1.26
   2  11   2   13.73    1.07
  -2 -11   2   14.35    1.17
  -3  11   2    1.89    0.73
   3 -11   2    1.55    0.65
  -3 -11  -2    0.81    0.66
   3  11  -2    1.80    0.60
   3  11   2    2.28    0.62
  -3 -11   2    0.99    0.71
  -3  11  -2    2.14    0.76
  -4 -11  -2   10.80    1.05
  -4  11   2   13.13    1.21
   4  11  -2   12.77    1.04
  -4  11  -2   13.09    1.20
  -4 -11   2   12.36    1.13
  -5 -11  -2    2.21    0.79
  -5  11   2    0.58    0.78
  -5 -11   2    1.36    0.77
  -5  11  -2    1.92    0.83
   0 -12   2    5.25    0.86
   0  12  -2    7.45    0.96
   0  12   2    5.67    0.91
   0 -12  -2    5.91    0.83
  -1  12   2   11.96    1.14
  -1 -12  -2   11.22    1.06
   1  12  -2   11.16    1.07
   1 -12   2   12.35    1.08
  -1  12  -2   11.69    1.09
   1  12   2    9.92    1.02
  -1 -12   2   11.63    1.11
   1 -12  -2   13.13    1.09
  -2  12   2    4.27    0.86
   2  12  -2    4.32    0.78
  -2 -12  -2    4.70    0.84
   2 -12   2    3.91    0.79
  -2 -12   2    4.66    0.85
   2  12   2    3.21    0.74
  -2  12  -2    5.25    0.91
   2 -12  -2    5.53    0.78
   3  12  -2    0.59    0.57
  -3 -12  -2    1.19    0.66
  -3  12   2    0.15    0.75
   3 -12   2    0.51    0.62
   3  12   2    0.93    0.61
  -3 -12   2    1.06    0.69
  -3  12  -2    0.84    0.73
  -4 -12  -2    4.64    0.88
   4  12  -2    6.54    0.81
  -4  12   2    4.65    0.99
  -4 -12   2    7.16    1.01
  -4  12  -2    4.11    0.93
  -5  12   2    0.89    0.88
  -5 -12  -2    2.05    0.83
  -5  12  -2   -0.09    0.82
  -5 -12   2    2.48    0.83
   0 -13   2   -0.38    0.69
   0  13   2   -0.02    0.69
   0  13  -2   -0.65    0.64
   0 -13  -2    0.40    0.63
   1  13  -2    1.72    0.73
  -1  13   2    2.31    0.81
   1 -13   2    3.14    0.76
  -1 -13  -2    1.72    0.73
  -1 -13   2    1.88    0.74
   1  13   2    1.18    0.74
  -1  13  -2    2.68    0.83
   1 -13  -2    2.48    0.69
  -2 -13  -2    3.46    0.83
   2 -13   2    3.49    0.78
   2  13  -2    4.48    0.79
  -2  13   2    3.52    0.94
   2 -13  -2    4.23    0.73
  -2  13  -2    3.33    0.87
   2  13   2    3.64    0.84
  -2 -13   2    5.28    0.91
   3 -13   2   10.11    1.04
  -3 -13  -2    7.91    1.01
  -3  13   2   11.21    1.27
   3  13  -2    8.73    0.95
  -3  13  -2    8.71    1.12
  -3 -13   2    9.71    1.13
   3  13   2    8.29    0.93
  -4 -13  -2    4.19    0.91
   4  13  -2    6.03    0.83
  -4  13   2    3.67    1.05
  -4 -13   2    5.97    1.01
  -4  13  -2    4.84    1.02
   0  14   2    1.57    0.84
   0 -14   2    3.81    0.92
   0  14  -2    2.64    0.85
   0 -14  -2    3.93    0.85
  -1 -14  -2    1.66    0.75
   1 -14   2    1.65    0.76
   1  14  -2    2.60    0.84
  -1  14   2    0.73    0.88
   1  14   2    2.24    0.83
  -1 -14   2    2.79    0.87
   1 -14  -2    1.58    0.72
  -1  14  -2    2.61    0.90
   2  14  -2    5.19    0.90
  -2 -14  -2    6.15    0.98
  -2  14   2    4.36    1.02
   2 -14   2    5.17    0.93
   2 -14  -2    6.17    1.01
   2  14   2    6.29    0.99
  -2 -14   2    6.03    1.00
  -2  14  -2    3.56    1.01
   3  14  -2    9.95    1.02
  -3 -14  -2   10.06    1.18
  -3  14   2    9.26    1.29
  -3  14  -2    7.47    1.15
   3  14   2    9.07    1.01
  -3 -14   2    8.48    1.10
   0  15  -2    2.11    0.95
   0 -15   2    1.59    0.84
   0  15   2    1.34    0.93
   0 -15  -2    2.40    0.84
  -1  15   2    1.63    0.97
   1  15  -2    0.11    0.76
  -1 -15  -2    0.80    0.78
   1 -15   2   -0.09    0.79
  -1  15  -2   -0.21    0.84
   1 -15  -2    0.31    0.74
   1  15   2   -0.36    0.78
  -1 -15   2   -0.52    0.75
   0   0  -3    0.05    0.09
   0   0   3    0.17    0.08
   0   0  -3    0.16    0.09
  -1   0   3   96.48    1.93
  -1   0  -3   92.80    2.04
  -1   0   3   91.74    2.08
  -1   0  -3   93.63    1.90
   1   0  -3   92.32    2.03
   1   0   3   94.76    1.91
  -1   0  -3   92.61    2.10
  -2   0   3  181.17    3.63
  -2   0  -3  178.73    3.80
   2   0  -3  176.04    3.77
   3   0  -3   78.94    1.86
  -3   0  -3   80.77    1.91
  -3   0  -3   77.61    2.10
  -3   0   3   79.47    1.72
  -4   0  -3   99.99    2.40
   4   0  -3   99.80    2.34
  -4   0   3   97.96    2.19
  -4   0  -3  100.86    2.74
   5   0  -3    1.69    0.42
  -5   0  -3    2.07    0.81
  -5   0   3    1.19    0.76
  -5   0  -3    1.94    0.46
  -6   0   3   36.85    1.85
  -6   0  -3   34.38    1.76
  -6   0  -3   34.69    1.30
  -7   0  -3    1.17    0.82
  -7   0   3    0.76    0.87
  -8   0   3   -0.11    0.94
  -8   0  -3    0.84    0.95
   0  -1  -3  534.75   11.17
   0   1  -3  554.06   11.03
   0  -1  -3  542.08   10.96
   0  -1  -3  544.09   10.97
   0  -1   3  537.35   11.11
   0   1  -3  532.41   11.40
  -1   1   3  237.85    4.90
  -1  -1  -3  235.19    4.89
   1  -1   3  234.77    4.86
   1   1  -3  237.70    4.86
   1  -1  -3  239.61    4.86
  -1  -1   3  229.21    4.91
   1   1   3  233.76    4.74
  -1  -1   3  240.50    4.82
  -1   1  -3  236.22    4.78
  -1   1  -3  235.93    4.93
   2   1  -3  166.04    3.56
  -2   1   3  167.15    3.70
  -2  -1  -3  164.52    3.60
   2  -1  -3  166.62    3.56
  -2  -1   3  166.13    3.48
  -2   1  -3  176.39    3.44
  -3   1   3    1.53    0.43
  -3  -1  -3    2.63    0.50
  -3  -1  -3    2.51    0.35
   3   1  -3    2.17    0.30
  -3   1  -3    2.83    0.22
  -3  -1   3    2.69    0.49
  -3  -1   3    2.89    0.28
   3  -1  -3    2.51    0.31
  -4  -1  -3   28.70    1.34
  -4  -1  -3   27.68    1.01
  -4   1   3   28.98    1.37
   4   1  -3   28.03    0.94
  -4   1  -3   27.40    0.76
  -4  -1   3   28.13    1.32
   4  -1  -3   27.84    0.96
  -4  -1   3   27.12    0.84
   5   1  -3   18.15    0.84
  -5  -1  -3   17.90    0.94
   5  -1   3   16.84    0.80
  -5  -1  -3   16.43    1.34
  -5   1   3   17.44    1.45
   5  -1  -3   17.07    0.86
  -5  -1   3   20.90    1.46
  -5  -1   3   18.26    0.75
  -5   1  -3   18.47    1.33
  -6  -1  -3    7.34    0.69
  -6  -1  -3    8.75    1.10
  -6   1   3    7.33    1.03
   6  -1   3    7.82    0.68
  -6  -1   3    6.81    1.04
  -6   1  -3    5.29    0.94
   6  -1  -3    8.12    0.75
  -7  -1  -3    3.99    0.94
  -7   1   3    1.04    0.86
  -7  -1   3    1.80    0.90
  -7   1  -3    2.44    0.89
  -8  -1  -3    1.17    0.96
  -8   1   3    0.11    0.98
  -8   1  -3    1.74    0.92
  -8  -1   3   -0.59    0.98
   0   2  -3   58.16    1.38
   0   2  -3   59.33    1.38
   0   2   3   59.05    1.34
   0  -2  -3   60.22    1.35
   0  -2  -3   59.09    1.30
   0  -2   3   59.81    1.39
  -1   2   3   60.40    1.40
   1  -2   3   59.40    1.38
  -1  -2  -3   58.92    1.36
   1   2  -3   58.42    1.38
  -1   2  -3   58.64    1.36
   1  -2  -3   56.65    1.24
   1   2   3   59.33    1.29
  -1   2  -3   58.05    1.43
  -1  -2   3   57.81    1.40
  -1  -2   3   56.95    1.38
   1  -2  -3   56.03    1.37
   2   2  -3    3.61    0.32
   2  -2   3    2.33    0.23
  -2   2   3    4.02    0.39
  -2  -2  -3    3.39    0.35
  -2  -2  -3    3.57    0.40
   2   2   3    3.34    0.25
  -2   2  -3    3.99    0.41
  -2  -2   3    3.66    0.32
  -2   2  -3    3.98    0.29
   2  -2  -3    3.57    0.32
  -3  -2  -3  142.20    3.19
   3  -2   3  138.84    3.11
   3   2  -3  138.49    3.10
  -3   2   3  145.51    3.37
  -3  -2  -3  141.16    3.32
  -3   2  -3  142.41    3.00
  -3  -2   3  139.95    3.34
  -3   2  -3  143.31    3.38
  -3  -2   3  139.46    3.08
   3  -2  -3  142.01    3.14
   4   2  -3    2.24    0.36
  -4   2   3    2.05    0.64
  -4  -2  -3    1.41    0.41
   4  -2   3    2.67    0.39
  -4  -2  -3    1.40    0.65
  -4   2  -3    1.69    0.62
  -4   2  -3    1.89    0.30
   4  -2  -3    2.39    0.22
  -4  -2   3    2.52    0.37
   4  -2  -3    1.97    0.39
  -4  -2   3    2.51    0.68
  -5  -2  -3    7.17    0.67
   5  -2   3    6.90    0.58
   5   2  -3    6.06    0.53
  -5  -2  -3    6.30    0.94
  -5   2   3    6.86    0.97
  -5   2  -3    5.75    0.91
  -5  -2   3    6.70    0.56
  -5  -2   3    5.54    0.95
  -6   2   3    2.64    0.83
  -6  -2  -3    2.13    0.54
  -6  -2  -3    2.26    0.82
  -6   2  -3    1.75    0.78
  -6  -2   3    1.16    0.84
  -7   2   3    1.48    0.90
  -7  -2  -3    1.60    0.90
  -7   2  -3    0.85    0.74
  -7  -2   3    0.58    0.91
  -8   2   3    5.77    1.17
  -8  -2  -3    4.25    1.08
  -8   2  -3    4.53    1.08
  -8  -2   3    3.45    1.16
   0   3   3  350.52    6.93
   0   3   3  360.29    6.81
   0  -3   3  289.24    6.95
   0  -3  -3  360.45    6.93
   0   3  -3  353.69    6.93
   0   3  -3  318.48    6.95
   1  -3   3  131.00    2.98
   1   3  -3  136.94    2.99
  -1  -3  -3  141.84    2.89
  -1   3   3  140.11    2.95
  -1  -3   3  133.94    2.97
   1  -3  -3  137.79    2.87
   1   3   3  137.47    2.92
  -1  -3   3  137.30    3.01
  -1   3  -3  141.93    2.99
  -1   3  -3  135.06    3.00
   2   3  -3   99.96    2.28
  -2  -3  -3  101.63    2.34
  -2  -3  -3  102.99    2.32
  -2   3   3   99.99    2.36
  -2   3   3   98.38    2.29
  -2   3  -3   99.66    2.25
  -2   3  -3  101.57    2.43
  -2  -3   3  100.23    2.29
   2  -3  -3   96.66    2.10
   2   3   3  101.50    2.18
  -3  -3  -3  153.42    3.48
  -3  -3  -3  154.66    3.56
  -3   3   3  157.45    3.62
   3   3  -3  155.52    3.40
   3  -3   3  156.52    3.40
  -3   3  -3  155.23    3.64
   3  -3  -3  154.19    3.17
   3   3   3  156.19    3.21
  -3  -3   3  151.16    3.60
  -3  -3   3  149.18    3.39
  -3   3  -3  150.14    3.33
  -4  -3  -3   12.25    1.05
  -4   3   3   12.22    0.71
   4   3  -3   12.64    0.70
   4  -3   3   14.06    0.71
  -4   3   3   15.48    1.07
  -4  -3  -3   14.21    0.80
  -4  -3   3   14.87    1.12
  -4  -3   3   14.83    0.76
  -4   3  -3   13.98    1.11
   4   3   3   13.85    0.48
  -5   3   3   21.52    1.39
   5  -3   3   19.56    0.89
   5   3  -3   19.53    0.90
  -5  -3  -3   20.07    1.02
  -5  -3  -3   19.12    1.38
  -5   3   3   20.37    0.94
  -5  -3   3   20.50    1.47
  -5  -3   3   18.75    0.90
  -5   3  -3   18.07    1.36
  -6  -3  -3    2.59    0.57
  -6   3   3    3.46    0.53
  -6   3   3    2.93    0.85
  -6  -3  -3    3.32    0.88
  -6  -3   3    4.01    0.94
  -6   3  -3    1.70    0.77
  -7   3   3    8.45    1.19
  -7  -3  -3   11.13    1.25
  -7  -3  -3    9.63    1.20
  -7   3  -3    9.56    1.19
  -7  -3   3   10.00    1.33
   0   4   3    1.50    0.13
   0  -4  -3    1.32    0.27
   0   4   3    1.31    0.25
   0   4  -3    1.50    0.22
   1   4  -3   20.59    0.77
  -1   4   3   21.54    0.67
  -1  -4  -3   21.53    0.58
  -1  -4   3   21.36    0.81
   1  -4  -3   23.16    0.68
  -1  -4   3   21.90    0.69
   1   4   3   21.07    0.71
  -1   4  -3   22.72    0.73
   2   4  -3  175.76    3.88
  -2  -4  -3  182.23    3.86
  -2   4   3  177.70    3.91
   2  -4   3  179.69    3.90
  -2   4   3  179.49    3.94
  -2  -4  -3  184.71    3.97
   2   4   3  176.20    3.80
   2  -4  -3  179.79    3.73
  -2  -4   3  172.87    3.91
  -2   4  -3  182.23    4.00
  -3  -4  -3   14.43    0.79
  -3   4   3   12.76    0.84
   3  -4   3   13.46    0.65
  -3   4   3   12.54    0.67
   3   4  -3   13.25    0.70
  -3  -4  -3   12.50    0.82
   3  -4  -3   12.95    0.49
  -3   4  -3   11.69    0.82
  -3  -4   3   13.51    0.84
  -3  -4   3   13.12    0.73
   3   4   3   13.99    0.56
  -3   4  -3   13.15    0.66
  -4   4   3   11.64    0.77
   4   4  -3   12.58    0.74
   4  -4   3   12.91    0.73
  -4  -4  -3   13.28    0.89
  -4  -4  -3   14.23    1.10
  -4   4   3   13.60    1.10
  -4   4  -3   10.74    1.04
  -4   4  -3   13.26    0.75
   4   4   3   11.73    0.55
  -4  -4   3   12.61    0.80
  -4  -4   3   13.65    1.12
   5  -4   3   23.18    0.96
   5   4  -3   22.76    0.97
  -5  -4  -3   23.71    1.41
  -5  -4  -3   24.46    1.11
  -5   4   3   23.57    1.03
  -5   4   3   25.39    1.50
  -5   4  -3   23.34    1.39
  -5  -4   3   23.09    1.02
  -5  -4   3   24.89    1.51
  -6  -4  -3    8.83    1.07
  -6  -4  -3    6.16    0.72
  -6   4   3    6.32    1.01
  -6   4   3    6.44    0.65
  -6   4  -3    5.00    0.91
  -6  -4   3    5.32    1.02
  -7   4   3    9.83    1.24
  -7  -4  -3   12.84    1.33
  -7  -4  -3   12.24    1.02
  -7   4  -3   11.78    1.27
  -7  -4   3   12.22    1.42
   0  -5  -3    1.37    0.31
   0  -5   3    0.27    0.15
   0   5   3    1.07    0.28
   0   5  -3    1.01    0.20
  -1   5   3   90.27    2.06
  -1  -5  -3   89.61    2.22
   1   5  -3   92.67    2.23
   1  -5   3   90.15    2.24
  -1  -5   3   95.07    2.27
  -1   5  -3   95.85    2.27
  -1   5  -3   93.04    2.15
   1   5   3   92.19    2.18
  -1  -5   3   94.31    2.12
   2  -5   3   38.11    1.19
  -2  -5  -3   40.19    1.09
   2   5  -3   38.51    1.18
  -2  -5  -3   40.42    1.26
  -2   5   3   38.76    1.18
  -2   5   3   38.84    1.19
  -2   5  -3   35.76    1.18
  -2   5  -3   38.44    1.21
  -2  -5   3   41.32    1.26
   2  -5  -3   38.37    1.04
   2   5   3   38.39    1.13
   3   5  -3   14.87    0.80
  -3  -5  -3   15.33    0.85
   3  -5   3   14.49    0.76
  -3   5   3   14.85    0.78
  -3  -5  -3   15.31    0.86
  -3   5   3   15.30    0.93
  -3   5  -3   15.59    0.80
  -3   5  -3   15.30    0.95
  -3  -5   3   12.42    0.82
  -3  -5   3   14.69    0.92
   3  -5  -3   15.26    0.60
   3   5   3   14.62    0.68
  -4   5   3   32.59    1.47
   4  -5   3   32.25    1.14
  -4   5   3   32.04    1.21
  -4  -5  -3   30.53    1.29
   4   5  -3   32.10    1.17
  -4  -5  -3   31.25    1.41
  -4  -5   3   33.68    1.49
  -4   5  -3   32.81    1.16
   4   5   3   32.89    0.98
  -4  -5   3   33.56    1.25
  -4   5  -3   30.71    1.43
   5  -5   3    1.98    0.47
  -5  -5  -3    2.09    0.56
  -5   5   3    1.89    0.47
   5   5  -3    2.20    0.45
  -5   5   3    1.47    0.68
  -5  -5  -3    2.00    0.70
  -5   5  -3    1.89    0.66
  -5  -5   3    2.21    0.78
  -5  -5   3    2.57    0.53
  -6   5   3   15.74    1.01
  -6   5   3   18.65    1.49
  -6  -5  -3   17.56    1.10
  -6  -5  -3   15.68    1.43
  -6   5  -3   16.62    1.36
  -6  -5   3   15.66    1.27
  -6  -5   3   15.01    1.36
  -7   5   3   12.24    1.33
  -7  -5  -3   14.98    1.18
  -7  -5  -3   17.50    1.56
  -7   5  -3   13.69    1.32
  -7  -5   3   11.47    1.40
   0   6   3   16.37    0.76
   0  -6  -3   15.26    0.72
   0   6  -3   16.06    0.58
   0  -6   3   16.18    0.80
   1   6  -3   13.07    0.76
   1  -6   3   13.04    0.74
  -1   6   3   11.92    0.69
  -1  -6  -3   12.05    0.71
  -1   6   3   13.38    0.53
  -1   6  -3   11.67    0.78
  -1  -6   3   12.47    0.54
  -1   6  -3   11.97    0.56
  -1  -6   3   12.05    0.76
   1   6   3   13.19    0.71
   1  -6  -3   13.35    0.65
   2  -6   3   91.23    2.28
  -2   6   3   89.53    2.19
  -2  -6  -3   93.29    2.04
   2   6  -3   91.71    2.25
  -2   6   3   90.74    2.28
  -2   6  -3   89.80    2.28
  -2  -6   3   93.84    2.32
  -2   6  -3   89.20    2.24
   2   6   3   90.58    2.21
   2  -6  -3   76.08    2.07
   3  -6   3   44.78    1.43
  -3  -6  -3   46.43    1.40
  -3   6   3   43.32    1.50
  -3   6   3   41.77    1.42
  -3  -6  -3   45.04    1.51
   3   6  -3   44.95    1.42
  -3   6  -3   41.38    1.42
   3   6   3   45.14    1.32
  -3  -6   3   44.67    1.48
  -3  -6   3   44.49    1.49
  -3   6  -3   42.71    1.51
   4  -6   3   33.82    1.29
  -4   6   3   32.96    1.55
  -4  -6  -3   35.28    1.41
   4   6  -3   35.16    1.28
  -4   6   3   33.96    1.34
  -4  -6  -3   33.80    1.43
   4   6   3   34.23    1.10
  -4   6  -3   35.10    1.52
  -4  -6   3   30.92    1.31
  -4   6  -3   33.76    1.28
  -4  -6   3   35.39    1.59
  -5   6   3   12.48    0.92
   5  -6   3    9.85    0.85
  -5   6   3   10.88    1.05
   5   6  -3   10.64    0.80
  -5  -6  -3   10.08    0.96
  -5  -6  -3   11.52    1.00
  -5   6  -3   11.52    1.04
  -5   6  -3   10.53    1.00
  -5  -6   3   10.61    1.11
  -5  -6   3   11.26    0.94
  -6  -6  -3    2.30    0.64
  -6   6   3    3.02    0.83
  -6   6   3    2.44    0.59
  -6  -6  -3    4.22    0.87
  -6  -6   3    3.52    0.61
  -6   6  -3    2.81    0.77
  -6  -6   3    1.37    0.87
  -7  -6  -3   18.21    1.59
  -7   6   3   12.50    1.37
  -7  -6  -3   14.73    1.19
  -7  -6   3   12.71    1.43
  -7   6  -3   12.52    1.28
   0   7  -3    0.75    0.21
   0   7   3    0.75    0.38
   0  -7  -3    0.79    0.39
   0  -7   3    0.90    0.45
  -1  -7  -3   43.40    1.44
  -1   7   3   44.06    1.41
   1   7  -3   45.05    1.47
   1  -7   3   44.40    1.45
  -1   7   3   43.13    1.08
  -1   7  -3   42.02    1.20
   1  -7  -3   40.79    1.33
  -1   7  -3   45.59    1.48
  -1  -7   3   43.96    1.18
   1   7   3   44.81    1.42
  -1  -7   3   42.87    1.47
   2   7  -3    5.14    0.59
   2  -7   3    5.68    0.64
  -2  -7  -3    5.44    0.42
  -2   7   3    4.61    0.58
  -2   7   3    6.16    0.54
  -2   7  -3    4.64    0.61
  -2  -7   3    4.80    0.52
   2   7   3    4.64    0.57
  -2  -7   3    5.54    0.69
  -2   7  -3    5.62    0.55
   2  -7  -3    5.52    0.52
  -3   7   3   48.60    1.62
  -3  -7  -3   51.44    1.72
   3  -7   3   52.91    1.66
  -3   7   3   50.07    1.61
  -3  -7  -3   43.31    1.41
   3   7  -3   48.88    1.58
  -3  -7   3   50.01    1.63
   3   7   3   49.81    1.53
   3  -7  -3   48.85    1.39
  -3   7  -3   50.54    1.63
  -3  -7   3   50.01    1.67
  -3   7  -3   50.53    1.65
  -4   7   3    8.93    0.86
   4  -7   3    9.17    0.75
  -4   7   3   10.24    0.83
  -4  -7  -3    9.07    0.87
   4   7  -3    9.86    0.81
  -4  -7  -3    9.74    0.85
  -4   7  -3    9.30    0.87
  -4   7  -3    9.75    0.80
   4   7   3   10.23    0.72
  -4  -7   3   10.60    0.94
  -4  -7   3    9.99    0.84
  -5   7   3    0.49    0.52
  -5  -7  -3    1.52    0.61
  -5   7   3    1.22    0.66
   5   7  -3    1.60    0.48
  -5   7  -3    0.52    0.51
  -5  -7   3    1.55    0.56
  -5   7  -3    1.22    0.61
  -5  -7   3    1.67    0.81
  -6   7   3    2.73    0.64
  -6  -7  -3    1.55    0.64
  -6   7   3    2.74    0.81
  -6  -7   3    1.50    0.88
  -6  -7   3    2.12    0.61
  -6   7  -3    2.47    0.74
  -7  -7  -3    4.75    0.84
  -7   7   3    4.66    1.01
  -7   7  -3    6.00    1.02
  -7  -7   3    4.87    1.29
   0   8   3    5.36    0.63
   0   8  -3    4.78    0.40
   0  -8   3    5.77    0.71
   0  -8  -3    5.78    0.64
  -1  -8  -3    4.59    0.67
   1  -8   3    4.35    0.66
   1   8  -3    5.34    0.67
   1  -8  -3    4.57    0.58
  -1   8  -3    4.97    0.43
  -1   8  -3    4.42    0.66
   1   8   3    4.78    0.64
  -1  -8   3    4.91    0.46
   2  -8   3   43.13    1.60
  -2   8   3   46.16    1.58
  -2   8   3   43.94    1.33
   2   8  -3   45.66    1.57
   2  -8  -3   46.51    1.44
  -2  -8   3   42.43    1.35
   2   8   3   48.02    1.57
  -2  -8   3   47.00    1.69
  -2   8  -3   46.16    1.40
  -2   8  -3   46.71    1.64
  -3   8   3    2.43    0.59
  -3  -8  -3    1.92    0.62
   3   8  -3    2.29    0.55
   3  -8   3    0.91    0.57
  -3   8   3    2.20    0.54
  -3   8  -3    1.73    0.61
  -3  -8   3    1.17    0.56
   3   8   3    1.74    0.56
  -3   8  -3    2.17    0.53
  -3  -8   3    2.30    0.66
   3  -8  -3    2.25    0.49
  -4   8   3    4.20    0.65
   4  -8   3    4.62    0.68
   4   8  -3    3.37    0.56
  -4   8   3    3.85    0.66
  -4  -8  -3    3.53    0.67
  -4   8  -3    4.11    0.66
  -4  -8   3    4.00    0.70
  -4  -8   3    3.73    0.72
   4   8   3    4.81    0.56
  -4   8  -3    3.74    0.65
  -5  -8  -3    6.44    0.82
  -5   8   3    5.53    0.75
  -5   8   3    6.71    0.88
   5   8  -3    7.26    0.70
  -5   8  -3    6.07    0.84
  -5   8  -3    5.58    0.75
  -5  -8   3    5.08    0.77
  -6   8   3    3.23    0.83
  -6   8   3    2.51    0.71
  -6  -8  -3    1.36    0.66
  -6   8  -3    3.69    0.80
  -6  -8   3    1.87    0.66
   0   9   3    9.92    0.85
   0  -9   3    9.91    0.90
   0  -9  -3   10.38    0.90
  -1   9   3   22.18    1.20
   1   9  -3   20.76    1.22
   1  -9   3   23.02    1.27
  -1  -9  -3   21.22    1.16
   1  -9  -3   20.70    1.10
  -1  -9   3   18.61    1.27
  -1   9  -3   20.96    1.25
   1   9   3   19.78    1.18
  -1   9  -3   21.16    0.81
   2  -9   3   59.84    1.94
   2   9  -3   60.82    1.92
  -2  -9  -3   62.49    2.01
  -2   9   3   61.14    2.01
   2  -9  -3   58.03    1.76
   2   9   3   56.77    1.89
  -2   9  -3   59.90    1.68
  -2  -9   3   62.44    2.03
  -2   9  -3   57.32    2.00
   3   9  -3    2.57    0.55
   3  -9   3    3.08    0.66
  -3   9   3    2.38    0.63
  -3  -9  -3    2.29    0.62
  -3   9  -3    3.32    0.52
  -3  -9   3    2.06    0.65
   3  -9  -3    2.53    0.55
  -3   9  -3    2.10    0.64
   3   9   3    2.98    0.60
  -4  -9  -3    5.46    0.83
   4   9  -3    5.07    0.64
  -4   9   3    4.72    0.76
  -4   9   3    5.92    0.84
   4  -9   3    5.62    0.75
  -4   9  -3    6.49    0.75
  -4   9  -3    4.93    0.76
  -4  -9   3    6.04    0.82
  -5   9   3    3.11    0.71
  -5   9   3    2.20    0.70
  -5  -9  -3    2.38    0.69
   5   9  -3    4.02    0.66
  -5   9  -3    4.07    0.75
  -5   9  -3    2.02    0.68
  -5  -9   3    2.63    0.67
  -6  -9  -3    3.64    0.86
  -6   9   3    3.91    0.86
  -6   9   3    1.74    0.75
  -6   9  -3    4.08    0.82
  -6  -9   3    3.80    0.81
   0 -10  -3   14.21    1.05
   0 -10   3   12.91    1.10
   0  10   3   14.11    1.15
   0  10  -3   14.18    1.06
   1 -10   3   29.53    1.38
  -1  10   3   32.43    1.45
  -1 -10  -3   31.29    1.43
   1  10  -3   28.68    1.42
   1  10   3   28.69    1.43
  -1  10  -3   31.58    1.48
  -1 -10   3   29.23    1.42
   1 -10  -3   30.59    1.30
  -2 -10  -3    2.41    0.66
  -2  10   3    1.93    0.63
   2 -10   3    2.23    0.66
   2  10  -3    2.63    0.61
  -2 -10   3    1.82    0.67
  -2  10  -3    2.51    0.66
   2 -10  -3    2.62    0.57
   2  10   3    3.03    0.64
  -3  10   3    2.62    0.70
   3  10  -3    2.64    0.60
   3 -10   3    2.36    0.68
  -3 -10  -3    2.27    0.63
   3  10   3    2.48    0.63
  -3 -10   3    3.18    0.76
  -3  10  -3    1.72    0.66
  -4 -10  -3    1.72    0.68
  -4  10   3    2.75    0.72
   4  10  -3    2.24    0.59
   4 -10   3    1.50    0.65
  -4 -10   3    2.61    0.72
  -4  10  -3    2.49    0.75
   5  10  -3    4.20    0.72
  -5 -10  -3    4.01    0.80
  -5  10   3    3.10    0.79
  -5 -10   3    4.28    0.79
  -5  10  -3    1.72    0.73
  -6 -10  -3    1.84    0.79
  -6  10   3    0.98    0.79
  -6 -10   3    2.44    0.79
   0 -11  -3    0.29    0.57
   0 -11   3    0.45    0.66
   0  11   3    1.31    0.64
   0  11  -3    0.61    0.61
   1 -11   3    1.18    0.66
  -1  11   3    1.44    0.64
   1  11  -3    1.91    0.68
  -1 -11  -3    0.85    0.62
  -1 -11   3    1.59    0.70
   1  11   3    0.21    0.61
   1 -11  -3    1.93    0.60
  -1  11  -3    0.99    0.64
  -2 -11  -3    3.80    0.75
   2  11  -3    4.77    0.74
  -2  11   3    3.77    0.77
   2 -11   3    3.98    0.76
   2  11   3    3.29    0.70
  -2 -11   3    3.81    0.78
  -2  11  -3    4.02    0.78
   2 -11  -3    5.07    0.66
  -3 -11  -3   16.62    1.22
  -3  11   3   16.13    1.38
   3  11  -3   18.13    1.17
   3 -11   3   18.49    1.25
  -3  11  -3   16.60    1.29
  -3 -11   3   16.05    1.31
   3  11   3   18.04    1.19
  -4 -11  -3   16.27    1.26
   4  11  -3   15.62    1.13
   4 -11   3   14.63    1.33
  -4  11   3   16.79    1.32
  -4  11  -3   15.91    1.26
  -4 -11   3   14.95    1.27
  -5 -11  -3    3.66    0.87
  -5  11   3    2.26    0.85
  -5  11  -3    2.42    0.84
  -5 -11   3    3.19    0.83
   0  12   3    7.25    0.95
   0 -12   3    8.57    0.98
   0  12  -3    7.07    0.93
   0 -12  -3    9.55    0.95
   1 -12   3   10.67    1.03
   1  12  -3   12.26    1.09
  -1 -12  -3   13.09    1.12
  -1  12   3   13.99    1.21
  -1  12  -3   12.02    1.12
  -1 -12   3   12.90    1.14
   1 -12  -3   13.07    1.06
   1  12   3   10.75    1.05
  -2  12   3    2.21    0.79
  -2 -12  -3    1.13    0.68
   2 -12   3    1.73    0.70
   2  12  -3    0.74    0.62
   2  12   3    0.40    0.64
   2 -12  -3    2.13    0.61
  -2 -12   3    1.08    0.71
  -2  12  -3    0.73    0.68
   3  12  -3   18.72    1.26
  -3 -12  -3   20.46    1.34
   3 -12   3   19.45    1.31
  -3  12   3   17.65    1.47
   3  12   3   17.22    1.22
  -3 -12   3   17.78    1.39
  -3  12  -3   18.41    1.46
  -4 -12  -3    0.22    0.70
  -4  12   3   -0.02    0.74
   4  12  -3    0.41    0.57
  -4 -12   3    1.37    0.75
  -4  12  -3    0.27    0.74
  -5  12   3    3.65    0.97
  -5  12  -3    3.53    0.94
   0  13   3   13.60    1.24
   0 -13   3   12.00    1.17
   0 -13  -3   14.65    1.24
   0  13  -3   13.30    1.22
   1  13  -3    5.73    0.88
  -1 -13  -3    3.82    0.79
  -1  13   3    3.89    0.91
   1 -13   3    3.32    0.82
  -1 -13   3    4.11    0.89
  -1  13  -3    4.16    0.87
   1 -13  -3    2.90    0.73
   1  13   3    4.67    0.87
   2 -13   3    3.58    0.81
   2  13  -3    4.02    0.78
  -2  13   3    4.89    0.95
  -2 -13  -3    3.49    0.82
   2  13   3    2.06    0.74
   2 -13  -3    3.88    0.70
  -2  13  -3    4.37    0.93
  -2 -13   3    1.93    0.74
  -3 -13  -3    3.72    0.85
   3  13  -3    3.97    0.77
   3 -13   3    3.35    0.83
  -3  13   3    2.82    0.93
  -3  13  -3    1.63    0.85
   3  13   3    2.93    0.75
  -3 -13   3    2.51    0.87
  -4  13   3   -0.51    0.87
   4  13  -3    1.07    0.63
  -4 -13  -3    0.94    0.80
  -4  13  -3    0.24    0.81
  -4 -13   3    1.17    0.79
   0  14  -3    0.48    0.79
   0 -14  -3    2.54    0.77
   0  14   3    0.72    0.80
   0 -14   3    1.00    0.77
  -1  14   3    0.52    0.83
   1 -14   3    0.99    0.77
  -1 -14  -3    1.38    0.75
   1  14  -3    1.11    0.74
   1  14   3    1.15    0.77
  -1  14  -3    0.46    0.78
   1 -14  -3    1.32    0.70
  -1 -14   3    1.64    0.82
   2 -14   3    9.12    1.11
  -2 -14  -3    8.11    1.06
   2  14  -3    7.26    0.98
  -2  14   3    9.38    1.26
  -2  14  -3    8.95    1.18
   2  14   3    8.13    1.05
  -2 -14   3    7.06    1.04
  -3  14   3    3.96    1.09
   3  14  -3    5.50    0.89
   3 -14   3    4.88    0.93
  -3 -14  -3    5.71    1.00
  -3  14  -3    4.72    1.06
  -3 -14   3    3.40    0.90
   3  14   3    3.73    0.81
   0 -15  -3    5.66    0.92
   0  15   3    3.15    1.01
   0  15  -3    4.71    1.05
   0 -15   3    3.37    0.98
  -1  15   3    5.30    1.19
   1  15  -3    5.27    0.99
  -1 -15  -3    4.43    0.92
   1 -15   3    4.24    0.97
   1 -15  -3    5.28    0.93
  -1  15  -3    7.40    1.14
   1  15   3    2.46    0.93
  -1 -15   3    5.72    1.06
   0   0  -4  154.09    3.31
   0   0   4  160.99    3.25
   0   0  -4  154.48    3.24
  -1   0   4  100.99    2.04
  -1   0  -4   95.79    2.20
  -1   0   4   96.66    2.21
   1   0  -4   95.33    2.15
  -1   0  -4  100.09    2.03
  -2   0   4    1.20    0.15
  -2   0   4    1.01    0.30
   2   0  -4    1.15    0.24
  -2   0  -4    0.97    0.25
  -3   0   4    7.01    0.31
  -3   0  -4    7.20    0.52
   3   0  -4    6.90    0.49
  -3   0  -4    7.34    0.65
  -4   0   4   30.91    0.83
   4   0  -4   31.68    1.04
  -4   0  -4   30.72    1.09
  -4   0  -4   30.98    1.41
  -5   0  -4    3.06    0.53
   5   0  -4    2.28    0.46
  -5   0   4    3.35    0.83
  -5   0  -4    2.22    0.77
  -6   0   4   33.94    1.88
   6   0  -4   35.61    1.24
  -6   0  -4   34.57    1.82
  -7   0   4    0.53    0.83
  -7   0  -4    1.24    0.77
  -8   0  -4    1.54    0.96
  -8   0   4    0.00    0.99
   0   1  -4   93.74    2.02
   0  -1  -4   93.18    2.00
   0   1  -4   92.01    2.07
   0  -1  -4   91.43    1.99
   0  -1   4   93.78    2.01
   0  -1  -4   91.74    2.03
   1   1  -4   10.09    0.48
  -1  -1  -4   10.28    0.49
  -1  -1  -4    9.97    0.32
  -1   1   4    9.83    0.49
  -1   1  -4    9.06    0.50
  -1  -1   4   10.97    0.44
  -1  -1   4    9.16    0.44
  -1   1  -4    9.58    0.37
   2   1  -4    1.98    0.28
  -2  -1  -4    1.84    0.28
  -2   1   4    2.28    0.34
  -2  -1   4    2.72    0.23
  -2   1  -4    2.90    0.24
   2  -1  -4    2.61    0.28
  -3   1   4   37.59    1.28
  -3  -1  -4   36.64    1.12
   3   1  -4   36.15    1.05
  -3  -1  -4   35.45    1.27
   3  -1  -4   36.66    1.08
  -3  -1   4   36.95    1.29
  -3  -1   4   37.05    0.95
  -3   1  -4   36.69    0.86
  -4   1   4   24.59    1.28
   4   1  -4   24.10    0.93
  -4  -1  -4   23.40    0.97
  -4  -1  -4   23.21    1.26
   4  -1  -4   24.41    0.62
   4  -1  -4   25.17    0.95
  -4  -1   4   23.95    0.77
  -4  -1   4   26.07    1.29
  -5  -1  -4    7.93    0.99
  -5  -1  -4    7.60    0.69
  -5   1   4    7.87    1.03
   5   1  -4    7.78    0.62
   5  -1   4    7.16    0.60
  -5  -1   4    7.04    0.98
  -5   1  -4    6.82    0.92
   5  -1  -4    6.55    0.60
   6  -1   4   25.60    1.08
   6   1  -4   25.70    1.05
  -6  -1  -4   25.75    1.17
  -6  -1  -4   27.60    1.65
  -6   1   4   24.78    1.61
  -6  -1   4   25.24    1.64
   6  -1  -4   24.88    1.08
  -6   1  -4   26.83    1.63
  -7  -1  -4    1.00    0.83
  -7   1   4    0.64    0.85
  -7   1  -4    1.41    0.83
  -7  -1   4    0.99    0.87
  -8  -1  -4    1.54    0.98
  -8   1   4    0.88    0.98
  -8  -1   4    1.34    1.08
  -8   1  -4    1.73    0.89
   0  -2  -4    0.25    0.15
   0  -2   4    0.40    0.23
   0  -2  -4    0.07    0.21
   0   2  -4    0.10    0.21
   0   2  -4    0.58    0.21
   0  -2  -4    0.41    0.20
  -1   2   4  255.66    5.22
  -1  -2  -4  255.15    5.18
   1   2  -4  255.20    5.21
  -1   2  -4  243.01    5.25
  -1  -2   4  250.23    5.25
  -1   2  -4  250.17    5.14
   1  -2  -4  252.08    5.06
  -1  -2   4  248.70    5.19
   1   2   4  244.13    5.09
  -2  -2  -4   56.55    1.48
  -2   2   4   56.72    1.54
   2   2  -4   58.15    1.45
  -2   2  -4   59.47    1.35
   2   2   4   58.15    1.25
  -2  -2   4   57.61    1.40
   2  -2  -4   57.95    1.45
  -2   2  -4   58.07    1.59
  -3  -2  -4    7.25    0.68
   3   2  -4    4.51    0.40
  -3  -2  -4    5.31    0.47
   3  -2   4    5.42    0.45
  -3   2   4    5.35    0.59
  -3   2  -4    4.40    0.32
   3  -2  -4    4.71    0.42
  -3  -2   4    5.05    0.38
  -3   2  -4    5.67    0.60
  -3  -2   4    3.89    0.54
  -4   2   4   15.60    1.11
   4   2  -4   15.90    0.78
  -4  -2  -4   15.43    1.05
  -4  -2  -4   16.36    0.85
   4  -2   4   16.61    0.77
   4  -2  -4   17.27    0.83
  -4  -2   4   16.72    0.70
  -4   2  -4   15.39    0.62
  -4  -2   4   17.51    1.17
  -5  -2  -4   45.66    1.86
   5   2  -4   43.15    1.38
  -5   2   4   41.96    1.86
   5  -2   4   43.53    1.38
  -5  -2  -4   45.38    1.51
  -5  -2   4   44.33    1.28
  -5  -2   4   44.86    1.95
  -5   2  -4   46.31    1.85
   5  -2  -4   43.88    1.43
  -6   2   4    0.42    0.74
  -6  -2  -4    0.88    0.74
  -6  -2  -4    0.59    0.52
   6   2  -4    0.95    0.60
   6  -2   4    0.49    0.40
  -6   2  -4    1.94    0.75
  -6  -2   4   -0.56    0.75
  -7   2   4    2.61    0.93
  -7  -2  -4    5.17    1.02
  -7  -2  -4    4.71    0.80
  -7  -2   4    5.56    1.10
  -7   2  -4    4.95    0.95
  -8  -2  -4    0.18    0.96
  -8   2   4    0.76    0.97
  -8  -2   4    1.19    1.09
  -8   2  -4    1.57    0.89
   0   3  -4   14.17    0.54
   0   3   4   14.43    0.53
   0  -3  -4   14.34    0.54
   0  -3   4   13.60    0.59
  -1   3   4   57.84    1.38
   1   3  -4   56.82    1.42
  -1  -3  -4   57.04    1.32
  -1   3  -4   57.05    1.44
   1  -3  -4   57.77    1.29
   1   3   4   55.34    1.33
  -1   3  -4   56.64    1.40
  -1  -3   4   56.33    1.42
  -1  -3   4   57.54    1.43
   2  -3   4  131.05    2.98
  -2   3   4  131.88    3.05
  -2  -3  -4  130.40    3.01
   2   3  -4  135.44    3.00
  -2  -3  -4  134.45    3.04
   2  -3  -4  135.71    2.75
  -2   3  -4  138.53    2.94
  -2  -3   4  138.34    3.00
   2  -3  -4  131.97    2.99
  -2  -3   4  133.72    3.08
  -2   3  -4  136.10    3.11
   2   3   4  135.93    2.85
  -3   3   4    0.93    0.43
  -3  -3  -4    0.93    0.37
  -3  -3  -4    0.30    0.40
   3   3  -4    0.22    0.28
   3  -3   4    0.37    0.27
   3  -3  -4    0.66    0.31
  -3  -3   4    0.24    0.40
  -3  -3   4    0.55    0.30
  -3   3  -4    0.37    0.40
   3   3   4    0.73    0.18
  -3   3  -4    0.13    0.26
  -4   3   4    2.94    0.66
   4   3  -4    2.39    0.42
  -4  -3  -4    2.28    0.51
  -4  -3  -4    1.73    0.61
   4  -3   4    2.65    0.42
  -4  -3   4    2.76    0.66
  -4  -3   4    2.36    0.43
  -4   3  -4    3.24    0.66
   5   3  -4   13.15    0.82
  -5   3   4   13.29    0.81
  -5  -3  -4   13.33    0.90
   5  -3   4   13.90    0.80
  -5  -3  -4   12.57    1.09
  -5   3   4   14.84    1.33
  -5  -3   4   14.27    1.34
  -5   3  -4   12.45    1.15
  -5  -3   4   13.27    0.74
  -6  -3  -4    4.11    0.89
  -6   3   4    2.89    0.85
  -6   3   4    3.22    0.51
   6  -3   4    3.68    0.66
  -6  -3  -4    2.29    0.58
  -6  -3   4    3.10    0.92
  -6   3  -4    3.10    0.79
  -7  -3  -4    1.95    0.85
  -7  -3  -4    0.25    0.55
  -7   3   4    1.57    0.87
  -7   3  -4    2.78    0.83
  -7  -3   4    2.65    1.00
   0  -4   4  328.34    7.12
   0   4  -4  339.81    7.05
   0   4   4  347.40    7.07
   0   4   4  351.98    6.90
  -1   4   4  220.96    4.61
  -1  -4  -4  214.26    4.71
  -1   4   4  215.88    4.70
   1  -4   4  215.28    4.72
   1   4  -4  216.74    4.70
  -1  -4  -4  222.60    4.53
   1   4   4  220.45    4.63
   1  -4  -4  226.00    4.58
  -1   4  -4  222.18    4.70
  -1  -4   4  223.93    4.69
  -1  -4   4  226.90    4.75
  -2   4   4    4.54    0.45
   2   4  -4    3.84    0.41
  -2  -4  -4    3.31    0.42
  -2   4   4    4.06    0.39
   2  -4   4    4.51    0.43
  -2  -4  -4    4.20    0.39
   2  -4  -4    3.88    0.31
  -2   4  -4    3.70    0.44
  -2  -4   4    3.28    0.45
   2   4   4    3.40    0.34
  -2  -4   4    3.43    0.42
  -2   4  -4    3.35    0.40
  -3  -4  -4   20.43    0.94
   3  -4   4   18.05    0.79
  -3   4   4   17.17    0.79
   3   4  -4   18.70    0.82
  -3  -4  -4   19.72    0.91
  -3   4   4   18.72    0.96
  -3   4  -4   18.38    0.78
  -3  -4   4   18.87    0.82
  -3   4  -4   18.99    0.97
   3   4   4   19.63    0.65
  -3  -4   4   18.35    0.98
   3  -4  -4   18.37    0.53
  -4   4   4    8.72    0.71
   4   4  -4    8.50    0.64
   4  -4   4    7.84    0.65
  -4  -4  -4    9.05    0.85
  -4   4   4    8.65    0.87
  -4  -4  -4    9.42    0.76
  -4  -4   4    8.87    0.74
  -4   4  -4    8.53    0.59
  -4  -4   4    8.65    0.89
  -4   4  -4    8.28    0.85
  -5   4   4    7.14    0.92
  -5  -4  -4    7.03    0.88
   5  -4   4    8.08    0.64
  -5   4   4    7.54    0.66
  -5  -4  -4    7.00    0.73
   5   4  -4    7.53    0.62
  -5  -4   4    6.69    0.95
  -5  -4   4    7.30    0.63
  -5   4  -4    5.66    0.81
  -6  -4  -4   10.50    0.88
  -6   4   4    8.39    1.08
  -6   4   4    9.79    0.83
  -6  -4  -4   10.28    1.08
  -6   4  -4    9.37    1.05
  -6  -4   4   10.50    1.22
  -7  -4  -4    2.44    0.91
  -7   4   4    3.09    0.93
  -7  -4  -4    1.27    0.62
  -7  -4   4    2.56    1.04
  -7   4  -4    3.09    0.86
   0   5  -4   75.67    1.81
   0   5   4   77.25    1.88
   0   5  -4   77.12    1.93
   0  -5  -4   76.42    1.86
   1   5  -4   57.61    1.54
  -1  -5  -4   56.45    1.54
  -1   5   4   55.36    1.50
  -1   5   4   57.35    1.37
  -1  -5  -4   57.47    1.25
   1  -5   4   54.41    1.54
  -1   5  -4   55.56    1.47
   1   5   4   55.39    1.47
  -1  -5   4   57.24    1.57
  -1   5  -4   57.04    1.54
   2   5  -4   62.40    1.64
  -2   5   4   59.43    1.63
  -2  -5  -4   62.46    1.51
  -2   5   4   60.91    1.62
   2  -5   4   60.17    1.65
  -2  -5   4   59.62    1.64
  -2   5  -4   59.42    1.64
   2  -5  -4   59.36    1.44
  -2  -5   4   65.33    1.73
   2   5   4   59.96    1.55
  -2   5  -4   58.04    1.66
   3   5  -4    4.65    0.53
  -3  -5  -4    4.85    0.57
   3  -5   4    6.30    0.56
  -3   5   4    5.64    0.56
  -3  -5  -4    4.77    0.60
  -3   5   4    5.79    0.65
  -3   5  -4    5.73    0.65
   3  -5  -4    5.79    0.42
  -3  -5   4    6.18    0.61
   3   5   4    5.61    0.45
  -3  -5   4    5.56    0.64
  -3   5  -4    6.18    0.56
  -4   5   4    5.92    0.64
   4  -5   4    7.22    0.63
   4   5  -4    6.38    0.61
  -4  -5  -4    6.70    0.71
  -4  -5  -4    5.65    0.74
  -4   5   4    5.15    0.78
  -4  -5   4    6.23    0.83
  -4   5  -4    7.76    0.63
  -4   5  -4    5.73    0.80
  -4  -5   4    6.61    0.66
  -5   5   4   -0.33    0.62
  -5  -5  -4    0.65    0.51
   5  -5   4    0.67    0.42
  -5  -5  -4    1.03    0.63
  -5   5   4    0.69    0.41
   5   5  -4    0.56    0.39
  -5   5  -4   -0.17    0.55
  -5  -5   4    0.72    0.46
  -5  -5   4    0.96    0.74
  -6   5   4    1.02    0.48
  -6  -5  -4    0.07    0.53
  -6   5   4   -0.49    0.71
  -6  -5  -4    1.68    0.76
  -6  -5   4   -0.12    0.82
  -6   5  -4    0.77    0.66
  -7   5   4    1.75    0.87
  -7  -5  -4    3.95    0.97
  -7  -5  -4    3.84    0.73
  -7   5  -4    3.31    0.89
  -7  -5   4    0.63    0.99
   0   6  -4   31.00    1.11
   0   6   4   30.70    1.05
   0  -6  -4   31.58    1.05
   0   6  -4   31.15    0.93
   1   6  -4    5.73    0.55
  -1   6   4    4.92    0.49
  -1  -6  -4    5.22    0.52
   1  -6   4    5.63    0.55
  -1   6   4    5.35    0.40
   1   6   4    5.77    0.52
  -1   6  -4    5.46    0.46
  -1  -6   4    6.03    0.61
  -1   6  -4    6.56    0.57
   1  -6  -4    5.77    0.50
  -2  -6  -4   58.76    1.43
   2   6  -4   57.99    1.65
   2  -6   4   59.52    1.69
  -2   6   4   57.78    1.65
  -2   6   4   58.51    1.58
  -2  -6   4   56.27    1.61
  -2   6  -4   56.78    1.69
  -2   6  -4   55.19    1.62
  -2  -6   4   59.77    1.75
   2   6   4   55.76    1.59
  -3  -6  -4   21.30    1.08
   3  -6   4   21.22    1.01
  -3   6   4   23.11    1.09
  -3  -6  -4   21.96    0.94
   3   6  -4   20.68    1.00
  -3   6   4   22.15    1.00
  -3   6  -4   22.17    1.07
  -3  -6   4   21.93    1.10
  -3   6  -4   22.52    1.04
   3  -6  -4   19.54    0.74
  -3  -6   4   22.39    1.09
   3   6   4   23.37    0.93
  -4  -6  -4   15.69    1.06
  -4   6   4   14.76    0.94
   4  -6   4   17.34    1.02
  -4   6   4   15.04    1.18
   4   6  -4   15.32    0.93
  -4  -6  -4   16.32    1.06
  -4  -6   4   14.89    1.19
  -4   6  -4   14.87    0.92
  -4   6  -4   15.95    1.14
  -4  -6   4   14.56    0.97
  -5  -6  -4    1.66    0.65
  -5   6   4    1.23    0.70
   5  -6   4    1.93    0.53
   5   6  -4    1.04    0.44
  -5   6   4    1.71    0.51
  -5  -6  -4    1.46    0.56
  -5  -6   4    1.50    0.52
  -5  -6   4    1.72    0.77
  -5   6  -4    1.08    0.62
  -6   6   4    7.36    1.03
  -6   6   4    6.39    0.79
  -6  -6  -4    7.33    0.85
  -6  -6  -4    8.43    1.01
  -6  -6   4    5.37    1.05
  -6   6  -4    9.14    1.10
  -7  -6  -4    2.32    1.12
  -7   6   4    2.89    0.94
  -7  -6  -4    1.58    0.71
  -7   6  -4    1.25    0.79
  -7  -6   4    0.25    1.02
   0   7  -4    4.01    0.36
   0  -7  -4    2.85    0.49
   0   7   4    3.69    0.49
   0   7  -4    3.63    0.49
   0  -7   4    3.71    0.55
   1   7  -4   46.83    1.52
   1  -7   4   48.27    1.57
  -1  -7  -4   45.96    1.50
  -1   7   4   47.50    1.17
  -1   7   4   48.18    1.50
  -1   7  -4   48.59    1.34
  -1  -7   4   46.15    1.54
   1  -7  -4   46.30    1.37
  -1   7  -4   47.41    1.55
   1   7   4   46.02    1.45
   2   7  -4    4.75    0.60
  -2  -7  -4    5.66    0.47
  -2   7   4    5.35    0.54
   2  -7   4    6.33    0.69
  -2   7   4    4.37    0.49
   2   7   4    5.34    0.61
  -2  -7   4    4.62    0.54
  -2  -7   4    3.96    0.65
  -2   7  -4    4.70    0.63
  -2   7  -4    4.74    0.52
   2  -7  -4    3.97    0.47
  -3   7   4   32.05    1.27
   3   7  -4   28.53    1.22
  -3  -7  -4   29.55    1.13
  -3  -7  -4   28.62    1.32
   3  -7   4   30.41    1.27
  -3   7   4   28.91    1.27
  -3  -7   4   28.30    1.28
   3   7   4   29.96    1.17
  -3   7  -4   30.37    1.28
  -3   7  -4   28.97    1.24
  -3  -7   4   28.90    1.27
   3  -7  -4   29.55    0.99
   4  -7   4   14.62    0.95
  -4  -7  -4   12.05    1.01
  -4   7   4   12.36    0.94
   4   7  -4   14.55    0.91
  -4   7   4   14.57    1.08
  -4   7  -4   13.55    0.93
  -4  -7   4   13.40    0.98
  -4   7  -4   13.38    1.00
  -4  -7   4   13.01    1.15
  -5  -7  -4    1.12    0.60
   5  -7   4    0.63    0.52
  -5   7   4    0.72    0.51
   5   7  -4    1.45    0.48
  -5   7   4    1.16    0.67
  -5  -7   4    2.14    0.59
  -5  -7   4    0.81    0.75
  -5   7  -4    1.12    0.65
  -6  -7  -4    0.59    0.63
  -6   7   4    1.87    0.76
  -6   7   4    1.62    0.61
  -6  -7   4   -1.00    0.84
  -6  -7   4    1.39    0.61
  -6   7  -4    1.40    0.68
  -7  -7  -4    5.29    0.88
  -7   7   4    5.07    1.07
  -7   7  -4    6.35    1.08
  -7  -7   4    4.81    1.21
   0   8   4    2.83    0.54
   0   8  -4    3.32    0.36
   0  -8  -4    2.93    0.59
   0  -8   4    1.76    0.37
  -1  -8  -4    3.10    0.61
   1  -8   4    3.90    0.66
   1   8  -4    4.08    0.62
  -1   8   4    2.21    0.53
   1  -8  -4    4.18    0.55
  -1   8  -4    3.67    0.65
  -1   8  -4    4.50    0.44
   1   8   4    4.64    0.63
   2   8  -4   36.34    1.43
  -2  -8  -4   38.23    1.47
   2  -8   4   39.75    1.53
  -2   8   4   38.87    1.23
  -2   8   4   34.81    1.43
  -2   8  -4   38.73    1.51
  -2  -8   4   39.56    1.29
   2   8   4   41.63    1.49
  -2  -8   4   41.34    1.61
  -2   8  -4   40.93    1.30
   2  -8  -4   39.38    1.27
   3   8  -4    9.39    0.78
   3  -8   4    8.73    0.82
  -3  -8  -4    8.90    0.87
  -3   8   4    8.85    0.85
  -3   8   4    9.36    0.82
  -3   8  -4    8.72    0.78
  -3  -8   4    8.94    0.79
  -3  -8   4    8.38    0.87
  -3   8  -4    9.20    0.84
   3   8   4    9.45    0.75
  -4   8   4   17.47    1.11
  -4  -8  -4   17.49    1.18
   4   8  -4   17.01    1.01
   4  -8   4   19.06    1.13
  -4   8   4   19.10    1.13
  -4  -8   4   16.41    1.18
  -4   8  -4   17.41    1.10
  -4  -8   4   17.00    1.13
  -4   8  -4   17.51    1.11
  -5   8   4    5.43    0.84
  -5   8   4    5.15    0.76
  -5  -8  -4    3.81    0.76
   5   8  -4    5.68    0.66
  -5  -8   4    3.68    1.32
  -5   8  -4    4.38    0.77
  -5  -8   4    5.36    0.78
  -6  -8  -4    6.99    0.90
  -6   8   4    7.23    0.90
  -6   8   4    7.43    0.99
  -6  -8   4    8.81    0.90
  -6   8  -4    6.99    0.96
   0  -9  -4    1.63    0.62
   0  -9   4    1.75    0.68
   0   9  -4    1.97    0.33
   0   9  -4    1.07    0.59
   0   9   4    2.12    0.59
   1   9  -4    0.53    0.56
   1  -9   4   -0.03    0.59
  -1   9   4    0.44    0.55
  -1  -9  -4   -0.04    0.58
  -1   9  -4    0.32    0.30
  -1  -9   4   -0.23    0.62
   1  -9  -4   -0.50    0.48
   1   9   4    0.71    0.56
  -1   9  -4   -0.13    0.58
  -2   9   4   31.22    1.41
   2  -9   4   29.01    1.41
   2   9  -4   29.77    1.34
  -2  -9  -4   30.03    1.36
  -2   9  -4   32.49    1.43
  -2  -9   4   28.95    1.43
   2  -9  -4   29.69    1.17
   2   9   4   29.62    1.35
  -2   9  -4   28.46    1.09
  -3  -9  -4   40.56    1.61
   3  -9   4   39.89    1.59
  -3   9   4   42.67    1.64
   3   9  -4   43.28    1.56
   3   9   4   41.26    1.50
  -3  -9   4   40.50    1.66
  -3   9  -4   41.89    1.68
  -3   9  -4   42.22    1.47
   4   9  -4    6.68    0.73
   4  -9   4    6.28    0.80
  -4   9   4    7.68    0.86
  -4  -9  -4    6.03    0.82
  -4   9  -4    8.49    0.83
  -4   9  -4    8.10    0.87
  -4  -9   4    6.51    0.84
   5   9  -4    0.58    0.48
  -5  -9  -4    0.59    0.64
  -5   9   4   -1.09    0.54
  -5   9  -4    0.54    0.55
  -5  -9   4    0.87    0.61
  -6   9   4    0.66    0.68
  -6  -9  -4    2.66    0.80
  -6   9  -4    2.74    0.76
  -6  -9   4    1.79    0.73
   0 -10  -4    2.16    0.62
   0  10   4    2.49    0.65
   0 -10   4    1.55    0.65
   0  10  -4    2.98    0.68
   1 -10   4    8.66    0.88
   1  10  -4   10.86    0.93
  -1 -10  -4    8.91    0.85
  -1  10   4    8.43    0.86
  -1 -10   4    8.97    0.93
  -1  10  -4    9.69    0.92
   1 -10  -4    8.90    0.77
   1  10   4    9.71    0.89
  -2 -10  -4   18.11    1.19
   2  10  -4   15.83    1.12
  -2  10   4   18.59    1.26
   2 -10   4   17.66    1.15
   2 -10  -4   16.61    0.97
  -2  10  -4   15.76    1.17
  -2 -10   4   18.71    1.26
   2  10   4   18.46    1.15
  -3 -10  -4    0.15    0.57
  -3  10   4    0.85    0.59
   3 -10   4   -0.18    0.58
   3  10  -4    0.02    0.49
   3  10   4   -0.33    0.50
  -3  10  -4    0.64    0.61
  -3 -10   4   -0.46    0.58
  -4 -10  -4    3.35    0.73
   4  10  -4    5.17    0.69
   4 -10   4    2.86    0.75
  -4  10   4    2.10    0.73
  -4  10  -4    5.59    0.85
  -4  10  -4    4.16    0.69
  -4 -10   4    2.99    0.75
  -5  10   4    4.61    0.86
  -5 -10  -4    4.72    0.87
   5  10  -4    5.17    0.71
  -5  10  -4    6.62    0.86
  -5 -10   4    3.97    0.81
  -6 -10  -4    1.41    0.77
  -6  10   4    0.91    0.77
  -6  10  -4    2.38    0.85
  -6 -10   4    2.96    0.79
   0  11  -4   -0.12    0.58
   0  11   4    0.68    0.62
   0 -11   4    0.86    0.66
   0 -11  -4    0.10    0.55
   1 -11   4    5.24    0.83
  -1 -11  -4    6.79    0.84
   1  11  -4    5.41    0.78
  -1  11   4    5.79    0.83
   1  11   4    5.53    0.80
  -1  11  -4    6.82    0.88
   1 -11  -4    4.86    0.70
  -1 -11   4    6.47    0.88
  -2 -11  -4    4.42    0.78
   2 -11   4    4.73    0.81
  -2  11   4    4.64    0.82
   2  11  -4    4.07    0.70
   2  11   4    3.31    0.74
  -2 -11   4    5.31    0.89
   2 -11  -4    5.24    0.66
  -2  11  -4    4.81    0.82
   3  11  -4   14.28    1.12
  -3  11   4   15.65    1.20
  -3 -11  -4   14.37    1.17
   3 -11   4   14.04    1.21
   3  11   4   12.06    0.99
  -3  11  -4   14.40    1.15
  -3 -11   4   15.68    1.27
   4  11  -4    1.24    0.55
  -4 -11  -4    0.53    0.65
  -4  11   4    0.14    0.66
   4 -11   4   -0.14    0.64
  -4 -11   4    0.20    0.67
  -4  11  -4   -0.87    0.59
   5  11  -4    1.94    0.62
  -5 -11  -4    1.97    0.81
  -5  11   4    0.33    0.75
  -5 -11   4    2.45    0.83
   0  12   4    0.61    0.69
   0 -12  -4    1.33    0.65
   0 -12   4    2.50    0.77
   0  12  -4    0.41    0.67
  -1 -12  -4    4.08    0.76
   1  12  -4    4.73    0.79
  -1  12   4    2.61    0.78
   1 -12   4    3.60    0.81
   1 -12  -4    2.93    0.68
  -1 -12   4    3.65    0.84
  -1  12  -4    2.63    0.78
   1  12   4    3.53    0.82
  -2 -12  -4    4.24    0.80
   2 -12   4    5.41    0.86
   2  12  -4    5.59    0.80
  -2  12   4    6.30    0.94
  -2  12  -4    5.41    0.88
   2 -12  -4    7.18    0.76
  -2 -12   4    3.09    0.78
   2  12   4    3.49    0.76
  -3 -12  -4   12.30    1.12
  -3  12   4   13.29    1.28
   3  12  -4   14.66    1.17
   3 -12   4   15.73    1.26
  -3 -12   4   13.54    1.21
  -3  12  -4   13.77    1.20
   3  12   4   13.83    1.18
  -4 -12  -4    5.56    0.93
   4  12  -4    7.49    0.86
  -4  12   4    5.97    1.08
  -4  12  -4    5.58    0.96
  -4 -12   4    6.29    0.96
   0 -13  -4    3.59    0.75
   0  13  -4    3.11    0.82
   0  13   4    2.53    0.83
   0 -13   4    2.94    0.82
  -1 -13  -4    1.66    0.69
  -1  13   4    0.43    0.74
   1  13  -4    0.19    0.64
   1 -13   4    0.78    0.70
  -1 -13   4    1.45    0.75
   1  13   4    0.74    0.72
  -1  13  -4    1.71    0.76
   1 -13  -4    1.33    0.63
   2  13  -4    3.75    0.77
   2 -13   4    2.72    0.81
  -2  13   4    3.56    0.90
  -2 -13  -4    3.43    0.81
  -2  13  -4    4.38    0.92
  -2 -13   4    4.05    0.84
   2  13   4    3.86    0.82
   3  13  -4    3.32    0.72
  -3 -13  -4    4.02    0.86
   3 -13   4    3.14    0.84
  -3  13   4    3.09    0.95
   3  13   4    3.14    0.79
  -3  13  -4    2.29    0.83
  -3 -13   4    2.85    0.87
  -4 -13  -4    1.44    0.78
  -4  13   4    0.22    0.89
   4  13  -4    2.07    0.71
  -4 -13   4    2.32    0.85
  -4  13  -4    1.91    0.83
   0 -14  -4    0.79    0.68
   0  14   4   -0.90    0.77
   0 -14   4    0.90    0.75
   0  14  -4   -0.22    0.73
   1  14  -4    3.45    0.86
  -1  14   4    0.38    0.86
  -1 -14  -4    1.59    0.75
   1 -14   4    2.29    0.84
   1 -14  -4    3.74    0.81
   1  14   4    1.64    0.82
  -1  14  -4    1.17    0.84
  -1 -14   4    3.02    0.93
  -2 -14  -4    7.48    1.05
   2  14  -4    9.78    1.08
  -2  14   4    6.44    1.15
   2 -14   4    9.45    1.11
  -2 -14   4    7.56    1.03
   2  14   4    7.73    1.03
  -2  14  -4   10.90    1.25
  -3  14   4    3.17    1.09
   3  14  -4    4.50    0.85
   3 -14   4    3.03    0.89
  -3 -14  -4    5.17    0.99
   3  14   4    4.38    0.90
  -3  14  -4    3.85    0.99
  -3 -14   4    3.03    0.93
   0 -15   4    2.21    0.86
   0  15  -4    1.06    0.85
   0  15   4    0.52    0.91
   0 -15  -4    0.69    0.75
  -1  15   4    1.29    0.97
  -1  15  -4    3.70    1.00
   1  15   4    2.48    0.93
   0   0  -5   -0.31    0.19
   0   0  -5   -0.68    0.19
   0   0   5   -0.60    0.17
  -1   0   5   13.17    0.41
  -1   0  -5   12.61    0.40
  -1   0  -5   13.37    0.56
  -1   0   5   13.19    0.56
  -2   0  -5  139.85    3.11
   2   0  -5  141.00    3.09
  -2   0   5  144.71    2.90
  -2   0   5  144.65    3.24
  -2   0  -5  134.75    3.20
  -3   0  -5   26.28    1.10
  -3   0   5   27.84    0.67
   3   0  -5   27.62    0.91
  -3   0   5   27.67    1.10
  -3   0  -5   27.12    0.95
  -4   0  -5   11.14    0.95
  -4   0  -5   10.87    0.73
  -4   0   5    9.16    0.39
   4   0  -5    9.69    0.67
  -5   0   5    5.73    0.90
  -5   0  -5    6.77    0.68
  -5   0  -5    6.76    0.92
   5   0  -5    5.87    0.58
  -6   0   5   10.54    1.20
   6   0  -5   11.46    0.83
  -6   0  -5   11.11    1.16
  -7   0   5    0.14    0.81
  -7   0  -5    1.02    0.76
  -8   0  -5    7.09    1.18
  -8   0   5    4.48    1.21
   0  -1  -5  173.32    3.56
   0   1  -5  166.65    3.65
   0  -1  -5  168.45    3.56
   0  -1  -5  170.87    3.62
   0  -1   5  171.88    3.58
   0   1  -5  172.19    3.58
  -1  -1  -5   35.21    0.98
  -1  -1  -5   36.46    0.83
  -1   1   5   36.24    0.81
  -1   1   5   34.13    0.98
  -1  -1   5   33.53    0.88
  -1   1  -5   33.70    0.84
  -2  -1  -5   20.00    0.73
   2  -1   5   20.21    0.70
  -2   1   5   21.30    0.81
   2   1  -5   19.53    0.72
   2  -1  -5   20.03    0.72
  -2  -1   5   20.22    0.61
  -2   1  -5   21.85    0.54
  -3   1   5   93.98    2.41
   3   1  -5   90.47    2.19
  -3  -1  -5   90.01    2.36
  -3  -1  -5   93.83    2.25
  -3  -1   5   91.85    2.41
  -3  -1   5   92.76    2.03
   3  -1  -5   92.78    2.21
  -4  -1  -5   19.95    1.18
  -4  -1  -5   19.30    0.91
  -4   1   5   19.53    1.25
   4   1  -5   19.36    0.87
  -4  -1   5   19.68    0.66
  -4  -1   5   18.59    1.10
   4  -1  -5   20.26    0.90
  -5  -1  -5    2.55    0.76
   5  -1   5    2.44    0.46
   5   1  -5    0.70    0.41
  -5  -1  -5    0.91    0.50
  -5   1   5    3.04    0.81
   5  -1  -5    1.59    0.46
  -5  -1   5    1.65    0.78
  -5   1  -5    2.52    0.73
   6  -1   5   15.06    0.87
   6   1  -5   14.41    0.88
  -6   1   5   16.10    1.49
  -6  -1  -5   14.51    0.96
  -6  -1  -5   15.22    1.40
  -6   1  -5   16.96    1.40
  -6  -1   5   14.78    1.38
   6  -1  -5   14.44    0.91
  -7  -1  -5    3.35    0.88
  -7   1   5    1.09    0.85
  -7  -1  -5    3.27    0.70
  -7  -1   5    2.64    0.98
  -7   1  -5    2.51    0.83
   0  -2   5   44.82    1.14
   0   2  -5   45.59    1.12
   0  -2  -5   44.67    1.10
   0  -2  -5   44.20    1.09
   0  -2  -5   44.16    1.10
   0   2  -5   41.75    1.15
  -1   2   5   41.93    1.13
  -1  -2  -5   43.46    1.10
  -1   2  -5   41.98    1.17
   1  -2  -5   43.15    0.97
   1   2   5   42.17    1.01
  -1  -2   5   43.29    1.11
  -1   2  -5   43.21    1.05
   2   2  -5  156.26    3.41
   2  -2   5  156.11    3.42
  -2  -2  -5  151.24    3.43
  -2   2   5  157.54    3.50
   2  -2  -5  156.19    3.41
  -2  -2   5  152.73    3.32
  -2   2  -5  158.54    3.26
  -2  -2   5  150.11    3.50
  -2   2  -5  156.93    3.54
  -3   2   5    9.68    0.75
  -3  -2  -5    9.55    0.73
   3   2  -5    9.34    0.58
  -3  -2  -5    9.10    0.62
   3  -2   5    8.80    0.55
  -3  -2   5    9.89    0.76
  -3   2  -5    9.48    0.45
   3  -2  -5    9.15    0.60
  -3   2  -5    9.70    0.74
  -3  -2   5   10.47    0.51
   4   2  -5    9.01    0.69
  -4  -2  -5    9.86    0.79
  -4  -2  -5    8.66    0.83
   4  -2   5    9.73    0.66
  -4   2   5    9.84    0.91
  -4  -2   5    7.72    0.83
  -4   2  -5    8.11    0.53
  -4  -2   5    8.88    0.56
   4  -2  -5    8.94    0.69
   5  -2   5    7.15    0.63
  -5  -2  -5    6.01    0.87
  -5   2   5    7.31    0.96
   5   2  -5    6.31    0.61
  -5  -2  -5    7.74    0.72
   5  -2  -5    6.86    0.62
  -5   2  -5    5.56    0.84
  -5  -2   5    5.84    0.95
  -6  -2  -5    0.52    0.50
   6   2  -5    0.69    0.41
   6  -2   5    0.20    0.40
  -6   2   5   -0.49    0.72
  -6  -2  -5   -0.40    0.69
  -6  -2   5   -0.21    0.79
  -6   2  -5    0.82    0.66
   6  -2  -5    0.67    0.46
  -7   2   5    1.18    0.85
  -7  -2  -5    1.03    0.58
  -7  -2  -5    2.26    0.85
  -7  -2   5   -0.54    0.84
  -7   2  -5    2.27    0.80
   0   3   5   20.86    0.68
   0  -3  -5   21.79    0.63
   0  -3   5   22.06    0.74
   0   3  -5   20.71    0.71
   0  -3  -5   21.06    0.67
  -1   3   5  120.75    2.65
  -1  -3  -5  119.99    2.59
   1   3  -5  114.45    2.67
  -1   3  -5  122.00    2.73
  -1  -3   5  120.56    2.69
  -1   3  -5  120.94    2.63
   1  -3  -5  120.76    2.53
   1   3   5  117.47    2.57
   2   3  -5   62.44    1.59
   2  -3   5   59.89    1.56
  -2  -3  -5   58.06    1.59
  -2   3   5   60.68    1.63
  -2   3  -5   60.45    1.47
  -2   3  -5   61.70    1.67
  -2  -3   5   57.26    1.62
   2   3   5   60.92    1.39
  -2  -3   5   61.32    1.55
   2  -3  -5   62.87    1.58
  -3   3   5   33.17    1.22
   3  -3   5   32.38    1.04
  -3  -3  -5   31.91    1.15
  -3  -3  -5   30.64    1.12
   3   3  -5   31.04    1.05
  -3   3  -5   30.94    1.26
  -3   3  -5   30.53    0.92
  -3  -3   5   32.21    1.01
  -3  -3   5   29.80    1.21
   3  -3  -5   32.88    1.08
  -4   3   5   25.98    1.34
   4  -3   5   26.43    0.99
  -4  -3  -5   24.67    1.11
  -4  -3  -5   25.30    1.25
   4   3  -5   26.85    1.06
  -4  -3   5   24.00    0.92
   4  -3  -5   25.22    1.07
  -4  -3   5   26.97    1.36
  -4   3  -5   24.96    1.29
  -4   3  -5   20.41    0.78
  -5  -3  -5    6.67    0.87
   5  -3   5    6.06    0.59
  -5  -3  -5    5.96    0.71
   5   3  -5    6.62    0.62
  -5   3   5    6.50    0.92
  -5  -3   5    5.96    0.93
  -5  -3   5    6.72    0.55
  -5   3  -5    6.29    0.85
  -6   3   5    4.54    0.94
  -6  -3  -5    4.96    0.93
  -6  -3  -5    4.54    0.69
   6   3  -5    3.54    0.51
   6  -3   5    3.78    0.56
  -6   3   5    4.35    0.57
  -6  -3   5    3.18    0.97
  -6   3  -5    3.29    0.80
  -7  -3  -5    2.73    0.90
  -7   3   5    2.37    0.90
  -7  -3  -5    3.22    0.68
  -7   3  -5    4.01    0.87
  -7  -3   5    1.26    1.00
   0   4  -5   49.00    1.30
   0   4   5   49.27    1.15
   0   4   5   49.18    1.28
   0  -4   5   51.01    1.38
   0   4  -5   49.54    1.33
  -1  -4  -5  114.76    2.72
  -1  -4  -5  119.20    2.56
  -1   4   5  119.62    2.64
   1   4  -5  121.18    2.74
   1  -4   5  122.67    2.77
  -1   4   5  119.17    2.71
  -1   4  -5  119.42    2.70
   1  -4  -5  120.52    2.58
  -1   4  -5  116.87    2.72
  -1  -4   5  120.49    2.76
   1   4   5  117.82    2.63
   2  -4   5   90.84    2.22
   2   4  -5   91.91    2.21
  -2   4   5   86.94    2.20
  -2   4   5   88.68    2.21
  -2  -4   5   91.69    2.27
   2  -4  -5   90.90    1.96
   2   4   5   92.73    2.07
  -2   4  -5   94.16    2.32
  -2  -4   5   92.31    2.22
  -2   4  -5   90.88    2.16
  -3  -4  -5    2.10    0.49
  -3  -4  -5    2.62    0.50
  -3   4   5    1.76    0.49
   3   4  -5    1.71    0.40
   3  -4   5    1.92    0.40
  -3   4   5    2.12    0.39
  -3  -4   5    0.97    0.46
  -3   4  -5    2.43    0.39
  -3  -4   5    1.81    0.42
  -3   4  -5    2.43    0.52
   3   4   5    2.02    0.29
  -4  -4  -5   47.31    1.68
   4  -4   5   46.58    1.46
  -4   4   5   46.47    1.50
   4   4  -5   46.68    1.47
  -4   4   5   47.52    1.76
  -4  -4  -5   46.43    1.58
  -4   4  -5   47.75    1.75
  -4  -4   5   47.26    1.45
  -4   4  -5   48.28    1.37
  -4  -4   5   49.93    1.77
  -5   4   5    8.61    0.71
   5   4  -5    9.01    0.69
  -5  -4  -5    7.46    0.75
   5  -4   5    8.33    0.72
  -5   4   5    8.42    0.96
  -5  -4  -5    8.16    0.90
  -5   4  -5    5.60    0.87
  -5  -4   5    8.34    0.66
  -5  -4   5    7.18    0.96
  -6  -4  -5    8.64    0.88
   6  -4   5    4.99    0.68
   6   4  -5    6.79    0.71
  -6   4   5    6.80    0.68
  -6  -4  -5    7.99    1.00
  -6   4   5    5.75    0.97
  -6  -4   5    5.38    1.03
  -6   4  -5    8.19    1.03
  -7   4   5    1.75    0.90
  -7  -4  -5    1.73    0.64
  -7  -4  -5    2.30    0.87
  -7  -4   5    1.49    0.99
  -7   4  -5    2.68    0.91
   0   5  -5    3.86    0.37
   0   5  -5    3.18    0.42
   0  -5  -5    3.07    0.38
   0  -5   5    3.28    0.44
   0   5   5    2.98    0.24
   0   5   5    2.96    0.36
  -1  -5  -5   97.06    2.35
   1   5  -5   99.51    2.34
  -1   5   5   95.57    2.31
  -1   5   5   98.01    2.18
   1  -5   5   96.33    2.36
  -1  -5  -5   96.43    2.08
  -1  -5   5   91.84    2.26
  -1  -5   5   97.71    2.38
   1   5   5   96.28    2.25
  -1   5  -5   92.81    2.32
  -1   5  -5   95.31    2.29
  -2   5   5    4.34    0.45
   2   5  -5    4.44    0.48
  -2   5   5    5.31    0.50
  -2  -5  -5    4.60    0.39
   2  -5   5    5.08    0.50
  -2   5  -5    5.53    0.51
   2  -5  -5    4.63    0.38
  -2  -5   5    4.05    0.47
  -2  -5   5    4.00    0.51
   2   5   5    4.70    0.43
  -2   5  -5    5.33    0.53
  -3  -5  -5   58.11    1.74
  -3  -5  -5   57.31    1.65
  -3   5   5   57.81    1.69
  -3   5   5   58.73    1.78
   3   5  -5   57.97    1.66
   3  -5   5   57.26    1.66
  -3   5  -5   56.79    1.78
   3  -5  -5   57.31    1.33
  -3  -5   5   55.96    1.78
   3   5   5   58.44    1.48
  -3  -5   5   57.54    1.68
  -3   5  -5   55.68    1.61
   4  -5   5   16.11    0.91
   4   5  -5   15.47    0.93
  -4   5   5   16.64    1.18
  -4  -5  -5   16.42    1.06
  -4   5   5   15.91    0.93
  -4  -5  -5   15.81    1.01
  -4   5  -5   15.25    1.15
  -4  -5   5   15.46    0.95
  -4   5  -5   16.60    0.89
  -4  -5   5   16.74    1.22
  -5   5   5    0.01    0.41
   5  -5   5    0.37    0.43
  -5   5   5    0.38    0.63
  -5  -5  -5    0.29    0.57
   5   5  -5    0.50    0.41
  -5  -5  -5    0.70    0.54
  -5   5  -5    1.26    0.61
  -5  -5   5   -0.31    0.68
  -5  -5   5    0.60    0.43
  -6  -5  -5    7.93    0.86
  -6   5   5    7.50    1.04
  -6  -5  -5    7.88    0.99
  -6   5   5    7.31    0.74
  -6   5  -5    6.13    0.90
  -6  -5   5    7.08    1.15
  -7  -5  -5    2.21    0.71
  -7   5   5    2.79    0.94
  -7  -5  -5    3.25    0.88
  -7   5  -5    2.21    0.83
  -7  -5   5    0.52    0.99
   0   6  -5   15.44    0.67
   0   6  -5   15.47    0.81
   0  -6  -5   15.59    0.74
   0   6   5   16.75    0.77
   1  -6   5   40.43    1.36
  -1  -6  -5   36.61    1.26
  -1  -6  -5   37.46    0.90
  -1   6   5   39.63    1.26
   1   6  -5   39.54    1.29
  -1   6   5   39.10    1.05
  -1   6  -5   40.23    1.29
   1  -6  -5   41.13    1.15
  -1   6  -5   38.72    1.17
  -1  -6   5   39.10    1.17
   1   6   5   39.09    1.22
  -1  -6   5   39.54    1.34
  -2   6   5    1.25    0.38
   2   6  -5    2.25    0.47
   2  -6   5    2.53    0.50
  -2   6   5    1.13    0.35
  -2  -6  -5    1.31    0.45
  -2  -6  -5    1.52    0.28
   2   6   5    1.96    0.43
  -2   6  -5    2.48    0.44
  -2  -6   5    1.55    0.54
  -2   6  -5    2.05    0.47
  -2  -6   5    1.89    0.40
  -3  -6  -5    1.96    0.57
  -3   6   5    2.97    0.51
   3  -6   5    3.40    0.55
   3   6  -5    1.86    0.48
  -3  -6  -5    3.22    0.49
  -3   6   5    2.48    0.55
  -3   6  -5    3.41    0.58
  -3  -6   5    3.37    0.61
  -3  -6   5    2.68    0.58
   3   6   5    2.81    0.45
  -3   6  -5    2.40    0.51
  -4   6   5   28.08    1.35
  -4  -6  -5   27.99    1.30
  -4  -6  -5   26.76    1.18
   4  -6   5   26.92    1.21
  -4   6   5   26.53    1.18
   4   6  -5   26.96    1.17
  -4  -6   5   27.76    1.21
  -4  -6   5   30.29    1.43
  -4   6  -5   27.28    1.36
  -4   6  -5   24.59    1.12
   5   6  -5    1.02    0.44
  -5   6   5    1.34    0.48
  -5  -6  -5    0.66    0.57
   5  -6   5    0.78    0.51
  -5   6   5    2.20    0.73
  -5  -6  -5    1.22    0.57
  -5   6  -5    1.01    0.63
  -5  -6   5    0.21    0.73
  -5  -6   5    1.26    0.50
  -6   6   5    5.80    0.73
  -6  -6  -5    7.01    0.86
  -6   6   5    5.16    0.95
  -6  -6  -5    5.13    0.83
  -6  -6   5    3.93    1.04
  -6   6  -5    6.12    0.96
  -7  -6  -5    5.57    0.89
  -7   6   5    5.47    1.08
  -7  -6   5    4.76    1.19
  -7   6  -5    8.06    1.13
   0  -7  -5   52.58    1.57
   0   7   5   54.30    1.60
   0   7  -5   54.69    1.47
   0   7  -5   54.33    1.67
   1   7  -5   55.56    1.71
  -1   7   5   54.92    1.66
  -1   7   5   56.01    1.38
   1  -7   5   57.42    1.78
  -1  -7  -5   55.20    1.69
  -1   7  -5   56.35    1.73
  -1   7  -5   56.18    1.56
  -1  -7   5   57.14    1.54
  -1  -7   5   57.34    1.77
   1   7   5   58.80    1.70
   1  -7  -5   54.07    1.55
   2   7  -5   10.31    0.85
  -2   7   5   10.34    0.71
   2  -7   5    9.74    0.79
  -2   7  -5   10.13    0.74
  -2  -7   5    9.99    0.73
  -2   7  -5   10.95    0.91
   2   7   5   12.25    0.83
   2  -7  -5   10.37    0.66
  -2  -7   5    9.95    0.85
   3   7  -5   62.89    1.90
  -3   7   5   68.75    1.95
  -3   7   5   62.69    1.94
  -3  -7  -5   60.99    1.98
   3  -7   5   63.20    1.96
  -3  -7   5   63.32    1.96
  -3  -7   5   68.39    1.98
   3   7   5   63.25    1.79
  -3   7  -5   62.75    1.96
  -3   7  -5   62.47    1.91
   4  -7   5    0.47    0.48
  -4   7   5    0.50    0.46
  -4  -7  -5    0.32    0.52
  -4   7   5    0.65    0.55
   4   7  -5    0.57    0.46
  -4  -7   5    0.43    0.54
  -4  -7   5    0.12    0.60
  -4   7  -5    0.59    0.48
  -4   7  -5   -0.37    0.46
  -5  -7  -5    0.87    0.63
  -5   7   5    2.75    0.62
   5  -7   5    1.66    0.58
  -5   7   5    1.53    0.70
   5   7  -5    1.60    0.49
  -5  -7   5    2.66    0.61
  -5   7  -5    1.39    0.63
  -5  -7   5    0.46    0.77
  -6  -7  -5    0.97    0.65
  -6   7   5    1.49    0.78
  -6   7   5    0.46    0.54
  -6   7  -5    2.16    0.70
  -6  -7   5    0.12    0.87
  -7  -7  -5    7.45    0.96
  -7   7   5    4.58    1.08
  -7  -7   5    5.99    1.24
  -7   7  -5    6.99    1.06
   1   8  -5   12.66    0.98
  -1  -8  -5   10.36    0.88
  -1   8   5   11.80    0.91
   1  -8   5   13.10    1.02
  -1  -8   5   10.95    0.90
   1  -8  -5   11.62    0.83
   1   8   5   11.93    0.88
  -1  -8   5   11.39    0.66
  -1   8  -5   12.57    0.92
  -1   8  -5   11.05    0.68
  -2   8   5   26.47    1.23
  -2  -8  -5   28.18    1.28
   2   8  -5   26.51    1.26
   2  -8   5   30.21    1.38
  -2   8   5   30.31    1.06
   2  -8  -5   27.73    1.06
  -2   8  -5   27.94    1.33
  -2   8  -5   27.22    1.11
   2   8   5   29.64    1.25
  -2  -8   5   27.62    1.12
  -2  -8   5   27.38    1.36
   3   8  -5   39.43    1.47
   3  -8   5   35.04    1.52
  -3   8   5   40.63    1.43
  -3  -8  -5   39.59    1.54
  -3   8   5   39.24    1.54
  -3  -8   5   38.95    1.48
   3   8   5   39.27    1.39
  -3   8  -5   39.83    1.43
  -3   8  -5   35.78    1.46
  -3  -8   5   40.81    1.57
  -4  -8  -5    2.97    0.69
   4  -8   5    3.39    0.66
   4   8  -5    2.99    0.57
  -4   8   5    3.19    0.63
  -4   8   5    3.80    0.69
  -4   8  -5    3.10    0.62
  -4  -8   5    3.10    0.68
  -4   8  -5    3.28    0.63
  -4  -8   5    1.75    0.68
   5   8  -5    6.35    0.70
  -5   8   5    6.11    0.80
  -5  -8  -5    8.05    0.92
  -5   8   5    6.13    0.87
   5  -8   5    6.22    0.79
  -5   8  -5    7.48    0.90
  -5  -8   5    6.49    0.82
  -5  -8   5    5.53    0.96
  -6  -8  -5    2.08    0.72
  -6   8   5    1.54    0.66
  -6   8   5    2.10    0.80
  -6   8  -5    3.02    0.78
   0   9  -5    7.59    0.84
   0   9  -5    8.38    0.57
   0  -9   5    8.24    0.88
   0  -9  -5    7.33    0.75
   0   9   5    8.69    0.81
   1   9  -5    2.62    0.64
  -1  -9  -5    3.47    0.67
  -1   9   5    4.56    0.68
   1  -9   5    3.49    0.74
  -1   9  -5    3.02    0.43
   1  -9  -5    3.11    0.59
  -1   9  -5    2.82    0.67
  -1  -9   5    3.63    0.75
   1   9   5    2.67    0.63
  -2  -9  -5   17.20    1.09
   2   9  -5   16.53    1.07
   2  -9   5   17.89    1.21
  -2   9   5   18.26    1.12
   2   9   5   15.73    1.08
  -2  -9   5   16.44    1.20
  -2   9  -5   15.93    0.85
   2  -9  -5   17.43    0.90
  -2   9  -5   15.61    1.12
  -3   9   5    1.11    0.56
   3   9  -5    1.22    0.53
  -3  -9  -5    0.38    0.54
   3  -9   5    0.39    0.58
  -3  -9   5    0.79    0.56
  -3   9  -5    0.67    0.53
   3   9   5    1.25    0.52
  -3   9  -5    1.69    0.48
  -4  -9  -5   13.38    1.09
   4   9  -5   11.47    0.94
  -4   9   5   13.49    1.09
   4  -9   5   13.25    1.15
  -4   9  -5   12.45    1.01
  -4  -9   5   13.67    1.11
  -4   9  -5   12.87    1.07
  -5  -9  -5    6.58    0.92
  -5   9   5    6.59    0.85
   5   9  -5    6.66    0.74
  -5   9  -5    7.34    0.89
  -5  -9   5    8.08    0.91
  -6   9   5   -0.05    0.67
  -6  -9  -5    0.71    0.72
  -6   9  -5    0.75    0.67
  -6  -9   5    1.04    0.72
   0  10   5    2.07    0.60
   0  10  -5    2.06    0.63
   0 -10   5    2.00    0.68
   0 -10  -5    2.84    0.60
  -1 -10  -5    4.49    0.70
   1  10  -5    3.46    0.67
  -1  10   5    3.38    0.65
   1 -10   5    2.82    0.72
   1  10   5    2.19    0.62
   1 -10  -5    3.52    0.58
  -1 -10   5    3.13    0.71
  -1  10  -5    3.58    0.68
   2 -10   5   11.03    1.00
  -2 -10  -5   13.21    1.08
  -2  10   5   11.33    0.96
   2  10  -5   11.41    0.90
   2  10   5   11.31    0.93
   2 -10  -5   10.74    0.84
  -2  10  -5   11.47    0.97
  -2 -10   5   10.43    0.97
   3 -10   5    1.82    0.71
  -3  10   5    2.22    0.68
  -3 -10  -5    2.42    0.70
   3  10  -5    2.44    0.61
  -3  10  -5    3.24    0.55
  -3 -10   5    2.67    0.73
  -3  10  -5    2.31    0.66
   3  10   5    2.48    0.62
   4 -10   5    2.54    0.75
  -4  10   5    2.98    0.74
  -4 -10  -5    3.27    0.75
   4  10  -5    3.46    0.65
  -4  10  -5    3.10    0.61
  -4  10  -5    1.64    0.67
  -4 -10   5    2.86    0.76
  -5  10   5    3.68    0.82
   5  10  -5    4.81    0.71
  -5 -10  -5    5.25    0.91
  -5 -10   5    5.01    0.85
  -5  10  -5    6.04    0.83
   0 -11   5    6.89    0.91
   0 -11  -5    5.72    0.74
   0  11  -5    5.73    0.83
   0  11   5    4.85    0.78
  -1  11   5    3.71    0.76
   1 -11   5    3.11    0.76
   1  11  -5    4.18    0.75
  -1 -11  -5    4.78    0.77
   1  11   5    4.80    0.77
   1 -11  -5    4.39    0.66
  -1 -11   5    3.72    0.80
  -1  11  -5    4.70    0.80
   2  11  -5    0.80    0.56
   2 -11   5    1.04    0.71
  -2  11   5    0.81    0.61
  -2 -11  -5    0.01    0.59
   2  11   5   -0.14    0.57
  -2  11  -5   -0.21    0.61
  -2 -11   5    0.28    0.67
   2 -11  -5    1.02    0.51
  -3  11   5    5.33    0.88
   3 -11   5    5.00    0.85
   3  11  -5    4.86    0.73
  -3 -11  -5    4.81    0.83
  -3 -11   5    3.27    0.80
   3  11   5    4.80    0.76
  -3  11  -5    5.20    0.83
  -4  11   5   10.39    1.09
   4 -11   5    8.82    0.99
   4  11  -5    9.64    0.90
  -4 -11  -5   10.27    1.06
  -4 -11   5   11.52    1.12
  -4  11  -5    9.37    1.02
   5  11  -5    3.79    0.73
  -5 -11  -5    3.34    0.85
  -5  11   5    2.69    0.86
  -5 -11   5    3.67    0.84
   0 -12  -5    1.62    0.66
   0 -12   5    2.04    0.76
   0  12   5    2.58    0.76
   0  12  -5    1.84    0.73
   1 -12   5   10.62    1.07
  -1 -12  -5   11.63    1.04
  -1  12   5   12.54    1.13
   1  12  -5   11.95    1.07
  -1  12  -5   12.70    1.13
  -1 -12   5   11.27    1.09
   1  12   5   11.02    1.09
   1 -12  -5   13.84    1.04
  -2 -12  -5    4.25    0.81
   2 -12   5    4.44    0.85
   2  12  -5    4.84    0.76
  -2  12   5    5.27    0.92
  -2 -12   5    5.53    0.89
   2  12   5    4.75    0.82
  -2  12  -5    5.40    0.89
   3  12  -5    4.29    0.74
  -3  12   5    3.69    0.86
   3 -12   5    3.36    0.81
  -3 -12  -5    3.33    0.80
  -3 -12   5    3.89    0.85
  -3  12  -5    4.16    0.84
   3  12   5    2.71    0.71
   4 -12   5    0.78    0.77
  -4 -12  -5    1.36    0.75
  -4  12   5   -0.11    0.76
   4  12  -5    2.84    0.67
  -4  12  -5    1.18    0.76
  -4 -12   5    2.13    0.84
   0  13   5    8.38    1.07
   0  13  -5    8.37    0.99
   0 -13   5    8.07    1.06
   0 -13  -5   10.31    0.99
   1 -13   5    6.50    0.97
  -1 -13  -5    7.70    0.94
  -1  13   5    5.35    0.96
   1  13  -5    4.73    0.86
   1  13   5    5.50    0.97
   1 -13  -5    5.12    0.77
  -1 -13   5    4.25    0.88
  -1  13  -5    7.19    1.01
   2 -13   5    1.14    0.78
   2  13  -5    1.85    0.67
  -2 -13  -5    1.55    0.71
  -2  13   5    0.88    0.80
   2  13   5    0.64    0.71
  -2  13  -5    0.16    0.68
  -2 -13   5    0.70    0.72
  -3  13   5    1.76    0.90
   3  13  -5    2.55    0.71
  -3 -13  -5    1.51    0.82
   3 -13   5    1.53    0.80
  -3  13  -5    1.85    0.83
  -3 -13   5    1.43    0.80
   3  13   5    1.13    0.87
   0  14   5   -0.88    0.75
   0 -14  -5    0.60    0.69
   0  14  -5    1.81    0.79
   0 -14   5    0.71    0.77
   1 -14   5    3.85    0.91
   1  14  -5    3.34    0.84
  -1 -14  -5    4.17    0.88
  -1  14   5    3.12    0.98
   1  14   5    1.40    0.84
   1 -14  -5    2.75    0.73
  -1  14  -5    3.12    0.90
  -1 -14   5    3.49    0.91
  -2  14   5    1.62    0.95
  -2 -14  -5    3.71    0.87
   2  14  -5    2.85    0.78
   2 -14   5    2.62    0.90
  -2 -14   5    2.08    0.84
  -2  14  -5    2.55    0.92
   2  14   5    2.52    0.86
   0   0  -6    6.37    0.42
   0   0  -6    9.07    0.41
   0   0   6    9.68    0.41
   2   0  -6    1.45    0.29
  -2   0  -6    1.27    0.33
  -2   0   6    1.67    0.19
  -2   0  -6    1.48    0.31
  -2   0   6    1.66    0.34
   3   0  -6    0.51    0.29
  -3   0  -6    0.74    0.33
  -3   0   6    0.41    0.38
  -3   0   6    0.48    0.15
  -3   0  -6    0.28    0.39
  -4   0   6    3.04    0.36
  -4   0  -6    3.59    0.70
  -4   0  -6    2.87    0.49
   4   0  -6    3.30    0.46
  -5   0   6   31.54    1.67
  -5   0  -6   27.18    1.49
   5   0  -6   28.25    1.15
  -5   0  -6   31.21    1.24
  -6   0   6    0.06    0.74
  -6   0  -6    0.24    0.68
   6   0  -6    0.38    0.43
  -7   0   6   -0.14    0.84
  -7   0  -6    0.59    0.73
   7   0   6    0.27    0.51
   0  -1   6  693.44   13.66
   0  -1  -6  663.84   14.24
   0   1  -6  680.91   13.89
   0  -1  -6  675.53   13.78
   0  -1  -6  671.66   13.93
   1  -1   6    6.01    0.39
  -1   1   6    6.31    0.43
  -1  -1  -6    5.78    0.30
  -1  -1  -6    4.20    0.37
  -1   1   6    5.97    0.27
  -1  -1   6    5.80    0.36
  -1   1  -6    5.68    0.31
  -2  -1  -6   67.15    1.70
  -2   1   6   70.59    1.79
   2   1  -6   67.58    1.68
  -2  -1  -6   66.85    1.75
   2  -1   6   63.88    1.66
   2  -1  -6   65.66    1.66
  -2  -1   6   67.33    1.55
  -2   1  -6   67.75    1.46
   3   1  -6   20.67    0.85
  -3   1   6   23.56    1.05
  -3  -1  -6   21.44    1.02
  -3  -1  -6   22.57    0.89
   3  -1   6   22.17    0.82
  -3  -1   6   21.56    0.66
  -3   1  -6   20.83    0.97
   3  -1  -6   21.77    0.86
  -3  -1   6   22.10    1.01
  -4  -1  -6   26.24    1.09
  -4  -1  -6   27.68    1.35
   4   1  -6   26.97    1.04
   4  -1   6   26.14    1.02
  -4   1   6   27.51    1.35
  -4  -1   6   27.93    0.80
   4  -1  -6   27.62    1.08
  -5   1   6   26.59    1.59
   5  -1   6   25.73    1.09
  -5  -1  -6   27.05    1.19
  -5  -1  -6   25.51    1.46
   5   1  -6   29.15    1.13
   5  -1  -6   26.26    1.12
  -5   1  -6   26.97    1.49
  -5  -1   6   29.21    1.56
  -6  -1  -6   19.34    1.08
   6  -1   6   18.54    0.98
  -6  -1  -6   18.39    1.43
  -6   1   6   21.04    1.65
   6   1  -6   19.37    0.97
  -6  -1   6   17.87    1.57
  -6   1  -6   18.41    1.37
   6  -1  -6   17.63    1.02
  -7  -1  -6    2.60    0.86
  -7   1   6    0.65    0.83
  -7   1  -6    1.76    0.83
  -7  -1   6    1.70    0.97
   0  -2  -6    5.79    0.36
   0  -2  -6    6.24    0.37
   0  -2  -6    5.98    0.37
   0   2  -6    5.72    0.41
   0  -2   6    5.45    0.39
  -1  -2  -6  124.34    2.75
  -1   2   6  125.89    2.80
   1  -2  -6  125.78    2.61
  -1   2  -6  124.76    2.67
  -1   2  -6  122.66    2.82
  -1  -2   6  121.89    2.73
  -2  -2  -6   15.35    0.69
  -2  -2  -6   17.08    0.74
  -2   2   6   17.76    0.77
   2  -2   6   15.50    0.68
   2   2  -6   17.12    0.71
  -2  -2   6   17.41    0.79
  -2   2  -6   15.99    0.54
   2  -2  -6   16.35    0.71
   2   2   6   17.75    0.48
  -2  -2   6   16.95    0.64
  -2   2  -6   17.49    0.82
  -3  -2  -6   11.74    0.82
   3   2  -6   11.41    0.69
  -3   2   6   12.69    0.82
   3  -2   6   13.33    0.65
  -3  -2  -6   11.85    0.71
  -3  -2   6   12.19    0.57
   3  -2  -6   13.04    0.73
  -3  -2   6   11.99    0.82
  -3   2  -6   11.98    0.82
  -3   2  -6   12.14    0.45
  -4   2   6    3.15    0.68
   4  -2   6    3.83    0.50
  -4  -2  -6    3.14    0.64
   4   2  -6    2.43    0.46
  -4  -2  -6    3.61    0.56
   4  -2  -6    2.47    0.46
  -4  -2   6    3.38    0.40
  -4  -2   6    3.30    0.70
  -5  -2  -6   49.94    1.68
  -5   2   6   48.86    2.01
  -5  -2  -6   51.78    1.92
   5  -2   6   49.57    1.58
   5   2  -6   50.16    1.58
   5  -2  -6   52.88    1.62
  -5   2  -6   52.42    2.02
  -5  -2   6   49.54    2.02
   6   2  -6    2.23    0.49
   6  -2   6    2.00    0.51
  -6   2   6    1.74    0.83
  -6  -2  -6    2.49    0.62
  -6  -2  -6    2.33    0.78
   6  -2  -6    2.72    0.55
  -6   2  -6    2.56    0.79
  -6  -2   6    2.51    0.88
  -7  -2  -6   14.47    1.11
  -7   2   6   13.32    1.38
  -7  -2  -6   17.12    1.46
  -7   2  -6   18.06    1.58
  -7  -2   6   11.49    1.41
   0  -3  -6    6.95    0.36
   0  -3  -6    6.10    0.40
   0   3  -6    4.96    0.37
   0   3  -6    6.71    0.45
   0  -3   6    7.49    0.50
  -1  -3  -6   70.95    1.68
  -1  -3  -6   70.41    1.75
  -1   3   6   71.18    1.73
   1   3   6   71.47    1.65
   1  -3  -6   70.29    1.74
  -1   3  -6   71.62    1.81
  -1  -3   6   73.12    1.81
  -1  -3   6   72.33    1.76
   1  -3  -6   71.86    1.60
   2   3  -6  122.71    2.75
  -2   3   6  119.92    2.79
  -2  -3  -6  100.52    2.67
   2  -3   6  117.21    2.73
   2   3   6  119.69    2.51
  -2  -3   6  119.87    2.69
  -2  -3   6  119.44    2.84
  -2   3  -6  117.52    2.59
   2  -3  -6  121.91    2.74
  -2   3  -6  118.16    2.84
  -3  -3  -6   14.07    0.85
  -3   3   6   14.94    0.89
  -3  -3  -6   14.86    0.80
   3  -3   6   15.13    0.75
   3   3  -6   16.33    0.78
   3  -3  -6   16.02    0.81
  -3   3  -6   14.64    0.91
  -3  -3   6   14.75    0.70
  -3  -3   6   14.92    0.93
  -3   3  -6   15.81    0.63
  -4  -3  -6   16.70    0.97
   4   3  -6   17.94    0.90
  -4  -3  -6   17.92    1.13
  -4   3   6   16.45    1.18
   4  -3   6   16.05    0.86
  -4  -3   6   17.45    0.80
   4  -3  -6   18.38    0.94
  -4   3  -6   16.88    1.14
  -4  -3   6   17.36    1.15
  -5   3   6    6.16    0.88
   5  -3   6    5.98    0.62
  -5  -3  -6    6.81    0.84
  -5  -3  -6    7.11    0.71
   5   3  -6    6.51    0.63
  -5  -3   6    5.55    0.92
   5  -3  -6    6.49    0.65
  -5   3  -6    5.76    0.82
   6   3  -6   10.69    0.83
  -6  -3  -6    9.71    1.06
  -6  -3  -6    8.08    0.85
   6  -3   6    9.86    0.81
  -6   3   6    7.71    1.08
  -6   3  -6    9.63    1.07
  -6  -3   6    7.30    1.09
  -7   3   6    1.94    0.88
  -7  -3  -6    1.87    0.83
  -7  -3  -6    0.80    0.61
  -7   3  -6    2.95    0.83
  -7  -3   6    0.44    0.93
   0   4   6    0.29    0.22
   0   4  -6    0.84    0.29
   0   4  -6    0.24    0.23
   0  -4   6    0.34    0.31
   0  -4  -6    0.40    0.18
  -1  -4  -6  164.32    3.67
  -1  -4  -6  169.37    3.54
  -1   4   6  165.00    3.66
  -1   4   6  165.01    3.60
   1  -4  -6  167.98    3.52
  -1  -4   6  165.23    3.71
   1   4   6  169.03    3.58
  -1   4  -6  160.39    3.69
  -1  -4   6  169.63    3.71
  -1   4  -6  165.38    3.63
  -2   4   6   28.58    1.01
   2   4  -6   27.52    1.00
   2  -4   6   27.03    0.97
   2  -4  -6   28.13    0.72
   2   4   6   29.13    0.84
  -2  -4   6   27.98    1.05
  -2  -4   6   29.06    1.01
  -2   4  -6   28.43    0.93
  -2   4  -6   26.73    1.02
  -3  -4  -6   13.03    0.86
   3   4  -6   11.69    0.77
  -3  -4  -6   12.54    0.82
  -3   4   6   12.84    0.87
   3  -4   6   13.16    0.74
  -3  -4   6   12.55    0.91
  -3  -4   6   13.20    0.78
  -3   4  -6   11.55    0.68
  -3   4  -6   11.64    0.85
   3   4   6   13.14    0.57
  -4   4   6    4.78    0.78
   4  -4   6    3.99    0.55
  -4  -4  -6    5.09    0.65
  -4  -4  -6    5.05    0.75
   4   4  -6    4.61    0.56
  -4  -4   6    4.49    0.77
  -4   4  -6    4.77    0.48
  -4  -4   6    5.19    0.58
  -4   4  -6    3.90    0.71
  -5  -4  -6    9.59    0.83
  -5   4   6    9.53    1.04
  -5  -4  -6    9.81    0.92
  -5   4   6   10.42    0.82
   5   4  -6    9.84    0.82
   5  -4   6    8.60    0.71
  -5  -4   6    8.45    1.03
  -5   4  -6    9.21    0.95
  -5  -4   6    9.42    0.74
  -6   4   6    2.05    0.51
  -6   4   6    1.37    0.78
  -6  -4  -6    1.81    0.62
  -6  -4  -6    1.84    0.73
   6  -4   6    1.23    0.49
   6   4  -6    1.60    0.48
  -6   4  -6    1.48    0.71
  -6  -4   6   -0.20    0.77
  -7  -4  -6    2.20    0.85
  -7   4   6    1.43    0.91
  -7  -4  -6    2.46    0.72
  -7  -4   6    2.57    1.05
  -7   4  -6    2.00    0.81
   0   5  -6  205.37    4.50
   0  -5  -6  204.25    4.44
   0   5  -6  205.81    4.48
   0  -5   6  213.17    4.58
   0   5   6  203.32    4.45
   0   5   6  202.86    4.27
  -1  -5  -6    1.53    0.21
   1   5  -6    0.98    0.34
  -1   5   6    1.14    0.32
  -1  -5  -6    1.23    0.37
  -1   5   6    1.59    0.26
   1  -5   6    1.65    0.39
  -1  -5   6    1.31    0.42
  -1   5  -6    1.40    0.30
  -1   5  -6    1.83    0.36
  -1  -5   6    1.32    0.30
   1   5   6    1.39    0.30
   2   5  -6    0.73    0.37
  -2  -5  -6    0.70    0.24
  -2   5   6    0.91    0.31
  -2   5   6    1.15    0.35
   2  -5   6    1.05    0.39
  -2  -5  -6    0.79    0.39
  -2  -5   6    1.58    0.38
   2   5   6    1.10    0.32
  -2   5  -6    1.23    0.38
  -2  -5   6    0.52    0.41
  -2   5  -6    1.88    0.39
   2  -5  -6    1.41    0.25
  -3  -5  -6    0.46    0.46
   3   5  -6    0.47    0.45
  -3   5   6    0.37    0.37
  -3  -5  -6    0.09    0.40
   3  -5   6    0.11    0.40
  -3   5   6    0.72    0.49
  -3  -5   6    1.24    0.50
  -3  -5   6    0.93    0.48
  -3   5  -6    0.44    0.39
  -3   5  -6    0.51    0.46
   3   5   6    1.08    0.35
   4   5  -6   15.64    0.95
  -4  -5  -6   15.46    1.06
   4  -5   6   14.67    0.93
  -4  -5  -6   16.61    1.03
  -4   5   6   13.89    0.92
  -4   5   6   15.38    1.16
  -4  -5   6   16.95    1.23
  -4  -5   6   17.78    1.00
  -4   5  -6   14.54    1.10
  -4   5  -6   15.66    0.85
  -5   5   6    2.35    0.54
   5  -5   6    2.48    0.51
  -5  -5  -6    2.37    0.67
  -5   5   6    2.25    0.72
   5   5  -6    2.34    0.50
  -5  -5  -6    3.39    0.63
  -5  -5   6    1.68    0.48
  -5  -5   6    1.89    0.78
  -5   5  -6    2.69    0.68
  -6  -5  -6   12.06    1.05
  -6   5   6    9.20    1.11
  -6  -5  -6   11.34    1.08
   6   5  -6   12.25    0.91
   6  -5   6   11.52    0.92
  -6   5   6   12.99    1.00
  -6   5  -6   10.36    1.11
  -6  -5   6    9.56    1.23
  -7  -5  -6    1.37    0.84
  -7   5   6    0.76    0.87
  -7  -5  -6    0.27    0.65
  -7   5  -6    1.37    0.84
  -7  -5   6   -0.25    0.95
   0   6   6   13.65    0.46
   0  -6   6   13.32    0.85
   0   6  -6   13.97    0.80
   0   6   6   14.63    0.74
   0   6  -6   12.88    0.66
   0  -6  -6   13.78    0.72
   1  -6   6  135.97    3.21
  -1  -6  -6  129.51    2.79
  -1   6   6  130.90    3.10
  -1   6   6  133.98    2.91
  -1  -6  -6  131.63    3.13
   1   6  -6  131.63    3.13
  -1  -6   6  129.60    3.06
  -1   6  -6  128.97    3.07
  -1   6  -6  133.08    3.14
  -1  -6   6  132.49    3.19
   1  -6  -6  132.87    2.97
   1   6   6  132.10    3.05
  -2  -6  -6   64.19    1.57
   2   6  -6   66.19    1.85
  -2  -6  -6   59.88    1.84
   2  -6   6   63.03    1.86
  -2   6   6   64.44    1.74
  -2  -6   6   65.55    1.83
  -2   6  -6   65.69    1.81
  -2   6  -6   64.14    1.83
   2   6   6   64.97    1.72
  -2  -6   6   65.00    1.88
  -3   6   6    0.50    0.44
  -3  -6  -6    0.06    0.39
  -3  -6  -6    0.54    0.41
   3   6  -6    0.42    0.45
  -3   6   6    0.62    0.48
   3  -6   6    0.42    0.48
  -3   6  -6    0.10    0.43
  -3  -6   6    0.43    0.53
  -3   6  -6    0.85    0.48
   3   6   6    0.69    0.41
  -3  -6   6    0.05    0.50
   4   6  -6    2.73    0.54
  -4  -6  -6    2.70    0.61
  -4   6   6    3.11    0.67
  -4   6   6    2.58    0.54
   4  -6   6    2.49    0.57
  -4  -6  -6    3.71    0.58
  -4  -6   6    2.50    0.58
  -4   6  -6    2.33    0.49
  -4   6  -6    3.23    0.65
  -4  -6   6    3.07    0.72
  -5   6   6    3.43    0.79
  -5  -6  -6    3.04    0.66
  -5  -6  -6    3.06    0.70
   5   6  -6    4.13    0.60
  -5   6   6    3.39    0.61
   5  -6   6    2.70    0.58
  -5  -6   6    3.55    0.62
  -5  -6   6    2.98    0.86
  -5   6  -6    3.40    0.75
  -6  -6  -6    5.84    0.83
  -6   6   6    6.52    0.98
   6   6  -6    6.61    0.86
  -6   6   6    6.98    0.78
  -6  -6  -6    4.91    0.84
  -6  -6   6    4.68    1.03
  -6   6  -6    6.41    0.92
  -7  -6  -6    6.99    0.94
  -7   6   6    6.59    1.13
  -7  -6   6    7.14    1.34
  -7   6  -6    7.35    1.10
   0  -7  -6   24.19    1.02
   0   7  -6   23.12    1.09
   0   7  -6   23.70    0.92
   0   7   6   24.71    1.04
   1  -7   6    4.54    0.66
  -1  -7  -6    4.02    0.59
  -1   7   6    3.88    0.54
  -1   7   6    4.95    0.41
  -1  -7   6    4.46    0.48
  -1   7  -6    3.60    0.58
   1  -7  -6    4.34    0.50
   1   7   6    3.60    0.52
  -1  -7   6    4.40    0.68
  -1   7  -6    4.21    0.47
  -2  -7  -6    0.70    0.52
   2   7  -6    0.36    0.47
   2  -7   6    1.35    0.54
  -2   7   6    0.00    0.10
  -2   7   6    0.32    0.41
  -2  -7   6    0.07    0.54
  -2  -7   6    1.19    0.43
  -2   7  -6    1.12    0.50
  -2   7  -6    0.82    0.39
   2  -7  -6    1.27    0.37
   2   7   6    0.38    0.44
  -3   7   6   36.44    1.40
  -3  -7  -6   35.81    1.44
  -3   7   6   36.81    1.39
   3   7  -6   34.48    1.38
   3  -7   6   35.51    1.43
  -3  -7   6   34.18    1.41
  -3  -7   6   34.89    1.46
  -3   7  -6   35.84    1.37
   3   7   6   35.63    1.27
  -3   7  -6   36.10    1.40
   4  -7   6    6.35    0.74
  -4   7   6    7.29    0.80
  -4  -7  -6    6.40    0.78
   4   7  -6    5.58    0.65
  -4   7   6    7.35    0.74
  -4  -7   6    8.07    0.79
  -4  -7   6    7.07    0.84
  -4   7  -6    6.72    0.78
  -4   7  -6    6.59    0.66
  -5   7   6    1.81    0.58
   5   7  -6    2.49    0.55
  -5  -7  -6    1.73    0.65
  -5   7   6    1.81    0.69
   5  -7   6    1.14    0.59
  -5   7  -6    1.31    0.62
  -5  -7   6    2.61    0.60
  -5  -7   6    1.74    0.80
  -6  -7  -6   10.12    1.00
  -6   7   6    8.81    1.09
  -6   7   6    8.16    0.88
  -6  -7   6    9.69    1.23
  -6   7  -6   10.63    1.12
  -7  -7   6    5.24    1.27
   0   8   6    2.38    0.53
   0  -8  -6    2.31    0.52
   0   8  -6    2.14    0.53
   0   8  -6    2.66    0.40
  -1  -8  -6   23.62    1.16
  -1   8   6   22.56    1.13
   1  -8   6   23.61    1.22
  -1  -8   6   21.81    0.94
   1   8   6   25.06    1.18
   1  -8  -6   21.21    1.00
  -1   8  -6   23.11    1.20
  -1  -8   6   22.31    1.22
  -1   8  -6   21.70    0.92
   2  -8   6    0.45    0.61
   2   8  -6   -0.13    0.50
  -2   8   6    0.74    0.45
  -2   8   6    0.40    0.48
  -2  -8  -6   -0.05    0.56
  -2  -8   6   -0.49    0.60
  -2  -8   6    0.83    0.44
  -2   8  -6    0.50    0.55
   2   8   6    0.55    0.51
  -2   8  -6    0.05    0.37
   2  -8  -6    0.06    0.37
   3  -8   6    0.98    0.59
  -3   8   6    0.60    0.48
  -3  -8  -6    1.16    0.58
  -3   8   6    1.12    0.50
   3   8  -6    1.03    0.49
   3   8   6    0.92    0.49
  -3  -8   6    0.44    0.58
  -3   8  -6    1.55    0.52
  -3  -8   6    0.74    0.52
  -3   8  -6    0.92    0.44
   4  -8   6   10.32    0.89
  -4   8   6    8.99    0.88
  -4   8   6    9.77    0.90
   4   8  -6    8.39    0.78
  -4  -8  -6    7.54    0.86
  -4   8  -6    8.77    0.81
  -4  -8   6    8.72    0.93
  -4  -8   6    9.77    0.91
  -4   8  -6    9.13    0.87
   5  -8   6   10.32    0.96
   5   8  -6   13.64    1.02
  -5  -8  -6   13.79    1.11
  -5   8   6   11.58    1.09
  -5   8   6   11.85    1.04
  -5  -8   6   13.12    1.04
  -5  -8   6   11.24    1.17
  -5   8  -6   13.55    1.14
  -6   8   6   -0.32    0.60
  -6   8   6    0.27    0.72
  -6  -8  -6    0.20    0.65
  -6   8  -6    0.60    0.67
   0  -9  -6   64.33    1.97
   0   9  -6   64.65    1.76
   0  -9   6   68.58    2.21
   0   9  -6   65.05    2.08
   0   9   6   66.28    2.06
   1   9  -6   13.35    1.05
   1  -9   6   14.52    1.13
  -1   9   6   14.43    1.04
  -1  -9  -6   14.61    1.00
  -1  -9   6   13.91    1.10
   1  -9  -6   15.61    0.94
  -1   9  -6   13.11    0.77
  -1  -9   6   12.64    0.75
   1   9   6   13.43    1.03
  -1   9  -6   14.53    1.12
   2   9  -6   19.70    1.13
  -2   9   6   20.35    1.18
  -2  -9  -6   21.32    1.19
   2  -9   6   19.99    1.20
   2   9   6   20.44    1.12
  -2  -9   6   20.39    1.32
  -2   9  -6   19.63    1.16
   2  -9  -6   19.44    0.92
  -2   9  -6   19.96    0.94
   3   9  -6    3.08    0.60
  -3   9   6    3.44    0.67
   3  -9   6    2.16    0.67
  -3  -9  -6    2.99    0.66
  -3   9  -6    2.13    0.60
   3   9   6    3.15    0.60
  -3  -9   6    2.20    0.71
  -3   9  -6    2.86    0.53
  -4   9   6   14.14    1.09
  -4  -9  -6   13.94    1.12
   4   9  -6   14.37    1.02
   4  -9   6   12.97    1.08
  -4  -9   6   13.38    1.13
  -4   9  -6   13.57    1.04
  -4   9  -6   13.43    1.07
  -5   9   6   -0.16    0.58
   5  -9   6    0.22    0.65
  -5  -9  -6    1.59    0.72
   5   9  -6    1.49    0.54
  -5   9  -6    1.67    0.59
  -5  -9   6    0.97    0.63
  -6   9   6    3.50    0.84
  -6  -9  -6    3.92    0.85
  -6   9  -6    3.83    0.83
   0  10  -6    0.25    0.53
   0 -10   6    0.23    0.60
   0 -10  -6    0.31    0.51
   0  10   6    1.53    0.60
   1  10  -6    3.77    0.66
  -1  10   6    4.48    0.72
  -1 -10  -6    4.30    0.68
   1 -10   6    4.94    0.81
   1 -10  -6    4.84    0.62
  -1  10  -6    5.59    0.79
  -1 -10   6    2.68    0.70
   1  10   6    4.86    0.73
  -2 -10  -6   16.10    1.13
   2  10  -6   13.77    1.10
   2 -10   6   15.01    1.23
  -2  10   6   16.52    1.16
  -2  10  -6   13.21    1.09
  -2  10  -6   16.36    0.93
  -2 -10   6   16.34    1.26
   2  10   6   14.75    1.12
   2 -10  -6   17.84    0.92
   3 -10   6    6.22    0.86
  -3  10   6    5.46    0.81
   3  10  -6    5.43    0.73
  -3 -10  -6    6.71    0.84
   3  10   6    6.09    0.76
  -3  10  -6    6.36    0.67
  -3  10  -6    5.79    0.82
  -3 -10   6    5.94    0.87
   4  10  -6    6.92    0.76
  -4  10   6    7.88    0.96
  -4 -10  -6    7.81    0.93
   4 -10   6    8.22    0.97
  -4  10  -6    7.87    0.82
  -4 -10   6    6.53    0.91
  -4  10  -6    7.50    0.87
   5  10  -6   14.74    1.14
  -5  10   6   15.67    1.29
  -5 -10  -6   15.00    1.29
  -5 -10   6   17.10    1.28
  -5  10  -6   15.17    1.21
   0 -11  -6    3.08    0.65
   0 -11   6    2.65    0.75
   0  11  -6    3.58    0.72
   0  11   6    2.53    0.69
  -1  11   6   12.79    1.09
   1  11  -6   12.24    1.02
   1 -11   6   10.99    1.05
  -1 -11  -6   12.40    1.00
   1 -11  -6   13.42    0.97
  -1 -11   6   10.24    1.03
  -1  11  -6   12.24    1.05
   1  11   6   12.38    1.04
   2 -11   6    2.06    0.75
  -2 -11  -6    2.64    0.70
  -2  11   6    1.58    0.66
   2  11  -6    1.97    0.62
   2  11   6    0.18    0.60
  -2 -11   6    1.20    0.72
  -2  11  -6    0.93    0.64
   3  11  -6    3.69    0.68
  -3 -11  -6    5.05    0.85
  -3  11   6    3.28    0.79
   3 -11   6    1.25    0.73
   3  11   6    1.90    0.64
  -3  11  -6    3.07    0.74
  -3 -11   6    3.53    0.82
  -4  11   6    2.24    0.78
  -4 -11  -6    3.73    0.80
   4  11  -6    3.18    0.66
   4 -11   6    3.10    0.84
  -4  11  -6    2.45    0.74
  -4 -11   6    2.11    0.78
  -5  11   6    1.79    0.86
   5  11  -6    1.29    0.63
  -5 -11  -6    4.01    0.90
  -5 -11   6    1.83    0.78
   0  12   6    6.91    0.95
   0  12  -6    7.49    0.93
   0 -12  -6    6.75    0.84
   0 -12   6    8.22    0.99
  -1  12   6    8.34    1.00
  -1 -12  -6    8.63    0.93
   1 -12   6    7.20    0.98
   1  12  -6    9.57    0.99
  -1 -12   6    7.30    1.01
   1  12   6    8.96    0.99
   1 -12  -6    9.31    0.85
  -1  12  -6    8.34    0.99
   2  12  -6   16.07    1.24
  -2  12   6   15.74    1.27
   2 -12   6   16.23    1.30
  -2 -12  -6   17.75    1.24
   2  12   6   14.97    1.26
  -2 -12   6   13.34    1.19
  -2  12  -6   14.44    1.20
  -3  12   6   -0.25    0.70
  -3 -12  -6    0.79    0.69
   3  12  -6    1.43    0.62
   3 -12   6    0.58    0.73
  -3  12  -6    1.02    0.67
  -3 -12   6    1.08    0.73
  -4  12   6    3.64    0.94
   4  12  -6    5.54    0.83
   4 -12   6    4.05    0.95
  -4 -12  -6    4.79    0.92
  -4 -12   6    3.46    0.92
  -4  12  -6    4.00    0.88
   0  13   6   -0.32    0.68
   0  13  -6    0.71    0.67
   0 -13  -6   -0.21    0.58
   0 -13   6    0.67    0.73
  -1 -13  -6    0.49    0.66
   1 -13   6    0.52    0.74
  -1  13   6    0.15    0.73
   1  13  -6    2.01    0.69
   1 -13  -6    2.32    0.66
  -1  13  -6    0.39    0.71
  -1 -13   6    1.00    0.77
   1  13   6    1.45    0.74
   2 -13   6    4.12    0.89
  -2 -13  -6    5.75    0.94
   2  13  -6    5.52    0.84
  -2  13   6    5.33    1.00
  -2  13  -6    4.69    0.90
   2  13   6    5.01    0.89
  -2 -13   6    5.55    0.98
   3 -13   6    3.09    0.91
   3  13  -6    3.02    0.77
  -3 -13  -6    2.92    0.86
  -3  13   6    3.70    1.04
  -3 -13   6    2.58    0.86
  -3  13  -6    4.06    0.91
   0  14  -6   -0.66    0.69
   0 -14  -6    0.29    0.68
   0 -14   6    0.05    0.81
   0  14   6   -0.87    0.75
   1  14  -6    2.78    0.84
   1 -14   6    1.57    0.87
  -1 -14  -6    0.91    0.71
  -1  14   6    2.26    0.95
  -1  14  -6    2.29    0.85
   1 -14  -6    3.15    0.85
   1  14   6    1.87    0.87
  -1 -14   6    1.10    0.78
   2 -14   6    5.16    1.01
  -2 -14  -6    4.33    0.96
  -2  14   6    5.81    1.11
   2  14  -6    5.14    0.91
  -2  14  -6    7.25    1.04
  -2 -14   6    5.39    1.01
   2  14   6    4.75    0.93
   0   0  -7    0.15    0.17
   0   0   7    0.00    0.17
   0   0  -7    0.03    0.08
  -1   0  -7   21.02    0.61
  -1   0  -7   20.24    0.73
  -1   0   7   21.28    0.77
  -1   0   7   21.31    0.62
  -2   0  -7   10.94    0.66
  -2   0   7   11.61    0.43
  -2   0  -7   10.50    0.61
   2   0  -7   11.32    0.60
  -2   0   7   11.23    0.66
  -2   0  -7   11.35    0.37
  -3   0  -7    9.47    0.77
   3   0  -7   10.04    0.65
  -3   0  -7   10.33    0.67
  -3   0   7   10.44    0.37
  -3   0   7    9.93    0.79
  -4   0  -7   29.92    1.20
   4   0  -7   32.17    1.16
  -4   0  -7   30.31    1.39
  -5   0  -7    2.08    0.69
   5   0  -7    2.65    0.49
  -5   0  -7    2.74    0.58
  -5   0   7    2.06    0.75
  -6   0   7    8.64    1.11
   6   0  -7    8.01    0.73
  -6   0  -7    8.08    1.00
  -7   0  -7    6.12    0.98
   7   0   7    5.17    0.68
  -7   0   7    4.61    1.06
   0  -1   7    1.31    0.23
   0  -1  -7    1.38    0.22
   0  -1  -7    1.13    0.22
  -1  -1  -7   13.82    0.59
  -1   1   7   15.49    0.48
  -1  -1  -7   14.74    0.49
   1  -1   7   14.45    0.60
  -1   1   7   14.38    0.63
  -1   1  -7   16.52    0.52
   1  -1  -7   15.24    0.59
  -1  -1   7   15.58    0.55
  -2   1   7   13.94    0.73
  -2  -1  -7   14.59    0.41
   2   1  -7   13.03    0.65
  -2  -1  -7   14.89    0.73
   2  -1   7   14.30    0.65
  -2   1   7   13.66    0.40
  -2   1  -7   12.23    0.66
   2  -1  -7   12.78    0.64
  -2   1  -7   13.44    0.45
  -2  -1   7   13.99    0.55
  -3  -1  -7   55.69    1.72
   3  -1   7   55.15    1.58
   3   1  -7   59.54    1.61
  -3  -1  -7   58.15    1.64
  -3   1   7   59.03    1.78
  -3  -1   7   56.33    1.35
  -3  -1   7   56.67    1.74
  -3   1  -7   57.55    1.75
   3  -1  -7   57.41    1.58
  -4  -1  -7   -0.92    0.54
  -4  -1  -7    1.17    0.47
  -4   1   7    1.60    0.63
   4   1  -7    0.82    0.40
   4  -1   7    1.06    0.41
  -4  -1   7    0.62    0.26
  -4   1  -7    0.56    0.32
   4  -1  -7    0.63    0.40
   5   1  -7    3.32    0.51
  -5  -1  -7    2.84    0.72
  -5   1   7    3.01    0.77
  -5  -1  -7    3.60    0.60
   5  -1   7    2.75    0.51
   5  -1  -7    2.83    0.53
  -5  -1   7    4.30    0.85
  -5   1  -7    3.57    0.73
  -6  -1  -7    1.85    0.77
  -6   1   7    0.77    0.78
   6  -1   7    1.22    0.47
  -6  -1  -7    1.83    0.57
   6   1  -7    1.63    0.49
  -6  -1   7    0.90    0.81
  -6   1  -7    1.27    0.71
   6  -1  -7    0.75    0.46
  -7  -1  -7   13.74    1.31
  -7   1   7    9.07    1.25
   7  -1   7   10.05    1.00
  -7  -1   7    8.64    1.26
  -7   1  -7   12.13    1.24
   0   2  -7   32.74    1.00
   0  -2  -7   29.35    0.91
   0  -2  -7   29.79    0.87
   0  -2   7   33.63    0.93
   1   2  -7    8.64    0.46
   1  -2   7   10.15    0.52
  -1   2   7   10.18    0.52
  -1  -2  -7   10.12    0.42
  -1  -2  -7    9.56    0.54
  -1   2  -7   10.04    0.45
  -1  -2   7   10.06    0.58
  -1  -2   7    9.84    0.49
   1  -2  -7    9.66    0.53
   1  -2  -7    9.61    0.39
  -1   2  -7    8.86    0.55
   2  -2   7   44.61    1.30
  -2  -2  -7   46.77    1.34
  -2   2   7   44.10    1.36
   2   2  -7   46.98    1.32
  -2  -2   7   46.41    1.23
  -2   2  -7   42.43    1.37
   2  -2  -7   46.51    1.32
  -2   2  -7   45.80    1.12
   2   2   7   46.02    1.05
  -2  -2   7   45.62    1.41
  -3  -2  -7    3.04    0.47
   3   2  -7    3.27    0.45
  -3  -2  -7    2.60    0.48
  -3   2   7    2.42    0.50
   3  -2   7    2.58    0.41
  -3   2  -7    1.94    0.48
  -3  -2   7    2.37    0.33
  -3  -2   7    4.02    0.56
  -3   2  -7    2.90    0.25
   3  -2  -7    2.49    0.43
   4  -2   7   21.96    0.99
  -4  -2  -7   22.58    1.10
  -4  -2  -7   21.81    1.25
   4   2  -7   22.29    1.02
  -4   2   7   21.52    1.28
  -4  -2   7   21.04    0.79
  -4  -2   7   21.48    1.33
   4  -2  -7   22.68    1.03
   5  -2   7    1.88    0.45
   5   2  -7    1.92    0.47
  -5   2   7    1.41    0.71
  -5  -2  -7    1.39    0.55
  -5  -2  -7    2.40    0.69
  -5  -2   7    2.15    0.76
   5  -2  -7    2.11    0.50
  -5   2  -7    1.46    0.67
  -6  -2  -7    2.21    0.77
   6   2  -7    1.81    0.50
  -6   2   7    2.38    0.89
   6  -2   7    2.63    0.55
  -6  -2  -7    2.30    0.62
  -6  -2   7    1.38    0.85
   6  -2  -7    2.45    0.56
  -6   2  -7    2.26    0.76
  -7  -2  -7    3.16    0.92
  -7   2   7    2.93    0.98
  -7  -2  -7    3.62    0.71
  -7   2  -7    4.08    0.92
  -7  -2   7    2.30    1.01
   0  -3  -7    6.31    0.39
   0   3  -7    5.74    0.46
   0   3  -7    6.11    0.45
   0  -3  -7    6.05    0.43
   0  -3   7    6.28    0.50
  -1   3   7  139.55    3.11
  -1  -3  -7  138.36    3.11
   1  -3   7  128.84    3.11
  -1   3  -7  139.90    3.18
  -1  -3   7  145.38    3.14
  -1   3  -7  125.55    3.01
   1   3   7  141.67    2.99
   1  -3  -7  145.05    2.95
   1  -3  -7  141.10    3.11
  -2  -3  -7    2.56    0.37
   2   3  -7    2.31    0.38
  -2   3   7    1.89    0.37
  -2  -3  -7    1.84    0.33
   2  -3   7    2.91    0.39
   2  -3  -7    2.27    0.20
   2  -3  -7    2.27    0.36
  -2   3  -7    1.29    0.38
   2   3   7    2.80    0.25
  -2  -3   7    2.71    0.40
  -2  -3   7    3.06    0.42
   3  -3   7   23.98    0.99
  -3  -3  -7   23.73    1.05
  -3   3   7   24.69    1.13
  -3  -3  -7   23.19    1.08
   3   3  -7   23.88    1.02
  -3  -3   7   26.92    1.18
   3  -3  -7   25.92    1.03
  -3   3  -7   25.94    0.77
  -3  -3   7   25.61    0.92
  -3   3  -7   25.93    1.16
   4  -3   7    5.15    0.59
  -4  -3  -7    5.07    0.67
   4   3  -7    6.10    0.61
  -4  -3  -7    5.85    0.76
  -4   3   7    7.04    0.83
  -4  -3   7    7.60    0.89
   4  -3  -7    6.27    0.63
  -4   3  -7    6.79    0.79
  -4  -3   7    6.34    0.54
  -5   3   7   17.32    1.33
   5  -3   7   14.84    0.91
   5   3  -7   15.82    0.96
  -5  -3  -7   18.26    1.20
  -5  -3  -7   15.29    1.00
  -5   3  -7   16.09    1.22
   5  -3  -7   16.52    1.01
  -5  -3   7   15.85    1.35
  -6   3   7    0.17    0.76
  -6  -3  -7    1.47    0.72
   6  -3   7    0.11    0.45
  -6  -3  -7   -0.26    0.55
   6   3  -7    0.05    0.42
  -6   3  -7    1.44    0.74
  -6  -3   7   -0.43    0.78
  -7   3   7    3.27    0.98
  -7  -3  -7    5.45    0.95
  -7  -3  -7    4.63    0.80
  -7  -3   7    3.96    1.15
  -7   3  -7    4.20    0.94
   0   4   7   11.83    0.57
   0  -4   7   12.01    0.69
   0   4  -7   11.46    0.62
   0  -4  -7   11.06    0.56
   0   4  -7   11.87    0.63
  -1  -4  -7    3.95    0.36
  -1   4   7    3.89    0.37
  -1  -4  -7    4.03    0.44
   1  -4  -7    4.48    0.37
  -1  -4   7    3.61    0.46
   1   4   7    4.00    0.34
  -1   4  -7    4.41    0.39
  -1   4  -7    4.52    0.45
  -2   4   7   20.77    0.88
   2   4  -7   23.01    0.97
  -2  -4  -7   21.53    0.81
   2  -4   7   19.58    0.87
  -2  -4  -7   21.34    0.90
  -2   4  -7   21.41    0.95
  -2  -4   7   21.05    0.91
   2   4   7   20.05    0.71
   2  -4  -7   22.39    0.90
  -2  -4   7   20.97    0.90
   2  -4  -7   21.73    0.60
  -2   4  -7   21.12    0.78
   3  -4   7   25.37    1.04
  -3  -4  -7   25.54    1.09
   3   4  -7   25.14    1.06
  -3   4   7   25.91    1.15
   3   4   7   25.39    0.79
   3  -4  -7   26.19    1.08
  -3  -4   7   27.30    1.24
  -3  -4   7   25.26    1.02
  -3   4  -7   26.69    0.91
  -3   4  -7   25.03    1.19
   4   4  -7   18.52    1.03
  -4   4   7   20.59    1.27
  -4  -4  -7   18.58    1.12
   4  -4   7   20.31    1.01
  -4  -4  -7   19.07    1.06
  -4  -4   7   20.15    0.94
  -4  -4   7   20.87    1.35
  -4   4  -7   20.36    1.21
   5  -4   7   14.36    0.90
  -5   4   7   15.40    1.28
  -5  -4  -7   13.73    0.98
   5   4  -7   15.24    0.95
  -5  -4  -7   14.10    1.15
  -5   4  -7   12.60    1.13
  -5  -4   7   12.57    1.15
  -6  -4  -7    0.80    0.64
   6   4  -7    0.72    0.45
   6  -4   7    0.72    0.48
  -6   4   7    1.25    0.49
  -6  -4  -7    0.66    0.59
  -6   4   7    0.18    0.74
  -6  -4   7    0.11    0.82
  -6   4  -7   -0.41    0.60
  -7   4   7    4.18    1.04
  -7  -4  -7    5.80    0.99
  -7  -4  -7    3.09    0.78
  -7   4  -7    4.80    0.97
  -7  -4   7    3.83    1.19
   0   5   7    0.52    0.27
   0  -5   7    0.29    0.38
   0   5  -7    0.80    0.28
   0  -5  -7    0.20    0.28
   0   5   7    0.39    0.17
   0   5  -7   -0.13    0.29
  -1   5   7   37.86    1.19
  -1   5   7   38.75    1.11
  -1  -5  -7   38.55    1.02
  -1  -5  -7   36.34    1.18
  -1  -5   7   39.29    1.30
  -1   5  -7   38.44    1.22
  -1  -5   7   39.29    1.25
   1   5   7   38.57    1.13
  -1   5  -7   35.33    1.16
  -2   5   7    5.15    0.53
  -2  -5  -7    5.14    0.57
   2   5  -7    5.59    0.56
   2  -5   7    6.02    0.59
  -2   5  -7    5.01    0.49
   2   5   7    5.75    0.46
   2  -5  -7    5.28    0.40
  -2  -5   7    5.35    0.55
  -2   5  -7    6.06    0.59
  -2  -5   7    5.42    0.60
  -3   5   7   11.58    0.90
  -3   5   7   11.89    0.80
  -3  -5  -7   10.90    0.77
   3   5  -7   11.46    0.84
   3  -5   7   11.07    0.83
  -3   5  -7   11.11    0.89
  -3  -5   7   11.29    0.95
  -3  -5   7   10.06    0.83
  -3   5  -7   10.64    0.74
   3   5   7   11.59    0.65
  -4   5   7    6.29    0.82
  -4  -5  -7    6.17    0.71
   4  -5   7    5.56    0.64
  -4   5   7    5.35    0.65
  -4  -5  -7    4.69    0.69
   4   5  -7    5.20    0.63
  -4  -5   7    6.03    0.85
  -4   5  -7    6.07    0.63
  -4   5  -7    5.96    0.76
  -4  -5   7    6.44    0.66
  -5  -5  -7    5.96    0.76
  -5  -5  -7    5.83    0.77
  -5   5   7    4.54    0.87
  -5   5   7    5.95    0.70
   5  -5   7    6.24    0.70
   5   5  -7    5.81    0.70
  -5  -5   7    6.47    0.97
  -5  -5   7    6.85    0.68
  -5   5  -7    7.35    0.90
  -6  -5  -7    6.69    0.85
  -6   5   7    6.53    0.76
  -6   5   7    5.05    0.95
   6  -5   7    5.63    0.70
  -6  -5  -7    6.02    0.89
   6   5  -7    5.73    0.68
  -6   5  -7    7.71    1.01
  -6  -5   7    4.38    1.06
  -7  -5  -7    1.51    0.81
  -7   5   7   -0.27    0.83
  -7  -5  -7   -0.12    0.64
  -7   5  -7    0.93    0.77
  -7  -5   7   -1.73    0.92
   0   6   7   58.97    1.60
   0  -6  -7   56.39    1.55
   0   6   7   54.32    1.33
   0   6  -7   54.51    1.56
   0  -6   7   55.36    1.70
   0   6  -7   53.37    1.61
  -1  -6  -7   10.94    0.47
  -1   6   7   11.22    0.57
  -1  -6  -7   11.43    0.76
  -1   6   7   10.31    0.70
   1  -6   7   11.14    0.74
  -1   6  -7   10.64    0.69
   1  -6  -7   10.14    0.62
  -1  -6   7   10.06    0.68
  -1   6  -7    9.82    0.76
   1   6   7   10.80    0.69
  -1  -6   7   11.61    0.85
  -2   6   7   15.79    0.82
  -2  -6  -7   14.89    0.94
   2  -6   7   16.44    1.00
   2   6  -7   14.88    0.91
  -2   6  -7   15.39    0.90
  -2   6  -7   16.79    0.88
   2   6   7   17.42    0.82
  -2  -6   7   15.22    0.87
  -2  -6   7   16.38    1.00
  -3   6   7    4.77    0.62
   3   6  -7    5.89    0.67
   3  -6   7    5.81    0.69
  -3  -6  -7    3.44    0.59
  -3  -6  -7    6.51    0.58
  -3   6   7    5.31    0.69
  -3   6  -7    5.42    0.60
  -3  -6   7    5.76    0.71
   3   6   7    5.23    0.53
  -3   6  -7    5.73    0.69
  -3  -6   7    6.16    0.74
  -4  -6  -7    6.02    0.65
  -4   6   7    5.69    0.79
   4   6  -7    4.56    0.61
   4  -6   7    6.71    0.70
  -4   6   7    4.66    0.63
  -4  -6  -7    5.97    0.73
  -4   6  -7    4.36    0.52
  -4   6  -7    5.28    0.74
  -4  -6   7    4.92    0.64
  -4  -6   7    4.45    0.77
  -5  -6  -7   19.40    1.14
   5   6  -7   17.20    1.05
   5  -6   7   16.87    1.09
  -5   6   7   16.25    1.30
  -5   6   7   17.89    1.14
  -5  -6  -7   18.07    1.20
  -5  -6   7   17.27    1.03
  -5   6  -7   16.71    1.27
  -5  -6   7   16.87    1.40
  -6  -6  -7    1.54    0.66
   6  -6   7    0.37    0.56
  -6   6   7    1.01    0.54
  -6   6   7    1.23    0.77
   6   6  -7    1.82    0.53
  -6   6  -7    1.68    0.69
  -6  -6   7    0.42    0.85
  -7   6   7    0.54    0.89
  -7  -6  -7    0.00    0.68
  -7  -6   7   -0.61    1.00
  -7   6  -7    0.78    0.79
   0  -7  -7   35.73    1.25
   0   7   7   34.49    0.90
   0   7  -7   34.95    1.30
   0   7   7   34.58    1.25
   0   7  -7   35.05    1.19
  -1  -7  -7    4.29    0.60
   1  -7   7    2.59    0.47
  -1   7   7    4.27    0.55
  -1   7   7    4.96    0.42
  -1  -7   7    4.29    0.70
   1  -7  -7    4.43    0.50
  -1   7  -7    4.72    0.59
   1   7   7    4.37    0.54
  -1  -7   7    3.79    0.48
  -1   7  -7    5.07    0.54
   2   7  -7   11.71    0.93
  -2   7   7   11.71    0.78
   2  -7   7   12.13    1.01
  -2  -7  -7   11.76    0.91
  -2  -7   7   12.82    1.04
   2   7   7   11.18    0.85
  -2   7  -7   12.55    0.81
   2  -7  -7   12.04    0.69
  -2   7  -7   13.09    0.90
  -2  -7   7   13.75    0.88
   3   7  -7   11.35    0.93
  -3   7   7   15.43    0.97
   3  -7   7   14.64    1.00
  -3   7   7   14.33    1.00
  -3  -7  -7   13.53    1.04
  -3  -7   7   11.90    1.02
   3   7   7   11.83    0.85
  -3   7  -7   11.80    0.89
  -3  -7   7   13.75    1.05
  -3   7  -7   11.90    0.91
   4  -7   7    3.55    0.64
  -4  -7  -7    2.87    0.66
  -4   7   7    3.70    0.69
   4   7  -7    2.80    0.57
  -4   7   7    4.20    0.63
  -4  -7   7    2.96    0.74
  -4   7  -7    4.50    0.67
  -4  -7   7    2.87    0.61
  -4   7  -7    3.24    0.55
   5  -7   7    1.99    0.64
  -5   7   7    0.74    0.67
   5   7  -7    1.34    0.51
  -5  -7  -7    0.99    0.62
  -5   7   7    0.72    0.53
  -5  -7   7    1.19    0.55
  -5  -7   7    0.10    0.75
  -5   7  -7    1.21    0.60
  -6   7   7    5.22    0.97
   6   7  -7    5.48    0.74
  -6   7   7    4.27    0.77
  -6  -7  -7    4.14    0.81
  -6   7  -7    5.57    0.92
  -6  -7   7    2.24    0.99
   0   8  -7    4.62    0.50
   0   8   7    3.71    0.59
   0  -8  -7    3.53    0.57
   0   8  -7    4.04    0.64
   1  -8   7    9.42    0.93
  -1   8   7   10.54    0.88
  -1  -8  -7    8.78    0.79
   1   8  -7    8.06    0.77
  -1   8  -7    9.89    0.81
  -1  -8   7    9.39    0.71
   1  -8  -7    9.84    0.71
  -1  -8   7    7.98    0.86
  -1   8  -7    9.58    0.71
   1   8   7    8.52    0.74
   2   8  -7   31.28    1.34
  -2   8   7   31.04    1.32
   2  -8   7   31.33    1.42
  -2  -8  -7   31.71    1.39
   2   8   7   30.94    1.26
  -2  -8   7   27.94    1.38
  -2  -8   7   29.72    1.23
   2  -8  -7   29.44    1.07
  -2   8  -7   29.75    1.20
  -2   8  -7   29.31    1.30
  -3   8   7    0.31    0.49
  -3  -8  -7    0.38    0.55
   3  -8   7    1.11    0.58
   3   8  -7    1.20    0.49
  -3   8   7    0.58    0.46
  -3   8  -7    1.01    0.49
   3   8   7    0.24    0.46
  -3   8  -7    0.98    0.45
  -3  -8   7    0.24    0.52
  -3  -8   7    0.84    0.58
   4   8  -7    1.41    0.57
  -4  -8  -7    0.86    0.61
   4  -8   7    0.62    0.58
  -4   8   7    1.32    0.59
  -4   8   7    0.83    0.54
  -4  -8   7    1.68    0.61
  -4  -8   7    0.92    0.66
  -4   8  -7    1.50    0.55
  -4   8  -7    0.70    0.49
   5  -8   7   10.18    0.97
  -5  -8  -7   11.00    1.04
   5   8  -7   10.55    0.88
  -5   8   7   12.59    1.08
  -5   8   7   10.67    1.07
  -5  -8   7   12.06    1.21
  -5   8  -7   12.59    1.12
  -5  -8   7   12.44    1.07
  -6   8   7    2.30    0.72
  -6   8   7    3.74    0.92
  -6  -8  -7    3.52    0.81
  -6  -8   7    3.43    1.40
  -6   8  -7    5.91    0.95
   0   9  -7   45.46    1.41
   0   9  -7   44.65    1.67
   0  -9   7   44.76    1.75
   0   9   7   46.13    1.64
   0  -9  -7   47.85    1.59
  -1  -9  -7    0.97    0.55
  -1   9   7    1.32    0.56
   1  -9   7    1.29    0.70
   1   9  -7    1.59    0.54
   1  -9  -7    1.64    0.48
  -1   9  -7    2.00    0.41
  -1  -9   7    1.15    0.40
   1   9   7    1.13    0.56
  -1  -9   7    1.76    0.67
  -1   9  -7    0.74    0.54
  -2   9   7    2.28    0.57
   2   9  -7    2.60    0.59
   2  -9   7    1.76    0.66
  -2  -9  -7    2.54    0.63
   2  -9  -7    2.73    0.53
  -2  -9   7    1.92    0.48
  -2   9  -7    2.91    0.49
   2   9   7    2.75    0.60
  -2  -9   7    2.31    0.64
  -2   9  -7    2.21    0.60
   3  -9   7    2.76    0.72
  -3  -9  -7    2.24    0.65
  -3   9   7    3.10    0.66
   3   9  -7    2.16    0.58
  -3  -9   7    1.35    0.64
  -3   9  -7    1.32    0.56
   3   9   7    1.62    0.55
  -3   9  -7    1.73    0.49
   4   9  -7    6.53    0.75
  -4  -9  -7    7.50    0.90
   4  -9   7    5.24    0.84
  -4   9   7    6.19    0.84
  -4   9  -7    6.06    0.76
  -4  -9   7    6.24    0.84
  -4   9  -7    6.85    0.77
   5  -9   7   -0.14    0.67
   5   9  -7    1.23    0.53
  -5   9   7    0.60    0.63
  -5  -9  -7    0.90    0.66
  -5   9  -7    1.76    0.64
  -5  -9   7    0.76    0.61
  -6   9   7    8.40    1.04
  -6  -9  -7    8.65    1.08
  -6   9  -7    9.50    1.10
   0 -10   7   28.03    1.44
   0  10  -7   29.43    1.39
   0  10   7   29.18    1.38
   0 -10  -7   28.37    1.27
  -1 -10  -7    4.38    0.67
   1  10  -7    3.83    0.67
  -1  10   7    4.46    0.71
   1 -10   7    4.43    0.81
   1 -10  -7    4.31    0.61
  -1  10  -7    4.46    0.83
  -1 -10   7    3.13    0.75
   1  10   7    3.42    0.66
  -1  10  -7    3.54    0.67
   2 -10   7    3.34    0.81
   2  10  -7    2.18    0.60
  -2  10   7    3.90    0.71
  -2 -10  -7    3.45    0.72
   2  10   7    2.10    0.61
  -2  10  -7    2.74    0.67
  -2 -10   7    2.30    0.78
  -2  10  -7    3.38    0.51
   3 -10   7    0.98    0.69
   3  10  -7    2.14    0.62
  -3  10   7    1.42    0.64
  -3 -10  -7    0.64    0.62
   3  10   7    1.52    0.74
  -3  10  -7    2.06    0.51
  -3  10  -7    0.71    0.60
  -3 -10   7    1.22    0.70
   4  10  -7    1.35    0.56
   4 -10   7    0.07    0.70
  -4 -10  -7    1.13    0.63
  -4  10   7    0.59    0.65
  -4  10  -7    0.54    0.54
  -4 -10   7   -0.15    0.62
  -4  10  -7    1.38    0.52
   5 -10   7    1.41    0.81
  -5 -10  -7    1.56    0.77
   5  10  -7    2.32    0.65
  -5  10   7    1.69    0.77
  -5  10  -7    2.99    0.72
  -5 -10   7    2.83    0.76
   0  11   7    1.16    0.63
   0 -11  -7    2.65    0.62
   0  11  -7    3.14    0.69
   0 -11   7    3.29    0.79
   1 -11   7    3.33    0.82
  -1 -11  -7    4.17    0.72
  -1  11   7    3.96    0.77
   1  11  -7    4.00    0.73
   1  11   7    2.51    0.72
  -1  11  -7    3.20    0.71
   1 -11  -7    4.63    0.67
  -1 -11   7    4.16    0.83
  -2  11   7    6.77    0.88
   2  11  -7    5.48    0.77
   2 -11   7    5.73    0.91
  -2 -11  -7    6.32    0.85
  -2  11  -7    5.55    0.83
   2  11   7    5.66    0.80
  -2 -11   7    5.52    0.89
  -3 -11  -7   24.88    1.49
   3 -11   7   27.75    1.60
   3  11  -7   25.72    1.40
  -3  11   7   27.96    1.58
  -3 -11   7   27.35    1.49
  -3  11  -7   24.89    1.44
   4 -11   7    2.26    0.81
   4  11  -7    2.94    0.67
  -4  11   7    2.86    0.80
  -4 -11  -7    3.92    0.83
  -4 -11   7    1.87    0.75
  -4  11  -7    2.57    0.71
   5  11  -7    5.37    0.79
  -5 -11  -7    7.39    1.05
  -5  11   7    7.51    1.10
  -5 -11   7    7.72    1.04
   0  12  -7    0.74    0.64
   0 -12  -7    0.46    0.58
   0  12   7   -0.10    0.64
   0 -12   7   -0.05    0.67
   1  12  -7   15.56    1.27
   1 -12   7   16.27    1.32
  -1 -12  -7   16.23    1.19
  -1  12   7   15.86    1.30
   1  12   7   14.56    1.20
  -1  12  -7   14.42    1.17
  -1 -12   7   15.85    1.30
   1 -12  -7   15.77    1.07
  -2 -12  -7   -0.12    0.63
   2  12  -7    0.67    0.58
  -2  12   7   -0.56    0.62
   2 -12   7   -0.74    0.70
  -2  12  -7    0.44    0.63
  -2 -12   7    0.19    0.69
   2  12   7   -0.39    0.61
  -3 -12  -7    5.69    0.94
   3  12  -7    7.52    0.91
  -3  12   7    6.71    1.01
   3 -12   7    7.42    1.06
  -3 -12   7    6.57    0.97
  -3  12  -7    6.47    0.92
  -4  12   7    0.72    0.78
  -4 -12  -7    1.58    0.79
   4 -12   7   -0.40    0.79
   4  12  -7    0.19    0.58
  -4  12  -7    1.33    0.73
  -4 -12   7    2.67    0.86
   0  13  -7    7.11    0.94
   0 -13   7    6.56    1.01
   0  13   7    5.30    0.95
   0 -13  -7    7.22    0.88
  -1  13   7    3.79    0.89
  -1 -13  -7    3.10    0.77
   1  13  -7    3.04    0.77
   1 -13   7    2.03    0.81
  -1 -13   7    2.68    0.87
  -1  13  -7    3.13    0.79
   1  13   7    3.29    0.83
   1 -13  -7    2.53    0.69
  -2 -13  -7    1.93    0.77
   2  13  -7    2.29    0.70
   2 -13   7    0.86    0.78
  -2  13   7    0.94    0.86
   2  13   7    1.00    0.74
  -2  13  -7    2.09    0.78
  -2 -13   7    1.14    0.78
  -3  13   7    2.78    0.95
   3  13  -7    3.38    0.77
  -3 -13  -7    3.68    0.90
   3 -13   7    2.43    0.92
  -3  13  -7    4.60    0.89
  -3 -13   7    3.80    0.92
   0 -14  -7    1.89    0.71
   0 -14   7    0.75    0.84
   0  14  -7    1.71    0.79
   0  14   7   -1.14    0.77
   1 -14   7    0.93    0.86
  -1 -14  -7    3.85    0.86
  -1  14   7    0.96    0.88
   1  14  -7    2.90    0.79
  -1  14  -7    2.30    0.85
  -1 -14   7    1.70    0.86
   1  14   7    1.73    0.89
   2  14  -7    0.51    0.68
  -2  14   7   -0.40    0.87
  -2 -14  -7   -0.59    0.69
   2 -14   7   -0.82    0.78
   2  14   7   -0.74    0.74
  -2  14  -7   -1.30    0.68
  -2 -14   7   -0.04    0.80
   0   0  -8    8.20    0.50
   0   0   8    7.60    0.43
   1   0   8   50.50    1.35
  -1   0   8   51.75    1.24
   1   0  -8   50.66    1.37
  -1   0  -8   52.45    1.44
  -1   0   8   50.75    1.44
  -1   0  -8   50.45    1.23
   2   0  -8  148.48    3.32
  -2   0  -8  140.85    3.39
  -2   0   8  149.35    3.46
  -2   0   8  145.37    3.09
  -2   0  -8  148.16    3.05
  -3   0   8    0.84    0.45
  -3   0  -8    0.29    0.42
  -3   0   8    1.04    0.19
   3   0  -8    0.30    0.34
  -3   0  -8    0.62    0.39
   4   0  -8    0.76    0.44
  -4   0  -8    0.56    0.48
  -4   0   8   -0.33    0.50
  -4   0  -8    0.90    0.56
  -5   0  -8    0.69    0.58
   5   0  -8    1.18    0.46
  -5   0   8    0.36    0.65
   6   0   8   10.36    0.83
   6   0  -8    9.74    0.82
  -6   0  -8    9.74    1.10
  -6   0   8   11.04    1.20
  -7   0   8    5.41    1.15
   7   0   8    7.40    0.79
  -7   0  -8    8.63    1.13
   0  -1  -8    6.57    0.35
   1   1  -8  100.17    2.30
  -1  -1  -8  100.21    2.16
  -1  -1  -8   99.06    2.30
  -1  -1  -8  100.04    2.34
  -1   1   8  100.13    2.37
   1  -1   8   98.84    2.29
  -1   1   8   97.35    2.13
  -1   1  -8   99.96    2.18
  -1  -1   8   98.95    2.20
  -1   1  -8   83.07    2.31
   1  -1  -8   96.81    2.28
  -2   1   8   15.01    0.77
  -2  -1  -8   14.02    0.74
  -2   1   8   14.24    0.45
  -2  -1  -8   14.45    0.45
   2   1  -8   15.32    0.72
  -2   1  -8   13.20    0.75
   2  -1  -8   14.07    0.69
  -2   1  -8   13.76    0.48
  -2  -1   8   13.38    0.57
  -3  -1  -8   26.32    1.16
  -3   1   8   28.55    1.21
   3   1  -8   26.41    1.05
  -3  -1  -8   27.17    1.10
   3  -1   8   24.75    0.98
  -3  -1   8   25.53    0.79
   3  -1  -8   26.96    1.03
  -3   1  -8   27.39    1.16
   4   1  -8    7.06    0.65
  -4   1   8    7.60    0.86
   4  -1   8    6.86    0.63
  -4  -1  -8    7.04    0.78
  -4  -1  -8    7.45    0.73
  -4   1  -8    8.73    0.88
   4  -1  -8    7.46    0.66
  -5  -1  -8   16.06    1.21
   5   1  -8   15.29    0.94
  -5   1   8   16.38    1.33
   5  -1   8   16.33    0.94
  -5  -1  -8   16.30    0.97
  -5  -1   8   16.07    1.33
  -5   1  -8   15.90    1.22
   5  -1  -8   15.10    0.97
   6  -1   8    4.65    0.65
   6   1  -8    5.14    0.66
  -6  -1  -8    4.02    0.73
  -6  -1  -8    4.84    0.89
  -6   1   8    3.27    0.90
  -6  -1   8    3.47    0.94
  -6   1  -8    4.46    0.87
   6  -1  -8    4.53    0.65
  -7  -1  -8    5.71    1.02
  -7   1   8    3.12    1.04
   7  -1   8    5.14    0.71
  -7  -1   8    1.55    1.02
  -7   1  -8    4.08    0.89
   0  -2  -8  147.50    3.23
   0   2  -8  148.46    3.37
   0  -2  -8  146.59    3.29
   0   2  -8  146.98    3.25
   0  -2   8  148.25    3.27
  -1  -2  -8   38.72    1.17
   1  -2   8   41.27    1.19
  -1   2   8   39.70    1.21
   1   2  -8   43.50    1.22
  -1  -2  -8   41.30    1.06
  -1  -2  -8   38.82    1.18
   1  -2  -8   42.03    1.19
  -1   2  -8   44.17    1.30
   1  -2  -8   42.29    1.04
  -1  -2   8   40.73    1.15
  -2  -2  -8    0.88    0.32
   2   2  -8    0.62    0.32
  -2   2   8    0.93    0.33
  -2   2   8    0.81    0.14
  -2  -2  -8    1.08    0.34
   2  -2   8    0.77    0.29
  -2  -2   8    1.31    0.37
   2   2   8    0.70    0.16
   2  -2  -8    0.84    0.31
  -2   2  -8    0.72    0.20
  -2  -2   8    0.73    0.30
  -2   2  -8    0.63    0.34
  -3   2   8    9.28    0.84
   3   2  -8    9.28    0.72
   3  -2   8    9.27    0.63
  -3  -2  -8    9.09    0.80
  -3  -2  -8    9.27    0.74
   3  -2  -8    9.33    0.74
  -3  -2   8    9.78    0.60
  -3  -2   8   10.27    0.88
  -3   2  -8    8.82    0.40
   4   2  -8   42.56    1.46
   4  -2   8   41.25    1.41
  -4   2   8   41.20    1.69
  -4  -2  -8   41.74    1.62
  -4  -2  -8   42.34    1.51
   4  -2  -8   41.90    1.45
  -4  -2   8   43.23    1.70
  -4  -2   8   40.89    1.17
   5   2  -8    4.80    0.60
  -5   2   8    5.05    0.84
  -5  -2  -8    4.11    0.77
   5  -2   8    5.09    0.61
  -5  -2  -8    4.33    0.68
   5  -2  -8    5.94    0.64
  -5   2  -8    5.66    0.82
  -5  -2   8    5.09    0.87
  -6  -2  -8   10.77    1.10
   6  -2   8    9.18    0.84
  -6   2   8    9.58    1.14
  -6  -2  -8   10.89    0.96
   6   2  -8    8.63    0.77
  -6  -2   8    9.62    1.20
  -6   2  -8   10.12    1.08
   6  -2  -8    9.14    0.80
  -7  -2  -8    0.69    0.65
  -7  -2  -8    1.06    0.79
   7  -2   8   -0.82    0.48
  -7   2   8   -1.30    0.84
  -7  -2   8   -0.79    0.89
  -7   2  -8    1.21    0.78
   0   3  -8    2.33    0.33
   0   3  -8    2.53    0.36
   0  -3  -8    2.66    0.31
   0  -3  -8    2.56    0.32
   0  -3   8    3.09    0.40
  -1   3   8   50.42    1.40
  -1  -3  -8   47.93    1.38
   1   3  -8   53.60    1.44
   1  -3   8   51.41    1.43
  -1  -3  -8   51.77    1.37
   1  -3  -8   51.76    1.25
  -1   3  -8   48.96    1.32
  -1   3  -8   49.48    1.47
  -1  -3   8   51.80    1.42
   1   3   8   52.59    1.30
   1  -3  -8   52.10    1.41
   2   3  -8   48.21    1.41
  -2   3   8   48.38    1.45
  -2  -3  -8   45.70    1.40
   2  -3   8   47.57    1.40
  -2  -3  -8   46.10    1.36
   2   3   8   48.02    1.16
  -2   3  -8   46.21    1.48
  -2  -3   8   46.57    1.35
  -2  -3   8   47.24    1.50
   3  -3   8    7.56    0.64
   3   3  -8    7.52    0.63
  -3   3   8    8.45    0.81
  -3  -3  -8    8.56    0.73
  -3   3  -8    7.80    0.74
  -3  -3   8    8.41    0.78
  -3  -3   8    7.78    0.58
   3  -3  -8    7.89    0.63
  -4  -3  -8   42.91    1.59
   4  -3   8   41.11    1.42
  -4   3   8   39.70    1.63
  -4  -3  -8   39.50    1.51
   4   3  -8   42.29    1.44
  -4  -3   8   40.54    1.25
   4  -3  -8   39.23    1.44
  -4  -3   8   39.78    1.70
  -4   3  -8   39.10    1.65
  -5  -3  -8    3.87    0.73
  -5   3   8    2.69    0.76
   5   3  -8    2.60    0.54
  -5  -3  -8    2.62    0.60
   5  -3   8    3.11    0.55
  -5   3  -8    2.53    0.65
   5  -3  -8    2.29    0.55
  -5  -3   8    2.35    0.79
  -6  -3  -8    4.83    0.86
   6   3  -8    3.99    0.61
   6  -3   8    4.63    0.69
  -6   3   8    3.25    0.91
  -6  -3  -8    3.37    0.70
  -6   3  -8    4.78    0.90
  -6  -3   8    4.11    0.99
   6  -3  -8    4.69    0.70
  -7  -3  -8    3.89    0.81
  -7   3   8    2.39    0.99
  -7  -3  -8    6.27    1.03
  -7   3  -8    2.96    0.90
  -7  -3   8    3.25    1.09
   0   4  -8   20.04    0.82
   0   4  -8   20.46    0.81
   0   4   8   19.48    0.75
   0  -4   8   20.94    0.88
   0  -4  -8   20.53    0.75
  -1   4   8    2.62    0.33
  -1  -4  -8    1.43    0.37
   1  -4   8    1.86    0.37
   1   4  -8    2.13    0.37
  -1   4  -8    1.01    0.32
  -1   4  -8    1.70    0.31
   1  -4  -8    1.59    0.34
   1   4   8    1.94    0.29
  -1  -4   8    1.08    0.38
   1  -4  -8    0.98    0.23
   2  -4   8   14.54    0.78
  -2  -4  -8   14.99    0.86
  -2   4   8   15.59    0.79
  -2  -4  -8   14.72    0.71
   2   4  -8   15.34    0.84
  -2  -4   8   13.26    0.81
   2  -4  -8   14.60    0.49
  -2   4  -8   14.40    0.66
  -2   4  -8   14.13    0.82
  -2  -4   8   14.22    0.81
   2   4   8   14.44    0.60
   3  -4   8   17.82    0.90
  -3  -4  -8   17.62    0.95
   3   4  -8   18.13    0.96
  -3   4   8   18.16    1.02
  -3  -4   8   20.09    1.12
  -3  -4   8   19.01    0.94
   3  -4  -8   20.30    1.01
  -3   4  -8   19.37    1.06
  -3   4  -8   19.69    0.76
   3   4   8   18.81    0.68
   4  -4   8   32.05    1.29
  -4  -4  -8   32.49    1.37
  -4  -4  -8   36.29    1.46
   4   4  -8   32.94    1.30
  -4   4   8   33.89    1.54
  -4  -4   8   34.14    1.55
  -4  -4   8   33.70    1.21
   4  -4  -8   34.08    1.36
  -4   4  -8   32.46    1.47
  -5  -4  -8    7.21    0.80
  -5   4   8    5.33    0.86
   5   4  -8    5.61    0.66
   5  -4   8    5.63    0.66
  -5  -4  -8    5.85    0.80
  -5  -4   8    5.62    0.90
  -5   4  -8    8.01    0.91
   6   4  -8    3.10    0.60
  -6  -4  -8    4.62    0.82
  -6   4   8    3.57    0.92
  -6   4   8    4.35    0.61
   6  -4   8    3.69    0.63
  -6  -4  -8    4.45    0.74
  -6  -4   8    1.42    0.90
  -6   4  -8    3.70    0.83
  -7   4   8    0.62    0.87
  -7  -4  -8    1.05    0.78
  -7  -4  -8    0.95    0.70
  -7  -4   8    0.22    0.98
  -7   4  -8    1.53    0.78
   0   5   8   41.09    1.22
   0  -5  -8   39.74    1.19
   0   5  -8   39.64    1.28
   0  -5   8   40.20    1.33
   0   5   8   38.54    1.08
   0   5  -8   39.27    1.26
  -1  -5  -8    2.29    0.45
   1   5  -8    2.76    0.42
  -1   5   8    3.31    0.43
  -1   5   8    3.47    0.38
  -1   5  -8    2.26    0.39
  -1  -5   8    3.26    0.54
   1   5   8    2.67    0.36
  -1   5  -8    3.77    0.47
   1  -5  -8    3.63    0.37
  -2  -5  -8   12.33    0.66
  -2   5   8   14.43    0.78
   2   5  -8   14.72    0.88
   2  -5   8   13.00    0.81
  -2  -5  -8   13.23    0.85
   2   5   8   12.85    0.67
  -2   5  -8   13.40    0.74
  -2  -5   8   12.69    0.83
   2  -5  -8   13.48    0.53
  -2  -5   8   12.60    0.88
  -2   5  -8   13.36    0.84
   3   5  -8    5.59    0.63
   3  -5   8    6.79    0.69
  -3  -5  -8    7.30    0.64
  -3   5   8    7.09    0.67
  -3   5   8    6.98    0.70
   3   5   8    7.33    0.61
  -3  -5   8    7.28    0.71
  -3  -5   8    5.70    0.73
  -3   5  -8    7.80    0.77
  -3   5  -8    5.99    0.54
   4   5  -8    1.97    0.51
  -4  -5  -8    2.73    0.60
  -4   5   8    3.50    0.56
   4  -5   8    2.78    0.55
  -4   5   8    3.38    0.69
  -4  -5  -8    3.76    0.61
  -4  -5   8    3.05    0.70
  -4  -5   8    2.88    0.52
  -4   5  -8    2.95    0.67
  -5  -5  -8    3.31    0.66
   5   5  -8    3.71    0.62
  -5  -5  -8    2.83    0.65
   5  -5   8    3.61    0.62
  -5   5   8    2.34    0.54
  -5   5   8    2.01    0.71
  -5   5  -8    2.89    0.72
  -5  -5   8    2.13    0.80
  -6  -5  -8   10.22    0.99
  -6   5   8    8.32    1.12
  -6  -5  -8   10.06    1.01
   6   5  -8    9.12    0.82
   6  -5   8   10.18    0.88
  -6   5   8    9.96    0.88
  -6   5  -8   10.30    1.11
  -6  -5   8    7.74    1.13
  -7  -5  -8    0.31    0.73
  -7   5   8    1.72    0.82
  -7  -5  -8    2.29    0.80
  -7   5   8    0.53    0.89
  -7   5  -8    2.54    0.84
  -7  -5   8    0.62    1.02
   0   6   8   25.87    0.80
   0  -6   8   26.07    1.21
   0   6  -8   26.62    1.02
   0   6  -8   27.08    1.09
   0  -6  -8   25.05    1.00
   0   6   8   27.39    1.02
  -1   6   8    5.93    0.49
  -1  -6  -8    5.99    0.60
  -1  -6  -8    6.42    0.44
  -1   6   8    5.70    0.57
  -1   6  -8    6.63    0.61
   1   6   8    5.44    0.52
   1  -6  -8    6.77    0.51
  -1   6  -8    5.59    0.56
  -1  -6   8    6.86    0.64
  -1  -6   8    5.85    0.71
   2  -6   8   11.58    0.94
   2   6  -8   12.00    0.88
  -2  -6  -8   14.71    0.92
  -2  -6  -8   13.37    0.60
  -2   6   8   13.79    0.80
   2   6   8   12.67    0.76
  -2   6  -8   12.46    0.80
  -2  -6   8   13.44    0.90
  -2  -6   8   12.46    0.97
  -2   6  -8   13.24    0.84
   3  -6   8    2.30    0.60
   3   6  -8    2.48    0.57
  -3  -6  -8    2.65    0.62
  -3  -6  -8    1.98    0.44
  -3   6   8    1.95    0.51
  -3   6   8    1.99    0.58
  -3  -6   8    2.10    0.63
   3   6   8    1.84    0.46
  -3   6  -8    1.56    0.46
  -3   6  -8    1.22    0.52
  -3  -6   8    2.53    0.65
  -4  -6  -8    0.88    0.55
   4  -6   8    0.62    0.48
  -4  -6  -8    1.41    0.46
  -4   6   8    0.86    0.45
  -4   6   8    0.01    0.54
   4   6  -8   -0.07    0.42
  -4   6  -8    0.63    0.51
  -4  -6   8    0.09    0.58
  -4  -6   8    0.92    0.50
  -5  -6  -8    7.06    0.81
  -5   6   8    6.59    0.77
  -5  -6  -8    6.55    0.83
  -5   6   8    4.94    0.88
   5  -6   8    6.55    0.79
   5   6  -8    8.20    0.76
  -5  -6   8    6.62    0.98
  -5  -6   8    7.45    1.08
  -5   6  -8    7.05    0.91
   6  -6   8   -0.01    0.55
  -6   6   8    1.24    0.59
  -6  -6  -8    1.64    0.71
  -6   6   8    0.80    0.75
   6   6  -8    0.75    0.51
  -6   6  -8    1.00    0.67
  -6  -6   8   -0.30    0.85
  -7  -6  -8    2.70    0.83
  -7   6   8    2.92    0.97
  -7   6   8    3.48    0.80
  -7   6  -8    3.05    0.90
  -7  -6   8    3.73    1.18
   0  -7  -8   23.78    1.02
   0  -7   8   19.19    1.15
   0   7  -8   23.94    0.98
   0   7  -8   23.74    1.09
   0   7   8   22.07    0.71
   0   7   8   22.22    1.02
  -1   7   8   28.63    1.15
  -1  -7  -8   25.56    1.16
  -1   7   8   27.66    0.93
   1  -7  -8   26.67    1.00
  -1  -7   8   28.26    1.12
  -1  -7   8   26.53    1.33
   1   7   8   27.13    1.10
  -1   7  -8   25.91    1.07
  -1   7  -8   25.24    1.14
  -2  -7  -8    3.39    0.62
  -2   7   8    2.73    0.52
  -2   7   8    3.82    0.53
   2  -7   8    3.65    0.67
   2   7  -8    3.31    0.59
  -2  -7   8    3.14    0.68
   2   7   8    3.41    0.55
  -2   7  -8    3.98    0.57
  -2   7  -8    3.39    0.57
  -2  -7   8    3.02    0.55
   2  -7  -8    3.66    0.43
  -3   7   8   30.21    1.29
  -3   7   8   29.12    1.28
   3   7  -8   26.29    1.24
   3  -7   8   31.13    1.39
  -3  -7  -8   28.91    1.33
   3   7   8   29.45    1.24
  -3   7  -8   28.67    1.28
  -3  -7   8   29.91    1.37
  -3   7  -8   29.98    1.20
  -3  -7   8   30.92    1.35
   4   7  -8    1.71    0.53
  -4  -7  -8    2.14    0.64
  -4   7   8    2.10    0.57
   4  -7   8    2.19    0.61
  -4   7   8    1.80    0.63
  -4   7  -8    2.46    0.63
  -4   7  -8    2.42    0.61
  -4  -7   8    1.32    0.67
  -4  -7   8    1.55    0.57
   5  -7   8   20.20    1.23
  -5   7   8   22.02    1.43
  -5  -7  -8   19.61    1.31
   5   7  -8   21.42    1.18
  -5   7   8   21.07    1.26
  -5   7  -8   22.15    1.35
  -5  -7   8   18.33    1.51
  -5  -7   8   22.18    1.17
   6  -7   8    1.29    0.81
  -6   7   8    1.25    0.61
  -6  -7  -8    2.24    0.75
  -6   7   8    1.43    0.81
   6   7  -8    1.32    0.59
  -6  -7   8    3.06    1.05
  -6   7  -8    1.58    0.70
   0  -8   8   -0.25    0.63
   0  -8  -8    0.00    0.47
   0   8   8    0.94    0.49
   0   8  -8    0.82    0.37
   0   8  -8    0.06    0.49
  -1   8   8    3.28    0.58
   1  -8   8    2.32    0.70
  -1  -8  -8    2.99    0.60
   1   8  -8    2.15    0.57
   1   8   8    2.62    0.55
  -1  -8   8    2.59    0.72
  -1  -8   8    2.93    0.49
   1  -8  -8    3.90    0.53
  -1   8  -8    2.62    0.58
  -1   8  -8    3.15    0.51
   2  -8   8   10.58    0.96
  -2  -8  -8   11.57    0.99
   2   8  -8    9.40    0.81
  -2   8   8    9.36    0.82
  -2   8  -8   10.74    0.83
   2   8   8    9.20    0.76
  -2  -8   8    9.74    0.84
  -2  -8   8    9.33    0.91
  -2   8  -8    9.84    0.78
   3  -8   8   42.75    1.67
  -3  -8  -8   41.34    1.67
  -3   8   8   42.73    1.67
  -3   8   8   42.49    1.61
   3   8  -8   41.86    1.59
  -3  -8   8   40.61    1.62
  -3   8  -8   41.95    1.52
  -3   8  -8   43.40    1.58
  -3  -8   8   42.14    1.65
   4   8  -8    1.19    0.56
  -4  -8  -8    0.68    0.60
  -4   8   8    1.01    0.58
   4  -8   8    1.41    0.64
  -4   8   8    0.89    0.56
  -4   8  -8    1.49    0.57
  -4  -8   8    1.07    0.58
  -4   8  -8    1.92    0.52
  -4  -8   8    0.95    0.70
  -5   8   8    6.40    0.85
  -5  -8  -8    4.30    0.79
   5   8  -8    4.61    0.69
   5  -8   8    5.50    0.83
  -5   8   8    4.03    0.83
  -5  -8   8    6.62    0.78
  -5  -8   8    3.67    0.91
  -5   8  -8    4.28    0.79
  -6   8   8    0.01    0.79
  -6   8   8    0.87    0.69
  -6  -8  -8    1.07    0.75
  -6   8  -8    2.34    0.78
  -6  -8   8    0.33    0.96
   0  -9   8   -0.26    0.61
   0   9  -8    0.97    0.53
   0  -9  -8    0.61    0.48
   0   9   8    0.01    0.47
   0   9  -8    0.57    0.33
  -1   9   8   31.39    1.38
  -1  -9  -8   31.01    1.34
   1  -9   8   27.86    1.47
   1   9  -8   29.18    1.33
  -1   9  -8   30.53    1.18
   1   9   8   28.45    1.30
  -1  -9   8   30.37    1.48
  -1  -9   8   30.91    1.20
  -1   9  -8   29.12    1.36
   1  -9  -8   30.14    1.16
  -2   9   8    8.78    0.85
   2  -9   8    7.51    0.88
  -2  -9  -8    8.08    0.82
   2   9  -8    7.23    0.75
  -2  -9   8    7.78    0.88
   2   9   8    8.60    0.77
  -2   9  -8    9.00    0.83
  -2   9  -8    8.89    0.77
  -2  -9   8    7.79    0.75
  -3   9   8    1.58    0.60
  -3  -9  -8    4.43    0.75
   3  -9   8    1.58    0.72
   3   9  -8    2.01    0.57
  -3   9  -8    1.59    0.56
  -3  -9   8    2.22    0.67
  -3  -9   8    1.50    0.60
  -3   9  -8    2.35    0.53
   4  -9   8    1.20    0.70
  -4  -9  -8    1.31    0.67
   4   9  -8    2.61    0.66
  -4   9   8    3.11    0.71
  -4  -9   8    2.71    0.71
  -4   9  -8    2.06    0.61
  -4   9  -8    2.51    0.58
  -5  -9  -8    3.46    0.82
  -5   9   8    3.37    0.77
   5   9  -8    3.63    0.66
   5  -9   8    3.63    0.82
  -5   9  -8    5.01    0.81
  -5  -9   8    4.01    0.75
  -6   9   8    0.75    0.75
  -6  -9  -8    3.03    0.84
  -6   9  -8    2.76    0.81
   0 -10   8   15.48    1.28
   0 -10  -8   15.04    1.06
   0  10  -8   15.15    1.12
   0  10   8   14.90    1.12
  -1  10   8    6.71    0.78
   1 -10   8    5.12    0.84
  -1 -10  -8    5.52    0.73
   1  10  -8    6.84    0.78
  -1  10  -8    7.11    0.64
  -1  10  -8    6.84    0.79
   1  10   8    6.54    0.80
   1 -10  -8    6.54    0.67
  -1 -10   8    5.57    0.86
  -2 -10  -8   10.01    0.96
  -2  10   8    9.78    0.97
   2 -10   8    9.69    1.01
   2  10  -8   12.07    0.97
  -2  10  -8   10.00    0.91
  -2 -10   8   10.39    1.02
  -2  10  -8   10.50    0.82
   2  10   8   10.35    0.90
   3  10  -8    1.27    0.56
  -3  10   8    0.73    0.63
  -3 -10  -8    1.45    0.66
   3 -10   8    0.12    0.68
  -3  10  -8    1.52    0.61
  -3  10  -8    1.71    0.49
  -3 -10   8    1.89    0.71
   4  10  -8    6.03    0.77
  -4 -10  -8    5.47    0.86
   4 -10   8    5.16    0.91
  -4  10   8    5.89    0.89
  -4  10  -8    6.19    0.79
  -4  10  -8    5.74    0.77
  -4 -10   8    5.43    0.84
  -5 -10  -8    0.63    0.71
   5  10  -8    2.39    0.65
   5 -10   8    0.22    0.77
  -5  10   8    0.59    0.73
  -5 -10   8    2.36    0.78
  -5  10  -8    1.33    0.64
   0  11  -8    0.66    0.57
   0 -11  -8    0.94    0.56
   0  11   8   -0.01    0.57
   0 -11   8   -0.14    0.66
  -1  11   8    6.38    0.85
  -1 -11  -8    7.22    0.86
   1 -11   8    6.28    0.94
   1  11  -8    5.97    0.80
   1 -11  -8    7.30    0.74
   1  11   8    6.05    0.85
  -1 -11   8    6.82    0.96
  -1  11  -8    7.42    0.86
  -2 -11  -8    5.00    0.82
   2 -11   8    5.40    0.92
   2  11  -8    5.25    0.77
  -2  11   8    5.47    0.84
   2  11   8    5.35    0.81
  -2 -11   8    5.14    0.89
  -2  11  -8    5.25    0.79
   3 -11   8    2.75    0.84
  -3  11   8    3.42    0.80
  -3 -11  -8    4.35    0.81
   3  11  -8    3.68    0.70
  -3 -11   8    2.60    0.79
  -3  11  -8    3.11    0.72
   4  11  -8    1.36    0.61
   4 -11   8    1.01    0.77
  -4  11   8    0.96    0.76
  -4 -11  -8    1.58    0.75
  -4  11  -8    0.87    0.63
  -4 -11   8    2.29    0.78
   0 -12  -8   33.58    1.52
   0 -12   8   33.04    1.70
   0  12   8   34.69    1.69
   0  12  -8   34.29    1.66
  -1 -12  -8    2.51    0.70
   1  12  -8    2.26    0.68
   1 -12   8    1.39    0.79
  -1  12   8    1.70    0.73
   1 -12  -8    2.99    0.62
  -1  12  -8    2.11    0.71
  -1 -12   8    3.34    0.84
   1  12   8    1.98    0.73
  -2  12   8    1.71    0.77
  -2 -12  -8    1.83    0.69
   2  12  -8    2.32    0.70
   2 -12   8    2.75    0.84
  -2  12  -8    1.79    0.69
  -2 -12   8    3.64    0.86
   2  12   8    2.03    0.74
  -3  12   8    5.09    0.96
  -3 -12  -8    7.13    0.98
   3 -12   8    4.71    0.98
   3  12  -8    4.89    0.79
  -3  12  -8    5.13    0.83
  -3 -12   8    6.28    0.99
  -4 -12  -8    6.48    1.04
   4  12  -8    7.37    0.92
  -4  12   8    4.74    1.04
   4 -12   8    6.25    1.10
  -4  12  -8    7.33    0.95
  -4 -12   8    5.53    0.96
   0 -13  -8    0.17    0.60
   0 -13   8    1.59    0.83
   0  13   8   -0.15    0.73
   0  13  -8    0.82    0.68
  -1 -13  -8    0.61    0.65
   1  13  -8    1.00    0.66
   1 -13   8    1.04    0.80
  -1  13   8    0.32    0.74
   1  13   8    0.24    0.74
  -1 -13   8    0.36    0.77
  -1  13  -8    0.99    0.66
  -2 -13  -8    3.69    0.84
  -2  13   8    1.71    0.85
   2  13  -8    2.53    0.75
   2 -13   8    1.53    0.88
   2  13   8    2.25    0.83
  -2  13  -8    4.02    0.85
  -2 -13   8    2.22    0.86
   3  13  -8   13.35    1.16
  -3  13   8   13.93    1.37
  -3 -13  -8   12.07    1.22
   3 -13   8   11.70    1.29
  -3 -13   8   12.34    1.27
  -3  13  -8   12.35    1.18
   0  14  -8    0.24    0.72
   0  14   8   -0.82    0.76
   0 -14   8    0.79    0.82
   0 -14  -8    0.74    0.70
   1 -14   8    2.62    0.94
  -1 -14  -8    5.70    0.94
   1  14  -8    4.92    0.92
  -1  14   8    2.38    0.96
  -1 -14   8    4.73    1.01
  -1  14  -8    2.85    0.82
   1  14   8    2.88    0.95
   0   0   9    0.05    0.20
   0   0  -9   -0.27    0.22
   0   0  -9    0.03    0.22
  -1   0   9   20.17    0.84
   1   0   9   19.97    0.77
   1   0  -9   20.51    0.79
  -1   0  -9   20.12    0.82
  -1   0   9   20.83    0.67
  -2   0   9   42.24    1.07
  -2   0   9   43.10    1.40
  -2   0  -9   40.97    1.35
  -2   0  -9   43.33    1.04
  -3   0  -9   25.02    1.07
  -3   0  -9   22.95    1.15
  -3   0   9   26.05    1.23
  -3   0   9   24.44    0.70
   3   0  -9   23.87    1.03
  -4   0   9   18.41    1.25
  -4   0  -9   16.59    1.15
   4   0  -9   17.69    0.98
  -5   0  -9    1.07    0.58
   5   0  -9    0.60    0.45
  -5   0   9    0.78    0.67
   6   0  -9    9.44    0.83
   6   0   9    8.82    0.81
  -6   0   9    8.98    1.15
  -6   0  -9    9.17    1.05
   7   0  -9    0.16    0.62
  -7   0  -9    1.39    0.77
   7   0   9    1.30    0.54
  -7   0   9    0.99    0.93
   0  -1   9    6.48    0.46
   0  -1  -9    5.40    0.48
   0   1  -9    6.13    0.45
   0   1  -9    3.83    0.36
   0  -1  -9    5.97    0.45
  -1   1   9    9.97    0.60
   1  -1   9   10.36    0.57
  -1  -1  -9    9.38    0.58
   1   1  -9   10.54    0.60
  -1   1   9    9.96    0.46
  -1  -1  -9   10.87    0.59
   1  -1  -9   10.09    0.58
  -1   1  -9   10.39    0.62
  -1  -1   9    9.79    0.51
  -2  -1  -9   61.94    1.77
   2   1  -9   60.61    1.70
  -2   1   9   65.05    1.84
  -2  -1  -9   63.35    1.45
  -2  -1  -9   62.99    1.73
  -2   1   9   63.84    1.45
  -2   1  -9   66.76    1.49
  -2   1  -9   64.84    1.82
  -2  -1   9   64.46    1.56
  -3  -1  -9   76.02    2.08
  -3  -1  -9   74.44    2.17
   3  -1   9   73.27    2.03
   3   1  -9   77.52    2.06
  -3   1   9   75.53    2.22
  -3   1  -9   76.33    1.66
   3  -1  -9   76.52    2.05
  -3   1  -9   76.86    2.20
  -3  -1   9   76.62    1.77
  -4  -1  -9   23.70    1.17
  -4  -1  -9   22.45    1.28
   4   1  -9   23.85    1.11
  -4   1   9   23.75    1.34
   4  -1   9   22.93    1.06
  -4   1  -9   25.24    1.32
   4  -1  -9   22.17    1.11
  -4  -1   9   22.31    1.36
  -5  -1  -9    0.95    0.59
   5   1  -9    1.83    0.49
   5  -1   9    2.25    0.49
  -5  -1  -9    1.39    0.53
  -5   1   9    1.13    0.69
  -5  -1   9    1.99    0.71
   5  -1  -9    1.67    0.52
  -5   1  -9    0.86    0.59
  -6   1   9    3.87    0.92
  -6  -1  -9    3.64    0.81
   6  -1   9    2.93    0.60
  -6  -1  -9    3.82    0.73
   6   1  -9    2.95    0.58
   6  -1  -9    4.00    0.65
  -6  -1   9    3.43    0.93
  -6   1  -9    3.78    0.81
  -7  -1  -9   11.87    1.28
   7  -1   9   13.15    1.05
  -7   1   9    9.56    1.37
   7   1   9   13.03    1.00
   7  -1  -9   12.86    1.09
  -7   1  -9   11.67    1.27
  -7  -1   9    8.64    1.27
   0   2  -9  162.74    3.69
   0  -2  -9  158.56    3.50
   0   2  -9  157.55    3.54
   0  -2   9  164.47    3.58
   0  -2  -9  161.76    3.53
   0  -2  -9  159.02    3.60
  -1  -2  -9   75.49    1.94
   1  -2   9   78.92    1.95
  -1   2   9   77.76    2.00
   1   2  -9   76.77    1.94
  -1  -2  -9   74.99    1.95
   1  -2  -9   77.80    1.94
  -1   2  -9   78.13    1.84
  -1   2  -9   77.68    2.04
  -1  -2   9   76.96    1.90
   2   2  -9   31.67    1.09
  -2   2   9   31.52    1.16
  -2  -2  -9   29.70    1.08
  -2   2   9   29.06    0.75
  -2  -2  -9   30.65    1.09
  -2  -2   9   30.73    1.18
  -2  -2   9   29.63    0.97
  -2   2  -9   27.77    1.11
   3   2  -9   27.00    1.10
   3  -2   9   23.56    1.04
  -3   2   9   24.23    1.18
  -3  -2  -9   24.75    1.15
  -3  -2   9   24.61    1.19
  -3  -2   9   26.95    0.91
   3  -2  -9   26.93    1.10
  -3   2  -9   25.80    0.73
   4  -2   9   14.24    0.89
   4   2  -9   14.50    0.97
  -4  -2  -9   13.75    1.07
  -4  -2  -9   15.63    1.03
  -4   2   9   15.79    1.20
   4  -2  -9   14.54    1.00
  -4   2  -9   15.64    1.15
  -4  -2   9   15.03    1.23
   5  -2   9   11.82    0.89
  -5  -2  -9   12.34    0.95
  -5   2   9   12.16    1.13
  -5  -2  -9   11.94    1.11
   5   2  -9   11.69    0.94
   5  -2  -9   12.03    0.95
  -5  -2   9   10.76    1.09
  -5   2  -9   13.11    1.11
  -6  -2  -9    4.07    0.84
   6   2  -9    4.63    0.65
   6  -2   9    5.47    0.72
  -6   2   9    3.65    0.91
  -6  -2  -9    4.25    0.73
  -6   2  -9    5.89    0.91
  -6  -2   9    2.85    0.97
   6  -2  -9    3.80    0.66
   7  -2   9    6.98    0.85
  -7  -2  -9    9.89    1.17
  -7   2   9    6.74    1.21
  -7  -2  -9    6.91    0.94
   7  -2  -9    4.94    0.79
  -7   2  -9    6.84    1.05
  -7  -2   9    4.79    1.15
   0   3  -9    8.69    0.57
   0   3  -9    9.13    0.61
   0  -3  -9    8.41    0.51
   0  -3  -9    7.92    0.52
   0  -3  -9    8.67    0.51
   0  -3   9    9.08    0.60
  -1  -3  -9   32.49    1.08
  -1   3   9   32.75    1.07
  -1  -3  -9   32.10    1.04
   1   3  -9   32.36    1.09
   1  -3   9   31.86    1.07
   1  -3  -9   33.45    1.07
   1  -3  -9   27.76    0.88
  -1  -3   9   32.95    1.07
  -1   3  -9   32.46    0.98
  -1   3  -9   33.70    1.14
  -2   3   9   29.65    1.11
  -2   3   9   29.45    0.75
   2  -3   9   29.99    1.07
  -2  -3  -9   28.46    1.10
  -2  -3  -9   28.99    1.05
   2   3  -9   30.77    1.11
  -2  -3   9   29.02    1.16
  -2  -3   9   30.62    1.07
  -2   3  -9   29.65    0.90
   2   3   9   29.19    0.84
  -2   3  -9   30.29    1.18
   3  -3   9   11.69    0.82
  -3   3   9   13.84    0.94
   3   3  -9   13.57    0.87
  -3  -3  -9   13.86    0.92
  -3  -3   9   12.41    0.74
   3  -3  -9   13.59    0.86
  -3  -3   9   13.77    0.99
  -3   3  -9   12.03    0.91
   4  -3   9    4.76    0.61
  -4  -3  -9    4.76    0.70
  -4  -3  -9    4.00    0.66
  -4   3   9    5.28    0.77
   4   3  -9    4.46    0.62
  -4   3  -9    4.67    0.75
   4  -3  -9    4.31    0.62
  -4  -3   9    4.82    0.81
  -4  -3   9    4.71    0.51
  -5  -3  -9   13.72    1.13
  -5  -3  -9   15.33    1.05
  -5   3   9   14.69    1.24
   5   3  -9   13.61    0.97
   5  -3   9   15.07    0.97
   5  -3  -9   13.99    1.01
  -5  -3   9   11.36    1.14
  -5   3  -9   13.86    1.19
  -6  -3  -9    1.44    0.65
  -6   3   9   -0.23    0.71
  -6  -3  -9    1.68    0.69
   6  -3   9    0.89    0.54
   6   3  -9    1.01    0.51
   6  -3  -9    0.59    0.56
  -6  -3   9   -0.52    0.79
  -6   3  -9    0.35    0.64
  -7  -3  -9    3.89    0.94
  -7  -3  -9    4.86    0.84
   7  -3   9    3.85    0.81
  -7   3   9    4.82    1.08
  -7  -3   9    4.48    1.15
  -7   3  -9    6.20    1.02
   0   4  -9    1.65    0.37
   0   4  -9    1.79    0.36
   0  -4   9    1.75    0.39
   0  -4  -9    1.29    0.33
   0  -4  -9    1.72    0.30
  -1  -4  -9   20.02    0.87
   1   4  -9   19.55    0.90
   1  -4   9   21.22    0.92
  -1   4   9   19.92    0.81
  -1  -4  -9   20.40    0.79
  -1  -4   9   21.91    0.97
  -1   4  -9   20.84    0.90
   1  -4  -9   21.75    0.90
   1   4   9   20.70    0.76
  -1   4  -9   20.04    0.80
   2   4  -9   27.27    1.14
  -2   4   9   31.99    1.18
  -2  -4  -9   30.86    1.17
   2  -4   9   30.26    1.09
  -2  -4  -9   31.32    1.06
   2  -4  -9   31.44    0.81
  -2  -4   9   31.64    1.16
  -2  -4   9   31.21    1.23
  -2   4  -9   28.62    0.98
  -2   4  -9   30.44    1.20
   2   4   9   30.77    0.93
  -3  -4  -9   46.48    1.51
   3  -4   9   45.93    1.51
  -3   4   9   47.64    1.65
   3   4  -9   43.96    1.51
  -3  -4   9   46.50    1.69
  -3   4  -9   45.34    1.62
   3  -4  -9   45.23    1.54
  -3   4  -9   46.93    1.27
  -3  -4   9   48.56    1.48
   4  -4   9    0.43    0.43
   4   4  -9    0.13    0.44
  -4   4   9   -0.42    0.49
  -4  -4  -9   -0.09    0.50
  -4  -4  -9   -0.17    0.46
  -4  -4   9    0.05    0.61
  -4   4  -9    0.24    0.48
   4  -4  -9    0.48    0.47
  -4  -4   9   -0.05    0.40
  -5  -4  -9    0.93    0.58
   5  -4   9   -0.11    0.44
  -5   4   9    0.32    0.68
  -5  -4  -9   -1.12    0.52
   5   4  -9    1.37    0.50
  -5   4  -9    1.19    0.60
   5  -4  -9    0.41    0.50
  -5  -4   9   -0.34    0.69
   6   4  -9    1.93    0.55
  -6   4   9    2.18    0.51
  -6   4   9    0.65    0.77
  -6  -4  -9    1.30    0.65
   6  -4   9    0.32    0.51
  -6  -4  -9    1.91    0.68
  -6  -4   9    0.08    0.85
  -6   4  -9    1.73    0.71
  -7   4   9    5.08    0.73
  -7   4   9    3.38    1.04
  -7  -4  -9    5.00    0.95
  -7  -4  -9    5.01    0.88
  -7   4  -9    4.77    1.01
  -7  -4   9    4.81    1.20
   0  -5  -9   18.78    0.81
   0  -5   9   19.45    0.99
   0   5   9   18.82    0.81
   0   5  -9   19.32    0.90
   0   5  -9   18.84    0.89
   0   5   9   18.71    0.71
  -1   5   9    3.08    0.45
   1  -5   9    2.48    0.42
  -1   5   9    4.14    0.44
   1   5  -9    4.50    0.51
  -1  -5  -9    3.80    0.36
  -1  -5  -9    3.84    0.51
  -1   5  -9    4.14    0.52
  -1  -5   9    2.42    0.54
  -1   5  -9    3.06    0.45
   1  -5  -9    3.91    0.39
   1   5   9    3.23    0.40
  -2  -5  -9  111.29    2.65
  -2   5   9  113.44    2.79
  -2  -5  -9  114.60    2.85
   2  -5   9  113.25    2.84
  -2  -5   9  116.94    2.84
   2  -5  -9  111.43    2.46
  -2   5  -9  106.69    2.65
  -2   5  -9  110.88    2.88
   2   5   9  114.93    2.61
  -2  -5   9  112.06    2.91
  -3  -5  -9   39.22    1.45
  -3  -5  -9   39.23    1.37
   3  -5   9   36.63    1.44
   3   5  -9   40.63    1.44
  -3   5   9   40.08    1.51
  -3  -5   9   38.32    1.56
  -3   5  -9   38.38    1.23
  -3   5  -9   39.14    1.50
  -3  -5   9   41.67    1.41
  -4  -5  -9   12.47    0.95
   4   5  -9   11.64    0.90
   4  -5   9   12.19    0.88
  -4   5   9   12.85    0.91
  -4  -5  -9   11.45    0.90
  -4   5   9   12.03    1.03
  -4  -5   9   13.15    1.16
  -4  -5   9   12.09    0.85
  -4   5  -9   11.63    1.03
  -5  -5  -9    2.65    0.69
  -5   5   9    3.36    0.60
   5   5  -9    2.58    0.58
   5  -5   9    2.92    0.62
  -5  -5  -9    3.61    0.68
  -5   5   9    2.33    0.77
  -5  -5   9    3.38    0.88
  -5   5  -9    2.24    0.71
  -6   5   9    1.20    0.78
  -6   5   9    0.25    0.48
  -6  -5  -9    0.36    0.62
   6  -5   9    0.10    0.52
  -6  -5  -9    1.34    0.66
   6   5  -9   -0.02    0.48
  -6  -5   9   -0.24    0.84
  -6   5  -9    1.00    0.67
  -7   5   9   -0.41    0.86
  -7   5   9    0.60    0.59
  -7  -5  -9    1.71    0.79
  -7  -5  -9    0.28    0.76
  -7  -5   9   -0.94    0.95
  -7   5  -9    1.20    0.83
   0   6  -9   27.31    1.12
   0   6   9   27.10    1.05
   0   6  -9   27.33    1.09
   0   6   9   25.69    0.86
   0  -6  -9   25.94    1.04
   0  -6   9   27.50    1.26
  -1   6   9    3.12    0.41
  -1  -6  -9    4.00    0.57
  -1   6   9    2.68    0.49
  -1   6  -9    2.81    0.48
  -1   6  -9    3.51    0.52
  -1  -6   9    3.78    0.66
   1  -6  -9    3.88    0.44
   1   6   9    3.25    0.47
  -2  -6  -9    2.83    0.59
  -2   6   9    2.77    0.50
  -2  -6  -9    2.47    0.37
   2   6  -9    2.95    0.55
   2  -6   9    2.04    0.57
  -2   6   9    2.25    0.48
  -2   6  -9    3.08    0.54
  -2  -6   9    2.67    0.55
  -2  -6   9    4.18    0.68
  -2   6  -9    2.14    0.46
   2   6   9    2.86    0.45
   3   6  -9   17.52    1.06
  -3   6   9   18.47    1.05
  -3   6   9   19.40    1.07
  -3  -6  -9   17.90    0.87
  -3  -6  -9   19.63    1.09
   3  -6   9   18.37    1.11
  -3   6  -9   17.96    0.89
  -3   6  -9   19.87    1.10
  -3  -6   9   18.50    1.09
  -3  -6   9   20.01    1.17
   4   6  -9   11.44    0.92
  -4   6   9   11.58    1.10
   4  -6   9   11.14    0.93
  -4  -6  -9   10.73    0.94
  -4  -6  -9   11.69    0.87
  -4   6   9   10.99    0.92
  -4  -6   9   10.73    1.03
  -4   6  -9   11.05    1.01
  -4  -6   9   12.56    0.89
  -5   6   9    3.98    0.67
   5  -6   9    4.23    0.71
  -5   6   9    4.06    0.85
  -5  -6  -9    4.40    0.77
   5   6  -9    4.85    0.68
  -5   6  -9    4.34    0.76
  -5  -6   9    3.53    0.89
   6  -6   9    8.82    0.93
  -6   6   9    7.52    1.10
  -6   6   9   10.81    1.00
   6   6  -9   10.90    0.92
  -6  -6  -9   10.41    1.03
  -6  -6   9    7.71    1.23
  -6   6  -9    9.29    1.11
   0   7   9    3.84    0.40
   0  -7  -9    3.85    0.54
   0   7  -9    4.08    0.58
   0   7  -9    3.64    0.53
   0   7   9    4.01    0.55
   0  -7   9    3.60    0.70
   1   7  -9    9.06    0.75
  -1   7   9   11.26    0.83
  -1  -7  -9    9.91    0.85
  -1   7   9   10.85    0.65
  -1   7  -9   11.17    0.80
  -1  -7   9   10.84    0.81
   1  -7  -9   11.00    0.72
   1   7   9   10.78    0.81
  -1  -7   9   10.19    0.92
  -1   7  -9   11.26    0.85
   2  -7   9   11.54    1.00
   2   7  -9   10.95    0.93
  -2   7   9   11.78    0.90
  -2  -7  -9   10.15    0.86
  -2   7   9    9.87    0.77
  -2  -7   9   10.68    0.91
   2   7   9   11.46    0.82
  -2   7  -9   10.07    0.85
  -2   7  -9   10.26    0.81
  -2  -7   9    8.90    0.88
  -3   7   9   -0.02    0.43
   3   7  -9   -0.05    0.48
   3  -7   9    0.14    0.52
  -3  -7  -9    0.05    0.49
  -3   7   9    0.08    0.46
  -3  -7   9    0.54    0.56
  -3   7  -9    0.42    0.42
  -3   7  -9    0.36    0.39
  -3  -7   9    0.18    0.51
   4   7  -9   21.09    1.18
  -4  -7  -9   18.79    1.18
  -4   7   9   19.60    1.20
  -4   7   9   17.55    1.21
   4  -7   9   20.19    1.24
  -4   7  -9   19.99    1.21
  -4  -7   9   20.04    1.13
  -4  -7   9   21.12    1.37
   5   7  -9    2.23    0.59
   5  -7   9    1.90    0.66
  -5  -7  -9    2.10    0.69
  -5   7   9    1.74    0.63
  -5   7   9    1.53    0.71
  -5   7  -9    2.49    0.70
  -5  -7   9    0.74    0.79
   6   7  -9    3.78    0.68
  -6  -7  -9    5.21    0.89
  -6   7   9    3.17    0.90
   6  -7   9    3.72    0.80
  -6   7   9    3.94    0.77
  -6   7  -9    3.89    0.84
  -6  -7   9    2.42    1.00
   0   8  -9   23.42    1.05
   0   8  -9   22.22    1.18
   0   8   9   22.13    1.12
   0  -8   9   23.52    1.32
   0  -8  -9   21.82    1.05
   1  -8   9   24.71    1.38
  -1   8   9   23.71    1.17
   1   8  -9   23.01    1.18
  -1  -8  -9   23.50    1.13
   1   8   9   24.84    1.16
  -1   8  -9   23.43    1.08
  -1   8  -9   22.60    1.14
  -1  -8   9   22.97    1.06
  -1  -8   9   21.12    1.32
   1  -8  -9   23.33    1.01
  -2  -8  -9   10.46    0.88
   2  -8   9   10.05    0.93
  -2   8   9   10.72    0.90
   2   8  -9    9.61    0.80
  -2  -8   9    8.87    0.80
   2   8   9   10.30    0.83
  -2   8  -9    9.28    0.76
  -2   8  -9    9.88    0.82
  -2  -8   9   10.01    0.91
   3   8  -9   10.88    0.88
  -3   8   9   11.46    0.97
  -3  -8  -9    9.48    0.90
   3  -8   9   10.34    0.96
  -3   8  -9   10.41    0.88
  -3   8  -9   10.50    0.85
  -3  -8   9    9.63    0.92
  -3  -8   9    9.94    0.93
   4   8  -9   11.66    0.93
  -4   8   9   10.15    1.04
   4  -8   9   13.13    1.09
  -4   8   9   11.76    0.99
  -4  -8  -9   10.98    0.99
  -4   8  -9   12.09    1.06
  -4  -8   9   12.11    1.00
  -4  -8   9   11.96    1.08
   5   8  -9    2.49    0.59
  -5   8   9    1.61    0.65
  -5  -8  -9    1.87    0.72
   5  -8   9    1.98    0.71
  -5   8   9    2.85    0.77
  -5  -8   9    1.94    0.71
  -5   8  -9    1.98    0.67
  -5  -8   9    1.48    0.82
   6   8  -9    2.05    0.64
  -6  -8  -9    1.86    0.78
  -6   8   9    2.50    0.99
  -6   8   9    1.85    0.74
  -6  -8   9    1.26    0.99
  -6   8  -9    3.41    0.85
   0   9  -9   12.43    0.97
   0  -9  -9   13.62    0.91
   0   9  -9   11.55    0.76
   0  -9   9   12.71    1.07
   0   9   9   11.23    0.94
  -1  -9  -9   15.83    1.02
  -1   9   9   17.21    1.08
   1   9  -9   13.83    1.04
   1  -9   9   14.46    1.14
   1  -9  -9   15.74    0.88
  -1   9  -9   12.26    0.98
  -1  -9   9   13.78    0.90
  -1   9  -9   13.71    0.86
  -1  -9   9   15.14    1.15
   1   9   9   14.05    1.01
  -2  -9  -9    5.75    0.75
  -2   9   9    6.69    0.76
   2  -9   9    6.25    0.87
   2   9  -9    4.88    0.69
   2   9   9    5.95    0.71
  -2   9  -9    6.12    0.67
  -2  -9   9    4.87    0.82
  -2   9  -9    5.57    0.68
  -2  -9   9    4.98    0.67
   3  -9   9    1.97    0.74
  -3  -9  -9    3.20    0.72
   3   9  -9    3.38    0.65
  -3   9   9    3.03    0.66
  -3  -9   9    3.32    0.78
  -3   9  -9    4.61    0.65
  -3   9  -9    3.69    0.61
  -3  -9   9    3.17    0.70
  -4   9   9    5.24    0.82
   4   9  -9    4.24    0.69
   4  -9   9    5.37    0.86
  -4  -9  -9    5.29    0.83
  -4  -9   9    5.36    0.83
  -4   9  -9    5.59    0.77
  -5   9   9    3.28    0.81
   5  -9   9    2.96    0.83
   5   9  -9    4.19    0.71
  -5  -9  -9    3.96    0.81
  -5   9  -9    3.03    0.73
  -5  -9   9    3.11    0.74
   0  10  -9    5.84    0.74
   0  10   9    4.42    0.70
   0  10  -9    5.54    0.61
   0 -10  -9    7.89    0.76
   0 -10   9    4.90    0.84
   1  10  -9    5.63    0.74
  -1  10   9    5.86    0.80
  -1 -10  -9    6.26    0.79
   1 -10   9    6.54    0.93
   1 -10  -9    6.43    0.67
  -1  10  -9    6.07    0.65
  -1 -10   9    6.05    0.92
   1  10   9    6.42    0.81
  -1  10  -9    6.56    0.79
   2 -10   9    8.09    0.99
  -2 -10  -9    9.31    0.92
  -2  10   9   10.15    0.96
   2  10  -9    9.14    0.88
   2  10   9    9.40    0.88
  -2  10  -9    9.56    0.90
  -2 -10   9    7.86    0.95
  -2  10  -9    9.29    0.80
  -3  10   9    5.14    0.80
  -3 -10  -9    4.60    0.81
   3 -10   9    4.49    0.86
   3  10  -9    6.24    0.76
  -3 -10   9    4.73    0.83
  -3  10  -9    4.90    0.67
  -3  10  -9    5.55    0.75
  -4 -10  -9   11.40    1.09
   4  10  -9   14.18    1.19
   4 -10   9   10.86    1.14
  -4  10   9   10.67    1.09
  -4 -10   9   12.08    1.12
  -4  10  -9   11.93    1.01
  -5 -10  -9   14.39    1.25
  -5  10   9   15.76    1.36
   5 -10   9   12.16    1.24
   5  10  -9   12.04    1.06
  -5  10  -9   15.21    1.26
  -5 -10   9   14.13    1.20
   0  11  -9    7.92    0.86
   0 -11   9    6.52    0.94
   0  11   9    6.33    0.85
  -1 -11  -9    2.93    0.67
   1 -11   9    1.69    0.80
  -1  11   9    1.66    0.67
   1  11  -9    1.94    0.63
  -1  11  -9    0.93    0.58
  -1 -11   9    1.64    0.74
   1 -11  -9    3.57    0.63
   1  11   9    1.47    0.66
  -2  11   9    1.01    0.65
   2  11  -9    1.17    0.59
  -2 -11  -9    2.07    0.69
   2 -11   9   -0.37    0.73
  -2 -11   9    0.98    0.72
   2  11   9    0.09    0.61
  -2  11  -9    1.85    0.63
  -3  11   9    0.69    0.65
   3  11  -9    2.33    0.63
  -3 -11  -9    2.17    0.73
   3 -11   9    0.51    0.75
  -3 -11   9    2.36    0.79
  -3  11  -9    1.78    0.62
   4  11  -9    2.58    0.70
  -4 -11  -9    3.61    0.85
   4 -11   9    0.38    0.80
  -4  11   9    2.05    0.82
  -4 -11   9    2.94    0.82
   0 -12  -9    6.59    0.82
   0  12  -9    9.09    0.95
   0 -12   9    5.97    0.97
   0  12   9    8.18    1.01
  -1  12   9    2.03    0.73
   1  12  -9    1.31    0.62
   1 -12   9    1.53    0.81
  -1 -12  -9    0.65    0.62
   1  12   9    0.88    0.68
  -1 -12   9    1.54    0.78
  -1  12  -9    1.67    0.64
  -2 -12  -9    1.55    0.71
   2 -12   9    1.22    0.84
   2  12  -9    2.44    0.68
  -2  12   9    0.91    0.71
  -2 -12   9    0.69    0.74
  -2  12  -9    1.32    0.64
   2  12   9    0.51    0.70
  -3 -12  -9    2.70    0.79
   3 -12   9    2.22    0.91
   3  12  -9    1.69    0.69
  -3  12   9    0.85    0.78
  -3 -12   9    0.08    0.74
  -3  12  -9    0.96    0.64
  -4  12   9    3.02    0.91
  -4 -12  -9    3.52    0.90
   4 -12   9    1.70    0.96
   4  12  -9    4.90    0.82
  -4 -12   9    4.04    0.93
   0  13  -9    6.63    0.91
   0 -13  -9    7.30    0.88
   0  13   9    5.07    0.97
   0 -13   9    6.30    1.04
   1  13  -9    3.11    0.76
  -1 -13  -9    3.85    0.78
   1 -13   9    4.03    0.95
  -1  13   9    3.27    0.93
  -1  13  -9    1.90    0.73
   1  13   9    1.63    0.83
  -1 -13   9    1.83    0.86
  -2  13   9   -0.78    0.74
   2  13  -9    0.58    0.67
   2 -13   9    2.15    0.91
  -2 -13  -9    1.17    0.73
   2  13   9    0.41    0.81
  -2 -13   9    1.36    0.83
  -2  13  -9    0.73    0.68
  -3 -13  -9    2.98    0.86
   3  13  -9    4.05    0.80
  -3  13   9    2.99    1.00
   3 -13   9    3.63    1.02
  -3 -13   9    2.76    0.92
  -3  13  -9    3.78    0.84
   0 -14  -9    6.79    0.89
   0  14  -9    5.44    0.92
   0 -14   9    5.58    1.07
   0  14   9    4.18    1.00
   1  14  -9    3.38    0.82
   1 -14   9    0.45    0.88
  -1 -14  -9    2.56    0.81
  -1  14   9    1.79    0.95
  -1  14  -9    3.12    0.83
  -1 -14   9    2.82    0.97
   1  14   9    0.40    0.83
   0   0 -10  373.92    7.73
   0   0  10  375.00    7.74
   0   0 -10  367.31    7.88
  -1   0 -10    4.88    0.36
   1   0 -10    4.27    0.43
  -1   0 -10    5.47    0.53
  -1   0  10    4.80    0.51
  -1   0  10    4.56    0.37
   1   0  10    4.45    0.44
  -2   0 -10    5.08    0.58
  -2   0  10    4.67    0.56
   2   0  10    4.89    0.51
  -2   0  10    4.59    0.40
  -2   0 -10    4.53    0.33
  -3   0 -10   13.96    0.97
  -3   0  10   14.34    0.55
  -3   0  10   13.66    1.02
   3   0 -10   13.59    0.86
   4   0 -10    1.61    0.50
  -4   0  10    1.12    0.59
  -4   0 -10    2.06    0.62
   5   0  10    1.20    0.46
  -5   0 -10    1.05    0.61
   5   0 -10    1.19    0.51
  -5   0  10   -0.75    0.62
  -6   0  10    5.10    1.01
   6   0 -10    4.98    0.70
  -6   0 -10    5.60    0.93
   6   0  10    5.16    0.69
   7   0 -10   16.76    1.23
  -7   0 -10   21.00    1.65
  -7   0  10   12.08    1.41
   7   0  10   18.23    1.18
   0  -1 -10   14.68    0.65
   0   1  10   14.69    0.63
   0  -1  10   15.36    0.67
   0  -1 -10   15.18    0.74
   0   1 -10   15.11    0.74
   0   1 -10   15.72    0.69
  -1  -1 -10   22.00    0.90
  -1  -1 -10   21.22    0.86
   1  -1  10   23.62    0.87
  -1   1  10   23.16    0.74
  -1  -1 -10   22.22    0.73
  -1   1  10   22.41    0.93
   1   1 -10   22.45    0.87
   1  -1 -10   22.35    0.86
  -1   1 -10   23.38    0.93
  -1  -1  10   22.64    0.80
  -1   1 -10   23.37    0.77
  -2  -1 -10   22.24    0.94
  -2  -1 -10   22.97    0.69
  -2   1  10   22.27    0.67
  -2  -1 -10   21.82    0.95
   2  -1  10   24.65    0.93
  -2   1  10   23.59    1.03
  -2  -1  10   19.61    0.97
  -2   1 -10   22.03    0.98
  -2  -1  10   21.38    0.80
   3   1 -10    0.70    0.42
  -3  -1 -10    0.34    0.23
  -3  -1 -10    0.85    0.47
  -3   1  10    1.22    0.53
   3  -1  10    0.49    0.29
   3  -1 -10    1.19    0.45
  -3   1 -10    1.22    0.49
  -3  -1  10    1.13    0.32
  -4  -1 -10   15.43    1.11
  -4  -1 -10   14.83    0.98
   4  -1  10   16.42    0.93
  -4   1  10   17.12    1.18
   4   1 -10   16.28    1.01
   4  -1 -10   16.11    1.00
  -4   1 -10   19.00    1.14
  -4  -1  10   16.90    1.28
   5   1 -10    5.35    0.67
  -5  -1 -10    6.08    0.76
  -5   1  10    4.28    0.84
   5  -1  10    6.26    0.70
  -5  -1 -10    6.04    0.83
  -5  -1  10    4.84    0.86
   5  -1 -10    4.97    0.68
  -5   1 -10    5.61    0.83
  -6   1  10    1.68    0.84
   6  -1  10    2.27    0.59
   6   1 -10    2.48    0.59
  -6  -1 -10    2.88    0.83
  -6  -1  10    0.86    0.85
   6  -1 -10    2.36    0.61
  -6   1 -10    2.58    0.82
  -7   1  10    0.92    0.95
   7   1 -10    1.34    0.63
   7  -1  10    2.51    0.67
  -7  -1 -10    2.45    0.90
   7  -1 -10    1.39    0.65
  -7   1 -10    3.64    0.94
  -7  -1  10    2.46    1.05
   7   1  10    3.31    0.66
   0   2 -10   12.30    0.72
   0  -2 -10   11.71    0.64
   0   2 -10   11.43    0.61
   0  -2 -10   10.44    0.59
   0  -2  10   11.79    0.63
   0  -2 -10   11.40    0.60
  -1   2  10   21.55    0.91
  -1  -2 -10   22.48    0.76
  -1   2  10   22.78    0.72
  -1  -2 -10   22.45    0.89
   1  -2  10   22.87    0.90
  -1  -2 -10   21.16    0.89
   1   2 -10   22.33    0.90
  -1   2 -10   23.29    0.79
  -1   2 -10   22.41    0.93
   1  -2 -10   21.91    0.87
  -1  -2  10   21.89    0.84
  -2  -2 -10   11.83    0.78
  -2   2  10   12.05    0.45
  -2   2  10   11.67    0.79
  -2  -2 -10   11.48    0.73
  -2   2 -10   10.48    0.48
  -2  -2  10   12.32    0.68
  -2  -2  10   11.76    0.79
  -3  -2 -10    1.46    0.49
   3   2 -10    1.36    0.45
  -3   2  10    1.78    0.54
   3  -2  10    1.32    0.43
   3  -2 -10    1.93    0.48
  -3  -2  10    1.21    0.38
  -3  -2  10    1.26    0.48
  -3   2 -10    2.19    0.28
   4   2 -10    7.55    0.72
   4  -2  10    6.82    0.70
  -4   2  10    7.16    0.85
  -4  -2 -10    7.08    0.78
  -4  -2 -10    7.35    0.80
  -4  -2  10    6.40    0.85
   4  -2 -10    6.61    0.70
  -4   2 -10    6.82    0.80
  -5   2  10    1.00    0.71
   5   2 -10    1.37    0.53
  -5  -2 -10    2.24    0.66
   5  -2  10    1.70    0.52
  -5  -2 -10    2.19    0.64
   5  -2 -10    1.76    0.54
  -5  -2  10    0.79    0.71
  -5   2 -10    1.72    0.68
  -6  -2 -10    4.35    0.76
   6  -2  10    4.98    0.73
  -6  -2 -10    4.98    0.88
  -6   2  10    3.28    0.91
   6   2 -10    3.92    0.65
  -6  -2  10    2.86    0.92
  -6   2 -10    3.53    0.80
   6  -2 -10    4.83    0.71
  -7   2  10    2.48    1.07
   7   2 -10    2.36    0.74
   7  -2  10    2.92    0.72
  -7  -2 -10    3.74    0.90
  -7   2 -10    3.44    0.95
   7  -2 -10    1.42    0.67
  -7  -2  10    1.03    1.01
   0   3 -10   24.25    0.91
   0  -3  10   22.25    0.92
   0  -3 -10   23.00    0.87
   0  -3 -10   22.54    0.83
   0  -3 -10   24.02    0.87
   0   3 -10   24.92    1.01
  -1  -3 -10   54.22    1.45
  -1   3  10   55.51    1.60
   1   3 -10   56.64    1.60
  -1  -3 -10   54.49    1.57
   1  -3  10   57.99    1.61
  -1  -3 -10   55.98    1.57
  -1   3 -10   56.62    1.50
  -1  -3  10   57.22    1.58
   1  -3 -10   57.93    1.59
  -1   3 -10   56.32    1.68
  -2  -3 -10    7.50    0.65
  -2  -3 -10    8.76    0.72
  -2   3  10    9.72    0.73
  -2   3  10    8.35    0.38
  -2  -3  10    8.86    0.78
   2   3  10    8.62    0.47
  -2   3 -10    8.21    0.52
  -2  -3  10    9.05    0.72
  -2   3 -10    8.50    0.77
   3  -3  10    3.60    0.56
  -3   3  10    3.74    0.63
   3   3 -10    2.68    0.53
  -3  -3 -10    2.83    0.56
  -3   3 -10    2.10    0.55
  -3  -3  10    3.57    0.67
   3  -3 -10    2.02    0.49
  -3  -3  10    3.33    0.49
  -3   3 -10    3.41    0.33
  -4  -3 -10   11.23    0.98
   4   3 -10    9.66    0.78
  -4  -3 -10   11.96    0.93
   4  -3  10   10.89    0.86
  -4   3  10    9.60    0.92
  -4   3 -10    9.39    0.93
   4  -3 -10   10.34    0.87
  -4  -3  10    9.71    0.98
   5   3 -10   14.90    1.05
  -5  -3 -10   14.65    1.11
  -5  -3 -10   16.50    1.25
  -5   3  10   13.68    1.25
   5  -3  10   13.46    1.00
  -5   3 -10   16.02    1.28
  -5  -3  10   16.58    1.41
   5  -3 -10   14.75    1.08
   6  -3  10    4.10    0.71
  -6  -3 -10    3.48    0.80
   6   3 -10    4.50    0.65
  -6  -3 -10    5.95    0.85
  -6   3  10    3.82    0.98
  -6  -3  10    3.19    0.93
   6  -3 -10    2.67    0.66
  -6   3 -10    3.38    0.79
  -7   3  10    0.37    0.92
   7  -3  10    0.02    0.59
  -7  -3 -10    0.77    0.75
  -7  -3 -10    0.69    0.69
  -7  -3  10   -0.54    0.97
  -7   3 -10    1.78    0.82
   0  -4 -10   10.27    0.61
   0   4 -10   10.08    0.72
   0   4 -10    9.58    0.68
   0  -4  10   11.22    0.75
   0  -4 -10    9.49    0.62
   1   4 -10   35.14    1.23
  -1  -4 -10   34.40    1.12
  -1  -4 -10   35.21    1.19
  -1   4  10   34.39    1.17
   1  -4  10   35.63    1.27
   1   4  10   34.05    1.07
  -1  -4  10   35.68    1.28
  -1   4 -10   33.99    1.13
  -1   4 -10   35.91    1.28
   1  -4 -10   33.86    1.20
   1  -4 -10   36.82    1.04
  -2   4  10   13.77    0.83
  -2  -4 -10   13.30    0.74
  -2  -4 -10   12.20    0.86
  -2  -4  10   13.35    0.87
   2  -4 -10   13.24    0.52
  -2   4 -10   13.91    0.88
  -2   4 -10   12.39    0.67
  -2  -4  10   13.42    0.88
   2   4  10   14.17    0.63
   3   4 -10   16.68    0.99
  -3  -4 -10   15.38    0.95
  -3  -4 -10   14.95    0.91
   3  -4  10   14.91    0.93
  -3   4  10   15.83    1.03
  -3   4 -10   14.57    0.70
  -3   4 -10   15.40    1.02
  -3  -4  10   17.47    0.95
   3  -4 -10   16.22    1.00
  -3  -4  10   16.55    1.14
   4   4 -10    5.76    0.69
  -4   4  10    6.38    0.79
  -4  -4 -10    7.27    0.78
   4  -4  10    5.42    0.67
  -4  -4 -10    5.36    0.70
   4  -4 -10    7.65    0.74
  -4   4 -10    7.43    0.82
  -4  -4  10    7.78    0.64
  -4  -4  10    6.82    0.90
  -5   4  10    5.94    0.91
  -5  -4 -10    6.77    0.83
   5  -4  10    7.16    0.79
  -5  -4 -10    7.31    0.87
   5   4 -10    6.40    0.73
  -5  -4  10    6.80    1.00
   5  -4 -10    5.89    0.74
  -5   4 -10    6.19    0.85
   6   4 -10    3.91    0.66
  -6  -4 -10    3.06    0.76
   6  -4  10    4.57    0.73
  -6   4  10    2.88    0.88
  -6  -4 -10    3.54    0.78
  -6  -4  10    4.18    1.00
  -6   4 -10    2.61    0.77
   7  -4  10   10.31    1.51
  -7   4  10    8.39    1.28
  -7   4  10    9.17    0.89
  -7  -4 -10    9.91    1.16
  -7  -4 -10    9.57    1.09
  -7   4 -10    8.54    1.16
  -7  -4  10    7.41    1.35
   0   5 -10    2.43    0.45
   0  -5  10    1.57    0.51
   0  -5 -10    1.64    0.39
   0   5 -10    1.72    0.42
   0   5  10    2.14    0.39
   0   5  10    1.76    0.33
   1   5 -10   27.96    1.14
  -1  -5 -10   28.66    1.13
  -1  -5 -10   29.94    1.01
  -1   5  10   28.07    1.03
  -1   5  10   28.51    1.11
  -1  -5  10   29.63    1.25
  -1   5 -10   28.27    1.16
   1   5  10   29.19    1.01
  -1   5 -10   28.99    1.07
   1  -5 -10   30.09    0.95
  -2  -5 -10   22.68    0.93
  -2   5  10   23.55    1.04
  -2  -5 -10   22.78    1.10
  -2   5 -10   21.47    1.06
   2   5  10   21.25    0.86
  -2   5 -10   22.30    0.92
  -2  -5  10   23.69    1.14
  -2  -5  10   24.57    1.15
  -3  -5 -10    1.96    0.58
   3  -5  10    3.18    0.58
  -3   5  10    3.28    0.61
  -3  -5 -10    2.69    0.49
   3   5 -10    2.71    0.55
  -3   5 -10    2.59    0.39
  -3   5 -10    2.68    0.58
  -3  -5  10    2.79    0.59
  -3  -5  10    3.32    0.66
  -4  -5 -10   20.04    1.06
  -4   5  10   20.11    1.25
  -4  -5 -10   18.19    1.09
   4   5 -10   18.70    1.08
   4  -5  10   19.62    1.12
  -4  -5  10   18.59    1.03
  -4   5 -10   18.92    1.19
  -4  -5  10   17.62    1.32
  -5   5  10   14.88    1.33
  -5  -5 -10   18.70    1.18
  -5  -5 -10   18.53    1.20
   5  -5  10   15.52    1.11
   5   5 -10   18.15    1.14
  -5  -5  10   15.85    1.43
  -5   5 -10   17.61    1.30
  -6  -5 -10    0.61    0.64
   6  -5  10    0.56    0.57
  -6   5  10    2.37    0.60
   6   5 -10    0.67    0.56
  -6   5  10    0.09    0.82
  -6  -5 -10    0.92    0.65
  -6  -5  10   -0.05    0.81
  -6   5 -10    1.87    0.72
   0   6 -10   38.23    1.39
   0   6  10   38.86    1.16
   0   6  10   39.75    1.33
   0   6 -10   39.22    1.37
   0  -6  10   41.35    1.51
   0  -6 -10   38.81    1.29
  -1   6  10   14.18    0.74
  -1  -6 -10   14.90    0.89
   1   6 -10   15.99    0.92
  -1   6  10   15.11    0.87
  -1  -6 -10   14.06    0.68
   1   6  10   15.00    0.82
   1  -6 -10   14.48    0.73
  -1  -6  10   13.66    1.00
  -1   6 -10   15.89    0.89
  -1   6 -10   15.71    0.90
  -2   6  10   26.69    1.10
   2  -6  10   26.54    1.24
   2   6 -10   23.87    1.19
  -2  -6 -10   25.41    1.22
  -2   6  10   22.98    1.11
  -2  -6 -10   24.09    0.94
  -2  -6  10   26.19    1.25
  -2   6 -10   25.25    1.16
   2   6  10   24.93    1.00
  -2   6 -10   24.22    1.04
  -2  -6  10   24.87    1.21
  -3   6  10    3.67    0.57
   3  -6  10    3.12    0.60
  -3  -6 -10    3.30    0.64
   3   6 -10    4.16    0.61
  -3   6  10    4.17    0.63
  -3  -6 -10    3.99    0.49
  -3  -6  10    3.89    0.68
  -3   6 -10    3.51    0.46
  -3  -6  10    4.12    0.65
  -3   6 -10    3.91    0.63
  -4  -6 -10    4.64    0.65
   4   6 -10    4.31    0.66
  -4   6  10    4.69    0.68
  -4   6  10    3.35    0.71
   4  -6  10    5.70    0.75
  -4  -6 -10    4.41    0.72
  -4  -6  10    4.17    0.67
  -4   6 -10    5.06    0.75
  -4  -6  10    5.53    0.87
   5   6 -10    2.87    0.62
  -5  -6 -10    2.47    0.70
  -5   6  10    2.51    0.77
   5  -6  10    2.66    0.66
  -5   6  10    2.25    0.60
  -5  -6  10    1.24    0.77
  -5   6 -10    3.26    0.73
   6   6 -10    3.87    0.68
  -6   6  10    2.77    0.70
   6  -6  10    0.59    0.62
  -6   6  10    1.60    0.85
  -6   6 -10    3.15    0.83
  -6  -6  10    1.79    0.97
   0   7 -10    5.63    0.63
   0   7 -10    4.46    0.61
   0   7  10    5.58    0.63
   0  -7 -10    4.33    0.59
   0  -7  10    4.06    0.74
  -1   7  10    1.21    0.46
  -1   7  10    0.17    0.32
   1  -7  10    0.37    0.61
  -1  -7 -10   -0.22    0.48
   1   7 -10    0.75    0.49
   1   7  10    0.35    0.42
  -1   7 -10    0.05    0.40
  -1  -7  10    0.01    0.60
  -1   7 -10    0.45    0.45
   1  -7 -10    0.61    0.38
  -1  -7  10    0.42    0.46
   2   7 -10    8.49    0.76
  -2  -7 -10   10.33    0.84
  -2   7  10    8.72    0.77
  -2   7  10    9.35    0.75
   2  -7  10   10.18    0.91
  -2  -7  10    8.78    0.81
  -2   7 -10    9.32    0.76
  -2  -7  10    9.59    0.88
   2   7  10    9.44    0.78
  -2   7 -10    8.77    0.81
   3  -7  10    1.47    0.60
  -3  -7 -10    0.45    0.53
  -3   7  10    1.08    0.48
   3   7 -10    1.18    0.53
  -3   7  10    1.34    0.51
  -3   7 -10    2.15    0.54
  -3  -7  10    1.05    0.56
  -3  -7  10    1.22    0.55
  -3   7 -10    1.21    0.41
  -4   7  10    1.40    0.57
   4  -7  10    1.22    0.61
  -4  -7 -10    2.24    0.65
  -4   7  10    1.21    0.63
   4   7 -10    1.63    0.55
  -4  -7  10    2.30    0.63
  -4   7 -10    1.39    0.57
  -4  -7  10    1.46    0.71
   5  -7  10   -0.49    0.56
  -5   7  10    0.42    0.56
  -5   7  10    0.22    0.68
   5   7 -10    0.00    0.47
  -5  -7 -10    0.12    0.60
  -5  -7  10   -1.29    0.70
  -5   7 -10    0.45    0.58
  -6  -7 -10    2.16    0.78
   6  -7  10    4.33    0.84
   6   7 -10    4.71    0.75
  -6   7  10    2.91    0.92
  -6   7  10    3.37    0.77
  -6  -7  10    1.90    1.02
  -6   7 -10    4.97    0.93
   0   8  10    0.40    0.45
   0  -8 -10    0.30    0.43
   0   8 -10    0.48    0.47
   0  -8  10    0.23    0.61
   0   8 -10    0.00    0.34
  -1  -8 -10   27.33    1.24
   1   8 -10   26.86    1.28
  -1   8  10   25.99    1.21
   1  -8  10   25.61    1.34
   1  -8 -10   26.30    1.05
  -1   8 -10   25.60    1.17
  -1   8 -10   27.83    1.21
   1   8  10   26.13    1.16
  -1  -8  10   26.00    1.17
  -1  -8  10   25.24    1.35
   2   8 -10   13.93    0.99
  -2  -8 -10   14.72    1.05
   2  -8  10   14.51    1.11
  -2   8  10   12.81    0.97
  -2  -8  10   12.82    0.94
  -2   8 -10   14.59    0.93
   2   8  10   14.14    0.93
  -2   8 -10   13.49    0.89
  -2  -8  10   13.20    1.05
  -3   8  10    4.45    0.68
  -3  -8 -10    3.26    0.71
   3   8 -10    4.25    0.70
   3  -8  10    3.28    0.73
  -3  -8  10    2.13    0.65
  -3  -8  10    3.73    0.74
  -3   8 -10    4.39    0.66
  -3   8 -10    4.05    0.57
  -4  -8 -10    8.90    0.95
   4   8 -10    8.99    0.86
   4  -8  10    6.22    0.88
  -4   8  10    9.82    0.93
  -4  -8  10    8.04    1.01
  -4  -8  10    8.51    0.89
  -4   8 -10    8.20    0.88
  -5  -8 -10    9.21    1.01
  -5   8  10    9.14    0.97
   5   8 -10    8.64    0.86
   5  -8  10    8.70    1.02
  -5   8 -10   10.28    1.07
  -5  -8  10    8.13    1.14
   6  -8  10   -0.21    0.75
   6   8 -10   -0.11    0.56
  -6  -8 -10    0.63    0.73
  -6   8  10   -0.17    0.60
  -6   8 -10    1.22    0.69
  -6  -8  10   -1.98    0.87
   0   9  10   36.45    1.49
   0   9 -10   38.51    1.38
   0  -9 -10   39.85    1.42
   0  -9  10   35.13    1.65
   0   9 -10   37.59    1.48
  -1  -9 -10   16.01    1.05
  -1   9  10   14.97    1.07
   1   9 -10   16.18    1.08
   1  -9  10   14.56    1.24
  -1   9 -10   14.78    0.91
  -1  -9  10   13.89    0.92
  -1  -9  10   14.16    1.24
  -1   9 -10   13.90    0.98
   1  -9 -10   14.79    0.88
   1   9  10   14.83    1.00
  -2   9  10   16.34    1.15
   2  -9  10   17.32    1.31
   2   9 -10   15.57    1.09
  -2  -9 -10   17.19    1.17
   2   9  10   15.07    1.02
  -2  -9  10   15.88    1.04
  -2   9 -10   15.86    0.99
  -2   9 -10   16.44    1.03
  -2  -9  10   19.26    1.26
  -3  -9 -10    2.86    0.70
   3  -9  10    3.68    0.81
  -3   9  10    3.15    0.67
   3   9 -10    3.01    0.64
  -3  -9  10    2.56    0.71
  -3   9 -10    3.61    0.60
  -3  -9  10    2.80    0.74
  -3   9 -10    3.30    0.61
  -4   9  10    0.29    0.59
  -4  -9 -10    1.23    0.64
   4  -9  10    0.28    0.66
   4   9 -10    0.56    0.53
  -4  -9  10    1.12    0.65
  -4   9 -10    0.43    0.50
  -4  -9  10   -0.81    0.65
   5   9 -10    0.64    0.57
   5  -9  10   -0.79    0.69
  -5  -9 -10    1.08    0.74
  -5   9  10    0.78    0.70
  -5   9 -10    1.62    0.64
   0 -10  10   -0.15    0.69
   0  10  10    0.15    0.51
   0  10 -10    0.11    0.36
   0  10 -10    0.48    0.52
   0 -10 -10    0.82    0.52
   1  10 -10    4.98    0.73
  -1 -10 -10    4.79    0.72
   1 -10  10    4.23    0.88
  -1  10  10    4.53    0.72
   1  10  10    3.50    0.67
  -1  10 -10    4.54    0.67
  -1  10 -10    4.22    0.60
   1 -10 -10    5.38    0.62
  -1 -10  10    4.65    0.86
   2 -10  10    0.04    0.70
   2  10 -10    0.95    0.56
  -2 -10 -10    0.43    0.60
  -2  10  10    0.83    0.58
   2  10  10   -0.10    0.55
  -2  10 -10    0.96    0.44
  -2  10 -10    0.64    0.51
  -2 -10  10    0.15    0.65
  -3 -10 -10    6.98    0.90
   3 -10  10    6.97    0.99
  -3  10  10    7.09    0.92
   3  10 -10    6.07    0.80
  -3 -10  10    5.89    0.89
  -3  10 -10    7.45    0.78
  -3  10 -10    7.98    0.83
   4 -10  10   -0.32    0.76
  -4 -10 -10    1.11    0.71
  -4  10  10    0.22    0.66
   4  10 -10    1.20    0.59
  -4  10 -10    0.92    0.53
  -4 -10  10    1.58    0.71
  -5 -10 -10    3.32    0.88
  -5  10  10    3.92    0.89
   5  10 -10    3.23    0.74
   5 -10  10    2.13    0.93
  -5  10 -10    3.79    0.80
  -5 -10  10    3.93    1.18
   0  11  10   13.93    1.19
   0 -11 -10   15.76    1.07
   0  11 -10   13.64    1.08
   0 -11  10   13.50    1.20
   1  11 -10    3.27    0.71
   1 -11  10    4.39    0.90
  -1 -11 -10    3.11    0.70
  -1  11  10    4.90    0.80
   1  11  10    4.33    0.73
  -1 -11  10    3.37    0.86
  -1  11 -10    4.17    0.72
  -2 -11 -10    6.84    0.88
  -2  11  10    6.88    0.94
   2 -11  10    7.47    1.06
   2  11 -10    9.70    0.93
  -2  11 -10    9.35    0.91
   2  11  10    6.59    0.87
  -2 -11  10    9.07    1.04
   3  11 -10    1.72    0.63
  -3 -11 -10    2.30    0.76
  -3  11  10    1.36    0.75
   3 -11  10    1.80    0.81
  -3 -11  10    1.75    0.79
  -3  11 -10    2.01    0.60
   4 -11  10   -2.28    0.72
  -4 -11 -10    0.22    0.72
  -4  11  10   -0.47    0.72
   4  11 -10    0.75    0.66
  -4 -11  10    0.86    0.75
   0 -12  10   -0.08    0.71
   0  12 -10    1.46    0.63
   0 -12 -10    0.89    0.59
   0  12  10    0.00    0.65
  -1 -12 -10    1.94    0.69
   1 -12  10    3.47    0.92
  -1  12  10    3.03    0.81
   1  12 -10    3.64    0.76
   1  12  10    3.51    0.82
  -1 -12  10    4.40    0.88
  -1  12 -10    4.34    0.76
  -2  12  10    3.61    0.88
   2 -12  10    3.92    0.96
   2  12 -10    5.25    0.83
  -2 -12 -10    5.79    0.88
   2  12  10    2.87    0.80
  -2  12 -10    4.81    0.78
  -2 -12  10    3.21    0.87
  -3 -12 -10   18.05    1.45
   3  12 -10   17.60    1.38
   3 -12  10   16.49    1.46
  -3  12  10   18.01    1.48
  -3 -12  10   15.55    1.36
  -3  12 -10   16.51    1.28
   0 -13  10    3.49    0.96
   0  13 -10    4.18    0.84
   0 -13 -10    3.91    0.78
   0  13  10    3.66    0.90
  -1 -13 -10    0.24    0.67
   1  13 -10    0.19    0.65
   1 -13  10   -0.59    0.78
  -1  13  10    0.03    0.72
  -1  13 -10    0.58    0.63
  -1 -13  10   -0.14    0.77
   1  13  10   -1.04    0.70
  -2  13  10    1.43    0.88
   2  13 -10    3.91    0.83
   2 -13  10    3.40    1.02
  -2 -13 -10    2.45    0.78
  -2  13 -10    4.77    0.84
  -2 -13  10    3.34    0.95
   0   0 -11    0.28    0.29
   0   0  11    0.24    0.26
   0   0 -11    0.27    0.28
  -1   0 -11    8.63    0.52
   1   0  11    7.30    0.56
  -1   0 -11    8.26    0.63
  -1   0  11    7.37    0.68
  -1   0  11    8.07    0.50
   1   0 -11    8.67    0.63
  -2   0  11    1.87    0.31
   2   0  11    2.27    0.42
  -2   0 -11    2.47    0.48
  -2   0  11    2.96    0.54
   3   0 -11   72.13    2.04
  -3   0 -11   69.52    2.13
  -3   0  11   73.76    2.23
   4   0 -11    5.61    0.64
  -4   0  11    4.50    0.77
  -4   0 -11    5.82    0.77
   4   0  11    4.64    0.60
   5   0 -11    4.64    0.67
  -5   0 -11    5.44    0.80
   5   0  11    5.69    0.70
  -5   0  11    4.57    0.86
  -6   0  11    4.52    0.97
  -6   0 -11    5.44    0.90
   6   0 -11    5.37    0.76
   6   0  11    7.40    0.81
   7   0 -11   12.69    1.07
  -7   0 -11   13.54    1.37
  -7   0  11   11.78    1.42
   7   0  11   16.59    1.19
   0   1  11    5.46    0.45
   0   1 -11    5.60    0.47
   0  -1 -11    6.12    0.58
   0  -1  11    5.50    0.48
   0  -1 -11    4.92    0.43
   0   1 -11    5.81    0.58
   1   1 -11   20.80    0.90
  -1  -1 -11   21.67    0.77
  -1   1  11   20.70    0.95
  -1   1  11   21.65    0.76
  -1  -1 -11   21.32    0.93
   1  -1  11   21.67    0.89
   1  -1 -11   23.02    0.91
  -1   1 -11   22.18    0.79
  -1   1 -11   22.52    0.97
  -1  -1  11   21.63    0.82
  -2   1  11   31.42    0.91
  -2  -1 -11   31.40    1.21
   2  -1  11   31.77    1.19
  -2   1  11   32.32    1.26
  -2  -1 -11   33.80    1.24
  -2   1 -11   33.42    1.27
  -2  -1  11   33.00    1.03
   3   1 -11   16.02    0.97
  -3   1  11   18.64    1.10
  -3  -1 -11   17.86    1.05
  -3  -1  11   16.06    0.73
  -3   1 -11   16.68    1.03
   3  -1 -11   18.01    1.00
   4   1 -11   31.91    1.30
   4  -1  11   29.53    1.27
  -4  -1 -11   29.51    1.33
  -4   1  11   32.31    1.52
  -4  -1 -11   30.34    1.39
   4  -1 -11   28.67    1.27
  -4  -1  11   32.15    1.54
  -4   1 -11   29.85    1.44
  -5  -1 -11   10.37    0.95
  -5   1  11    9.91    1.08
   5  -1  11   11.36    0.90
  -5  -1 -11   11.38    1.04
   5   1 -11   11.91    1.00
   5  -1 -11   10.36    0.88
  -5   1 -11   11.64    1.08
  -5  -1  11    9.69    1.10
   6  -1  11    1.59    0.59
  -6   1  11    2.26    0.90
   6   1 -11    2.34    0.61
  -6  -1 -11    3.57    0.81
   6  -1 -11    1.57    0.60
  -6  -1  11    1.62    0.84
  -6   1 -11    2.82    0.78
  -7   1  11    1.38    0.99
   7   1 -11    1.82    0.68
  -7  -1 -11    2.50    0.89
   7  -1  11    2.80    0.72
  -7   1 -11    1.51    0.85
  -7  -1  11    1.29    1.02
   7  -1 -11    0.31    0.63
   7   1  11    3.52    0.69
   0  -2 -11    0.52    0.30
   0   2 -11    0.58    0.31
   0  -2  11    1.20    0.35
   0  -2 -11    0.09    0.29
   0  -2 -11    0.43    0.30
   0   2 -11    0.61    0.34
  -1  -2 -11    2.97    0.44
  -1  -2 -11    3.22    0.36
   1  -2  11    3.14    0.45
  -1  -2 -11    3.41    0.46
  -1   2  11    3.21    0.33
   1   2 -11    3.62    0.46
  -1   2  11    3.46    0.47
  -1   2 -11    3.17    0.38
  -1  -2  11    3.34    0.44
   1  -2 -11    4.18    0.47
   2  -2  11    0.33    0.22
  -2  -2 -11    1.53    0.47
  -2   2  11    1.57    0.46
  -2   2  11    1.70    0.25
  -2  -2 -11    1.62    0.42
  -2   2 -11    1.34    0.30
  -2  -2  11    1.90    0.43
  -3  -2 -11   72.06    2.14
   3   2 -11   72.12    2.09
  -3   2  11   75.55    2.30
   3  -2  11   74.63    2.12
   3  -2 -11   72.63    2.12
  -3  -2  11   75.99    2.31
  -3  -2  11   73.08    1.87
  -4   2  11   10.19    0.95
  -4  -2 -11   11.47    0.96
  -4  -2 -11   10.97    0.96
   4  -2  11   10.44    0.84
   4   2 -11   11.31    0.90
  -4   2 -11   11.50    1.01
  -4  -2  11   11.81    1.11
   4  -2 -11   11.58    0.88
   5  -2  11    4.67    0.68
  -5  -2 -11    5.88    0.77
  -5   2  11    4.51    0.86
   5   2 -11    4.03    0.65
  -5  -2 -11    4.63    0.79
  -5  -2  11    4.32    0.90
   5  -2 -11    4.91    0.69
  -5   2 -11    4.81    0.80
  -6  -2 -11    3.10    0.74
  -6  -2 -11    4.68    0.88
  -6   2  11    1.70    0.85
   6  -2  11    4.61    0.73
   6   2 -11    3.77    0.64
  -6   2 -11    4.71    0.91
   6  -2 -11    3.42    0.67
  -6  -2  11    4.02    0.98
  -7   2  11    0.63    0.93
   7  -2  11    2.96    0.72
  -7  -2 -11    5.10    0.98
   7   2 -11    1.88    0.67
  -7  -2  11    0.97    1.00
  -7   2 -11    2.47    0.89
   7  -2 -11    3.03    0.74
   0   3 -11    3.45    0.50
   0   3 -11    3.30    0.44
   0  -3 -11    3.02    0.43
   0  -3 -11    3.18    0.42
   0  -3  11    3.35    0.47
   0  -3 -11    3.71    0.43
   1   3 -11   20.83    0.95
  -1  -3 -11   18.92    0.89
   1  -3  11   20.88    0.92
  -1   3  11   19.83    0.90
  -1  -3 -11   20.44    0.80
  -1  -3 -11   20.29    0.90
  -1  -3  11   18.81    0.91
  -1   3 -11   20.03    0.82
   1  -3 -11   20.21    0.94
  -1   3 -11   19.07    0.97
   1  -3 -11   19.68    0.75
  -2   3  11   66.83    1.56
  -2  -3 -11   63.25    1.87
  -2  -3 -11   65.42    1.93
  -2   3  11   67.63    1.99
  -2   3 -11   67.60    2.01
   2   3  11   65.68    1.63
  -2  -3  11   68.23    1.85
  -2  -3  11   70.37    2.09
  -2   3 -11   68.41    1.70
  -3  -3 -11    1.30    0.55
   3   3 -11    1.16    0.52
  -3  -3 -11    1.54    0.49
  -3   3  11    1.68    0.56
   3  -3  11    1.05    0.46
  -3   3 -11    0.61    0.51
  -3  -3  11    1.34    0.60
   3  -3 -11    1.20    0.49
  -3  -3  11    1.11    0.46
   4  -3  11   13.26    0.96
   4   3 -11   11.84    0.93
  -4  -3 -11   13.83    0.99
  -4   3  11   14.55    1.15
  -4  -3 -11   14.61    1.05
  -4  -3  11   13.96    1.19
  -4   3 -11   11.76    1.03
   4  -3 -11   13.28    0.94
   5  -3  11    2.66    0.60
  -5   3  11    0.89    0.67
   5   3 -11    2.39    0.59
  -5  -3 -11    2.64    0.69
  -5  -3 -11    1.38    0.64
  -5  -3  11    1.97    0.78
  -5   3 -11    3.30    0.74
   5  -3 -11    1.84    0.60
  -6   3  11    4.67    0.99
  -6  -3 -11    6.23    0.94
   6  -3  11    4.90    0.74
  -6  -3 -11    4.54    0.81
   6   3 -11    6.16    0.75
  -6  -3  11    2.95    0.97
  -6   3 -11    3.99    0.83
   6  -3 -11    5.01    0.77
   7   3 -11   -0.07    0.56
  -7   3  11    0.46    0.98
  -7  -3 -11    0.88    0.79
  -7  -3 -11    0.09    0.73
   7  -3  11   -1.54    0.51
  -7  -3  11   -0.89    0.99
  -7   3 -11   -0.07    0.75
   0   4 -11    4.06    0.56
   0  -4 -11    3.27    0.45
   0   4 -11    3.39    0.52
   0  -4 -11    3.84    0.45
   0  -4  11    2.90    0.53
   0  -4 -11    3.23    0.46
  -1  -4 -11   15.15    0.82
  -1  -4 -11   15.49    0.79
  -1   4  11   15.70    0.80
   1  -4  11   16.45    0.89
   1   4 -11   15.58    0.89
   1  -4 -11   16.41    0.71
  -1   4 -11   15.30    0.77
  -1   4 -11   16.95    0.91
  -1  -4  11   16.15    0.94
   1   4  11   15.95    0.73
   1  -4 -11   14.97    0.88
  -2  -4 -11   21.86    0.95
  -2  -4 -11   21.10    1.04
  -2   4  11   22.15    1.03
  -2   4 -11   21.45    1.08
   2  -4 -11   20.97    0.99
  -2   4 -11   21.57    0.84
  -2  -4  11   20.98    1.08
   2   4  11   21.66    0.80
  -2  -4  11   20.66    1.12
   3   4 -11   16.12    1.05
  -3   4  11   16.30    1.06
   3  -4  11   20.50    1.09
  -3  -4 -11   17.94    0.94
  -3  -4 -11   17.40    1.04
  -3  -4  11   16.52    1.22
  -3  -4  11   15.99    0.96
   3  -4 -11   17.75    1.03
  -3   4 -11   15.96    0.71
  -3   4 -11   17.22    1.09
  -4   4  11    8.49    0.91
  -4  -4 -11    8.88    0.85
   4   4 -11   10.02    0.82
   4  -4  11   10.71    0.89
  -4  -4 -11    7.35    0.79
  -4   4 -11    9.44    0.91
   4  -4 -11    8.97    0.81
  -4  -4  11    9.06    0.96
  -5  -4 -11   15.49    1.16
  -5   4  11   13.55    1.23
  -5  -4 -11   15.69    1.18
   5   4 -11   15.15    1.08
   5  -4  11   14.35    1.07
  -5   4 -11   14.90    1.24
   5  -4 -11   14.31    1.15
  -5  -4  11   11.83    1.23
  -6  -4 -11    1.33    0.69
   6   4 -11    0.75    0.56
  -6  -4 -11    1.18    0.67
  -6   4  11    0.68    0.81
   6  -4  11    1.00    0.58
  -6  -4  11    0.18    0.86
  -6   4 -11    1.46    0.70
   0  -5 -11    0.62    0.37
   0   5  11   -0.03    0.33
   0   5  11    0.83    0.31
   0  -5  11    0.27    0.47
   0   5 -11    0.97    0.42
   0   5 -11    0.98    0.42
  -1   5  11   13.20    0.74
   1  -5  11   11.48    0.89
  -1  -5 -11   12.95    0.85
   1   5 -11   14.47    0.98
  -1  -5 -11   13.98    0.73
  -1  -5  11   14.40    1.00
   1   5  11   13.25    0.75
   1  -5 -11   13.10    0.68
  -1   5 -11   12.12    0.77
  -1   5 -11   13.76    0.89
  -2   5  11   12.28    0.88
  -2  -5 -11   12.54    0.90
  -2  -5 -11   10.90    0.74
   2  -5  11   11.43    0.89
   2   5 -11   12.36    0.89
  -2   5 -11   11.60    0.93
   2   5  11   12.50    0.71
  -2  -5  11   12.36    1.00
  -2   5 -11   11.48    0.74
  -2  -5  11   11.85    0.97
   3   5 -11    1.06    0.46
  -3  -5 -11    0.79    0.40
  -3  -5 -11    1.99    0.56
  -3   5  11    1.05    0.50
   3  -5  11    1.28    0.50
  -3  -5  11    1.40    0.51
  -3   5 -11    0.97    0.47
  -3  -5  11    1.14    0.61
  -3   5 -11    1.86    0.35
   4   5 -11   12.90    0.99
   4  -5  11   13.39    1.03
  -4  -5 -11   13.76    0.98
  -4  -5 -11   12.47    1.00
  -4   5  11   12.87    1.08
  -4   5 -11   12.15    1.08
  -4  -5  11   13.14    0.90
  -4  -5  11   12.76    1.21
  -5  -5 -11    8.41    0.87
  -5   5  11    6.37    0.76
  -5   5  11    5.85    0.94
  -5  -5 -11    5.26    0.81
   5   5 -11    5.72    0.75
   5  -5  11    5.88    0.80
  -5  -5  11    6.45    1.03
  -5   5 -11    6.93    0.89
  -6  -5 -11    1.76    0.68
   6  -5  11    0.87    0.59
  -6   5  11    1.09    0.84
  -6  -5 -11    1.69    0.76
  -6   5  11    2.94    0.62
   6   5 -11    2.44    0.63
  -6   5 -11    2.36    0.79
  -6  -5  11    2.18    0.96
   0  -6 -11    0.22    0.39
   0  -6  11    0.37    0.55
   0   6  11    0.63    0.40
   0   6 -11    0.30    0.43
   0   6 -11    0.61    0.42
   0   6  11    0.39    0.28
  -1  -6 -11   24.59    0.93
  -1  -6 -11   24.75    1.10
  -1   6  11   24.34    1.08
   1   6 -11   24.41    1.16
  -1   6  11   25.03    0.99
   1  -6  11   24.59    1.23
  -1  -6  11   22.35    1.21
   1   6  11   25.33    1.04
  -1   6 -11   23.19    1.14
  -1   6 -11   23.63    1.06
   1  -6 -11   24.61    0.95
  -2   6  11   26.65    1.19
  -2   6  11   28.31    1.17
   2  -6  11   29.88    1.35
  -2  -6 -11   25.81    1.23
  -2  -6 -11   27.43    1.02
   2   6 -11   26.14    1.23
  -2   6 -11   25.75    1.06
  -2   6 -11   24.86    1.18
  -2  -6  11   25.87    1.26
   2   6  11   27.16    1.04
  -2  -6  11   28.46    1.32
  -3   6  11   15.02    0.95
   3  -6  11   14.14    1.03
  -3  -6 -11   14.35    0.99
  -3  -6 -11   13.29    0.79
  -3   6  11   13.51    0.95
   3   6 -11   13.76    0.97
  -3  -6  11   15.10    1.13
  -3   6 -11   14.49    0.78
  -3   6 -11   14.55    0.98
  -3  -6  11   15.07    0.99
  -4   6  11    2.58    0.58
   4   6 -11    3.21    0.61
   4  -6  11    3.05    0.67
  -4   6  11    1.47    0.61
  -4  -6 -11    2.06    0.64
  -4  -6  11    2.25    0.76
  -4   6 -11    2.34    0.64
  -4  -6  11    1.99    0.56
   5   6 -11    4.43    0.71
   5  -6  11    2.51    0.68
  -5   6  11    4.57    0.71
  -5   6  11    3.64    0.83
  -5  -6 -11    3.86    0.76
  -5   6 -11    3.69    0.77
  -5  -6  11    1.80    0.86
  -6   6  11    1.50    0.89
   6   6 -11    2.41    0.65
  -6   6  11    2.50    0.65
  -6  -6 -11    2.34    0.79
   6  -6  11    1.45    0.70
  -6  -6  11    0.93    0.93
  -6   6 -11    2.09    0.77
   0   7  11   30.46    1.23
   0   7 -11   30.94    1.26
   0  -7 -11   29.33    1.19
   0   7 -11   29.68    1.26
   0  -7  11   28.43    1.42
   1   7 -11   47.75    1.64
   1  -7  11   47.45    1.74
  -1  -7 -11   44.00    1.56
  -1   7  11   47.96    1.45
  -1   7  11   44.42    1.58
  -1   7 -11   48.09    1.64
   1  -7 -11   47.64    1.41
   1   7  11   47.69    1.55
  -1   7 -11   45.93    1.53
  -1  -7  11   46.07    1.66
  -1  -7  11   46.97    1.76
   2   7 -11   17.10    1.05
   2  -7  11   17.55    1.14
  -2  -7 -11   17.22    1.03
  -2   7  11   18.27    1.04
  -2   7  11   17.40    0.93
  -2   7 -11   15.13    0.95
  -2   7 -11   15.87    0.87
   2   7  11   16.10    0.90
  -2  -7  11   16.81    1.05
  -2  -7  11   17.79    1.15
  -3  -7 -11    3.89    0.70
   3  -7  11    3.36    0.70
  -3   7  11    1.70    0.52
   3   7 -11    2.11    0.57
  -3   7  11    2.24    0.57
  -3   7 -11    2.57    0.45
  -3   7 -11    2.66    0.58
  -3  -7  11    3.39    0.67
  -3  -7  11    2.29    0.64
  -4  -7 -11    0.38    0.58
  -4   7  11   -0.14    0.58
  -4   7  11    0.15    0.51
   4   7 -11    0.79    0.53
   4  -7  11   -0.49    0.55
  -4  -7  11    0.19    0.67
  -4  -7  11    0.51    0.54
  -4   7 -11    0.28    0.53
  -5   7  11    7.80    1.00
   5   7 -11    9.54    0.91
  -5   7  11   10.19    1.01
   5  -7  11   12.17    1.11
  -5  -7 -11    7.82    0.93
  -5   7 -11    8.34    1.02
  -5  -7  11    8.32    1.15
   6  -7  11    2.75    0.82
  -6   7  11    1.91    0.90
   6   7 -11    4.01    0.74
  -6  -7 -11    4.92    0.91
  -6   7  11    4.94    0.87
  -6   7 -11    3.93    0.90
  -6  -7  11    2.86    1.07
   0   8 -11   33.99    1.35
   0   8  11   35.32    1.39
   0  -8  11   34.00    1.58
   0  -8 -11   35.69    1.32
   0   8 -11   35.92    1.40
   1   8 -11   10.58    0.85
  -1   8  11   11.29    0.89
   1  -8  11    8.06    0.91
  -1  -8 -11   11.03    0.92
   1   8  11   10.17    0.80
  -1   8 -11   10.03    0.80
  -1   8 -11   10.25    0.85
  -1  -8  11   12.10    0.88
   1  -8 -11   10.28    0.73
  -1  -8  11   10.41    0.96
   2   8 -11    2.12    0.57
  -2   8  11    1.49    0.52
   2  -8  11    1.54    0.64
  -2  -8 -11    1.61    0.58
  -2   8 -11    2.17    0.53
  -2  -8  11    1.62    0.55
  -2   8 -11    2.07    0.49
   2   8  11    1.21    0.47
  -2  -8  11    1.94    0.66
   3   8 -11   13.00    1.06
   3  -8  11   12.41    1.09
  -3   8  11   14.76    1.09
  -3  -8 -11   12.76    1.04
  -3  -8  11   14.06    1.16
  -3  -8  11   13.37    1.12
  -3   8 -11   12.59    1.00
  -3   8 -11   13.35    0.86
  -4   8  11    4.65    0.76
  -4  -8 -11    5.07    0.81
   4   8 -11    5.59    0.76
   4  -8  11    5.52    0.88
  -4  -8  11    2.52    0.78
  -4  -8  11    6.08    0.80
  -4   8 -11    4.81    0.74
   5  -8  11    2.51    0.78
  -5   8  11    4.70    0.81
   5   8 -11    2.52    0.66
  -5  -8 -11    4.90    0.87
  -5  -8  11    2.38    0.93
  -5   8 -11    4.67    0.86
   0   9 -11   12.66    0.88
   0   9  11   12.41    0.98
   0  -9 -11   12.73    0.96
   0   9 -11   13.01    1.00
   0  -9  11   10.52    1.07
   1  -9  11    8.73    0.98
   1   9 -11    9.72    0.85
  -1   9  11    8.90    0.83
  -1  -9 -11    8.87    0.84
   1  -9 -11    8.62    0.72
  -1  -9  11    7.64    0.76
  -1   9 -11    7.89    0.77
  -1   9 -11    8.37    0.77
  -1  -9  11    8.75    0.97
   1   9  11    6.98    0.75
  -2  -9 -11    1.35    0.59
   2  -9  11    2.00    0.77
  -2   9  11    2.68    0.65
   2   9 -11    2.35    0.60
  -2  -9  11    2.47    0.74
  -2   9 -11    1.83    0.51
  -2  -9  11    1.95    0.58
   2   9  11    1.43    0.55
  -2   9 -11    2.46    0.54
   3  -9  11   -0.13    0.63
  -3  -9 -11    0.63    0.62
   3   9 -11   -0.24    0.51
  -3   9  11   -0.12    0.51
  -3   9 -11    1.05    0.51
  -3  -9  11   -0.15    0.56
  -3   9 -11    0.47    0.45
  -3  -9  11    1.38    0.70
  -4  -9 -11    2.55    0.72
   4   9 -11    3.71    0.71
   4  -9  11    2.17    0.78
  -4   9  11    4.00    0.77
  -4   9 -11    3.50    0.70
  -4  -9  11    2.33    0.82
  -4  -9  11    4.68    0.81
  -5  -9 -11    5.62    0.94
   5   9 -11    4.89    0.77
  -5   9  11    5.08    0.92
   5  -9  11    5.15    0.99
  -5   9 -11    8.56    1.04
   0 -10  11   27.85    1.57
   0  10 -11   27.70    1.25
   0  10 -11   30.34    1.43
   0  10  11   29.43    1.41
   0 -10 -11   28.20    1.31
   1  10 -11    2.33    0.65
  -1  10  11    2.70    0.65
   1 -10  11    2.85    0.81
  -1 -10 -11    2.46    0.65
  -1  10 -11    2.54    0.53
  -1  10 -11    2.94    0.62
  -1 -10  11    1.94    0.78
   1  10  11    2.48    0.64
   2  10 -11    3.17    0.69
  -2  10  11    4.43    0.77
   2 -10  11    3.97    0.89
  -2 -10 -11    5.29    0.78
  -2 -10  11    5.56    0.88
  -2  10 -11    4.05    0.63
  -2  10 -11    4.49    0.67
   2  10  11    3.98    0.72
  -3 -10 -11    0.05    0.62
   3 -10  11    0.60    0.74
   3  10 -11   -0.47    0.50
  -3  10  11   -0.37    0.57
  -3 -10  11    0.17    0.65
  -3  10 -11    0.64    0.46
  -3  10 -11    0.24    0.45
   4  10 -11    3.76    0.77
  -4  10  11    2.16    0.77
   4 -10  11    2.83    0.90
  -4 -10 -11    3.79    0.85
  -4 -10  11    3.11    0.82
  -4  10 -11    3.71    0.72
   0  11 -11    1.29    0.57
   0  11  11    1.20    0.60
   0 -11  11    0.17    0.73
   0 -11 -11    1.55    0.57
  -1 -11 -11    6.79    0.86
  -1  11  11    6.23    0.86
   1 -11  11    6.27    0.98
   1  11 -11    6.79    0.83
   1  11  11    5.61    0.85
  -1  11 -11    7.76    0.85
  -1 -11  11    5.00    0.91
  -2 -11 -11    8.14    0.95
   2 -11  11    5.61    0.99
   2  11 -11    8.53    0.91
  -2  11  11    9.31    1.07
  -2  11 -11    9.01    0.88
  -2 -11  11    8.00    1.05
   3  11 -11    0.99    0.62
  -3 -11 -11    0.62    0.70
   3 -11  11    1.24    0.81
  -3  11  11   -0.25    0.65
  -3  11 -11   -0.72    0.49
  -3 -11  11    0.36    0.74
  -4 -11 -11    8.07    1.05
  -4  11  11    5.40    0.99
   4  11 -11    5.94    0.88
   4 -11  11    6.54    1.11
  -4 -11  11    6.91    1.02
   0  12 -11    1.20    0.59
   0 -12 -11    0.46    0.57
   0  12  11   -0.47    0.64
   0 -12  11    0.44    0.72
   1  12 -11    0.60    0.59
  -1 -12 -11    2.08    0.69
   1 -12  11    0.54    0.81
  -1  12  11    1.18    0.69
  -1  12 -11    0.32    0.58
   1  12  11   -0.05    0.66
  -1 -12  11    0.95    0.78
  -2  12  11    1.81    0.81
   2 -12  11    2.19    0.92
   2  12 -11    3.28    0.74
  -2 -12 -11    2.92    0.80
  -2  12 -11    2.70    0.67
  -2 -12  11    2.05    0.87
   3 -12  11    2.26    0.98
  -3 -12 -11    3.95    0.90
  -3  12  11    4.50    0.97
   3  12 -11    5.92    0.87
  -3  12 -11    4.76    0.77
  -3 -12  11    3.60    0.92
   0  13  11   -0.20    0.73
   0 -13 -11    1.23    0.85
   0  13 -11    0.97    0.64
   0 -13  11   -0.56    0.78
  -1 -13 -11   14.71    1.27
   1  13 -11   15.30    1.25
   1 -13  11   13.62    1.42
  -1  13  11   12.99    1.31
   1  13  11   14.45    1.30
  -1 -13  11   16.66    1.46
  -1  13 -11   13.06    1.19
  -2 -13 -11    0.67    0.73
   2  13 -11    1.80    0.71
   2 -13  11   -0.02    0.87
  -2  13  11    0.74    0.78
  -2 -13  11    0.95    0.86
  -2  13 -11    1.24    0.64
   0   0  12    0.00    0.29
   0   0 -12   -0.10    0.32
   0   0 -12    0.66    0.31
   1   0 -12    6.67    0.57
  -1   0 -12    7.93    0.69
  -1   0  12    7.29    0.52
   1   0  12    7.41    0.63
  -1   0  12    7.31    0.70
  -1   0 -12    7.50    0.55
  -2   0 -12   39.26    1.08
  -2   0  12   40.68    1.49
  -2   0 -12   38.95    1.43
   2   0  12   36.26    1.31
  -2   0  12   39.29    1.14
   3   0 -12    0.85    0.48
  -3   0  12    1.68    0.59
  -3   0 -12    1.13    0.52
   3   0  12    1.41    0.47
  -4   0  12   26.50    1.49
  -4   0 -12   27.18    1.35
   4   0  12   26.91    1.20
   4   0 -12   26.77    1.24
   5   0 -12   -0.38    0.47
  -5   0 -12    0.04    0.58
   5   0  12    0.21    0.44
  -5   0  12   -0.23    0.64
   6   0 -12   -0.59    0.53
  -6   0  12   -0.82    0.71
  -6   0 -12    1.58    0.73
   6   0  12    0.62    0.50
   7   0 -12    0.52    0.66
  -7   0  12    0.42    0.96
  -7   0 -12    1.54    0.82
   7   0  12    1.93    0.67
   0   1 -12   13.08    0.82
   0  -1 -12   12.08    0.77
   0  -1 -12   12.82    0.70
   0   1 -12   12.35    0.71
   0   1  12   11.35    0.64
   0  -1  12   12.33    0.70
  -1  -1 -12   30.93    0.99
  -1   1  12   31.22    1.23
  -1   1  12   30.50    0.98
   1   1 -12   31.52    1.14
   1  -1  12   31.93    1.14
  -1  -1 -12   31.54    1.21
  -1   1 -12   30.75    1.01
   1   1  12   29.33    1.09
  -1   1 -12   29.18    1.20
   1  -1 -12   31.14    1.13
  -1  -1  12   32.13    1.06
  -2  -1 -12    0.46    0.45
  -2  -1 -12    0.68    0.24
   2  -1  12    0.10    0.37
  -2   1  12    0.38    0.43
  -2  -1 -12    0.78    0.42
  -2   1  12    0.78    0.28
  -2  -1  12    0.84    0.36
  -2  -1  12    0.25    0.24
  -2   1 -12    0.87    0.28
   2  -1 -12    0.16    0.27
  -2   1 -12    1.16    0.45
  -3  -1 -12   26.66    1.21
  -3   1  12   24.88    1.30
   3   1 -12   25.20    1.19
   3  -1  12   24.54    1.13
  -3  -1 -12   24.64    1.22
  -3  -1  12   26.51    1.38
  -3   1 -12   24.46    1.23
   3  -1 -12   24.84    1.16
   4   1 -12    2.43    0.53
  -4  -1 -12    2.69    0.62
  -4  -1 -12    3.15    0.63
  -4   1  12    2.20    0.67
   4  -1  12    3.45    0.56
   4  -1 -12    2.49    0.56
  -4   1 -12    2.67    0.62
  -4  -1  12    1.93    0.66
  -5   1  12   18.39    1.38
   5   1 -12   16.22    1.12
   5  -1  12   16.66    1.11
  -5  -1 -12   17.87    1.24
  -5  -1  12   17.79    1.48
  -5   1 -12   17.09    1.31
   5  -1 -12   17.65    1.18
   6  -1  12    3.46    0.68
  -6   1  12    2.24    0.87
   6   1 -12    3.07    0.68
  -6  -1 -12    3.56    0.83
  -6  -1  12    3.10    0.91
   6  -1 -12    2.52    0.68
   6   1  12    3.78    0.67
  -6   1 -12    4.79    0.91
  -7  -1 -12    3.83    0.92
   7   1 -12    3.21    0.76
   7  -1  12    2.79    0.75
  -7   1  12    2.60    1.09
  -7  -1  12    1.84    1.06
   7   1  12    4.40    0.78
  -7   1 -12    3.41    0.91
   7  -1 -12    2.05    0.72
   0  -2 -12   74.11    1.93
   0   2 -12   73.31    1.93
   0  -2  12   75.27    1.98
   0  -2 -12   73.26    2.04
  -1  -2 -12   20.00    0.93
  -1   2  12   19.22    0.95
  -1  -2 -12   18.64    0.88
   1   2 -12   18.76    0.93
  -1   2  12   18.30    0.73
  -1  -2 -12   19.13    0.78
   1  -2  12   18.62    0.89
  -1  -2  12   20.21    0.89
   1  -2 -12   20.76    0.93
  -1   2 -12   18.84    0.81
   2  -2  12   32.46    1.21
  -2  -2 -12   30.22    0.93
  -2  -2 -12   30.58    1.21
  -2   2  12   29.95    0.88
  -2  -2 -12   31.12    1.22
  -2   2  12   29.59    1.27
  -2   2 -12   30.32    0.97
   2  -2 -12   30.65    1.18
  -2  -2  12   30.42    1.12
  -3   2  12   29.09    1.41
  -3  -2 -12   30.18    1.33
  -3  -2 -12   30.15    1.29
   3  -2  12   30.76    1.29
   3   2 -12   29.86    1.31
  -3  -2  12   32.98    1.54
   3  -2 -12   30.51    1.30
  -3  -2  12   27.77    1.09
  -3   2 -12   30.40    1.37
  -4  -2 -12    8.92    0.85
  -4   2  12   11.13    1.03
   4   2 -12   10.84    0.91
  -4  -2 -12   12.02    1.00
   4  -2  12   10.57    0.91
  -4  -2  12   10.42    1.04
  -4   2 -12   10.90    0.99
   4  -2 -12   12.84    0.98
   5   2 -12    2.86    0.62
  -5  -2 -12    2.59    0.70
   5  -2  12    4.04    0.69
  -5   2  12    2.15    0.79
  -5  -2 -12    2.37    0.67
  -5  -2  12    1.87    0.81
  -5   2 -12    3.01    0.74
   5  -2 -12    2.63    0.63
   6   2 -12   15.46    1.17
  -6  -2 -12   14.03    1.18
   6  -2  12   15.62    1.13
  -6  -2 -12   14.54    1.36
  -6   2  12   13.93    1.38
   6  -2 -12   16.02    1.24
  -6  -2  12   14.76    1.42
  -6   2 -12   16.30    1.35
   0  -3 -12   35.77    1.19
   0  -3 -12   36.96    1.27
   0   3 -12   35.37    1.23
   0  -3  12   35.40    1.25
   0  -3 -12   34.75    1.16
   0   3 -12   36.65    1.37
   1   3 -12   17.79    0.94
   1  -3  12   17.60    0.91
  -1  -3 -12   20.51    0.81
  -1   3  12   18.51    0.93
  -1  -3 -12   19.39    0.91
  -1  -3 -12   19.29    0.94
  -1  -3  12   18.24    0.93
  -1   3 -12   18.51    0.98
   1  -3 -12   17.77    0.92
  -1   3 -12   17.48    0.81
  -2   3  12    3.38    0.56
  -2   3  12    3.17    0.32
  -2  -3 -12    2.64    0.48
  -2  -3 -12    3.18    0.57
   2  -3  12    3.54    0.54
  -2  -3  12    3.69    0.56
  -2  -3  12    3.27    0.60
   2   3  12    3.84    0.38
  -2   3 -12    2.94    0.57
  -2   3 -12    3.63    0.42
   2  -3 -12    3.16    0.55
  -3   3  12    0.83    0.53
  -3  -3 -12    0.82    0.51
   3   3 -12    0.56    0.45
   3  -3  12    0.82    0.48
  -3  -3 -12    1.11    0.47
  -3  -3  12    1.40    0.59
   3  -3 -12    0.31    0.45
  -3  -3  12    0.57    0.46
  -3   3 -12    0.39    0.47
   4  -3  12    4.13    0.65
  -4   3  12    2.60    0.69
  -4  -3 -12    3.87    0.67
  -4  -3 -12    4.17    0.66
   4   3 -12    4.38    0.64
   4  -3 -12    2.88    0.59
  -4  -3  12    3.90    0.79
  -4   3 -12    3.56    0.70
   5  -3  12   12.37    1.06
  -5  -3 -12   13.61    1.10
  -5   3  12   12.74    1.18
   5   3 -12   12.98    1.07
  -5  -3 -12   14.26    1.14
  -5   3 -12   12.20    1.12
   5  -3 -12   13.69    1.12
  -5  -3  12   14.19    1.33
  -6  -3 -12    0.63    0.65
  -6   3  12   -0.48    0.74
   6   3 -12    1.33    0.58
  -6  -3 -12    0.81    0.68
   6  -3  12   -0.17    0.55
  -6   3 -12    1.37    0.72
   6  -3 -12   -0.54    0.55
  -6  -3  12   -1.02    0.72
   0  -4  12   40.55    1.42
   0  -4 -12   41.64    1.34
   0  -4 -12   40.68    1.34
   0   4 -12   38.78    1.34
   0  -4 -12   39.99    1.29
   0   4 -12   40.99    1.47
   1  -4  12   13.37    0.91
   1   4 -12   13.97    0.88
  -1  -4 -12   14.31    0.86
  -1  -4 -12   15.07    0.83
  -1   4  12   13.33    0.81
   1   4  12   14.92    0.75
  -1   4 -12   12.43    0.90
   1  -4 -12   14.11    0.69
  -1   4 -12   15.19    0.84
   1  -4 -12   13.90    0.87
  -1  -4  12   14.01    0.93
  -2   4  12   21.18    1.09
  -2  -4 -12   22.21    1.08
  -2  -4 -12   20.69    1.00
   2   4 -12   21.40    1.08
   2  -4  12   21.77    1.10
   2  -4 -12   22.50    1.11
  -2  -4  12   21.59    1.09
  -2   4 -12   21.79    1.11
  -2   4 -12   21.44    0.89
   2   4  12   22.27    0.84
  -2  -4  12   22.35    1.18
  -3   4  12   23.55    1.23
  -3  -4 -12   20.70    1.03
   3  -4  12   21.28    1.09
  -3  -4 -12   22.31    1.15
   3   4 -12   21.83    1.12
   3  -4 -12   21.09    1.11
  -3  -4  12   21.22    1.03
  -3  -4  12   19.68    1.25
  -3   4 -12   20.58    1.15
   4  -4  12   23.42    1.24
   4   4 -12   23.69    1.22
  -4  -4 -12   24.90    1.23
  -4  -4 -12   23.31    1.27
  -4   4  12   22.34    1.36
  -4  -4  12   23.39    1.49
  -4   4 -12   22.80    1.30
   4  -4 -12   25.56    1.30
   5  -4  12    3.38    0.68
   5   4 -12    3.54    0.67
  -5  -4 -12    5.03    0.80
  -5   4  12    3.35    0.80
  -5  -4 -12    4.83    0.75
  -5   4 -12    3.73    0.78
  -5  -4  12    1.77    0.84
   5  -4 -12    2.73    0.66
  -6   4  12    2.34    0.90
   6  -4  12    2.55    0.71
  -6  -4 -12    4.11    0.85
  -6  -4 -12    3.73    0.80
   6   4 -12    3.42    0.70
  -6   4 -12    4.30    0.90
  -6  -4  12    3.80    1.05
   0  -5  12   24.70    1.18
   0   5  12   24.50    0.98
   0   5  12   25.45    1.03
   0  -5 -12   26.08    1.04
   0   5 -12   26.11    1.13
   0   5 -12   23.86    1.15
   1  -5  12  122.74    3.17
  -1  -5 -12  125.61    2.99
   1   5 -12  124.72    3.11
  -1  -5 -12  123.53    3.06
  -1   5  12  123.08    3.04
  -1   5 -12  123.28    3.21
  -1   5 -12  122.47    2.99
   1   5  12  127.36    2.97
   1  -5 -12  121.24    2.85
  -1  -5  12  125.15    3.18
  -2  -5 -12   66.06    2.03
   2   5 -12   65.85    2.00
  -2  -5 -12   64.72    1.88
   2  -5  12   69.79    2.07
  -2   5  12   66.16    2.00
  -2   5 -12   64.45    1.80
   2   5  12   68.22    1.78
  -2   5 -12   68.00    2.11
  -2  -5  12   63.75    2.14
  -2  -5  12   67.20    2.05
   2  -5 -12   68.45    2.00
  -3   5  12    5.61    0.72
   3   5 -12    6.62    0.69
  -3  -5 -12    5.51    0.70
  -3  -5 -12    6.11    0.63
   3  -5  12    5.77    0.69
  -3   5 -12    6.86    0.79
  -3  -5  12    5.46    0.67
  -3  -5  12    4.20    0.72
  -3   5 -12    6.50    0.76
   3  -5 -12    6.84    0.70
   4  -5  12    7.26    0.82
   4   5 -12    6.37    0.75
  -4   5  12    6.08    0.83
  -4  -5 -12    6.75    0.74
  -4  -5 -12    5.52    0.76
  -4  -5  12    6.63    0.96
  -4   5 -12    6.36    0.82
   5   5 -12    5.40    0.73
   5  -5  12    5.79    0.82
  -5  -5 -12    7.22    0.91
  -5   5  12    4.22    0.90
  -5  -5 -12    5.50    0.75
  -5   5 -12    7.35    0.96
  -5  -5  12    3.87    0.95
  -6   5  12    1.51    0.86
  -6   5  12    1.39    0.60
  -6  -5 -12    1.93    0.77
   6   5 -12    2.71    0.69
   6  -5  12    1.45    0.67
  -6   5 -12    1.77    0.77
  -6  -5  12    1.07    0.96
   0   6 -12   40.24    1.44
   0  -6  12   39.91    1.57
   0   6  12   41.47    1.31
   0   6  12   40.47    1.40
   0  -6 -12   39.93    1.37
   0   6 -12   40.03    1.50
  -1  -6 -12    4.73    0.49
   1  -6  12    5.27    0.76
   1   6 -12    5.31    0.65
  -1   6  12    4.87    0.59
  -1  -6 -12    5.14    0.63
  -1   6  12    5.33    0.57
  -1   6 -12    5.54    0.59
  -1  -6  12    4.49    0.75
   1   6  12    4.34    0.53
  -1   6 -12    4.54    0.63
   1  -6 -12    4.96    0.50
   2  -6  12    2.15    0.59
   2   6 -12    2.29    0.54
  -2   6  12    1.76    0.48
  -2  -6 -12    2.25    0.41
  -2  -6 -12    2.08    0.56
  -2   6  12    2.26    0.48
  -2   6 -12    2.14    0.51
   2   6  12    1.61    0.41
  -2  -6  12    2.21    0.57
  -2   6 -12    2.91    0.46
  -2  -6  12    1.50    0.61
  -3   6  12    4.37    0.66
   3   6 -12    5.12    0.68
   3  -6  12    5.75    0.76
  -3   6  12    5.10    0.65
  -3  -6 -12    5.94    0.75
  -3   6 -12    5.08    0.53
  -3  -6  12    4.59    0.77
  -3  -6  12    5.43    0.69
  -3   6 -12    4.72    0.69
  -4  -6 -12    2.53    0.70
  -4   6  12    3.14    0.61
   4  -6  12    3.06    0.69
  -4   6  12    3.32    0.70
   4   6 -12    3.57    0.65
  -4   6 -12    2.21    0.63
  -4  -6  12    4.67    0.91
  -4  -6  12    2.50    0.78
  -5   6  12    0.38    0.52
  -5   6  12   -0.05    0.67
   5   6 -12    0.18    0.53
  -5  -6 -12    0.83    0.66
   5  -6  12    0.98    0.64
  -5   6 -12    1.50    0.66
  -5  -6  12   -1.28    0.75
  -6   6  12    9.45    1.26
  -6  -6 -12   12.10    1.19
  -6   6  12   10.18    1.03
   6  -6  12    9.64    1.07
   6   6 -12   10.60    0.99
  -6  -6  12    8.71    1.30
  -6   6 -12   10.06    1.16
   0   7 -12    6.39    0.69
   0   7  12    6.13    0.64
   0   7 -12    6.02    0.67
   0  -7  12    6.89    0.86
   0  -7 -12    6.47    0.63
  -1   7  12   26.31    1.19
   1  -7  12   24.58    1.34
  -1  -7 -12   26.43    1.19
   1   7 -12   24.62    1.18
  -1  -7  12   25.09    1.23
  -1  -7  12   23.01    1.32
  -1   7 -12   23.95    1.10
   1   7  12   25.88    1.12
  -1   7 -12   26.09    1.20
   1  -7 -12   24.31    0.98
  -2  -7 -12    2.78    0.61
   2   7 -12    3.94    0.63
  -2   7  12    2.59    0.51
   2  -7  12    3.46    0.71
  -2   7  12    3.87    0.60
  -2  -7  12    2.89    0.70
  -2   7 -12    3.95    0.62
  -2  -7  12    3.84    0.64
   2   7  12    2.51    0.48
  -2   7 -12    3.54    0.51
  -3   7  12    1.33    0.52
  -3   7  12    1.19    0.51
   3   7 -12    0.92    0.53
  -3  -7 -12    1.16    0.58
   3  -7  12    0.22    0.59
  -3   7 -12    1.44    0.41
  -3  -7  12    1.05    0.60
  -3   7 -12    2.14    0.57
  -3  -7  12    0.08    0.55
  -4   7  12   -0.56    0.56
  -4   7  12    0.89    0.54
   4  -7  12   -1.03    0.54
   4   7 -12   -0.09    0.47
  -4  -7 -12   -0.11    0.56
  -4  -7  12    0.96    0.55
  -4   7 -12    0.02    0.51
  -4  -7  12    0.00    0.64
   5   7 -12    7.13    0.85
  -5   7  12    9.24    0.98
  -5   7  12    6.66    0.98
  -5  -7 -12    7.43    0.97
   5  -7  12    5.89    0.93
  -5   7 -12    7.91    1.00
  -5  -7  12    5.19    1.05
   0   8 -12   47.48    1.64
   0  -8  12   47.43    1.87
   0   8  12   46.79    1.64
   0  -8 -12   45.20    1.53
   0   8 -12   45.19    1.65
  -1  -8 -12    2.87    0.60
   1  -8  12    2.90    0.71
  -1   8  12    1.90    0.52
   1   8 -12    2.07    0.54
  -1   8 -12    1.45    0.47
  -1   8 -12    2.94    0.56
   1   8  12    1.76    0.51
  -1  -8  12    2.41    0.71
  -1  -8  12    2.30    0.55
   1  -8 -12    2.17    0.54
  -2  -8 -12    6.59    0.79
   2   8 -12    5.90    0.73
  -2   8  12    7.14    0.78
   2  -8  12    5.08    0.81
  -2  -8  12    4.32    0.78
  -2   8 -12    4.21    0.59
   2   8  12    3.91    0.60
  -2  -8  12    5.74    0.77
  -2   8 -12    6.73    0.78
  -3   8  12   20.27    1.24
  -3  -8 -12   19.10    1.22
   3   8 -12   18.15    1.23
   3  -8  12   18.24    1.28
  -3   8 -12   18.72    0.98
  -3  -8  12   18.05    1.27
  -3  -8  12   19.41    1.25
  -3   8 -12   20.04    1.21
  -4  -8 -12    4.42    0.80
   4  -8  12    3.32    0.84
  -4   8  12    4.99    0.80
   4   8 -12    3.76    0.70
  -4  -8  12    3.08    0.85
  -4  -8  12    5.35    0.79
  -4   8 -12    4.17    0.74
   5  -8  12    1.24    0.77
   5   8 -12    2.10    0.66
  -5  -8 -12    1.94    0.75
  -5   8  12    0.76    0.68
  -5   8 -12    1.81    0.73
  -5  -8  12    0.66    0.89
   0  -9  12   14.84    1.21
   0   9 -12   14.32    1.05
   0  -9 -12   12.41    0.93
   0   9  12   12.88    1.00
   0   9 -12   13.11    0.91
   1   9 -12    1.81    0.60
   1  -9  12    1.89    0.72
  -1  -9 -12    1.08    0.56
  -1   9  12    0.97    0.53
  -1  -9  12    1.51    0.52
  -1   9 -12    1.49    0.53
   1   9  12    1.48    0.53
  -1   9 -12    2.05    0.53
  -1  -9  12    1.37    0.74
   2  -9  12    4.68    0.88
  -2   9  12    2.77    0.66
  -2  -9 -12    3.44    0.72
   2   9 -12    3.89    0.68
  -2   9 -12    4.06    0.66
   2   9  12    2.77    0.73
  -2  -9  12    3.67    0.69
  -2   9 -12    3.05    0.57
  -2  -9  12    1.39    0.72
  -3   9  12    3.00    0.70
  -3  -9 -12    3.01    0.72
   3  -9  12    2.91    0.80
   3   9 -12    3.52    0.70
  -3  -9  12    2.55    0.74
  -3   9 -12    2.39    0.51
  -3   9 -12    3.11    0.66
  -3  -9  12    2.06    0.68
   4   9 -12    5.43    0.79
  -4   9  12    3.91    0.80
  -4  -9 -12    5.64    0.88
   4  -9  12    4.10    0.91
  -4   9 -12    4.53    0.80
  -4  -9  12    3.63    0.78
  -4  -9  12    2.08    0.84
   5   9 -12   11.77    1.07
  -5   9  12   14.20    1.27
  -5  -9 -12   12.33    1.20
   5  -9  12   12.77    1.30
  -5   9 -12   13.45    1.26
   0  10 -12   16.36    1.14
   0 -10 -12   19.75    1.10
   0 -10  12   16.82    1.36
   0  10 -12   17.68    1.05
   0  10  12   16.82    1.16
   1 -10  12   11.77    1.15
  -1  10  12   13.76    1.16
   1  10 -12   11.92    1.00
  -1 -10 -12   13.95    1.08
  -1 -10  12   12.85    1.19
  -1  10 -12   14.74    1.07
  -1  10 -12   12.52    0.95
  -1 -10  12   12.32    1.02
   1  10  12   11.45    0.96
  -2 -10 -12    4.45    0.77
  -2  10  12    5.48    0.83
   2 -10  12    3.04    0.86
   2  10 -12    4.19    0.73
  -2  10 -12    4.81    0.69
  -2 -10  12    3.44    0.82
  -2  10 -12    3.98    0.63
  -3  10  12    1.08    0.67
   3 -10  12    1.15    0.84
  -3 -10 -12    1.93    0.72
   3  10 -12    2.28    0.71
  -3 -10  12    1.97    0.81
  -3  10 -12    1.88    0.53
  -3  10 -12    1.70    0.57
   4 -10  12    2.79    0.95
  -4 -10 -12    2.56    0.80
   4  10 -12    2.76    0.73
  -4  10  12    2.59    0.82
  -4 -10  12    4.48    0.93
  -4  10 -12    4.73    0.83
   0  11  12    0.53    0.62
   0 -11 -12    1.79    0.61
   0 -11  12    1.18    0.78
   0  11 -12    0.86    0.56
  -1 -11 -12    1.40    0.64
   1  11 -12    0.20    0.55
   1 -11  12   -1.11    0.70
  -1  11  12   -0.30    0.56
  -1  11 -12    0.93    0.54
   1  11  12   -0.34    0.55
  -1 -11  12    0.93    0.74
   2  11 -12    9.25    0.95
  -2  11  12    8.52    1.02
  -2 -11 -12   12.12    1.09
   2 -11  12   10.35    1.19
  -2 -11  12   10.75    1.15
  -2  11 -12   10.37    0.92
  -3 -11 -12    0.72    0.74
   3 -11  12   -0.14    0.79
  -3  11  12    1.43    0.75
   3  11 -12    1.53    0.69
  -3 -11  12    1.57    0.82
  -3  11 -12    0.96    0.56
   0  12  12   -0.70    0.63
   0 -12  12    0.46    0.80
   0  12 -12    0.55    0.60
   0 -12 -12   -0.32    0.71
   1 -12  12    7.86    1.17
  -1 -12 -12    9.91    1.03
  -1  12  12    9.12    1.07
   1  12 -12    8.71    0.99
   1  12  12    8.39    1.02
  -1 -12  12    8.46    1.11
  -1  12 -12    7.81    0.90
   2  12 -12    2.63    0.75
  -2  12  12    0.82    0.75
  -2 -12 -12    1.15    0.73
   2 -12  12    0.05    0.86
  -2 -12  12    1.94    0.86
  -2  12 -12    1.38    0.59
   0 -13  12    1.28    0.87
   0  13  12    0.04    0.80
   0  13 -12    1.18    0.70
   1 -13  12    2.44    1.00
  -1 -13 -12    4.87    0.89
   1  13 -12    4.47    0.87
  -1  13  12    3.65    0.93
  -1 -13  12    3.65    1.02
  -1  13 -12    5.75    0.84
   1  13  12    2.51    0.89
   0   0 -13    0.50    0.37
   0   0 -13   -0.22    0.30
   0   0  13    0.26    0.33
  -1   0 -13    3.41    0.52
   1   0 -13    4.53    0.54
  -1   0  13    4.15    0.45
  -1   0  13    4.42    0.63
  -1   0 -13    4.27    0.45
   1   0  13    4.15    0.52
  -2   0  13   47.01    1.33
  -2   0  13   45.55    1.66
  -2   0 -13   45.27    1.61
   2   0  13   44.65    1.51
   2   0 -13   46.71    1.56
  -2   0 -13   46.81    1.27
  -3   0  13   79.09    2.48
   3   0  13   80.60    2.30
  -3   0 -13   79.81    2.40
   3   0 -13   79.98    2.29
   4   0  13   19.43    1.07
  -4   0 -13   18.90    1.20
   4   0 -13   18.40    1.09
  -4   0  13   17.57    1.27
   5   0 -13    0.69    0.53
  -5   0  13    0.11    0.67
   5   0  13    0.20    0.43
  -5   0 -13   -0.07    0.55
   6   0  13    5.50    0.79
   6   0 -13    3.48    0.73
  -6   0 -13    4.66    0.89
  -6   0  13    2.57    0.92
   0   1  13    0.65    0.32
   0  -1 -13    0.81    0.38
   0   1 -13    0.21    0.35
   0   1 -13    0.76    0.36
   0  -1 -13    0.71    0.34
   0  -1  13    0.09    0.34
  -1   1  13   16.59    0.96
  -1   1  13   16.56    0.74
   1  -1  13   17.20    0.90
  -1  -1 -13   16.11    0.93
   1   1 -13   17.29    0.90
  -1  -1 -13   17.23    0.75
   1  -1 -13   16.25    0.88
  -1  -1  13   16.69    0.83
  -1   1 -13   17.46    0.96
  -1   1 -13   17.45    0.79
   1   1  13   18.86    0.88
  -2  -1 -13   39.20    1.45
   2  -1  13   39.45    1.42
  -2   1  13   38.17    1.13
  -2  -1 -13   40.31    1.15
   2   1 -13   39.06    1.43
  -2   1  13   40.72    1.56
  -2  -1  13   41.04    1.56
  -2   1 -13   39.05    1.51
  -2  -1  13   38.99    1.25
   2  -1 -13   41.17    1.43
  -2   1 -13   40.11    1.17
   3   1 -13   13.15    0.94
   3  -1  13   12.49    0.92
  -3  -1 -13   13.36    0.98
  -3   1  13   11.03    1.05
   3  -1 -13   11.97    0.90
  -3   1 -13   11.08    0.94
  -3  -1  13   13.54    1.16
  -4   1  13   11.69    1.11
   4   1 -13    9.97    0.87
   4  -1  13   11.38    0.91
  -4  -1 -13   11.85    1.00
  -4   1 -13   11.21    0.98
   4  -1 -13   11.16    0.91
  -4  -1  13    9.73    1.03
   5  -1  13    3.63    0.67
   5   1 -13    2.90    0.63
  -5   1  13    2.27    0.82
  -5  -1 -13    3.22    0.74
  -5  -1  13    3.92    0.91
   5   1  13    4.06    0.66
   5  -1 -13    3.47    0.68
  -5   1 -13    3.61    0.76
  -6   1  13   -0.87    0.73
   6   1 -13    0.36    0.58
   6  -1  13    1.16    0.60
  -6  -1 -13    1.31    0.73
   6  -1 -13    0.10    0.57
   6   1  13    1.63    0.58
  -6   1 -13    1.16    0.70
  -6  -1  13    0.07    0.80
   0  -2  13    1.22    0.41
   0   2  13    0.31    0.30
   0  -2 -13    0.89    0.36
   0  -2 -13    0.25    0.34
   0   2 -13    0.74    0.36
  -1  -2 -13   25.16    1.11
  -1   2  13   26.59    1.15
   1  -2  13   27.13    1.12
   1   2 -13   25.39    1.09
  -1  -2 -13   24.73    1.10
  -1   2  13   26.64    0.91
  -1  -2 -13   26.78    0.97
   1  -2 -13   26.71    1.09
  -1   2 -13   25.69    0.99
  -1  -2  13   28.70    1.12
  -2  -2 -13    0.21    0.40
  -2  -2 -13    0.50    0.29
   2  -2  13    0.84    0.44
  -2  -2 -13    0.74    0.48
   2   2 -13   -0.31    0.41
  -2   2  13    0.41    0.43
  -2   2  13    0.47    0.28
   2  -2 -13    0.41    0.44
  -2  -2  13    1.09    0.47
  -2   2 -13    0.74    0.44
  -2  -2  13    0.63    0.49
  -2   2 -13    0.43    0.31
  -3   2  13    1.15    0.54
  -3  -2 -13    0.89    0.44
  -3  -2 -13    0.66    0.53
   3   2 -13    1.28    0.48
   3  -2  13    0.16    0.44
  -3  -2  13    0.49    0.55
  -3   2 -13    0.50    0.46
   3  -2 -13    0.13    0.43
  -4  -2 -13   10.45    0.92
  -4   2  13    9.27    1.00
   4  -2  13    9.79    0.86
   4   2 -13   11.71    0.97
  -4  -2 -13   10.49    0.96
  -4   2 -13    9.66    0.94
  -4  -2  13    8.36    0.99
   4  -2 -13    9.10    0.83
  -5  -2 -13    1.14    0.66
  -5   2  13    1.40    0.75
   5  -2  13    2.11    0.61
   5   2 -13    1.53    0.55
  -5  -2 -13    1.92    0.67
   5  -2 -13    1.39    0.58
  -5  -2  13    0.85    0.72
  -5   2 -13    2.33    0.69
  -6  -2 -13    2.31    0.76
   6  -2  13    2.51    0.70
  -6   2  13    0.77    0.84
   6   2 -13    2.53    0.67
   6  -2 -13    3.06    0.72
  -6   2 -13    3.11    0.80
  -6  -2  13    0.57    0.81
   0   3 -13    3.62    0.58
   0  -3 -13    3.58    0.47
   0  -3  13    2.61    0.52
   0   3 -13    3.66    0.50
   0  -3 -13    2.96    0.47
   0  -3 -13    3.34    0.52
  -1   3  13    0.06    0.37
  -1   3  13    0.21    0.27
   1   3 -13    0.03    0.40
  -1  -3 -13    0.14    0.36
  -1  -3 -13    0.35    0.44
   1  -3  13    0.35    0.41
  -1  -3 -13   -0.42    0.30
  -1  -3  13   -0.19    0.43
   1  -3 -13    0.30    0.41
  -1   3 -13   -0.31    0.36
  -1   3 -13    0.13    0.32
   2   3 -13   49.77    1.65
  -2   3  13   48.16    1.70
  -2  -3 -13   48.30    1.65
  -2  -3 -13   49.33    1.61
   2  -3  13   47.36    1.64
  -2  -3  13   48.13    1.57
  -2   3 -13   45.84    1.70
   2  -3 -13   48.46    1.62
  -2   3 -13   47.69    1.39
  -2  -3  13   48.66    1.80
   2   3  13   47.82    1.33
  -3  -3 -13   29.75    1.34
   3   3 -13   28.78    1.28
   3  -3  13   27.30    1.27
  -3   3  13   31.09    1.44
  -3  -3 -13   29.10    1.25
   3  -3 -13   29.87    1.28
  -3   3 -13   26.48    1.29
  -3  -3  13   30.16    1.51
  -3  -3  13   29.05    1.16
  -4  -3 -13   19.55    1.17
   4   3 -13   20.44    1.18
  -4  -3 -13   19.90    1.20
   4  -3  13   20.31    1.13
  -4   3  13   18.44    1.31
   4  -3 -13   19.58    1.20
  -4   3 -13   20.78    1.29
  -4  -3  13   21.16    1.48
  -5  -3 -13    1.02    0.63
  -5   3  13    1.33    0.73
   5   3 -13    1.21    0.57
   5  -3  13    2.05    0.60
  -5  -3 -13    1.62    0.61
   5  -3 -13    1.24    0.59
  -5  -3  13    0.20    0.72
  -5   3 -13    2.18    0.68
   6   3 -13    2.81    0.67
  -6  -3 -13    3.47    0.80
   6  -3  13    1.84    0.66
  -6   3  13    1.08    0.85
  -6  -3 -13    2.88    0.82
   6  -3 -13    2.92    0.74
  -6   3 -13    3.28    0.80
  -6  -3  13    1.66    0.93
   0  -4 -13    7.70    0.63
   0   4 -13    6.91    0.74
   0  -4 -13    6.47    0.59
   0  -4 -13    6.85    0.63
   0  -4  13    6.69    0.70
   0   4 -13    7.61    0.66
   1  -4  13   11.18    0.92
  -1  -4 -13   11.19    0.87
  -1   4  13   11.48    0.83
  -1  -4 -13   11.08    0.76
   1   4 -13   11.16    0.87
  -1  -4  13   10.93    0.93
   1  -4 -13   11.96    0.68
   1   4  13   11.87    0.73
  -1   4 -13   11.31    0.91
  -1   4 -13   11.29    0.76
   1  -4 -13   11.91    0.85
  -2  -4 -13    9.49    0.74
  -2   4  13   10.01    0.88
  -2  -4 -13   10.04    0.84
   2  -4  13   10.57    0.89
   2   4 -13    9.78    0.81
  -2  -4  13    8.77    0.87
  -2   4 -13    9.30    0.65
   2   4  13    8.41    0.61
  -2  -4  13   11.29    0.85
  -2   4 -13    9.28    0.82
   2  -4 -13    9.11    0.79
   3   4 -13    7.48    0.75
  -3   4  13    7.70    0.82
  -3  -4 -13    8.77    0.83
   3  -4  13    6.36    0.71
  -3  -4 -13    8.13    0.73
  -3  -4  13    7.68    0.88
  -3   4 -13    9.33    0.88
   3  -4 -13    7.01    0.72
  -3  -4  13    7.71    0.69
   4   4 -13    5.14    0.71
  -4  -4 -13    6.04    0.72
  -4   4  13    5.24    0.85
  -4  -4 -13    6.50    0.81
   4  -4  13    7.27    0.81
  -4  -4  13    5.80    0.93
   4  -4 -13    7.41    0.81
  -4   4 -13    7.07    0.89
  -5   4  13    5.53    0.92
  -5  -4 -13    7.49    0.87
   5   4 -13    6.30    0.81
  -5  -4 -13    8.76    0.96
   5  -4  13    4.98    0.76
  -5  -4  13    7.01    1.06
   5  -4 -13    5.27    0.78
  -5   4 -13    8.43    1.00
   6   4 -13    0.91    0.63
   6  -4  13    1.66    0.68
  -6   4  13    0.58    0.86
  -6  -4 -13   -0.19    0.69
  -6  -4 -13    1.61    0.70
  -6   4 -13    1.72    0.73
   6  -4 -13    1.98    0.69
  -6  -4  13   -0.42    0.90
   0   5 -13   19.04    0.99
   0   5 -13   19.14    1.05
   0  -5 -13   18.40    0.94
   0   5  13   19.32    0.96
   0   5  13   18.14    0.90
   0  -5  13   16.96    1.12
  -1  -5 -13   20.04    1.05
   1   5 -13   21.24    1.09
   1  -5  13   22.16    1.23
  -1   5  13   20.57    1.00
  -1  -5 -13   21.22    0.96
  -1   5 -13   20.98    1.00
  -1  -5  13   19.60    1.13
   1   5  13   21.11    0.94
   1  -5 -13   19.96    0.85
  -1   5 -13   21.09    1.11
  -2   5  13    9.85    0.82
   2  -5  13    8.71    0.81
   2   5 -13    8.35    0.74
  -2  -5 -13    9.23    0.73
  -2  -5 -13    9.35    0.80
  -2   5 -13    8.39    0.80
   2  -5 -13    9.82    0.80
  -2   5 -13   10.31    0.67
  -2  -5  13    9.84    0.87
   2   5  13    8.72    0.64
  -2  -5  13    8.90    0.88
   3   5 -13    2.06    0.55
  -3  -5 -13    2.28    0.61
  -3   5  13    2.05    0.56
  -3  -5 -13    1.98    0.46
   3  -5  13    2.06    0.56
  -3  -5  13    2.00    0.64
  -3   5 -13    2.24    0.59
  -3  -5  13    1.48    0.53
   3  -5 -13    1.89    0.56
   4  -5  13    7.06    0.84
  -4  -5 -13    6.48    0.73
  -4   5  13    5.68    0.83
   4   5 -13    6.30    0.78
  -4  -5 -13    7.62    0.89
  -4   5 -13    8.09    0.90
  -4  -5  13    6.62    0.96
   4  -5 -13    6.60    0.79
   5   5 -13    0.99    0.56
  -5  -5 -13    1.27    0.55
  -5   5  13    0.64    0.69
  -5  -5 -13    0.84    0.69
   5  -5  13    1.51    0.64
  -5  -5  13    0.34    0.73
  -5   5 -13    1.11    0.64
   6   5 -13    2.65    0.69
  -6   5  13    4.82    0.76
  -6  -5 -13    3.45    0.85
  -6   5  13    2.05    0.94
   6  -5  13    3.66    0.82
  -6   5 -13    3.95    0.89
  -6  -5  13    3.36    1.05
   0   6  13   51.47    1.66
   0   6 -13   55.19    1.82
   0  -6  13   51.04    1.84
   0   6 -13   52.83    1.70
   0   6  13   52.24    1.58
   0  -6 -13   52.08    1.61
   1  -6  13    5.01    0.74
  -1   6  13    5.12    0.61
  -1  -6 -13    4.69    0.50
   1   6 -13    5.10    0.64
  -1   6  13    4.96    0.57
  -1  -6 -13    6.52    0.68
  -1  -6  13    5.83    0.78
  -1   6 -13    6.09    0.71
   1   6  13    5.11    0.55
   1  -6 -13    5.21    0.52
  -1   6 -13    5.76    0.58
  -2  -6 -13    7.66    0.93
  -2  -6 -13    7.91    0.79
   2   6 -13    9.27    0.80
   2  -6  13    6.93    0.78
  -2   6  13    6.64    0.70
  -2   6  13    8.05    0.74
   2   6  13    7.97    0.67
  -2   6 -13    9.51    0.71
  -2   6 -13    8.27    0.82
  -2  -6  13    9.13    0.91
  -2  -6  13    8.85    0.85
   3   6 -13    7.82    0.78
  -3   6  13    6.99    0.76
  -3   6  13    7.34    0.80
   3  -6  13    6.95    0.83
  -3  -6 -13    7.91    0.86
  -3  -6  13    7.73    0.82
  -3   6 -13    7.52    0.83
  -3  -6  13    7.25    0.90
   4   6 -13    1.07    0.55
   4  -6  13    0.53    0.58
  -4   6  13    0.89    0.60
  -4   6  13    1.54    0.55
  -4  -6 -13    0.90    0.63
  -4   6 -13    1.12    0.58
  -4  -6  13    0.88    0.69
   5  -6  13    0.00    0.61
  -5   6  13    0.91    0.57
  -5   6  13   -0.33    0.65
  -5  -6 -13    0.18    0.65
   5   6 -13    1.21    0.58
  -5   6 -13   -0.11    0.60
  -5  -6  13   -0.19    0.77
  -6   6  13    3.48    1.00
  -6   6  13    6.37    0.89
  -6  -6 -13    6.04    1.02
   6   6 -13    6.06    0.89
   6  -6  13    4.66    0.89
  -6   6 -13    5.28    0.97
  -6  -6  13    3.23    1.10
   0   7 -13    7.75    0.79
   0  -7 -13    7.46    0.67
   0  -7  13    6.33    0.85
   0   7 -13    6.58    0.68
   0   7  13    8.17    0.71
   1  -7  13   37.13    1.61
  -1   7  13   35.49    1.41
   1   7 -13   39.69    1.50
  -1  -7 -13   36.91    1.41
   1   7  13   32.65    1.31
  -1   7 -13   36.40    1.37
  -1  -7  13   35.68    1.52
  -1  -7  13   35.89    1.58
  -1   7 -13   34.98    1.46
   2  -7  13    8.23    0.92
   2   7 -13    8.32    0.81
  -2   7  13    8.76    0.89
  -2  -7 -13    9.50    0.86
  -2   7  13    9.07    0.83
  -2  -7  13    9.25    0.91
  -2  -7  13    8.91    0.91
  -2   7 -13    8.25    0.83
  -2   7 -13   10.27    0.78
   3   7 -13   12.27    1.02
  -3   7  13   10.22    0.95
  -3   7  13   12.34    1.02
  -3  -7 -13   13.80    1.11
   3  -7  13   12.14    1.09
  -3  -7  13   12.81    1.08
  -3  -7  13   11.94    1.12
  -3   7 -13   12.54    1.02
  -4  -7 -13    9.26    0.99
   4  -7  13    9.79    1.03
  -4   7  13   10.85    1.00
   4   7 -13    7.95    0.86
  -4   7  13    7.24    0.91
  -4  -7  13    8.10    1.06
  -4   7 -13   10.11    1.03
  -5   7  13    7.98    1.08
   5  -7  13   10.80    1.14
  -5   7  13   10.81    1.05
   5   7 -13    7.97    0.97
  -5  -7 -13    8.74    1.04
  -5  -7  13    7.80    1.16
  -5   7 -13   12.76    1.22
   0   8 -13   14.86    1.03
   0  -8  13   14.34    1.19
   0   8 -13   16.67    1.01
   0  -8 -13   16.48    0.95
   0   8  13   15.88    1.04
  -1  -8 -13    7.82    0.78
   1  -8  13    6.26    0.89
   1   8 -13    6.72    0.77
  -1   8  13    7.76    0.78
  -1   8 -13    6.02    0.74
  -1  -8  13    5.11    0.86
   1   8  13    6.61    0.70
  -1   8 -13    6.73    0.69
  -1  -8  13    7.42    0.81
  -2  -8 -13    2.85    0.65
   2  -8  13    1.91    0.69
   2   8 -13    2.90    0.61
  -2   8  13    1.41    0.54
  -2   8 -13    1.71    0.54
  -2  -8  13    1.55    0.70
  -2   8 -13    2.09    0.49
  -2  -8  13    1.36    0.58
   3  -8  13    0.32    0.65
   3   8 -13    0.46    0.54
  -3   8  13    1.71    0.60
  -3  -8 -13    2.23    0.69
  -3   8 -13    1.25    0.55
  -3  -8  13    1.44    0.66
  -3  -8  13    2.23    0.69
  -4  -8 -13    2.47    0.73
   4  -8  13    2.51    0.83
   4   8 -13    2.92    0.67
  -4   8  13    3.10    0.74
  -4   8 -13    2.43    0.68
  -4  -8  13    3.14    0.77
  -4  -8  13    1.95    0.81
  -5   8  13   11.82    1.17
   5   8 -13   10.47    1.03
   5  -8  13   11.21    1.22
  -5   8 -13    9.70    1.10
  -5  -8  13    7.79    1.26
   0   9 -13    7.16    0.78
   0  -9  13    6.55    0.94
   0   9 -13    7.08    0.76
   0   9  13    6.80    0.78
   0  -9 -13    6.23    0.71
  -1  -9 -13    8.39    0.84
  -1   9  13    7.81    0.84
   1  -9  13    7.92    1.01
   1   9 -13    6.82    0.78
   1   9  13    6.36    0.75
  -1  -9  13    7.11    0.81
  -1   9 -13    7.76    0.78
  -1   9 -13    8.37    0.84
  -1  -9  13    5.87    0.93
  -2  -9 -13    6.41    0.82
   2   9 -13    6.30    0.80
  -2   9  13    5.65    0.79
   2  -9  13    4.32    0.91
  -2  -9  13    6.05    0.82
  -2   9 -13    5.22    0.66
  -2   9 -13    6.79    0.80
  -2  -9  13    5.39    0.87
  -3   9  13    9.62    0.97
  -3  -9 -13    9.47    0.99
   3  -9  13    9.29    1.05
   3   9 -13    9.74    0.95
  -3  -9  13    8.75    0.99
  -3   9 -13    9.09    1.07
  -3  -9  13    8.77    0.97
  -3   9 -13   10.13    0.98
   4  -9  13    1.45    0.83
  -4  -9 -13    2.37    0.76
  -4   9  13    2.46    0.75
   4   9 -13    3.76    0.74
  -4  -9  13    2.37    0.76
  -4  -9  13    1.56    0.84
  -4   9 -13    3.04    0.73
   0  10 -13    1.99    0.52
   0  10  13    2.42    0.65
   0  10 -13    3.68    0.64
   0 -10 -13    2.18    0.59
   0 -10  13    2.79    0.87
   1  10 -13    4.36    0.71
   1 -10  13    3.46    0.89
  -1 -10 -13    2.21    0.63
  -1  10  13    2.34    0.68
  -1 -10  13    3.61    0.68
  -1 -10  13    2.39    0.85
  -1  10 -13    2.81    0.59
   1  10  13    2.17    0.63
  -1  10 -13    3.25    0.61
  -2  10  13    6.62    0.87
   2  10 -13    5.91    0.80
  -2 -10 -13    7.18    0.89
   2 -10  13    5.55    0.99
  -2  10 -13    6.12    0.79
  -2 -10  13    5.16    0.92
  -2  10 -13    5.96    0.74
  -3  10  13    7.55    0.99
   3  10 -13    6.22    0.86
  -3 -10 -13    7.39    0.98
   3 -10  13    6.61    1.09
  -3  10 -13    7.24    0.90
  -3 -10  13    9.98    1.12
  -3  10 -13   10.39    1.08
  -4  10  13    9.14    1.11
  -4 -10 -13    7.14    1.02
   4  10 -13    8.38    0.96
   4 -10  13    6.19    1.11
  -4  10 -13    8.46    1.01
  -4 -10  13    7.14    1.00
   0  11  13    0.91    0.64
   0 -11 -13    3.37    0.87
   0 -11  13    3.82    0.92
   0  11 -13    3.17    0.67
   1  11 -13    3.65    0.75
  -1 -11 -13    4.00    0.75
   1 -11  13    3.20    0.91
  -1  11  13    2.32    0.75
  -1  11 -13    2.92    0.64
  -1 -11  13    1.61    0.82
   1  11  13    2.74    0.73
  -2 -11 -13    7.33    0.94
   2  11 -13    5.55    0.83
  -2  11  13    6.75    0.96
   2 -11  13    5.93    1.06
  -2  11 -13    5.65    0.77
  -2 -11  13    6.52    1.02
   3  11 -13    1.37    0.69
  -3 -11 -13    1.40    0.77
   3 -11  13   -0.87    0.81
  -3  11  13    0.03    0.71
  -3 -11  13    0.64    0.82
  -3  11 -13    1.47    0.76
   0  12  13   -0.07    0.68
   0  12 -13    0.53    0.61
   0 -12  13    1.19    0.88
  -1  12  13    4.50    0.91
   1 -12  13    8.28    1.20
   1  12 -13    5.35    0.86
  -1 -12 -13    5.87    0.87
  -1  12 -13    5.86    0.84
  -1 -12  13    5.75    1.05
   1  12  13    3.68    0.88
  -2  12  13    0.38    0.74
   2 -12  13   -1.28    0.85
   2  12 -13    0.35    0.63
  -2 -12 -13    2.04    0.77
  -2  12 -13    0.17    0.54
  -2 -12  13    0.56    0.83
   0   0 -14   26.28    1.19
   0   0  14   25.92    1.03
   0   0 -14   24.66    1.05
   1   0  14    6.88    0.64
  -1   0  14    5.83    0.71
  -1   0  14    6.28    0.55
   1   0 -14    5.84    0.62
  -1   0 -14    6.59    0.69
  -1   0 -14    7.06    0.56
   2   0 -14   71.51    2.07
  -2   0 -14   69.59    2.15
  -2   0 -14   70.73    1.78
  -2   0  14   70.99    2.23
   2   0  14   68.07    2.04
  -2   0  14   72.16    1.85
   3   0 -14    2.11    0.50
  -3   0 -14    2.22    0.56
  -3   0  14    2.11    0.65
   3   0  14    1.42    0.46
  -4   0 -14   14.42    1.13
  -4   0  14   11.76    1.13
   4   0  14   14.32    0.98
   4   0 -14   16.21    1.11
   5   0 -14    3.65    0.70
  -5   0  14    3.36    0.87
   5   0  14    2.83    0.62
  -5   0 -14    3.69    0.77
   6   0  14   19.22    1.28
   6   0 -14   16.72    1.34
  -6   0 -14   18.56    1.46
  -6   0  14   13.63    1.39
   0  -1 -14   11.94    0.78
   0   1 -14   12.45    0.90
   0  -1  14   14.04    0.81
   0   1 -14   13.53    0.82
   0   1  14   13.60    0.75
   0  -1 -14   13.33    0.90
   1  -1  14   16.27    0.92
  -1  -1 -14   15.53    0.78
  -1  -1 -14   15.64    0.97
   1   1 -14   16.61    0.96
  -1   1  14   16.15    0.98
  -1   1  14   15.76    0.76
   1  -1 -14   16.32    0.92
   1   1  14   15.57    0.86
  -1   1 -14   17.26    0.99
  -1   1 -14   17.37    0.82
  -1  -1  14   16.93    0.87
   2   1 -14   19.53    1.08
   2  -1  14   18.80    1.01
  -2  -1 -14   17.43    1.02
  -2  -1 -14   18.43    0.78
  -2   1  14   18.29    1.14
  -2   1  14   16.19    0.79
  -2   1 -14   17.97    0.78
  -2  -1  14   19.70    1.19
  -2  -1  14   19.11    0.88
  -2   1 -14   18.41    1.08
   2   1  14   19.17    0.98
   2  -1 -14   19.06    1.05
   3   1 -14   11.88    0.91
  -3  -1 -14   12.78    0.97
   3  -1  14   13.10    0.88
  -3   1  14   12.02    1.09
   3  -1 -14   12.08    0.91
  -3  -1  14   12.74    1.10
  -3   1 -14   11.84    0.94
   3   1  14   13.21    0.86
   4   1 -14    8.57    0.82
   4  -1  14    9.82    0.87
  -4   1  14    9.03    1.01
  -4  -1 -14   10.64    1.00
   4   1  14   10.73    0.87
  -4  -1  14    7.84    0.97
   4  -1 -14    9.41    0.88
  -4   1 -14   10.01    0.97
   5  -1  14    3.30    0.64
   5   1 -14    1.34    0.60
  -5   1  14    1.77    0.80
  -5  -1 -14    2.87    0.72
  -5   1 -14    2.79    0.75
  -5  -1  14    2.34    0.80
   5  -1 -14    1.83    0.63
   5   1  14    3.58    0.65
  -6  -1 -14    9.26    1.11
  -6   1  14    6.62    1.16
   6   1 -14    7.85    0.92
   6  -1  14    7.40    0.95
  -6   1 -14    9.95    1.14
   6  -1 -14    7.93    0.93
  -6  -1  14    7.92    1.19
   6   1  14    9.37    0.98
   0  -2  14    7.00    0.66
   0   2 -14    8.20    0.65
   0  -2 -14    7.10    0.70
   0   2  14    7.75    0.63
   0  -2 -14    6.47    0.63
  -1   2  14   31.69    1.32
  -1  -2 -14   31.30    1.11
   1   2 -14   31.27    1.26
   1  -2  14   31.63    1.24
  -1  -2 -14   30.97    1.27
  -1   2  14   31.15    1.06
  -1   2 -14   32.73    1.35
  -1  -2  14   34.35    1.26
   1  -2 -14   32.11    1.25
  -1   2 -14   31.65    1.14
  -2  -2 -14   28.46    1.29
  -2   2  14   30.44    1.37
   2  -2  14   29.61    1.29
   2   2 -14   30.84    1.28
  -2  -2 -14   28.71    1.26
  -2  -2 -14   32.59    1.34
  -2   2 -14   30.46    1.03
  -2   2 -14   28.40    1.31
  -2  -2  14   30.93    1.17
  -2  -2  14   30.91    1.42
   2  -2 -14   30.43    1.27
  -3  -2 -14    4.56    0.63
   3   2 -14    3.27    0.59
  -3   2  14    3.45    0.68
  -3  -2 -14    3.72    0.64
   3  -2  14    3.86    0.61
   3  -2 -14    4.23    0.63
  -3  -2  14    3.31    0.67
  -3   2 -14    4.57    0.67
   4  -2  14    5.14    0.72
  -4  -2 -14    3.66    0.72
  -4   2  14    3.62    0.77
   4   2 -14    3.45    0.64
  -4  -2 -14    5.01    0.74
  -4  -2  14    4.68    0.86
   4  -2 -14    3.90    0.69
  -4   2 -14    4.92    0.75
  -5  -2 -14   11.56    1.09
   5   2 -14   10.77    0.94
   5  -2  14   12.90    1.06
  -5   2  14   12.57    1.22
  -5  -2  14   10.40    1.20
   5  -2 -14   12.46    1.02
  -5   2 -14   13.19    1.22
   6  -2  14    1.76    0.68
  -6   2  14    1.01    0.87
  -6  -2 -14    2.91    0.79
   6   2 -14    2.17    0.70
   6  -2 -14    2.89    0.76
  -6   2 -14    3.22    0.83
  -6  -2  14    1.32    0.94
   0  -3 -14   24.67    1.04
   0  -3  14   25.60    1.13
   0  -3 -14   25.27    1.15
   0   3 -14   24.98    1.07
   0   3 -14   25.36    1.23
   0  -3 -14   24.64    1.07
  -1   3  14   13.40    0.92
   1  -3  14   11.33    0.90
   1   3 -14   12.21    0.89
  -1  -3 -14   13.16    0.75
  -1  -3 -14   12.60    0.87
  -1  -3 -14   12.98    0.87
  -1   3  14   13.38    0.69
  -1   3 -14   13.79    0.80
  -1   3 -14   12.11    0.93
   1  -3 -14   13.19    0.89
  -1  -3  14   13.45    0.92
  -2  -3 -14   12.53    0.85
  -2   3  14   12.90    0.96
   2   3 -14   11.21    0.92
  -2  -3 -14   12.62    0.94
   2  -3  14   12.21    0.93
  -2  -3  14   11.68    0.89
  -2  -3  14   13.05    1.01
   2  -3 -14   11.00    0.88
  -2   3 -14   13.92    0.96
  -2   3 -14   13.04    0.69
   3   3 -14    8.12    0.78
  -3   3  14    7.91    0.86
   3  -3  14    8.10    0.81
  -3  -3 -14    7.58    0.78
  -3  -3 -14    7.63    0.80
   3  -3 -14    6.72    0.74
  -3   3 -14    6.59    0.78
  -3  -3  14    7.39    0.90
   4  -3  14    9.45    0.89
  -4  -3 -14    8.66    0.89
  -4  -3 -14    8.89    0.87
   4   3 -14    8.69    0.87
  -4   3  14    8.17    0.99
  -4  -3  14    9.57    1.10
  -4   3 -14    8.89    0.95
   4  -3 -14    6.35    0.79
   5  -3  14    3.32    0.71
   5   3 -14    3.19    0.67
  -5   3  14    2.75    0.83
  -5  -3 -14    3.94    0.78
  -5  -3 -14    3.68    0.71
   5  -3 -14    3.24    0.71
  -5   3 -14    3.15    0.73
  -5  -3  14    3.55    0.95
   6  -3  14    2.55    0.73
   6   3 -14    0.89    0.62
  -6  -3 -14    1.20    0.71
  -6   3  14    0.68    0.91
  -6  -3 -14    2.25    0.79
  -6   3 -14    2.35    0.81
  -6  -3  14   -0.04    0.91
   6  -3 -14    2.00    0.73
   0  -4 -14   13.04    0.81
   0   4 -14   14.70    0.96
   0  -4  14   14.23    0.97
   0   4 -14   15.19    0.91
   0  -4 -14   14.06    0.86
   1   4 -14  111.42    2.86
  -1  -4 -14  108.64    2.81
  -1  -4 -14  109.96    2.87
   1  -4  14  110.03    2.92
  -1   4  14  113.79    2.94
   1  -4 -14  112.13    2.83
  -1  -4  14  111.28    2.90
  -1   4 -14  111.18    2.74
  -1   4 -14  108.46    2.99
  -2   4  14    3.75    0.60
   2  -4  14    3.90    0.62
   2   4 -14    3.05    0.55
  -2  -4 -14    3.44    0.52
  -2  -4 -14    3.11    0.59
  -2   4 -14    3.54    0.44
  -2  -4  14    3.51    0.66
  -2  -4  14    2.99    0.60
   2  -4 -14    2.10    0.53
   2   4  14    3.68    0.66
  -2   4 -14    3.57    0.63
  -3  -4 -14    8.06    0.83
  -3   4  14    7.08    0.83
   3  -4  14    7.73    0.78
   3   4 -14    5.90    0.71
  -3  -4 -14    7.97    0.75
  -3   4 -14    7.86    0.82
  -3  -4  14    8.56    0.98
   3  -4 -14    7.83    0.80
  -3  -4  14    9.45    0.78
   4  -4  14    1.26    0.59
  -4  -4 -14   -0.99    0.53
  -4   4  14    0.93    0.63
  -4  -4 -14    0.44    0.46
   4   4 -14    0.30    0.50
   4  -4 -14    1.00    0.55
  -4   4 -14    0.59    0.55
  -4  -4  14    0.17    0.65
   5   4 -14    9.28    0.92
   5  -4  14    9.67    0.98
  -5  -4 -14    8.50    1.01
  -5  -4 -14    9.54    0.96
  -5   4  14    9.97    1.12
  -5   4 -14    9.61    1.05
   5  -4 -14    9.60    0.97
  -5  -4  14    7.38    1.14
   6  -4  14    1.41    0.69
   6   4 -14    1.88    0.72
  -6  -4 -14    2.59    0.74
  -6   4  14    0.04    0.84
  -6  -4 -14    0.96    0.75
  -6  -4  14   -0.59    0.94
  -6   4 -14    1.86    0.77
   6  -4 -14    0.63    0.64
   0   5 -14   77.24    2.37
   0  -5  14   79.10    2.33
   0   5  14   80.46    2.21
   0  -5 -14   80.46    2.14
   0   5  14   81.49    2.21
   0   5 -14   79.01    2.21
  -1  -5 -14    6.14    0.61
  -1   5  14    6.76    0.66
  -1  -5 -14    5.46    0.64
   1  -5  14    6.58    0.78
   1   5 -14    5.16    0.62
   1   5  14    5.80    0.55
  -1  -5  14    5.26    0.74
  -1   5 -14    5.69    0.59
   1  -5 -14    5.27    0.51
  -1   5 -14    5.99    0.73
  -2  -5 -14    4.15    0.63
  -2   5  14    4.42    0.62
   2   5 -14    4.00    0.60
  -2  -5 -14    3.66    0.53
   2  -5  14    5.00    0.74
  -2  -5  14    4.70    0.68
  -2  -5  14    4.39    0.71
   2  -5 -14    3.56    0.60
  -2   5 -14    4.70    0.69
  -2   5 -14    4.41    0.50
   3  -5  14    4.39    0.71
  -3  -5 -14    4.42    0.59
  -3  -5 -14    4.64    0.75
  -3   5  14    4.92    0.73
   3   5 -14    4.77    0.67
  -3  -5  14    5.13    0.84
   3  -5 -14    4.34    0.69
  -3   5 -14    4.86    0.75
  -3  -5  14    5.13    0.69
  -4  -5 -14    6.25    0.86
  -4   5  14    2.97    0.74
  -4  -5 -14    4.96    0.67
   4  -5  14    3.65    0.72
   4   5 -14    3.85    0.68
  -4  -5  14    3.63    0.85
   4  -5 -14    2.98    0.67
  -4   5 -14    4.63    0.79
   5   5 -14    2.64    0.66
  -5  -5 -14    3.02    0.77
  -5   5  14    2.19    0.77
   5  -5  14    1.69    0.67
  -5  -5  14    2.26    0.93
  -5   5 -14    2.26    0.70
   6  -5  14    6.41    0.95
  -6   5  14    8.41    0.95
  -6  -5 -14    5.97    1.03
  -6   5  14    7.55    1.20
   6   5 -14    6.89    0.93
  -6  -5  14    5.66    1.25
  -6   5 -14    6.84    1.04
   0   6  14   33.93    1.24
   0   6  14   36.20    1.31
   0  -6  14   35.42    1.53
   0  -6 -14   34.51    1.28
   0   6 -14   35.55    1.36
   0   6 -14   35.48    1.45
   1   6 -14   12.10    0.93
  -1  -6 -14   11.67    0.84
   1  -6  14   11.92    1.00
  -1   6  14   12.28    0.82
  -1  -6 -14   12.21    0.91
  -1   6  14   11.95    0.84
  -1   6 -14   12.91    0.94
  -1  -6  14   11.00    0.95
   1   6  14   11.41    0.78
  -1   6 -14   11.52    0.83
   2  -6  14    1.16    0.61
   2   6 -14    1.75    0.54
  -2  -6 -14    1.15    0.57
  -2   6  14    2.02    0.51
  -2   6  14    3.31    0.56
  -2  -6  14    2.33    0.63
  -2  -6  14    1.16    0.62
  -2   6 -14    2.83    0.60
  -2   6 -14    2.46    0.44
   3   6 -14    9.56    0.87
  -3   6  14   10.59    0.95
   3  -6  14   11.10    1.01
  -3   6  14   10.74    0.93
  -3  -6 -14    8.51    0.90
  -3  -6  14   11.34    1.10
  -3   6 -14   10.82    1.02
  -3  -6  14    9.25    0.88
   4  -6  14    8.01    0.96
  -4   6  14    8.95    0.90
  -4  -6 -14    5.07    0.82
  -4   6  14    6.23    0.88
   4   6 -14    6.03    0.79
  -4   6 -14    8.34    0.93
  -4  -6  14    7.01    1.05
  -5   6  14    6.13    1.02
   5  -6  14    5.19    0.89
  -5   6  14    8.47    0.92
   5   6 -14    6.31    0.86
  -5  -6 -14    6.01    0.93
  -5   6 -14    7.22    1.00
  -5  -6  14    5.88    1.14
   0   7  14    3.08    0.55
   0  -7  14    3.38    0.74
   0   7 -14    3.47    0.61
   0   7 -14    3.29    0.57
   0  -7 -14    4.34    0.59
   1   7 -14    2.24    0.55
   1  -7  14    3.03    0.73
  -1   7  14    3.20    0.57
  -1  -7 -14    2.95    0.59
  -1   7 -14    3.01    0.59
  -1  -7  14    2.04    0.70
  -1  -7  14    2.99    0.63
   1   7  14    2.26    0.50
  -1   7 -14    2.76    0.53
   2   7 -14    1.28    0.54
  -2   7  14    2.16    0.53
   2  -7  14    1.64    0.66
  -2  -7 -14    2.53    0.65
  -2  -7  14    1.65    0.59
  -2   7 -14    2.28    0.45
  -2   7 -14    1.89    0.57
  -2  -7  14    1.40    0.67
  -3   7  14    1.54    0.72
  -3  -7 -14    4.69    0.77
  -3   7  14    3.06    0.62
   3   7 -14    2.28    0.61
   3  -7  14    2.78    0.75
  -3  -7  14    1.37    0.69
  -3  -7  14    1.18    0.60
  -3   7 -14    2.08    0.62
   4   7 -14    9.49    0.95
  -4   7  14   10.06    1.05
  -4  -7 -14   12.99    1.14
   4  -7  14   11.53    1.14
  -4   7  14   14.90    1.21
  -4  -7  14   10.06    1.16
  -4   7 -14   11.45    1.11
   5  -7  14    1.67    0.83
   5   7 -14    1.65    0.68
  -5   7  14    0.60    0.86
  -5  -7 -14    1.45    0.76
  -5   7  14    2.61    0.70
  -5  -7  14    0.07    0.87
  -5   7 -14    2.51    0.78
   0   8 -14   12.60    0.97
   0   8 -14   12.51    0.98
   0  -8 -14   13.88    0.92
   0  -8  14   11.30    1.08
   0   8  14   13.58    1.00
   1   8 -14   12.28    1.04
  -1  -8 -14   14.11    1.03
  -1   8  14   14.66    1.06
   1  -8  14   15.18    1.31
  -1   8 -14   14.09    0.97
  -1   8 -14   13.30    1.02
  -1  -8  14   14.91    1.10
   1   8  14   12.78    0.97
  -1  -8  14   14.23    1.22
  -2  -8 -14   15.06    1.12
   2  -8  14   16.17    1.27
  -2   8  14   15.00    1.14
   2   8 -14   15.35    1.14
  -2  -8  14   15.26    1.22
  -2  -8  14   14.43    1.17
  -2   8 -14   16.48    0.96
  -2   8 -14   16.14    1.14
  -3  -8 -14    3.83    0.73
   3  -8  14    4.26    0.87
  -3   8  14    4.59    0.76
   3   8 -14    3.70    0.69
  -3  -8  14    3.41    0.83
  -3  -8  14    3.81    0.77
  -3   8 -14    4.58    0.74
  -4   8  14    5.89    0.90
   4  -8  14    6.87    1.02
  -4  -8 -14    5.92    0.92
   4   8 -14    5.84    0.81
  -4  -8  14    6.29    1.05
  -4   8 -14    7.75    0.99
   5   8 -14    6.10    0.88
  -5  -8 -14    4.94    0.95
  -5   8  14    4.66    0.91
   5  -8  14    6.38    1.04
  -5  -8  14    3.92    1.07
  -5   8 -14    6.33    0.97
   0  -9 -14    1.21    0.52
   0   9 -14    0.92    0.49
   0   9 -14    1.09    0.51
   0   9  14    1.37    0.57
   0  -9  14    1.48    0.74
  -1   9  14    1.12    0.57
  -1  -9 -14    1.38    0.59
   1  -9  14    1.41    0.76
   1   9 -14    1.73    0.57
   1   9  14    1.31    0.56
  -1   9 -14    1.77    0.54
  -1   9 -14    2.14    0.54
  -1  -9  14   -0.03    0.69
  -1  -9  14    1.84    0.58
  -2   9  14    4.29    0.73
   2  -9  14    2.88    0.86
   2   9 -14    4.30    0.71
  -2  -9 -14    5.03    0.79
  -2   9 -14    5.02    0.74
  -2  -9  14    4.52    0.77
  -2  -9  14    3.29    0.82
  -2   9 -14    4.16    0.60
   3  -9  14    3.81    0.88
   3   9 -14    4.72    0.79
  -3  -9 -14    4.96    0.84
  -3   9  14    4.11    0.77
  -3   9 -14    5.07    0.79
  -3  -9  14    4.43    0.86
  -3  -9  14    4.82    0.88
   4   9 -14    4.41    0.81
  -4  -9 -14    4.92    0.90
  -4   9  14    7.00    0.95
   4  -9  14    4.19    0.99
  -4  -9  14    4.13    0.99
  -4   9 -14    5.87    0.91
   0  10  14   -1.03    0.49
   0 -10  14    0.75    0.78
   0  10 -14    0.06    0.49
   0 -10 -14    0.42    0.67
   0  10 -14    0.26    0.45
  -1 -10 -14    1.75    0.63
   1 -10  14    2.12    0.83
   1  10 -14    2.56    0.64
  -1  10  14    2.76    0.70
  -1 -10  14    2.15    0.61
  -1 -10  14    1.43    0.81
   1  10  14    0.39    0.56
  -1  10 -14    1.32    0.52
  -1  10 -14    2.25    0.56
  -2  10  14    1.35    0.66
  -2 -10 -14    0.31    0.64
   2  10 -14    1.42    0.66
   2 -10  14    1.01    0.82
  -2 -10  14    0.88    0.76
  -2  10 -14    1.27    0.56
  -2 -10  14    1.29    0.70
  -2  10 -14    1.39    0.55
  -3 -10 -14    4.52    0.89
   3 -10  14    3.29    1.00
  -3  10  14    3.21    0.83
   3  10 -14    3.98    0.80
  -3 -10  14    3.46    0.88
  -3  10 -14    4.53    0.78
   0  11  14    1.08    0.65
   0 -11  14    2.59    0.92
   0  11 -14    2.61    0.66
   1 -11  14    1.23    0.91
  -1  11  14    0.27    0.64
   1  11 -14    1.97    0.67
  -1 -11 -14    1.91    0.69
   1  11  14   -0.29    0.61
  -1 -11  14    1.11    0.84
  -1  11 -14    1.76    0.59
   2 -11  14    0.86    0.89
   2  11 -14    1.80    0.69
  -2 -11 -14    1.29    0.73
  -2  11  14    1.68    0.75
  -2  11 -14    3.17    0.66
  -2 -11  14    0.97    0.84
  -3  11  14    6.68    1.04
   3  11 -14    5.47    0.88
  -3  11 -14    5.44    1.39
   0  12 -14    2.84    0.73
   0  12  14    1.51    0.76
   0 -12  14    2.03    0.97
  -1 -12 -14    1.31    0.72
  -1  12  14    0.85    0.70
   1 -12  14   -0.19    0.86
   1  12 -14    1.52    0.68
  -1  12 -14    2.20    0.69
   1  12  14   -0.22    0.73
  -1 -12  14    0.53    0.84
   0   0 -15   -0.03    0.41
   0   0 -15   -0.14    0.35
   0   0  15    0.31    0.38
  -1   0 -15    7.12    0.58
   1   0  15    6.65    0.66
  -1   0 -15    6.32    0.73
  -1   0  15    7.71    0.61
  -1   0  15    5.88    0.73
   1   0 -15    7.29    0.67
   2   0  15   33.34    1.35
  -2   0  15   35.04    1.52
   2   0 -15   33.65    1.35
  -2   0 -15   31.74    1.40
  -2   0  15   33.89    1.21
  -3   0 -15   13.93    1.06
   3   0 -15   14.19    1.01
   3   0  15   13.83    0.95
  -3   0  15   14.13    1.22
  -4   0  15    0.71    0.65
   4   0 -15    0.54    0.52
  -4   0 -15    1.38    0.59
   4   0  15    1.66    0.54
   5   0 -15    1.33    0.60
   5   0  15    1.95    0.60
  -5   0  15    1.35    0.78
  -5   0 -15    1.65    0.67
   6   0  15   -0.15    0.57
  -6   0  15   -0.55    0.78
  -6   0 -15    0.14    0.63
   6   0 -15    0.29    0.67
   0  -1 -15    7.29    0.73
   0  -1 -15    5.99    0.60
   0  -1  15    7.38    0.67
   0   1 -15    6.72    0.73
   0   1 -15    6.16    0.61
   0   1  15    7.28    0.64
   1  -1  15    6.15    0.67
  -1   1  15    8.01    0.80
  -1  -1 -15    7.92    0.76
  -1  -1 -15    7.39    0.59
   1   1 -15    6.82    0.67
  -1   1  15    7.25    0.62
  -1  -1  15    7.11    0.64
  -1   1 -15    7.61    0.60
   1   1  15    8.18    0.70
  -1  -1  15    6.57    0.78
  -1   1 -15    8.01    0.81
   1  -1 -15    6.12    0.63
   2   1 -15   20.36    1.08
  -2   1  15   20.10    1.16
  -2  -1 -15   16.20    1.02
   2  -1  15   17.63    1.00
   2   1  15   17.55    0.97
  -2  -1  15   18.72    1.18
   2  -1 -15   18.56    1.06
  -2   1 -15   16.97    1.08
  -2   1 -15   19.33    0.86
  -2  -1  15   18.92    0.90
   3   1 -15   59.45    1.95
  -3   1  15   59.08    2.15
   3  -1  15   58.84    1.93
  -3  -1 -15   58.49    2.01
  -3   1 -15   58.99    2.07
   3   1  15   56.34    1.91
  -3  -1  15   60.31    2.20
   3  -1 -15   58.31    1.92
   4  -1  15    8.47    0.88
   4   1 -15    8.89    0.87
  -4   1  15    8.88    1.02
  -4  -1 -15    7.70    0.90
  -4   1 -15    7.47    0.91
   4  -1 -15    8.02    0.83
   4   1  15    8.96    0.88
  -4  -1  15    7.16    0.98
  -5  -1 -15    3.07    0.72
   5   1 -15    2.70    0.65
  -5   1  15    1.41    0.81
   5  -1  15    1.08    0.57
  -5  -1  15    1.71    0.82
   5  -1 -15    0.96    0.62
   5   1  15    2.15    0.62
  -5   1 -15    2.31    0.69
  -6  -1 -15    3.72    0.83
  -6   1  15    3.10    0.99
   6  -1  15    4.36    0.82
   6   1 -15    2.69    0.75
   6  -1 -15    3.40    0.79
  -6   1 -15    3.26    0.84
   6   1  15    3.69    0.76
  -6  -1  15    3.40    1.02
   0  -2  15    6.45    0.66
   0  -2 -15    5.11    0.65
   0   2 -15    6.36    0.63
   0   2 -15    6.16    0.71
   0  -2 -15    7.19    0.65
   0   2  15    6.60    0.60
  -1  -2 -15    7.47    0.59
  -1   2  15    6.43    0.72
   1  -2  15    7.34    0.74
   1   2 -15    7.66    0.70
  -1   2  15    7.42    0.61
  -1  -2 -15    7.22    0.75
   1  -2 -15    6.99    0.68
  -1   2 -15    6.42    0.58
  -1  -2  15    7.77    0.72
  -1   2 -15    5.99    0.71
   1   2  15    7.24    0.66
  -2  -2 -15   15.42    0.97
   2   2 -15   16.88    1.00
   2  -2  15   15.00    0.99
  -2   2  15   17.23    1.07
   2  -2 -15   15.74    0.99
  -2   2 -15   17.01    1.05
  -2   2 -15   16.07    0.76
  -2  -2  15   16.09    0.90
  -2  -2  15   16.24    1.14
   3  -2  15    2.73    0.58
  -3  -2 -15    3.91    0.63
  -3   2  15    3.38    0.70
   3   2 -15    3.75    0.64
  -3  -2  15    2.84    0.70
   3  -2 -15    3.85    0.65
  -3   2 -15    3.47    0.67
   4   2 -15    7.75    0.82
  -4   2  15   10.01    1.08
  -4  -2 -15    9.95    0.96
   4  -2  15    7.23    0.83
   4  -2 -15    7.98    0.87
  -4   2 -15    8.85    0.98
  -4  -2  15    9.59    1.12
   5  -2  15   10.85    1.03
  -5   2  15    7.76    1.11
  -5  -2 -15    7.70    0.94
   5   2 -15    7.59    0.85
   5  -2 -15    9.73    0.98
  -5   2 -15    8.08    1.03
  -5  -2  15    5.98    1.06
  -6  -2 -15    3.61    0.81
   6  -2  15    4.12    0.83
   6   2 -15    4.87    0.83
  -6   2  15    3.84    1.04
   6   2  15    4.50    0.76
  -6   2 -15    4.31    0.93
  -6  -2  15    3.66    1.13
   6  -2 -15    4.41    0.85
   0   3 -15   18.03    0.94
   0  -3 -15   17.73    0.98
   0  -3 -15   18.71    0.95
   0  -3  15   17.96    1.02
   0   3 -15   16.87    1.03
  -1  -3 -15    4.09    0.61
  -1   3  15    4.63    0.46
  -1  -3 -15    5.12    0.63
  -1   3  15    5.27    0.65
  -1  -3 -15    4.45    0.49
   1  -3  15    5.32    0.66
   1   3 -15    4.95    0.64
  -1  -3  15    4.22    0.62
  -1   3 -15    4.29    0.50
   1  -3 -15    4.13    0.58
  -1   3 -15    5.54    0.70
  -2   3  15   20.91    1.17
  -2  -3 -15   20.84    1.08
   2   3 -15   21.07    1.12
   2  -3  15   21.00    1.11
  -2  -3 -15   20.11    1.07
  -2   3 -15   21.49    1.18
  -2  -3  15   19.93    1.06
   2  -3 -15   20.95    1.11
  -2  -3  15   22.55    1.29
  -2   3 -15   20.44    0.87
  -3  -3 -15    8.73    0.88
   3  -3  15    6.20    0.76
   3   3 -15    7.22    0.78
  -3  -3 -15    7.47    0.78
  -3   3  15    8.52    0.93
   3  -3 -15    6.07    0.72
  -3   3 -15    7.90    0.89
  -3  -3  15    8.27    0.97
  -4  -3 -15    4.11    0.76
   4   3 -15    3.51    0.67
  -4   3  15    4.51    0.85
   4  -3  15    4.05    0.70
  -4  -3 -15    4.91    0.74
   4  -3 -15    3.87    0.70
  -4  -3  15    2.60    0.80
  -4   3 -15    4.84    0.80
   5   3 -15    3.79    0.72
   5  -3  15    2.99    0.70
  -5   3  15    2.32    0.82
  -5  -3 -15    2.36    0.78
  -5  -3 -15    2.93    0.68
   5  -3 -15    3.20    0.74
  -5  -3  15    2.52    0.88
  -5   3 -15    3.46    0.77
  -6  -3 -15    4.15    0.85
   6  -3  15    3.52    0.82
   6   3 -15    3.45    0.79
  -6   3  15    1.87    0.94
   6  -3 -15    3.13    0.80
  -6  -3  15    3.43    1.10
  -6   3 -15    4.68    0.92
   0  -4 -15    1.13    0.42
   0   4 -15    0.88    0.40
   0  -4 -15    0.69    0.40
   0   4 -15    1.12    0.47
   0  -4  15    1.43    0.53
  -1  -4 -15   20.39    1.02
  -1   4  15   19.41    1.06
  -1   4  15   19.67    0.82
  -1  -4 -15   21.33    1.02
   1   4 -15   21.37    1.06
   1  -4  15   20.12    1.12
   1  -4 -15   20.70    1.04
  -1  -4  15   17.16    1.07
  -1   4 -15   18.79    0.93
  -1   4 -15   19.37    1.14
  -2  -4 -15   18.64    1.02
   2   4 -15   19.55    1.13
   2  -4  15   18.70    1.12
  -2   4  15   17.46    1.11
  -2  -4 -15   21.61    1.15
  -2  -4  15   20.29    1.28
  -2  -4  15   19.77    1.11
   2  -4 -15   18.03    1.08
  -2   4 -15   20.39    0.89
  -2   4 -15   19.40    1.14
  -3   4  15   24.77    1.38
   3   4 -15   24.22    1.25
   3  -4  15   23.17    1.27
  -3  -4 -15   23.03    1.26
  -3  -4 -15   23.49    1.19
  -3  -4  15   24.79    1.52
   3  -4 -15   24.80    1.29
  -3   4 -15   22.27    1.31
  -4  -4 -15    7.01    0.89
   4   4 -15    6.13    0.77
  -4  -4 -15    7.74    0.80
   4  -4  15    7.06    0.85
  -4   4  15    6.79    0.94
  -4   4 -15    7.62    0.90
   4  -4 -15    5.88    0.78
  -4  -4  15    5.36    0.96
  -5  -4 -15    1.32    0.71
  -5  -4 -15    0.93    0.58
   5  -4  15    0.93    0.62
  -5   4  15    0.13    0.73
   5   4 -15    0.39    0.56
   5  -4 -15    0.33    0.62
  -5  -4  15   -0.85    0.75
  -5   4 -15    0.86    0.63
   0  -5  15    0.44    0.53
   0   5 -15    0.60    0.45
   0   5  15    0.86    0.39
   0  -5 -15    0.82    0.40
   0   5  15    0.75    0.36
   0   5 -15    0.00    0.36
  -1  -5 -15    9.39    0.76
   1  -5  15    8.62    0.86
  -1   5  15    9.49    0.80
   1   5 -15    9.69    0.81
  -1  -5 -15    9.62    0.78
   1  -5 -15    8.91    0.76
  -1   5 -15    9.31    0.89
  -1   5 -15    9.40    0.75
   1   5  15    9.27    0.70
  -1  -5  15    8.88    0.88
   2  -5  15    8.45    0.86
  -2  -5 -15    8.37    0.77
   2   5 -15    8.05    0.78
  -2  -5 -15    8.85    0.85
  -2   5  15    8.30    0.81
  -2  -5  15    8.16    0.92
  -2  -5  15    7.93    0.84
   2  -5 -15    7.64    0.77
  -2   5 -15    9.10    0.70
  -2   5 -15    8.19    0.86
  -3   5  15   14.45    1.14
  -3  -5 -15   15.50    0.98
   3  -5  15   16.23    1.19
   3   5 -15   16.92    1.13
  -3  -5 -15   15.58    1.11
  -3  -5  15   15.03    1.27
  -3  -5  15   14.98    1.07
   3  -5 -15   14.30    1.16
  -3   5 -15   12.85    1.13
   4  -5  15   11.24    1.06
  -4  -5 -15   10.93    0.92
  -4  -5 -15   10.52    1.01
  -4   5  15   11.96    1.13
   4   5 -15   10.15    0.96
  -4   5 -15    9.55    1.03
   4  -5 -15   10.38    1.00
  -4  -5  15    9.45    1.16
   5  -5  15    0.18    0.60
  -5  -5 -15    0.19    0.66
  -5   5  15   -0.13    0.71
   5   5 -15    0.09    0.59
  -5  -5  15   -0.05    0.79
  -5   5 -15    0.32    0.60
   0   6  15    6.33    0.63
   0   6  15    6.09    0.62
   0   6 -15    5.94    0.66
   0   6 -15    6.96    0.78
   0  -6  15    5.73    0.79
   0  -6 -15    4.91    0.62
   1   6 -15    9.56    0.85
  -1  -6 -15   10.58    0.85
  -1   6  15   11.03    0.84
  -1   6  15   10.90    0.81
   1  -6  15   11.86    1.05
  -1   6 -15   10.32    0.95
   1   6  15   10.91    0.79
  -1  -6  15   11.62    1.01
  -1  -6  15   11.47    1.05
  -1   6 -15   10.11    0.80
   2   6 -15    3.09    0.60
  -2   6  15    4.40    0.64
   2  -6  15    2.53    0.67
  -2  -6 -15    1.65    0.63
  -2   6  15    3.07    0.60
  -2  -6  15    2.63    0.68
  -2   6 -15    2.67    0.49
  -2   6 -15    2.66    0.61
  -2  -6  15    2.57    0.70
   3  -6  15    0.38    0.58
  -3  -6 -15    1.14    0.61
  -3   6  15    1.40    0.58
   3   6 -15    0.81    0.51
  -3   6  15    1.23    0.50
  -3  -6  15    1.67    0.71
  -3   6 -15    0.76    0.52
  -3  -6  15    1.12    0.60
  -4  -6 -15    9.57    1.04
   4   6 -15    8.64    0.92
  -4   6  15   11.54    1.03
  -4   6  15    6.29    0.91
   4  -6  15    8.64    1.02
  -4   6 -15    9.69    1.02
  -4  -6  15    7.64    1.07
   5  -6  15    1.04    0.71
  -5   6  15    2.78    0.69
  -5  -6 -15    0.84    0.74
  -5   6  15   -0.56    0.74
   5   6 -15    1.56    0.65
  -5   6 -15    1.30    0.73
  -5  -6  15    1.11    0.94
   0   7 -15    0.81    0.48
   0  -7  15    0.34    0.64
   0   7 -15    0.75    0.46
   0  -7 -15    1.03    0.46
   0   7  15    2.11    0.51
   1  -7  15   26.43    1.48
  -1  -7 -15   27.13    1.29
   1   7 -15   27.31    1.33
  -1   7  15   27.33    1.27
  -1  -7  15   28.68    1.49
   1   7  15   27.36    1.20
  -1   7 -15   26.65    1.22
  -1   7 -15   25.42    1.35
  -1  -7  15   29.33    1.45
  -2  -7 -15    6.06    0.80
   2  -7  15    6.78    0.92
   2   7 -15    6.39    0.76
  -2   7 -15    7.16    0.87
  -2  -7  15    7.24    0.91
  -2   7 -15    7.25    0.68
  -2  -7  15    5.73    0.85
  -3  -7 -15    1.79    0.67
  -3   7  15    1.34    0.54
   3   7 -15    1.25    0.54
   3  -7  15    0.46    0.68
  -3  -7  15    1.42    0.70
  -3  -7  15    0.58    0.63
  -3   7 -15    1.87    0.63
   4  -7  15   12.34    1.19
   4   7 -15   11.92    1.06
  -4  -7 -15   11.04    1.12
  -4   7  15   12.53    1.12
  -4   7 -15   12.81    1.22
  -4  -7  15   10.70    1.28
   5   7 -15    5.46    0.85
  -5   7  15    4.16    0.82
   5  -7  15    2.93    0.88
  -5  -7 -15    3.07    0.87
  -5   7 -15    4.42    0.89
  -5  -7  15    2.78    1.05
   0   8  15    7.46    0.76
   0  -8 -15    8.50    0.78
   0   8 -15    7.81    0.78
   0  -8  15    7.17    0.97
   0   8 -15    8.25    0.89
  -1  -8 -15   16.58    1.12
  -1   8  15   16.73    1.11
   1   8 -15   17.33    1.16
   1  -8  15   17.13    1.40
   1   8  15   16.41    1.04
  -1   8 -15   17.06    1.12
  -1  -8  15   17.21    1.21
  -1  -8  15   16.24    1.37
  -1   8 -15   16.63    1.03
  -2  -8 -15    1.79    0.67
   2   8 -15    1.20    0.57
  -2   8  15    3.59    0.69
   2  -8  15    3.16    0.83
  -2   8 -15    2.23    0.50
  -2   8 -15    2.81    0.64
  -2  -8  15    1.99    0.66
  -2  -8  15    0.92    0.70
   3  -8  15    9.51    1.12
  -3   8  15    8.15    0.94
  -3  -8 -15    9.10    0.99
   3   8 -15   10.64    0.98
  -3  -8  15    9.70    0.99
  -3  -8  15    8.94    1.08
  -3   8 -15   10.90    1.07
  -4  -8 -15    9.54    1.08
   4  -8  15   10.67    1.21
   4   8 -15    8.00    0.95
  -4   8  15   13.89    1.24
  -4  -8  15    9.49    1.24
  -4   8 -15   10.39    1.09
   0   9  15    0.30    0.49
   0  -9 -15    0.90    0.73
   0   9 -15    0.97    0.52
   0  -9  15   -0.37    0.69
   0   9 -15    1.46    0.54
   1   9 -15    9.55    0.96
  -1   9  15    7.76    0.87
  -1  -9 -15   11.47    0.95
   1  -9  15    8.44    1.09
  -1   9 -15    8.35    0.90
  -1  -9  15   10.31    1.02
  -1   9 -15    9.93    0.85
  -1  -9  15    7.50    1.03
   1   9  15    6.67    0.80
  -2   9  15    0.81    0.58
   2   9 -15    1.28    0.59
   2  -9  15    0.46    0.77
  -2  -9 -15    0.75    0.60
  -2   9 -15    1.39    0.57
  -2  -9  15    1.26    0.76
  -2  -9  15    0.97    0.65
  -2   9 -15    1.21    0.49
   3  -9  15    0.58    0.78
   3   9 -15    1.62    0.67
  -3  -9 -15    1.20    0.74
  -3   9  15    0.97    0.63
  -3   9 -15    0.83    0.57
  -3  -9  15    1.24    0.77
  -3  -9  15   -0.27    0.70
   4   9 -15   11.40    1.08
   4  -9  15    9.23    1.22
  -4   9  15   11.04    1.13
  -4  -9 -15   10.74    1.13
  -4  -9  15    9.02    1.23
  -4   9 -15    9.58    1.07
   0  10 -15    1.41    0.54
   0  10  15    1.10    0.61
   0 -10  15    1.36    0.85
   0  10 -15    1.78    0.59
  -1  10  15    6.42    0.88
  -1 -10 -15    7.28    0.86
   1 -10  15    5.92    1.02
   1  10 -15    6.72    0.84
  -1  10 -15    6.19    0.82
  -1  10 -15    6.33    0.76
   1  10  15    5.50    0.80
  -1 -10  15    6.69    0.89
  -1 -10  15    6.44    1.02
  -2  10  15   10.41    1.08
  -2 -10 -15    9.86    1.03
   2 -10  15   10.86    1.27
   2  10 -15   10.47    1.03
  -2  10 -15   11.61    1.08
  -2 -10  15   10.77    1.15
  -2  10 -15   12.35    1.00
  -2 -10  15   10.62    1.17
   3 -10  15    1.55    0.93
   3  10 -15    2.44    0.74
  -3 -10 -15    1.64    0.74
  -3  10  15    2.90    0.80
  -3  10 -15    2.60    0.72
  -3 -10  15    3.92    0.89
   0  11 -15   22.27    1.37
   0 -11  15   19.18    1.68
   0  11  15   18.58    1.37
  -1 -11 -15   13.39    1.11
  -1  11  15   10.73    1.11
   1 -11  15   11.22    1.35
   1  11 -15   10.92    1.05
  -1  11 -15   12.41    1.04
   1  11  15    8.84    1.33
  -1 -11  15   12.12    1.31
   2  11 -15    6.99    0.95
  -2  11  15    5.46    0.94
   2 -11  15    5.81    1.13
  -2 -11 -15    7.16    1.00
  -2 -11  15    4.32    1.00
  -2  11 -15    7.22    0.85
   0   0 -16   21.97    1.15
   0   0  16   21.89    1.00
   0   0 -16   20.67    0.98
  -1   0  16   12.17    0.76
   1   0 -16   12.27    0.85
  -1   0 -16   12.16    0.73
   1   0  16   12.83    0.85
  -1   0 -16   11.15    0.93
  -1   0  16   10.65    0.95
  -2   0 -16    9.56    0.89
   2   0  16    9.26    0.80
  -2   0  16   10.58    0.96
   2   0 -16   10.59    0.88
   3   0  16    0.64    0.45
   3   0 -16   -0.16    0.44
  -3   0  16   -0.05    0.57
  -3   0 -16    0.69    0.51
  -4   0 -16    0.48    0.54
   4   0 -16    0.58    0.51
  -4   0  16    0.39    0.67
   4   0  16    0.10    0.47
   5   0 -16    2.80    0.73
  -5   0  16    2.25    0.83
  -5   0 -16    2.29    0.71
   5   0  16    3.20    0.72
   6   0  16    3.39    0.78
  -6   0 -16    3.63    0.90
  -6   0  16    2.09    0.99
   6   0 -16    3.05    0.80
   0  -1 -16    2.47    0.53
   0   1 -16    2.05    0.43
   0  -1 -16    1.90    0.43
   0  -1  16    1.99    0.48
   0   1  16    2.23    0.45
   0   1 -16    1.78    0.52
  -1  -1 -16    8.04    0.67
  -1   1  16    7.87    0.64
  -1   1  16    8.48    0.82
   1  -1  16    8.23    0.73
   1   1 -16    8.56    0.74
  -1  -1 -16    8.17    0.79
  -1   1 -16    8.79    0.68
   1  -1 -16    7.64    0.70
  -1  -1  16    7.95    0.81
  -1   1 -16    8.75    0.82
   1   1  16    7.94    0.71
  -1  -1  16    8.30    0.69
  -2  -1 -16   11.23    0.94
   2   1 -16   12.07    0.92
  -2   1  16   11.20    1.03
   2  -1  16   11.58    0.91
   2  -1 -16   11.67    0.91
  -2  -1  16   10.99    1.01
  -2   1 -16   12.64    0.98
  -2  -1  16   13.17    1.10
   2   1  16   12.69    0.86
  -3   1  16    8.42    0.95
  -3  -1 -16   10.25    0.95
   3   1 -16    7.87    0.79
   3  -1  16    9.42    0.87
  -3   1 -16    9.08    0.94
  -3  -1  16    8.68    1.00
   3   1  16    9.60    0.89
   3  -1 -16    9.49    0.88
   4  -1  16    6.90    0.85
  -4  -1 -16    6.33    0.85
  -4   1  16    6.08    0.93
   4   1 -16    6.83    0.82
  -4  -1  16    6.40    0.99
  -4   1 -16    6.92    0.90
   4   1  16    6.63    0.81
   4  -1 -16    6.36    0.78
  -5   1  16    2.21    0.86
   5   1 -16    2.22    0.67
   5  -1  16    1.83    0.70
  -5  -1 -16    2.03    0.69
  -5  -1  16    1.86    0.85
  -5   1 -16    2.95    0.75
   5  -1 -16    1.72    0.68
   5   1  16    3.81    0.71
   6  -1  16    3.03    0.77
  -6   1  16    1.00    0.93
   6   1 -16    1.94    0.74
  -6  -1 -16    3.17    0.82
   6   1  16    2.77    0.74
   6  -1 -16    2.10    0.77
  -6   1 -16    4.39    0.97
  -6  -1  16    1.37    0.96
   0  -2  16   22.69    1.06
   0   2  16   22.16    0.97
   0  -2 -16   22.86    1.17
   0   2 -16   23.00    1.20
   0  -2 -16   23.18    1.06
   0   2 -16   22.33    1.02
   1   2 -16   10.74    0.83
  -1   2  16    9.55    0.88
  -1  -2 -16    8.78    0.81
  -1  -2 -16    8.95    0.69
   1  -2  16    7.68    0.75
  -1   2  16    8.40    0.62
  -1  -2  16    8.47    0.74
  -1  -2  16   10.62    0.96
   1   2  16    9.98    0.76
  -1   2 -16    8.63    0.83
   1  -2 -16    8.30    0.72
  -1   2 -16    8.74    0.69
  -2  -2 -16    3.53    0.61
   2  -2  16    4.51    0.65
   2   2 -16    3.86    0.61
  -2   2  16    3.86    0.67
  -2  -2  16    3.48    0.69
  -2  -2  16    5.44    0.63
   2   2  16    4.43    0.59
   2  -2 -16    3.94    0.62
  -2   2 -16    3.64    0.63
   3   2 -16    2.45    0.58
   3  -2  16    3.84    0.70
  -3  -2 -16    3.30    0.63
  -3   2  16    1.96    0.65
   3  -2 -16    1.93    0.60
  -3   2 -16    2.72    0.64
  -3  -2  16    2.31    0.70
   4   2 -16    0.69    0.54
   4  -2  16   -0.48    0.49
  -4   2  16    0.12    0.61
  -4  -2 -16    0.68    0.53
  -4  -2  16    1.30    0.72
   4   2  16    1.72    0.54
  -4   2 -16    0.51    0.57
   4  -2 -16   -0.26    0.51
  -5   2  16    2.41    0.87
  -5  -2 -16    2.68    0.72
   5   2 -16    1.50    0.64
   5  -2  16    1.99    0.68
   5  -2 -16    2.63    0.73
  -5  -2  16    1.79    0.86
   5   2  16    3.40    0.68
  -5   2 -16    2.70    0.74
   0  -3  16   16.86    1.02
   0  -3 -16   18.88    0.96
   0   3  16   17.65    0.86
   0   3 -16   17.22    1.08
   0  -3 -16   16.90    1.01
   0   3 -16   18.77    0.98
   1   3 -16    1.61    0.47
  -1   3  16    2.05    0.53
  -1  -3 -16    1.84    0.49
   1  -3  16    1.79    0.51
  -1   3  16    2.05    0.37
  -1  -3 -16    1.35    0.39
  -1  -3  16    2.54    0.55
  -1   3 -16    2.24    0.54
   1  -3 -16    2.14    0.48
  -1   3 -16    2.11    0.44
  -2  -3 -16    1.46    0.57
  -2   3  16    0.76    0.50
   2   3 -16    0.65    0.46
   2  -3  16    0.66    0.47
  -2  -3 -16    1.00    0.47
  -2  -3  16    0.57    0.52
   2  -3 -16    0.59    0.46
  -2   3 -16    0.56    0.52
  -2  -3  16    1.42    0.57
  -2   3 -16    1.05    0.49
   3   3 -16   10.15    0.91
   3  -3  16   10.52    0.93
  -3  -3 -16   10.98    0.98
  -3   3  16   11.48    1.07
  -3  -3 -16   10.92    0.94
   3  -3 -16   10.29    0.91
  -3   3 -16   10.60    1.00
  -3  -3  16    8.36    1.00
  -4  -3 -16    3.56    0.70
   4  -3  16    4.18    0.74
  -4   3  16    2.10    0.73
  -4  -3 -16    3.31    0.76
   4   3 -16    2.37    0.64
  -4   3 -16    2.60    0.67
  -4  -3  16    1.65    0.79
   4  -3 -16    2.37    0.68
   5  -3  16    4.17    0.81
   5   3 -16    4.18    0.77
  -5   3  16    3.31    0.92
  -5  -3 -16    4.98    0.82
  -5   3 -16    2.63    0.78
  -5  -3  16    2.63    0.95
   5  -3 -16    3.23    0.80
   0   4 -16    7.46    0.82
   0  -4 -16    8.45    0.69
   0  -4  16    8.41    0.82
   0   4 -16    9.81    0.79
   1  -4  16   23.20    1.20
   1   4 -16   24.39    1.19
  -1  -4 -16   24.79    1.18
  -1   4  16   24.68    1.22
  -1  -4 -16   24.45    1.15
  -1   4 -16   24.12    1.07
   1  -4 -16   23.63    1.14
  -1  -4  16   24.78    1.24
  -1   4 -16   24.87    1.28
   2  -4  16   10.41    0.91
   2   4 -16   10.68    0.89
  -2  -4 -16   10.26    0.88
  -2   4  16   10.06    0.96
  -2  -4 -16    9.52    0.83
  -2  -4  16   10.09    0.89
  -2   4 -16   10.35    0.96
  -2   4 -16    9.17    0.70
  -2  -4  16   10.74    1.04
   2  -4 -16    9.01    0.82
   3  -4  16   12.65    1.05
  -3   4  16   13.71    1.22
  -3  -4 -16   14.72    1.00
   3   4 -16   12.61    1.05
  -3  -4 -16   12.91    1.07
  -3  -4  16   14.21    1.26
   3  -4 -16   13.32    1.12
  -3   4 -16   14.23    1.13
  -4  -4 -16    3.22    0.63
   4  -4  16    3.97    0.79
  -4  -4 -16    4.45    0.79
  -4   4  16    2.57    0.78
   4   4 -16    2.74    0.64
  -4   4 -16    3.80    0.75
   4  -4 -16    3.04    0.68
  -4  -4  16    1.76    0.79
  -5   4  16    3.57    0.95
  -5  -4 -16    4.33    0.78
  -5  -4 -16    3.88    0.85
   5   4 -16    4.13    0.78
   5  -4  16    4.33    0.83
  -5   4 -16    4.31    0.88
  -5  -4  16    4.90    1.09
   5  -4 -16    3.40    0.78
   0   5 -16   38.47    1.45
   0  -5  16   39.68    1.62
   0  -5 -16   38.27    1.36
   0   5  16   37.82    1.44
   0   5 -16   39.21    1.60
   1   5 -16    2.48    0.55
  -1  -5 -16    2.76    0.51
  -1  -5 -16    1.61    0.55
  -1   5  16    2.45    0.53
   1  -5  16    1.60    0.62
  -1   5 -16    2.22    0.48
   1   5  16    1.97    0.42
  -1  -5  16    2.31    0.65
   1  -5 -16    1.88    0.51
  -1   5 -16    2.91    0.63
  -1  -5  16    2.54    0.64
  -2  -5 -16   -0.16    0.52
  -2  -5 -16    0.76    0.41
   2  -5  16    0.91    0.57
  -2   5  16    0.72    0.49
   2   5 -16    0.24    0.48
  -2   5 -16    0.58    0.52
  -2  -5  16    1.09    0.60
   2  -5 -16    0.75    0.52
  -2   5 -16    0.95    0.38
  -2  -5  16    0.24    0.58
  -3   5  16    3.11    0.70
  -3  -5 -16    4.12    0.74
   3   5 -16    3.21    0.67
   3  -5  16    4.11    0.75
  -3  -5 -16    2.64    0.55
  -3  -5  16    3.48    0.80
  -3   5 -16    2.91    0.68
   3  -5 -16    3.44    0.70
   4  -5  16    0.45    0.59
  -4  -5 -16    0.90    0.68
  -4   5  16    0.72    0.65
   4   5 -16    1.40    0.59
  -4   5 -16    1.78    0.67
   4  -5 -16    0.55    0.60
  -4  -5  16    1.62    0.79
   5   5 -16    0.95    0.66
   5  -5  16    0.07    0.65
  -5   5  16    0.49    0.76
  -5  -5 -16   -0.03    0.70
  -5  -5  16   -0.20    0.83
  -5   5 -16    1.37    0.67
   0  -6 -16    0.73    0.44
   0   6 -16    1.31    0.49
   0   6  16    0.52    0.39
   0  -6  16    1.13    0.64
   0   6 -16    1.10    0.50
   0   6  16    0.78    0.40
  -1   6  16    8.89    0.80
  -1   6  16   10.64    0.87
   1  -6  16   11.15    1.05
   1   6 -16    9.97    0.88
  -1  -6 -16   10.93    0.89
   1   6  16   10.04    0.81
  -1   6 -16    9.93    0.80
  -1   6 -16   10.41    0.98
  -1  -6  16   10.33    1.02
  -1  -6  16    7.48    0.92
  -2  -6 -16    9.71    0.93
  -2   6  16    7.19    0.76
  -2   6  16    7.23    0.80
   2  -6  16    7.67    0.93
   2   6 -16    7.14    0.80
  -2  -6  16    6.57    0.90
  -2   6 -16    8.84    0.72
  -2   6 -16    7.26    0.90
  -2  -6  16    6.15    0.86
  -3   6  16    1.67    0.61
  -3   6  16    2.84    0.58
  -3  -6 -16    2.24    0.72
   3   6 -16    1.14    0.56
   3  -6  16    1.52    0.66
  -3  -6  16    1.08    0.71
  -3   6 -16    1.66    0.62
   4   6 -16    3.82    0.76
  -4   6  16    4.20    0.72
   4  -6  16    2.78    0.77
  -4   6  16    2.72    0.78
  -4  -6 -16    3.04    0.82
  -4   6 -16    2.77    0.75
  -4  -6  16    3.31    0.91
  -5  -6 -16    4.46    0.93
  -5   6  16    2.58    0.90
   5   6 -16    3.69    0.80
  -5   6  16    6.44    0.89
   5  -6  16    5.06    0.96
  -5   6 -16    5.04    0.94
  -5  -6  16    3.33    1.04
   0  -7  16   11.21    1.09
   0  -7 -16   12.09    0.90
   0   7 -16   11.91    0.99
   0   7  16   13.24    0.96
   0   7 -16   13.57    0.97
   1  -7  16    3.65    0.80
  -1   7  16    4.60    0.65
   1   7 -16    3.73    0.64
  -1  -7 -16    4.69    0.69
   1   7  16    4.01    0.59
  -1   7 -16    4.10    0.59
  -1  -7  16    4.99    0.79
  -1  -7  16    5.14    0.86
  -1   7 -16    5.00    0.74
  -2  -7 -16   -0.36    0.53
  -2   7  16   -0.16    0.41
   2  -7  16   -0.29    0.63
   2   7 -16    0.59    0.52
  -2  -7  16   -0.25    0.63
  -2   7 -16    0.24    0.38
  -2   7 -16    0.86    0.54
  -2  -7  16    0.20    0.57
   3   7 -16    4.74    0.74
  -3   7  16    4.55    0.74
   3  -7  16    2.16    0.78
  -3  -7 -16    2.07    0.72
  -3  -7  16    3.75    0.74
  -3  -7  16    2.96    0.82
  -3   7 -16    3.72    0.76
   4   7 -16    4.60    0.84
   4  -7  16    4.20    0.93
  -4  -7 -16    4.78    0.93
  -4   7  16    3.46    0.76
  -4  -7  16    2.20    0.94
  -4   7 -16    5.19    0.88
   0  -8  16   -0.99    0.64
   0   8 -16    0.38    0.46
   0   8 -16    0.65    0.48
   0   8  16    0.08    0.46
   1   8 -16    0.63    0.51
  -1   8  16    0.66    0.50
  -1  -8 -16    1.45    0.58
   1  -8  16    0.63    0.71
  -1   8 -16    0.96    0.46
  -1  -8  16    0.09    0.71
  -1  -8  16    0.98    0.57
  -1   8 -16    0.40    0.48
   1   8  16    0.65    0.49
   2  -8  16    3.58    0.89
   2   8 -16    5.04    0.76
  -2  -8 -16    3.43    0.73
  -2   8  16    3.80    0.70
  -2   8 -16    3.65    0.56
  -2  -8  16    4.71    0.88
  -2  -8  16    5.34    0.86
  -2   8 -16    5.02    0.78
  -3   8  16    3.65    0.77
  -3  -8 -16    2.00    0.73
   3  -8  16    2.59    0.87
   3   8 -16    2.98    0.68
  -3   8 -16    3.37    0.76
  -3  -8  16    3.00    0.84
  -3  -8  16    2.66    0.78
   4  -8  16    4.36    0.99
  -4  -8 -16    3.13    0.85
   4   8 -16    5.26    0.86
  -4   8  16    5.21    0.89
  -4  -8  16    3.70    1.04
  -4   8 -16    4.69    0.85
   0   9 -16    2.31    0.61
   0   9 -16    3.01    0.64
   0  -9  16    1.79    0.79
   0   9  16    2.05    0.61
   1  -9  16    1.81    0.80
  -1   9  16    2.07    0.64
  -1  -9 -16    2.05    0.64
   1   9 -16    1.87    0.61
  -1   9 -16    3.05    0.61
  -1  -9  16    2.66    0.69
  -1   9 -16    3.86    0.71
  -1  -9  16    1.49    0.83
   1   9  16    1.16    0.59
  -2   9  16    9.10    0.97
  -2  -9 -16   10.08    1.01
   2   9 -16    6.91    0.89
   2  -9  16    6.31    1.07
  -2  -9  16    6.19    0.94
  -2  -9  16    6.05    0.99
  -2   9 -16    8.01    0.79
  -2   9 -16    8.34    0.98
  -3  -9 -16    1.84    0.73
   3  -9  16    1.96    0.88
   3   9 -16    1.67    0.67
  -3   9  16    3.08    0.77
  -3  -9  16    2.36    0.84
  -3  -9  16    2.02    0.88
  -3   9 -16    2.73    0.71
   0  10  16    1.07    0.61
   0 -10  16    2.22    0.94
   0  10 -16    1.14    0.57
  -1 -10 -16    0.84    0.63
   1  10 -16    1.89    0.66
   1 -10  16    0.66    0.83
  -1  10  16    0.91    0.65
  -1  10 -16    1.96    0.59
  -1  10 -16    1.84    0.60
  -1 -10  16    2.06    0.70
  -1 -10  16    0.05    0.84
  -2 -10 -16   10.81    1.07
   2 -10  16    8.77    1.23
   2  10 -16   11.22    1.09
  -2  10  16    9.95    1.11
  -2 -10  16    9.01    1.11
  -2  10 -16   10.98    1.10
  -2 -10  16   10.66    1.19
  -2  10 -16   12.08    1.02
   0  11 -16    5.34    0.80
   0  11  16    3.01    0.79
   0 -11  16    4.85    1.09
   1 -11  16    7.99    1.23
  -1  11  16    9.04    1.06
   1  11 -16   10.06    1.08
  -1 -11 -16    9.11    0.98
  -1  11 -16    9.61    0.96
  -1 -11  16    8.23    1.21
   0   0  17    0.26    0.36
   0   0 -17    0.07    0.37
   0   0 -17    0.17    0.41
  -1   0 -17    5.70    0.75
   1   0 -17    6.53    0.68
  -1   0 -17    5.22    0.54
  -1   0  17    4.73    0.56
  -1   0  17    5.66    0.76
   1   0  17    6.18    0.69
   2   0  17    5.90    0.72
  -2   0 -17    5.25    0.77
   2   0 -17    5.67    0.70
  -2   0  17    4.97    0.77
  -3   0  17    5.90    0.91
  -3   0 -17    7.81    0.89
   3   0 -17    7.45    0.81
   3   0  17    6.63    0.77
  -4   0 -17   21.69    1.39
   4   0  17   17.61    1.21
  -4   0  17   18.94    1.55
   4   0 -17   21.05    1.28
   5   0  17    0.36    0.52
   5   0 -17   -0.48    0.58
  -5   0 -17    0.17    0.62
  -5   0  17   -1.03    0.73
   0  -1 -17    7.54    0.81
   0  -1 -17    7.36    0.67
   0   1 -17    7.74    0.82
   0   1 -17    7.66    0.68
   0   1  17    6.93    0.65
   0  -1  17    6.71    0.67
  -1   1  17   23.17    1.24
  -1  -1 -17   23.22    0.98
  -1   1  17   20.96    0.94
   1  -1  17   22.38    1.09
  -1  -1 -17   20.17    1.16
   1   1 -17   21.76    1.10
   1   1  17   21.72    1.02
  -1  -1  17   20.64    1.22
  -1  -1  17   20.10    0.99
  -1   1 -17   20.00    0.95
   1  -1 -17   20.54    1.07
  -1   1 -17   19.73    1.18
  -2   1  17   12.52    1.12
  -2  -1 -17   12.56    1.00
   2  -1  17   13.40    0.99
   2   1 -17   14.73    1.05
  -2  -1  17   12.66    1.15
   2   1  17   12.00    0.91
  -2   1 -17   12.78    1.04
   2  -1 -17   14.20    1.00
  -3  -1 -17   11.97    1.06
   3  -1  17   13.04    1.05
  -3   1  17   11.00    1.11
   3   1 -17   12.75    1.03
  -3  -1  17   10.82    1.11
   3  -1 -17   13.56    1.09
  -3   1 -17   12.65    1.11
   3   1  17   11.28    0.94
  -4   1  17    3.35    0.85
   4  -1  17    2.97    0.68
  -4  -1 -17    4.08    0.77
   4   1 -17    4.39    0.73
   4   1  17    3.69    0.70
  -4  -1  17    3.19    0.88
   4  -1 -17    5.12    0.76
  -4   1 -17    3.86    0.79
  -5  -1 -17    2.17    0.72
   5  -1  17    1.24    0.66
  -5   1  17    1.18    0.83
   5   1 -17    0.85    0.62
   5   1  17    2.86    0.68
   5  -1 -17    2.18    0.74
  -5   1 -17    2.29    0.73
  -5  -1  17    1.28    0.86
   0   2 -17    2.92    0.58
   0  -2 -17    2.81    0.58
   0  -2  17    3.54    0.57
   0   2 -17    3.40    0.53
   0   2  17    3.12    0.48
   0  -2 -17    3.54    0.54
  -1   2  17    4.42    0.52
  -1  -2 -17    5.51    0.70
  -1  -2 -17    5.23    0.55
  -1   2  17    5.09    0.71
   1   2 -17    3.97    0.61
   1  -2  17    5.29    0.69
  -1   2 -17    4.93    0.55
  -1  -2  17    5.31    0.65
   1   2  17    5.23    0.62
  -1  -2  17    5.11    0.74
   1  -2 -17    5.15    0.66
  -1   2 -17    5.88    0.79
   2   2 -17   29.20    1.35
  -2  -2 -17   29.93    1.40
  -2   2  17   32.06    1.53
   2  -2  17   27.71    1.31
  -2  -2  17   29.19    1.52
   2  -2 -17   29.35    1.37
  -2   2 -17   29.14    1.47
   2   2  17   32.21    1.32
  -3   2  17   15.47    1.28
   3  -2  17   15.71    1.12
  -3  -2 -17   17.70    1.16
   3   2 -17   16.01    1.11
   3  -2 -17   14.92    1.15
  -3  -2  17   15.76    1.30
   3   2  17   16.30    1.08
  -3   2 -17   15.40    1.19
  -4  -2 -17    7.10    0.88
   4   2 -17    8.46    0.89
  -4   2  17    5.72    0.96
   4  -2  17    7.80    0.93
  -4   2 -17    8.52    1.01
   4  -2 -17    5.81    0.83
   4   2  17    6.75    0.81
  -4  -2  17    7.88    1.07
   5   2 -17    2.87    0.72
   5  -2  17    2.71    0.75
  -5   2  17    2.28    0.96
  -5  -2 -17    5.58    0.90
   5  -2 -17    2.97    0.78
   5   2  17    4.05    0.77
  -5   2 -17    5.08    0.91
   0  -3  17   13.97    0.99
   0   3 -17   15.11    0.94
   0   3  17   15.17    0.83
   0   3 -17   15.89    1.05
   0  -3 -17   16.01    0.93
   1   3 -17    4.05    0.61
  -1  -3 -17    2.75    0.47
  -1   3  17    3.75    0.65
  -1  -3 -17    2.80    0.57
   1  -3  17    2.94    0.58
  -1  -3  17    3.50    0.70
  -1   3 -17    3.26    0.49
  -1   3 -17    3.84    0.69
  -1  -3  17    2.50    0.59
   1  -3 -17    2.87    0.57
   1   3  17    3.52    0.53
   2   3 -17   10.46    0.88
  -2   3  17   10.79    1.01
   2  -3  17    9.35    0.87
  -2  -3 -17    9.60    0.88
  -2   3 -17    9.87    0.98
  -2  -3  17    8.85    0.86
  -2  -3  17    8.89    0.97
   2  -3 -17    9.20    0.85
  -3  -3 -17   13.96    1.03
  -3   3  17   14.23    1.24
   3   3 -17   14.54    1.12
   3  -3  17   13.55    1.13
   3  -3 -17   13.82    1.12
  -3  -3  17   13.46    1.26
  -3   3 -17   12.78    1.09
  -4   3  17   -0.06    0.67
   4  -3  17    0.15    0.53
   4   3 -17    1.34    0.60
  -4  -3 -17    0.10    0.49
   4  -3 -17    0.18    0.55
  -4   3 -17    0.91    0.62
  -4  -3  17   -0.70    0.65
   5  -3  17    0.15    0.64
   5   3 -17    0.72    0.61
  -5   3  17    0.03    0.83
  -5  -3 -17    1.11    0.64
  -5   3 -17    1.31    0.70
  -5  -3  17   -0.39    0.80
   5  -3 -17   -0.16    0.64
   0   4  17    0.07    0.37
   0   4 -17    0.29    0.43
   0  -4 -17   -0.06    0.40
   0   4  17    0.36    0.32
   0   4 -17    0.14    0.41
   0  -4  17   -0.14    0.48
  -1   4  17    0.80    0.46
  -1  -4 -17    0.37    0.50
  -1  -4 -17    1.03    0.46
   1  -4  17   -0.18    0.50
   1   4 -17    0.48    0.46
  -1  -4  17    1.60    0.57
  -1   4 -17    0.86    0.53
  -1   4 -17    1.31    0.40
   1  -4 -17    0.62    0.45
  -1  -4  17    0.36    0.56
   2   4 -17    8.76    0.84
  -2   4  17    7.61    0.87
  -2  -4 -17    8.82    0.83
  -2  -4 -17    8.69    0.87
   2  -4  17    8.85    0.91
   2  -4 -17    7.94    0.82
  -2   4 -17    8.51    0.96
  -2  -4  17    7.81    0.83
  -2  -4  17    8.33    0.98
   3   4 -17   -0.24    0.47
  -3  -4 -17    0.16    0.44
  -3  -4 -17   -1.06    0.52
   3  -4  17   -0.32    0.55
  -3   4  17   -0.18    0.54
  -3   4 -17    0.98    0.55
   3  -4 -17   -0.13    0.52
  -3  -4  17    0.61    0.66
  -4  -4 -17    9.60    0.94
   4   4 -17    8.32    0.93
  -4  -4 -17    9.33    1.03
  -4   4  17    8.50    1.07
   4  -4  17    9.21    0.99
   4  -4 -17    8.78    0.94
  -4   4 -17   11.53    1.16
  -4  -4  17    8.12    1.11
  -5  -4 -17    4.02    0.91
   5  -4  17    4.66    0.87
   5   4 -17    3.20    0.76
  -5   4  17    2.88    0.96
  -5  -4 -17    4.41    0.81
  -5   4 -17    5.21    0.94
  -5  -4  17    5.58    1.12
   5  -4 -17    2.25    0.77
   0  -5  17    3.32    0.72
   0   5  17    3.51    0.56
   0   5 -17    2.74    0.52
   0  -5 -17    3.32    0.56
   0   5 -17    3.08    0.64
  -1  -5 -17   10.24    0.86
   1  -5  17    9.41    0.94
  -1  -5 -17    8.64    0.84
   1   5 -17   11.19    0.94
  -1   5  17    9.04    0.86
  -1   5 -17    9.74    0.93
  -1  -5  17   11.64    1.08
   1  -5 -17    9.75    0.85
  -1   5 -17    9.70    0.81
  -1  -5  17   10.56    0.99
   1   5  17   10.41    0.76
   2  -5  17    1.65    0.64
  -2   5  17    1.71    0.58
  -2  -5 -17    1.75    0.61
   2   5 -17    2.19    0.59
  -2  -5 -17    1.74    0.49
   2  -5 -17    0.59    0.54
  -2  -5  17    0.88    0.63
  -2   5 -17    2.49    0.65
  -2  -5  17    1.90    0.65
  -3  -5 -17    2.88    0.73
  -3   5  17    1.87    0.67
  -3  -5 -17    3.25    0.80
   3  -5  17    2.15    0.69
   3   5 -17    3.39    0.66
   3  -5 -17    2.60    0.68
  -3  -5  17    2.46    0.76
  -3   5 -17    2.55    0.69
   4  -5  17    9.35    1.04
  -4   5  17    6.88    0.99
   4   5 -17    9.46    0.99
  -4  -5 -17    7.97    1.00
  -4   5 -17   10.35    1.12
  -4  -5  17    7.34    1.13
   4  -5 -17    8.15    0.97
   5  -5  17    8.07    1.05
  -5   5  17    6.21    1.10
  -5  -5 -17    8.43    1.09
   5   5 -17    8.51    1.00
  -5   5 -17    9.41    1.15
  -5  -5  17    7.49    1.22
   0  -6  17    6.48    0.90
   0   6  17    2.52    0.51
   0  -6 -17    1.84    0.51
   0   6 -17    2.07    0.58
   0   6 -17    1.31    0.50
  -1   6  17    4.17    0.61
  -1   6  17    3.78    0.61
   1   6 -17    4.70    0.67
   1  -6  17    3.94    0.81
  -1  -6 -17    4.34    0.67
  -1   6 -17    4.32    0.73
  -1   6 -17    4.00    0.59
   1   6  17    3.69    0.56
  -1  -6  17    2.90    0.76
  -1  -6  17    4.40    0.77
  -2   6  17    5.37    0.73
   2  -6  17    5.13    0.85
  -2   6  17    4.06    0.70
   2   6 -17    4.66    0.73
  -2  -6 -17    4.03    0.73
  -2  -6  17    4.36    0.81
  -2   6 -17    5.41    0.82
  -2  -6  17    4.83    0.85
  -3   6  17    2.97    0.62
  -3   6  17    0.52    0.59
   3   6 -17    2.01    0.63
   3  -6  17    0.68    0.66
  -3  -6 -17    2.46    0.72
  -3  -6  17    1.55    0.77
  -3   6 -17    1.44    0.62
  -4   6  17    1.07    0.55
   4   6 -17   -0.15    0.61
  -4  -6 -17    0.25    0.70
  -4   6  17   -0.42    0.66
   4  -6  17    0.91    0.72
  -4   6 -17    0.94    0.68
  -4  -6  17   -0.88    0.73
   0   7  17    3.87    0.62
   0   7 -17    5.37    0.69
   0   7 -17    4.29    0.73
   0  -7  17    4.15    0.87
  -1   7  17    0.99    0.48
  -1  -7 -17    0.32    0.53
   1   7 -17    0.85    0.49
   1  -7  17   -0.39    0.62
  -1  -7  17    1.84    0.61
  -1  -7  17    0.40    0.66
  -1   7 -17    0.38    0.43
  -1   7 -17    0.36    0.49
   1   7  17    0.47    0.45
  -2   7  17    1.57    0.55
   2  -7  17    1.20    0.74
  -2  -7 -17    1.02    0.64
   2   7 -17    1.27    0.56
  -2  -7  17    1.81    0.67
  -2   7 -17    1.48    0.60
  -2  -7  17    0.43    0.67
  -2   7 -17    1.54    0.68
  -3  -7 -17   17.75    1.41
   3  -7  17   17.19    1.45
  -3   7  17   21.97    1.33
   3   7 -17   20.24    1.32
  -3   7 -17   20.78    1.39
  -3  -7  17   16.62    1.52
   4   7 -17    1.65    0.71
  -4   7  17    2.41    0.70
   4  -7  17    1.38    0.83
  -4  -7 -17    2.66    0.82
  -4  -7  17    0.57    0.83
  -4   7 -17    1.67    0.69
   0   8 -17    0.16    0.49
   0   8 -17    0.19    0.45
   0  -8  17    0.28    0.72
   0   8  17    0.21    0.49
  -1   8  17    5.53    0.76
   1  -8  17    5.17    0.96
  -1  -8 -17    6.30    0.79
   1   8 -17    5.94    0.77
  -1   8 -17    6.94    0.76
  -1  -8  17    6.91    1.03
  -1  -8  17    7.28    0.91
  -1   8 -17    5.15    0.80
   2  -8  17    7.65    1.09
  -2  -8 -17    8.58    0.93
  -2   8  17    7.33    0.89
   2   8 -17    7.55    0.88
  -2   8 -17    8.15    0.88
  -2  -8  17    6.96    0.99
  -2  -8  17    5.08    0.90
  -2   8 -17    6.78    0.92
   3   8 -17    2.93    0.75
  -3   8  17    3.40    0.77
   3  -8  17    2.99    0.93
  -3  -8 -17    2.04    0.76
  -3  -8  17    2.60    0.90
  -3   8 -17    3.27    0.78
   0   9 -17   35.66    1.71
   0   9  17   34.46    1.63
   0   9 -17   38.41    1.64
   0  -9  17   39.47    1.96
  -1   9  17    2.21    0.65
   1  -9  17    1.23    0.83
   1   9 -17    1.58    0.63
  -1  -9 -17    2.20    0.66
  -1  -9  17    1.72    0.70
  -1  -9  17    0.58    0.85
  -1   9 -17    1.19    0.55
  -1   9 -17    1.81    0.58
   2  -9  17    3.92    1.00
   2   9 -17    4.12    0.78
  -2  -9 -17    3.39    0.80
  -2   9  17    3.59    0.77
  -2  -9  17    4.75    0.92
  -2   9 -17    4.93    0.84
  -2  -9  17    4.01    0.94
  -2   9 -17    6.56    0.82
   3   9 -17    2.72    0.74
   3  -9  17    1.94    0.91
  -3   9  17    4.44    0.87
  -3  -9 -17    3.60    0.84
  -3  -9  17    3.47    0.99
  -3   9 -17    3.69    0.82
  -3  -9  17    2.36    0.93
   0 -10  17    2.64    0.96
   0  10 -17    3.63    0.73
   0  10  17    2.47    0.73
  -1  10  17    2.69    0.75
  -1 -10 -17    2.50    0.73
   1 -10  17    2.67    1.00
   1  10 -17    3.36    0.74
  -1  10 -17    3.94    0.67
  -1 -10  17    2.92    0.78
  -1  10 -17    3.01    0.69
  -1 -10  17    2.25    0.96
   0   0 -18    1.14    0.44
   0   0 -18    1.30    0.53
   0   0  18    1.17    0.45
  -1   0  18    7.40    0.67
   1   0  18    9.12    0.80
   1   0 -18    8.15    0.76
  -1   0 -18    8.79    0.90
  -1   0 -18    9.08    0.74
  -1   0  18    9.63    0.94
   2   0 -18   28.13    1.33
  -2   0  18   27.19    1.51
  -2   0 -18   30.26    1.48
   2   0  18   28.48    1.34
   3   0  18    3.92    0.68
  -3   0 -18    4.01    0.74
   3   0 -18    4.57    0.75
  -3   0  18    3.08    0.79
   4   0  18   -0.45    0.49
  -4   0 -18    1.12    0.59
   4   0 -18    0.72    0.59
  -4   0  18   -0.73    0.66
   5   0 -18    1.64    0.72
  -5   0 -18    1.60    0.69
  -5   0  18    0.82    0.88
   5   0  18    1.22    0.66
   0  -1 -18   59.02    2.03
   0   1  18   54.72    1.75
   0   1 -18   56.89    2.04
   0  -1 -18   56.85    1.80
   0  -1  18   56.76    1.82
   0   1 -18   56.63    1.82
  -1   1  18    0.20    0.37
   1  -1  18    0.67    0.46
  -1  -1 -18    0.41    0.47
   1   1 -18    1.14    0.50
  -1  -1 -18    0.07    0.36
  -1   1  18    0.54    0.49
  -1  -1  18    0.36    0.44
  -1   1 -18    1.55    0.54
   1  -1 -18    0.66    0.44
  -1   1 -18    0.96    0.41
   1   1  18    0.61    0.44
  -1  -1  18    0.92    0.54
   2  -1  18    2.40    0.60
   2   1 -18    2.00    0.56
  -2  -1 -18    2.47    0.61
  -2   1  18    2.55    0.67
   2   1  18    1.30    0.51
  -2  -1  18    1.59    0.63
  -2   1 -18    2.39    0.65
   2  -1 -18    2.03    0.56
  -3  -1 -18    2.19    0.60
   3   1 -18    1.67    0.57
   3  -1  18    1.27    0.57
  -3   1  18    1.34    0.68
  -3   1 -18    2.18    0.64
   3  -1 -18    2.00    0.61
  -3  -1  18    0.77    0.65
   3   1  18    2.07    0.59
  -4  -1 -18    1.03    0.57
   4   1 -18    1.32    0.60
  -4   1  18   -0.30    0.70
   4  -1  18    0.27    0.58
  -4   1 -18    0.90    0.64
   4   1  18    1.00    0.54
   4  -1 -18    1.12    0.64
  -4  -1  18    1.70    0.82
  -5  -1 -18    1.99    0.71
   5   1 -18    1.59    0.69
   5  -1  18    1.05    0.69
  -5   1  18    2.45    0.93
   5  -1 -18    2.57    0.78
  -5   1 -18    2.08    0.73
  -5  -1  18    1.22    0.88
   5   1  18    1.91    0.66
   0   2 -18    3.12    0.64
   0  -2 -18    3.78    0.66
   0  -2  18    1.80    0.56
   0   2 -18    2.60    0.52
   0  -2 -18    3.15    0.56
   0   2  18    2.82    0.50
  -1  -2 -18   12.92    1.03
  -1  -2 -18   14.11    0.87
   1  -2  18   16.18    1.04
  -1   2  18   13.13    1.09
   1   2 -18   14.53    0.99
  -1  -2  18   13.48    1.10
   1   2  18   14.67    0.93
  -1   2 -18   14.64    1.09
   1  -2 -18   12.85    0.98
  -1  -2  18   13.97    0.96
  -1   2 -18   16.03    0.89
  -2  -2 -18    4.52    0.70
  -2   2  18    3.91    0.76
   2  -2  18    4.17    0.69
   2   2 -18    3.92    0.65
  -2   2 -18    5.15    0.78
  -2  -2  18    4.37    0.81
   2   2  18    4.94    0.66
   2  -2 -18    4.17    0.69
  -3   2  18    3.84    0.83
   3  -2  18    4.16    0.73
  -3  -2 -18    3.66    0.69
   3   2 -18    4.50    0.71
   3  -2 -18    4.10    0.73
   3   2  18    3.15    0.64
  -3  -2  18    3.42    0.82
  -3   2 -18    3.75    0.75
   4  -2  18    2.36    0.68
   4   2 -18    0.12    0.56
  -4  -2 -18    1.59    0.60
  -4   2  18    0.03    0.67
  -4  -2  18    0.90    0.74
  -4   2 -18    1.94    0.69
   4   2  18    0.57    0.52
   4  -2 -18    0.82    0.62
  -5   2  18    3.22    1.00
  -5  -2 -18    3.81    0.84
   5  -2  18    6.08    0.95
   5   2 -18    2.81    0.75
   5   2  18    4.84    0.86
   5  -2 -18    3.72    0.83
  -5   2 -18    4.14    0.87
  -5  -2  18    2.26    0.95
   0   3 -18    6.94    0.70
   0  -3 -18    7.05    0.69
   0  -3  18    6.39    0.75
   0   3  18    6.40    0.63
   0   3 -18    7.23    0.82
  -1  -3 -18    6.09    0.61
   1   3 -18    4.95    0.65
  -1  -3 -18    7.01    0.78
  -1   3  18    5.40    0.75
   1  -3  18    4.55    0.69
  -1  -3  18    5.34    0.74
  -1  -3  18    4.89    0.76
   1   3  18    6.14    0.69
   1  -3 -18    5.58    0.68
  -1   3 -18    5.73    0.79
  -1   3 -18    6.10    0.62
  -2   3  18    6.54    0.87
  -2  -3 -18    6.81    0.80
   2   3 -18    5.60    0.72
   2  -3  18    6.78    0.80
  -2   3 -18    6.22    0.83
  -2  -3  18    6.59    0.93
   2  -3 -18    6.45    0.76
   2   3  18    6.55    0.73
  -3  -3 -18    0.86    0.52
   3   3 -18    0.47    0.51
   3  -3  18    0.88    0.60
  -3   3  18    1.98    0.71
  -3   3 -18    0.63    0.57
   3   3  18    0.88    0.46
   3  -3 -18    0.50    0.57
  -3  -3  18    1.12    0.67
   4   3 -18    2.39    0.71
  -4   3  18    4.00    0.93
   4  -3  18    4.00    0.79
  -4  -3 -18    4.61    0.77
   4   3  18    4.28    0.72
  -4  -3  18    2.86    0.88
   4  -3 -18    2.96    0.71
  -4   3 -18    4.19    0.82
   5   3 -18    1.45    0.68
  -5  -3 -18    1.31    0.68
  -5   3  18    0.16    0.83
   5  -3  18    0.26    0.68
  -5   3 -18    2.50    0.76
  -5  -3  18    0.82    0.88
   5   3  18    1.82    0.66
   5  -3 -18    1.41    0.76
   0   4 -18    2.11    0.52
   0   4  18    2.50    0.52
   0   4  18    1.52    0.42
   0   4 -18    1.13    0.53
   0  -4  18    2.15    0.65
   0  -4 -18    1.95    0.51
   1  -4  18   32.69    1.52
   1   4 -18   30.28    1.40
  -1   4  18   33.44    1.52
  -1  -4 -18   33.20    1.43
  -1   4 -18   32.30    1.33
  -1   4 -18   30.60    1.51
   1  -4 -18   31.59    1.39
  -1  -4  18   32.06    1.50
  -1  -4  18   37.01    1.69
  -2   4  18    4.58    0.76
   2  -4  18    4.02    0.74
  -2  -4 -18    3.73    0.75
  -2  -4 -18    4.66    0.68
   2   4 -18    4.08    0.68
   2  -4 -18    4.09    0.67
  -2   4 -18    4.22    0.76
  -2  -4  18    3.53    0.81
  -2  -4  18    2.80    0.70
  -3   4  18   12.12    1.17
   3   4 -18   14.38    1.14
  -3  -4 -18   12.36    1.04
  -3  -4 -18   11.22    1.06
   3  -4  18   14.02    1.20
  -3  -4  18   12.06    1.25
  -3   4 -18   12.85    1.16
   3  -4 -18   11.62    1.03
   4  -4  18    6.04    0.93
  -4   4  18    5.53    0.99
  -4  -4 -18    7.26    1.03
   4   4 -18    5.77    0.86
  -4  -4 -18    5.83    0.83
   4  -4 -18    7.38    0.95
  -4   4 -18    4.99    0.88
  -4  -4  18    6.69    1.11
   0   5  18    3.73    0.59
   0   5 -18    3.70    0.59
   0   5 -18    3.47    0.70
   0  -5  18    2.03    0.68
  -1  -5 -18    2.14    0.55
   1   5 -18    1.20    0.52
   1  -5  18    1.77    0.67
  -1  -5 -18    1.86    0.58
  -1   5  18    2.11    0.56
   1  -5 -18    2.17    0.57
  -1   5 -18    2.46    0.51
  -1  -5  18    3.73    0.73
  -1  -5  18    2.50    0.72
   1   5  18    2.45    0.56
  -1   5 -18    2.58    0.63
  -2  -5 -18    6.51    0.82
   2  -5  18    4.57    0.80
  -2  -5 -18    5.50    0.73
  -2   5  18    5.58    0.81
   2   5 -18    5.65    0.75
  -2  -5  18    3.91    0.79
   2  -5 -18    4.06    0.70
  -2  -5  18    4.35    0.78
  -2   5 -18    5.99    0.87
  -3   5  18    3.23    0.77
   3   5 -18    2.36    0.66
   3  -5  18    3.31    0.77
  -3  -5 -18    3.21    0.76
  -3   5 -18    3.48    0.76
  -3  -5  18    2.29    0.81
   3  -5 -18    2.91    0.73
  -4  -5 -18    9.53    1.07
   4   5 -18    9.83    1.00
   4  -5  18    9.55    1.13
  -4   5  18    7.83    1.09
   4  -5 -18    8.22    1.01
  -4  -5  18    8.67    1.23
  -4   5 -18   10.38    1.12
   0   6 -18    1.51    0.56
   0  -6  18    0.77    0.65
   0   6  18    1.72    0.46
   0   6 -18    0.91    0.47
  -1  -6 -18    4.53    0.73
   1  -6  18    3.92    0.83
  -1   6  18    4.31    0.64
   1   6 -18    4.77    0.69
  -1   6 -18    5.78    0.84
  -1  -6  18    3.47    0.73
  -1  -6  18    4.73    0.83
  -1   6 -18    5.38    0.64
  -2   6  18    5.31    0.88
   2   6 -18    6.24    0.79
   2  -6  18    5.55    0.89
  -2   6  18    6.52    0.80
  -2  -6 -18    5.79    0.83
  -2  -6  18    5.90    0.92
  -2  -6  18    5.45    0.88
  -2   6 -18    5.88    0.87
   3  -6  18   -0.27    0.67
  -3   6  18    0.07    0.64
  -3  -6 -18    0.04    0.65
   3   6 -18    1.34    0.62
  -3   6  18    1.76    0.58
  -3  -6  18   -0.30    0.70
  -3   6 -18    1.18    0.61
   4   6 -18    1.79    0.68
  -4   6  18    3.20    0.69
  -4   6  18    1.28    0.81
   4  -6  18    1.17    0.82
  -4  -6 -18    2.03    0.81
  -4   6 -18    2.67    0.80
  -4  -6  18    0.52    0.82
   0   7 -18    4.78    0.68
   0   7  18    5.37    0.71
   0   7 -18    6.28    0.87
   0  -7  18    5.74    0.94
   1  -7  18    6.84    1.01
   1   7 -18    6.73    0.79
  -1   7  18    6.67    0.75
  -1  -7 -18    7.21    0.82
  -1  -7  18    5.53    0.93
  -1  -7  18    7.06    0.93
  -1   7 -18    6.91    0.73
  -1   7 -18    6.44    0.89
  -2  -7 -18    8.04    0.92
  -2   7  18    7.42    0.84
   2  -7  18    5.50    0.99
   2   7 -18    7.69    0.88
  -2  -7  18    7.58    1.04
  -2  -7  18    7.77    1.01
  -2   7 -18    8.27    1.02
   3   7 -18    0.48    0.62
  -3   7  18    1.24    0.59
  -3  -7 -18    1.40    0.74
   3  -7  18    0.61    0.81
  -3  -7  18   -1.03    0.67
  -3   7 -18   -0.12    0.57
   0   8 -18    8.95    0.87
   0   8 -18    8.02    0.97
   0   8  18    6.68    0.79
   0  -8  18    7.27    1.06
   1   8 -18    4.38    0.74
  -1   8  18    4.08    0.72
   1  -8  18    4.49    0.97
  -1  -8 -18    6.08    0.80
  -1  -8  18    3.99    0.95
  -1  -8  18    4.96    0.86
  -1   8 -18    5.53    0.87
  -1   8 -18    5.52    0.71
   2  -8  18    7.96    1.15
   2   8 -18    7.04    0.88
  -2  -8 -18    8.18    1.00
  -2   8  18    8.33    0.96
  -2   8 -18    8.49    1.04
  -2  -8  18   10.44    1.20
  -2  -8  18    9.08    1.10
  -3   8  18    2.87    0.75
   3   8 -18    1.00    0.63
  -3  -8 -18    1.76    0.79
   3  -8  18    0.20    0.85
  -3   8 -18    1.00    0.69
  -3  -8  18    0.74    0.84
   0   9 -18    4.43    0.80
   0   9 -18    4.82    0.78
   0  -9  18    4.26    0.99
   0   9  18    4.76    0.79
   1   9 -18    0.80    0.61
  -1   9  18    0.52    0.59
  -1  -9 -18    0.34    0.64
   1  -9  18   -0.34    0.81
  -1   9 -18    0.63    0.58
  -1  -9  18    1.17    0.71
  -1  -9  18    0.70    0.84
  -1   9 -18    1.17    0.55
   2  -9  18   -1.38    0.78
  -2  -9 -18    2.00    0.77
   2   9 -18    1.00    0.64
  -2   9  18   -0.19    0.60
  -2   9 -18   -0.18    0.54
  -2  -9  18   -1.01    0.75
  -2  -9  18   -0.14    0.69
   0   0  19    0.02    0.42
   0   0 -19    0.67    0.51
   0   0 -19    0.04    0.39
  -1   0 -19    1.39    0.56
   1   0 -19    1.09    0.50
   1   0  19    0.42    0.47
  -1   0  19    0.76    0.53
  -1   0  19    1.43    0.56
  -1   0 -19    0.89    0.40
  -2   0  19    4.95    0.82
  -2   0 -19    6.76    0.87
   2   0 -19    5.92    0.75
   2   0  19    5.01    0.71
   3   0  19    0.07    0.47
  -3   0  19   -0.90    0.56
   3   0 -19    0.41    0.51
  -3   0 -19   -0.66    0.47
  -4   0  19    2.05    0.85
   4   0  19    1.14    0.63
   4   0 -19    1.40    0.66
  -4   0 -19    0.68    0.63
   0  -1 -19    2.25    0.51
   0   1  19    1.96    0.49
   0  -1  19    2.38    0.56
   0   1 -19    2.36    0.51
   0   1 -19    2.80    0.67
   0  -1 -19    2.53    0.61
  -1   1  19    3.09    0.67
   1  -1  19    3.46    0.62
   1   1 -19    3.87    0.61
  -1  -1 -19    3.62    0.69
  -1  -1 -19    3.48    0.64
   1   1  19    3.45    0.61
  -1   1 -19    3.86    0.55
  -1   1 -19    4.19    0.73
  -1  -1  19    3.54    0.58
  -1  -1  19    3.31    0.71
   1  -1 -19    3.22    0.60
   2  -1  19   13.25    1.07
  -2   1  19   12.20    1.13
  -2  -1 -19   13.06    1.10
   2   1 -19   13.07    1.03
   2  -1 -19   13.41    1.10
   2   1  19   11.73    0.98
  -2   1 -19   13.27    1.15
  -2  -1  19   12.31    1.15
   3  -1  19   10.38    1.01
  -3  -1 -19   11.85    1.12
   3   1 -19    9.67    0.92
  -3   1  19    8.91    1.11
  -3  -1  19    9.87    1.14
  -3   1 -19   12.58    1.17
   3  -1 -19    9.71    0.94
   3   1  19   11.38    0.99
  -4   1  19    3.78    0.97
   4   1 -19    5.48    0.86
  -4  -1 -19    5.01    0.86
   4  -1  19    5.14    0.84
  -4  -1  19    3.32    0.95
  -4   1 -19    4.85    0.86
   4  -1 -19    3.74    0.80
   4   1  19    5.69    0.87
   0   2 -19    7.96    0.74
   0   2 -19    5.93    0.83
   0  -2 -19    7.17    0.73
   0   2  19    7.05    0.69
   0  -2  19    6.26    0.76
  -1  -2 -19    3.01    0.63
   1   2 -19    3.15    0.60
  -1   2  19    2.85    0.66
   1  -2  19    3.15    0.63
  -1  -2  19    3.27    0.68
  -1  -2  19    2.14    0.58
   1   2  19    2.95    0.55
  -1   2 -19    2.51    0.50
   1  -2 -19    3.33    0.61
  -1   2 -19    3.05    0.67
  -2  -2 -19    4.52    0.75
  -2   2  19    4.90    0.83
   2   2 -19    5.04    0.72
   2  -2  19    3.81    0.70
  -2   2 -19    4.99    0.82
   2   2  19    3.26    0.62
  -2  -2  19    4.49    0.82
   2  -2 -19    3.28    0.65
   3  -2  19   11.19    1.06
  -3   2  19   13.25    1.24
   3   2 -19   11.67    1.03
  -3  -2 -19   11.47    1.09
   3  -2 -19   10.50    1.00
   3   2  19   12.15    1.03
  -3  -2  19    9.65    1.17
  -3   2 -19   12.62    1.19
   4   2 -19    1.98    0.67
  -4  -2 -19    1.92    0.68
   4  -2  19    1.61    0.67
  -4   2  19    1.23    0.81
   4  -2 -19    1.44    0.70
  -4  -2  19    1.62    0.84
  -4   2 -19    2.24    0.75
   4   2  19    3.59    0.75
   0   3 -19   -0.61    0.43
   0   3 -19    0.09    0.40
   0  -3 -19    0.24    0.43
   0   3  19   -0.01    0.35
   0  -3  19    0.52    0.54
   1  -3  19    4.14    0.72
  -1   3  19    4.60    0.75
   1   3 -19    4.16    0.64
  -1  -3 -19    5.43    0.73
   1   3  19    3.97    0.60
  -1   3 -19    5.75    0.82
  -1   3 -19    4.59    0.58
  -1  -3  19    6.35    0.84
   1  -3 -19    3.79    0.64
  -1  -3  19    4.21    0.69
  -2   3  19    3.17    0.71
   2   3 -19    3.62    0.66
   2  -3  19    2.79    0.67
  -2  -3 -19    3.78    0.66
   2  -3 -19    1.78    0.57
   2   3  19    2.88    0.59
  -2   3 -19    2.90    0.68
  -2  -3  19    3.54    0.79
   3   3 -19    1.06    0.58
   3  -3  19    0.47    0.59
  -3   3  19    0.02    0.63
  -3  -3 -19    0.39    0.52
   3   3  19    1.33    0.53
  -3   3 -19    0.40    0.56
   3  -3 -19    0.62    0.56
  -3  -3  19    0.18    0.65
   4  -3  19    0.36    0.61
  -4   3  19   -0.27    0.75
   4   3 -19    0.22    0.61
  -4  -3 -19    0.13    0.57
   4  -3 -19   -0.04    0.61
  -4  -3  19   -0.11    0.77
  -4   3 -19    1.70    0.68
   4   3  19    1.01    0.58
   0  -4  19   -0.36    0.55
   0  -4 -19   -0.16    0.43
   0   4  19    0.19    0.36
   0   4 -19    0.25    0.40
   0   4 -19   -0.35    0.46
   0   4  19    0.96    0.45
   1  -4  19    1.51    0.62
   1   4 -19    2.51    0.58
  -1  -4 -19    1.31    0.54
  -1   4  19    2.15    0.59
  -1   4 -19    2.77    0.51
  -1  -4  19    1.64    0.66
  -1  -4  19    2.50    0.66
   1  -4 -19    2.42    0.57
  -1   4 -19    1.35    0.55
   1   4  19    2.40    0.51
   2   4 -19    2.95    0.62
   2  -4  19    2.00    0.69
  -2   4  19    3.23    0.70
  -2  -4 -19    2.45    0.61
   2  -4 -19    2.54    0.65
  -2   4 -19    2.50    0.68
  -2  -4  19    2.65    0.76
   3   4 -19    4.26    0.75
  -3   4  19    2.72    0.81
   3  -4  19    4.38    0.82
  -3  -4 -19    3.70    0.70
   3  -4 -19    4.75    0.77
  -3  -4  19    3.47    0.89
  -3   4 -19    3.54    0.78
  -4   4  19   -0.30    0.70
   4   4 -19   -0.14    0.58
  -4  -4 -19    0.48    0.55
   4  -4  19   -0.08    0.66
  -4  -4  19   -0.19    0.81
   4  -4 -19    0.49    0.64
  -4   4 -19   -0.16    0.61
   0   5  19    4.00    0.64
   0   5 -19    4.28    0.78
   0   5 -19    4.61    0.65
   0  -5  19    3.05    0.74
   1   5 -19    1.35    0.53
  -1   5  19    0.56    0.49
   1  -5  19    0.75    0.63
  -1  -5 -19    0.63    0.47
  -1   5 -19    0.92    0.56
  -1  -5  19    1.01    0.61
  -1   5 -19    1.98    0.50
  -1  -5  19    0.96    0.66
   1  -5 -19    1.24    0.52
  -2   5  19    3.57    0.74
   2   5 -19    5.24    0.76
  -2  -5 -19    5.28    0.84
   2  -5  19    4.99    0.84
   2  -5 -19    4.19    0.76
  -2  -5  19    5.10    0.90
  -2   5 -19    5.64    0.87
  -3   5  19    5.51    0.94
   3  -5  19    5.37    0.92
   3   5 -19    4.13    0.76
  -3  -5 -19    3.48    0.85
  -3   5 -19    4.95    0.89
   3  -5 -19    5.54    0.85
  -3  -5  19    4.07    0.94
  -4  -5 -19    1.60    0.84
   4   5 -19    1.45    0.71
  -4   5  19   -0.50    0.72
   4  -5  19    0.18    0.71
  -4  -5  19    0.07    0.84
   4  -5 -19    0.22    0.70
  -4   5 -19   -0.14    0.63
   0   6  19    6.84    0.72
   0   6 -19    6.79    0.76
   0   6 -19    6.39    0.89
   0  -6  19    5.89    0.91
  -1   6  19   10.87    0.91
  -1  -6 -19    9.90    0.92
   1  -6  19    7.83    1.02
   1   6 -19    8.17    0.85
  -1   6 -19    8.19    0.80
  -1  -6  19    9.12    1.04
  -1   6 -19    8.46    1.03
  -1  -6  19    8.55    1.04
  -2  -6 -19    3.25    0.74
  -2   6  19    3.46    0.64
   2  -6  19    2.27    0.77
   2   6 -19    2.84    0.70
  -2  -6  19    2.80    0.81
  -2   6 -19    4.16    0.77
  -2  -6  19    1.31    0.79
   3   6 -19    0.16    0.58
  -3   6  19    0.41    0.49
   3  -6  19   -0.21    0.71
  -3  -6 -19   -0.63    0.62
  -3   6 -19    0.15    0.63
  -3  -6  19    0.29    0.76
   0  -7  19    3.22    0.89
   0   7 -19    3.69    0.64
   0   7  19    3.32    0.64
   0   7 -19    2.56    0.70
   1  -7  19    1.78    0.81
  -1  -7 -19    2.11    0.67
  -1   7  19    1.59    0.53
   1   7 -19    1.10    0.57
  -1  -7  19    1.67    0.68
  -1  -7  19    0.54    0.76
  -1   7 -19    2.20    0.55
  -1   7 -19    0.99    0.57
  -2  -7 -19   -0.01    0.63
   2   7 -19   -0.22    0.52
  -2   7  19    0.17    0.49
   2  -7  19    0.67    0.77
  -2  -7  19   -0.21    0.64
  -2   7 -19    0.57    0.60
  -2  -7  19    0.23    0.79
  -3   7  19    1.13    0.58
   3  -7  19    0.31    0.83
  -3  -7 -19    0.05    0.69
   3   7 -19    0.04    0.62
  -3  -7  19   -0.39    0.74
  -3   7 -19    0.06    0.60
   0   8  19    0.67    0.54
   0   8 -19    0.39    0.58
   0   8 -19    1.16    0.56
   0  -8  19    0.96    0.85
   1   8 -19    3.31    0.70
  -1   8  19    3.22    0.71
  -1  -8 -19    3.38    0.85
   1  -8  19    3.04    0.97
  -1   8 -19    5.68    0.74
  -1   8 -19    3.28    0.74
  -1  -8  19    4.04    0.97
  -1  -8  19    3.56    0.83
   2  -8  19    1.76    0.88
  -2   8  19    1.28    0.62
  -2  -8 -19    2.54    0.77
   2   8 -19    2.03    0.67
  -2   8 -19    3.21    0.77
  -2  -8  19    1.82    0.89
  -2  -8  19    3.28    0.91
   0  -9  19    4.08    1.03
   0   9 -19    3.86    0.70
   0   9  19    1.82    0.71
   0   0 -20   16.86    1.20
   0   0 -20   15.13    1.00
   0   0  20   15.56    0.99
   1   0 -20    4.18    0.66
   1   0  20    4.64    0.69
  -1   0 -20    3.47    0.70
  -1   0  20    4.98    0.82
   2   0 -20    0.59    0.50
  -2   0  20    0.76    0.60
   2   0  20    1.02    0.53
  -2   0 -20    0.27    0.56
  -3   0  20    1.46    0.68
  -3   0 -20   -0.10    0.56
   3   0  20    0.26    0.54
   3   0 -20    0.70    0.59
  -4   0  20    3.36    0.96
  -4   0 -20    3.77    0.82
   4   0  20    4.06    0.83
   4   0 -20    2.04    0.77
   0   1 -20    4.32    0.77
   0  -1  20    3.03    0.61
   0   1 -20    3.58    0.58
   0  -1 -20    3.43    0.71
   0   1  20    2.52    0.54
   0  -1 -20    2.64    0.56
   1   1 -20    7.79    0.79
   1  -1  20    8.42    0.86
  -1  -1 -20    8.15    0.92
  -1   1  20   11.30    1.08
   1  -1 -20    7.65    0.80
  -1   1 -20    9.00    1.00
   1   1  20    8.14    0.81
  -1  -1  20    7.78    0.96
   2  -1  20    0.28    0.50
   2   1 -20    0.11    0.46
  -2  -1 -20   -0.26    0.53
  -2   1  20    0.31    0.59
  -2  -1  20    0.45    0.57
   2   1  20    0.23    0.47
  -2   1 -20    0.51    0.55
   2  -1 -20   -0.10    0.47
   3   1 -20   -0.39    0.52
  -3  -1 -20   -0.33    0.51
  -3   1  20   -0.67    0.64
   3  -1  20    0.39    0.55
  -3   1 -20   -0.53    0.55
   3  -1 -20   -0.03    0.54
  -3  -1  20   -0.79    0.63
   4   1 -20    1.38    0.70
  -4  -1 -20    1.68    0.68
  -4   1  20    0.47    0.81
   4  -1  20   -0.15    0.61
   4  -1 -20    0.75    0.69
   4   1  20    0.52    0.61
  -4  -1  20   -0.37    0.74
  -4   1 -20    0.21    0.63
   0   2  20    6.70    0.70
   0  -2  20    7.55    0.82
   0   2 -20    6.96    0.73
   0  -2 -20    6.86    0.74
   0   2 -20    7.56    0.94
   1  -2  20    3.06    0.65
  -1   2  20    4.01    0.75
  -1  -2 -20    3.81    0.71
   1   2 -20    2.73    0.58
   1   2  20    3.51    0.61
  -1   2 -20    3.27    0.70
   1  -2 -20    2.61    0.60
  -1  -2  20    2.41    0.63
  -1  -2  20    3.74    0.76
  -1   2 -20    3.13    0.71
   2  -2  20   -0.57    0.49
   2   2 -20    0.63    0.53
  -2   2  20   -0.15    0.54
  -2  -2 -20    0.47    0.50
  -2   2 -20   -0.03    0.52
   2  -2 -20    0.07    0.50
   2   2  20    0.88    0.51
  -2  -2  20    0.28    0.61
  -3   2  20    1.81    0.77
  -3  -2 -20    1.46    0.64
   3  -2  20    1.04    0.63
   3   2 -20    2.19    0.66
  -3   2 -20    3.54    0.79
   3   2  20    2.63    0.64
  -3  -2  20    0.43    0.71
   3  -2 -20    1.11    0.64
  -4   2  20    6.05    1.09
  -4  -2 -20    7.47    1.00
   4   2 -20    6.77    0.94
   4  -2  20    6.97    1.01
   4  -2 -20    6.88    0.96
  -4  -2  20    6.93    1.16
  -4   2 -20    8.20    1.08
   4   2  20    6.64    0.91
   0  -3 -20    1.69    0.52
   0   3  20    2.42    0.56
   0   3 -20    2.23    0.66
   0   3 -20    1.00    0.49
   0   3  20    1.59    0.47
   0  -3  20    1.46    0.63
  -1  -3 -20    9.76    0.96
  -1   3  20   10.00    1.03
   1   3 -20   11.22    0.94
   1  -3  20    9.30    0.97
   1   3  20    9.16    0.83
  -1   3 -20    8.33    0.78
  -1  -3  20   12.02    1.16
   1  -3 -20    8.92    0.85
  -1  -3  20    9.33    0.92
  -1   3 -20   10.08    1.04
  -2   3  20    4.00    0.80
   2  -3  20    3.71    0.75
  -2  -3 -20    4.27    0.74
   2   3 -20    3.82    0.68
  -2  -3  20    2.94    0.78
   2   3  20    4.59    0.70
  -2   3 -20    4.38    0.79
   2  -3 -20    4.00    0.70
   3   3 -20    2.10    0.68
  -3   3  20    2.24    0.79
   3  -3  20    1.78    0.69
  -3  -3 -20    2.59    0.69
   3  -3 -20    3.08    0.72
  -3  -3  20    1.35    0.80
  -3   3 -20    2.77    0.77
   3   3  20    2.23    0.64
   4  -3  20   12.10    1.20
   4   3 -20   10.11    1.04
  -4   3  20   10.13    1.26
  -4  -3 -20   10.57    1.13
   4   3  20   11.26    1.11
  -4   3 -20   10.89    1.20
   4  -3 -20   11.40    1.15
   0  -4  20   33.51    1.60
   0  -4 -20   34.06    1.45
   0   4 -20   31.96    1.66
   0   4 -20   35.14    1.45
   0   4  20   34.71    1.55
   1  -4  20    0.79    0.62
  -1  -4 -20    0.47    0.50
   1   4 -20    1.67    0.52
  -1   4  20    1.21    0.55
  -1   4 -20    0.11    0.52
   1  -4 -20    1.22    0.54
   1   4  20    1.87    0.50
  -1  -4  20    0.84    0.58
  -1   4 -20    1.36    0.47
  -1  -4  20    0.36    0.62
   2  -4  20    3.88    0.81
  -2  -4 -20    3.39    0.69
  -2   4  20    3.79    0.79
   2   4 -20    3.61    0.68
   2   4  20    4.99    0.71
  -2   4 -20    5.55    0.89
  -2  -4  20    3.66    0.85
   2  -4 -20    3.95    0.72
  -3   4  20    0.67    0.73
  -3  -4 -20    2.03    0.62
   3   4 -20    0.82    0.62
   3  -4  20    0.41    0.65
  -3  -4  20    2.48    0.84
   3  -4 -20    0.82    0.62
   3   4  20    2.27    0.60
  -3   4 -20    2.12    0.72
   0   5 -20    2.64    0.57
   0  -5  20    3.02    0.75
   0   5  20    3.05    0.63
   0   5 -20    2.93    0.71
   1   5 -20    4.93    0.69
   1  -5  20    2.81    0.78
  -1   5  20    4.14    0.73
  -1   5 -20    4.32    0.61
  -1   5 -20    3.87    0.77
  -1  -5  20    3.25    0.81
   1   5  20    4.39    0.61
  -1  -5  20    4.94    0.85
   2  -5  20    0.64    0.68
   2   5 -20    1.93    0.60
  -2   5  20    0.77    0.61
  -2  -5  20    1.03    0.70
   2  -5 -20    1.57    0.65
  -2   5 -20    1.67    0.68
  -3   5  20    0.66    0.74
   3   5 -20    1.95    0.67
   3  -5  20    2.50    0.83
  -3   5 -20    2.47    0.79
  -3  -5  20    1.62    0.84
   3  -5 -20    1.56    0.72
   0   6 -20    4.67    0.71
   0   6  20    5.19    0.67
   0  -6  20    5.06    0.90
   0   6 -20    4.35    0.81
  -1   6  20    2.55    0.56
   1   6 -20    1.85    0.62
   1  -6  20    1.16    0.76
  -1   6 -20    1.36    0.62
  -1   6 -20    1.31    0.50
  -1  -6  20   -0.18    0.72
  -1  -6  20    1.56    0.69
   2   6 -20    1.86    0.65
   2  -6  20    1.61    0.84
  -2  -6 -20    1.14    0.70
  -2   6  20    3.03    0.63
  -2   6 -20    1.01    0.70
  -2  -6  20    1.58    0.77
   0  -7  20    3.48    0.93
   0   7  20    3.81    0.70
   0   7 -20    3.97    0.80
   0   7 -20    5.39    0.74
   1  -7  20    7.93    1.11
   1   7 -20    8.35    0.90
  -1   7  20    7.11    0.83
  -1  -7  20    8.11    1.09
  -1   7 -20    8.69    1.05
  -1  -7  20    9.84    1.12
  -1   7 -20    8.91    0.86
  -2   7  20    3.01    0.70
   2  -7  20    2.18    0.87
   2   7 -20    2.21    0.70
  -2  -7 -20    2.73    0.80
  -2   7 -20    3.48    0.81
  -2  -7  20    3.21    0.88
   0   8  20    3.80    0.72
   0   8 -20    5.22    0.75
   0  -8  20    4.66    1.06
   0   0 -21    0.28    0.43
   0   0  21   -1.08    0.39
  -1   0 -21    3.15    0.74
   1   0 -21    2.19    0.58
  -1   0  21    3.15    0.73
   1   0  21    3.31    0.65
   2   0  21    4.36    0.75
  -2   0  21    3.38    0.79
   2   0 -21    4.85    0.75
  -2   0 -21    5.22    0.88
   3   0  21   10.77    1.07
   3   0 -21    9.29    1.00
  -3   0 -21   12.65    1.24
  -3   0  21   11.35    1.33
   0   1  21    0.14    0.43
   0  -1 -21    0.34    0.46
   0   1 -21    0.76    0.57
   0   1 -21    1.48    0.51
   0  -1  21   -0.14    0.46
  -1   1  21    0.92    0.60
   1  -1  21    1.17    0.56
   1   1 -21    0.85    0.52
  -1  -1 -21    0.03    0.52
  -1  -1  21    1.40    0.63
   1   1  21    0.19    0.46
   1  -1 -21    0.65    0.53
  -1   1 -21    0.38    0.53
  -2   1  21    4.84    0.87
   2  -1  21    5.81    0.83
   2   1 -21    5.21    0.75
  -2  -1 -21    5.82    0.87
   2   1  21    4.70    0.74
  -2   1 -21    5.76    0.91
   2  -1 -21    5.69    0.79
  -2  -1  21    5.86    0.96
   3   1 -21    1.12    0.63
  -3   1  21    0.16    0.75
   3  -1  21    1.10    0.67
  -3  -1 -21    1.47    0.67
  -3   1 -21    1.79    0.72
   3  -1 -21    0.54    0.66
  -3  -1  21    0.36    0.71
   3   1  21    0.71    0.62
   0   2  21    1.30    0.58
   0   2 -21   -0.08    0.53
   0   2 -21    0.36    0.46
   0  -2 -21    0.60    0.47
   0   2  21    0.53    0.58
   0  -2  21   -0.05    0.54
  -1   2  21    5.84    0.87
  -1  -2 -21    4.24    0.75
   1  -2  21    4.17    0.74
   1   2 -21    5.19    0.74
  -1  -2  21    4.17    0.78
  -1   2 -21    4.76    0.81
   1  -2 -21    4.40    0.71
   1   2  21    4.08    0.66
  -2   2  21    1.68    0.71
   2  -2  21    1.87    0.64
  -2  -2 -21    3.40    0.74
   2   2 -21    2.43    0.64
  -2  -2  21    1.58    0.71
   2  -2 -21    2.48    0.66
   2   2  21    2.43    0.60
  -2   2 -21    2.77    0.77
   3   2 -21   11.49    1.06
  -3  -2 -21   13.70    1.27
   3  -2  21   11.66    1.16
  -3   2  21   12.68    1.32
  -3   2 -21   14.30    1.32
  -3  -2  21   11.98    1.31
   3   2  21   12.68    1.12
   3  -2 -21   13.31    1.17
   0   3  21   -0.24    0.42
   0  -3 -21   -0.05    0.46
   0   3 -21   -0.07    0.45
   0  -3  21   -0.58    0.53
   0   3 -21   -0.02    0.48
  -1   3  21    5.98    0.88
   1  -3  21    7.05    0.90
   1   3 -21    7.08    0.80
  -1  -3 -21    6.72    0.90
  -1  -3  21    5.63    1.22
  -1   3 -21    7.34    0.96
  -1  -3  21    6.70    0.94
   1   3  21    5.62    0.72
   1  -3 -21    6.55    0.78
   2   3 -21    6.72    0.86
  -2   3  21    6.28    0.99
  -2  -3 -21    7.69    0.95
   2  -3  21    6.84    0.92
   2  -3 -21    7.20    0.87
  -2   3 -21    9.16    1.08
  -2  -3  21    6.94    1.03
   2   3  21    8.02    0.87
   3   3 -21    1.48    0.67
   3  -3  21    1.83    0.74
  -3   3  21    0.77    0.75
  -3  -3 -21    2.46    0.68
  -3   3 -21    2.14    0.77
  -3  -3  21    0.82    0.76
   3   3  21    0.76    0.53
   3  -3 -21    1.46    0.67
   0   4 -21    4.12    0.65
   0  -4  21    2.80    0.76
   0   4  21    4.71    0.74
   0  -4 -21    3.74    0.67
   0   4 -21    3.03    0.73
  -1  -4 -21    0.50    0.55
   1  -4  21   -0.06    0.63
   1   4 -21   -0.24    0.46
  -1   4  21    0.80    0.57
  -1  -4  21    0.53    0.61
   1  -4 -21    0.32    0.53
  -1   4 -21    0.46    0.57
   1   4  21    0.57    0.44
  -1  -4  21   -0.68    0.60
  -2  -4 -21    0.42    0.54
  -2   4  21   -0.50    0.59
   2   4 -21    0.32    0.56
   2  -4  21   -0.71    0.60
   2   4  21    1.02    0.52
  -2  -4  21   -0.22    0.63
  -2   4 -21   -0.13    0.59
   2  -4 -21    0.23    0.57
  -3  -4 -21    2.95    0.84
   3  -4  21    1.88    0.78
   3   4 -21    4.06    0.79
  -3   4  21    2.20    0.85
   3  -4 -21    3.61    0.77
   3   4  21    4.11    0.73
  -3  -4  21    2.57    0.92
  -3   4 -21    3.89    0.85
   0   5  21    1.66    0.95
   0  -5  21    0.63    0.72
   0   5 -21    1.42    0.65
   0   5 -21    1.27    0.52
   0   5  21    2.62    0.53
   1   5 -21    9.70    0.94
  -1   5  21    8.31    0.97
   1  -5  21    8.30    1.07
  -1  -5  21    7.83    1.02
  -1   5 -21    8.53    1.02
  -1  -5  21    7.10    1.00
   1   5  21    8.03    0.83
  -2   5  21    5.69    0.94
   2  -5  21    4.45    0.95
   2   5 -21    5.46    0.82
  -2  -5  21    5.37    0.99
   2  -5 -21    3.81    0.76
  -2   5 -21    6.65    0.99
   2   5  21    4.95    0.71
   0   6 -21    0.74    0.62
   0   6  21    1.66    0.53
   0   6 -21    1.10    0.54
   0  -6  21    1.44    0.78
  -1   6  21    3.66    0.64
   1  -6  21    3.44    0.90
   1   6 -21    2.81    0.71
  -1  -6  21    2.02    0.75
  -1   6 -21    3.64    0.81
   1   6  21    3.72    0.65
  -1  -6  21    3.09    0.89
   0  -7  21    5.85    1.07
   0   7 -21    8.51    0.89
   0   0  22    0.46    0.52
   0   0 -22    1.11    0.53
   1   0  22    0.22    0.53
  -1   0 -22   -0.38    0.51
   1   0 -22    0.74    0.54
  -1   0  22    0.03    0.60
   2   0 -22    3.09    0.72
  -2   0  22    4.11    0.89
  -2   0 -22    4.04    0.84
   2   0  22    2.43    0.71
  -3   0  22   -0.02    0.77
   0   1 -22   -1.00    0.40
   0  -1  22   -0.40    0.50
   0  -1 -22    0.13    0.50
   0   1  22    1.16    0.58
   1   1 -22    7.56    0.85
   1  -1  22    6.31    0.84
  -1   1  22    6.06    0.92
  -1  -1 -22    6.88    0.95
   1   1  22    7.33    0.87
  -1  -1  22    6.19    0.95
   1  -1 -22    8.33    0.89
  -1   1 -22    6.05    0.92
  -2  -1 -22    3.19    0.77
   2  -1  22    3.11    0.75
  -2   1  22    3.36    0.86
   2   1 -22    3.00    0.69
  -2  -1  22    2.66    0.82
   2  -1 -22    2.68    0.72
   2   1  22    3.02    0.71
  -2   1 -22    3.31    0.80
   0  -2 -22    2.03    0.58
   0   2 -22    2.60    0.57
   0  -2  22    2.13    0.66
   0   2  22    2.62    0.65
  -1  -2 -22    4.15    0.82
   1  -2  22    1.70    0.65
   1   2 -22    3.04    0.66
  -1   2  22    3.23    0.78
   1  -2 -22    2.87    0.69
   1   2  22    2.46    0.61
  -1   2 -22    3.45    0.82
  -1  -2  22    2.59    0.73
  -2   2  22    1.79    0.75
   2  -2  22    1.52    0.69
  -2  -2 -22    1.84    0.69
   2   2 -22    2.32    0.66
  -2   2 -22    1.97    0.78
   2  -2 -22    0.85    0.64
   2   2  22    1.15    0.59
  -2  -2  22    2.18    0.79
   0   3 -22    1.82    0.57
   0   3 -22    0.90    0.66
   0  -3 -22    0.25    0.53
   0  -3  22    1.26    0.67
   0   3  22    1.42    0.59
   1  -3  22    1.20    0.67
  -1  -3 -22    1.47    0.64
   1   3 -22    1.43    0.58
  -1   3  22    1.48    0.67
  -1   3 -22    1.16    0.65
   1   3  22    1.34    0.55
   1  -3 -22    1.41    0.62
  -1  -3  22    1.68    0.70
  -2   3  22    5.72    0.97
   2   3 -22    3.84    0.74
   2  -3  22    4.36    0.86
  -2  -3 -22    4.50    0.82
   2   3  22    4.46    0.74
   2  -3 -22    5.82    0.86
  -2  -3  22    4.65    0.96
  -2   3 -22    5.47    0.95
   0   4  22   13.13    1.21
   0  -4  22   10.12    1.11
   0   4 -22   10.64    0.96
   0   4 -22   11.66    1.22
   1  -4  22    0.42    0.69
  -1   4  22    0.65    0.59
   1   4 -22    0.48    0.52
  -1  -4  22    1.36    0.70
   1   4  22    0.97    0.52
   1  -4 -22    0.80    0.61
  -1   4 -22    1.28    0.66
  -2   4  22    1.92    0.78
   2   4 -22    2.46    0.68
   2  -4  22    2.95    0.82
  -2  -4 -22    2.73    0.73
   2   4  22    2.09    0.60
  -2   4 -22    0.99    0.68
   2  -4 -22    1.16    0.67
  -2  -4  22    2.13    0.80
   0   5 -22    0.70    0.50
   0  -5  22   -0.11    0.71
   1   5 -22    4.37    0.76
   1  -5  22    2.97    0.87
  -1  -5  22    4.10    0.86
  -1   5 -22    3.38    0.79
  -1  -5  22    4.09    1.33
   0   0 -23    0.11    0.56
   0   0  23    0.68    0.58
   1   0  23    7.92    0.92
  -1   0 -23    8.88    1.08
  -1   0  23   10.15    1.15
   1   0 -23    7.31    0.88
   0   1 -23   -0.04    0.49
   0   1  23    0.78    0.56
  -1   1  23    1.26    0.72
  -1  -1 -23    1.56    0.73
   1  -1  23    2.03    0.66
   1   1 -23    1.31    0.61
   1   1  23    2.03    0.63
   1  -1 -23    0.87    0.59
  -1  -1  23    2.46    0.78
  -1   1 -23    2.49    0.73
   0  -2  23   -0.05    0.61
   0   2  23    1.52    0.65
   0   2 -23    1.11    0.53
  -1  -2 -23   10.70    1.13
  -1   2  23    9.09    1.11
   1   2 -23    9.68    0.96
   1  -2  23    8.60    1.01
   1  -2 -23   10.52    1.03
   1   2  23    9.56    0.96
  -1   2 -23   10.31    1.18
  -1  -2  23    8.58    1.10
   0  -3  23    0.62    0.71
   0   3 -23    1.07    0.55
   0   3  23    0.97    0.58
  -1   3  23    0.34    0.60
  -1  -3  23    0.59    0.71
   0   0   0    0.00    0.00
;
_shelx_hkl_checksum              8226
loop_
_space_group_symop_operation_xyz
'x, y, z'
'x+1/2, -y+1/2, -z'
'-x, y+1/2, -z+1/2'
'-x+1/2, -y, z+1/2'
loop_
_atom_site_label
_atom_site_type_symbol
_atom_site_fract_x
_atom_site_fract_y
_atom_site_fract_z
_atom_site_U_iso_or_equiv
_atom_site_adp_type
_atom_site_occupancy
_atom_site_site_symmetry_order
_atom_site_calc_flag
_atom_site_refinement_flags_posn
_atom_site_refinement_flags_adp
S1 S 0.8397(3) 0.98457(12) 0.20490(7) 0.0330(4) Uani 1 1 d . .
O1 O 0.4825(6) 0.7953(3) -0.00366(19) 0.0256(8) Uani 1 1 d . .
C5 C 0.6557(10) 0.9944(5) 0.0470(3) 0.0309(11) Uani 1 1 d . .
H4 H 0.7619 0.9584 0.0126 0.037 Uiso 1 1 calc R U
H5 H 0.7320 1.0546 0.0764 0.037 Uiso 1 1 calc R U
N2 N 0.5338(8) 0.8249(4) 0.2196(2) 0.0291(10) Uani 1 1 d . .
C1 C 0.1723(11) 1.1722(5) -0.0813(4) 0.0363(13) Uani 1 1 d . .
H1 H 0.0694 1.2148 -0.1096 0.044 Uiso 1 1 calc R U
C2 C 0.1356(10) 1.1506(4) -0.0076(4) 0.0357(13) Uani 1 1 d . .
H17 H 0.0060 1.1773 0.0152 0.043 Uiso 1 1 calc R U
C3 C 0.2860(10) 1.0898(5) 0.0350(3) 0.0301(12) Uani 1 1 d . .
H3 H 0.2583 1.0750 0.0865 0.036 Uiso 1 1 calc R U
C4 C 0.4802(9) 1.0500(4) 0.0019(3) 0.0242(10) Uani 1 1 d . .
N1 N 0.5713(7) 0.9049(4) 0.0990(2) 0.0266(9) Uani 1 1 d . .
C6 C 0.4821(9) 0.8042(4) 0.0644(3) 0.0265(10) Uani 1 1 d . .
C7 C 0.3937(8) 0.7130(5) 0.1172(3) 0.0270(11) Uani 1 1 d . .
H12 H 0.2612 0.6774 0.0947 0.032 Uiso 1 1 calc R U
C8 C 0.5595(10) 0.6179(5) 0.1347(3) 0.0327(12) Uani 1 1 d . .
H8 H 0.6156 0.5866 0.0868 0.039 Uiso 1 1 calc R U
H7 H 0.4850 0.5540 0.1612 0.039 Uiso 1 1 calc R U
C9 C 0.7502(10) 0.6578(5) 0.1824(3) 0.0328(12) Uani 1 1 d . .
H11 H 0.8507 0.7038 0.1511 0.039 Uiso 1 1 calc R U
H2 H 0.8297 0.5895 0.2015 0.039 Uiso 1 1 calc R U
C10 C 0.6436(10) 0.9018(4) 0.1734(3) 0.0288(11) Uani 1 1 d . .
C11 C 0.3336(9) 0.7750(5) 0.1901(3) 0.0305(11) Uani 1 1 d . .
H13 H 0.2260 0.8365 0.1803 0.037 Uiso 1 1 calc R U
H14 H 0.2713 0.7196 0.2266 0.037 Uiso 1 1 calc R U
C12 C 0.6703(11) 0.7334(5) 0.2505(3) 0.0344(12) Uani 1 1 d . .
H10 H 0.5867 0.6853 0.2862 0.041 Uiso 1 1 calc R U
H9 H 0.7952 0.7673 0.2774 0.041 Uiso 1 1 calc R U
C13 C 0.5130(9) 1.0732(4) -0.0739(3) 0.0227(10) Uani 1 1 d . .
H16 H 0.6420 1.0485 -0.0981 0.027 Uiso 1 1 calc R U
C14 C 0.3536(11) 1.1334(4) -0.1145(3) 0.0327(12) Uani 1 1 d . .
H15 H 0.3745 1.1471 -0.1666 0.039 Uiso 1 1 calc R U
loop_
_atom_site_aniso_label
_atom_site_aniso_U_11
_atom_site_aniso_U_22
_atom_site_aniso_U_33
_atom_site_aniso_U_23
_atom_site_aniso_U_13
_atom_site_aniso_U_12
S1 0.0380(7) 0.0342(7) 0.0268(6) -0.0067(5) -0.0046(6) -0.0095(6)
O1 0.0276(19) 0.0281(17) 0.0211(15) 0.0000(14) 0.0007(15) -0.0065(15)
C5 0.032(3) 0.030(3) 0.031(2) 0.007(2) -0.008(2) -0.007(3)
N2 0.030(2) 0.031(2) 0.027(2) 0.0013(18) 0.0024(18) 0.0038(19)
C1 0.038(3) 0.021(2) 0.050(3) -0.002(2) -0.009(3) 0.003(3)
C2 0.030(3) 0.018(2) 0.060(4) -0.010(2) 0.003(3) -0.004(2)
C3 0.044(3) 0.023(2) 0.024(2) -0.0073(19) 0.005(2) -0.014(2)
C4 0.036(3) 0.016(2) 0.020(2) -0.0004(16) -0.002(2) -0.016(2)
N1 0.026(2) 0.025(2) 0.029(2) 0.0041(17) -0.0026(17) -0.0042(18)
C6 0.022(2) 0.025(2) 0.033(2) 0.002(2) 0.001(2) 0.000(2)
C7 0.021(3) 0.027(2) 0.033(3) -0.001(2) -0.002(2) 0.0032(19)
C8 0.030(3) 0.030(3) 0.038(3) -0.003(2) 0.003(2) 0.006(2)
C9 0.027(3) 0.026(3) 0.045(3) -0.002(2) -0.010(2) 0.014(2)
C10 0.037(3) 0.023(2) 0.026(2) -0.0013(18) -0.003(2) 0.003(2)
C11 0.022(2) 0.030(2) 0.040(3) -0.004(2) 0.010(2) 0.005(2)
C12 0.041(3) 0.038(3) 0.024(2) 0.005(2) -0.006(2) -0.003(3)
C13 0.030(3) 0.016(2) 0.022(2) -0.0032(17) 0.003(2) -0.0002(19)
C14 0.043(3) 0.022(2) 0.033(3) 0.0023(19) -0.006(3) -0.004(2)
loop_
_atom_type_symbol
_atom_type_description
_atom_type_scat_dispersion_real
_atom_type_scat_dispersion_imag
_atom_type_scat_source
C C 0.0033 0.0016 'International Tables Vol C Tables 4.2.6.8 and 6.1.1.4'
H H 0.0000 0.0000 'International Tables Vol C Tables 4.2.6.8 and 6.1.1.4'
N N 0.0061 0.0033 'International Tables Vol C Tables 4.2.6.8 and 6.1.1.4'
O O 0.0106 0.0060 'International Tables Vol C Tables 4.2.6.8 and 6.1.1.4'
S S 0.1246 0.1234 'International Tables Vol C Tables 4.2.6.8 and 6.1.1.4'
loop_
_geom_angle_atom_site_label_1
_geom_angle_atom_site_label_2
_geom_angle_atom_site_label_3
_geom_angle
N1 C5 C4 112.3(4)
N1 C5 H4 109.1
C4 C5 H4 109.1
N1 C5 H5 109.1
C4 C5 H5 109.1
H4 C5 H5 107.9
C10 N2 C12 113.9(5)
C10 N2 C11 117.0(4)
C12 N2 C11 109.8(4)
C14 C1 C2 120.3(6)
C14 C1 H1 119.9
C2 C1 H1 119.9
C1 C2 C3 120.6(6)
C1 C2 H17 119.7
C3 C2 H17 119.7
C2 C3 C4 120.3(5)
C2 C3 H3 119.8
C4 C3 H3 119.8
C13 C4 C3 117.7(5)
C13 C4 C5 119.9(5)
C3 C4 C5 122.1(4)
C10 N1 C6 120.7(4)
C10 N1 C5 119.8(4)
C6 N1 C5 115.8(4)
O1 C6 N1 119.9(5)
O1 C6 C7 124.0(5)
N1 C6 C7 116.1(4)
C8 C7 C6 112.5(4)
C8 C7 C11 109.0(4)
C6 C7 C11 106.8(4)
C8 C7 H12 109.5
C6 C7 H12 109.5
C11 C7 H12 109.5
C7 C8 C9 114.4(5)
C7 C8 H8 108.7
C9 C8 H8 108.7
C7 C8 H7 108.7
C9 C8 H7 108.7
H8 C8 H7 107.6
C8 C9 C12 110.8(5)
C8 C9 H11 109.5
C12 C9 H11 109.5
C8 C9 H2 109.5
C12 C9 H2 109.5
H11 C9 H2 108.1
N2 C10 N1 115.0(5)
N2 C10 S1 122.0(4)
N1 C10 S1 123.0(4)
N2 C11 C7 106.5(4)
N2 C11 H13 110.4
C7 C11 H13 110.4
N2 C11 H14 110.4
C7 C11 H14 110.4
H13 C11 H14 108.6
N2 C12 C9 107.0(4)
N2 C12 H10 110.3
C9 C12 H10 110.3
N2 C12 H9 110.3
C9 C12 H9 110.3
H10 C12 H9 108.6
C4 C13 C14 119.5(5)
C4 C13 H16 120.3
C14 C13 H16 120.3
C1 C14 C13 121.6(5)
C1 C14 H15 119.2
C13 C14 H15 119.2
loop_
_geom_bond_atom_site_label_1
_geom_bond_atom_site_label_2
_geom_bond_distance
S1 C10 1.644(6)
O1 C6 1.218(6)
C5 N1 1.482(6)
C5 C4 1.496(7)
C5 H4 0.9900
C5 H5 0.9900
N2 C10 1.389(7)
N2 C12 1.461(7)
N2 C11 1.463(7)
C1 C14 1.344(9)
C1 C2 1.356(9)
C1 H1 0.9500
C2 C3 1.390(9)
C2 H17 0.9500
C3 C4 1.415(8)
C3 H3 0.9500
C4 C13 1.392(6)
N1 C10 1.399(7)
N1 C6 1.427(7)
C6 C7 1.515(7)
C7 C8 1.535(7)
C7 C11 1.530(7)
C7 H12 1.0000
C8 C9 1.525(8)
C8 H8 0.9900
C8 H7 0.9900
C9 C12 1.575(8)
C9 H11 0.9900
C9 H2 0.9900
C11 H13 0.9900
C11 H14 0.9900
C12 H10 0.9900
C12 H9 0.9900
C13 C14 1.407(8)
C13 H16 0.9500
C14 H15 0.9500
loop_
_geom_hbond_atom_site_label_D
_geom_hbond_atom_site_label_H
_geom_hbond_atom_site_label_A
_geom_hbond_distance_DH
_geom_hbond_distance_HA
_geom_hbond_distance_DA
_geom_hbond_angle_DHA
_geom_hbond_site_symmetry_A
C11 H13 S1 0.99 2.97 3.907(6) 158.2 1_455
C9 H2 S1 0.99 2.90 3.804(5) 151.6 3_745
C7 H12 O1 1.00 2.39 3.250(6) 144.0 2_465
C5 H5 S1 0.99 2.52 3.036(5) 112.4 .
C5 H5 S1 0.99 2.52 3.036(5) 112.4 .
C7 H12 O1 1.00 2.39 3.250(6) 144.0 2_465
C9 H2 S1 0.99 2.90 3.804(5) 151.6 3_745
C11 H13 S1 0.99 2.97 3.907(6) 158.2 1_455
loop_
_geom_torsion_atom_site_label_1
_geom_torsion_atom_site_label_2
_geom_torsion_atom_site_label_3
_geom_torsion_atom_site_label_4
_geom_torsion
C14 C1 C2 C3 1.0(8)
C1 C2 C3 C4 0.3(8)
C2 C3 C4 C13 -0.4(7)
C2 C3 C4 C5 174.0(5)
N1 C5 C4 C13 -138.6(5)
N1 C5 C4 C3 47.1(6)
C4 C5 N1 C10 -134.6(5)
C4 C5 N1 C6 66.9(6)
C10 N1 C6 O1 -157.1(5)
C5 N1 C6 O1 1.2(7)
C10 N1 C6 C7 22.2(7)
C5 N1 C6 C7 -179.5(5)
O1 C6 C7 C8 84.5(7)
N1 C6 C7 C8 -94.8(6)
O1 C6 C7 C11 -156.0(5)
N1 C6 C7 C11 24.7(6)
C6 C7 C8 C9 68.9(6)
C11 C7 C8 C9 -49.3(6)
C7 C8 C9 C12 45.5(7)
C12 N2 C10 N1 118.1(5)
C11 N2 C10 N1 -11.8(7)
C12 N2 C10 S1 -63.3(6)
C11 N2 C10 S1 166.9(4)
C6 N1 C10 N2 -30.6(7)
C5 N1 C10 N2 171.9(5)
C6 N1 C10 S1 150.7(4)
C5 N1 C10 S1 -6.8(7)
C10 N2 C11 C7 58.1(6)
C12 N2 C11 C7 -73.6(5)
C8 C7 C11 N2 60.4(5)
C6 C7 C11 N2 -61.4(5)
C10 N2 C12 C9 -64.7(6)
C11 N2 C12 C9 68.6(6)
C8 C9 C12 N2 -52.7(6)
C3 C4 C13 C14 -0.6(7)
C5 C4 C13 C14 -175.2(5)
C2 C1 C14 C13 -2.0(8)
C4 C13 C14 C1 1.9(8)
