#------------------------------------------------------------------------------
#$Date: 2017-09-12 07:06:26 +0300 (Tue, 12 Sep 2017) $
#$Revision: 200750 $
#$URL: file:///home/coder/svn-repositories/cod/cif/1/54/64/1546426.cif $
#------------------------------------------------------------------------------
#
# This file is available in the Crystallography Open Database (COD),
# http://www.crystallography.net/
#
# All data on this site have been placed in the public domain by the
# contributors.
#
data_1546426
loop_
_publ_author_name
'Xu, Dengyu'
'Zhao, Yulong'
'Song, Dengpeng'
'Zhong, Zhuliang'
'Feng, Shangbiao'
'Xie, Xingang'
'Wang, Xiaolei'
'She, Xuegong'
_publ_section_title
;
 (3 + 2)-Annulation of p-Quinamine and Aryne: A Strategy To Construct the
 Multisubstituted Hydrocarbazoles.
;
_journal_issue                   13
_journal_name_full               'Organic letters'
_journal_page_first              3600
_journal_page_last               3603
_journal_paper_doi               10.1021/acs.orglett.7b01578
_journal_volume                  19
_journal_year                    2017
_chemical_absolute_configuration unk
_chemical_formula_moiety         'C25 H21 N O3 S'
_chemical_formula_sum            'C25 H21 N O3 S'
_chemical_formula_weight         415.49
_space_group_crystal_system      orthorhombic
_space_group_IT_number           19
_space_group_name_Hall           'P 2ac 2ab'
_space_group_name_H-M_alt        'P 21 21 21'
_symmetry_space_group_name_Hall  'P 2ac 2ab'
_symmetry_space_group_name_H-M   'P 21 21 21'
_atom_sites_solution_hydrogens   geom
_atom_sites_solution_primary     direct
_audit_creation_date             2017-05-10
_audit_creation_method
;
Olex2 1.2
(compiled 2017.03.28 svn.r3405 for OlexSys, GUI svn.r5335)
;
_cell_angle_alpha                90
_cell_angle_beta                 90
_cell_angle_gamma                90
_cell_formula_units_Z            8
_cell_length_a                   9.3259(5)
_cell_length_b                   19.0277(11)
_cell_length_c                   23.1597(9)
_cell_measurement_reflns_used    1518
_cell_measurement_temperature    236(12)
_cell_measurement_theta_max      25.3820
_cell_measurement_theta_min      3.8820
_cell_volume                     4109.7(4)
_computing_cell_refinement
;
CrysAlisPro, Agilent Technologies,
Version 1.171.36.28 (release 01-02-2013 CrysAlis171 .NET)
(compiled Feb  1 2013,16:14:44)
;
_computing_data_collection
;
CrysAlisPro, Agilent Technologies,
Version 1.171.36.28 (release 01-02-2013 CrysAlis171 .NET)
(compiled Feb  1 2013,16:14:44)
;
_computing_data_reduction
;
CrysAlisPro, Agilent Technologies,
Version 1.171.36.28 (release 01-02-2013 CrysAlis171 .NET)
(compiled Feb  1 2013,16:14:44)
;
_computing_molecular_graphics    'Olex2 (Dolomanov et al., 2009)'
_computing_publication_material  'Olex2 (Dolomanov et al., 2009)'
_computing_structure_refinement  'ShelXL (Sheldrick, 2015)'
_computing_structure_solution    'ShelXS (Sheldrick, 2008)'
_diffrn_ambient_temperature      236(12)
_diffrn_detector_area_resol_mean 16.0733
_diffrn_measured_fraction_theta_full 0.997
_diffrn_measured_fraction_theta_max 0.997
_diffrn_measurement_details
;
#__ type_ start__ end____ width___ exp.time_
  1 omega -100.00  -74.00   1.0000   12.0000
omega____ theta____ kappa____ phi______ frames
    -      -19.5055  178.0000   30.0000 26

#__ type_ start__ end____ width___ exp.time_
  2 omega  -38.00   85.00   1.0000   12.0000
omega____ theta____ kappa____ phi______ frames
    -       22.7867  -19.0000   30.0000 123
;
_diffrn_measurement_device_type  'SuperNova, Dual, Cu at zero, Eos'
_diffrn_measurement_method       '\w scans'
_diffrn_orient_matrix_UB_11      0.0237929000
_diffrn_orient_matrix_UB_12      -0.0353984000
_diffrn_orient_matrix_UB_13      -0.0000298000
_diffrn_orient_matrix_UB_21      0.0674848000
_diffrn_orient_matrix_UB_22      0.0108975000
_diffrn_orient_matrix_UB_23      0.0109375000
_diffrn_orient_matrix_UB_31      -0.0258158000
_diffrn_orient_matrix_UB_32      -0.0041963000
_diffrn_orient_matrix_UB_33      0.0286033000
_diffrn_radiation_monochromator  mirror
_diffrn_radiation_type           MoK\a
_diffrn_radiation_wavelength     0.71073
_diffrn_reflns_av_R_equivalents  0.0416
_diffrn_reflns_av_unetI/netI     0.1160
_diffrn_reflns_Laue_measured_fraction_full 0.997
_diffrn_reflns_Laue_measured_fraction_max 0.997
_diffrn_reflns_limit_h_max       11
_diffrn_reflns_limit_h_min       -5
_diffrn_reflns_limit_k_max       23
_diffrn_reflns_limit_k_min       -14
_diffrn_reflns_limit_l_max       28
_diffrn_reflns_limit_l_min       -15
_diffrn_reflns_number            10323
_diffrn_reflns_point_group_measured_fraction_full 0.960
_diffrn_reflns_point_group_measured_fraction_max 0.953
_diffrn_reflns_theta_full        25.242
_diffrn_reflns_theta_max         26.021
_diffrn_reflns_theta_min         3.330
_diffrn_source                   'SuperNova (Mo) X-ray Source'
_exptl_absorpt_coefficient_mu    0.185
_exptl_absorpt_correction_T_max  1.00000
_exptl_absorpt_correction_T_min  0.98870
_exptl_absorpt_correction_type   multi-scan
_exptl_absorpt_process_details
;
CrysAlisPro, Agilent Technologies,
Version 1.171.36.28 (release 01-02-2013 CrysAlis171 .NET)
(compiled Feb  1 2013,16:14:44)
Empirical absorption correction using spherical harmonics,
 implemented in SCALE3 ABSPACK scaling algorithm.
;
_exptl_crystal_colour            'clear light colourless'
_exptl_crystal_colour_lustre     clear
_exptl_crystal_colour_modifier   light
_exptl_crystal_colour_primary    colourless
_exptl_crystal_density_diffrn    1.343
_exptl_crystal_description       block
_exptl_crystal_F_000             1744
_exptl_crystal_size_max          0.21
_exptl_crystal_size_mid          0.17
_exptl_crystal_size_min          0.15
_refine_diff_density_max         0.310
_refine_diff_density_min         -0.365
_refine_diff_density_rms         0.052
_refine_ls_abs_structure_details
;
 Flack x determined using 1214 quotients [(I+)-(I-)]/[(I+)+(I-)]
 (Parsons, Flack and Wagner, Acta Cryst. B69 (2013) 249-259).
;
_refine_ls_abs_structure_Flack   0.04(9)
_refine_ls_extinction_method     none
_refine_ls_goodness_of_fit_ref   1.059
_refine_ls_hydrogen_treatment    constr
_refine_ls_matrix_type           full
_refine_ls_number_parameters     543
_refine_ls_number_reflns         7728
_refine_ls_number_restraints     0
_refine_ls_restrained_S_all      1.059
_refine_ls_R_factor_all          0.1186
_refine_ls_R_factor_gt           0.0669
_refine_ls_shift/su_max          0.000
_refine_ls_shift/su_mean         0.000
_refine_ls_structure_factor_coef Fsqd
_refine_ls_weighting_details
'w=1/[\s^2^(Fo^2^)+(0.0201P)^2^] where P=(Fo^2^+2Fc^2^)/3'
_refine_ls_weighting_scheme      calc
_refine_ls_wR_factor_gt          0.0949
_refine_ls_wR_factor_ref         0.1245
_reflns_Friedel_coverage         0.709
_reflns_Friedel_fraction_full    0.913
_reflns_Friedel_fraction_max     0.898
_reflns_number_gt                4697
_reflns_number_total             7728
_reflns_threshold_expression     'I > 2\s(I)'
_iucr_refine_instructions_details
;

    xudy_0508.res created by SHELXL-2014/7

TITL xudy_0508 in P212121 #19
REM reset to P212121 #19
CELL 0.71073 9.32585 19.027699 23.159655 90 90 90
ZERR 8 0.00046 0.001146 0.000894 0 0 0
LATT -1
SYMM 0.5-X,-Y,0.5+Z
SYMM 0.5+X,0.5-Y,-Z
SYMM -X,0.5+Y,0.5-Z
SFAC C H N O S
UNIT 200 168 8 24 8
 
L.S. 6
PLAN  20
BOND $H
HTAB
CONF
fmap 2
acta
SHEL 999 0.81
REM <olex2.extras>
REM <HklSrc "%.\\xudy_0508.hkl">
REM </olex2.extras>
 
WGHT    0.020100
FVAR       3.02683
S1    5   -0.250080   -0.132177   -0.090753    11.00000    0.04700    0.04048 =
         0.04079   -0.00312   -0.00321    0.00190
O1    4   -0.274473   -0.167743   -0.037284    11.00000    0.07762    0.05150 =
         0.03217    0.00079    0.00238    0.01066
O2    4   -0.147649   -0.075623   -0.092568    11.00000    0.05228    0.04288 =
         0.06363   -0.00360   -0.00877   -0.00791
O3    4    0.275415   -0.331670   -0.167436    11.00000    0.05756    0.15516 =
         0.06634   -0.00210    0.00095    0.04185
N1    3   -0.205483   -0.194671   -0.137767    11.00000    0.04849    0.03678 =
         0.02965   -0.00103    0.00216   -0.00123
C1    1   -0.148511   -0.176359   -0.193194    11.00000    0.04186    0.04227 =
         0.03122    0.00460   -0.00075   -0.00648
C2    1   -0.151376   -0.113060   -0.222371    11.00000    0.04464    0.04560 =
         0.04795    0.00704   -0.00487   -0.00249
AFIX  43
H2    2   -0.192273   -0.073422   -0.205616    11.00000   -1.20000
AFIX   0
C3    1   -0.092203   -0.109929   -0.276943    11.00000    0.04533    0.06393 =
         0.05129    0.02266   -0.00509   -0.00903
AFIX  43
H3    2   -0.092270   -0.067537   -0.296930    11.00000   -1.20000
AFIX   0
C4    1   -0.033022   -0.168736   -0.302232    11.00000    0.04266    0.07681 =
         0.04055    0.01166    0.00539   -0.00475
AFIX  43
H4    2    0.005190   -0.165746   -0.339242    11.00000   -1.20000
AFIX   0
C5    1   -0.029918   -0.232644   -0.272849    11.00000    0.04144    0.06684 =
         0.04215   -0.00176    0.00496   -0.00155
AFIX  43
H5    2    0.009767   -0.272385   -0.289911    11.00000   -1.20000
AFIX   0
C6    1   -0.087089   -0.235754   -0.217773    11.00000    0.03471    0.04415 =
         0.03713    0.00258   -0.00141   -0.00147
C7    1   -0.104204   -0.297411   -0.177522    11.00000    0.04555    0.04005 =
         0.03869   -0.00346    0.00023    0.00279
AFIX  13
H7    2   -0.189528   -0.323953   -0.189122    11.00000   -1.20000
AFIX   0
C8    1    0.023194   -0.347580   -0.175703    11.00000    0.06044    0.05401 =
         0.04744    0.00429    0.01320    0.01622
AFIX  23
H8A   2   -0.002559   -0.388523   -0.153007    11.00000   -1.20000
H8B   2    0.044138   -0.363347   -0.214629    11.00000   -1.20000
AFIX   0
C9    1    0.153910   -0.315327   -0.150747    11.00000    0.05144    0.07495 =
         0.05165    0.01655    0.00271    0.01433
C10   1    0.133077   -0.265794   -0.103208    11.00000    0.03959    0.06841 =
         0.05052    0.00118   -0.00684    0.00260
AFIX  43
H10   2    0.212768   -0.249664   -0.083031    11.00000   -1.20000
AFIX   0
C11   1    0.004217   -0.243216   -0.088024    11.00000    0.05019    0.04103 =
         0.04278    0.00609   -0.00822   -0.00301
AFIX  43
H11   2   -0.001463   -0.213059   -0.056506    11.00000   -1.20000
AFIX   0
C12   1   -0.134051   -0.262524   -0.117782    11.00000    0.04535    0.03241 =
         0.03460   -0.00194   -0.00298   -0.00067
C13   1   -0.230421   -0.308008   -0.081133    11.00000    0.04223    0.03593 =
         0.04221    0.00235    0.00489   -0.00159
C14   1   -0.454779   -0.369592   -0.067760    11.00000    0.05346    0.05433 =
         0.06466    0.00602   -0.00243   -0.01232
AFIX  43
H14   2   -0.546984   -0.379832   -0.080534    11.00000   -1.20000
AFIX   0
C15   1   -0.367758   -0.325024   -0.099460    11.00000    0.04256    0.04553 =
         0.05049    0.01482   -0.00478   -0.00987
AFIX  43
H15   2   -0.402106   -0.306074   -0.133793    11.00000   -1.20000
AFIX   0
C16   1   -0.404626   -0.398556   -0.017519    11.00000    0.06698    0.04694 =
         0.05791   -0.00090    0.01772   -0.00795
AFIX  43
H16   2   -0.461981   -0.429029    0.003748    11.00000   -1.20000
AFIX   0
C17   1   -0.270016   -0.382338    0.001024    11.00000    0.07681    0.05541 =
         0.04275    0.01283    0.00144    0.00686
AFIX  43
H17   2   -0.236512   -0.401931    0.035249    11.00000   -1.20000
AFIX   0
C18   1   -0.181773   -0.337385   -0.029829    11.00000    0.05215    0.04198 =
         0.03909    0.00182   -0.00060   -0.00388
AFIX  43
H18   2   -0.090380   -0.326921   -0.016256    11.00000   -1.20000
AFIX   0
C19   1   -0.413290   -0.098815   -0.117677    11.00000    0.04256    0.04754 =
         0.04163    0.00380    0.00429   -0.00319
C20   1   -0.437400   -0.028080   -0.114098    11.00000    0.05309    0.04807 =
         0.08504    0.01279   -0.00582    0.00334
AFIX  43
H20   2   -0.364297    0.001678   -0.101922    11.00000   -1.20000
AFIX   0
C21   1   -0.569483   -0.000614   -0.128440    11.00000    0.05365    0.04523 =
         0.09885    0.02050   -0.00424    0.00710
AFIX  43
H21   2   -0.585791    0.047305   -0.124031    11.00000   -1.20000
AFIX   0
C22   1   -0.678399   -0.043177   -0.149315    11.00000    0.04657    0.06589 =
         0.05739    0.02109    0.00761    0.00249
C23   1   -0.650657   -0.114048   -0.153740    11.00000    0.03856    0.07748 =
         0.06787   -0.00894   -0.00381   -0.00647
AFIX  43
H23   2   -0.721594   -0.143749   -0.167920    11.00000   -1.20000
AFIX   0
C24   1   -0.519651   -0.142193   -0.137583    11.00000    0.04916    0.05308 =
         0.06617   -0.00381   -0.00193   -0.00180
AFIX  43
H24   2   -0.503954   -0.190351   -0.140239    11.00000   -1.20000
AFIX   0
C25   1   -0.825386   -0.014281   -0.162436    11.00000    0.04283    0.10012 =
         0.10881    0.03851    0.00804    0.01003
AFIX 137
H25A  2   -0.889023   -0.024784   -0.131017    11.00000   -1.50000
H25B  2   -0.861257   -0.035382   -0.197207    11.00000   -1.50000
H25C  2   -0.819459    0.035719   -0.167436    11.00000   -1.50000
AFIX   0
 
S2    5    0.300953   -0.165988   -0.463241    11.00000    0.04497    0.04858 =
         0.03349    0.00442   -0.00033    0.00113
O4    4    0.419207   -0.117897   -0.466529    11.00000    0.04518    0.06703 =
         0.04927    0.01853    0.00221   -0.01618
O5    4    0.284692   -0.219890   -0.506203    11.00000    0.06743    0.05276 =
         0.03770   -0.01663   -0.00618    0.01118
O6    4    0.693719   -0.349630   -0.287162    11.00000    0.06324    0.04664 =
         0.07141    0.00995   -0.01394    0.00871
N2    3    0.311422   -0.204505   -0.399136    11.00000    0.03937    0.04016 =
         0.03336    0.00436   -0.00595   -0.00763
C26   1    0.250589   -0.271861   -0.386475    11.00000    0.03859    0.04051 =
         0.03440   -0.00054    0.00170   -0.00737
C27   1    0.153559   -0.311035   -0.417791    11.00000    0.05211    0.05290 =
         0.04323   -0.00161   -0.00786   -0.00547
AFIX  43
H27   2    0.117931   -0.294640   -0.452794    11.00000   -1.20000
AFIX   0
C28   1    0.110227   -0.375612   -0.395824    11.00000    0.05356    0.04536 =
         0.07092   -0.00865   -0.00306   -0.01083
AFIX  43
H28   2    0.044699   -0.402865   -0.416193    11.00000   -1.20000
AFIX   0
C29   1    0.164240   -0.399481   -0.343766    11.00000    0.05940    0.04017 =
         0.06889    0.00534   -0.00179   -0.00530
AFIX  43
H29   2    0.136558   -0.443319   -0.329944    11.00000   -1.20000
AFIX   0
C30   1    0.258393   -0.359214   -0.312159    11.00000    0.04026    0.04815 =
         0.04462    0.00983    0.00007   -0.00042
AFIX  43
H30   2    0.293485   -0.375325   -0.276979    11.00000   -1.20000
AFIX   0
C31   1    0.300023   -0.294573   -0.333406    11.00000    0.03518    0.03496 =
         0.03881    0.00168    0.00350   -0.00163
C32   1    0.516630   -0.262130   -0.269705    11.00000    0.05819    0.05076 =
         0.02846    0.00290   -0.00583   -0.00292
AFIX  23
H32A  2    0.561053   -0.221779   -0.251398    11.00000   -1.20000
H32B  2    0.483195   -0.293355   -0.239459    11.00000   -1.20000
AFIX   0
C33   1    0.388366   -0.237433   -0.305391    11.00000    0.04004    0.04255 =
         0.03247   -0.00047    0.00062   -0.00273
AFIX  13
H33   2    0.325284   -0.209872   -0.280241    11.00000   -1.20000
AFIX   0
C34   1    0.626718   -0.299771   -0.305617    11.00000    0.04330    0.04167 =
         0.04317   -0.00154   -0.01064   -0.01103
C35   1    0.651472   -0.269687   -0.362877    11.00000    0.03828    0.05362 =
         0.04149   -0.00285   -0.00098   -0.00217
AFIX  43
H35   2    0.727707   -0.286332   -0.384857    11.00000   -1.20000
AFIX   0
C36   1    0.568837   -0.219497   -0.384457    11.00000    0.03952    0.04593 =
         0.03465   -0.00152    0.00340   -0.00786
AFIX  43
H36   2    0.596600   -0.200172   -0.419606    11.00000   -1.20000
AFIX   0
C37   1    0.433029   -0.190575   -0.357165    11.00000    0.03549    0.03710 =
         0.03176   -0.00102   -0.00463    0.00043
C38   1    0.443787   -0.114320   -0.339137    11.00000    0.04854    0.03545 =
         0.03031    0.00299   -0.00249   -0.00380
C39   1    0.322112   -0.077523   -0.324458    11.00000    0.05209    0.04412 =
         0.06804   -0.00135    0.01278   -0.00070
AFIX  43
H39   2    0.232778   -0.098845   -0.327864    11.00000   -1.20000
AFIX   0
C40   1    0.331591   -0.008794   -0.304595    11.00000    0.08264    0.05533 =
         0.06612   -0.00743    0.01471    0.01150
AFIX  43
H40   2    0.248669    0.015777   -0.295106    11.00000   -1.20000
AFIX   0
C41   1    0.463146    0.022991   -0.298928    11.00000    0.09524    0.04218 =
         0.07078   -0.00867   -0.00890   -0.00822
AFIX  43
H41   2    0.469136    0.069003   -0.285600    11.00000   -1.20000
AFIX   0
C42   1    0.583927   -0.012595   -0.312720    11.00000    0.07007    0.04298 =
         0.09697   -0.00966   -0.02248   -0.01526
AFIX  43
H42   2    0.673097    0.008707   -0.308610    11.00000   -1.20000
AFIX   0
C43   1    0.574144   -0.081281   -0.333102    11.00000    0.05608    0.04510 =
         0.06901   -0.00770   -0.00705    0.00238
AFIX  43
H43   2    0.657518   -0.105332   -0.342843    11.00000   -1.20000
AFIX   0
C44   1    0.140312   -0.116929   -0.461407    11.00000    0.04720    0.03343 =
         0.03443    0.00447   -0.00005    0.00088
C45   1    0.012567   -0.148251   -0.474640    11.00000    0.05281    0.03871 =
         0.07412   -0.00875   -0.01287    0.00291
AFIX  43
H45   2    0.010163   -0.195459   -0.484997    11.00000   -1.20000
AFIX   0
C46   1   -0.112550   -0.109916   -0.472636    11.00000    0.04496    0.05917 =
         0.08914    0.00954   -0.00749   -0.00092
AFIX  43
H46   2   -0.199310   -0.131827   -0.480876    11.00000   -1.20000
AFIX   0
C47   1   -0.111048   -0.039480   -0.458581    11.00000    0.06606    0.04641 =
         0.05229    0.01132    0.01291    0.01486
C48   1    0.018577   -0.008947   -0.446086    11.00000    0.08399    0.03370 =
         0.08147   -0.00513    0.00254    0.00307
AFIX  43
H48   2    0.021722    0.038531   -0.436635    11.00000   -1.20000
AFIX   0
C49   1    0.144581   -0.047159   -0.447230    11.00000    0.06103    0.04497 =
         0.07601   -0.00333   -0.01124   -0.00285
AFIX  43
H49   2    0.231433   -0.025653   -0.438446    11.00000   -1.20000
AFIX   0
C50   1   -0.249541    0.002388   -0.457403    11.00000    0.07950    0.08357 =
         0.09723    0.02652    0.02740    0.04602
AFIX 137
H50A  2   -0.275618    0.012069   -0.418101    11.00000   -1.50000
H50B  2   -0.324362   -0.024268   -0.475594    11.00000   -1.50000
H50C  2   -0.236242    0.045844   -0.477771    11.00000   -1.50000
AFIX   0
HKLF 4
 
REM  xudy_0508 in P212121 #19
REM R1 =  0.0669 for    4697 Fo > 4sig(Fo)  and  0.1186 for all    7728 data
REM    543 parameters refined using      0 restraints
 
END  
     
WGHT      0.0201      0.0000 

REM Instructions for potential hydrogen bonds
EQIV $1 x-1, y, z
HTAB C7 O6_$1
HTAB C27 O5
HTAB C32 O3
EQIV $2 x+1/2, -y-1/2, -z-1
HTAB C35 O5_$2
HTAB C36 O4
EQIV $3 x-1/2, -y-1/2, -z-1
HTAB C45 O5_$3

REM Highest difference peak  0.310,  deepest hole -0.365,  1-sigma level  0.052
Q1    1  -0.0446 -0.4063 -0.1640  11.00000  0.05    0.21
Q2    1  -0.0347 -0.3392 -0.0184  11.00000  0.05    0.21
Q3    1  -0.1917 -0.1622 -0.2079  11.00000  0.05    0.20
Q4    1   0.2392 -0.1762 -0.4149  11.00000  0.05    0.20
Q5    1   0.2374 -0.0370 -0.4498  11.00000  0.05    0.19
Q6    1  -0.2847  0.0062 -0.5059  11.00000  0.05    0.19
Q7    1  -0.4426 -0.3445 -0.1556  11.00000  0.05    0.19
Q8    1  -0.1797 -0.3537 -0.2032  11.00000  0.05    0.19
Q9    1  -0.4827  0.0804 -0.1849  11.00000  0.05    0.19
Q10   1  -0.1967 -0.2003 -0.5047  11.00000  0.05    0.18
Q11   1  -0.7229 -0.1736 -0.1932  11.00000  0.05    0.18
Q12   1   0.1862 -0.4635 -0.3164  11.00000  0.05    0.18
Q13   1  -0.8016 -0.1411 -0.2186  11.00000  0.05    0.18
Q14   1  -0.2817 -0.0824 -0.2147  11.00000  0.05    0.18
Q15   1   0.1910 -0.1562 -0.4641  11.00000  0.05    0.18
Q16   1  -0.1419 -0.2778 -0.2930  11.00000  0.05    0.18
Q17   1  -0.2991 -0.2567 -0.0826  11.00000  0.05    0.18
Q18   1   0.6156 -0.3610 -0.3139  11.00000  0.05    0.18
Q19   1   0.1074  0.0615 -0.4107  11.00000  0.05    0.17
Q20   1  -0.1411 -0.0960 -0.0824  11.00000  0.05    0.17

  REM The information below was added by Olex2.
  REM
  REM R1 = 0.0669 for 4697 Fo > 4sig(Fo) and 0.1186 for all 11439 data
  REM n/a parameters refined using n/a restraints
  REM Highest difference peak 0.31, deepest hole -0.36
  REM Mean Shift 0, Max Shift 0.000.

  REM +++ Tabular Listing of Refinement Information +++
  REM R1_all = 0.1186
  REM R1_gt = 0.0669
  REM wR_ref = 0.1245
  REM GOOF = 1.059
  REM Shift_max = 0.000
  REM Shift_mean = 0
  REM Reflections_all = 11439
  REM Reflections_gt = 4697
  REM Parameters = n/a
  REM Hole = -0.36
  REM Peak = 0.31
  REM Flack = 0.04(9)

  
;
_cod_data_source_file            ol7b01578_si_001.cif
_cod_data_source_block           xudy_0508
_cod_depositor_comments          'Adding full bibliography for 1546426.cif.'
_cod_database_code               1546426
_shelx_shelxl_version_number     2014/7
_chemical_oxdiff_formula         'C H O N S'
_shelx_space_group_comment
;
The symmetry employed for this shelxl refinement is uniquely defined
by the following loop, which should always be used as a source of
symmetry information in preference to the above space-group names.
They are only intended as comments.
;
_reflns_odcompleteness_completeness 99.60
_reflns_odcompleteness_iscentric 1
_reflns_odcompleteness_theta     26.32
_olex2_refinement_description
;
1. Fixed Uiso
 At 1.2 times of:
  All C(H) groups, All C(H,H) groups
 At 1.5 times of:
  All C(H,H,H) groups
2.a Ternary CH refined with riding coordinates:
 C7(H7), C33(H33)
2.b Secondary CH2 refined with riding coordinates:
 C8(H8A,H8B), C32(H32A,H32B)
2.c Aromatic/amide H refined with riding coordinates:
 C2(H2), C3(H3), C4(H4), C5(H5), C10(H10), C11(H11), C14(H14), C15(H15),
 C16(H16), C17(H17), C18(H18), C20(H20), C21(H21), C23(H23), C24(H24), C27(H27),
  C28(H28), C29(H29), C30(H30), C35(H35), C36(H36), C39(H39), C40(H40),
 C41(H41), C42(H42), C43(H43), C45(H45), C46(H46), C48(H48), C49(H49)
2.d Idealised Me refined as rotating group:
 C25(H25A,H25B,H25C), C50(H50A,H50B,H50C)
;
_olex2_date_sample_data_collection 2017-05-08
_olex2_submission_special_instructions 'No special instructions were received'
loop_
_space_group_symop_operation_xyz
'x, y, z'
'-x+1/2, -y, z+1/2'
'x+1/2, -y+1/2, -z'
'-x, y+1/2, -z+1/2'
loop_
_atom_site_label
_atom_site_type_symbol
_atom_site_fract_x
_atom_site_fract_y
_atom_site_fract_z
_atom_site_U_iso_or_equiv
_atom_site_adp_type
_atom_site_occupancy
_atom_site_site_symmetry_order
_atom_site_calc_flag
_atom_site_refinement_flags_posn
S1 S -0.2501(2) -0.13218(9) -0.09075(7) 0.0428(4) Uani 1 1 d .
O1 O -0.2745(5) -0.1677(2) -0.03728(16) 0.0538(13) Uani 1 1 d .
O2 O -0.1476(5) -0.0756(2) -0.09257(19) 0.0529(13) Uani 1 1 d .
O3 O 0.2754(6) -0.3317(4) -0.1674(2) 0.093(2) Uani 1 1 d .
N1 N -0.2055(6) -0.1947(3) -0.13777(18) 0.0383(14) Uani 1 1 d .
C1 C -0.1485(7) -0.1764(4) -0.1932(2) 0.0384(16) Uani 1 1 d .
C2 C -0.1514(7) -0.1131(4) -0.2224(3) 0.0461(18) Uani 1 1 d .
H2 H -0.1923 -0.0734 -0.2056 0.055 Uiso 1 1 calc R
C3 C -0.0922(8) -0.1099(4) -0.2769(3) 0.054(2) Uani 1 1 d .
H3 H -0.0923 -0.0675 -0.2969 0.064 Uiso 1 1 calc R
C4 C -0.0330(8) -0.1687(4) -0.3022(3) 0.053(2) Uani 1 1 d .
H4 H 0.0052 -0.1657 -0.3392 0.064 Uiso 1 1 calc R
C5 C -0.0299(7) -0.2326(4) -0.2728(3) 0.0501(19) Uani 1 1 d .
H5 H 0.0098 -0.2724 -0.2899 0.060 Uiso 1 1 calc R
C6 C -0.0871(7) -0.2358(4) -0.2178(2) 0.0387(16) Uani 1 1 d .
C7 C -0.1042(7) -0.2974(3) -0.1775(2) 0.0414(18) Uani 1 1 d .
H7 H -0.1895 -0.3240 -0.1891 0.050 Uiso 1 1 calc R
C8 C 0.0232(8) -0.3476(4) -0.1757(3) 0.054(2) Uani 1 1 d .
H8A H -0.0026 -0.3885 -0.1530 0.065 Uiso 1 1 calc R
H8B H 0.0441 -0.3633 -0.2146 0.065 Uiso 1 1 calc R
C9 C 0.1539(9) -0.3153(4) -0.1507(3) 0.059(2) Uani 1 1 d .
C10 C 0.1331(8) -0.2658(4) -0.1032(3) 0.0528(19) Uani 1 1 d .
H10 H 0.2128 -0.2497 -0.0830 0.063 Uiso 1 1 calc R
C11 C 0.0042(8) -0.2432(3) -0.0880(3) 0.0447(17) Uani 1 1 d .
H11 H -0.0015 -0.2131 -0.0565 0.054 Uiso 1 1 calc R
C12 C -0.1341(7) -0.2625(3) -0.1178(2) 0.0375(16) Uani 1 1 d .
C13 C -0.2304(8) -0.3080(3) -0.0811(3) 0.0401(17) Uani 1 1 d .
C14 C -0.4548(9) -0.3696(4) -0.0678(3) 0.057(2) Uani 1 1 d .
H14 H -0.5470 -0.3798 -0.0805 0.069 Uiso 1 1 calc R
C15 C -0.3678(7) -0.3250(3) -0.0995(3) 0.0462(18) Uani 1 1 d .
H15 H -0.4021 -0.3061 -0.1338 0.055 Uiso 1 1 calc R
C16 C -0.4046(9) -0.3986(4) -0.0175(3) 0.057(2) Uani 1 1 d .
H16 H -0.4620 -0.4290 0.0037 0.069 Uiso 1 1 calc R
C17 C -0.2700(10) -0.3823(4) 0.0010(3) 0.058(2) Uani 1 1 d .
H17 H -0.2365 -0.4019 0.0352 0.070 Uiso 1 1 calc R
C18 C -0.1818(7) -0.3374(3) -0.0298(2) 0.0444(17) Uani 1 1 d .
H18 H -0.0904 -0.3269 -0.0163 0.053 Uiso 1 1 calc R
C19 C -0.4133(8) -0.0988(4) -0.1177(3) 0.0439(18) Uani 1 1 d .
C20 C -0.4374(9) -0.0281(4) -0.1141(3) 0.062(2) Uani 1 1 d .
H20 H -0.3643 0.0017 -0.1019 0.074 Uiso 1 1 calc R
C21 C -0.5695(9) -0.0006(4) -0.1284(3) 0.066(2) Uani 1 1 d .
H21 H -0.5858 0.0473 -0.1240 0.079 Uiso 1 1 calc R
C22 C -0.6784(9) -0.0432(5) -0.1493(3) 0.057(2) Uani 1 1 d .
C23 C -0.6507(8) -0.1140(5) -0.1537(3) 0.061(2) Uani 1 1 d .
H23 H -0.7216 -0.1437 -0.1679 0.074 Uiso 1 1 calc R
C24 C -0.5197(8) -0.1422(4) -0.1376(3) 0.056(2) Uani 1 1 d .
H24 H -0.5040 -0.1904 -0.1402 0.067 Uiso 1 1 calc R
C25 C -0.8254(9) -0.0143(5) -0.1624(4) 0.084(3) Uani 1 1 d .
H25A H -0.8890 -0.0248 -0.1310 0.126 Uiso 1 1 calc GR
H25B H -0.8613 -0.0354 -0.1972 0.126 Uiso 1 1 calc GR
H25C H -0.8195 0.0357 -0.1674 0.126 Uiso 1 1 calc GR
S2 S 0.30095(19) -0.16599(10) -0.46324(7) 0.0423(4) Uani 1 1 d .
O4 O 0.4192(5) -0.1179(3) -0.46653(18) 0.0538(14) Uani 1 1 d .
O5 O 0.2847(5) -0.2199(2) -0.50620(15) 0.0526(13) Uani 1 1 d .
O6 O 0.6937(6) -0.3496(3) -0.28716(19) 0.0604(14) Uani 1 1 d .
N2 N 0.3114(6) -0.2045(3) -0.39914(19) 0.0376(13) Uani 1 1 d .
C26 C 0.2506(7) -0.2719(3) -0.3865(2) 0.0378(15) Uani 1 1 d .
C27 C 0.1536(8) -0.3110(4) -0.4178(3) 0.0494(19) Uani 1 1 d .
H27 H 0.1179 -0.2946 -0.4528 0.059 Uiso 1 1 calc R
C28 C 0.1102(8) -0.3756(4) -0.3958(3) 0.057(2) Uani 1 1 d .
H28 H 0.0447 -0.4029 -0.4162 0.068 Uiso 1 1 calc R
C29 C 0.1642(8) -0.3995(4) -0.3438(3) 0.056(2) Uani 1 1 d .
H29 H 0.1366 -0.4433 -0.3299 0.067 Uiso 1 1 calc R
C30 C 0.2584(7) -0.3592(4) -0.3122(3) 0.0443(17) Uani 1 1 d .
H30 H 0.2935 -0.3753 -0.2770 0.053 Uiso 1 1 calc R
C31 C 0.3000(7) -0.2946(3) -0.3334(2) 0.0363(16) Uani 1 1 d .
C32 C 0.5166(8) -0.2621(4) -0.2697(2) 0.0458(19) Uani 1 1 d .
H32A H 0.5611 -0.2218 -0.2514 0.055 Uiso 1 1 calc R
H32B H 0.4832 -0.2934 -0.2395 0.055 Uiso 1 1 calc R
C33 C 0.3884(7) -0.2374(3) -0.3054(2) 0.0384(17) Uani 1 1 d .
H33 H 0.3253 -0.2099 -0.2802 0.046 Uiso 1 1 calc R
C34 C 0.6267(8) -0.2998(4) -0.3056(3) 0.0427(17) Uani 1 1 d .
C35 C 0.6515(7) -0.2697(4) -0.3629(2) 0.0445(18) Uani 1 1 d .
H35 H 0.7277 -0.2863 -0.3849 0.053 Uiso 1 1 calc R
C36 C 0.5688(7) -0.2195(4) -0.3845(3) 0.0400(16) Uani 1 1 d .
H36 H 0.5966 -0.2002 -0.4196 0.048 Uiso 1 1 calc R
C37 C 0.4330(7) -0.1906(3) -0.3572(2) 0.0348(16) Uani 1 1 d .
C38 C 0.4438(8) -0.1143(3) -0.3391(2) 0.0381(17) Uani 1 1 d .
C39 C 0.3221(9) -0.0775(4) -0.3245(3) 0.055(2) Uani 1 1 d .
H39 H 0.2328 -0.0988 -0.3279 0.066 Uiso 1 1 calc R
C40 C 0.3316(10) -0.0088(4) -0.3046(3) 0.068(3) Uani 1 1 d .
H40 H 0.2487 0.0158 -0.2951 0.082 Uiso 1 1 calc R
C41 C 0.4631(11) 0.0230(4) -0.2989(3) 0.069(3) Uani 1 1 d .
H41 H 0.4691 0.0690 -0.2856 0.083 Uiso 1 1 calc R
C42 C 0.5839(10) -0.0126(4) -0.3127(4) 0.070(3) Uani 1 1 d .
H42 H 0.6731 0.0087 -0.3086 0.084 Uiso 1 1 calc R
C43 C 0.5741(9) -0.0813(4) -0.3331(3) 0.057(2) Uani 1 1 d .
H43 H 0.6575 -0.1053 -0.3428 0.068 Uiso 1 1 calc R
C44 C 0.1403(7) -0.1169(3) -0.4614(3) 0.0384(16) Uani 1 1 d .
C45 C 0.0126(8) -0.1483(4) -0.4746(3) 0.055(2) Uani 1 1 d .
H45 H 0.0102 -0.1955 -0.4850 0.066 Uiso 1 1 calc R
C46 C -0.1126(9) -0.1099(4) -0.4726(3) 0.064(2) Uani 1 1 d .
H46 H -0.1993 -0.1318 -0.4809 0.077 Uiso 1 1 calc R
C47 C -0.1110(9) -0.0395(4) -0.4586(3) 0.055(2) Uani 1 1 d .
C48 C 0.0186(10) -0.0089(4) -0.4461(3) 0.066(2) Uani 1 1 d .
H48 H 0.0217 0.0385 -0.4366 0.080 Uiso 1 1 calc R
C49 C 0.1446(9) -0.0472(4) -0.4472(3) 0.061(2) Uani 1 1 d .
H49 H 0.2314 -0.0257 -0.4384 0.073 Uiso 1 1 calc R
C50 C -0.2495(10) 0.0024(4) -0.4574(3) 0.087(3) Uani 1 1 d .
H50A H -0.2756 0.0121 -0.4181 0.130 Uiso 1 1 calc GR
H50B H -0.3244 -0.0243 -0.4756 0.130 Uiso 1 1 calc GR
H50C H -0.2362 0.0458 -0.4778 0.130 Uiso 1 1 calc GR
loop_
_atom_site_aniso_label
_atom_site_aniso_U_11
_atom_site_aniso_U_22
_atom_site_aniso_U_33
_atom_site_aniso_U_23
_atom_site_aniso_U_13
_atom_site_aniso_U_12
S1 0.0470(11) 0.0405(10) 0.0408(8) -0.0031(8) -0.0032(9) 0.0019(9)
O1 0.078(4) 0.052(3) 0.032(2) 0.001(2) 0.002(3) 0.011(3)
O2 0.052(3) 0.043(3) 0.064(3) -0.004(3) -0.009(3) -0.008(3)
O3 0.058(4) 0.155(6) 0.066(3) -0.002(4) 0.001(3) 0.042(4)
N1 0.048(4) 0.037(3) 0.030(2) -0.001(2) 0.002(3) -0.001(3)
C1 0.042(4) 0.042(4) 0.031(3) 0.005(3) -0.001(3) -0.006(4)
C2 0.045(4) 0.046(4) 0.048(4) 0.007(4) -0.005(4) -0.002(4)
C3 0.045(5) 0.064(5) 0.051(4) 0.023(4) -0.005(4) -0.009(4)
C4 0.043(5) 0.077(6) 0.041(4) 0.012(4) 0.005(3) -0.005(5)
C5 0.041(4) 0.067(5) 0.042(4) -0.002(4) 0.005(4) -0.002(4)
C6 0.035(4) 0.044(4) 0.037(3) 0.003(3) -0.001(3) -0.001(3)
C7 0.046(5) 0.040(4) 0.039(3) -0.003(3) 0.000(3) 0.003(4)
C8 0.060(5) 0.054(5) 0.047(4) 0.004(4) 0.013(4) 0.016(4)
C9 0.051(5) 0.075(6) 0.052(4) 0.017(4) 0.003(4) 0.014(5)
C10 0.040(4) 0.068(5) 0.051(4) 0.001(4) -0.007(4) 0.003(4)
C11 0.050(5) 0.041(4) 0.043(4) 0.006(3) -0.008(4) -0.003(4)
C12 0.045(4) 0.032(4) 0.035(3) -0.002(3) -0.003(3) -0.001(3)
C13 0.042(4) 0.036(4) 0.042(3) 0.002(3) 0.005(3) -0.002(3)
C14 0.053(5) 0.054(5) 0.065(5) 0.006(4) -0.002(4) -0.012(4)
C15 0.043(4) 0.046(4) 0.050(4) 0.015(4) -0.005(4) -0.010(4)
C16 0.067(6) 0.047(5) 0.058(4) -0.001(4) 0.018(4) -0.008(4)
C17 0.077(6) 0.055(5) 0.043(4) 0.013(4) 0.001(4) 0.007(5)
C18 0.052(5) 0.042(4) 0.039(3) 0.002(3) -0.001(3) -0.004(4)
C19 0.043(4) 0.048(5) 0.042(4) 0.004(4) 0.004(3) -0.003(4)
C20 0.053(5) 0.048(5) 0.085(6) 0.013(5) -0.006(5) 0.003(4)
C21 0.054(6) 0.045(5) 0.099(6) 0.020(5) -0.004(5) 0.007(4)
C22 0.047(5) 0.066(6) 0.057(5) 0.021(4) 0.008(4) 0.002(5)
C23 0.039(5) 0.077(6) 0.068(5) -0.009(5) -0.004(4) -0.006(5)
C24 0.049(5) 0.053(5) 0.066(5) -0.004(4) -0.002(4) -0.002(4)
C25 0.043(6) 0.100(8) 0.109(7) 0.039(6) 0.008(5) 0.010(5)
S2 0.0450(11) 0.0486(11) 0.0335(8) 0.0044(8) -0.0003(8) 0.0011(9)
O4 0.045(3) 0.067(4) 0.049(2) 0.019(3) 0.002(2) -0.016(3)
O5 0.067(4) 0.053(3) 0.038(2) -0.017(2) -0.006(2) 0.011(3)
O6 0.063(4) 0.047(3) 0.071(3) 0.010(3) -0.014(3) 0.009(3)
N2 0.039(3) 0.040(3) 0.033(3) 0.004(2) -0.006(3) -0.008(3)
C26 0.039(4) 0.041(4) 0.034(3) -0.001(3) 0.002(3) -0.007(4)
C27 0.052(5) 0.053(5) 0.043(4) -0.002(4) -0.008(4) -0.005(4)
C28 0.054(5) 0.045(5) 0.071(5) -0.009(4) -0.003(4) -0.011(4)
C29 0.059(5) 0.040(5) 0.069(5) 0.005(4) -0.002(4) -0.005(4)
C30 0.040(4) 0.048(4) 0.045(3) 0.010(3) 0.000(3) 0.000(4)
C31 0.035(4) 0.035(4) 0.039(3) 0.002(3) 0.004(3) -0.002(3)
C32 0.058(5) 0.051(5) 0.028(3) 0.003(3) -0.006(3) -0.003(4)
C33 0.040(4) 0.043(4) 0.032(3) 0.000(3) 0.001(3) -0.003(4)
C34 0.043(4) 0.042(4) 0.043(4) -0.002(3) -0.011(4) -0.011(4)
C35 0.038(4) 0.054(5) 0.041(4) -0.003(4) -0.001(3) -0.002(4)
C36 0.040(4) 0.046(4) 0.035(3) -0.002(3) 0.003(3) -0.008(4)
C37 0.035(4) 0.037(4) 0.032(3) -0.001(3) -0.005(3) 0.000(3)
C38 0.049(5) 0.035(4) 0.030(3) 0.003(3) -0.002(3) -0.004(4)
C39 0.052(5) 0.044(4) 0.068(5) -0.001(4) 0.013(4) -0.001(4)
C40 0.083(7) 0.055(6) 0.066(5) -0.007(5) 0.015(5) 0.011(5)
C41 0.095(8) 0.042(5) 0.071(5) -0.009(4) -0.009(6) -0.008(5)
C42 0.070(7) 0.043(5) 0.097(6) -0.010(5) -0.022(6) -0.015(5)
C43 0.056(5) 0.045(5) 0.069(5) -0.008(4) -0.007(4) 0.002(4)
C44 0.047(4) 0.033(4) 0.034(3) 0.004(3) 0.000(3) 0.001(3)
C45 0.053(5) 0.039(4) 0.074(5) -0.009(4) -0.013(4) 0.003(4)
C46 0.045(5) 0.059(5) 0.089(6) 0.010(5) -0.007(5) -0.001(4)
C47 0.066(6) 0.046(5) 0.052(4) 0.011(4) 0.013(5) 0.015(4)
C48 0.084(7) 0.034(5) 0.081(6) -0.005(4) 0.003(6) 0.003(5)
C49 0.061(6) 0.045(5) 0.076(5) -0.003(4) -0.011(5) -0.003(5)
C50 0.079(7) 0.084(7) 0.097(6) 0.027(5) 0.027(6) 0.046(6)
loop_
_atom_type_symbol
_atom_type_description
_atom_type_scat_dispersion_real
_atom_type_scat_dispersion_imag
_atom_type_scat_source
C C 0.0033 0.0016 'International Tables Vol C Tables 4.2.6.8 and 6.1.1.4'
H H 0.0000 0.0000 'International Tables Vol C Tables 4.2.6.8 and 6.1.1.4'
N N 0.0061 0.0033 'International Tables Vol C Tables 4.2.6.8 and 6.1.1.4'
O O 0.0106 0.0060 'International Tables Vol C Tables 4.2.6.8 and 6.1.1.4'
S S 0.1246 0.1234 'International Tables Vol C Tables 4.2.6.8 and 6.1.1.4'
loop_
_geom_angle_atom_site_label_1
_geom_angle_atom_site_label_2
_geom_angle_atom_site_label_3
_geom_angle
O1 S1 O2 119.0(3)
O1 S1 N1 105.6(3)
O1 S1 C19 109.8(3)
O2 S1 N1 110.4(3)
O2 S1 C19 107.1(3)
N1 S1 C19 104.0(3)
C1 N1 S1 120.3(4)
C1 N1 C12 108.4(5)
C12 N1 S1 121.0(3)
C2 C1 N1 130.0(6)
C2 C1 C6 121.1(6)
C6 C1 N1 108.8(6)
C1 C2 H2 120.7
C3 C2 C1 118.5(7)
C3 C2 H2 120.7
C2 C3 H3 119.5
C4 C3 C2 120.9(7)
C4 C3 H3 119.5
C3 C4 H4 119.7
C3 C4 C5 120.6(6)
C5 C4 H4 119.7
C4 C5 H5 120.7
C6 C5 C4 118.6(7)
C6 C5 H5 120.7
C1 C6 C7 109.6(5)
C5 C6 C1 120.1(6)
C5 C6 C7 130.1(7)
C6 C7 H7 108.5
C6 C7 C8 115.0(6)
C6 C7 C12 103.7(5)
C8 C7 H7 108.5
C8 C7 C12 112.4(5)
C12 C7 H7 108.5
C7 C8 H8A 109.0
C7 C8 H8B 109.0
H8A C8 H8B 107.8
C9 C8 C7 113.1(6)
C9 C8 H8A 109.0
C9 C8 H8B 109.0
O3 C9 C8 121.8(8)
O3 C9 C10 121.3(8)
C10 C9 C8 116.8(7)
C9 C10 H10 119.0
C11 C10 C9 122.0(7)
C11 C10 H10 119.0
C10 C11 H11 117.4
C10 C11 C12 125.2(6)
C12 C11 H11 117.4
N1 C12 C7 99.7(4)
C11 C12 N1 107.8(5)
C11 C12 C7 110.9(6)
C11 C12 C13 113.1(5)
C13 C12 N1 113.3(5)
C13 C12 C7 111.2(5)
C15 C13 C12 120.8(6)
C15 C13 C18 118.0(6)
C18 C13 C12 121.2(6)
C15 C14 H14 120.1
C16 C14 H14 120.1
C16 C14 C15 119.8(7)
C13 C15 H15 119.3
C14 C15 C13 121.5(6)
C14 C15 H15 119.3
C14 C16 H16 120.3
C17 C16 C14 119.4(7)
C17 C16 H16 120.3
C16 C17 H17 119.2
C16 C17 C18 121.6(7)
C18 C17 H17 119.2
C13 C18 H18 120.1
C17 C18 C13 119.7(7)
C17 C18 H18 120.1
C20 C19 S1 118.4(6)
C20 C19 C24 119.6(7)
C24 C19 S1 121.8(6)
C19 C20 H20 119.8
C19 C20 C21 120.4(8)
C21 C20 H20 119.8
C20 C21 H21 119.4
C20 C21 C22 121.1(8)
C22 C21 H21 119.4
C21 C22 C25 121.6(8)
C23 C22 C21 117.4(8)
C23 C22 C25 120.9(8)
C22 C23 H23 119.2
C22 C23 C24 121.6(8)
C24 C23 H23 119.2
C19 C24 C23 119.8(7)
C19 C24 H24 120.1
C23 C24 H24 120.1
C22 C25 H25A 109.5
C22 C25 H25B 109.5
C22 C25 H25C 109.5
H25A C25 H25B 109.5
H25A C25 H25C 109.5
H25B C25 H25C 109.5
O4 S2 O5 120.0(3)
O4 S2 N2 106.5(3)
O4 S2 C44 108.4(3)
O5 S2 N2 108.1(3)
O5 S2 C44 107.7(3)
N2 S2 C44 105.2(3)
C26 N2 S2 123.7(4)
C26 N2 C37 108.7(5)
C37 N2 S2 122.7(4)
C27 C26 N2 129.5(6)
C27 C26 C31 121.2(6)
C31 C26 N2 109.3(5)
C26 C27 H27 120.8
C26 C27 C28 118.4(6)
C28 C27 H27 120.8
C27 C28 H28 119.9
C29 C28 C27 120.2(7)
C29 C28 H28 119.9
C28 C29 H29 119.6
C30 C29 C28 120.9(7)
C30 C29 H29 119.6
C29 C30 H30 120.5
C29 C30 C31 119.1(6)
C31 C30 H30 120.5
C26 C31 C33 109.8(5)
C30 C31 C26 120.1(6)
C30 C31 C33 129.9(5)
H32A C32 H32B 107.8
C33 C32 H32A 109.1
C33 C32 H32B 109.1
C34 C32 H32A 109.1
C34 C32 H32B 109.1
C34 C32 C33 112.5(5)
C31 C33 C32 116.0(6)
C31 C33 H33 108.2
C31 C33 C37 103.2(4)
C32 C33 H33 108.2
C32 C33 C37 112.6(5)
C37 C33 H33 108.2
O6 C34 C32 122.0(6)
O6 C34 C35 122.9(7)
C35 C34 C32 115.0(6)
C34 C35 H35 118.9
C36 C35 C34 122.2(6)
C36 C35 H35 118.9
C35 C36 H36 116.9
C35 C36 C37 126.1(6)
C37 C36 H36 116.9
N2 C37 C33 101.2(5)
N2 C37 C36 107.1(5)
C36 C37 C33 109.7(5)
C38 C37 N2 113.2(5)
C38 C37 C33 110.8(5)
C38 C37 C36 114.0(6)
C39 C38 C37 120.1(7)
C43 C38 C37 121.7(7)
C43 C38 C39 118.1(7)
C38 C39 H39 119.7
C38 C39 C40 120.6(8)
C40 C39 H39 119.7
C39 C40 H40 119.9
C41 C40 C39 120.2(9)
C41 C40 H40 119.9
C40 C41 H41 120.0
C42 C41 C40 120.0(8)
C42 C41 H41 120.0
C41 C42 H42 120.2
C41 C42 C43 119.7(8)
C43 C42 H42 120.2
C38 C43 C42 121.4(8)
C38 C43 H43 119.3
C42 C43 H43 119.3
C45 C44 S2 120.2(5)
C45 C44 C49 120.1(7)
C49 C44 S2 119.6(6)
C44 C45 H45 120.0
C44 C45 C46 120.0(7)
C46 C45 H45 120.0
C45 C46 H46 119.5
C45 C46 C47 120.9(8)
C47 C46 H46 119.5
C46 C47 C50 120.4(8)
C48 C47 C46 118.0(8)
C48 C47 C50 121.6(8)
C47 C48 H48 119.3
C47 C48 C49 121.5(7)
C49 C48 H48 119.3
C44 C49 C48 119.4(8)
C44 C49 H49 120.3
C48 C49 H49 120.3
C47 C50 H50A 109.5
C47 C50 H50B 109.5
C47 C50 H50C 109.5
H50A C50 H50B 109.5
H50A C50 H50C 109.5
H50B C50 H50C 109.5
loop_
_geom_bond_atom_site_label_1
_geom_bond_atom_site_label_2
_geom_bond_distance
S1 O1 1.429(4)
S1 O2 1.440(5)
S1 N1 1.665(5)
S1 C19 1.763(7)
O3 C9 1.237(9)
N1 C1 1.432(7)
N1 C12 1.525(7)
C1 C2 1.381(8)
C1 C6 1.389(8)
C2 H2 0.9300
C2 C3 1.380(8)
C3 H3 0.9300
C3 C4 1.378(9)
C4 H4 0.9300
C4 C5 1.394(9)
C5 H5 0.9300
C5 C6 1.384(7)
C6 C7 1.507(8)
C7 H7 0.9800
C7 C8 1.525(9)
C7 C12 1.560(8)
C8 H8A 0.9700
C8 H8B 0.9700
C8 C9 1.482(10)
C9 C10 1.462(9)
C10 H10 0.9300
C10 C11 1.324(9)
C11 H11 0.9300
C11 C12 1.508(8)
C12 C13 1.509(8)
C13 C15 1.388(9)
C13 C18 1.389(8)
C14 H14 0.9300
C14 C15 1.384(9)
C14 C16 1.370(9)
C15 H15 0.9300
C16 H16 0.9300
C16 C17 1.362(10)
C17 H17 0.9300
C17 C18 1.385(9)
C18 H18 0.9300
C19 C20 1.367(9)
C19 C24 1.370(9)
C20 H20 0.9300
C20 C21 1.379(10)
C21 H21 0.9300
C21 C22 1.386(10)
C22 C23 1.377(10)
C22 C25 1.508(10)
C23 H23 0.9300
C23 C24 1.385(10)
C24 H24 0.9300
C25 H25A 0.9600
C25 H25B 0.9600
C25 H25C 0.9600
S2 O4 1.435(5)
S2 O5 1.437(4)
S2 N2 1.659(5)
S2 C44 1.766(7)
O6 C34 1.214(7)
N2 C26 1.432(7)
N2 C37 1.517(7)
C26 C27 1.379(8)
C26 C31 1.382(7)
C27 H27 0.9300
C27 C28 1.390(9)
C28 H28 0.9300
C28 C29 1.383(9)
C29 H29 0.9300
C29 C30 1.376(9)
C30 H30 0.9300
C30 C31 1.380(8)
C31 C33 1.511(8)
C32 H32A 0.9700
C32 H32B 0.9700
C32 C33 1.528(8)
C32 C34 1.503(9)
C33 H33 0.9800
C33 C37 1.551(8)
C34 C35 1.463(8)
C35 H35 0.9300
C35 C36 1.325(9)
C36 H36 0.9300
C36 C37 1.519(8)
C37 C38 1.513(8)
C38 C39 1.376(10)
C38 C43 1.376(9)
C39 H39 0.9300
C39 C40 1.389(10)
C40 H40 0.9300
C40 C41 1.374(11)
C41 H41 0.9300
C41 C42 1.352(11)
C42 H42 0.9300
C42 C43 1.393(9)
C43 H43 0.9300
C44 C45 1.367(9)
C44 C49 1.368(9)
C45 H45 0.9300
C45 C46 1.377(9)
C46 H46 0.9300
C46 C47 1.379(10)
C47 C48 1.372(11)
C47 C50 1.518(10)
C48 H48 0.9300
C48 C49 1.382(10)
C49 H49 0.9300
C50 H50A 0.9600
C50 H50B 0.9600
C50 H50C 0.9600
loop_
_geom_torsion_atom_site_label_1
_geom_torsion_atom_site_label_2
_geom_torsion_atom_site_label_3
_geom_torsion_atom_site_label_4
_geom_torsion
S1 N1 C1 C2 -16.8(10)
S1 N1 C1 C6 165.0(4)
S1 N1 C12 C7 -175.1(4)
S1 N1 C12 C11 -59.3(6)
S1 N1 C12 C13 66.7(6)
S1 C19 C20 C21 -172.6(6)
S1 C19 C24 C23 174.5(5)
O1 S1 N1 C1 -168.6(5)
O1 S1 N1 C12 -27.5(5)
O1 S1 C19 C20 105.9(6)
O1 S1 C19 C24 -68.9(6)
O2 S1 N1 C1 -38.8(6)
O2 S1 N1 C12 102.4(5)
O2 S1 C19 C20 -24.7(7)
O2 S1 C19 C24 160.6(6)
O3 C9 C10 C11 174.2(7)
N1 S1 C19 C20 -141.6(6)
N1 S1 C19 C24 43.7(6)
N1 C1 C2 C3 -177.7(6)
N1 C1 C6 C5 177.1(6)
N1 C1 C6 C7 0.5(7)
N1 C12 C13 C15 50.6(8)
N1 C12 C13 C18 -133.2(6)
C1 N1 C12 C7 -29.8(6)
C1 N1 C12 C11 86.0(6)
C1 N1 C12 C13 -148.1(5)
C1 C2 C3 C4 0.8(10)
C1 C6 C7 C8 -142.5(6)
C1 C6 C7 C12 -19.4(7)
C2 C1 C6 C5 -1.3(10)
C2 C1 C6 C7 -177.8(6)
C2 C3 C4 C5 -0.9(11)
C3 C4 C5 C6 -0.2(10)
C4 C5 C6 C1 1.2(10)
C4 C5 C6 C7 176.9(7)
C5 C6 C7 C8 41.4(10)
C5 C6 C7 C12 164.5(6)
C6 C1 C2 C3 0.3(10)
C6 C7 C8 C9 66.4(7)
C6 C7 C12 N1 28.6(6)
C6 C7 C12 C11 -84.8(6)
C6 C7 C12 C13 148.5(6)
C7 C8 C9 O3 -147.0(7)
C7 C8 C9 C10 36.1(9)
C7 C12 C13 C15 -60.8(8)
C7 C12 C13 C18 115.4(6)
C8 C7 C12 N1 153.4(6)
C8 C7 C12 C11 39.9(8)
C8 C7 C12 C13 -86.8(7)
C8 C9 C10 C11 -8.9(10)
C9 C10 C11 C12 -2.3(11)
C10 C11 C12 N1 -122.2(7)
C10 C11 C12 C7 -13.9(9)
C10 C11 C12 C13 111.7(7)
C11 C12 C13 C15 173.7(6)
C11 C12 C13 C18 -10.1(9)
C12 N1 C1 C2 -162.3(7)
C12 N1 C1 C6 19.5(7)
C12 C7 C8 C9 -51.9(8)
C12 C13 C15 C14 176.7(6)
C12 C13 C18 C17 -176.1(6)
C14 C16 C17 C18 -0.3(12)
C15 C13 C18 C17 0.2(10)
C15 C14 C16 C17 0.9(11)
C16 C14 C15 C13 -0.9(11)
C16 C17 C18 C13 -0.3(11)
C18 C13 C15 C14 0.3(10)
C19 S1 N1 C1 75.7(5)
C19 S1 N1 C12 -143.1(5)
C19 C20 C21 C22 -3.1(13)
C20 C19 C24 C23 -0.2(11)
C20 C21 C22 C23 1.6(12)
C20 C21 C22 C25 177.0(8)
C21 C22 C23 C24 0.5(12)
C22 C23 C24 C19 -1.3(12)
C24 C19 C20 C21 2.3(12)
C25 C22 C23 C24 -174.9(7)
S2 N2 C26 C27 -13.4(10)
S2 N2 C26 C31 169.0(4)
S2 N2 C37 C33 178.7(4)
S2 N2 C37 C36 -66.4(6)
S2 N2 C37 C38 60.1(7)
S2 C44 C45 C46 179.4(6)
S2 C44 C49 C48 179.7(6)
O4 S2 N2 C26 -156.0(5)
O4 S2 N2 C37 -3.3(6)
O4 S2 C44 C45 161.4(5)
O4 S2 C44 C49 -18.0(6)
O5 S2 N2 C26 -25.8(6)
O5 S2 N2 C37 126.8(5)
O5 S2 C44 C45 30.1(6)
O5 S2 C44 C49 -149.2(5)
O6 C34 C35 C36 173.7(7)
N2 S2 C44 C45 -85.0(6)
N2 S2 C44 C49 95.7(6)
N2 C26 C27 C28 -179.8(6)
N2 C26 C31 C30 -178.7(6)
N2 C26 C31 C33 5.5(7)
N2 C37 C38 C39 44.5(8)
N2 C37 C38 C43 -139.9(6)
C26 N2 C37 C33 -25.1(6)
C26 N2 C37 C36 89.8(6)
C26 N2 C37 C38 -143.7(5)
C26 C27 C28 C29 -0.1(10)
C26 C31 C33 C32 -144.7(6)
C26 C31 C33 C37 -21.0(7)
C27 C26 C31 C30 3.5(10)
C27 C26 C31 C33 -172.3(6)
C27 C28 C29 C30 1.7(11)
C28 C29 C30 C31 -0.7(11)
C29 C30 C31 C26 -1.8(10)
C29 C30 C31 C33 173.0(7)
C30 C31 C33 C32 40.1(10)
C30 C31 C33 C37 163.7(7)
C31 C26 C27 C28 -2.4(10)
C31 C33 C37 N2 26.7(6)
C31 C33 C37 C36 -86.1(6)
C31 C33 C37 C38 147.1(6)
C32 C33 C37 N2 152.5(5)
C32 C33 C37 C36 39.7(7)
C32 C33 C37 C38 -87.1(7)
C32 C34 C35 C36 -9.2(9)
C33 C32 C34 O6 -143.7(6)
C33 C32 C34 C35 39.2(8)
C33 C37 C38 C39 -68.4(7)
C33 C37 C38 C43 107.2(7)
C34 C32 C33 C31 63.1(7)
C34 C32 C33 C37 -55.4(7)
C34 C35 C36 C37 -5.6(10)
C35 C36 C37 N2 -119.3(7)
C35 C36 C37 C33 -10.3(9)
C35 C36 C37 C38 114.7(7)
C36 C37 C38 C39 167.3(6)
C36 C37 C38 C43 -17.2(8)
C37 N2 C26 C27 -169.3(7)
C37 N2 C26 C31 13.1(7)
C37 C38 C39 C40 176.2(6)
C37 C38 C43 C42 -175.6(6)
C38 C39 C40 C41 -0.6(12)
C39 C38 C43 C42 0.0(11)
C39 C40 C41 C42 0.0(13)
C40 C41 C42 C43 0.5(13)
C41 C42 C43 C38 -0.6(12)
C43 C38 C39 C40 0.5(10)
C44 S2 N2 C26 89.0(5)
C44 S2 N2 C37 -118.3(5)
C44 C45 C46 C47 1.4(12)
C45 C44 C49 C48 0.4(11)
C45 C46 C47 C48 -0.7(12)
C45 C46 C47 C50 179.1(7)
C46 C47 C48 C49 -0.2(12)
C47 C48 C49 C44 0.3(12)
C49 C44 C45 C46 -1.3(11)
C50 C47 C48 C49 -179.9(7)
loop_
_refln_index_h
_refln_index_k
_refln_index_l
_refln_F_squared_meas
_refln_F_squared_sigma
_refln_scale_group_code
0 0 4 183870 1996.93 2
0 0 5 93.6642 69.9704 2
0 0 -5 76.1731 38.6804 2
0 0 6 156036 2256.25 2
0 0 -6 159360 2314.9 2
0 0 -7 397.046 146.364 2
0 0 7 362.225 148.415 2
0 0 8 40305.9 1319.79 2
0 0 -8 39614.5 1317.55 2
0 0 -9 108.266 103.468 2
0 0 9 57.269 75.6073 2
0 0 -10 31410.4 1305.53 2
0 0 10 31568.1 1306.88 2
0 0 11 452.381 186.072 2
0 0 12 19796.2 1109.71 2
0 0 13 2288.52 609.447 1
0 0 13 1994.49 403.001 2
0 0 14 42324.1 2366.4 1
0 0 14 43157.6 1767.57 2
0 0 15 2544.39 680.503 1
0 0 15 1538.72 396.084 2
0 0 16 85356.4 3550.84 1
0 0 16 81697 2608.47 2
0 0 17 1275.3 572.018 1
0 0 17 618.812 254.879 2
0 0 18 6693.43 1065.79 1
0 0 18 5098.54 682.167 2
0 0 19 709.405 299.168 2
0 0 19 1596.73 644.434 1
0 0 20 2170.8 679.995 1
0 0 20 1543.55 398.861 2
0 0 21 1391.96 589.893 1
0 0 22 11132.4 1533.98 1
0 0 23 816.992 421.102 1
0 0 24 2117.91 673.567 1
0 0 25 241.444 294.055 1
0 0 26 8257.22 1495.3 1
0 0 27 1069.86 602.631 1
0 0 28 -65.9891 203.564 1
0 0 29 250.859 248.105 1
0 0 30 736.956 552.586 1
0 1 -4 30146.1 994.108 1
0 1 4 28880.8 868.838 2
0 -1 4 30948 791.669 2
0 1 -5 260194 3288.55 1
0 1 5 256763 2842.49 2
0 -1 5 262207 2580.44 2
0 -1 6 707225 4666.59 2
0 1 6 687038 5033.45 2
0 -1 -6 670673 5113.43 2
0 1 7 1937.75 345.748 2
0 -1 7 993.112 200.112 2
0 -1 -7 699.688 179.094 2
0 -1 8 179408 2724.87 2
0 1 -8 189718 2741.38 2
0 1 8 173569 2854.44 2
0 -1 -8 188033 3042.69 2
0 -1 9 2053.41 317.722 2
0 -1 -9 2152.77 341.818 2
0 1 -9 2984.75 367.403 2
0 1 9 2156.3 353.881 2
0 1 -10 11.0724 52.402 2
0 -1 10 35.83 74.7579 2
0 1 10 101.911 163.102 2
0 -1 10 96.1712 236.216 1
0 1 11 37523.1 1520.25 2
0 -1 11 38385.8 1464.46 2
0 -1 11 38866.4 1945.31 1
0 -1 12 5975.83 820.645 1
0 1 12 6036.61 636.673 2
0 -1 12 5171.01 563.93 2
0 -1 13 26334.3 1737.02 1
0 1 13 25639.7 1353.27 2
0 -1 13 24243.5 1257.59 2
0 -1 14 4939.56 593.989 2
0 1 14 5806.94 919.502 1
0 1 14 5239.26 640.725 2
0 -1 14 4973.97 821.164 1
0 -1 15 773.724 299.956 1
0 1 15 1079.98 308.666 2
0 1 15 748.009 421.705 1
0 -1 15 1223.31 313.989 2
0 -1 16 8377.18 1115.8 1
0 -1 16 9096.99 842.131 2
0 1 16 7695.28 826.883 2
0 1 16 7522.75 1082.6 1
0 1 17 1567.56 534.9 1
0 -1 17 1914.48 518.917 1
0 1 17 1400.9 369.61 2
0 -1 17 1619.62 369.045 2
0 1 18 5.26844 146.769 2
0 -1 18 33.6341 136.458 2
0 -1 18 49.2554 190.128 1
0 1 19 79.607 152.923 2
0 -1 19 2.86005 99.0989 2
0 -1 19 360.119 303.831 1
0 1 20 510.069 266.571 2
0 -1 20 -248.397 446.412 1
0 1 20 -205.014 361.403 1
0 -1 20 -96.3753 187.134 2
0 -1 21 -78.1248 232.499 1
0 1 21 -166.002 315.454 1
0 1 21 -44.163 185.947 2
0 -1 22 844.036 413.135 1
0 1 22 1909.57 703.764 1
0 1 23 2527.18 800.817 1
0 -1 23 2107.1 647.12 1
0 -1 24 2865.86 799.965 1
0 1 24 1321.72 561.958 1
0 1 25 3812.28 1005.26 1
0 -1 25 4168.1 1001.42 1
0 -1 26 651.232 436.973 1
0 1 26 749.449 451.873 1
0 1 27 2148.46 767.181 1
0 -1 27 1931.26 780.953 1
0 -1 28 250.157 417.761 1
0 1 28 -551.687 430.406 1
0 1 29 166.513 204.723 1
0 2 3 151517 2086.05 2
0 2 4 12837.3 651.913 2
0 2 -4 13896.9 670.114 1
0 2 5 66346.9 1595.69 2
0 2 -5 67840.3 1644.84 1
0 -2 -6 19440 918.128 2
0 2 -6 18456.4 952.293 1
0 2 6 16785 858.664 2
0 2 -7 25426.8 1205.55 1
0 2 7 25622 1104.4 2
0 -2 -7 25657.7 1124.8 2
0 -2 7 22639.5 924.322 2
0 -2 8 54389.9 1505.92 2
0 -2 8 56382.5 1919.59 1
0 2 8 55306.6 1715.25 2
0 -2 -8 54401 1741.62 2
0 2 9 108905 2489.16 2
0 -2 9 111461 2896.86 1
0 -2 9 105070 2200.65 2
0 -2 10 40769.2 1845.19 1
0 2 10 42154.3 1613.68 2
0 -2 10 43397.8 1492.05 2
0 -2 11 26927.6 1227.58 2
0 2 11 29894.9 1418.99 2
0 -2 11 26331.6 1561.27 1
0 -2 12 738.436 218.183 2
0 2 12 169.22 143.442 2
0 -2 12 480.406 246.416 1
0 -2 13 -85.3722 239.92 1
0 2 13 53.1236 112.442 2
0 -2 13 56.3092 87.1561 2
0 -2 14 25.0122 204.87 1
0 -2 14 -53.8753 159.546 2
0 2 14 73.6612 136.88 2
0 -2 15 486.69 209.781 2
0 2 15 497.112 214.127 2
0 -2 15 376.787 281.576 1
0 2 15 665.88 456.838 1
0 -2 16 4660.04 836.472 1
0 2 16 4116.93 862.593 1
0 2 16 3582.71 589.035 2
0 -2 16 2985.31 487.489 2
0 2 17 20761 1419.11 2
0 2 17 19188 1810.71 1
0 -2 17 19447.9 1257.02 2
0 -2 17 18531.6 1668.55 1
0 2 18 1980.12 484.733 2
0 -2 18 1285.68 317.527 2
0 -2 18 809.362 384.887 1
0 2 18 1450.41 621.569 1
0 -2 19 38120.1 2567.82 1
0 2 19 38617.1 2013.62 2
0 2 19 37510.9 2668.23 1
0 -2 19 34774.5 1754.55 2
0 -2 20 737.351 381.276 1
0 2 20 2214.91 665.605 1
0 2 20 989.248 350.922 2
0 -2 21 11541.2 1502.09 1
0 2 21 12877.3 1205.79 2
0 2 21 12663.6 1653.52 1
0 -2 22 2538.34 729.068 1
0 2 22 2785.22 807.077 1
0 2 23 282.32 381.672 1
0 -2 23 370.035 241.558 1
0 -2 24 410.233 371.378 1
0 2 24 333.01 349.137 1
0 -2 25 326.577 368.558 1
0 2 25 -271.15 429.301 1
0 2 26 1496.88 653.991 1
0 -2 26 2293.82 789.783 1
0 2 27 905.58 560.349 1
0 2 28 836.338 560.807 1
0 2 29 -903.191 560.526 1
0 3 -1 11723.3 567.225 2
0 3 -2 7655.75 453.104 2
0 3 2 7793.24 509.023 2
0 3 3 3643.31 371.029 2
0 3 4 16949.6 846.25 2
0 3 -5 17415.1 838.091 1
0 3 5 17272.6 897.942 2
0 3 -6 42206.9 1420.87 1
0 3 6 41281.5 1441.09 2
0 3 7 2945.58 401.593 2
0 3 -7 2841.47 405.753 1
0 -3 8 116815 2738.18 1
0 3 8 121674 2691.38 2
0 -3 9 137273 3175.74 1
0 -3 9 133473 2529.11 2
0 3 9 134986 2929.95 2
0 -3 10 10204.7 936.027 1
0 3 10 11703 904.052 2
0 -3 10 10376.2 742.172 2
0 -3 11 16266.2 1220.32 1
0 -3 11 15113.2 920.604 2
0 3 11 14854.6 1044.41 2
0 3 12 4232.08 580.486 2
0 -3 12 4388.56 679.199 1
0 -3 12 4558 541.434 2
0 -3 13 16318.4 1329.03 1
0 -3 13 17060 1053.84 2
0 3 13 17244.1 1205.43 2
0 -3 14 21780.3 1616.35 1
0 3 14 22989.5 1428.81 2
0 -3 14 22541.4 1256.08 2
0 3 15 12001.4 1067.43 2
0 -3 15 12009.5 1254.61 1
0 -3 15 11921.6 942.33 2
0 -3 16 10605 913.395 2
0 3 16 12481.8 1107.28 2
0 3 16 11380.7 1405.89 1
0 -3 16 10424.8 1261.64 1
0 -3 17 1289.91 366.84 2
0 -3 17 1602.42 626.506 1
0 3 17 1234.61 422.146 2
0 3 17 1740.68 781.561 1
0 -3 18 3916.73 840.947 1
0 3 18 2822.69 582.784 2
0 -3 18 2682.39 498.986 2
0 3 18 4583.41 1057.5 1
0 -3 19 1564.39 410.705 2
0 3 19 3598.5 945.376 1
0 3 19 2478.94 595.285 2
0 -3 19 2229.2 777.58 1
0 3 20 1750.22 683.362 1
0 3 20 607.198 334.374 2
0 -3 20 811.676 445.078 1
0 3 21 5094.89 781.751 2
0 -3 21 4446.78 929.654 1
0 3 21 4031.39 914.078 1
0 3 22 5164.81 1108.91 1
0 -3 22 4835.3 979.729 1
0 -3 23 1067.53 495.082 1
0 3 23 696.931 618.364 1
0 3 24 7370.1 1353.53 1
0 3 25 299.873 388.786 1
0 3 26 3919.92 1069.62 1
0 3 27 208.038 357.738 1
0 3 28 93.7891 324.09 1
0 3 29 505.79 577.144 1
0 4 0 55331.3 1463.52 2
0 4 1 180719 2707.51 2
0 4 -1 178823 2592.42 2
0 4 -2 109662 2001.16 2
0 4 2 110138 2191.52 2
0 4 3 13899 800.025 2
0 -4 4 44889.8 1271.28 2
0 4 4 44160.5 1485.06 2
0 -4 5 32743.6 1090.14 2
0 4 5 31842.9 1318.57 2
0 4 -6 38056.9 1369.4 1
0 4 6 36815.6 1456.39 2
0 4 7 4526.99 530.383 2
0 4 8 11779.8 880.685 2
0 4 9 39004.4 1665.97 2
0 4 10 8449.52 803.285 2
0 -4 11 26565.8 1267.24 2
0 4 11 26831.2 1468.96 2
0 -4 12 10871.3 830.78 2
0 4 12 11883.6 1011.03 2
0 -4 13 23643.9 1259.94 2
0 4 13 21492.9 1387.84 2
0 -4 14 7535.7 746.426 2
0 4 14 6448.92 783.923 2
0 4 15 -105.492 136.805 2
0 -4 15 101.146 125.045 2
0 -4 16 60180.6 2166.29 2
0 4 16 63997.6 2589.06 2
0 4 17 1883.78 473.479 2
0 4 17 1833.35 656.077 1
0 -4 17 1691.8 371.702 2
0 4 18 7629.79 934.089 2
0 4 18 8639.35 1318.85 1
0 -4 18 7704.07 809.583 2
0 -4 19 18824.3 1288.54 2
0 4 19 18026.6 1936.61 1
0 4 19 17374.1 1454.03 2
0 4 20 1386.24 446.006 2
0 4 20 2150.46 744.335 1
0 4 21 528.188 450.93 1
0 4 21 894.455 389.699 2
0 4 22 1347.5 580.124 1
0 4 22 951.815 361.485 2
0 4 23 783.708 697.699 1
0 4 24 4365.12 1073.19 1
0 4 25 2304.59 831.994 1
0 4 26 612.474 429.655 1
0 4 27 -66.14 265.442 1
0 4 28 -963.874 594.518 1
0 4 29 767.436 635.628 1
0 5 0 586.402 222.436 2
0 5 -1 19937.1 974.841 2
0 5 1 17814.3 950.566 2
0 5 2 72681.9 1970.03 2
0 5 -2 71716.4 1817.22 2
0 5 3 14507 904.393 2
0 -5 3 14693.2 802.919 2
0 5 -3 14027.1 800.483 2
0 5 4 9098.57 739.397 2
0 -5 4 8313.87 601.813 2
0 5 5 81.2004 94.8022 2
0 -5 5 30.6496 63.0531 2
0 5 6 3637.16 497.384 2
0 -5 6 3352.09 391.794 2
0 5 7 5754.66 646.185 2
0 -5 7 5703.68 515.198 2
0 5 8 88949.6 2576.45 2
0 5 9 10278.4 904.345 2
0 5 10 12020.9 1003.91 2
0 5 11 6870.98 779.86 2
0 5 12 8470.73 899.946 2
0 -5 12 7336.42 709.66 2
0 -5 13 16136.5 1074.15 2
0 5 13 16145.4 1265.98 2
0 5 14 123.652 220.27 2
0 -5 14 -123.676 145.83 2
0 -5 15 809.874 264.695 2
0 5 15 277.21 227.345 2
0 -5 16 2742.69 486.783 2
0 5 16 2770.35 568.642 2
0 -5 17 12054 1005.46 2
0 5 17 9977.62 1091.47 2
0 5 18 8169.86 1000.6 2
0 -5 18 9089.22 878.007 2
0 5 19 528.356 402.059 1
0 5 19 680.473 309.489 2
0 5 20 2587.1 781.416 1
0 5 20 2460.84 585.887 2
0 5 21 2782.32 620.568 2
0 5 21 3240.14 914.216 1
0 5 22 2617.16 614.474 2
0 5 22 1485.66 618.945 1
0 5 23 804.859 594.306 1
0 5 24 -180.041 282.093 1
0 5 25 549.601 408.177 1
0 5 26 142.712 286.846 1
0 5 27 1366.54 639.451 1
0 5 28 21.7259 263.351 1
0 6 0 125962 2709.44 2
0 6 1 4625.92 529.104 2
0 6 -1 3985.09 488.612 2
0 6 2 19798.2 1116.42 2
0 6 -2 19311.7 1035.83 2
0 6 3 7596.48 713.957 2
0 6 -3 7569.44 663.974 2
0 6 4 2387.21 422.949 2
0 6 5 1668.39 327.752 2
0 6 6 38019 1705.35 2
0 6 7 1028.18 306.64 2
0 6 8 98508.3 2871.88 2
0 6 9 2185.51 517.25 2
0 6 10 13076.7 1103.37 2
0 6 11 35.0332 116.919 2
0 6 12 27742 1683.04 2
0 6 13 19781.7 1461.96 2
0 -6 14 10622.2 928.396 2
0 6 14 9226.71 1016.17 2
0 6 15 10238.7 1096.71 2
0 -6 15 10109.3 913.629 2
0 -6 16 942.85 295.754 2
0 6 16 1550.47 471.274 2
0 -6 17 563.748 233.553 2
0 6 17 515.187 273.898 2
0 -6 18 31626.5 1681.03 2
0 6 18 32649.1 2079.89 2
0 6 19 651.461 333.338 2
0 6 20 2095.05 719.716 1
0 6 20 1344.81 450.24 2
0 6 21 3810.26 946.218 1
0 6 21 5156.34 871.942 2
0 6 22 694.41 321.458 2
0 6 22 460.629 428.115 1
0 6 23 1118.63 554.772 1
0 6 24 351.146 405.211 1
0 6 25 1721.5 758.263 1
0 6 26 -159.367 279.139 1
0 6 27 1988.57 869.829 1
0 6 28 1174.25 701.531 1
0 7 0 6405.97 741.597 2
0 7 -1 -103.832 145.452 2
0 7 1 120.186 146.298 2
0 7 -2 2460.84 403.73 2
0 7 2 3001.77 477.542 2
0 7 3 80516.8 2460.68 2
0 7 -3 76208.1 2233.88 2
0 7 -4 6817.23 664.566 2
0 7 4 8631.2 839.159 2
0 7 5 32178.8 1629.57 2
0 7 6 93611.8 2832.47 2
0 7 7 35434.2 1777.37 2
0 7 8 57217.2 2302.12 2
0 7 9 12568.9 1114.61 2
0 7 10 3158.3 606.248 2
0 7 11 2734.77 553.225 2
0 7 12 14.0863 130.243 2
0 7 13 133.367 147.174 2
0 7 14 2516.61 555.287 2
0 7 15 1646.22 487.019 2
0 -7 15 2009.69 423.621 2
0 7 16 389.719 263.648 2
0 -7 16 366.632 208.38 2
0 -7 17 920.484 296.941 2
0 7 17 1682.66 489.102 2
0 7 18 635.425 401.003 2
0 7 19 670.958 360.027 2
0 7 20 -201.141 121.971 2
0 7 21 1306.88 619.118 1
0 7 21 110.976 179.654 2
0 7 22 1190.03 453.056 2
0 7 22 1066.47 480.828 1
0 7 23 1978.98 737.12 1
0 7 23 3733.91 797.43 2
0 7 24 3371.91 994.981 1
0 7 25 -147.284 313.249 1
0 7 26 119.889 259.573 1
0 7 27 -581.608 473.924 1
0 8 0 115624 3034.25 2
0 8 1 6180.58 714.37 2
0 8 -1 4644.96 596.103 2
0 8 -2 76.3787 83.4138 2
0 8 2 15.7375 196.536 2
0 8 -3 54357.1 2023.89 2
0 8 3 60068.3 2281.66 2
0 8 4 11316.9 1011.11 2
0 8 -4 12074.8 947.928 2
0 8 5 4124.54 626.777 2
0 8 6 19314 1371.16 2
0 8 7 18420.1 1361.92 2
0 8 8 10322 1061.09 2
0 8 9 32283.6 1875.17 2
0 8 10 15560 1329.69 2
0 8 11 1271.09 386.592 2
0 8 12 2809.97 644.048 2
0 8 13 78.9787 152.851 2
0 8 14 729.492 282.45 2
0 8 15 921.535 361.177 2
0 -8 16 1054.32 346.401 2
0 8 16 1243.7 447.249 2
0 8 17 1508.55 499.717 2
0 -8 17 1410.17 405.355 2
0 8 18 4790.83 859.496 2
0 8 19 6271.69 989.606 2
0 8 20 148.802 224.243 2
0 8 21 307.075 203.025 2
0 8 22 -657.493 353.762 2
0 8 22 1217.52 685.013 1
0 8 23 1125.76 740.492 1
0 8 23 491.955 303.574 2
0 8 24 -22.5475 375.394 1
0 8 25 26.921 213.601 1
0 8 26 412.531 491.631 1
0 8 27 1140.89 672.091 1
0 9 0 432.495 247.592 2
0 9 -1 3204.7 541.791 2
0 9 1 4093.97 643.479 2
0 9 2 9090.69 938 2
0 9 -2 10614.2 958.566 2
0 9 3 20370.7 1411.87 2
0 9 -3 20144.1 1321.9 2
0 9 4 69.7218 148.993 2
0 9 -4 78.7001 98.1066 2
0 9 5 31811.9 1829.31 2
0 9 6 14194.3 1244.93 2
0 9 7 1787.51 475.998 2
0 9 8 4132.49 678.253 2
0 9 9 413.502 316.557 2
0 9 10 491.492 307.886 2
0 9 11 17717.2 1502.38 2
0 9 12 441.085 355.195 2
0 9 13 11521.7 1244.26 2
0 9 14 5630.36 894.841 2
0 9 15 1327.64 467.933 2
0 9 16 636.62 332.996 2
0 -9 17 722.152 301.39 2
0 9 17 279.822 240.585 2
0 9 18 1166.79 440.642 2
0 9 19 2025.93 634.217 2
0 9 20 453.57 332.13 2
0 9 21 -82.0159 242.592 2
0 9 22 1898.28 613.419 2
0 9 23 31.0597 458.002 1
0 9 23 552.676 377.768 2
0 9 24 184.257 314.3 1
0 9 25 222.246 271.841 1
0 9 26 8.11753 261.714 1
0 10 0 19049.7 1387.95 2
0 10 -1 1393.34 396.356 2
0 10 1 1631.81 458.163 2
0 10 -2 818.402 305.95 2
0 10 2 487.993 202.519 2
0 10 -3 1719.28 441.059 2
0 10 3 906.612 313.966 2
0 10 4 16986.9 1387.39 2
0 10 -4 18261.6 1318.9 2
0 10 5 2276.8 547.417 2
0 10 6 17897 1456.96 2
0 10 7 3844.33 677.86 2
0 10 8 2711.91 587.205 2
0 10 9 580.052 308.203 2
0 10 10 575.44 302.042 2
0 10 11 2649.76 619.652 2
0 10 12 7296.1 1024.8 2
0 10 13 2968.47 681.826 2
0 10 14 2374.69 600.435 2
0 10 15 14646.6 1515.16 2
0 10 16 2144.28 601.279 2
0 10 17 3069.39 703.866 2
0 10 18 765.07 351.75 2
0 10 19 253.372 228.223 2
0 10 20 -17.6479 140.538 2
0 10 21 786.234 440.501 2
0 10 22 245.852 228.464 2
0 10 23 658.909 630.912 1
0 10 23 311.502 270.202 2
0 10 24 592.731 561.096 1
0 10 25 875.732 668.32 1
0 10 26 -881.993 594.43 1
0 11 0 146.678 222.213 2
0 11 -1 12798.3 1188.52 2
0 11 1 11315.8 1162.93 2
0 11 -2 22515.1 1558.02 2
0 11 2 21515.8 1593.14 2
0 11 3 1080.31 444.598 2
0 11 -3 1168.26 382.098 2
0 11 4 4653.7 780.701 2
0 11 -4 5866.77 796.724 2
0 11 5 7119.45 947.631 2
0 11 6 283.869 278.731 2
0 11 7 626.536 373.106 2
0 11 8 370.911 227.012 2
0 11 9 413.669 222.379 2
0 11 10 1284.19 502.022 2
0 11 11 3961.48 794.45 2
0 11 12 360.053 326.254 2
0 11 13 578.86 304.859 2
0 11 14 11515.6 1369.82 2
0 11 15 4795.59 887.528 2
0 11 16 608.43 328.196 2
0 11 17 -332.529 358.679 2
0 11 18 2631.2 714.044 2
0 11 19 559.355 366.636 2
0 11 20 2764.65 736.064 2
0 11 21 372.986 309.947 2
0 11 22 818.432 452.655 2
0 11 23 246.425 317.695 2
0 11 24 2769.77 998.362 1
0 11 24 4265.17 953.352 2
0 11 25 263.646 386.958 1
0 12 0 256.112 265.926 2
0 12 -1 7636.96 965.686 2
0 12 1 8422.7 1066.96 2
0 12 -2 1988.97 513.374 2
0 12 2 2209.36 570.285 2
0 12 3 1952.15 571.18 2
0 12 -3 1465.2 436.186 2
0 12 -4 7349.57 946.055 2
0 12 4 6293.47 946.67 2
0 12 5 4186.56 755.852 2
0 12 6 2786.73 673.71 2
0 12 7 636.033 444.53 2
0 12 8 5516.65 912.103 2
0 12 9 12647.1 1382.11 2
0 12 10 1927.3 583.78 2
0 12 11 3593.18 766.823 2
0 12 12 13123.8 1475.86 2
0 12 13 5464.39 973.103 2
0 12 14 9085.35 1273.89 2
0 12 15 8498.3 1253.99 2
0 12 16 390.15 323.084 2
0 12 17 402.482 292.931 2
0 12 18 1153.58 502.991 2
0 12 19 1931.5 657.254 2
0 12 20 680.705 320.103 2
0 12 21 -53.7157 178.415 2
0 12 22 -81.5854 208.391 2
0 12 23 -329.258 300.784 2
0 12 24 223.273 368.509 2
0 12 24 1038.63 642.691 1
0 12 25 1774.11 835.016 1
0 13 0 -13.993 160.089 2
0 13 -1 1877.96 523.4 2
0 13 1 1776.01 516.244 2
0 13 2 121.084 228.218 2
0 13 -2 395.373 231.385 2
0 13 -3 800.287 392.446 2
0 13 3 1910.4 647.754 2
0 13 -4 6830.07 944.18 2
0 13 4 7284.55 1052.18 2
0 13 5 405.085 287.858 2
0 13 6 1270.35 492.499 2
0 13 7 4728.45 863.196 2
0 13 8 2007.76 613.581 2
0 13 9 10133.2 1297.1 2
0 13 10 2083.18 574.831 2
0 13 11 608.2 395.609 2
0 13 12 5448.82 978.972 2
0 13 13 3124.73 762.913 2
0 13 14 402.889 309.521 2
0 13 15 -125.324 200.181 2
0 13 16 1473.24 553.887 2
0 13 17 3232.57 810.599 2
0 13 18 -165.007 269.37 2
0 13 19 1518.32 582.44 2
0 13 20 72.7966 217.229 2
0 13 21 3261.88 851.441 2
0 13 22 260.26 298.316 2
0 13 23 1492.84 643.024 2
0 13 24 960.789 486.63 2
0 14 0 2857.53 693.345 2
0 14 1 30.0511 204.82 2
0 14 -1 105.07 206.94 2
0 14 2 1482.61 539.096 2
0 14 -2 2370.45 616.402 2
0 14 -3 1403.21 509.745 2
0 14 3 1745 527.238 2
0 14 4 3613.64 762.075 2
0 14 -4 3325.13 713.857 2
0 14 5 3901.91 827.789 2
0 14 6 531.549 404.459 2
0 14 7 14283.6 1567.03 2
0 14 8 679.792 331.731 2
0 14 9 6736.62 1094.24 2
0 14 10 7596.46 1171.72 2
0 14 11 487.001 386.572 2
0 14 12 7290.91 1183.05 2
0 14 13 147.644 285.095 2
0 14 14 470.622 329.748 2
0 14 15 5090.38 1026.6 2
0 14 16 2535.98 739.138 2
0 14 17 5.94328 232.305 2
0 14 18 211.369 246.484 2
0 14 19 515.697 381.353 2
0 14 20 -123.946 246.956 2
0 14 21 585.573 354.372 2
0 14 22 -60.1818 205.664 2
0 14 23 2031.96 711.791 2
0 14 24 311.821 322.647 2
0 15 0 311.084 303.029 2
0 15 -1 2136.25 608.959 2
0 15 1 2073.72 584.097 2
0 15 -2 6471.02 1001.03 2
0 15 2 6276.08 1045.17 2
0 15 -3 2689.76 659.127 2
0 15 3 2755.83 704.268 2
0 15 4 4903.6 957.399 2
0 15 -4 4487.51 857.109 2
0 15 5 1323.02 542.185 2
0 15 6 3155.92 818.809 2
0 15 7 293.2 237.344 2
0 15 8 141.565 254.872 2
0 15 9 3135.62 758.03 2
0 15 10 424.406 266.495 2
0 15 11 4056.42 866.477 2
0 15 12 7766.37 1286.59 2
0 15 13 727.891 422.209 2
0 15 14 449.581 311.551 2
0 15 15 2066.98 666.309 2
0 15 16 -533.655 383.623 2
0 15 17 667.507 338.768 2
0 15 18 3103.87 863.026 2
0 15 19 1287.83 558.976 2
0 15 20 4763 1070.73 2
0 15 21 283.371 328.332 2
0 15 22 -59.1901 214.532 2
0 15 23 727.821 477.624 2
0 15 24 -956.123 534.125 2
0 16 0 2823.78 645.97 2
0 16 -1 1253.59 499.199 2
0 16 1 442.396 273.949 2
0 16 -2 186.474 199.186 2
0 16 2 284.219 259.991 2
0 16 3 12531.5 1521.94 2
0 16 -3 12740.4 1468.77 2
0 16 4 8104.58 1266.44 2
0 16 -4 6802.06 1075.62 2
0 16 5 11127.7 1476.3 2
0 16 6 8621.57 1286.76 2
0 16 7 37973.6 2708.88 2
0 16 8 1293.75 573.561 2
0 16 9 269.005 259.588 2
0 16 10 969.886 531.105 2
0 16 11 1243.69 590.406 2
0 16 12 6252.13 1171.98 2
0 16 13 4489.41 1002.51 2
0 16 14 2029.83 697.092 2
0 16 15 307.753 268.882 2
0 16 16 -446.717 420.809 2
0 16 17 -271.278 312.692 2
0 16 18 2632.74 822.622 2
0 16 19 644.711 485.422 2
0 16 20 503.304 354.412 2
0 16 21 1381.74 624.175 2
0 16 22 2097.87 817.752 2
0 16 23 2789.68 911.534 2
0 16 24 959.569 581.419 2
0 17 0 489.701 426.921 2
0 17 1 13535.9 1603.54 2
0 17 -1 13383.1 1608.44 2
0 17 -2 776.408 402.767 2
0 17 2 1668.61 642.863 2
0 17 3 228.038 413.899 2
0 17 -3 394.41 318.656 2
0 17 4 324.246 314.407 2
0 17 -4 115.376 192.348 2
0 17 5 9668.53 1401.34 2
0 17 6 1446.49 617.849 2
0 17 7 2281.55 717.296 2
0 17 8 1199.51 572.589 2
0 17 9 520.375 387.898 2
0 17 10 968.774 510.123 2
0 17 11 -134.633 354.007 2
0 17 12 915.763 573.973 2
0 17 13 796.505 529.961 2
0 17 14 1357.35 585.398 2
0 17 15 365.308 241.864 2
0 17 16 -186.92 269.522 2
0 17 17 2092.01 738.595 2
0 17 18 1795.56 714.94 2
0 17 19 -591.132 427.461 2
0 17 20 515.885 417.456 2
0 17 21 292.424 316.243 2
0 17 22 1533.18 710.716 2
0 17 23 1275.78 697.557 2
0 18 0 1104.43 472.586 2
0 18 -1 4021.53 916.573 2
0 18 1 5993.86 1115.6 2
0 18 2 5269.24 1050.54 2
0 18 -2 5535.81 1052.3 2
0 18 3 3502.88 853.701 2
0 18 -3 3841.89 871.599 2
0 18 4 14744.3 1752.71 2
0 18 5 -70.4485 261.168 2
0 18 6 4167.2 1016.15 2
0 18 7 11796.5 1639.8 2
0 18 8 2907.47 889.907 2
0 18 9 5776.76 1176.43 2
0 18 10 3890.32 957.204 2
0 18 11 715.065 481.878 2
0 18 12 9414.26 1523.9 2
0 18 13 2839.25 864.643 2
0 18 14 3503.98 967.178 2
0 18 15 1674.69 658.29 2
0 18 16 878.33 569.806 2
0 18 17 -68.4257 240.053 2
0 18 18 2166.2 762.612 2
0 18 19 292.174 315.693 2
0 18 20 225.584 363.752 2
0 18 21 122.576 235.889 2
0 19 0 832.526 426.553 2
0 19 -1 2370.15 728.458 2
0 19 1 2450.62 754.756 2
0 19 -2 1886.07 627.336 2
0 19 2 1819.36 635.452 2
0 19 -3 785.299 491.604 2
0 19 3 337.838 400.376 2
0 19 4 8809.47 1398.5 2
0 19 5 936.329 585.965 2
0 19 6 1505.18 552.103 2
0 19 7 1598.5 639.044 2
0 19 8 1083.92 504.307 2
0 19 9 -905.213 501.075 2
0 19 10 319.979 323.707 2
0 19 11 391.179 348.85 2
0 19 12 1916.09 723.178 2
0 19 13 388.041 450.048 2
0 19 14 1363.55 616.784 2
0 19 15 362.359 381.908 2
0 19 16 2190.87 829.215 2
0 19 17 61.4926 227.136 2
0 19 18 433.551 371.009 2
0 19 19 1834.7 783.163 2
0 20 0 910.37 494.358 2
0 20 -1 208.712 266.78 2
0 20 1 402.511 339.503 2
0 20 -2 912.213 417.974 2
0 20 2 1856.97 673.351 2
0 20 3 -120.39 347.943 2
0 20 4 -49.6012 276.998 2
0 20 5 1194.37 522.58 2
0 20 6 2504.19 763.437 2
0 20 7 2279.67 775.934 2
0 20 8 1017.5 569.776 2
0 20 9 1048.02 570.087 2
0 20 10 1625.74 703.716 2
0 20 11 -530.706 433.221 2
0 20 12 -94.9322 230.487 2
0 20 13 522.398 468.658 2
0 20 14 1625.45 746.418 2
0 20 15 979.476 601.842 2
0 20 16 1030.82 593.853 2
0 20 17 358.129 348.52 2
0 21 0 669.991 501.593 2
0 21 1 736.247 484.674 2
0 21 -1 1093.64 506.383 2
0 21 -2 919.479 457.893 2
0 21 2 880.684 527.063 2
0 21 3 623.892 513.804 2
0 21 4 -256.381 451.638 2
0 21 5 358.175 489.644 2
0 21 6 277.069 233.117 2
0 21 7 3694.5 1022.28 2
0 21 8 827.559 458.475 2
0 21 9 595.677 574.188 2
0 21 10 1115.97 552.559 2
0 21 11 2328.75 826.355 2
0 21 12 -170.387 353.639 2
0 21 13 -402.341 400.315 2
0 21 14 150.527 284.852 2
0 22 0 725.045 467.548 2
0 22 -1 765.747 502.66 2
0 22 1 -122.721 230.092 2
0 22 2 -261.433 315.177 2
0 22 3 793.834 465.675 2
0 22 4 1267.28 594.741 2
0 22 5 1055 567.403 2
0 22 6 1432.39 679.734 2
0 22 7 211.499 381.646 2
0 22 8 779.501 543.573 2
0 22 9 -741.548 501.793 2
0 22 10 694.746 450.182 2
0 22 11 112.957 357.692 2
0 23 0 379.581 407.262 2
0 23 1 327.034 330.389 2
0 23 2 819.047 475.144 2
0 23 3 271.45 389.478 2
0 23 4 -372.5 382.855 2
0 23 5 256.278 369.097 2
0 23 6 462.551 475.819 2
0 23 7 538.28 379.955 2
0 24 1 -65.6792 237.818 2
0 24 2 4747.22 1232.4 2
1 0 -3 407.006 125.147 1
1 0 3 230.265 97.6308 2
1 0 4 281103 3468.42 2
1 0 -4 278359 3439.39 1
1 0 -5 187570 3072.7 1
1 0 5 184336 2973.19 2
1 0 6 39384.5 1457.39 2
1 0 -6 40975.2 847.364 2
-1 0 6 40065 786.483 2
1 0 -7 2389.7 233.085 2
-1 0 7 2101.68 205.458 2
1 0 7 1408.18 286.264 2
-1 0 -7 2200.69 355.799 2
1 0 8 43774.5 1675.88 2
-1 0 8 44038.9 1024.36 2
1 0 -8 45333.8 1102.05 2
-1 0 9 25382.2 842.53 2
1 0 9 23347.8 1273.64 2
1 0 -9 25193.8 900.434 2
1 0 10 -17.0928 174.737 2
1 0 -10 95.6075 70.9137 2
-1 0 10 2.92901 42.6795 2
1 0 11 619.589 235.633 2
1 0 -11 198.528 97.8453 2
-1 0 11 440.685 127.705 2
1 0 -12 80013.4 1960.95 2
-1 0 12 81134.7 1848.32 2
1 0 13 2012.78 437.142 2
1 0 -13 2576.82 364.045 2
-1 0 13 2767.88 358.29 2
1 0 14 664.967 257.042 2
1 0 14 1396.57 495.556 1
1 0 -14 950.397 233.676 2
-1 0 14 1303.65 261.541 2
-1 0 15 2903.75 400.61 2
1 0 15 2334.04 479.304 2
-1 0 15 2259.37 628.422 1
1 0 15 3733.65 734.8 1
-1 0 16 5099.77 892.458 1
1 0 16 4135.9 804.508 1
1 0 16 3401.85 610.167 2
-1 0 16 4931.64 534.804 2
1 0 17 4584.18 893.057 1
-1 0 17 4353.69 517.278 2
-1 0 17 2643.46 667.726 1
1 0 17 4045.6 683.028 2
-1 0 18 10847.1 1362.39 1
1 0 18 10858 1123.15 2
-1 0 18 11848.5 886.11 2
1 0 18 11340.9 1377.51 1
1 0 19 625.845 296.051 2
1 0 19 26.6298 254.967 1
-1 0 19 368.087 170.342 2
1 0 20 32243 2010.49 2
1 0 20 29286.4 2351.59 1
-1 0 20 30775.2 2468.4 1
-1 0 21 2136.99 629.173 1
1 0 21 1242.76 400.722 2
1 0 21 1474.94 577.452 1
1 0 22 6743.15 946.133 2
-1 0 22 7155.7 1261.42 1
1 0 22 6724.42 1202.97 1
-1 0 23 2245.79 674.979 1
1 0 23 822.159 429.064 1
-1 0 24 -122.964 227.934 1
1 0 24 121.143 330.554 1
-1 0 25 1599.1 647.161 1
1 0 25 844.816 484.485 1
-1 0 26 -626.406 418.229 1
1 0 26 -350.457 342.446 1
1 0 27 553.294 459.276 1
-1 0 27 96.428 282.431 1
1 0 28 76.0132 257.828 1
1 0 29 177.855 366.49 1
1 0 30 -504.721 423.544 1
1 -1 30 409.881 403.862 1
-1 1 29 -473.084 442.544 1
1 -1 29 381.794 375.204 1
-1 1 28 2090.93 813.853 1
1 -1 28 983.795 557.864 1
-1 1 27 -487.046 423.158 1
1 -1 27 48.1889 234.655 1
-1 1 26 -304.378 263.265 1
1 -1 26 91.4344 265.123 1
1 -1 25 1890.06 648.544 1
-1 1 25 4973.93 1161.1 1
1 -1 24 -492.078 405.62 1
-1 1 24 -194.991 229.624 1
1 -1 23 1814.3 623.358 1
-1 1 23 3305.38 893.445 1
-1 1 22 2601.55 793.537 1
1 -1 22 1524.66 602.797 1
-1 1 21 793.803 409.827 1
1 -1 21 1377.88 427.965 2
1 -1 21 1117.71 490.361 1
1 -1 20 1895.93 499.052 2
1 -1 20 730.742 408.47 1
-1 1 20 1526.97 566.56 1
1 -1 19 280.613 233.125 1
1 -1 19 311.139 273.23 2
-1 1 19 -69.6737 344.178 1
-1 1 19 206.501 142.808 2
-1 1 18 369.621 172.524 2
1 -1 18 28.6859 247.126 1
-1 1 18 -82.0242 363.21 1
1 -1 18 226.077 166.22 2
-1 1 17 15339.5 1608.33 1
1 -1 17 16141.8 1338.86 2
1 -1 17 17423.9 1608.88 1
-1 1 17 14522.8 1001.89 2
1 -1 16 4176.63 668.67 2
1 -1 16 3839.24 772.071 1
-1 1 16 3914.14 815.889 1
-1 1 16 4322.48 533.841 2
-1 1 15 12192.4 874.43 2
1 -1 15 11847.4 1271.48 1
1 -1 15 11239.6 1060.39 2
1 -1 14 1846.66 500.985 1
-1 1 14 1312.96 280.668 2
1 -1 14 1878.78 420.767 2
-1 1 13 10153.7 734.194 2
1 -1 13 11587.3 1020.26 2
1 -1 13 12257.8 1158.81 1
1 -1 12 9267.31 992.103 1
1 -1 12 8095.84 822.464 2
-1 1 12 9404 682.808 2
1 1 -11 66190 1527.5 2
1 -1 11 67364.6 2320.51 2
-1 1 11 66990 1731.55 2
1 -1 11 67837.5 2491.84 1
1 -1 10 12348.8 954.31 2
1 1 -10 11687.2 597.683 2
-1 1 10 11910.6 698.684 2
-1 1 9 9568.63 591.75 2
1 -1 9 9724.68 824.356 2
1 1 -9 9360.26 484.702 2
-1 1 8 488.807 129.564 2
1 -1 8 540.69 187.472 2
1 1 -8 540.3 109.811 2
-1 1 7 59588.3 1302.23 2
1 -1 7 60244.6 1853.65 2
1 -1 6 70031.6 1930.39 2
-1 1 6 67600.2 1299.66 2
1 -1 5 57794.6 1642.28 2
1 1 -5 57391.6 1700.33 1
-1 1 5 56164 1121.57 2
1 -1 4 102151 2089.47 2
1 1 -4 110337 2176.41 1
-1 1 4 104861 1452.45 2
-1 1 3 17505.1 578.815 2
1 1 3 17747.4 823.005 2
1 -1 -3 17857 797.386 1
1 -1 -4 103635 1457.84 2
1 1 4 105187 2146.81 2
1 -1 -4 100991 2104.14 1
1 1 5 55547 1663.23 2
1 -1 -5 54757.6 1110.21 2
1 -1 -5 56343.2 1703.95 1
1 -1 -6 71181.5 1370.36 2
1 1 6 69935.1 1960.71 2
1 -1 -7 60731.2 1355.56 2
1 1 7 59159.5 1911.06 2
-1 -1 8 691.376 112.971 2
1 1 8 672.981 217.266 2
1 -1 -8 533.372 142.012 2
-1 -1 9 8899.27 443.318 2
1 1 9 8330.56 785.653 2
1 -1 -9 8750.5 600.644 2
1 -1 -10 12238.4 758.521 2
1 1 10 12638.6 996.433 2
-1 -1 10 12422.9 578.936 2
1 -1 -11 67184.2 1825.85 2
-1 -1 11 65670.2 1456.74 2
1 1 11 67636.7 2366.57 2
1 1 12 6909.1 785.578 2
-1 -1 12 8667.82 557.104 2
1 -1 -12 7278 634.654 2
-1 -1 13 10424.6 647.46 2
1 1 13 8706.32 899.395 2
-1 -1 14 1250.12 241.227 2
1 1 14 1932.73 455.91 2
-1 -1 14 1787.4 513.932 1
-1 -1 15 12182.8 1330.6 1
-1 -1 15 13105.5 793.647 2
1 1 15 12473 1138.87 2
-1 -1 16 3754.26 445.698 2
1 1 16 3938.75 642.954 2
-1 -1 16 4687.92 823.084 1
1 1 16 3996.47 796.083 1
-1 -1 17 15658.2 926.847 2
1 1 17 16096 1349.54 2
-1 -1 17 13002.3 1480.64 1
1 1 17 15713.6 1597.37 1
-1 -1 18 314.712 152.043 2
1 1 18 401.567 226.589 2
1 1 18 -166.53 256.187 1
1 1 19 241.801 209.552 2
-1 -1 19 -54.6303 290.117 1
1 1 19 355.589 470.763 1
-1 -1 20 681.784 360.954 1
1 1 20 1649.15 479.458 2
1 1 20 1372.74 567.908 1
1 1 21 761.391 390.259 1
1 1 21 1323.75 420.65 2
-1 -1 21 1934.95 635.712 1
-1 -1 22 1850.81 646.915 1
1 1 22 1598.36 495.32 2
1 1 22 1307.78 503.627 1
-1 -1 23 2035.1 655.314 1
1 1 23 3552.97 925.387 1
1 1 24 846.522 542.064 1
-1 -1 24 -986.752 522.662 1
1 1 25 5124.31 1176.42 1
1 1 26 632.227 428.922 1
1 1 27 145.936 275.73 1
1 1 28 53.8114 257.949 1
1 1 29 247.498 383.157 1
1 1 30 -359.995 365.514 1
-1 2 29 482.287 522.281 1
1 -2 29 141.11 413.877 1
-1 2 28 -729.189 525.55 1
1 -2 28 63.2566 299.855 1
-1 2 27 -300.796 361.593 1
1 -2 27 -350.929 339.913 1
-1 2 26 -231.921 323.558 1
1 -2 26 282.263 251.894 1
-1 2 25 193.985 253.223 1
1 -2 25 -326.699 391.343 1
-1 2 24 2377.38 798.706 1
1 -2 24 1520.07 612.361 1
-1 2 23 7419.8 1323.62 1
1 -2 23 5870.13 1115.77 1
1 -2 22 3829.27 880.117 1
-1 2 22 2726.62 756.158 1
1 -2 21 3026.81 614.7 2
1 -2 21 3515.69 801.05 1
-1 2 21 3989.54 901.365 1
1 -2 20 5334.19 820.512 2
-1 2 20 4321.67 912.773 1
1 -2 20 6266.67 1069.53 1
-1 2 19 1794.57 620.829 1
-1 2 19 1183.82 324.267 2
1 -2 19 1669.46 441.721 2
1 -2 19 1336.17 495.003 1
1 -2 18 2157.6 503.264 2
-1 2 18 3612.21 855.491 1
1 -2 18 3273.45 740.442 1
-1 2 18 3601.58 541.876 2
1 -2 17 16482.2 1346.48 2
-1 2 17 18088.5 1177.65 2
1 -2 17 17321.3 1600.74 1
-1 2 17 15557.2 1645.87 1
1 -2 16 2612.89 533.673 2
-1 2 16 2689.52 452.524 2
1 -2 16 2583.43 620.705 1
-1 2 16 2277.8 615.819 1
1 -2 15 16991.3 1304.23 2
-1 2 15 15487 1030.57 2
1 -2 15 17052.3 1477.74 1
1 -2 14 8812.01 913.538 2
-1 2 14 10047.3 816.33 2
1 -2 14 8765.01 1049.93 1
-1 2 13 18149.3 1059.99 2
1 -2 13 18507 1299.75 2
1 -2 13 18284.3 1405.46 1
-1 2 12 5695.1 584.388 2
1 -2 12 5658.23 771.074 1
1 -2 12 5277.35 664.876 2
1 -2 11 18326.8 1267.77 1
1 -2 11 19584.7 1254.26 2
-1 2 11 19730.9 1034.77 2
1 -2 10 32091.7 1578.99 1
-1 2 10 33333.7 1278.97 2
1 -2 10 34663.2 1593.93 2
-1 2 9 18387.5 903.547 2
1 -2 9 15768.2 1044.5 2
1 -2 9 16241.3 1056.78 1
1 -2 8 25553.8 1288.93 2
-1 2 8 27151.3 1050.81 2
1 -2 8 27467.1 1282.3 1
-1 2 7 36177.6 1164.84 2
1 -2 7 35883.8 1447.93 2
1 -2 7 38047.4 1395.93 1
-1 2 6 59171.7 1430.17 2
1 -2 6 57347.3 1575.77 1
-1 2 5 25492.3 897.513 2
-1 2 4 259465 2768.06 2
-1 2 3 6000.03 409.855 2
-1 2 2 106082 1721.64 2
1 2 -2 103959 1273.45 2
1 2 3 5225.25 476.074 2
1 2 4 252605 3476.37 2
1 -2 -5 25168.8 898.26 2
1 2 5 26778.5 1206.52 2
1 2 6 59208.5 1876.21 2
1 -2 -6 58600.8 1424.91 2
1 -2 -7 36172.5 1185.91 2
1 2 7 37754.7 1558.89 2
1 2 8 28336.5 1407.64 2
1 -2 -8 28611.8 1113.07 2
-1 -2 8 26489.7 658.785 2
1 -2 -9 14794.2 850.783 2
-1 -2 9 16623.6 580.295 2
1 2 9 16367.7 1118.37 2
1 2 10 32236.7 1611.2 2
1 -2 -10 32834.6 1316.3 2
-1 -2 10 31330.3 871.327 2
-1 -2 11 19320.2 736.675 2
1 2 11 19243.9 1283.36 2
1 2 12 4853.22 681.217 2
-1 -2 12 6072.76 445.484 2
-1 -2 12 6061.13 827.921 1
-1 -2 13 19309.3 1523.73 1
1 2 13 18960.7 1358.99 2
-1 -2 13 18262.6 822.751 2
-1 -2 14 9251.92 612.985 2
-1 -2 14 9851.62 1155.75 1
1 2 14 9155.06 970.958 2
-1 -2 15 15711.8 829.152 2
-1 -2 15 17277.1 1537.97 1
1 2 15 17118.4 1358.23 2
-1 -2 16 3117.02 388.116 2
-1 -2 16 3841.08 773.21 1
1 2 16 2110.87 479.296 2
-1 -2 17 18254 1700.57 1
1 2 17 19536.5 1526.76 2
-1 -2 17 18412.6 972.841 2
-1 -2 18 3766.38 447.626 2
-1 -2 18 4172.25 877.9 1
1 2 18 2761.63 587.766 2
1 2 18 2339.49 729.353 1
-1 -2 19 1144.14 502.592 1
1 2 19 2067.56 507.016 2
1 2 19 516.056 374.608 1
-1 -2 20 4145.38 897.818 1
1 2 20 5106.48 819.922 2
1 2 20 6258.51 1156.21 1
1 2 21 4597.58 819.293 2
1 2 21 4539.67 998.421 1
1 2 22 3745.21 919.597 1
1 2 22 4042.58 773.08 2
1 2 23 8120.3 1409.72 1
1 2 24 2400.15 836.259 1
1 2 25 410.543 398.737 1
1 2 26 537.92 415.044 1
1 2 27 353.113 264.146 1
1 2 28 666.491 531.795 1
1 2 29 263.776 368.101 1
-1 3 29 435.933 380.786 1
-1 3 28 6057.22 1390.1 1
-1 3 27 370.593 475.758 1
1 -3 27 391.134 373.278 1
1 -3 26 1272.23 562.404 1
-1 3 26 604.192 510 1
1 -3 25 109.192 175.456 1
-1 3 25 -0.95347 232.885 1
-1 3 24 2482.88 803.785 1
1 -3 24 332.551 281.012 1
1 -3 23 -739.966 415.383 1
-1 3 23 730.447 506.619 1
-1 3 22 1648.34 608.019 1
1 -3 22 400.656 304.71 1
-1 3 21 582.12 426.487 1
1 -3 21 -106.587 331.236 1
-1 3 20 94.0834 288.734 1
1 -3 20 -115.774 184.072 2
1 -3 20 -13.9289 220.453 1
-1 3 20 -160.17 193.335 2
1 -3 19 1805.51 549.097 1
-1 3 19 1597.87 389.959 2
1 -3 19 1518.64 427.452 2
-1 3 19 1687.74 582.939 1
-1 3 18 215.739 249.955 1
-1 3 18 181.738 100.724 2
1 -3 18 67.2193 150.376 2
1 -3 18 -254.556 283.184 1
1 -3 17 2256.94 579.874 1
-1 3 17 3518.97 552.877 2
-1 3 17 2768.18 706.618 1
1 -3 17 3295.66 605.274 2
-1 3 16 535.238 210.349 2
1 -3 16 569.507 255.987 2
-1 3 16 247.179 298.059 1
1 -3 16 879.205 344.09 1
1 -3 15 2383.37 489.768 2
-1 3 15 2599.93 464.904 2
1 -3 15 2753.66 574.734 1
-1 3 14 7543.94 753.184 2
1 -3 14 7909.62 883.583 2
1 -3 14 8150.21 970.781 1
-1 3 13 10245.1 845.592 2
1 -3 13 9305.07 916.665 2
1 -3 13 11094.2 1075.77 1
-1 3 12 22037.7 1197.72 2
1 -3 12 20701.1 1335.35 2
1 -3 12 20167.7 1381.71 1
1 -3 11 18004.3 1236.51 1
-1 3 11 17272.1 1027.45 2
1 -3 11 17939.5 1205.7 2
-1 3 10 24720.8 1195.21 2
1 -3 10 23307.6 1333.83 2
1 -3 10 26224.1 1392.48 1
1 -3 9 37889.2 1649.42 2
-1 3 9 38543.2 1437.19 2
1 -3 9 40649.6 1626.18 1
-1 3 8 11642.1 771.644 2
1 -3 8 13095.2 867.815 1
1 -3 7 68212.2 1807.86 1
-1 3 7 69173.4 1810.97 2
-1 3 6 3061.35 374.11 2
1 -3 6 2171.99 299.883 1
1 -3 5 231785 2621.96 1
-1 3 5 233503 3113.95 2
-1 3 4 154408 2466.58 2
1 -3 4 156739 1803.34 1
1 3 -4 157038 1686.99 2
-1 3 3 76073.6 1701.07 2
1 3 -3 74528.4 1261.35 2
-1 3 2 357051 3612.09 2
1 3 -2 351443 2912.38 2
-1 3 1 30423.8 1064.27 2
1 3 -1 32092.7 945.412 2
1 3 0 5553.38 424.712 2
1 3 1 31818.5 1096.23 2
1 3 2 348387 3879.4 2
-1 -3 3 79890.4 1298.63 2
1 3 3 78444.2 1941.71 2
-1 -3 4 159050 1686.65 2
1 3 4 157488 2892.3 2
1 3 5 228990 3664.56 2
1 -3 -5 229795 3081.8 2
-1 -3 5 234419 1931.47 2
1 -3 -6 2563.77 337.634 2
-1 -3 6 2364.81 192.871 2
1 3 6 2511.33 434.893 2
1 3 7 73547 2259.08 2
1 -3 -7 69787.9 1821.43 2
-1 -3 7 68015.1 1046.83 2
-1 -3 8 11932.6 458.308 2
-1 -3 8 11612 491.715 2
1 -3 -8 12399.5 795.219 2
1 3 8 14018.2 1032.1 2
1 3 9 38783.3 1744.48 2
-1 -3 9 39847.3 964.565 2
1 3 10 25561.1 1480.22 2
-1 -3 10 23375.6 789.231 2
-1 -3 11 16074.2 687.658 2
1 3 11 17432.8 1257.1 2
-1 -3 12 20703 824.34 2
1 3 12 21128.9 1427.28 2
1 3 13 10919.6 1064.9 2
-1 -3 13 10575.5 617.686 2
1 3 14 7318.97 890.799 2
-1 -3 14 7549.1 539.575 2
-1 -3 15 2992.53 356.863 2
1 3 15 2711.28 540.322 2
-1 -3 16 722.451 180.651 2
1 3 16 649.591 297.699 2
1 3 17 3025.45 622.115 2
-1 -3 17 2414.68 340.251 2
1 3 18 -71.7956 176.889 2
1 3 19 1802.27 496.412 2
1 3 20 432.469 491.386 1
1 3 20 124.503 187.654 2
1 3 21 562.073 504.177 1
1 3 21 643.612 347.662 2
1 3 22 392.34 296.046 2
1 3 22 749.975 484.34 1
1 3 23 152.908 163.153 2
1 3 23 -258.309 370.546 1
1 3 24 1200.22 596.398 1
1 3 25 111.966 307.179 1
1 3 26 1622.22 683.427 1
1 3 27 679.367 514.303 1
1 3 28 3862.16 1140.06 1
1 3 29 504.747 508.166 1
-1 4 28 1259.4 713.79 1
-1 4 27 1049.14 575.515 1
-1 4 26 -49.0988 210.031 1
-1 4 25 427.683 369.005 1
-1 4 24 -201.047 283.837 1
-1 4 23 -173.493 202.19 1
1 -4 23 231.203 256.284 1
1 -4 22 687.773 357.447 1
-1 4 22 1703.91 596.862 1
-1 4 21 3540.18 942.453 1
1 -4 21 6062.21 1065.1 1
-1 4 20 17754.4 1376.22 2
-1 4 20 18536.4 1987.07 1
1 -4 20 17818.7 1733.22 1
1 -4 20 17424.9 1467.61 2
1 -4 19 573.899 288.228 2
1 -4 19 283.017 213.766 1
-1 4 19 -137.882 347.962 1
-1 4 18 7686.09 1218.24 1
1 -4 18 6756.76 884.861 2
-1 4 18 7219.92 856.37 2
1 -4 18 6408.97 981.25 1
-1 4 17 13312.8 1572.26 1
-1 4 17 13769.1 1149.02 2
1 -4 17 13272.8 1363.02 1
1 -4 17 15783.4 1337.17 2
1 -4 16 1724.92 442.981 2
-1 4 16 1651.41 395.721 2
1 -4 16 2033.56 549.963 1
-1 4 16 1063.05 506.768 1
-1 4 15 1472.81 360.431 2
1 -4 15 1544.22 410.739 2
1 -4 15 1807.39 477.196 1
1 -4 14 12831.7 1175.09 1
1 -4 14 10955.7 1029.47 2
-1 4 14 11217.1 957.44 2
-1 4 13 751.803 255.917 2
1 -4 13 699.904 269.656 2
1 -4 13 953.237 369.71 1
1 -4 12 10349.7 962.054 1
-1 4 12 10254.6 866.929 2
1 -4 12 10021.3 942.998 2
1 -4 11 50020.8 2036.16 2
-1 4 11 50922.6 1903.96 2
1 -4 11 49821.6 2006.91 1
1 -4 10 2173.09 404.86 1
-1 4 10 1729.47 345.724 2
-1 4 9 5552.69 596.837 2
1 -4 9 7068.42 667.943 1
-1 4 8 12223.7 863.895 2
1 -4 8 14358.3 882.033 1
-1 4 7 49392.6 1679.42 2
-1 4 6 11242 783.194 2
1 4 -5 104200 1655.9 2
-1 4 5 107493 2355.1 2
-1 4 4 127397 2520.69 2
1 4 -4 127093 1902.34 2
1 4 -3 62563.5 1384.39 2
-1 4 3 66909.4 1782.91 2
1 4 -2 156485 2313.4 2
-1 4 2 164257 2754.81 2
1 4 -1 52834.4 1422.14 2
-1 4 1 54830.6 1606.43 2
1 4 0 11425.9 685.407 2
1 4 1 57977.9 1605.51 2
1 4 2 162352 2850.45 2
-1 -4 2 156786 2308.33 2
-1 -4 3 62411.6 1383.8 2
1 4 3 62973.7 1860.15 2
-1 4 -4 127609 1661.17 1
-1 -4 4 130268 1902.22 2
1 4 4 127701 2777.25 2
-1 4 -5 108189 1780.45 1
-1 -4 5 106501 1657.84 2
1 4 5 104635 2596.6 2
-1 -4 6 11207.8 519.274 2
-1 4 -6 10725.4 638.621 1
1 4 6 11306.3 893.367 2
1 4 7 48877.3 1923.24 2
-1 -4 7 47857.2 1076 2
-1 -4 8 13885.2 574.109 2
1 4 8 14192.7 1059.01 2
-1 -4 9 6378.56 395.534 2
1 4 9 6246.94 733.444 2
1 4 10 3349.09 566.49 2
-1 -4 10 1999.88 253.803 2
-1 -4 10 2302.61 247.08 2
1 4 11 51994.2 2233.26 2
-1 -4 11 51747.8 1319.91 2
-1 -4 12 9855.62 602.7 2
1 4 12 11038.5 1062.27 2
1 4 13 413.754 191.697 2
-1 -4 13 684.634 163.992 2
-1 -4 14 11351.4 680.373 2
1 4 14 12216.2 1162.92 2
1 4 15 1717.21 451.498 2
-1 -4 15 2567.36 338.009 2
-1 -4 16 1373.45 248.405 2
1 4 16 1013.95 344.095 2
-1 -4 17 14641.3 824.121 2
1 4 17 13806.2 1320.53 2
1 4 18 6040.1 902.425 2
1 4 19 1405.28 499.959 2
1 4 20 16257.1 1528.41 2
1 4 21 5183.67 1097.59 1
1 4 21 5046.89 877.63 2
1 4 22 1495.17 489.101 2
1 4 22 1339.79 629.595 1
1 4 23 1058.82 538.484 1
1 4 23 527.701 359.109 2
1 4 24 170.386 337.897 1
1 4 25 418.468 353.93 1
1 4 26 -270.052 409.938 1
1 4 27 771.199 573.322 1
1 4 28 1632.9 720.597 1
1 4 29 1466.41 779.716 1
-1 5 28 -868.763 557.595 1
-1 5 27 10.9526 536.52 1
-1 5 26 -297.576 314.988 1
-1 5 25 219.741 339.084 1
-1 5 24 451.09 287.208 1
-1 5 23 1303.63 575.497 1
-1 5 22 1568.21 622.393 1
-1 5 21 1845.68 480.856 2
-1 5 21 873.153 533.778 1
-1 5 20 584.656 314.002 2
1 -5 20 286.205 214.32 2
-1 5 20 186.681 375.937 1
1 -5 19 1438.38 442.667 2
-1 5 19 1257.01 596.007 1
-1 5 19 868.728 320.288 2
-1 5 18 1990.71 470.15 2
-1 5 18 2099.96 639.981 1
1 -5 18 1387.24 419.145 2
1 -5 17 2534.75 561.666 2
-1 5 17 1534.77 633.171 1
-1 5 17 2135.42 498.356 2
-1 5 16 3602.7 831.999 1
-1 5 16 4602.56 688.5 2
1 -5 16 4042.08 708.134 1
1 -5 16 4532.4 720.125 2
-1 5 15 7927.65 882.957 2
1 -5 15 6899.89 893.28 1
1 -5 15 7477.9 895.221 2
-1 5 15 6758.73 1115.81 1
-1 5 14 802.356 294.401 2
1 -5 14 355.588 209.332 2
-1 5 13 1745.95 397.939 2
1 -5 13 2471.38 483.279 2
-1 5 12 3811.93 571.844 2
1 -5 12 3198.77 539.258 2
-1 5 11 378.991 226.25 2
-1 5 10 44619.3 1868.24 2
-1 5 9 49283.8 1897.72 2
-1 5 8 31697.5 1495.01 2
-1 5 7 14291.6 983.081 2
-1 5 6 56966.9 1910.51 2
1 5 -5 6248.03 479.2 2
-1 5 5 6344.27 627.736 2
-1 5 4 6775.59 636.336 2
1 5 -4 6787.5 512.86 2
-1 5 3 1974.51 350.52 2
1 5 -3 2113.51 301.988 2
-1 5 2 52571.5 1726.19 2
1 5 -2 51911.7 1511.49 2
-1 5 1 17623.5 1000.04 2
1 5 -1 18733.5 923.086 2
-1 5 0 40278.1 1491.74 2
1 5 0 41311 1434.85 2
1 5 1 17670.1 978.038 2
-1 -5 2 53938.4 1518.43 2
1 5 2 53460.8 1765.87 2
1 5 3 2560.53 423.968 2
-1 -5 3 2140.56 289.062 2
-1 -5 4 6532.23 495.187 2
1 5 4 5787.02 617.935 2
-1 -5 5 6959.42 493.234 2
1 5 5 7842.15 765.42 2
-1 5 -5 6625.37 446.029 1
-1 -5 6 55362.8 1382.48 2
-1 5 -6 56817.6 1475.13 1
1 5 6 60576.2 2148.66 2
1 5 7 15710.6 1128.57 2
-1 5 -7 12868.2 771.957 1
-1 -5 7 13168.6 649.128 2
-1 5 -8 28910.3 1250.26 1
1 5 8 29147.6 1588.69 2
-1 -5 8 31815.9 1010.99 2
1 5 9 45886.3 2038.29 2
-1 -5 9 45517.4 1214.62 2
1 5 10 44765.2 2086.37 2
-1 -5 10 43349.6 1191.85 2
-1 -5 11 457.644 119.69 2
1 5 11 767.27 340.651 2
1 5 12 3600.33 625.502 2
-1 -5 12 2958.99 318.967 2
-1 -5 12 2905.38 353.437 2
-1 -5 13 2163.37 307.722 2
1 5 13 2133.98 528.059 2
-1 -5 13 1984.59 267.877 2
1 5 14 1353.32 441.036 2
-1 -5 14 788.783 197.541 2
-1 -5 14 583.545 145.932 2
-1 -5 15 7740 600.85 2
1 5 15 6608.83 935.385 2
-1 -5 16 5001.21 489.357 2
1 5 16 4524.72 775.661 2
1 5 17 1444.67 458.313 2
1 5 18 1793.46 506.007 2
1 5 19 602.888 349.744 2
1 5 20 125.247 224.002 2
1 5 21 1695.93 518.557 2
1 5 22 1655.31 519.083 2
1 5 22 1676.74 653.353 1
1 5 23 1147.05 455.266 2
1 5 23 2162.48 789.296 1
1 5 24 -4.72476 291.93 1
1 5 25 888.524 647.441 1
1 5 26 248.684 322.028 1
1 5 27 6.58029 299.089 1
1 5 28 -419.928 431.343 1
-1 6 28 -10.5793 244.39 1
-1 6 27 354.797 396.2 1
-1 6 26 137.224 411.145 1
-1 6 25 1813.38 766.189 1
-1 6 24 271.108 393.98 1
-1 6 23 3102.88 903.016 1
-1 6 22 1074.15 586.243 1
-1 6 21 2748.53 777.341 1
-1 6 21 2652.91 588.162 2
-1 6 20 18918.9 2073.52 1
-1 6 20 19313.7 1562.33 2
1 -6 19 3307.75 665.006 2
-1 6 19 2236.29 521.116 2
-1 6 19 2432.57 839.395 1
1 -6 18 3294.9 642.044 2
-1 6 18 3389.58 862.011 1
-1 6 18 2202.79 519.937 2
-1 6 17 4325.79 940.694 1
-1 6 17 6398.31 864.187 2
1 -6 17 5438.53 815.828 2
1 -6 16 974.992 335.65 2
-1 6 16 699.18 290.479 2
-1 6 16 1863.82 640.11 1
1 -6 15 23111.8 1593.86 2
-1 6 15 24296.3 1605.5 2
1 -6 14 127.505 112.733 2
-1 6 14 160.45 150.671 2
-1 6 13 2943.43 547.659 2
-1 6 12 7046.84 803.641 2
-1 6 11 7100.82 809.715 2
-1 6 10 14807.2 1139.64 2
-1 6 9 6241.54 715.613 2
-1 6 8 8427.95 832.385 2
-1 6 7 85146.8 2553.62 2
1 6 -6 18988.8 932.121 2
-1 6 6 18853.7 1176.48 2
-1 6 5 32775.8 1535.9 2
1 6 -5 31443.1 1199.12 2
1 6 -4 89725 2076.94 2
-1 6 4 90772.2 2524.31 2
1 6 -3 7804.75 627.335 2
-1 6 3 8886.45 787.347 2
1 6 -2 10887.3 760.783 2
-1 6 2 12308.9 905.261 2
-1 6 1 6579.78 658.161 2
1 6 -1 6242.58 590.145 2
1 6 0 921.492 237.316 2
-1 6 0 481.763 184.512 2
1 6 1 6210.08 630.05 2
-1 6 -1 5511.48 594.621 2
1 6 2 10585.9 844.759 2
-1 -6 3 7541.45 610.566 2
1 6 3 9877.79 837.326 2
1 6 4 89355.5 2584.14 2
-1 -6 4 88950.5 2042.45 2
1 6 5 33292.5 1618.04 2
-1 -6 5 32056.9 1195.23 2
-1 -6 6 17723.2 878.936 2
-1 6 -6 19201 858.376 1
1 6 6 19397.8 1283.33 2
1 6 7 84711.8 2740.86 2
-1 6 -7 81110.3 1935.03 1
-1 -6 7 84512.5 1889.86 2
-1 -6 8 8755.45 594.555 2
-1 6 -8 7726.49 650.553 1
1 6 8 8776.41 912.34 2
-1 -6 9 6748.27 523.747 2
1 6 9 6712.43 837.284 2
-1 -6 10 13678.9 743.122 2
1 6 10 14883.5 1247.74 2
-1 -6 11 6551.7 515.255 2
1 6 11 5821.7 795.209 2
1 6 12 6959.6 886.609 2
-1 -6 12 5661.38 478.029 2
-1 -6 13 1929.75 282.675 2
-1 -6 13 2190.04 340.236 2
1 6 13 2302.3 552.883 2
1 6 14 98.4861 205.174 2
-1 -6 14 238.213 101.47 2
-1 -6 14 91.38 85.5007 2
-1 -6 15 20324.7 1038.76 2
1 6 15 25087.1 1799.18 2
-1 -6 16 1419.41 274.873 2
1 6 16 1379.18 436.18 2
1 6 17 5295.99 862.314 2
1 6 18 2991.89 665.714 2
1 6 19 2778.71 653.905 2
1 6 20 18907.3 1732.75 2
1 6 21 3003.56 716.257 2
1 6 22 808.742 372.312 2
1 6 23 3418.28 989.419 1
1 6 23 3462.66 784.787 2
1 6 24 302.686 247.038 2
1 6 24 1336.32 700.526 1
1 6 25 833.141 623.909 1
1 6 26 590.154 593.358 1
1 6 27 -285.758 366.522 1
1 6 28 96.6256 242.433 1
-1 7 27 720.712 511.944 1
-1 7 26 545.018 479.45 1
-1 7 25 1481.39 713.117 1
-1 7 24 -750.027 517.414 1
-1 7 23 -150.716 277.138 1
-1 7 22 5248.57 1166.76 1
-1 7 21 1822.97 530.035 2
-1 7 21 1252.56 551.332 1
-1 7 20 638.6 344.809 2
-1 7 20 576.233 434.671 1
1 -7 19 1461.03 462.78 2
-1 7 19 726.711 531.844 1
-1 7 19 891.643 385.395 2
-1 7 18 2027.92 523.146 2
1 -7 18 1159.96 419.318 2
-1 7 18 1366.41 584.273 1
-1 7 17 2238.62 738.299 1
1 -7 17 3035.82 629.189 2
-1 7 17 2474.43 549.744 2
1 -7 16 2578.66 547.611 2
-1 7 16 1561.17 448.793 2
-1 7 15 3874.99 681.725 2
1 -7 15 4957.11 751.58 2
-1 7 14 279.116 145.786 2
-1 7 13 463.566 258.341 2
-1 7 12 19665 1435.23 2
-1 7 11 4189 662.441 2
-1 7 10 19984 1393.8 2
-1 7 9 5328.46 714.991 2
-1 7 8 17792.7 1264.31 2
-1 7 7 8401.07 859.776 2
1 7 -6 772.215 212.706 2
-1 7 6 489.554 183.141 2
1 7 -5 2895.07 413.761 2
-1 7 5 3663.01 549.287 2
-1 7 4 1198.2 338.343 2
1 7 -4 1442.37 303.485 2
1 7 -3 1323.21 289.263 2
-1 7 3 1050.58 304.117 2
1 7 -2 8399.95 730.705 2
-1 7 2 9234.47 847.815 2
-1 7 1 21872.4 1283.86 2
1 7 -1 22845.5 1220.71 2
1 7 0 2253.77 391.893 2
-1 7 0 1601.42 343.201 2
-1 7 -1 21351.8 1259.5 2
1 7 1 24005.3 1314.82 2
1 7 2 9252.41 835.683 2
1 7 3 2049.82 432.91 2
1 7 4 1205.27 360.757 2
1 7 5 3157.41 535.299 2
1 7 6 1136.38 342.429 2
-1 7 -7 7927.82 609.408 1
1 7 7 7550.04 858.222 2
1 7 8 17208.6 1321.55 2
-1 7 -8 16456.3 947.575 1
-1 -7 8 15531.8 875.868 2
-1 -7 9 3643.39 429.967 2
1 7 9 4039.52 684.54 2
1 7 10 20630.8 1504.76 2
-1 -7 10 18615.8 951.263 2
-1 -7 11 3997.58 435.09 2
1 7 11 4356.19 702.185 2
-1 -7 12 18238.8 932.151 2
1 7 12 19956.8 1548.14 2
1 7 13 139.345 251.484 2
1 7 14 863.807 379.395 2
1 7 15 4638.87 810.432 2
-1 -7 15 3736.96 477.896 2
1 7 16 1651.9 504.214 2
-1 -7 16 2007.63 346.626 2
1 7 17 2367.74 591.561 2
1 7 18 2601.04 658.708 2
1 7 19 396.655 240.125 2
1 7 20 722.253 406.308 2
1 7 21 1138.96 451.914 2
1 7 22 4194.17 871.304 2
1 7 23 447.215 368.189 2
1 7 24 1272.48 646.31 1
1 7 24 551.198 373.959 2
1 7 25 1693.13 782.392 1
1 7 26 1355.5 692.322 1
1 7 27 -645.695 514.806 1
-1 8 27 977.51 699.507 1
-1 8 26 643.679 474.286 1
-1 8 25 2354.18 913.693 1
-1 8 24 243.79 207.707 1
-1 8 23 1397.75 640.542 1
-1 8 22 4023.38 806.566 2
-1 8 22 5037.03 1173.86 1
-1 8 21 2841.56 889.755 1
-1 8 21 2521.03 638.483 2
-1 8 20 2566.56 811.604 1
-1 8 20 2175.92 593.605 2
-1 8 19 134.355 289.976 1
-1 8 19 687.611 374.359 2
1 -8 18 877.532 356.073 2
-1 8 18 2000.07 547.536 2
-1 8 18 1566.48 663.694 1
-1 8 17 6649.93 961.613 2
1 -8 17 7010.97 956.783 2
1 -8 16 2117.72 528.793 2
-1 8 16 2538.1 613.712 2
-1 8 15 8369.98 1041.17 2
-1 8 14 1722.43 442.056 2
-1 8 13 3006.47 609.785 2
-1 8 12 1867.53 469.558 2
-1 8 11 7153.6 904.688 2
-1 8 10 2713.21 571.838 2
-1 8 9 9791.02 1026.83 2
-1 8 8 18635.9 1382.01 2
-1 8 7 11096.3 1041.42 2
1 8 -6 1738.59 340.245 2
-1 8 6 1773.8 425.157 2
1 8 -5 2985.78 448.911 2
-1 8 5 3045.6 521.133 2
1 8 -4 19313.6 1161.24 2
-1 8 4 19522.1 1333.43 2
-1 8 3 2286.29 474.093 2
1 8 -3 3114.17 471.618 2
-1 8 2 7457 822.977 2
1 8 -2 8252.31 774.021 2
-1 8 1 10466.9 949.405 2
1 8 -1 11179.8 917.151 2
1 8 0 3353.81 520.326 2
-1 8 0 3865.39 591.295 2
-1 8 -1 9290.15 884.171 2
1 8 1 10414 938.74 2
1 8 2 8444.89 846.78 2
1 8 3 2562.34 448.431 2
1 8 4 21568.6 1414.48 2
1 8 5 3828.64 609.236 2
1 8 6 1580.68 406.416 2
-1 8 -7 11793.4 767.401 1
1 8 7 12821.1 1174.99 2
1 8 8 17359.3 1392.46 2
-1 8 -8 15864.2 948.143 1
1 8 9 11110.9 1138.09 2
1 8 10 2745.27 586.802 2
1 8 11 6255.94 896.907 2
1 8 12 1421.03 436.188 2
1 8 13 2462.83 578.408 2
1 8 14 1912.09 549.915 2
1 8 15 10285.3 1226.54 2
1 8 16 1978.57 569.409 2
1 8 17 7933.3 1128.16 2
1 8 18 1572.89 513.597 2
1 8 19 9.38368 243.388 2
1 8 20 3120.92 741.635 2
1 8 21 2281.53 652.71 2
1 8 22 4360.32 891.581 2
1 8 23 712.128 358.855 2
1 8 24 234.995 233.109 2
1 8 25 4542.5 1206.24 1
1 8 26 500.81 421.362 1
1 8 27 349.673 380.6 1
-1 9 26 328.594 443.944 1
-1 9 25 468.517 538.101 1
-1 9 24 -265.08 395.643 1
-1 9 23 971.641 489.753 1
-1 9 22 751.384 358.702 2
-1 9 22 739.168 477.994 1
-1 9 21 1151.57 450.05 2
-1 9 21 1248.79 590.963 1
-1 9 20 868.477 412.595 2
-1 9 20 1849.94 735.485 1
-1 9 19 130.389 373.708 1
-1 9 19 235.974 255.234 2
1 -9 18 691.695 320.553 2
-1 9 18 218.733 189.321 2
-1 9 17 7009.47 1021.18 2
1 -9 17 4997.02 829.498 2
-1 9 16 13171.4 1382.1 2
-1 9 15 4163.13 763.323 2
-1 9 14 6249.9 932.212 2
-1 9 13 745.816 374.768 2
-1 9 12 7476.88 972.489 2
-1 9 11 5091.56 803.458 2
-1 9 10 2108.28 505.082 2
-1 9 9 2543.32 562.549 2
-1 9 8 8150.5 963.799 2
-1 9 7 8005.93 954.265 2
1 9 -6 37139.2 1676.19 2
-1 9 6 36659.3 1981.4 2
1 9 -5 14626.5 1060.22 2
-1 9 5 15153.9 1271.62 2
-1 9 4 991.606 363.685 2
1 9 -4 451.572 180.368 2
1 9 -3 268.233 168.321 2
-1 9 3 277.888 231.216 2
-1 9 2 12981.2 1142.22 2
1 9 -2 13084.9 1057.89 2
1 9 -1 4540.06 633.819 2
-1 9 1 3067.52 564.058 2
1 9 0 2076.63 443.592 2
-1 9 0 2034.74 474.213 2
1 9 1 4536.93 634.275 2
-1 9 -1 4550.44 658.571 2
1 9 2 13440.8 1140.6 2
1 9 3 549.231 282.898 2
1 9 4 424.342 227.95 2
1 9 5 15330.4 1303.24 2
1 9 6 37620.8 2045.74 2
1 9 7 9804.81 1080.22 2
1 9 8 7577.98 961.761 2
1 9 9 1666.99 482.512 2
1 9 10 2078.59 562.988 2
1 9 11 4803.21 815.825 2
1 9 12 7501.04 1019.05 2
1 9 13 908.635 372.475 2
1 9 14 6505.18 984.951 2
1 9 15 4568.18 864.808 2
1 9 16 14689.4 1537.8 2
1 9 17 6323.03 1039.98 2
1 9 18 193.487 194.608 2
1 9 19 512.999 319.053 2
1 9 20 994.593 427.373 2
1 9 21 464.518 339.401 2
1 9 22 87.1988 214.358 2
1 9 23 772.057 346.843 2
1 9 24 -758.649 410.228 2
1 9 25 3207.54 1056.78 1
1 9 26 1334.51 839.742 1
-1 10 26 204.8 385.667 1
-1 10 25 1358.85 560.136 1
-1 10 24 1415.85 678.297 1
-1 10 23 123.994 406.124 1
-1 10 22 1987.44 792.17 1
-1 10 22 1448.84 531.268 2
-1 10 21 1477.8 655.098 1
-1 10 21 1063.94 433.065 2
-1 10 20 4764.49 1116.43 1
-1 10 20 4912.27 917.409 2
-1 10 19 31.4411 211.081 2
1 -10 18 327.127 319.574 2
-1 10 18 542.584 343.009 2
-1 10 17 1775.49 503.981 2
-1 10 16 2810.16 662.263 2
-1 10 15 1287.99 477.034 2
-1 10 14 5667.53 909.355 2
-1 10 13 12758.3 1340.47 2
-1 10 12 4626.38 805.83 2
-1 10 11 16250.2 1480.62 2
-1 10 10 18389.8 1562.34 2
-1 10 9 10748.1 1171.85 2
-1 10 8 4925.82 791.913 2
-1 10 7 8792.23 1049.02 2
1 10 -7 8710.88 859.089 2
1 10 -6 10723.8 962.309 2
-1 10 6 10871.5 1158.28 2
1 10 -5 13351.9 1076.38 2
-1 10 5 15268.4 1337.1 2
1 10 -4 41999.7 1939.44 2
-1 10 4 42873.2 2228.73 2
1 10 -3 10043.1 969.841 2
-1 10 3 9965.09 1077.67 2
1 10 -2 5208.44 708.645 2
-1 10 2 5763.15 783.19 2
-1 10 1 10246.4 1062.24 2
1 10 -1 11067.7 1031.31 2
-1 10 0 297.837 209.668 2
1 10 0 88.8672 159.23 2
-1 10 -1 10244.7 1056.36 2
1 10 1 11100 1072.22 2
-1 10 -2 5803.44 784.874 2
1 10 2 6140.29 839.19 2
1 10 3 10743.7 1106.11 2
1 10 4 40323.5 2143.4 2
1 10 5 12802.6 1262.22 2
1 10 6 10094.7 1124.46 2
1 10 7 10818 1167.77 2
1 10 8 6622.41 948.468 2
1 10 9 12011.3 1280.27 2
1 10 10 18707.7 1625.88 2
1 10 11 14560.8 1441.26 2
1 10 12 3467.8 726.733 2
1 10 13 13813.9 1467.82 2
1 10 14 6042.25 1013.9 2
1 10 15 1563.04 532.665 2
1 10 16 2141.74 625.699 2
1 10 17 1244.27 477.169 2
1 10 18 15.0977 204.635 2
1 10 19 -62.4605 151.641 2
1 10 20 3690.04 848.434 2
1 10 21 1276.21 513.152 2
1 10 22 1389.25 528.456 2
1 10 23 880.628 454.467 2
1 10 24 448.141 341.735 2
1 10 25 929.218 464.958 2
1 10 26 1175.66 673.66 1
-1 11 25 -108.912 287.553 1
-1 11 24 -81.3797 264.153 1
-1 11 23 -25.502 350.617 1
-1 11 22 563.63 386.542 2
-1 11 22 699.174 523.545 1
-1 11 21 669.741 464.895 1
-1 11 21 3128.75 783.921 2
-1 11 20 -114.3 178.911 2
-1 11 19 262.254 284.976 2
-1 11 18 891.079 421.115 2
-1 11 17 2923.93 687.746 2
-1 11 16 5719.15 982.963 2
-1 11 15 1811.93 562.019 2
-1 11 14 8863.99 1172.86 2
-1 11 13 1406.69 503.131 2
-1 11 12 1104.51 422.978 2
-1 11 11 1598.51 520.613 2
-1 11 10 10821.4 1246.76 2
-1 11 9 -23.7643 304.912 2
-1 11 8 2679.77 615.742 2
-1 11 7 2379.62 597.649 2
1 11 -7 2131.43 463.446 2
-1 11 6 20226.8 1637.71 2
1 11 -6 20618.3 1423.96 2
1 11 -5 3057.43 551.544 2
-1 11 5 2924.27 646.497 2
1 11 -4 9974.99 1004.09 2
-1 11 4 8690.68 1058.04 2
1 11 -3 4706.75 707.419 2
-1 11 3 3753.75 712.611 2
1 11 -2 6074.35 803.54 2
-1 11 2 5611.96 841.851 2
-1 11 1 5928.54 842.445 2
1 11 -1 4903.39 734.172 2
-1 11 0 -62.2197 195.724 2
1 11 0 100.249 153.534 2
-1 11 -1 4708.08 753.493 2
1 11 1 5303.16 776.862 2
-1 11 -2 6161.94 855.604 2
1 11 2 6727.79 906.427 2
1 11 3 3842.76 693.247 2
1 11 4 9674.48 1129.38 2
1 11 5 2601.94 617.2 2
1 11 6 23645.6 1781.29 2
1 11 7 3388.26 721.075 2
1 11 8 3777.66 741.283 2
1 11 9 570.71 283.133 2
1 11 10 13251.7 1434.98 2
1 11 11 441.126 254.069 2
1 11 12 1152.84 433.885 2
1 11 13 49.1885 231.932 2
1 11 14 8822.25 1232.66 2
1 11 15 1741.81 573.166 2
1 11 16 3499.48 793.209 2
1 11 17 2761.54 711.435 2
1 11 18 691.857 415.498 2
1 11 19 37.1343 265.128 2
1 11 20 366.941 320.567 2
1 11 21 3196.9 819.302 2
1 11 22 802.857 397.379 2
1 11 23 163.321 202.604 2
1 11 24 441.745 481.314 2
1 11 25 -23.0767 180.874 2
-1 12 25 401.641 517.983 1
-1 12 24 3634.62 1128.61 1
-1 12 23 2126.17 840.932 1
-1 12 23 2560.49 748.138 2
-1 12 22 518.456 428.605 2
-1 12 22 506.829 544.607 1
-1 12 21 1716.99 603.955 2
-1 12 21 1540.45 688.29 1
-1 12 20 359.997 367.959 2
-1 12 19 115.048 202.464 2
-1 12 18 -11.7195 245.571 2
-1 12 17 1566.5 585.41 2
-1 12 16 2280.9 672.667 2
-1 12 15 2121.3 622.94 2
-1 12 14 5949.9 1003.11 2
-1 12 13 10811.8 1328.41 2
-1 12 12 2857.13 692.273 2
-1 12 11 9825.3 1235.72 2
-1 12 10 13567.3 1445.2 2
-1 12 9 2036.5 581.102 2
-1 12 8 14050.4 1457.59 2
-1 12 7 6031.8 932.583 2
1 12 -7 5545.91 773.97 2
-1 12 6 13727.3 1404.89 2
1 12 -6 14628.4 1262.79 2
1 12 -5 1413.61 413.926 2
-1 12 5 1455.28 466.46 2
1 12 -4 1735.49 465.842 2
-1 12 4 1517.47 496.911 2
-1 12 3 3975.07 791.59 2
1 12 -3 4179.62 695.393 2
-1 12 2 3946.54 733.475 2
1 12 -2 3081.68 602.367 2
-1 12 1 9593.55 1138.18 2
1 12 -1 10513.3 1133.05 2
-1 12 0 795.989 332.803 2
1 12 0 1800.05 502.384 2
-1 12 -1 7351.9 981.834 2
1 12 1 8578.02 1045.87 2
-1 12 -2 2834.31 643.652 2
1 12 2 3168.9 644.93 2
1 12 3 3234.47 686.164 2
1 12 4 1459.7 484.188 2
1 12 5 1155.49 453.793 2
1 12 6 15304.4 1489.08 2
1 12 7 6076.3 956.618 2
1 12 8 16725.8 1596.37 2
1 12 9 1316.12 496.614 2
1 12 10 15225.8 1576.76 2
1 12 11 10355.5 1318.39 2
1 12 12 2996.09 716.755 2
1 12 13 11316.8 1424.79 2
1 12 14 5348.49 1006.71 2
1 12 15 2532.36 731.038 2
1 12 16 2557.35 720.726 2
1 12 17 2014.65 629.804 2
1 12 18 209.637 353.481 2
1 12 19 77.8862 254.137 2
1 12 20 1077.16 448.506 2
1 12 21 1247.14 534.523 2
1 12 22 -43.8198 324.104 2
1 12 23 2902.86 835.958 2
1 12 24 3772.87 951.05 2
1 12 25 -211.504 270.127 2
-1 13 24 1446.58 832.528 1
-1 13 23 -479.985 347.001 2
-1 13 23 519.42 541.529 1
-1 13 22 469.332 448.015 1
-1 13 22 818.485 449.922 2
-1 13 21 1172.05 513.455 2
-1 13 20 979.519 456.349 2
-1 13 19 3103.7 814.689 2
-1 13 18 539.288 320.334 2
-1 13 17 42.2074 261.609 2
-1 13 16 651.528 365.539 2
-1 13 15 2055.32 624.917 2
-1 13 14 1126.88 480.657 2
-1 13 13 1673.1 562.391 2
-1 13 12 3306.46 749.332 2
-1 13 11 3462.61 794.678 2
-1 13 10 102.199 196.962 2
-1 13 9 3076.77 705.634 2
-1 13 8 1423.32 523.031 2
-1 13 7 1418.18 493.563 2
1 13 -7 1548.67 424.392 2
1 13 -6 2446.21 536.287 2
-1 13 6 3295.76 727.465 2
1 13 -5 1050.75 365.409 2
-1 13 5 148.168 237.05 2
1 13 -4 921.932 380.63 2
-1 13 4 1157.22 495.06 2
1 13 -3 4060.12 726.789 2
-1 13 3 3073.28 703.202 2
-1 13 2 1618.32 468.297 2
1 13 -2 2687.3 597.807 2
1 13 -1 709.191 375.533 2
-1 13 1 382.636 230.717 2
-1 13 0 537.727 316.216 2
1 13 0 1146.84 448.848 2
1 13 1 370.644 281.305 2
-1 13 -1 1169.99 408.91 2
1 13 2 1787.31 543.806 2
-1 13 -2 1720.63 529.153 2
1 13 3 2414.04 617.354 2
1 13 4 1595.93 534.509 2
1 13 5 1745.37 506.919 2
1 13 6 1120.73 373.439 2
1 13 7 2167.68 612.051 2
1 13 8 1291.54 427.502 2
1 13 9 3075.64 773.498 2
1 13 10 530.466 336.854 2
1 13 11 4044.94 858.586 2
1 13 12 3504.87 828.479 2
1 13 13 1831.96 644.864 2
1 13 14 462.316 391.577 2
1 13 15 2398.6 694.051 2
1 13 16 62.1015 161.477 2
1 13 17 -131.571 377.481 2
1 13 18 719.528 364.488 2
1 13 19 4490.89 1010.46 2
1 13 20 1646.57 607.75 2
1 13 21 1346.79 583.396 2
1 13 22 621.827 468.28 2
1 13 23 0.86416 263.781 2
1 13 24 4.44155 256.389 2
1 13 25 1954.85 749.361 2
-1 14 23 208.496 496.858 1
-1 14 23 501.19 361.696 2
-1 14 22 1745.12 827.106 1
-1 14 22 1191.96 543.961 2
-1 14 21 326.78 293.58 2
-1 14 20 605.908 424.188 2
-1 14 19 212.907 250.416 2
-1 14 18 225.658 284.552 2
-1 14 17 718.088 411.13 2
-1 14 16 2139.03 667.563 2
-1 14 15 25.6873 191.651 2
-1 14 14 5033.09 997.928 2
-1 14 13 871.278 407.089 2
-1 14 12 599.082 431.293 2
-1 14 11 546.427 351.04 2
-1 14 10 10237.5 1360.36 2
-1 14 9 3210.29 783.06 2
-1 14 8 4304.43 878.727 2
-1 14 7 713.95 439.315 2
1 14 -6 6429.18 936.287 2
-1 14 6 5357.43 959.834 2
1 14 -5 9943.88 1160.79 2
-1 14 5 11895.6 1417.16 2
1 14 -4 500.315 309.484 2
-1 14 4 423.715 340.716 2
-1 14 3 3342.91 724.088 2
1 14 -3 3156.37 652.049 2
1 14 -2 1350.11 471.47 2
-1 14 2 492.267 295.821 2
1 14 -1 3936.65 756.258 2
-1 14 1 3378 733.286 2
1 14 0 36.7239 204.592 2
-1 14 0 116.095 226.096 2
1 14 1 3749.03 762.439 2
-1 14 -1 3229.7 715.532 2
1 14 2 1148.56 464.741 2
-1 14 -2 1562.15 496.437 2
1 14 3 2459.68 642.834 2
1 14 4 216.05 219.297 2
1 14 5 8197.97 1153.49 2
1 14 6 6161.27 1031.19 2
1 14 7 121.267 235.559 2
1 14 8 4186.49 850.583 2
1 14 9 2950.63 756.507 2
1 14 10 8735.79 1272.59 2
1 14 11 1264.51 528.736 2
1 14 12 1267.24 484.807 2
1 14 13 1324.72 562.849 2
1 14 14 5124.16 1023.52 2
1 14 15 -135.537 387.401 2
1 14 16 1577.75 601.86 2
1 14 17 172.707 342.293 2
1 14 18 -116.588 251.878 2
1 14 19 -199.051 202.563 2
1 14 20 43.6355 206.055 2
1 14 21 558.204 410.164 2
1 14 22 385.278 418.286 2
1 14 23 294.556 356.739 2
1 14 24 2276.85 808.966 2
1 14 25 932.17 542.583 2
-1 15 23 319.523 346.086 2
-1 15 23 335.856 477.633 1
-1 15 22 1998.45 843.237 1
-1 15 22 1683.02 680.783 2
-1 15 21 1339.95 605.038 2
-1 15 20 409.319 308.402 2
-1 15 19 110.38 198.85 2
-1 15 18 2654.47 806.918 2
-1 15 17 954.697 441.901 2
-1 15 16 4142.51 967.304 2
-1 15 15 1264.04 513.446 2
-1 15 14 791.601 463.091 2
-1 15 13 74.7914 241.715 2
-1 15 12 1503.7 572.684 2
-1 15 11 754.507 463.295 2
-1 15 10 803.875 429.474 2
-1 15 9 3566.85 858.014 2
-1 15 8 -219.512 321.783 2
-1 15 7 983.186 424.745 2
1 15 -6 368.361 261.205 2
-1 15 6 936.335 500.794 2
1 15 -5 5899 942.567 2
-1 15 5 4765.73 915.761 2
-1 15 4 -224.597 318.298 2
1 15 -4 -103.639 200.206 2
-1 15 3 557.911 391.896 2
1 15 -3 499.866 345.837 2
-1 15 2 8267.98 1196.6 2
1 15 -2 10019.1 1243.14 2
-1 15 1 367.718 201.677 2
1 15 -1 -46.8996 187.023 2
-1 15 0 7005.85 1107.08 2
1 15 0 8092.8 1142.47 2
-1 15 -1 481.676 373.47 2
1 15 1 296.379 306.764 2
1 15 2 8543.67 1192.74 2
1 15 3 210.773 203.903 2
1 15 4 182.654 227.274 2
1 15 5 3982.64 854.312 2
1 15 6 438.508 343.433 2
1 15 7 625.351 310.391 2
1 15 8 -238.703 358.739 2
1 15 9 2781.13 708.665 2
1 15 10 1417.64 547.003 2
1 15 11 1204.67 529.215 2
1 15 12 1587.92 621.521 2
1 15 13 359.616 444.749 2
1 15 14 380.001 325.092 2
1 15 15 1074.65 570.489 2
1 15 16 4355.18 1020.45 2
1 15 17 974.466 529.375 2
1 15 18 4512.81 1040.37 2
1 15 19 556.624 458.25 2
1 15 20 1089.33 585.359 2
1 15 21 250.119 283.47 2
1 15 22 3003.82 934.774 2
1 15 23 335.662 333.673 2
1 15 24 148.089 277.894 2
1 15 25 474.213 398.971 2
-1 16 23 92.3269 294.112 2
-1 16 22 2246.23 795.847 2
-1 16 21 1127.12 616.146 2
-1 16 20 542.244 403.215 2
-1 16 19 -381.319 336.949 2
-1 16 18 1356.75 594.956 2
-1 16 17 -402.78 377.399 2
-1 16 16 2182.47 762.776 2
-1 16 15 29.448 240.703 2
-1 16 14 1408.67 579.893 2
-1 16 13 2727.77 779.317 2
-1 16 12 314.562 348.675 2
-1 16 11 6213.25 1153.64 2
-1 16 10 2376.87 726.498 2
-1 16 9 9736.8 1394.49 2
-1 16 8 9717.66 1428.8 2
-1 16 7 4043.94 899.022 2
1 16 -6 479.004 272.997 2
-1 16 6 1619.82 578.595 2
-1 16 5 11393.1 1451.14 2
1 16 -5 10005 1269.15 2
-1 16 4 621.39 279.785 2
1 16 -4 1174.64 478.707 2
1 16 -3 2321.85 624.735 2
-1 16 3 1295.54 469.387 2
1 16 -2 6914.63 1079.88 2
-1 16 2 7564.69 1178.45 2
1 16 -1 658.83 380.069 2
-1 16 1 135.554 237.803 2
-1 16 0 1440.07 551.309 2
1 16 0 678.716 376.563 2
1 16 1 468.197 316 2
-1 16 -1 230.54 248.287 2
1 16 2 5515.87 1016.34 2
1 16 3 2168.12 665.3 2
1 16 4 534.52 382.938 2
1 16 5 10392.9 1374 2
1 16 6 575.649 382.331 2
1 16 7 2862.21 748.943 2
1 16 8 11597.3 1515.38 2
1 16 9 11357.2 1539.9 2
1 16 10 1808.74 664.611 2
1 16 11 5773.22 1098.71 2
1 16 12 344.582 296.951 2
1 16 13 2005.74 645.695 2
1 16 14 2186.42 709.053 2
1 16 15 312.668 350.875 2
1 16 16 1323.62 582.131 2
1 16 17 273.026 335.443 2
1 16 18 128.563 391.606 2
1 16 19 436.725 416.526 2
1 16 20 1419.46 701.245 2
1 16 21 1658.12 721.277 2
1 16 22 1780.88 736.946 2
1 16 23 -202.205 300.316 2
1 16 24 806.939 568.854 2
-1 17 23 722.297 488.275 2
-1 17 22 1094.59 589.723 2
-1 17 21 1413.09 644.522 2
-1 17 20 572.439 486.894 2
-1 17 19 3640.9 1014.06 2
-1 17 18 348.703 347.342 2
-1 17 17 630.228 365.529 2
-1 17 16 863.773 519.595 2
-1 17 15 405.397 279.736 2
-1 17 14 621.734 390.605 2
-1 17 13 2449.5 778.568 2
-1 17 12 862.79 565.676 2
-1 17 11 1694.63 659.434 2
-1 17 10 1765.28 634.263 2
-1 17 9 884.813 560.247 2
-1 17 8 1941.14 696.606 2
-1 17 7 352.908 332.057 2
-1 17 6 1792.69 617.328 2
1 17 -6 917.94 444.077 2
1 17 -5 1380.31 512.654 2
-1 17 5 512.508 413.7 2
-1 17 4 1959.59 597.766 2
1 17 -4 2563.25 673.781 2
-1 17 3 10095.5 1455.42 2
1 17 -3 7507.74 1138.73 2
-1 17 2 2490.91 707.539 2
1 17 -2 2571.88 661.984 2
-1 17 1 1540.76 536.45 2
1 17 -1 1799.59 587.67 2
1 17 0 275.966 216.82 2
-1 17 0 87.4262 398.877 2
-1 17 -1 1976.03 647.641 2
1 17 1 1377.04 554.959 2
1 17 2 3933.68 876.732 2
1 17 3 7430.89 1218.82 2
1 17 4 1322.64 548.599 2
1 17 5 889.55 495.966 2
1 17 6 1441.4 604.416 2
1 17 7 908.33 496.593 2
1 17 8 256.53 408.217 2
1 17 9 1209.75 552.354 2
1 17 10 2429.75 787.317 2
1 17 11 2184.97 731.818 2
1 17 12 5.66624 196.712 2
1 17 13 1826.88 700.049 2
1 17 14 362.73 307.307 2
1 17 15 754.641 464.877 2
1 17 16 256.011 344.559 2
1 17 17 753.393 508.589 2
1 17 18 283.039 468.654 2
1 17 19 4388.35 1098.15 2
1 17 20 661.657 544.514 2
1 17 21 1615.51 737.398 2
1 17 22 293.374 347.289 2
-1 18 22 -86.6537 262.822 2
-1 18 21 310.086 424.402 2
-1 18 20 1027.87 575.253 2
-1 18 19 -308.475 334.823 2
-1 18 18 1542.62 680.784 2
-1 18 17 938.918 527.789 2
-1 18 16 2746.64 839.872 2
-1 18 15 581.913 430.933 2
-1 18 14 1429.08 640.256 2
-1 18 13 1397.4 527.167 2
-1 18 12 319.304 318.403 2
-1 18 11 -225.172 440.996 2
-1 18 10 5474.51 1133.4 2
-1 18 9 2300.5 721.507 2
-1 18 8 5043.41 1082.55 2
-1 18 7 208.152 329.759 2
-1 18 6 10037.5 1470.81 2
1 18 -6 8086.77 1232.93 2
1 18 -5 -115.889 292.475 2
-1 18 5 460.495 444.42 2
1 18 -4 769.247 462.514 2
-1 18 4 34.6001 192.785 2
1 18 -3 2277.16 688.458 2
-1 18 3 1524.33 567.071 2
1 18 -2 2079.67 632.615 2
-1 18 2 2233.39 715.487 2
1 18 -1 2050.89 645.268 2
-1 18 1 1790.43 620.773 2
-1 18 0 208.21 237.472 2
1 18 0 633.425 434.577 2
1 18 1 1185.5 459.593 2
1 18 2 2467.94 703.451 2
1 18 3 3118.42 811.566 2
1 18 4 58.9431 308.015 2
1 18 5 269.063 297.093 2
1 18 6 6576.47 1200.31 2
1 18 7 30.3089 203.717 2
1 18 8 6039.53 1203.23 2
1 18 9 952.337 536.674 2
1 18 10 4289.17 1023.33 2
1 18 11 750.161 508.866 2
1 18 12 -160.983 222.681 2
1 18 13 1198.47 553.238 2
1 18 14 1765.66 669.749 2
1 18 15 567.05 429.896 2
1 18 16 2711.87 866.219 2
1 18 17 2095.27 778.807 2
1 18 18 1129.12 582.834 2
1 18 19 -628.221 448.864 2
1 18 20 -70.5417 245.258 2
-1 19 19 335.265 452.542 2
-1 19 18 274.786 285.311 2
-1 19 17 924.031 607.978 2
-1 19 16 2576.4 905.187 2
-1 19 15 649.286 534.955 2
-1 19 14 583.431 377.172 2
-1 19 13 64.542 291.142 2
-1 19 12 -99.4433 295.574 2
-1 19 11 1247.69 505.594 2
-1 19 10 1755.49 642.353 2
-1 19 9 -592.611 431.297 2
-1 19 8 1605.71 620.837 2
-1 19 7 1184.37 562.639 2
-1 19 6 2707.44 798.31 2
-1 19 5 619.457 399.743 2
1 19 -5 -108.65 245.094 2
1 19 -4 964.364 458.97 2
-1 19 4 208.583 276.949 2
-1 19 3 867.845 503.879 2
1 19 -3 1447.33 560.024 2
-1 19 2 2305.34 716.611 2
1 19 -2 1343 499.407 2
-1 19 1 732.665 417.276 2
1 19 -1 864.115 438.714 2
1 19 0 5827.71 1137.76 2
-1 19 0 7406.85 1305.37 2
1 19 1 2313.45 740.144 2
1 19 2 944.188 575.426 2
1 19 3 1272.62 566.09 2
1 19 4 813.917 450.158 2
1 19 5 469.329 379.648 2
1 19 6 2815.07 825.495 2
1 19 7 1573.67 707.117 2
1 19 8 866.192 451.807 2
1 19 9 846.472 537.983 2
1 19 10 3056.54 887.423 2
1 19 11 670.645 420.376 2
1 19 12 1134.4 518.574 2
1 19 13 -231.248 395.843 2
1 19 14 852.689 556.69 2
1 19 15 -408.034 365.489 2
1 19 16 1926.31 779.114 2
1 19 17 200.607 241.105 2
1 19 18 458.542 499.547 2
-1 20 17 329.714 274.294 2
-1 20 16 627.562 460.086 2
-1 20 15 367.387 334.692 2
-1 20 14 1182.83 612.183 2
-1 20 13 3107.11 952.972 2
-1 20 12 995.926 529.885 2
-1 20 11 1721.34 664.285 2
-1 20 10 -427.027 402.283 2
-1 20 9 1367.78 616.772 2
-1 20 8 1542.42 623.404 2
-1 20 7 2466.81 770.777 2
-1 20 6 209.447 281.102 2
-1 20 5 764.874 372.026 2
1 20 -5 1227.95 549.473 2
-1 20 4 1412.48 631.662 2
1 20 -4 2191.92 714.939 2
1 20 -3 1658.51 615.696 2
-1 20 3 2827.93 844.394 2
-1 20 2 918.049 506.73 2
1 20 -2 47.574 165.523 2
1 20 -1 221.738 341.57 2
-1 20 1 -67.8163 169.778 2
1 20 0 363.695 185.394 2
1 20 1 449.737 400.941 2
1 20 2 860.477 535.72 2
1 20 3 2097.81 674.396 2
1 20 4 1742.17 724.538 2
1 20 5 317.713 295.83 2
1 20 6 1923.48 716.291 2
1 20 7 1115.49 572.052 2
1 20 8 1367.34 632.152 2
1 20 9 636.023 457 2
1 20 10 1133.94 620.641 2
1 20 11 3692.89 1006.1 2
1 20 12 1309.21 680.487 2
1 20 13 2307.41 787.083 2
1 20 14 1248.77 624.989 2
1 20 15 589.519 466.551 2
1 20 16 48.776 288.886 2
-1 21 14 442.075 428.559 2
-1 21 13 423.141 364.161 2
-1 21 12 -280.453 339.403 2
-1 21 11 176.828 342.134 2
-1 21 10 292.706 299.899 2
-1 21 9 677.915 406.423 2
-1 21 8 523.05 461.95 2
-1 21 7 976.028 537.786 2
-1 21 6 501.122 486.627 2
-1 21 5 133.677 383.667 2
1 21 -4 1026.62 507.446 2
-1 21 4 -89.6391 227.069 2
-1 21 3 1783.93 724.155 2
1 21 -3 2672.11 828.021 2
1 21 -2 1291.7 574.044 2
-1 21 2 1817.9 726.511 2
1 21 -1 1917.41 652.199 2
-1 21 1 627.133 420.264 2
1 21 0 327.875 304.702 2
1 21 1 2572.38 833.281 2
1 21 2 1933.03 763.48 2
1 21 3 2685.72 820.996 2
1 21 4 1294.18 569.365 2
1 21 5 543.755 466.162 2
1 21 6 -112.667 369.199 2
1 21 7 35.0284 245.516 2
1 21 8 -373.849 415.428 2
1 21 9 324.561 415.653 2
1 21 10 600.676 304.8 2
1 21 11 553.221 430.97 2
1 21 12 -244.391 440.867 2
1 21 13 1022.4 532.281 2
-1 22 11 927.642 570.791 2
-1 22 10 1699.43 786.091 2
-1 22 9 -102.377 326.775 2
-1 22 8 2605.53 879.882 2
-1 22 7 1893.93 806.805 2
-1 22 6 350.914 285.621 2
-1 22 5 -557.771 506.082 2
-1 22 4 1788.22 762.931 2
-1 22 3 306.369 425.274 2
1 22 -3 758.212 474.834 2
1 22 -2 25.013 261.524 2
-1 22 2 743.458 467.905 2
1 22 -1 1629.05 654.35 2
1 22 0 522.036 421.928 2
1 22 1 1610.39 672.736 2
1 22 2 254.022 248.7 2
1 22 3 1105.22 556.204 2
1 22 4 661.883 498.678 2
1 22 5 505.977 424.549 2
1 22 6 80.863 227.263 2
1 22 7 556.518 455.632 2
1 22 8 2433.71 837.243 2
1 22 9 1448.04 681.022 2
1 22 10 1576.12 701.136 2
1 22 11 -129.448 309.648 2
-1 23 7 72.699 242.283 2
-1 23 6 609.53 448.46 2
-1 23 5 796.837 530.706 2
-1 23 4 643.156 492.728 2
-1 23 3 1147.91 627.729 2
1 23 -3 759.451 474.82 2
1 23 -2 59.9788 236.339 2
1 23 -1 537.9 461.082 2
1 23 0 857.318 495.64 2
1 23 1 -74.9711 261.524 2
1 23 2 280.532 352.6 2
1 23 3 341.146 312.593 2
1 23 4 675.871 482.734 2
1 23 5 181.892 220.18 2
1 23 6 183.021 371.624 2
1 23 7 517.382 527.163 2
1 24 -2 3.03702 305.75 2
1 24 -1 1644.58 750.176 2
1 24 0 342.422 427.643 2
1 24 1 -386.393 391.073 2
1 24 2 731.751 508.407 2
1 24 3 -289.575 343.108 2
2 0 0 157763 2587.81 2
2 0 1 2500.71 348.464 2
2 0 2 129393 2623.4 2
2 0 3 127660 2714.9 2
2 0 4 5725.76 611.901 2
2 0 5 19528.9 1163.65 2
2 0 -5 21436.6 658.776 2
2 0 -6 18326.1 581.051 2
2 0 6 17471.9 1145.43 2
2 0 7 5489.46 675.769 2
2 0 -7 5896.41 323.191 2
2 0 8 4732.65 637.502 2
2 0 -8 4170.89 282.621 2
2 0 -9 395.333 96.0422 2
2 0 9 640.858 247.868 2
2 0 10 4550.75 673.532 2
2 0 -10 5113.08 358.713 2
-2 0 10 5246.97 338.412 2
2 0 11 716.687 317.07 2
2 0 -11 492.398 117.647 2
-2 0 11 386.758 97.9191 2
2 0 -12 11597.8 605.758 2
2 0 12 13538.9 1226.06 2
-2 0 12 11129.4 546.044 2
-2 0 13 7785.51 483.048 2
2 0 -13 7580.14 515.312 2
2 0 13 7257.59 918.949 2
2 0 14 10459.4 1113.08 2
2 0 -14 9238.63 587.324 2
-2 0 14 9465.37 555.651 2
2 0 15 9703.37 1112.14 2
-2 0 15 10197.5 596.506 2
2 0 -15 8412.98 591.699 2
-2 0 15 11449.1 1312.15 1
2 0 16 17451.2 1514.63 2
-2 0 16 17806.2 1702.27 1
-2 0 16 17472.2 811.977 2
-2 0 17 281.589 184.061 1
-2 0 17 432.451 138.182 2
2 0 17 602.519 318.318 2
2 0 18 3801.34 807.666 1
-2 0 18 3305.2 733.441 1
2 0 18 2995.13 678.153 2
-2 0 19 529.093 326.931 1
2 0 19 793.298 349.405 2
2 0 19 1548.66 597.407 1
2 0 20 6121.91 963.719 2
2 0 20 4632.95 981.074 1
-2 0 20 3788.3 874.047 1
2 0 21 487.014 350.752 2
2 0 21 399.567 414.429 1
-2 0 21 -217.498 308.896 1
2 0 22 5384.26 932.858 2
2 0 22 5709.22 1138.2 1
2 0 23 -162.578 328.426 1
2 0 23 835.722 389.453 2
2 0 24 6212.59 1206.94 1
2 0 25 404.104 351.476 1
2 0 26 211.081 295.856 1
2 0 27 323.14 333.467 1
2 0 28 1740.8 772.047 1
2 0 29 1133.04 598.643 1
2 0 30 -260.19 336.395 1
2 -1 30 89.591 230.392 1
2 -1 29 1603.49 694.98 1
2 -1 28 203.464 356.585 1
2 -1 27 0.93063 237.356 1
2 -1 26 788.363 442.936 1
-2 1 25 -226.164 310.404 1
2 -1 25 7.55723 253.063 1
-2 1 24 224.948 240.995 1
2 -1 24 750.836 465.14 1
2 -1 23 723.425 471.349 1
2 -1 23 118.069 143.847 2
-2 1 23 -114.41 415.897 1
-2 1 22 1498.46 596.397 1
2 -1 22 1223.07 464.261 2
2 -1 22 1748.71 591.14 1
2 -1 21 1537.69 481.836 2
-2 1 21 346.001 231.182 1
2 -1 21 1384.14 541.406 1
-2 1 20 951.995 460.932 1
2 -1 20 901.259 404.323 1
2 -1 20 1069.59 418.414 2
-2 1 19 7604.33 1224.6 1
2 -1 19 7055.17 1026.72 2
2 -1 19 7606.89 1157.5 1
2 -1 18 1982.71 553.465 2
2 -1 18 1725.43 554.765 1
-2 1 18 1683.04 556.409 1
-2 1 17 5939.35 557.79 2
2 -1 17 6902.46 1029.27 1
2 -1 17 6722.56 957.433 2
-2 1 17 6855.33 1102.95 1
-2 1 16 5899.98 989.686 1
2 -1 16 5119.51 811.843 2
-2 1 16 6099.9 547.676 2
2 -1 16 5741.88 937.102 1
-2 1 15 16074.5 868.124 2
-2 1 15 18373 1680.67 1
2 -1 15 18484 1507.34 2
2 -1 14 11412.2 1173.7 2
-2 1 14 8492.3 612.149 2
2 -1 13 10333.6 1088.23 2
-2 1 13 10185.5 639.147 2
2 -1 12 3963.71 679.744 2
-2 1 12 3004.12 335.524 2
-2 1 11 7893.88 531.312 2
2 -1 11 7910.27 918.186 2
-2 1 10 9092 544.409 2
2 -1 10 11100.8 1045.5 2
-2 1 9 616.918 132.535 2
2 -1 9 415.495 275.247 2
-2 1 8 8482.79 496.374 2
2 -1 8 7683.31 821.356 2
2 -1 7 2204.96 436.408 2
2 -1 6 74998.4 2356.71 2
2 -1 5 1898.12 358.558 2
2 -1 4 74465.5 2193.77 2
2 1 -4 76364.8 1264.71 2
2 1 -3 4001.33 331.585 2
2 1 -2 79758.2 1586.37 2
2 1 -1 139745 2267.03 2
2 1 0 51170.7 1481.21 2
2 1 1 136514 2590.25 2
2 1 2 79238.7 2062.83 2
2 1 3 4405.7 501.509 2
2 -1 -3 3898.59 420.816 1
2 1 4 72482.2 2181.99 2
2 -1 -4 75197.9 1987.76 1
2 -1 -5 1730.13 221.632 2
2 1 5 1585.72 332.003 2
2 1 6 72039.6 2350.38 2
2 -1 -6 70542.6 1387.09 2
2 -1 -7 2233.73 247.949 2
2 1 7 1705.34 388.314 2
2 1 8 9279.3 904.483 2
2 -1 -8 8723.3 511.195 2
2 1 9 451.934 153.189 2
2 -1 -9 538.746 136.23 2
2 -1 -10 8612.64 557.121 2
2 1 10 9408.26 960.229 2
2 -1 -11 8498.22 573.252 2
2 1 11 8412.65 950.441 2
2 -1 -12 2678.37 335.988 2
2 1 12 2803.04 544.164 2
2 -1 -13 9587.67 665.937 2
-2 -1 13 9414.54 400.899 2
2 1 13 9235.42 1032.07 2
2 -1 -14 11181.7 756.687 2
-2 -1 14 8976.66 427.286 2
2 1 14 9933.64 1108.94 2
2 1 15 17874.3 1508.68 2
2 -1 -15 16753 947.848 2
-2 -1 15 17096.7 631.528 2
-2 -1 16 4961.83 358.546 2
2 1 16 6156.35 901.94 2
2 1 17 7063.8 994.245 2
2 1 18 1873.57 547.999 2
2 1 19 6830.32 1029.55 2
2 1 20 1619.72 511.641 2
2 1 20 1602.29 639.768 1
2 1 21 885.428 481.884 1
2 1 21 1391.07 469.397 2
2 1 22 829.941 454.967 1
2 1 22 1933.9 581.522 2
2 1 23 359.189 279.902 2
2 1 23 459.348 413.042 1
2 1 24 1322.07 597.019 1
2 1 25 244.3 316.603 1
2 1 26 14.9852 212.436 1
2 1 27 888.176 556.413 1
2 1 28 1.03191 275.609 1
2 1 29 528.079 520.721 1
2 1 30 611.161 518.745 1
2 -2 30 1.05161 195.134 1
2 -2 29 -565.353 431.891 1
2 -2 28 575.514 495.025 1
-2 2 27 190.209 331.621 1
2 -2 27 88.2105 269.255 1
-2 2 26 510.066 474.88 1
2 -2 26 395.613 375.913 1
2 -2 25 536.149 446.606 1
-2 2 25 477.459 310.037 1
2 -2 24 3019.91 860.886 1
-2 2 24 2741.36 858.563 1
2 -2 23 427.223 390.1 1
-2 2 23 1267.87 594.158 1
2 -2 22 4716.31 878.155 2
-2 2 22 2773.84 777.654 1
2 -2 22 5077.2 1034.61 1
-2 2 21 10538.5 1540.26 1
2 -2 21 8413.27 1148.22 2
2 -2 21 8296.08 1230.91 1
-2 2 20 2412.28 733.159 1
2 -2 20 982.102 383.714 1
2 -2 20 2567 652.078 2
-2 2 19 11250.2 1488.31 1
2 -2 19 15513.4 1516.83 2
2 -2 19 11434.4 1377.12 1
2 -2 18 640.286 418.308 1
-2 2 18 424.137 239.419 1
-2 2 18 687.795 224.948 2
2 -2 18 653.477 344.368 2
2 -2 17 4500.3 777.103 2
-2 2 17 4966.88 946.741 1
-2 2 17 4761.03 555.676 2
2 -2 17 5404.74 894.876 1
-2 2 16 2093.28 611.094 1
2 -2 16 2224.29 540.657 2
2 -2 16 1415.93 499.6 1
-2 2 16 2715.13 404.672 2
2 -2 15 4465.96 753.372 2
-2 2 15 4245.91 504.808 2
2 -2 15 4565.01 768.646 1
2 -2 14 4102.99 697.106 1
-2 2 14 3646.59 441.71 2
2 -2 14 4809.86 764.972 2
2 -2 13 8479.2 951.608 1
-2 2 13 9015.97 686.98 2
2 -2 13 9879.74 1070.96 2
-2 2 12 10953.1 728.088 2
2 -2 12 10242.6 1066.55 2
-2 2 11 1643.58 280.978 2
2 -2 11 1558.04 396.604 2
2 -2 10 15000.2 1208.44 2
-2 2 10 15227.7 825.129 2
2 -2 9 10264 981.422 2
-2 2 9 9657.62 636.675 2
-2 2 8 6222.21 496.714 2
2 -2 8 6700.7 765.936 2
-2 2 7 6467.52 500.5 2
2 -2 7 6771.25 745.073 2
2 2 -4 21243.7 661.407 2
2 2 -3 56512.4 1256.83 2
2 2 -2 76259.6 1578.03 2
2 2 -1 15671.7 778.231 2
2 2 0 36286.2 1263.83 2
2 -2 -1 14689.1 660.203 1
2 2 1 15566.8 884.848 2
-2 -2 2 74654.8 1588.46 2
2 2 2 76874.9 2058 2
2 -2 -2 75037.3 1671.41 1
2 2 3 61249.5 1936.48 2
-2 -2 3 62726.2 1308.76 2
2 -2 -3 60846.6 1663.59 1
-2 -2 4 21144 675.328 2
2 -2 -4 21571.4 1068.32 1
2 2 4 21652.5 1204.31 2
2 -2 -4 22503 910.32 2
2 2 5 72441.1 2289.39 2
2 -2 -5 69240.8 1601 2
2 2 6 32910.8 1607.95 2
2 -2 -6 31393.5 1082.35 2
2 2 7 7437.46 792.833 2
2 -2 -7 6504.51 502.787 2
2 2 8 7294.34 829.367 2
2 -2 -8 6488.05 507.477 2
2 2 9 9122.82 937.477 2
2 -2 -9 9131.79 619.913 2
2 2 10 18484.1 1361.67 2
2 -2 -10 16240.4 859.767 2
2 -2 -11 1220.82 246.332 2
2 2 11 1181.33 377.087 2
2 -2 -12 9545.37 702.263 2
2 2 12 10350 1072.23 2
2 2 13 9354.97 1060.69 2
2 2 14 4300.44 724.773 2
2 2 15 3766 697.499 2
2 2 16 2665.41 619.255 2
2 2 17 4885.43 849.32 2
2 2 18 996.362 393.646 2
2 2 19 13739.9 1463.63 2
2 2 20 2257.2 625.13 2
2 2 21 9317.43 1232.71 2
2 2 21 10308.2 1485.29 1
2 2 22 4311.59 1021.86 1
2 2 22 5161.17 946.288 2
2 2 23 1392.13 591.191 1
2 2 23 970.31 463.092 2
2 2 24 2614.55 665.419 2
2 2 24 4622.23 1083.46 1
2 2 25 76.6268 195.113 1
2 2 26 246.756 253.974 1
2 2 27 69.6579 243.042 1
2 2 28 907.857 592.185 1
2 2 29 177.279 269.06 1
2 -3 29 60.7952 255.911 1
2 -3 28 -99.8229 214.892 1
-2 3 28 164.976 302.139 1
2 -3 27 15.9695 166.904 1
-2 3 27 -1.0773 323.539 1
2 -3 26 -642.434 420.048 1
-2 3 26 90.3901 334.766 1
2 -3 25 701.652 445.453 1
-2 3 25 908.448 510.971 1
2 -3 24 1700.23 608.003 1
-2 3 24 2070.9 732.102 1
2 -3 23 3523.24 822.49 1
-2 3 23 3112.56 907.337 1
2 -3 22 1141.76 448.036 2
-2 3 22 1361.15 650.173 1
2 -3 22 1053.32 491.169 1
2 -3 21 299.584 220.634 2
-2 3 21 187.874 254.785 1
2 -3 21 131.52 182.155 1
2 -3 20 149.479 198.771 2
-2 3 20 188.747 209.827 1
2 -3 20 -250.96 309.37 1
-2 3 19 9282.28 1379.79 1
2 -3 19 8242.21 1104.56 2
2 -3 19 7927.91 1127.97 1
2 -3 18 3685.61 720.271 2
2 -3 18 4866.94 850.684 1
-2 3 18 5082.51 625.282 2
-2 3 18 4459.33 908.89 1
2 -3 17 4888.64 834.051 2
2 -3 17 3806.16 735.764 1
-2 3 17 4972.49 603.686 2
-2 3 17 4616.35 937.018 1
2 -3 16 12093.9 1255.91 1
-2 3 16 11582.9 908.876 2
-2 3 16 14281 1575.6 1
2 -3 16 11430.4 1237.33 2
2 -3 15 8269.78 1000.42 1
-2 3 15 9459.03 1244.24 1
-2 3 15 8446.86 768.385 2
2 -3 15 9015.12 1060.97 2
2 -3 14 -95.2896 200.438 2
-2 3 14 558.723 193.697 2
2 -3 14 486.44 296.542 1
2 -3 13 5114.47 722.64 1
-2 3 13 4272.26 516.657 2
2 -3 13 3988.07 692.626 2
2 -3 12 4764.6 716.162 2
2 -3 12 3912.74 591.701 1
-2 3 12 4865.77 545.156 2
2 -3 11 29989.6 1557.16 1
2 -3 11 28266.6 1735.57 2
-2 3 11 28403.5 1271.13 2
2 -3 10 5282.34 623.761 1
-2 3 10 4640.17 500.122 2
2 -3 10 4505.06 681.156 2
2 -3 9 2601.95 513.883 2
-2 3 9 2835.4 387.156 2
-2 3 8 7665.95 622.137 2
-2 3 7 2970.1 384.971 2
-2 3 6 14674.9 843.43 2
-2 3 5 6419.14 552.319 2
2 3 -5 7023.33 354.849 2
2 3 -4 5388.74 358.524 2
-2 3 4 5305.52 537.906 1
-2 3 3 31850.6 1206.25 1
2 3 -3 31601.8 976.756 2
2 3 -2 70431.1 1594.6 2
-2 3 2 69629.4 1604.44 1
2 3 -1 196783 2879.32 2
2 -3 0 3005.84 248.468 1
2 3 0 3249.49 394.501 2
-2 -3 1 193950 2901.24 2
2 3 1 195688 3242.86 2
2 -3 -1 189906 2399.8 1
2 3 2 69493 2031.75 2
2 -3 -2 69799.4 1613.75 1
-2 -3 2 70649.4 1654.88 2
2 -3 -3 33580 1236.72 1
-2 -3 3 30266.2 987.268 2
2 3 3 34622.4 1503.8 2
-2 -3 4 5493.18 383.436 2
2 3 4 4740.68 572.455 2
2 -3 -4 5561.76 509.659 2
-2 -3 5 6487.14 375.31 2
2 -3 -5 6274.41 537.193 2
2 3 5 7628.76 768.688 2
2 3 6 14559.7 1105.63 2
2 -3 -6 14108.2 814.539 2
2 3 7 4121.55 602.752 2
2 -3 -7 4341.21 456.324 2
2 3 8 7418.47 838.725 2
2 -3 -8 7677.51 615.509 2
2 3 9 3459.04 595.601 2
2 3 10 4885.4 718.247 2
2 3 11 31169.3 1855.26 2
2 3 12 4739.72 748.278 2
2 3 13 4065.19 694.521 2
2 3 14 213.183 219.434 2
2 3 15 8264.97 1049 2
2 3 16 11500.8 1271.75 2
2 3 17 4544.64 838.732 2
2 3 18 3605.23 752.79 2
2 3 19 8911.87 1189.32 2
2 3 20 -108.186 192.506 2
2 3 21 131.428 176.77 2
2 3 22 1323.56 581.428 1
2 3 22 1871.41 565.318 2
2 3 23 3698.49 813.214 2
2 3 23 3271.08 952.155 1
2 3 24 1497.57 651.748 1
2 3 24 3492.86 803.912 2
2 3 25 973.109 520.192 1
2 3 26 259.285 380.615 1
2 3 27 124.137 269.344 1
2 3 28 -473.577 428.608 1
2 3 29 95.5598 252.714 1
-2 4 28 269.16 413.314 1
2 -4 27 322.999 357.182 1
-2 4 27 357.862 266.448 1
-2 4 26 380.738 454.136 1
2 -4 26 852.444 483.35 1
-2 4 25 -314.346 343.669 1
2 -4 25 -76.0907 213.777 1
-2 4 24 -35.8955 373.368 1
2 -4 24 -71.2256 223.229 1
-2 4 23 512.185 388.934 1
2 -4 23 290.271 211.439 1
-2 4 22 8262.31 1412.66 1
2 -4 22 8896.05 1294.98 1
2 -4 21 5308.23 915.549 2
2 -4 21 5311.22 966.069 1
-2 4 21 6109.56 1218.66 1
2 -4 20 4558.09 842.306 2
2 -4 20 4439.48 849.933 1
-2 4 20 3287.06 828.873 1
2 -4 19 7004.53 1027.16 2
-2 4 19 7608.78 1254.72 1
-2 4 19 7457.79 825.611 2
2 -4 19 6621.96 1016.29 1
-2 4 18 2920.93 509.96 2
2 -4 18 3205.55 686.733 2
-2 4 18 2578.98 698.705 1
2 -4 18 2475.12 622.942 1
2 -4 17 5177.39 864.821 2
-2 4 17 7055.83 782.014 2
-2 4 17 7165.22 1174.85 1
2 -4 17 7324.95 1008.85 1
-2 4 16 11031.5 1423.85 1
2 -4 16 10323.6 1129.97 1
-2 4 16 9978.26 909.198 2
2 -4 16 9913.27 1161.74 2
-2 4 15 8000.29 808.619 2
-2 4 15 6989.53 1093.98 1
2 -4 15 7998.59 957.346 1
2 -4 15 7834.67 1012.84 2
-2 4 14 554.791 302.264 1
2 -4 14 1730.16 452.218 1
2 -4 14 812.745 321.124 2
-2 4 14 1802.64 366.005 2
2 -4 13 2602.18 507.593 1
-2 4 13 2992.06 473.682 2
2 -4 13 2480.84 542.283 2
-2 4 12 445.059 212.521 2
2 -4 12 305.274 203.375 1
2 -4 12 5.79144 123.141 2
2 -4 11 14838.3 1060.27 1
2 -4 11 14141.5 1229 2
-2 4 11 14787 1002.56 2
2 -4 10 10164.5 816.433 1
-2 4 10 11731.3 877.114 2
-2 4 9 11317.3 846.055 2
2 -4 9 11798.7 827.517 1
2 -4 8 6589.42 559.271 1
-2 4 8 6902.74 644.437 2
-2 4 7 7256.74 802.504 1
2 -4 7 6914.55 518.913 1
-2 4 7 8076.29 697.206 2
2 4 -7 6355.76 332.088 2
-2 4 6 89376.5 2607.78 1
2 -4 6 84412.7 1584.01 1
-2 4 6 84431.5 2224.14 2
2 4 -6 87623.5 1359.7 2
2 -4 5 17977.4 608.696 1
-2 4 5 18614.2 1109.57 1
2 4 -5 18157.4 682.682 2
-2 4 5 17914.8 1014.99 2
2 4 -4 19162.9 773.856 2
-2 4 4 20514.7 1085.96 1
-2 4 3 21852.8 1021.56 1
2 4 -3 22699.4 907.094 2
-2 4 2 22661.5 932.795 1
2 4 -2 22829 978.748 2
2 4 -1 44875.8 1468.39 2
-2 4 1 47917.5 1183.12 1
2 4 0 49288.7 1622.01 2
2 4 1 45603.9 1639.09 2
-2 -4 1 46308.1 1514.2 2
2 4 2 23167.7 1213.76 2
-2 -4 2 22741.9 1011.13 2
-2 -4 3 22250.1 954.551 2
2 4 3 23598 1271.15 2
-2 -4 4 16878.7 764.474 2
2 4 4 20021.7 1213.48 2
-2 -4 5 17902.3 730.527 2
2 4 5 18291.7 1205.34 2
2 4 6 86172.8 2709.08 2
-2 -4 6 83187.9 1420.34 2
-2 -4 7 6228.21 345.597 2
2 4 7 7631.91 836.197 2
2 4 8 7374.46 818.417 2
2 4 9 10713.2 1046.07 2
2 4 10 9461.72 1022.61 2
2 4 11 16188.4 1349.56 2
2 4 12 345.503 228.781 2
2 4 13 2628.39 583.138 2
2 4 14 1302.61 396.692 2
2 4 15 10135 1184.86 2
2 4 16 8453.07 1092.67 2
2 4 17 5288.2 895.354 2
2 4 18 2976.32 691.729 2
2 4 19 5669.6 956.566 2
2 4 20 4141.11 832.694 2
2 4 21 6495.9 1050.07 2
2 4 22 7371.05 1149.03 2
2 4 23 642.784 356.755 2
2 4 24 854.663 542.956 1
2 4 24 605.31 370.974 2
2 4 25 689.722 524.884 1
2 4 26 -213.29 308.569 1
2 4 27 1254.1 715.605 1
2 4 28 671.221 530.123 1
2 4 29 -39.8374 251.596 1
-2 5 28 -1.16992 298.354 1
-2 5 27 1760.51 749.478 1
-2 5 26 282.821 403.825 1
-2 5 25 -406.474 346.961 1
-2 5 24 246.996 277.443 1
-2 5 23 802.152 430.866 1
2 -5 23 250.29 300.325 1
2 -5 22 1417.64 524.42 1
-2 5 22 697.266 446.309 1
2 -5 21 101.539 135.433 2
2 -5 21 1.78164 182.892 1
-2 5 21 391.683 301.854 1
2 -5 20 984.024 410.543 2
2 -5 20 381.521 266.464 1
-2 5 20 1733.76 648.892 1
-2 5 19 15071.8 1242.32 2
2 -5 19 15853.5 1557.51 2
2 -5 19 15618.6 1524.78 1
-2 5 19 15654.1 1848.81 1
2 -5 18 7938.74 1093.94 2
-2 5 18 7896.05 1264.05 1
2 -5 18 5743.51 898.539 1
-2 5 18 5862.13 764.186 2
-2 5 17 6394.1 785.97 2
-2 5 17 6559.75 1150.43 1
2 -5 17 7730.29 1047.3 2
2 -5 17 5174.48 843.051 1
2 -5 16 364.146 253.502 2
-2 5 16 623.563 395.283 1
2 -5 16 331.378 241.397 1
-2 5 16 225.385 189.282 2
2 -5 15 892.756 329.098 2
-2 5 15 1934.04 588.637 1
-2 5 15 1162.53 320.686 2
2 -5 15 1661.09 436.842 1
-2 5 14 21978.9 1891.26 1
2 -5 14 18296.6 1524.58 2
2 -5 14 17085.2 1304.08 1
-2 5 14 20220.3 1326.76 2
2 -5 13 20577.7 1358.97 1
-2 5 13 21103.8 1342.11 2
2 -5 13 19767.5 1559.95 2
-2 5 13 20881.1 1759.03 1
2 -5 12 3600.89 629.493 2
2 -5 12 3763.49 553.053 1
-2 5 12 4370.87 600.228 2
-2 5 12 4081.36 792.191 1
-2 5 11 36306 1679.87 2
2 -5 11 37635.1 1633 1
2 -5 10 13904.1 918.751 1
-2 5 10 15240.7 1077.15 2
2 -5 9 7830.86 632.928 1
-2 5 9 6546.51 694.594 2
-2 5 8 6224.68 668.872 2
2 -5 8 6353.34 525.242 1
-2 5 8 6192.7 798.094 1
-2 5 7 18400.8 1274.74 1
-2 5 7 17370.2 1103.6 2
2 5 -7 15705.5 656.145 2
-2 5 6 19058 1139.25 2
2 5 -6 17902.8 744.152 2
-2 5 6 18878.8 1225.91 1
-2 5 5 12864.9 935.28 2
-2 5 5 12962.8 956.115 1
2 5 -5 14247.6 704.286 2
2 5 -4 29042.4 1066.82 2
-2 5 4 31568.5 1374.24 1
-2 5 4 31439 1439.92 2
2 5 -3 5191.2 483.36 2
-2 5 3 5821.14 557.012 1
-2 5 2 12657.7 726.273 1
2 5 -2 11717.5 757.414 2
2 5 -1 42326.9 1512.5 2
-2 5 1 44609.9 1197.74 1
2 5 0 383.332 127.229 2
-2 5 0 728.328 135.363 1
2 5 1 43136.8 1662.3 2
-2 -5 2 12027.3 788.22 2
2 5 2 13179.2 954.102 2
-2 -5 3 6144.71 542.579 2
2 5 3 6293.03 692.879 2
2 5 4 28873.3 1517 2
-2 -5 4 28958.6 1099.53 2
2 5 5 13191 1054.3 2
-2 -5 5 12705.9 690.926 2
2 5 6 18793 1320.77 2
-2 -5 6 19346.4 806.958 2
2 5 7 16102.4 1258.89 2
-2 -5 7 16450.5 690.053 2
-2 -5 8 5319.87 360.953 2
2 5 8 6091.48 785.404 2
2 5 9 8243.56 944.24 2
-2 -5 9 6847.02 373.33 2
-2 -5 10 14014.4 470.63 2
2 5 10 15759.7 1353.34 2
2 5 11 38293.6 2136.65 2
2 5 12 3371.43 647.78 2
2 5 13 21538.6 1671.92 2
2 5 14 17103.4 1536.71 2
2 5 15 1298.97 489.197 2
2 5 16 231.489 266.274 2
2 5 17 6037.16 984.422 2
2 5 18 7537.66 1121.71 2
2 5 19 16416.7 1668.65 2
2 5 20 986.657 435.181 2
2 5 21 822.877 421.278 2
2 5 22 1143.36 482.841 2
2 5 23 433.209 291.877 2
2 5 24 223.337 244.95 2
2 5 24 109.858 202.247 1
2 5 25 -261.868 304.58 2
2 5 25 581.466 552.66 1
2 5 26 135.163 268.357 1
2 5 27 984.632 558.445 1
2 5 28 -93.6596 280.351 1
-2 6 27 1802.67 875.625 1
-2 6 26 2579.98 914.607 1
-2 6 25 1129.11 646.836 1
-2 6 24 1516.17 715.472 1
-2 6 23 1423.09 582.058 1
-2 6 22 1786.72 701.086 1
2 -6 21 343.027 216.223 2
-2 6 21 112.207 285.313 1
2 -6 20 4034.6 810.567 2
-2 6 20 4666.79 1055.32 1
-2 6 20 3555.03 647.482 2
-2 6 19 3770.21 938.741 1
2 -6 19 2242.25 613.47 2
-2 6 19 2300.93 528.973 2
-2 6 18 3096.02 834.667 1
2 -6 18 2670.81 645.503 2
-2 6 18 2914.92 570.027 2
-2 6 17 2573.54 728.492 1
2 -6 17 1574.11 439.534 2
-2 6 17 2399.42 518.752 2
-2 6 16 25074.8 2138.45 1
-2 6 16 24423.4 1592.41 2
2 -6 16 23515.6 1826.8 2
-2 6 15 9528.69 1313.84 1
-2 6 15 7091.02 854.158 2
2 -6 15 7583.35 1013.51 2
2 -6 14 6853.48 934.367 2
-2 6 14 8159.72 896.485 2
-2 6 14 9352.2 1242.24 1
-2 6 13 7916.24 1136.06 1
-2 6 13 7573.14 848.812 2
-2 6 12 1968.65 570.518 1
-2 6 12 2596.16 488.67 2
-2 6 11 9649 920.661 2
-2 6 10 7717.62 822.127 2
-2 6 9 14325 1096.68 2
-2 6 8 8361.01 948.027 1
-2 6 8 8373.94 827.458 2
2 6 -7 19527.8 863.198 2
-2 6 7 22229.6 1328.24 2
2 6 -6 9788.07 636.984 2
-2 6 6 9739.32 869.378 2
-2 6 5 26287.7 1418.39 2
2 6 -5 25349.3 1065.61 2
-2 6 4 21650.1 1292.63 2
2 6 -4 22377.8 1042.59 2
2 6 -3 64210 1830.7 2
-2 6 3 66209.3 2247.57 2
2 6 -2 1384.87 290.952 2
2 6 -1 5705.73 593.236 2
2 6 0 87734.2 2404.88 2
2 6 1 6348.86 696.876 2
2 6 2 1508.75 348.935 2
2 6 3 64838.6 2297.27 2
2 6 4 21151 1353.7 2
-2 -6 4 23263.7 1091.88 2
2 6 5 28749 1629.43 2
-2 -6 5 26373 1100.82 2
-2 -6 6 8959.02 623.16 2
2 6 6 10332.8 1018.41 2
2 6 7 20629.5 1470.84 2
-2 -6 7 19933.4 867.936 2
-2 -6 8 7855.08 520.892 2
2 6 8 7671.75 913.937 2
-2 -6 9 15214.8 686.784 2
2 6 9 14689 1300.87 2
-2 -6 10 7270.18 448.629 2
2 6 10 8482.84 1016.04 2
-2 -6 11 8978.18 465.897 2
2 6 11 10021.8 1118.39 2
2 6 12 1105.6 393.585 2
-2 -6 12 1687.44 199.456 2
-2 -6 12 1434.93 171.498 2
-2 -6 13 6622.3 321.415 2
2 6 13 7324.77 1012.03 2
-2 -6 13 6139.54 333.173 2
2 6 14 7813.08 1059.45 2
2 6 15 9120.77 1160.52 2
2 6 16 25808.5 1990.69 2
2 6 17 1670.13 495.235 2
2 6 18 2677.34 681.901 2
2 6 19 3010.8 706.703 2
2 6 20 3520.94 784.825 2
2 6 21 686 420.065 2
2 6 22 1941.56 620.077 2
2 6 23 519.9 312.849 2
2 6 24 2249.78 692.057 2
2 6 25 1948.02 778.706 1
2 6 25 1697.43 592.68 2
2 6 26 2795.63 1006.98 1
2 6 27 1512.25 784.985 1
2 6 28 1.18364 298.553 1
-2 7 27 603.342 510.741 1
-2 7 26 754.182 517.18 1
-2 7 25 1.05392 185.991 1
-2 7 24 1074.83 581.009 1
-2 7 23 6918.98 1464.19 1
-2 7 22 74.5868 191.104 1
-2 7 21 5.18217 314.126 1
-2 7 20 421.439 236.075 2
2 -7 20 788.933 390.078 2
-2 7 20 1164.75 585.268 1
-2 7 19 4069.36 1000.87 1
-2 7 19 3455.14 658.651 2
2 -7 19 4664.66 865.083 2
-2 7 18 2628.97 739.552 1
2 -7 18 2697.52 649.044 2
-2 7 18 2848.96 591.769 2
-2 7 17 314.369 314.783 1
-2 7 17 521.739 310.07 2
2 -7 17 288.753 264.902 2
-2 7 16 1569.34 468.947 2
2 -7 16 1348.72 444.652 2
-2 7 16 1374.63 663.076 1
2 -7 15 11281.6 1260.64 2
-2 7 15 11294.1 1420.43 1
-2 7 15 9813.66 1051.62 2
-2 7 14 7165.81 897.993 2
-2 7 14 5569.22 982.592 1
-2 7 13 658.027 456.365 1
-2 7 13 485.616 259.547 2
-2 7 12 3075.61 569.975 2
-2 7 12 3385.61 743.716 1
-2 7 11 470.215 429.63 1
-2 7 11 270.33 236.894 2
-2 7 10 24055.1 1528.55 2
-2 7 9 9811.12 971.177 2
2 7 -8 36852.9 1303.26 2
-2 7 8 40936.3 1948.36 2
2 7 -7 11338 738.184 2
-2 7 7 11180.6 999.607 2
2 7 -6 38482.9 1408.96 2
-2 7 6 39122.8 1855.67 2
2 7 -5 1963.5 329.731 2
-2 7 5 1994.47 442.35 2
-2 7 4 7075.91 796.933 2
2 7 -4 7285.68 649.036 2
2 7 -3 5702.85 596.08 2
-2 7 3 7195.05 796.351 2
2 7 -2 22202.8 1204.31 2
2 7 -1 1745.44 358.878 2
2 7 0 986.523 276.616 2
2 7 1 1738.64 381.777 2
2 7 2 21027.7 1324.99 2
2 7 3 6138.41 737.431 2
2 7 4 6684.93 778.228 2
2 7 5 2095.42 467.865 2
-2 -7 6 35895.3 1367.34 2
2 7 6 35839.7 1938.12 2
2 7 7 12939.8 1197.35 2
-2 -7 7 10215 703.408 2
2 7 8 37380.9 2084.65 2
-2 -7 8 35932.5 1291.82 2
-2 -7 9 9939.59 645.771 2
2 7 9 10902.3 1183.16 2
2 7 10 25736.9 1804.48 2
-2 -7 10 22353.3 925.973 2
-2 -7 11 228.694 98.7239 2
2 7 11 246.33 319.995 2
2 7 12 3349.66 683.229 2
-2 -7 12 2772.22 294.345 2
2 7 13 394.79 235.903 2
-2 -7 14 5949.46 413.392 2
2 7 14 7100.88 1012.49 2
2 7 15 11098.5 1310.01 2
2 7 16 1831.02 600.222 2
2 7 17 416.797 183.099 2
2 7 18 3484.14 788.762 2
2 7 19 5113.91 974.319 2
2 7 20 430.401 335.783 2
2 7 21 282.275 319.128 2
2 7 22 356.892 292.199 2
2 7 23 2902.52 767.609 2
2 7 24 1142.52 482.277 2
2 7 25 92.0875 142.15 2
2 7 26 361.782 532.633 1
2 7 27 797.227 563.983 1
-2 8 26 744.264 478.116 1
-2 8 25 339.636 445.801 1
-2 8 24 -586.566 518.328 1
-2 8 23 2115.15 758.232 1
-2 8 22 5281.54 1201.87 1
-2 8 21 486.569 437.185 1
-2 8 20 3001.64 851.841 1
-2 8 20 3653.55 709.036 2
2 -8 20 3025.94 717.205 2
-2 8 19 980.833 373.604 2
2 -8 19 578.244 322.041 2
-2 8 19 1546.14 599.443 1
2 -8 18 1861.65 556.55 2
-2 8 18 2050.72 528.723 2
-2 8 18 1781.55 612.277 1
-2 8 17 2916.95 619.997 2
2 -8 17 3722.27 763.297 2
-2 8 17 2439.85 803.027 1
2 -8 16 796.963 417.688 2
-2 8 16 1231.41 410.231 2
-2 8 16 2013.73 738.489 1
-2 8 15 2822.97 788.28 1
-2 8 15 2113.59 524.031 2
-2 8 14 2458.32 548.389 2
-2 8 14 3049.94 763.601 1
-2 8 13 1667.36 616.199 1
-2 8 13 2616.48 543.017 2
-2 8 12 4356.45 705.776 2
-2 8 11 17801.9 1415.47 2
-2 8 10 24743.9 1653.14 2
-2 8 9 4786.74 700.655 2
2 8 -8 1755.84 317.814 2
-2 8 8 2206.16 508.052 2
-2 8 7 11432.6 1077.5 2
2 8 -7 11624.5 825.516 2
-2 8 6 7017.71 837.001 2
2 8 -6 7176.91 674.821 2
2 8 -5 8275.31 735.534 2
-2 8 5 8098.72 883.708 2
2 8 -4 16439.4 1054.57 2
-2 8 4 14424.7 1192.49 2
2 8 -3 19213 1179.08 2
-2 8 3 18119.8 1326.21 2
2 8 -2 2215.3 411.006 2
-2 8 2 2393.17 487.894 2
2 8 -1 3022.68 497.835 2
2 8 0 42991 1890.39 2
2 8 1 3388.71 543.242 2
2 8 2 3219.92 550.445 2
2 8 3 16132 1250.2 2
2 8 4 15358.8 1237.27 2
-2 8 -5 7548.16 390.038 1
2 8 5 8010.12 929.942 2
-2 8 -6 6446.15 404.522 1
2 8 6 7765.93 954.024 2
2 8 7 11149.4 1144.78 2
2 8 8 1482.9 382.885 2
2 8 9 4919.76 790.081 2
-2 -8 10 23672.7 1060.81 2
2 8 10 25202.6 1843.94 2
-2 -8 11 17352.8 887.311 2
2 8 11 19176.3 1628.46 2
2 8 12 4814.14 861.783 2
2 8 13 1215.19 467.161 2
2 8 14 2556.76 655.132 2
2 8 15 1486.67 514.699 2
2 8 16 4582.92 911.257 2
2 8 17 3883.35 832.691 2
2 8 18 1148 491.256 2
2 8 19 806.54 448.335 2
2 8 20 3802.5 849.638 2
2 8 21 1639.5 587.73 2
2 8 22 4942.8 1012.53 2
2 8 23 2192.7 706.92 2
2 8 24 -28.005 246.246 2
2 8 25 425.609 365.91 2
2 8 27 1234.16 684.658 1
-2 9 26 2107.43 841.66 1
-2 9 25 1.10518 527.558 1
-2 9 24 280.355 507.799 1
-2 9 23 931.158 547.082 1
-2 9 22 1194.82 645.688 1
-2 9 21 444.173 380.411 1
-2 9 21 383.347 246.754 2
-2 9 20 -398.14 408.793 1
-2 9 20 217.126 257.736 2
2 -9 19 1511.71 535.377 2
-2 9 19 936.191 377.223 2
-2 9 19 895.759 509.168 1
-2 9 18 243.441 187.572 2
-2 9 18 906.395 486.63 1
2 -9 18 409.534 275.07 2
2 -9 17 463.203 292.794 2
-2 9 17 -226.218 259.473 1
-2 9 17 58.9655 171.018 2
-2 9 16 2086.77 554.099 2
-2 9 16 2051.47 781.718 1
-2 9 15 23087.6 2115.78 1
-2 9 15 18348.4 1587.21 2
-2 9 14 4841.1 799.068 2
-2 9 14 4275.91 865.805 1
-2 9 13 1875.19 485.287 2
-2 9 12 1896.94 484.81 2
-2 9 11 4745.68 758.927 2
-2 9 10 1236.52 387.18 2
-2 9 9 2527.18 573.122 2
2 9 -8 9587.05 809.37 2
-2 9 8 10544.6 1110.15 2
2 9 -7 187.118 131.367 2
-2 9 7 169.019 243.778 2
-2 9 6 1252.96 414.889 2
2 9 -6 1105.43 279.622 2
2 9 -5 2353.26 405.524 2
-2 9 5 3035.41 563.921 2
2 9 -4 8816.85 833.401 2
-2 9 4 8023.58 926.191 2
-2 9 3 17634.1 1377.76 2
2 9 -3 17228.7 1194.5 2
2 9 -2 11027.7 979.8 2
-2 9 2 11128.8 1089.71 2
2 9 -1 1871.95 419.923 2
2 9 0 6290.74 762.695 2
2 9 1 2131.19 481.136 2
2 9 2 10478.3 1028.43 2
2 9 3 15647.8 1290.5 2
2 9 4 8198.34 940.308 2
2 9 5 3171.68 615.307 2
2 9 6 1315.68 419.506 2
-2 9 -6 1134.83 180.691 1
2 9 7 263.305 299.601 2
-2 9 -7 -6.14679 47.1894 1
2 9 8 11155.9 1215.09 2
2 9 9 3328.8 692.871 2
2 9 10 2149.53 583.62 2
2 9 11 3369.41 721.54 2
2 9 12 2291.75 556.208 2
2 9 13 2687.55 650.257 2
2 9 14 4689.01 890.075 2
2 9 15 21219.1 1891.94 2
2 9 16 2304.79 655.918 2
2 9 17 198.9 175.722 2
2 9 18 360.72 239.751 2
2 9 19 1910.35 614.37 2
2 9 20 -241.431 304.673 2
2 9 21 240.35 158.886 2
2 9 22 2678.32 781.702 2
2 9 23 1204.52 492.42 2
2 9 24 398.305 389.204 2
2 9 25 587.57 423.104 2
2 9 26 2918.89 847.459 2
-2 10 26 197.953 363.005 1
-2 10 25 2296.43 873.069 1
-2 10 24 583.966 567.969 1
-2 10 23 2083.57 798.846 1
-2 10 22 1293.01 656.244 1
-2 10 21 704.053 468.233 1
-2 10 21 1248.6 423.579 2
-2 10 20 423.397 267.825 2
-2 10 20 112.937 237.082 1
2 -10 19 1409.68 509.993 2
-2 10 19 1536.76 510.094 2
-2 10 19 2331.24 782.387 1
2 -10 18 -540.211 323.633 2
-2 10 18 725.216 429.201 1
-2 10 18 654.406 327.831 2
-2 10 17 1684.81 692.335 1
-2 10 17 1077.3 473.049 2
-2 10 16 194.996 288.319 1
-2 10 16 560.726 319.087 2
-2 10 15 6331.56 987.276 2
-2 10 15 5204.24 1060.64 1
-2 10 14 3541.01 717.417 2
-2 10 13 2482.3 606.456 2
-2 10 12 8464 1091.15 2
-2 10 11 9464.64 1127.77 2
-2 10 10 1012.73 411.387 2
-2 10 9 32767.6 2049.3 2
2 10 -8 5455.59 652.906 2
-2 10 8 5193.11 856.347 2
2 10 -7 11464.2 967.394 2
-2 10 7 12792.7 1249.32 2
2 10 -6 10767.8 945.938 2
-2 10 6 11716.8 1195.05 2
2 10 -5 1448.99 365.435 2
-2 10 5 1778.26 473.848 2
-2 10 4 1454.92 458.819 2
2 10 -4 1548.86 375.456 2
-2 10 3 2461.97 531.849 2
2 10 -3 1914.97 429.975 2
-2 10 2 5664.45 820.389 2
2 10 -2 5615.01 742.183 2
2 10 -1 267.34 164.096 2
2 10 0 272.845 253.995 2
2 10 1 472.71 298.834 2
2 10 2 5055.27 765.004 2
2 10 3 2852.42 568.762 2
2 10 4 1580.05 435.542 2
2 10 5 2048.13 541.828 2
2 10 6 10066.7 1139.1 2
-2 10 -6 10261.1 579.676 1
2 10 7 13172.5 1354.82 2
-2 10 -7 9992.87 605.529 1
2 10 8 6103.94 960.361 2
-2 10 -8 5082.02 465.474 1
-2 10 -9 29396 1189.43 1
2 10 9 33397.8 2197.59 2
2 10 10 583.735 298.277 2
2 10 11 8604.04 1157.18 2
2 10 12 9424.25 1244.07 2
2 10 13 2594.17 703.186 2
2 10 14 3945.49 838.311 2
2 10 15 8273.97 1233.87 2
2 10 16 -192.561 356.563 2
2 10 17 983.871 422.536 2
2 10 18 -126.605 325.774 2
2 10 19 2216.68 666.725 2
2 10 20 -24.7802 208.004 2
2 10 21 1229.72 525.247 2
2 10 22 1487.91 626.812 2
2 10 23 1920.91 674.489 2
2 10 24 -388.826 338.54 2
2 10 25 1797.99 649.298 2
2 10 26 241.998 241.258 2
-2 11 25 141.723 289.728 1
-2 11 24 750.286 584.38 1
-2 11 23 3381.03 1049.43 1
-2 11 22 662.692 548.838 1
-2 11 21 865.476 443.974 2
-2 11 21 875.278 553.701 1
-2 11 20 278.768 262.122 1
-2 11 20 511.083 296.722 2
2 -11 19 433.136 314.316 2
-2 11 19 895.97 505.047 1
-2 11 19 485.207 350.91 2
-2 11 18 2747.79 664.904 2
-2 11 18 2779.91 865.388 1
-2 11 17 2449.27 759.269 1
-2 11 17 1034.84 430.542 2
-2 11 16 2234.3 731.659 1
-2 11 16 1372.66 474.654 2
-2 11 15 -256.621 261.403 2
-2 11 14 5443.26 942.22 2
-2 11 13 423.713 238.529 2
-2 11 12 11877.6 1337.04 2
-2 11 11 2125.62 581.132 2
-2 11 10 4566.19 803.035 2
-2 11 9 934.619 440.007 2
-2 11 8 3459.66 716.608 2
2 11 -8 4610.19 648.804 2
-2 11 7 -103.031 161.079 2
2 11 -7 -1.25108 85.246 2
-2 11 6 901.884 424.897 2
2 11 -6 507.175 219.066 2
-2 11 5 529.999 229.283 2
2 11 -5 478.548 202.216 2
2 11 -4 5268.65 712.467 2
-2 11 4 4454.36 801.449 2
-2 11 3 4649.69 771.856 2
2 11 -3 4810.49 708.845 2
-2 11 2 20069 1622.41 2
2 11 -2 19622.2 1444.05 2
2 11 -1 1771.07 492.544 2
2 11 0 2816.61 581.099 2
2 11 1 3195.26 615.556 2
2 11 2 19882.8 1545.34 2
2 11 3 4194.47 729.29 2
2 11 4 4447.06 786.533 2
2 11 5 228.416 163.116 2
2 11 6 663.816 270.109 2
-2 11 -7 87.0617 79.9892 1
2 11 7 -233.621 178.387 2
2 11 8 4673.56 857.669 2
-2 11 -8 4026.27 425.332 1
2 11 9 744.226 414.106 2
2 11 10 3462.83 757.099 2
2 11 11 879.223 383.552 2
2 11 12 12065.6 1423.09 2
2 11 13 652.267 404.503 2
2 11 14 4935.99 935.492 2
2 11 15 249.68 430.078 2
2 11 16 1250.77 484.389 2
2 11 17 2377.05 679.482 2
2 11 18 1655.08 582.625 2
2 11 19 39.8762 203.88 2
2 11 20 280.729 320.671 2
2 11 21 1107.01 517.002 2
2 11 22 1241.38 586.225 2
2 11 23 3204.07 867.713 2
2 11 24 197.123 261.347 2
2 11 25 -647.971 429.715 2
2 11 26 1757.28 730.218 2
-2 12 25 -64.4059 336.89 1
-2 12 24 77.7287 265.314 1
-2 12 23 -660.272 494.865 1
-2 12 22 1273.45 673.555 1
-2 12 21 1912.35 611.782 2
-2 12 21 1617.6 726.34 1
-2 12 20 1852.97 616.434 2
-2 12 20 891.493 535.927 1
-2 12 19 881.83 514.838 1
-2 12 19 844.498 448.348 2
-2 12 18 12.7943 290.321 1
-2 12 18 39.3311 260.165 2
-2 12 17 811.122 639.42 1
-2 12 17 753.623 366.94 2
-2 12 16 1802.06 607.159 2
-2 12 15 -150.737 345.823 2
-2 12 14 5960.68 1006.5 2
-2 12 13 4838.83 903.442 2
-2 12 12 18340.9 1705.36 2
-2 12 11 10570.7 1304.31 2
-2 12 10 16214.4 1589.41 2
-2 12 9 4547.69 826.264 2
2 12 -8 1221.21 360.786 2
-2 12 8 3352.26 705.736 2
2 12 -7 324.688 207.954 2
-2 12 7 653.097 264.565 2
2 12 -6 4019.54 653.439 2
-2 12 6 4765.55 844.253 2
2 12 -5 388.807 228.381 2
-2 12 5 699.534 314.867 2
-2 12 4 9675.65 1206.24 2
2 12 -4 9653.33 1034.84 2
-2 12 3 3853.84 754.944 2
2 12 -3 4271.74 698.549 2
-2 12 2 4335.72 784.797 2
2 12 -2 3527.16 647.642 2
2 12 -1 679.143 296.979 2
2 12 0 613.5 296.966 2
2 12 1 428.178 285.397 2
2 12 2 4855.8 802.614 2
2 12 3 6455.3 943.385 2
2 12 4 11700.2 1275.33 2
2 12 5 512.161 369.133 2
2 12 6 5028.18 878.508 2
2 12 7 692.935 389.451 2
2 12 8 2337.9 687.381 2
2 12 9 4223.1 816.596 2
2 12 10 13645.3 1543.79 2
2 12 11 12471.7 1478.68 2
2 12 12 18640.1 1838.13 2
2 12 13 4269.55 946.892 2
2 12 14 5673.77 1032.56 2
2 12 15 280.804 427.778 2
2 12 16 1317.78 509.741 2
2 12 17 439.179 390.954 2
2 12 18 344.989 345.817 2
2 12 19 -240.717 321.748 2
2 12 20 2118.53 721.442 2
2 12 21 1660.12 623.973 2
2 12 22 2653.92 839.296 2
2 12 23 315.049 356.026 2
2 12 24 119.109 263.442 2
2 12 25 -121.598 234.452 2
2 12 26 1016.98 559.299 2
-2 13 24 -410.155 427.519 1
-2 13 23 1390.18 724.803 1
-2 13 22 305.316 283.424 2
-2 13 22 -293.231 340.061 1
-2 13 21 251.17 503.22 1
-2 13 21 423.249 333.725 2
-2 13 20 1176.08 655.566 1
-2 13 20 1551.23 568.045 2
-2 13 19 228.077 364.764 1
-2 13 19 298.338 299.602 2
-2 13 18 1088.3 534.599 1
-2 13 18 2163.19 664.966 2
-2 13 17 7320.1 1197.71 2
-2 13 16 352.76 318.051 2
-2 13 15 4419.36 898.322 2
-2 13 14 721.959 406.63 2
-2 13 13 179.261 280.163 2
-2 13 12 7995.9 1187.57 2
-2 13 11 1438.28 560.045 2
-2 13 10 52.171 233.53 2
-2 13 9 7952.87 1155.37 2
-2 13 8 7352.7 1087.97 2
2 13 -8 6302.61 851.893 2
-2 13 7 696.732 330.31 2
2 13 -7 840.137 317.091 2
2 13 -6 915.744 315.384 2
-2 13 6 762.237 365.612 2
-2 13 5 11777.4 1364.3 2
2 13 -5 13927.6 1299.94 2
2 13 -4 5905.86 862.242 2
-2 13 4 6278.15 1017.83 2
-2 13 3 2285.86 596.235 2
2 13 -3 2187.72 545.914 2
2 13 -2 421.781 201.76 2
-2 13 2 927.585 421.3 2
2 13 -1 1119.66 356.575 2
2 13 0 39.8528 184.541 2
2 13 1 1260.97 431.317 2
2 13 2 518.338 363.791 2
2 13 3 3291.39 718.768 2
2 13 4 4498.54 835.09 2
2 13 5 13098.6 1438.82 2
2 13 6 1229.71 527.057 2
2 13 7 580.617 235.117 2
2 13 8 5929.64 1016.82 2
2 13 9 6781.35 1113.89 2
2 13 10 546.232 302.721 2
2 13 11 792.337 400.358 2
2 13 12 9868.43 1368.85 2
2 13 13 -41.2449 228.353 2
2 13 14 1012.14 485.704 2
2 13 15 2442.09 709.655 2
2 13 16 543.884 372.469 2
2 13 17 7010.81 1252.54 2
2 13 18 1649.94 616.29 2
2 13 19 785.794 426.355 2
2 13 20 2402.65 746.367 2
2 13 21 941.321 531.631 2
2 13 22 148.957 288.381 2
2 13 23 1122.48 589.993 2
2 13 24 93.7721 252.201 2
2 13 25 1172.15 574.301 2
2 13 26 535.971 509.707 2
-2 14 23 2915.76 1078.92 1
-2 14 22 543.055 417.947 2
-2 14 22 242.475 507.392 1
-2 14 21 270.401 405.911 1
-2 14 21 945.762 520.014 2
-2 14 20 1334.45 665.425 1
-2 14 20 249.779 276.869 2
-2 14 19 633.322 363.28 2
-2 14 19 591.496 604.339 1
-2 14 18 129.547 228.044 2
-2 14 18 870.199 538.823 1
-2 14 17 286.076 207.4 2
-2 14 16 1247.95 559.67 2
-2 14 15 1240.15 508.228 2
-2 14 14 1049.69 459.878 2
-2 14 13 1963.58 612.62 2
-2 14 12 4093.44 870.7 2
-2 14 11 862.252 431.99 2
-2 14 10 12364.5 1502.4 2
-2 14 9 4973.37 954.491 2
2 14 -8 4611.61 776.96 2
-2 14 8 5566.57 975.21 2
-2 14 7 14085.6 1557.39 2
2 14 -7 13993.7 1335.37 2
2 14 -6 2367.4 555.668 2
-2 14 6 2081.58 644.287 2
-2 14 5 710.031 392.016 2
2 14 -5 745.084 346.842 2
-2 14 4 471.436 300.093 2
2 14 -4 573.079 295.31 2
2 14 -3 4135.86 762.929 2
-2 14 3 3339.12 740.261 2
2 14 -2 2000.18 548.569 2
-2 14 2 1475.06 476.039 2
2 14 -1 7419.82 1008.11 2
2 14 0 1570.02 488.569 2
2 14 1 8555.19 1130.16 2
2 14 2 2297.09 621.061 2
2 14 3 4924.03 915.087 2
2 14 4 708.958 348.237 2
2 14 5 403.921 231.661 2
2 14 6 3148.88 817.281 2
2 14 7 16919.3 1732.37 2
2 14 8 7410.95 1170.23 2
2 14 9 3491.92 813.608 2
2 14 10 13245.3 1594.97 2
2 14 11 1360.4 569.162 2
2 14 12 5237.82 1029.01 2
2 14 13 3505.01 940.712 2
2 14 14 181.812 212.881 2
2 14 15 479.378 360.26 2
2 14 16 428.555 384.648 2
2 14 17 33.0744 264.014 2
2 14 18 182.725 351.815 2
2 14 19 -774.726 470.765 2
2 14 20 750.82 481.704 2
2 14 21 606.138 511.236 2
2 14 22 559.803 397.863 2
2 14 23 1054.39 580.252 2
2 14 24 925.128 559.236 2
2 14 25 440.045 479.943 2
-2 15 23 -211.521 322.223 1
-2 15 22 493.132 417.57 2
-2 15 22 1703.94 756.036 1
-2 15 21 572.332 406.077 2
-2 15 21 863.193 554.172 1
-2 15 20 1884.4 767.191 1
-2 15 20 2462.31 781.572 2
-2 15 19 372.139 403.001 1
-2 15 19 362.788 337.765 2
-2 15 18 359.039 377.735 1
-2 15 18 718.373 413.34 2
-2 15 17 1755.51 634.401 2
-2 15 16 -407.297 262.497 2
-2 15 15 1043.47 506.215 2
-2 15 14 3354.57 859.674 2
-2 15 13 1083.03 505.268 2
-2 15 12 2167.29 656.436 2
-2 15 11 399.928 309.722 2
-2 15 10 850.788 447.003 2
-2 15 9 1116.89 460.717 2
2 15 -8 46.8063 185.601 2
-2 15 8 206.032 338.255 2
2 15 -7 9474.55 1138.94 2
-2 15 7 9797.31 1356.64 2
2 15 -6 2843.41 628.451 2
-2 15 6 3069.7 753.197 2
-2 15 5 5408.29 1013.3 2
2 15 -5 5230.39 869.276 2
-2 15 4 6039.03 1069.32 2
2 15 -4 4397.15 793.877 2
-2 15 3 7831.54 1202.5 2
2 15 -3 9934.6 1221.01 2
2 15 -2 8726.8 1179.81 2
-2 15 2 10519.6 1361.69 2
2 15 -1 3487.26 788.53 2
2 15 0 2300.85 664.272 2
2 15 1 2948.93 730.997 2
2 15 2 11275.8 1370.67 2
2 15 3 6816.05 1086.1 2
2 15 4 6887.99 1109.67 2
2 15 5 5135.19 972.597 2
2 15 6 2684.03 754.051 2
2 15 7 9045.7 1310.66 2
2 15 8 378.055 310.562 2
2 15 9 1241.98 528.814 2
2 15 10 1235.46 549.969 2
2 15 11 1406.42 537.743 2
2 15 12 1498.53 575.046 2
2 15 13 453.227 424.676 2
2 15 14 2936.12 819.287 2
2 15 15 643.114 467.915 2
2 15 16 436.739 498.26 2
2 15 17 1759.87 654.624 2
2 15 18 826.448 485.207 2
2 15 19 580.726 409.864 2
2 15 20 2175.29 770.269 2
2 15 21 609.872 464.797 2
2 15 22 813.299 550.551 2
2 15 23 758.167 560.061 2
2 15 24 125.64 253.552 2
-2 16 22 1193.49 587.778 2
-2 16 22 1649.56 874.38 1
-2 16 21 882.168 532.214 2
-2 16 21 861.694 666.014 1
-2 16 20 393.904 407.898 2
-2 16 20 796.364 518.451 1
-2 16 19 193.036 248.68 2
-2 16 19 503.173 488.853 1
-2 16 18 101.736 262.305 2
-2 16 17 648.502 524.153 2
-2 16 16 -150.231 270.224 2
-2 16 15 1365.22 572.864 2
-2 16 14 23.2461 242.804 2
-2 16 13 2554.7 748.495 2
-2 16 12 1155.55 549.769 2
-2 16 11 -402.123 341.396 2
-2 16 10 5709.95 1095.87 2
-2 16 9 7202.46 1220.21 2
-2 16 8 4279 918.629 2
2 16 -8 2357.26 605.035 2
2 16 -7 8440.79 1145.06 2
-2 16 7 8570.67 1303.69 2
2 16 -6 1533.37 486.167 2
-2 16 6 1573.69 581.463 2
-2 16 5 1173.71 532.084 2
2 16 -5 1535.81 494.403 2
2 16 -4 3211.28 721.996 2
-2 16 4 3109.18 764.042 2
-2 16 3 248.073 255.739 2
2 16 -3 1079.06 432.853 2
-2 16 2 677.176 371.392 2
2 16 -2 731.643 380.726 2
2 16 -1 2818.03 706.033 2
2 16 0 570.916 375.482 2
2 16 1 3027.71 777.011 2
2 16 2 85.6825 380.025 2
2 16 3 1018.96 446.837 2
2 16 4 4055.9 880.508 2
2 16 5 1598.8 559.447 2
2 16 6 688.511 386.941 2
2 16 7 10262.7 1438.69 2
2 16 8 6283.5 1200.54 2
2 16 9 8429.36 1345.79 2
2 16 10 4338.54 949.473 2
2 16 11 938.727 557.784 2
2 16 12 2214.69 744.539 2
2 16 13 2480.98 753.36 2
2 16 14 -613.813 534.7 2
2 16 15 2079.88 693.111 2
2 16 16 -418.33 504.911 2
2 16 17 -834.261 495.03 2
2 16 18 558.443 341.002 2
2 16 19 -103.339 231.297 2
2 16 20 454.678 393.919 2
2 16 21 625.765 521.156 2
2 16 22 1504.43 718.423 2
2 16 23 1.05281 268.335 2
-2 17 22 298.959 382.661 2
-2 17 21 356.63 339.462 2
-2 17 21 813.289 601.755 1
-2 17 20 -255.244 308.546 2
-2 17 20 -153.587 283.933 1
-2 17 19 159.604 205.194 1
-2 17 19 175.72 262.277 2
-2 17 18 486.691 392.78 2
-2 17 17 678.831 482.051 2
-2 17 16 1674.69 674.07 2
-2 17 15 1486.58 608.408 2
-2 17 14 -341.189 365.815 2
-2 17 13 414.736 315.027 2
-2 17 12 113.616 268.336 2
-2 17 11 218.666 429.604 2
-2 17 10 62.1828 290.765 2
-2 17 9 -342.179 349.121 2
2 17 -8 942.512 409.734 2
-2 17 8 1914.24 628.384 2
2 17 -7 287.138 274.15 2
-2 17 7 263.124 318.29 2
-2 17 6 1947.84 635.939 2
2 17 -6 2077.97 607.224 2
2 17 -5 2159.42 550.773 2
-2 17 5 2437.26 664.898 2
2 17 -4 3841.77 853.396 2
-2 17 4 4326.11 965.748 2
-2 17 3 75.9106 258.361 2
2 17 -3 112.761 210.306 2
2 17 -2 826.632 423.088 2
2 17 -1 9615.45 1318.1 2
2 17 0 130.201 251.757 2
2 17 1 13835.1 1621.04 2
2 17 2 707.84 386.329 2
2 17 3 39.2456 299.318 2
2 17 4 4202.74 909.678 2
2 17 5 3024.95 780.621 2
2 17 6 1636.23 604.353 2
2 17 7 -15.5218 314.279 2
2 17 8 1454.98 594.244 2
2 17 9 225.413 376.495 2
2 17 10 667.714 452.272 2
2 17 11 768.029 399.369 2
2 17 12 463.617 386.315 2
2 17 13 420.419 331.914 2
2 17 14 1031.25 598.217 2
2 17 15 855.621 565.68 2
2 17 16 2699.08 862.464 2
2 17 17 1139.99 549.085 2
2 17 18 290.462 315.053 2
2 17 19 757.003 495.317 2
2 17 20 1013.51 593.963 2
2 17 21 278.797 358.34 2
-2 18 21 -918.505 546.336 2
-2 18 20 472.023 402.079 2
-2 18 20 336.473 434.846 1
-2 18 19 759.455 554.437 2
-2 18 19 -1.09238 270.475 1
-2 18 18 865.174 553.466 2
-2 18 17 812.004 548.039 2
-2 18 16 717.569 467.241 2
-2 18 15 582.343 399.407 2
-2 18 14 503.071 401.816 2
-2 18 13 467.432 331.548 2
-2 18 12 2992.17 860.86 2
-2 18 11 1726.24 658.53 2
-2 18 10 717.243 419.759 2
-2 18 9 63.5504 205.946 2
-2 18 8 755.236 470.948 2
-2 18 7 438.856 345.436 2
2 18 -7 212.782 205.857 2
2 18 -6 2520.23 653.686 2
-2 18 6 3257.32 851.401 2
-2 18 5 -106.697 362.033 2
2 18 -5 -163.902 338.904 2
-2 18 4 2208.39 661.448 2
2 18 -4 4439.75 915.679 2
-2 18 3 486.968 279.517 2
2 18 -3 87.5251 203.84 2
2 18 -2 3709.62 857.308 2
2 18 -1 704.063 426.749 2
2 18 0 70.5276 304.042 2
2 18 1 775.642 434.149 2
2 18 2 2881.17 782.668 2
2 18 3 1563.43 613.298 2
2 18 4 4580.09 971.713 2
2 18 5 400.225 354.581 2
2 18 6 3909.55 972.402 2
2 18 7 446.798 226.298 2
2 18 8 858.236 444.313 2
2 18 9 -326.336 380.411 2
2 18 10 1873.06 670.887 2
2 18 11 389.264 201.756 2
2 18 12 3199.89 905.06 2
2 18 13 312.318 251.874 2
2 18 14 428.438 225.875 2
2 18 15 982.484 544.992 2
2 18 16 352.485 399.916 2
2 18 17 269.441 417.531 2
2 18 18 1020.72 605.043 2
2 18 19 238.983 280.53 2
-2 19 20 2743.91 1088.91 2
-2 19 19 162.283 260.548 2
-2 19 19 1059.82 707.24 1
-2 19 18 786.085 560.214 2
-2 19 17 58.4913 261.841 2
-2 19 16 35.2255 217.184 2
-2 19 15 323.094 346.739 2
-2 19 14 468.847 385.458 2
-2 19 13 -385.764 393.546 2
-2 19 12 906.127 503.477 2
-2 19 11 768.015 529.152 2
-2 19 10 651.78 541.697 2
-2 19 9 1360.65 514.399 2
-2 19 8 840.283 543.303 2
2 19 -7 301.147 233.784 2
-2 19 7 12.0324 266.938 2
2 19 -6 -80.9694 251.502 2
-2 19 6 304.686 426.954 2
-2 19 5 483.989 299.239 2
2 19 -5 60.0017 155.864 2
-2 19 4 4874.48 1084.23 2
2 19 -4 4475.89 955.872 2
2 19 -3 2149.64 653.511 2
2 19 -2 1891.89 622.995 2
2 19 -1 126.784 225.815 2
2 19 0 850.753 474.188 2
2 19 1 -148.728 295.178 2
2 19 2 616.49 371.771 2
2 19 3 985.766 477.218 2
2 19 4 5664.61 1139.36 2
2 19 5 624.898 442.72 2
2 19 6 398.769 309.05 2
2 19 7 -30.2211 326.801 2
2 19 8 298.238 344.265 2
2 19 9 762.538 461.329 2
2 19 10 107.411 316.211 2
2 19 11 486.846 432.525 2
2 19 12 1645.23 707.922 2
2 19 13 -408.094 396.566 2
2 19 14 -167.632 364.978 2
2 19 15 -367.234 370.532 2
2 19 16 741.593 561.634 2
2 19 17 709.801 537.768 2
-2 20 17 63.6585 341.471 2
-2 20 16 -624.917 456.408 2
-2 20 15 -480.18 411.727 2
-2 20 14 379.508 363.798 2
-2 20 13 -300.004 406.93 2
-2 20 12 98.1219 164.109 2
-2 20 11 1198.13 574.439 2
-2 20 10 524.568 473.068 2
-2 20 9 477.096 453.177 2
-2 20 8 -63.1212 254.643 2
-2 20 7 -15.5823 384.649 2
2 20 -7 777.956 429.359 2
-2 20 6 723.492 401.713 2
2 20 -6 208.46 254.826 2
-2 20 5 64.4422 313.845 2
2 20 -5 604.882 401.021 2
2 20 -4 -26.9893 228.948 2
2 20 -3 310.651 429.785 2
2 20 -2 1942.37 662.111 2
2 20 -1 582.776 438.994 2
2 20 0 1220.45 554.955 2
2 20 1 342.027 338.658 2
2 20 2 1891.34 647.987 2
2 20 3 258.077 387.426 2
2 20 4 10.1918 158.63 2
2 20 5 154.645 224.107 2
2 20 6 -65.0973 181.275 2
2 20 7 471.12 235.384 2
2 20 8 2067.59 758.349 2
2 20 9 1035.04 549.439 2
2 20 10 101.605 374.736 2
2 20 11 -816.637 506.385 2
2 20 12 197.157 219.464 2
2 20 13 266.303 280.47 2
2 20 14 1380.86 603.018 2
2 20 15 1155.77 573.41 2
-2 21 14 174.073 259.909 2
-2 21 13 350.724 393.043 2
-2 21 12 705.618 540.241 2
-2 21 11 1808.47 767.035 2
-2 21 10 71.0459 478.463 2
-2 21 9 188.194 230.053 2
-2 21 8 2553.78 846.897 2
-2 21 7 -179.573 340.24 2
2 21 -6 332.306 258.69 2
-2 21 6 -722.232 491.202 2
2 21 -5 974.749 505.586 2
2 21 -4 861.94 499.734 2
2 21 -3 1169.43 531.366 2
2 21 -2 390.829 326.09 2
2 21 -1 141.944 190.386 2
2 21 0 136.892 212.444 2
2 21 1 11.2003 287.134 2
2 21 2 839.918 557.426 2
2 21 3 798.413 450.604 2
2 21 4 1144.7 577.07 2
2 21 5 300.639 280.512 2
2 21 6 6.56545 182.256 2
2 21 7 136.447 294.607 2
2 21 8 990.085 530.694 2
2 21 9 677.66 419.332 2
2 21 10 152.377 264.227 2
2 21 11 2003.86 731.759 2
2 21 12 618.53 531.842 2
2 21 13 1200.91 629.859 2
-2 22 10 954.569 551.498 2
-2 22 9 724.022 505.719 2
-2 22 8 298.061 346.539 2
-2 22 7 -300.791 375.791 2
2 22 -5 873.53 499.766 2
2 22 -4 1438.74 610.104 2
2 22 -3 859.652 509.965 2
2 22 -2 569.632 455.388 2
2 22 -1 801.621 483.976 2
2 22 0 238.44 288.4 2
2 22 1 1261.99 551.576 2
2 22 2 1807.78 702.112 2
2 22 3 1441.93 679.075 2
2 22 4 1613.09 649.394 2
2 22 5 1664.47 680.779 2
2 22 6 651.108 392.853 2
2 22 7 490.461 415.02 2
2 22 8 1450.1 748.642 2
2 22 9 -14.7317 234.601 2
2 22 10 1156.58 629.653 2
2 23 -5 455.245 449.419 2
2 23 -4 812.443 510.966 2
2 23 -3 306.059 349.457 2
2 23 -2 488.222 458.151 2
2 23 -1 323.562 363.353 2
2 23 0 1447.51 616.151 2
2 23 1 873.928 519.779 2
2 23 2 353.078 468.646 2
2 23 3 839.484 535.127 2
2 23 4 2005.35 792.739 2
2 23 5 76.121 297.816 2
2 23 6 606.502 489.653 2
2 24 -4 409.856 366.57 2
2 24 -3 1525.1 745.506 2
2 24 -2 238.454 369.605 2
2 24 -1 -130.318 266.871 2
2 24 0 1387.97 671.257 2
2 24 1 -529.698 436.076 2
2 24 2 319.531 431.68 2
3 0 0 13.1297 104.974 2
3 0 -1 130.131 101.715 2
3 0 1 -97.4977 125.19 2
3 0 2 16758.2 1124.44 2
3 0 3 22613.2 1346.16 2
3 0 4 586.944 276.526 2
3 0 5 49.314 130.34 2
3 0 6 6938.51 884.633 2
3 0 7 46255.2 2181.86 2
3 0 -7 44234.3 1147.32 2
3 0 -8 8787.21 489.647 2
3 0 8 9894.03 1058.95 2
3 0 -9 4399.54 330.586 2
3 0 9 4180.35 726.489 2
3 0 -10 488.053 109.048 2
3 0 10 23.3093 208.683 2
3 0 11 3267.56 682.587 2
3 0 -11 2820.81 257.729 2
3 0 -12 2247.12 231.384 2
3 0 12 4236.52 809.756 2
3 0 13 2101.2 514.66 2
3 0 -13 1764.63 201.31 2
3 0 -14 884.763 141.838 2
3 0 14 1289.99 425.574 2
3 0 15 2609.41 642.72 2
3 0 -15 1852.07 200.606 2
3 0 16 734.585 368.563 2
3 0 17 1470.79 515.585 2
3 0 18 3416.52 773.248 2
3 0 19 2294.72 682.727 2
3 0 20 17501.1 1785.88 2
3 0 21 848.409 480.22 1
3 0 21 315.138 264.453 2
3 0 22 2036.38 667.816 1
3 0 22 1175.95 483.973 2
3 0 23 1072.99 492.984 2
3 0 23 279.585 294.159 1
3 0 24 -181.392 254.092 2
3 0 24 375.756 345.435 1
3 0 25 58.2716 273.082 1
3 0 26 58.1838 217.979 1
3 0 27 251.347 362.289 1
3 0 28 -1.00125 374.777 1
3 0 29 -625.848 455.385 1
3 0 30 -132.289 275.403 1
3 -1 29 587.181 514.913 1
3 -1 28 1192.43 626.071 1
3 -1 27 78.6131 282.133 1
3 -1 26 3399.13 925.059 1
3 -1 25 1022.95 570.863 1
3 -1 24 158.566 261.383 1
3 -1 24 865.424 469.62 2
3 -1 23 1858.11 600.896 2
3 -1 23 1470.98 589.449 1
3 -1 22 33.3041 234.833 2
3 -1 22 113.17 275.522 1
3 -1 21 1050.49 439.992 1
3 -1 21 842.932 487.306 2
3 -1 20 3258.85 833.711 1
3 -1 20 2403.72 676.77 2
3 -1 19 16610.9 1687.93 1
3 -1 19 17904.6 1764.17 2
3 -1 18 5888.78 1008.2 2
3 -1 17 2110.58 638.195 2
3 -1 16 2143.3 578.155 2
3 -1 15 17527.5 1628.72 2
3 -1 14 8340.77 1103.99 2
3 -1 13 217.093 233.915 2
3 -1 12 3542.34 686.913 2
3 -1 11 20794.6 1614.78 2
3 -1 10 26366.9 1789.22 2
3 -1 9 2037.45 498.793 2
3 1 -8 3735.92 264.089 2
3 -1 8 3652.9 627.524 2
3 1 -8 3684.49 287.609 2
3 1 -7 1364.3 197.926 2
3 -1 7 1444.11 416.886 2
3 1 -6 11245.6 609.564 2
3 -1 6 10905.7 1025.88 2
3 -1 5 2674.4 496.802 2
3 1 -5 2620.49 322.003 2
3 1 -4 25752.4 1051.3 2
3 -1 4 25740.4 1498.89 2
3 -1 3 51748 2050.29 2
3 1 -3 48222 1521.76 2
3 1 -2 90620.4 2217.87 2
3 1 -1 61287.7 1888.99 2
3 1 0 1976.41 352.183 2
3 1 1 61638.4 2071.62 2
3 1 2 96398.1 2683.45 2
3 1 3 50133.2 2016.3 2
3 1 4 26481.9 1508.96 2
3 1 5 2593.63 492.543 2
3 1 6 12021.5 1085.75 2
3 -1 -6 12092.5 698.839 2
3 1 7 1346.44 390.86 2
3 -1 -7 1230.31 215.404 2
3 1 8 4183.56 671.743 2
3 -1 -8 3850.09 371.22 2
3 1 9 2231.39 495.161 2
3 -1 -9 2754.86 311.663 2
3 1 10 24646.4 1723.75 2
3 -1 -10 26511.4 958.925 2
3 1 11 18036.7 1520.5 2
3 -1 -11 18855.2 822.265 2
3 1 12 3517.45 699.125 2
3 -1 -12 3427.04 357.43 2
3 -1 -13 289.571 112.98 2
3 1 13 877.929 418.59 2
3 1 14 9408.94 1174.13 2
3 -1 -14 9221.99 611.002 2
3 1 15 17956 1669.88 2
3 1 16 1135.27 412.097 2
3 1 17 1899.29 610.476 2
3 1 18 7170.56 1123.44 2
3 1 19 16604.5 1712.82 2
3 1 20 2065.6 637.129 2
3 1 21 311.93 221.041 2
3 1 22 2184.51 748.178 1
3 1 22 434.862 421.697 2
3 1 23 1923.39 698.997 1
3 1 23 1977.87 644.731 2
3 1 24 670.545 413.104 2
3 1 24 424.303 282.128 1
3 1 25 2270.15 712.161 2
3 1 25 1857.39 690.56 1
3 1 26 1923.32 759.063 1
3 1 27 68.0949 282.711 1
3 1 28 638.377 518.457 1
3 1 29 369.28 445.682 1
3 1 30 64.4091 255.784 1
3 -2 28 572.926 474.126 1
3 -2 27 646.701 494.122 1
3 -2 26 1808.61 672.332 1
3 -2 25 1338.05 603.156 1
3 -2 24 1240.65 517.444 2
3 -2 24 1775.91 627.565 1
3 -2 23 2377.99 725.858 1
3 -2 23 3533.47 841.245 2
3 -2 22 1709.35 614.358 1
3 -2 22 1353.3 495.234 2
3 -2 21 670.802 338.074 2
3 -2 21 2009.1 632.534 1
3 -2 20 83.2536 202.22 2
3 -2 20 578.473 384.114 1
-3 2 19 1684.53 683.692 1
3 -2 19 2486.45 665.158 2
3 -2 19 2751.34 692.806 1
3 -2 18 3486.56 775.443 2
-3 2 18 4393.45 959.889 1
3 -2 18 3508.27 755.851 1
3 -2 17 12591.6 1368.88 1
-3 2 17 12775.2 1528.96 1
3 -2 17 12493.1 1436.05 2
3 -2 16 5968.64 982.313 2
-3 2 16 4158.49 852.689 1
-3 2 16 5638.41 539.007 2
3 -2 15 9783.08 1238.45 2
-3 2 15 9423.58 1264.97 1
3 -2 14 4490.14 846.08 2
-3 2 14 3923.99 786.873 1
3 -2 13 1785.13 494.062 2
3 -2 12 337.344 273.169 2
3 -2 11 2879.11 625.716 2
3 -2 10 12075.8 1204.93 2
3 -2 9 3740.31 642.577 2
3 -2 8 3105.71 606.188 2
3 2 -7 18560 640.994 2
3 -2 7 21745.1 1508.16 2
3 -2 6 3347.53 589.167 2
3 2 -6 3149.07 299.328 2
3 2 -5 7413.43 517.721 2
3 2 -4 61412.7 1615.21 2
3 2 -3 675.316 190.801 2
3 2 -2 60336 1800.05 2
3 2 -1 61446.5 1911.07 2
3 2 0 891.727 265.418 2
3 2 1 62284.5 2112.73 2
-3 -2 1 63068.5 1907.82 2
3 2 2 61608.5 2165.84 2
-3 -2 2 60413.4 1781.24 2
3 2 3 773.076 273.688 2
3 2 4 63207.2 2360.9 2
3 2 5 8017.31 867.16 2
3 -2 -5 7469 611.398 2
3 2 6 3741.12 608.712 2
3 -2 -6 3739.77 415.855 2
3 -2 -7 18500.5 923.271 2
3 2 7 20438.8 1455.98 2
3 2 8 2648.85 561.08 2
3 -2 -8 2395.75 330.949 2
3 2 9 5009.87 770.553 2
3 -2 -9 3988.52 424.664 2
3 2 10 12537.7 1247.51 2
3 -2 -10 12519.1 760.567 2
3 -2 -11 3150.92 383.472 2
3 2 11 3001.46 632.68 2
3 -2 -12 681.168 188.361 2
3 2 12 931.833 369.406 2
3 -2 -13 1754.86 299.994 2
3 2 13 2408.09 613.987 2
3 2 14 3782.33 768.128 2
3 2 15 11130.1 1323.09 2
3 2 16 5100.8 924.59 2
3 2 17 10536.7 1322.2 2
3 2 18 4601.14 891.654 2
3 2 19 1687.67 534.336 2
3 2 20 295.993 328.442 2
3 2 21 1988.35 614.473 2
3 2 22 1594.31 538.094 2
3 2 23 1996.64 761.94 1
3 2 23 3005.11 806.753 2
3 2 24 1408.31 535.61 2
3 2 24 1617.43 717.711 1
3 2 25 430.188 302.143 2
3 2 25 1482.79 671.773 1
3 2 26 2029.71 764.299 1
3 2 27 232.36 398.356 1
3 2 28 485.389 480.262 1
3 2 29 521.284 451.32 1
3 -3 27 112.585 179.093 1
3 -3 26 809.613 467.306 1
3 -3 25 44.6679 186.893 1
-3 3 24 1259.53 528.25 1
3 -3 24 2146.92 684.739 1
-3 3 23 528.079 601.167 1
3 -3 23 737.134 405.344 1
3 -3 23 854.705 441.58 2
3 -3 22 1732.52 600.839 1
-3 3 22 1775.75 690.376 1
3 -3 22 1886.28 601.025 2
3 -3 21 2288.29 642.97 2
3 -3 21 2939.74 712.127 1
-3 3 21 2202.47 733.345 1
-3 3 20 -188.355 438.55 1
3 -3 20 -75.2586 277.645 2
3 -3 20 262.714 254.489 1
3 -3 19 183.651 207.759 1
3 -3 19 228.268 296.176 2
-3 3 19 -161.06 235.545 1
3 -3 18 5439.29 904.706 1
3 -3 18 2963.13 723.042 2
-3 3 18 4236.65 953.754 1
3 -3 17 7016.59 1091.26 2
-3 3 17 6899.43 1133.16 1
-3 3 17 6767.38 667.209 2
3 -3 17 6576.02 962.522 1
-3 3 16 1966.52 600.797 1
3 -3 16 1452.4 528.955 2
-3 3 16 1965.22 363.452 2
3 -3 16 783.526 346.61 1
-3 3 15 1366.07 510.612 1
-3 3 15 832.161 235.806 2
3 -3 15 773.66 367.22 2
3 -3 15 1370.74 455.862 1
-3 3 14 4327.48 522.944 2
-3 3 14 4824.62 864.233 1
3 -3 14 4369.87 806.687 2
-3 3 13 2848.09 638.85 1
3 -3 13 1564.64 479.294 2
-3 3 13 2332.61 393.123 2
-3 3 12 12693.1 1322.25 1
3 -3 12 12606.1 1305.42 2
3 -3 11 -128.162 140.009 2
3 -3 10 4521.98 721.185 2
3 -3 9 5734.36 836.912 2
-3 3 8 40894.2 2024.47 1
3 -3 8 41023.1 2147.22 2
-3 3 7 11284.2 1011.39 1
3 3 -7 10733.7 468.235 2
3 3 -6 22075 789.984 2
3 3 -5 17.1254 52.3897 2
3 3 -4 53851.5 1511.11 2
3 3 -3 6228.83 551.645 2
3 3 -2 31154.3 1326.71 2
3 3 -1 8421.79 719.597 2
3 3 0 19827.6 1152.58 2
3 3 1 7403.76 731.488 2
3 -3 -1 8441.19 592.485 1
3 3 2 33882.5 1621.74 2
-3 -3 2 32952.4 1351.89 2
3 -3 -2 33328.5 1265.17 1
3 3 3 6704.42 759.481 2
-3 -3 3 5579.02 540.833 2
3 3 4 55682.7 2237.97 2
-3 -3 4 54200 1544.48 2
-3 -3 5 -48.6699 67.9211 2
3 3 5 135.253 156.27 2
3 3 6 22172.8 1522.64 2
3 3 7 14084.4 1236.85 2
3 3 8 44780.9 2257.54 2
3 3 9 5131.54 807.57 2
3 3 10 4225.52 759.056 2
3 3 11 85.5462 258.382 2
3 3 12 12093.7 1305.94 2
3 3 13 2055.74 602.577 2
3 3 14 5427.11 919.12 2
3 3 15 1424.98 518.992 2
3 3 16 2526.42 678.433 2
3 3 17 8032.27 1163.89 2
3 3 18 3604.82 830.311 2
3 3 19 69.2018 261.381 2
3 3 20 2134.7 770.6 2
3 3 21 2859.72 782.343 2
3 3 22 1342.84 504.69 2
3 3 23 696.198 472.138 2
3 3 24 1421.83 581.397 2
3 3 25 252.071 237.705 2
3 3 25 622.985 539.217 1
3 3 26 1332.91 642.015 1
3 3 27 -530.718 421.484 1
3 3 28 -321.059 371.086 1
3 3 29 6.90061 308.843 1
-3 4 26 2086.41 803.495 1
-3 4 25 578.15 500.987 1
3 -4 25 258.633 246.832 1
3 -4 24 2449.63 708.53 1
-3 4 24 3237.4 1005.04 1
3 -4 23 3100.97 775.794 1
3 -4 23 3440.51 842.585 2
-3 4 23 2753.57 874.343 1
3 -4 22 -102.503 266.57 2
-3 4 22 319.647 282.289 1
3 -4 22 41.9723 130.655 1
3 -4 21 -60.3698 258.822 2
-3 4 21 -4.15684 257.064 1
-3 4 20 6426.85 1187.98 1
3 -4 20 6318.9 1105.18 2
3 -4 20 6978.4 1047.24 1
3 -4 19 1737.89 581.863 2
3 -4 19 1022.22 416.465 1
-3 4 19 753.919 405.341 1
-3 4 18 3012.76 803.057 1
3 -4 18 3548.95 712.29 1
3 -4 18 2248.32 657.559 2
3 -4 17 675.106 339.927 1
3 -4 17 651.467 341.022 2
-3 4 17 -12.5743 246.323 1
-3 4 17 737.703 260.512 2
3 -4 16 10985.5 1331.7 2
3 -4 16 10441.1 1132.75 1
-3 4 16 13748.8 1565.74 1
-3 4 16 13206.3 1016.16 2
-3 4 15 4469.37 853.672 1
3 -4 15 5192.02 888.442 2
-3 4 15 6076.84 681.951 2
3 -4 15 6507.76 855.909 1
3 -4 14 8539.28 928.685 1
-3 4 14 9330.75 1240.74 1
3 -4 14 7882.68 1083.45 2
-3 4 14 7485.77 742.497 2
-3 4 13 5075.37 861.903 1
-3 4 13 5540.16 638.707 2
3 -4 13 4934.21 678.193 1
3 -4 13 6007.34 919.824 2
3 -4 12 1618.93 387.416 1
-3 4 12 653.072 400.649 1
-3 4 12 843.335 247.727 2
3 -4 12 1432.67 417.298 2
3 -4 11 4374.08 575.548 1
-3 4 11 4725.86 807.379 1
-3 4 11 5151.53 601.049 2
3 -4 11 4191.57 741.322 2
3 -4 10 6748.61 933.444 2
-3 4 8 3884.54 622.152 1
3 4 -8 4256.36 260.003 2
3 4 -7 2040.53 221.579 2
-3 4 7 2896.27 503.451 1
-3 4 6 65820.4 2304.49 1
3 4 -6 61928.2 1408.73 2
-3 4 5 18697.2 1167.28 1
3 4 -5 18306.2 850.966 2
3 4 -4 36082.2 1288.76 2
3 4 -3 11768.7 781.687 2
3 4 -2 138087 2808.71 2
3 4 -1 22256.6 1187.87 2
3 -4 1 22526.9 746.898 1
3 4 0 31691.5 1495.96 2
3 -4 0 31192 1004.36 1
3 4 1 21751.2 1294.43 2
3 -4 -1 24087.7 973.641 1
3 -4 -2 131902 2512.13 1
3 4 2 141710 3388.31 2
3 4 3 11678.5 1022.76 2
-3 -4 3 11952 829.063 2
3 -4 -3 13169.4 856.337 1
3 4 4 39561.7 1921.02 2
-3 -4 4 36700.1 1348.45 2
3 4 5 18124.4 1353.18 2
-3 -4 5 18034.4 886.394 2
3 4 6 68931.6 2711.04 2
-3 -4 6 65500.4 1519.25 2
-3 -4 7 2503.42 266.251 2
3 4 7 4039.77 678.799 2
3 4 8 4282.09 692.924 2
3 4 9 6166.75 894.124 2
3 4 10 6390.91 928.511 2
3 4 11 4914.59 825.494 2
3 4 12 750.35 406.365 2
3 4 13 6546.31 987.533 2
3 4 14 9422.76 1199.7 2
3 4 15 6169.02 995.862 2
3 4 16 12732.7 1440.08 2
3 4 17 727.951 376.127 2
3 4 18 1986.92 598.862 2
3 4 19 991.149 444.13 2
3 4 20 6140.56 1092.78 2
3 4 21 83.4655 299.039 2
3 4 22 22.5357 272.497 2
3 4 23 1511.49 570.637 2
3 4 24 2256.73 699.786 2
3 4 25 116.788 139.756 2
3 4 26 2424.88 923.374 1
3 4 27 575.604 617.255 1
3 4 28 29.3835 186.921 1
-3 5 27 -296.458 353.146 1
-3 5 26 518.805 442.125 1
-3 5 25 1602.1 790.482 1
-3 5 24 994.42 587.499 1
3 -5 23 11.1371 179.783 1
-3 5 23 668.146 284.941 1
3 -5 22 620.354 405.391 2
3 -5 22 243.076 223.149 1
-3 5 22 -280.871 416.663 1
3 -5 21 1175.09 490.408 2
3 -5 21 1339.26 489.43 1
-3 5 21 1855.97 658.605 1
3 -5 20 1964.04 561.746 1
3 -5 20 1858.68 600.883 2
-3 5 20 1784.74 656.154 1
3 -5 19 -60.9861 165.743 1
-3 5 19 -40.0865 338.337 1
3 -5 19 -278.174 194.089 2
-3 5 18 2831.35 777.924 1
3 -5 18 3381.54 768.548 2
-3 5 18 2340.51 461.326 2
3 -5 18 2447.68 587.427 1
-3 5 17 5148.39 992.465 1
3 -5 17 4122.02 880.218 2
3 -5 17 4977.1 789.421 1
-3 5 17 5752.21 720.642 2
-3 5 16 5864.57 1055.24 1
3 -5 16 5686.02 808.353 1
-3 5 16 6109.59 737.521 2
3 -5 16 6345.98 999.1 2
3 -5 15 3030.81 543.54 1
3 -5 15 3700.86 773.468 2
-3 5 15 3068.14 514.21 2
-3 5 15 3201.7 763.776 1
3 -5 14 331.067 190.129 1
-3 5 14 561.918 246.737 2
3 -5 14 454.073 264.557 2
-3 5 14 -27.8323 256.275 1
-3 5 13 1796.43 504.768 1
-3 5 13 2690.12 480.169 2
3 -5 13 2851.63 500.256 1
3 -5 13 2872.69 642.207 2
3 -5 12 7106.85 735.833 1
-3 5 12 7369.73 785.679 2
-3 5 12 6110.05 958.277 1
3 -5 12 8956.67 1116.28 2
-3 5 11 2222.07 458.201 2
-3 5 11 2408.16 560.8 1
3 -5 11 2331.72 396.645 1
-3 5 10 16706.8 1160.11 2
3 -5 10 15922.7 960.556 1
3 5 -9 1054.75 132.804 2
3 -5 9 1344.66 255.318 1
3 -5 8 13453.4 724.74 1
3 5 -8 13844.5 579.014 2
3 -5 7 23432.8 838.06 1
-3 5 7 25212.1 1531.01 1
3 5 -7 25718.3 891.465 2
3 5 -6 53058 1424.52 2
3 -5 6 51217.2 1036.11 1
-3 5 6 53801.2 2115.68 1
3 5 -5 1350.67 249.88 2
-3 5 5 1526.36 345.654 1
-3 5 4 20204.9 1135.49 1
3 5 -4 17967 956.844 2
-3 5 3 41000 1511.77 1
3 5 -3 41929.9 1537.91 2
3 5 -2 25174.6 1250.36 2
3 5 -1 56997.4 1972.21 2
3 5 0 2203.02 412.929 2
3 5 1 54470.3 2081.94 2
3 5 2 24092.3 1433.71 2
3 5 3 42501.2 1953.31 2
3 5 4 21812.2 1449.53 2
-3 -5 4 19976.7 1039.99 2
-3 -5 5 1760.39 297.828 2
3 5 5 1804.41 442.566 2
3 5 6 51761.4 2367.37 2
-3 -5 6 51995.1 1519.28 2
3 5 7 26045.8 1738.11 2
-3 -5 7 23070.9 923.717 2
3 5 8 16017.1 1391.6 2
-3 -5 8 13467.8 628.735 2
3 5 9 1248.23 438.047 2
-3 -5 9 895.948 131.177 2
3 5 10 16032.2 1466.7 2
3 5 11 2830.19 641.005 2
3 5 12 7416.96 1028.63 2
3 5 13 2859.14 699.974 2
3 5 14 45.6868 274.767 2
3 5 15 3621.52 757.179 2
3 5 16 6363.48 1052.2 2
3 5 17 4536.69 885.7 2
3 5 18 3364.92 784.002 2
3 5 19 611.017 349.39 2
3 5 20 1816.41 609.175 2
3 5 21 1835.97 623.153 2
3 5 22 -443.252 448.042 2
3 5 23 220.73 283.631 2
3 5 24 1445.93 570.89 2
3 5 25 1136.94 557.388 2
3 5 26 268.333 305.01 1
3 5 26 -83.3357 203.357 2
3 5 27 90.7705 205.874 1
3 5 28 905.609 612.898 1
-3 6 27 1945.41 776.259 1
-3 6 26 412.62 401.185 1
-3 6 25 2278.28 854.396 1
-3 6 24 16.082 251.7 1
-3 6 23 16.2448 390.301 1
3 -6 22 2385.73 706.368 2
3 -6 22 1897.62 567.729 1
-3 6 22 546.078 370.691 1
-3 6 21 107.447 236.376 1
3 -6 21 356.206 310.322 2
3 -6 21 58.7534 135.795 1
-3 6 20 4321.81 1010.53 1
3 -6 20 4745.29 936.406 2
3 -6 20 5466.18 893.484 1
-3 6 19 -60.8987 249.024 1
3 -6 19 133.372 166.248 2
3 -6 19 153.971 191.75 1
3 -6 18 704.129 277.898 1
3 -6 18 1166.03 419.338 2
-3 6 18 1400.27 386.766 2
-3 6 18 982.281 441.081 1
-3 6 17 21925.2 2084.23 1
3 -6 17 16851.2 1390.5 1
-3 6 17 19429 1414.63 2
3 -6 17 21817.8 1936.24 2
-3 6 16 2170.83 487.344 2
3 -6 16 2025.41 578.732 2
3 -6 16 2224.93 484.811 1
-3 6 16 1731.47 615.941 1
-3 6 15 2376.1 484.354 2
3 -6 15 3785.7 618.511 1
-3 6 15 3529.65 810.111 1
3 -6 15 3446.31 755.048 2
3 -6 14 2214.6 606.438 2
3 -6 14 2370.98 459.14 1
-3 6 14 4036.81 827.173 1
-3 6 14 2636 511.158 2
3 -6 13 6510.27 995.594 2
3 -6 13 7437.16 765.275 1
-3 6 13 7669.39 861.072 2
-3 6 13 6877.48 1035.68 1
3 -6 12 6448.64 675.447 1
-3 6 12 5475.32 911.599 1
-3 6 12 6427.72 789.651 2
-3 6 11 12519.4 1306.18 1
3 -6 11 12598.5 865.674 1
-3 6 11 13042.3 1101.18 2
3 -6 10 9691.19 695.567 1
-3 6 10 11043.4 1007.81 2
3 -6 9 3310.66 362.058 1
-3 6 9 3625.53 570.407 2
3 6 -9 3130.29 295.262 2
3 6 -8 2663.56 306.547 2
-3 6 7 24490.9 1520 1
3 6 -7 22544.2 947.534 2
-3 6 6 11188.2 986.206 1
3 6 -6 12682.5 762.372 2
-3 6 5 82820.2 2508.89 1
3 6 -5 76951.3 1979.87 2
-3 6 4 24349.8 1273.67 1
3 6 -4 24902.7 1182.64 2
-3 6 3 10944.5 798.128 1
3 6 -3 11727.5 857.597 2
-3 6 2 6416.94 548.437 1
3 6 -2 7445.73 718.014 2
3 6 -1 7198.65 731.376 2
3 6 0 23988.5 1371.31 2
3 6 1 8034.04 836.867 2
3 6 2 5683.92 709.577 2
3 6 3 12122.1 1098 2
3 6 4 25224.3 1622.98 2
3 6 5 82569.4 2996.19 2
-3 -6 5 79195.2 2110.04 2
-3 -6 6 12697.9 798.341 2
3 6 6 12531.6 1221.32 2
3 6 7 21589.5 1640.88 2
-3 -6 7 24004.3 1046.73 2
-3 -6 8 2446.72 307.425 2
3 6 8 2824.89 635.297 2
-3 -6 9 3286.61 322.549 2
3 6 9 4047.16 759.812 2
3 6 10 10922 1244.56 2
-3 -6 10 9530.12 468.942 2
3 6 11 13228.3 1381.38 2
3 6 12 6470.17 1007.51 2
3 6 13 8207.87 1131.18 2
3 6 14 3654.57 773.479 2
3 6 15 3629.99 811.086 2
3 6 16 2034.72 616.259 2
3 6 17 21821.8 1976.74 2
3 6 18 1076.87 496.693 2
3 6 19 487.839 378.756 2
3 6 20 4285.54 947.389 2
3 6 21 650.059 391.763 2
3 6 22 2993.33 820.994 2
3 6 23 1067.5 509.925 2
3 6 24 899.093 490.982 2
3 6 25 993.217 517.996 2
3 6 26 -218.386 307.999 2
3 6 27 2036.39 949.097 1
-3 7 26 -930.921 592.414 1
-3 7 25 -682.128 508.989 1
-3 7 24 2440.28 835.108 1
-3 7 23 -85.5646 290.825 1
-3 7 22 962.711 482.907 1
3 -7 22 922.817 476.371 2
-3 7 21 322.736 318.779 1
3 -7 21 -74.0939 180.638 2
3 -7 20 907.922 390.338 2
-3 7 20 1875.4 694.76 1
3 -7 19 9778.18 1343.82 2
-3 7 19 10964.8 1579.8 1
3 -7 18 2618.85 712.778 2
-3 7 18 3344.42 632.086 2
-3 7 18 2616.32 789.156 1
-3 7 17 3130.45 613.67 2
3 -7 17 2400.02 674.355 2
-3 7 17 2326.79 701.933 1
-3 7 16 4747.48 975.337 1
-3 7 16 4091.47 691.396 2
3 -7 16 4104.13 840.978 2
3 -7 15 2009 577.95 2
-3 7 15 2593.79 724.903 1
-3 7 15 3304.68 615.518 2
3 -7 14 371.492 340.715 2
-3 7 14 440.366 319.985 1
-3 7 14 161.813 175.181 2
-3 7 13 15034.4 1576.68 1
-3 7 13 15954.5 1311.39 2
-3 7 12 9856.59 1237.96 1
-3 7 12 9396.33 998.414 2
-3 7 11 3077.47 690.795 1
-3 7 11 3035.98 562.243 2
-3 7 10 3123.22 572.246 2
-3 7 9 20374.3 1432.23 2
3 7 -9 21701.1 913.004 2
-3 7 8 18449.6 1361.89 2
3 7 -8 17435.1 884.423 2
-3 7 7 23428.8 1525.94 1
3 7 -7 20698.6 1005.95 2
3 7 -6 29617 1271.56 2
-3 7 6 31526.2 1673.21 1
3 7 -5 287.38 133.67 2
-3 7 5 475.771 219.128 1
-3 7 4 5834.15 651.384 1
3 7 -4 5252.37 594.246 2
-3 7 3 8994.59 734.488 1
3 7 -3 9481 822.492 2
-3 7 2 36668.4 1351.69 1
3 7 -2 36573.3 1644.75 2
3 7 -1 3153.42 507.597 2
-3 7 1 3857.42 396.516 1
3 7 0 40901.9 1863.14 2
3 7 1 3831.14 600.584 2
3 7 2 38130.7 1912.55 2
3 7 3 9566.22 989.97 2
3 7 4 5769.39 771.251 2
3 7 5 518.824 373.24 2
3 7 6 30478.6 1933.34 2
3 7 7 24398.6 1754.66 2
-3 -7 7 19170 1024.56 2
3 7 8 18282.2 1561.81 2
-3 -7 8 15261.5 862.655 2
3 7 9 23494.7 1810.29 2
-3 -7 9 18406.8 888.538 2
-3 -7 10 2474.3 298.291 2
3 7 10 2645.55 601.776 2
-3 -7 11 2024.84 237.681 2
3 7 11 2123.59 540.753 2
3 7 12 10340.6 1274.04 2
3 7 13 16109.7 1618.37 2
3 7 14 181.182 225.894 2
3 7 15 2618.82 644.152 2
3 7 16 4538.71 906.486 2
3 7 17 1953.17 642.753 2
3 7 18 3067.35 797.282 2
3 7 19 8806.21 1337.74 2
3 7 20 1149.39 482.397 2
3 7 21 33.8444 192.952 2
3 7 22 621.995 370.441 2
3 7 23 -111.143 254.024 2
3 7 24 2422.72 769.977 2
3 7 25 -116.372 231.632 2
3 7 26 360.937 411.476 2
-3 8 26 598.467 553.273 1
-3 8 25 937.148 590.226 1
-3 8 24 4873.73 1232.46 1
-3 8 23 1759.75 776.243 1
-3 8 22 1241.43 571.613 1
3 -8 21 867.425 441.184 2
-3 8 21 327.417 285.998 1
-3 8 20 455.154 375.032 1
3 -8 20 847.568 448.341 2
-3 8 19 1440.84 455.052 2
-3 8 19 1439.2 597.666 1
3 -8 19 1654.4 542.396 2
-3 8 18 7686.43 1308.08 1
-3 8 18 6296.61 914.184 2
3 -8 18 8217.83 1247.46 2
-3 8 17 15341.1 1782.08 1
3 -8 17 12666 1524.51 2
-3 8 17 13784.9 1336.94 2
3 -8 16 3143.52 758.006 2
-3 8 16 2705.11 743.266 1
-3 8 16 2659.15 582.039 2
-3 8 15 2594.32 662.918 1
-3 8 15 4095.1 719.277 2
-3 8 14 4445.23 876.711 1
-3 8 14 2420.5 551.659 2
-3 8 13 6714.94 1052.46 1
-3 8 13 7247.17 939.405 2
-3 8 12 9191.33 1198.2 1
-3 8 12 9400.9 1048.2 2
-3 8 11 4669.85 856.858 1
-3 8 11 5186.97 782.09 2
-3 8 10 12016.4 1275.1 1
-3 8 10 11297.8 1127.03 2
3 8 -9 6309.85 558.728 2
-3 8 9 5199.58 759.234 2
3 8 -8 20503.9 1057.1 2
-3 8 8 18637.2 1433.33 2
-3 8 7 13166.7 1194.41 2
3 8 -7 12081 845.281 2
3 8 -6 25506 1275.56 2
-3 8 6 25813.8 1553.54 1
3 8 -5 366.041 182.177 2
-3 8 5 252.757 180.643 1
-3 8 4 11342.6 943.161 1
3 8 -4 13326.4 978.502 2
3 8 -3 310.696 152.434 2
-3 8 3 783.362 236.577 1
3 8 -2 18567.2 1235.1 2
-3 8 2 19255.3 1017.27 1
-3 8 1 9389.99 647.8 1
3 8 -1 8953.25 886.785 2
3 8 0 16.8048 100.58 2
-3 8 0 4.72721 50.5846 1
-3 8 -1 8289.4 424.869 1
3 8 1 7980.59 891.868 2
3 8 2 16821.2 1306.35 2
3 8 3 408.55 248.935 2
3 8 4 10810 1131.4 2
3 8 5 247.743 225.422 2
3 8 6 24983.4 1784.87 2
3 8 7 14165.9 1377.3 2
3 8 8 19729.3 1646.54 2
-3 -8 9 6545.85 587.991 2
3 8 9 7392.43 1058.93 2
-3 -8 10 11649 742.862 2
3 8 10 11280.3 1305.34 2
3 8 11 4811.14 878.011 2
3 8 12 11703.4 1382.26 2
3 8 13 6592.92 1074.21 2
3 8 14 4127.28 854.721 2
3 8 15 4277.27 923.15 2
3 8 16 2321.77 707.757 2
3 8 17 14702.1 1680.11 2
3 8 18 8135.9 1256.8 2
3 8 19 1061.75 499.817 2
3 8 20 1830.03 624.287 2
3 8 21 427.193 366.018 2
3 8 22 1253.98 625.383 2
3 8 23 2356.39 759.151 2
3 8 24 5938.02 1188.27 2
3 8 25 3325.13 881.888 2
3 8 26 570.484 386.417 2
-3 9 26 331.175 544.915 1
-3 9 25 2190.68 888.463 1
-3 9 24 222.456 310.481 1
-3 9 23 108.674 437.322 1
-3 9 22 -38.6022 423.094 1
3 -9 21 968.457 484.004 2
-3 9 21 946.182 516.018 1
-3 9 20 1948.27 779.289 1
3 -9 20 1495.67 550.37 2
3 -9 19 1754.67 650.37 2
-3 9 19 2318.16 779.144 1
-3 9 19 2125.96 580.928 2
-3 9 18 6376.74 963.592 2
-3 9 18 5540.33 1147.24 1
3 -9 18 6322.28 1102.11 2
3 -9 17 2186.48 634.161 2
-3 9 17 1582.06 589.583 1
-3 9 17 3536.38 718.665 2
-3 9 16 2843.75 805.69 1
-3 9 16 2802.69 637.593 2
-3 9 15 4343.64 938.64 1
-3 9 15 3553.65 716.419 2
-3 9 14 4846.08 950.556 1
-3 9 14 5145.04 835.249 2
-3 9 13 31852.7 2041.53 2
-3 9 13 29515.2 2239.09 1
-3 9 12 3664.34 796.624 1
-3 9 12 3973.96 735.178 2
-3 9 11 2472.94 582.137 2
-3 9 11 2323.43 596.415 1
-3 9 10 10101.5 1185.37 1
3 9 -10 11218.5 794.129 2
-3 9 10 13127.5 1284.13 2
3 9 -9 10631.8 803.343 2
-3 9 9 11122 1165.85 2
3 9 -8 12142.8 894.139 2
-3 9 8 12443.1 1222.37 2
-3 9 7 203.268 162.341 2
3 9 -7 480.09 169.314 2
-3 9 6 4277.79 681.941 1
3 9 -6 3949.62 559.924 2
-3 9 5 5111.66 685.153 1
3 9 -5 3972.62 550.587 2
3 9 -4 1758.09 370.938 2
-3 9 4 1951.97 407.658 1
-3 9 3 5921.5 648.657 1
3 9 -3 5693.43 704.256 2
3 9 -2 2861.12 508.777 2
-3 9 2 2862.79 420.676 1
3 9 -1 6012.26 759.331 2
-3 9 1 5778.49 534.147 1
3 9 0 5431.19 728.858 2
-3 9 0 5119.84 438.284 1
3 9 1 6074.48 807.268 2
-3 9 -1 5782.07 391.205 1
3 9 2 2517.49 531.253 2
3 9 3 5950.68 842.994 2
3 9 4 2219.21 527.072 2
3 9 5 4223.97 735.827 2
3 9 6 4993.66 857.66 2
3 9 7 713.4 363.687 2
3 9 8 11455.7 1290.85 2
3 9 9 10390.2 1277.17 2
3 9 10 12791 1446.04 2
3 9 11 2237.58 632.513 2
3 9 12 2396.6 680.163 2
3 9 13 33619.9 2472.21 2
3 9 14 4766.45 958.275 2
3 9 15 3207.23 778.001 2
3 9 16 2556.39 735.13 2
3 9 17 2809.98 764.597 2
3 9 18 7441.48 1237.28 2
3 9 19 2255.46 690.024 2
3 9 20 2155.56 691.026 2
3 9 21 -98.1852 351.375 2
3 9 22 -148.088 172.689 2
3 9 23 987.616 498.072 2
3 9 24 1853.63 688.423 2
3 9 25 1591.42 637.389 2
3 9 26 153.973 243.479 2
3 9 27 558.642 412.398 2
-3 10 25 289.598 437.211 1
-3 10 24 3080.66 1009.57 1
-3 10 23 -845.624 543.152 1
-3 10 22 202.468 364.888 1
-3 10 21 4159.37 1082.66 1
-3 10 20 3328 960.256 1
3 -10 20 3334.61 839.835 2
-3 10 19 1405.68 594.252 1
-3 10 19 759.202 375.119 2
3 -10 19 208.979 286.767 2
3 -10 18 1867.43 650.601 2
-3 10 18 1540.32 615.209 1
-3 10 18 2307.92 613.643 2
-3 10 17 384.984 399.215 1
-3 10 17 118.86 130.652 2
-3 10 16 3395.89 854.921 1
-3 10 16 3444.27 720.722 2
-3 10 15 8649.39 1141.18 2
-3 10 15 7577.74 1238.78 1
-3 10 14 2675.08 634.04 2
-3 10 14 2356.31 704.471 1
-3 10 13 5026.84 938.241 1
-3 10 13 7808.28 1067.9 2
-3 10 12 6134.75 1053.54 1
-3 10 12 5834.43 905.731 2
-3 10 11 7303.57 1059.51 1
-3 10 11 7430.68 1027.75 2
-3 10 10 14469.4 1448.08 1
3 10 -10 16121.6 1036.2 2
-3 10 10 16347.4 1492.69 2
3 10 -9 6201.04 668.069 2
-3 10 9 5942.23 880.382 2
-3 10 9 5610.11 879.384 1
3 10 -8 6135.14 683.138 2
-3 10 8 5035.57 817.376 2
-3 10 7 5166.81 842.708 2
3 10 -7 6122.88 708.516 2
-3 10 6 10940.8 1067.79 1
3 10 -6 11611.7 986.321 2
-3 10 5 16955.1 1255.08 1
3 10 -5 17250.1 1232.52 2
-3 10 4 17174.6 1197.22 1
3 10 -4 17645.7 1268.44 2
3 10 -3 -22.7432 132.805 2
3 10 -2 5137.52 723.501 2
3 10 -1 5301.37 752.925 2
-3 10 1 6605.68 591.267 1
3 10 0 48.2374 155.25 2
-3 10 0 154.777 111.901 1
-3 10 -1 5982.74 443.598 1
3 10 1 5629.79 814.422 2
3 10 2 6000.83 848.518 2
-3 10 -2 5070.95 323.817 1
3 10 3 256.186 281.612 2
3 10 4 16442.3 1485.92 2
3 10 5 18102.6 1570.96 2
3 10 6 13054.7 1357.95 2
3 10 7 5744.78 925.56 2
3 10 8 7125.66 1067.84 2
3 10 9 6746.5 1080.08 2
3 10 10 15940.8 1617.15 2
3 10 11 9520.09 1281.83 2
3 10 12 6280.22 1029.02 2
3 10 13 6027.88 1050.46 2
3 10 14 3458.72 843.086 2
3 10 15 7110.56 1169.53 2
3 10 16 4042.39 890.708 2
3 10 17 506.85 379.354 2
3 10 18 1654.39 605.74 2
3 10 19 219.402 210.874 2
3 10 20 2713.61 771.89 2
3 10 21 2055.11 709.328 2
3 10 22 -413.233 398.97 2
3 10 23 412.864 374.465 2
3 10 24 2356.58 781.294 2
3 10 25 557.949 392.344 2
3 10 26 12.313 287.19 2
3 10 27 400.498 372.85 2
-3 11 25 -4.67095 246.737 1
-3 11 24 826.19 585.83 1
-3 11 23 -723.544 523.679 1
-3 11 22 1434.69 686.036 1
-3 11 21 824.106 505.356 1
-3 11 20 575.385 542.104 1
-3 11 20 500.339 366.302 2
3 -11 20 594.599 373.003 2
-3 11 19 2258.93 761.732 1
3 -11 19 2075.92 672.939 2
-3 11 19 2744.44 691.261 2
-3 11 18 5367.12 1184.84 1
3 -11 18 5151.76 1034.58 2
-3 11 18 6014.55 1024.7 2
-3 11 17 1354.13 597.762 1
-3 11 17 1522.61 530.711 2
-3 11 16 -15.9445 146.806 2
-3 11 16 723.922 433.87 1
-3 11 15 2113.69 610.189 2
-3 11 15 1849.91 650.691 1
-3 11 14 2520.84 639.829 2
-3 11 14 2137.09 662.891 1
-3 11 13 2435.18 658.572 2
-3 11 13 1888.01 627.828 1
-3 11 12 3392.84 736.764 2
-3 11 12 3956.74 865.741 1
-3 11 11 2691.96 681.792 1
-3 11 11 2639.41 599.862 2
3 11 -10 10411.9 907.339 2
-3 11 10 11504.9 1334.95 1
-3 11 10 11260 1287.74 2
-3 11 9 4750.66 850.985 1
-3 11 9 6248.34 964.389 2
3 11 -9 5531.36 676.859 2
3 11 -8 16224.6 1189.9 2
-3 11 8 17338.8 1591.05 2
-3 11 7 1630.68 533.312 2
3 11 -7 1329.05 361.425 2
3 11 -6 7000.81 812.152 2
3 11 -5 2027.92 465.787 2
3 11 -4 12121.1 1106.69 2
3 11 -3 9705.56 1021.89 2
3 11 -2 894.24 340.689 2
3 11 -1 18465.1 1457 2
3 11 0 4544.39 748.646 2
3 11 1 17361.6 1469.4 2
3 11 2 1529.98 459.992 2
3 11 3 10414.4 1191.71 2
3 11 4 11442.6 1260.83 2
3 11 5 3737.68 732.32 2
3 11 6 7482.65 1054.59 2
3 11 7 1000.47 441.109 2
3 11 8 17785 1688.07 2
3 11 9 5446.79 973.571 2
3 11 10 11694.8 1428.65 2
3 11 11 2805.69 728.889 2
3 11 12 5378.59 1003.02 2
3 11 13 2868 762.881 2
3 11 14 2081.68 618.478 2
3 11 15 2261.13 647.207 2
3 11 16 98.6357 213.388 2
3 11 17 1937.78 674.297 2
3 11 18 5863.31 1142.02 2
3 11 19 2522.39 778.155 2
3 11 20 658.245 425.472 2
3 11 21 -169.517 396.574 2
3 11 22 1541.02 638.22 2
3 11 23 21.6487 219.174 2
3 11 24 1661.8 738.056 2
3 11 25 335.387 339.341 2
3 11 26 0.98039 335.127 2
-3 12 24 731.848 621.31 1
-3 12 23 1141.33 686.034 1
-3 12 22 159.456 301.296 1
-3 12 21 1788.84 753.101 1
-3 12 20 77.626 336.755 1
-3 12 20 34.643 133.422 2
-3 12 19 1459.79 701.459 1
3 -12 19 978.294 485.715 2
-3 12 19 626.581 344.495 2
-3 12 18 1705.08 651.086 1
-3 12 18 729.024 431.159 2
-3 12 17 334.767 274.123 2
-3 12 17 -22.1276 236.038 1
-3 12 16 1079.59 444.282 2
-3 12 16 1384.74 622.432 1
-3 12 15 1678 545.956 2
-3 12 15 2085.81 728.604 1
-3 12 14 1611.04 547.674 2
-3 12 14 831.074 393.21 1
-3 12 13 995.772 471.084 2
-3 12 13 1891.62 618.023 1
-3 12 12 1214.85 562.469 1
-3 12 12 239.225 236.913 2
-3 12 11 1631.2 605.824 1
-3 12 11 1513.15 486.733 2
-3 12 10 1462.83 532.035 1
-3 12 10 1917.11 557.971 2
3 12 -10 2379.05 474.647 2
-3 12 9 2209.75 668.159 2
3 12 -9 1341.36 366.406 2
-3 12 8 26690 2052.83 2
3 12 -8 25011.8 1555.64 2
3 12 -7 11481.8 1082.4 2
-3 12 7 11487.3 1329.09 2
3 12 -6 4852.59 723.691 2
3 12 -5 20124.5 1474.12 2
3 12 -4 3753.18 662.437 2
3 12 -3 3425.97 636.85 2
3 12 -2 1452.09 458.895 2
3 12 -1 2488.34 574.767 2
3 12 0 575.98 341.549 2
3 12 1 3289.62 672.096 2
3 12 2 795.851 347.895 2
3 12 3 4195.72 796.382 2
3 12 4 4652.75 831.32 2
3 12 5 19344.4 1728.73 2
3 12 6 4570.29 871.905 2
3 12 7 12864 1464.63 2
3 12 8 25463.9 2088.51 2
3 12 9 2838.47 792.048 2
3 12 10 1465.04 597.463 2
3 12 11 1049.72 464.394 2
3 12 12 794.29 419.725 2
3 12 13 1493.9 527.511 2
3 12 14 948.289 481.021 2
3 12 15 346.771 227.485 2
3 12 16 78.6745 293.657 2
3 12 17 771.807 456.522 2
3 12 18 282.29 287.493 2
3 12 19 450.552 316.404 2
3 12 20 -252.668 254.032 2
3 12 21 3148.92 856.6 2
3 12 22 598.149 397.053 2
3 12 23 -233.265 284.364 2
3 12 24 -0.96167 348.245 2
3 12 25 915.521 556.428 2
3 12 26 101.526 368.383 2
-3 13 24 487.811 485.604 1
-3 13 23 7.84681 195.228 1
-3 13 22 248.444 364.179 1
-3 13 21 1.02201 654.801 1
-3 13 20 145.507 287.534 1
-3 13 20 153.278 234.618 2
-3 13 19 758.162 447.479 1
-3 13 19 1204.64 483.606 2
-3 13 18 5.51606 156.017 2
-3 13 18 -257.318 275.356 1
-3 13 17 106.199 154.569 2
-3 13 17 224.482 348.205 1
-3 13 16 1652.64 572.798 2
-3 13 16 2830.48 817.803 1
-3 13 15 2494.44 667.805 2
-3 13 15 3153.1 853.947 1
-3 13 14 3682.98 837.001 2
-3 13 14 4437.42 973.742 1
-3 13 13 2484.06 740.899 1
-3 13 13 1952.43 604.731 2
-3 13 12 2660.45 732.483 1
-3 13 12 1819.62 572.239 2
-3 13 11 3694.57 813.741 1
-3 13 11 3290.66 759.646 2
3 13 -10 2249.09 472.504 2
-3 13 10 1428.15 489.681 2
3 13 -9 10523.8 1055.51 2
-3 13 9 10418.7 1355.56 2
3 13 -8 4224.07 679.631 2
-3 13 8 3402.08 764.521 2
-3 13 7 2362.6 659.839 2
3 13 -7 2837.42 588.27 2
3 13 -6 12673.7 1214.62 2
3 13 -5 10397.1 1115.54 2
3 13 -4 481.01 273.892 2
3 13 -3 6648.25 921.826 2
3 13 -2 623.919 266.75 2
3 13 -1 8544.38 1086.96 2
3 13 0 1903.44 544.207 2
3 13 1 9171.12 1155.68 2
3 13 2 1785.43 537.564 2
3 13 3 7518.54 1073.77 2
3 13 4 61.3475 209.793 2
3 13 5 10388.4 1332.43 2
3 13 6 10819.8 1374.9 2
3 13 7 3182.59 773.143 2
3 13 8 3566.58 827.066 2
3 13 9 10967.2 1443.47 2
3 13 10 2283.33 708.365 2
3 13 11 3337.96 790.802 2
3 13 12 1831.21 600.826 2
3 13 13 1886.55 668.708 2
3 13 14 4840.02 1037.74 2
3 13 15 3279.61 825 2
3 13 16 2245.04 718.898 2
3 13 17 700.198 474.755 2
3 13 18 262.98 198.687 2
3 13 19 298.952 267.177 2
3 13 20 275.908 330.918 2
3 13 21 649.546 475.758 2
3 13 22 -195.225 311.572 2
3 13 23 -15.573 190.007 2
3 13 24 709.145 572.56 2
3 13 25 1.02697 449.081 2
-3 14 23 2184.64 949.46 1
-3 14 22 22.0223 418.636 1
-3 14 21 29.5162 259.862 1
-3 14 20 139.191 376.623 1
-3 14 20 -178.978 206.375 2
-3 14 19 -378.709 306.57 2
-3 14 19 149.578 240.364 1
-3 14 18 326.4 295.114 2
-3 14 18 -41.251 246.399 1
-3 14 17 337.024 384.464 1
-3 14 17 223.333 238.582 2
-3 14 16 408.425 355.307 2
-3 14 16 1047.09 554.023 1
-3 14 15 396.863 366.213 2
-3 14 15 301.848 284.858 1
-3 14 14 3002.31 823.717 1
-3 14 14 2237.15 676.905 2
-3 14 13 333.096 294.02 1
-3 14 13 588.434 368.022 2
-3 14 12 9520.1 1360.33 1
-3 14 12 10331.9 1403.56 2
-3 14 11 4427.74 935.292 2
3 14 -10 2108.59 491.833 2
-3 14 10 1037.82 387.635 2
-3 14 9 5209.14 995.588 2
3 14 -9 4993.55 773.233 2
-3 14 8 1785.47 641.978 2
3 14 -8 2013.73 473.842 2
-3 14 7 3858.64 854.004 2
3 14 -7 4154.51 729.928 2
3 14 -6 8334.77 1037.6 2
3 14 -5 19299.9 1597.07 2
3 14 -4 10845.1 1212.34 2
3 14 -3 4143.59 778.03 2
3 14 -2 14588.8 1435.66 2
3 14 -1 3980.14 789.227 2
3 14 0 16980.9 1600.07 2
3 14 1 5947.41 982.193 2
3 14 2 14073.6 1499.88 2
3 14 3 5189.25 932.418 2
3 14 4 9955.04 1317.88 2
3 14 5 17581.6 1761.78 2
3 14 6 8554.27 1252.37 2
3 14 7 4314.51 902.983 2
3 14 8 2820.3 723.982 2
3 14 9 5285.03 1062.26 2
3 14 10 1881.09 643.197 2
3 14 11 3386.15 841.69 2
3 14 12 10364.8 1514.61 2
3 14 13 -153.414 310.63 2
3 14 14 1969.81 693.376 2
3 14 15 1276.46 625.627 2
3 14 16 -74.7106 397.851 2
3 14 17 441.231 237.939 2
3 14 18 56.3686 258.918 2
3 14 19 1149.25 601.015 2
3 14 20 241.246 259.317 2
3 14 21 -78.6219 364.618 2
3 14 22 675.065 587.234 2
3 14 23 431.158 507.144 2
3 14 24 124.763 283.953 2
-3 15 22 1445.7 733.785 1
-3 15 21 552.418 487.392 1
-3 15 20 308.116 335.384 1
-3 15 20 571.006 442.09 2
-3 15 19 503.223 328.579 2
-3 15 19 426.249 405.412 1
-3 15 18 2190.31 731.499 2
-3 15 18 2287.43 808.797 1
-3 15 17 -3.13726 245.58 2
-3 15 17 798.591 479.607 1
-3 15 16 806.827 469.771 1
-3 15 16 1007.02 481.122 2
-3 15 15 71.1662 188.418 2
-3 15 15 1098.84 505.961 1
-3 15 14 718.91 440.999 2
-3 15 14 1056.77 507.151 1
-3 15 13 -60.6618 226.647 1
-3 15 13 555.561 360.46 2
-3 15 12 110.377 291.853 1
-3 15 12 -71.4039 237.141 2
-3 15 11 17.766 321.19 2
3 15 -10 79.0831 148.256 2
-3 15 10 -119.72 292.573 2
-3 15 9 1385.54 600.635 2
3 15 -9 943.46 352.859 2
-3 15 8 628.761 345.965 2
3 15 -8 619.344 309.701 2
-3 15 7 546.196 411.572 2
3 15 -7 1012.83 397.975 2
3 15 -6 1492.77 459.388 2
3 15 -5 10781.5 1249.24 2
3 15 -4 1516.32 482.469 2
3 15 -3 3546.57 744.563 2
3 15 -2 9750.23 1235.31 2
3 15 -1 5247.93 930.044 2
3 15 0 20514.5 1829.19 2
3 15 1 4181.39 845.508 2
3 15 2 9848.05 1314.99 2
3 15 3 2907.14 721.003 2
3 15 4 1069.71 445.316 2
3 15 5 20133.3 1926.21 2
3 15 6 2772.22 773.408 2
3 15 7 599.773 488.574 2
3 15 8 624.529 316.665 2
3 15 9 789.825 467.838 2
3 15 10 250.331 321.04 2
3 15 11 -160.776 388.618 2
3 15 12 -219.823 364.596 2
3 15 13 576.053 243.263 2
3 15 14 819.449 410.351 2
3 15 15 797.407 427.451 2
3 15 16 531.588 408.256 2
3 15 17 773.419 495.969 2
3 15 18 5163.89 1155.76 2
3 15 19 622.056 298.817 2
3 15 20 130.493 156.88 2
3 15 21 288.387 284.766 2
3 15 22 1675.26 693.115 2
3 15 23 -282.286 350.321 2
-3 16 22 308.958 473.587 1
-3 16 21 454.232 520.294 1
-3 16 21 220.205 320.301 2
-3 16 20 -250.645 308.152 2
-3 16 20 -310.279 373.658 1
-3 16 19 105.838 236.444 2
-3 16 19 628.137 523.606 1
-3 16 18 409.264 392.423 2
-3 16 18 558.234 505.538 1
-3 16 17 -371.23 354.764 2
-3 16 17 456.305 372.994 1
-3 16 16 3041.2 828.12 2
-3 16 16 3800.37 991.603 1
-3 16 15 1278.25 641.155 1
-3 16 15 -241.674 344.671 2
-3 16 14 1107.71 514.411 1
-3 16 14 961.172 466.106 2
-3 16 13 880.558 531.898 1
-3 16 13 908.632 531.581 2
-3 16 12 -238.924 284.968 2
-3 16 11 1496.42 539.159 2
-3 16 10 1406.29 595.83 2
-3 16 9 1214.63 578.515 2
3 16 -9 1014.6 397.275 2
-3 16 8 5292.81 1052.42 2
3 16 -8 3821.98 754.964 2
3 16 -7 596.698 311.664 2
3 16 -6 2348.35 600.358 2
3 16 -5 762.831 357.014 2
3 16 -4 858.836 356.377 2
3 16 -3 6036.71 999.656 2
3 16 -2 -4.03873 199.735 2
3 16 -1 1630.36 527.494 2
3 16 0 1858.62 614.541 2
3 16 1 1942.9 616.1 2
3 16 2 420.948 320.022 2
3 16 3 6556.85 1122.38 2
3 16 4 1133.88 508.65 2
3 16 5 1212.63 479.019 2
3 16 6 1753.64 619.723 2
3 16 7 385.108 455.055 2
3 16 8 4967.64 1064.4 2
3 16 9 949.115 451.655 2
3 16 10 928.323 415.497 2
3 16 11 889.34 430.802 2
3 16 12 -205.997 388.143 2
3 16 13 994.234 492.528 2
3 16 14 746.656 525.707 2
3 16 15 -368.04 274.979 2
3 16 16 3139.42 954.309 2
3 16 17 -434.835 383.36 2
3 16 18 89.8614 246.434 2
3 16 19 -34.7518 216.533 2
3 16 20 235.65 294.482 2
3 16 21 1063.55 651.979 2
-3 17 21 579.74 577.88 1
-3 17 21 330.731 407.479 2
-3 17 20 541.725 416.904 2
-3 17 20 -325.973 380.084 1
-3 17 19 1078.64 545.359 2
-3 17 19 359.425 415.632 1
-3 17 18 315.691 374.995 2
-3 17 18 65.2015 235.482 1
-3 17 17 253.203 254.599 2
-3 17 17 258.048 443.352 1
-3 17 16 609.836 559.697 2
-3 17 16 332.781 302.269 1
-3 17 15 1649.57 655.845 1
-3 17 15 1718.53 653.579 2
-3 17 14 958.192 507.263 1
-3 17 14 456.906 384.574 2
-3 17 13 -183.483 262.59 1
-3 17 13 -99.033 294.065 2
-3 17 12 729.766 400.307 2
-3 17 11 491.214 302.585 2
-3 17 10 1656.28 635.638 2
3 17 -9 901.656 345.298 2
-3 17 9 839.996 459.911 2
-3 17 8 418.987 391.413 2
3 17 -8 463.668 287.741 2
3 17 -7 9607.98 1235.85 2
3 17 -6 1550.26 521.122 2
3 17 -5 4150.24 846.437 2
3 17 -4 3701.69 814.81 2
3 17 -3 9279.11 1282.04 2
3 17 -2 4923.98 935.886 2
3 17 -1 2397.91 699.658 2
3 17 0 296.501 268.89 2
3 17 1 3771.18 860.093 2
3 17 2 4386.04 954.005 2
3 17 3 8923.73 1335.12 2
3 17 4 3881.52 898.333 2
3 17 5 5647.28 1108.55 2
3 17 6 1242.88 583.339 2
3 17 7 8699.84 1399.46 2
3 17 8 1148.91 540.991 2
3 17 9 331.64 247.718 2
3 17 10 1744.68 631.622 2
3 17 11 1165.7 568.724 2
3 17 12 1148.98 536.197 2
3 17 13 -8.02027 369.978 2
3 17 14 1876.72 749.774 2
3 17 15 1861.58 716.588 2
3 17 16 95.4056 308.222 2
3 17 17 332.41 341.699 2
3 17 18 -424.52 389.915 2
3 17 19 1821.22 744.485 2
-3 18 20 -135.92 258.308 2
-3 18 20 43.2157 308.782 1
-3 18 19 932.543 556.266 2
-3 18 19 894.843 660.052 1
-3 18 18 29.0418 201.602 2
-3 18 18 151.056 274.591 1
-3 18 17 129.559 243.293 2
-3 18 17 394.751 423.373 1
-3 18 16 703.167 469.674 2
-3 18 16 367.521 337.354 1
-3 18 15 -81.3013 203.474 1
-3 18 15 432.7 436.519 2
-3 18 14 1741.52 693.96 2
-3 18 14 1062.7 536.213 1
-3 18 13 1038.31 497.048 1
-3 18 13 -153.923 249.404 2
-3 18 12 876.405 546.26 2
-3 18 11 751.211 354.323 2
-3 18 10 3104.94 859.777 2
3 18 -9 419.661 233.064 2
-3 18 9 803.838 508.312 2
3 18 -8 788.408 372.18 2
3 18 -7 363.863 284.733 2
3 18 -6 224.555 214.924 2
3 18 -5 2803.19 724.696 2
3 18 -4 264.25 279.93 2
3 18 -3 2148.63 648.337 2
3 18 -2 1255.17 501.206 2
3 18 -1 -6.16697 199.151 2
3 18 0 1189.12 480.31 2
3 18 1 -125.086 262.922 2
3 18 2 1056.73 492.021 2
3 18 3 1721.11 650.302 2
3 18 4 -224.546 404.61 2
3 18 5 3318.34 887.04 2
3 18 6 617.572 334.411 2
3 18 7 279.112 257.497 2
3 18 8 1801.79 666.286 2
3 18 9 535.134 463.71 2
3 18 10 5385.14 1157.58 2
3 18 11 1204.98 542.135 2
3 18 12 45.8931 323.843 2
3 18 13 841.069 488.846 2
3 18 14 1411.04 628.675 2
3 18 15 48.4571 283.747 2
3 18 16 499.941 446.078 2
3 18 17 214.224 287.669 2
3 18 18 237.807 303.239 2
-3 19 19 -624.859 452.725 2
-3 19 18 822.868 522.76 2
-3 19 18 7.46815 202.2 1
-3 19 17 -235.706 298.084 2
-3 19 17 848.631 575.136 1
-3 19 16 -351.669 362.583 2
-3 19 15 809.532 561.029 2
-3 19 14 598.239 521.985 2
-3 19 13 556.287 508.508 2
-3 19 12 319.177 283.156 2
-3 19 11 -587.18 419.926 2
-3 19 10 1160.63 549.226 2
3 19 -8 236.055 263.823 2
3 19 -7 696.755 377.835 2
3 19 -6 2258.15 647.354 2
3 19 -5 239.889 263.944 2
3 19 -4 812.081 410.783 2
3 19 -3 337.987 266.799 2
3 19 -2 114.252 292.782 2
3 19 -1 176.746 250.461 2
3 19 0 1247.78 532.388 2
3 19 1 1428.02 593.944 2
3 19 2 231.504 342.853 2
3 19 3 593.657 390.686 2
3 19 4 430.645 343.367 2
3 19 5 83.3799 270.952 2
3 19 6 3188.95 874.134 2
3 19 7 1382.12 570.815 2
3 19 8 -337.066 411.871 2
3 19 9 947.58 578.319 2
3 19 10 797.415 373.005 2
3 19 11 251.827 316.666 2
3 19 12 646.071 587.037 2
3 19 13 296.44 382.58 2
3 19 14 766.097 478.687 2
3 19 15 339.125 322.522 2
3 19 16 -27.7908 260.669 2
-3 20 16 630.884 481.717 2
-3 20 15 641.577 493.659 2
-3 20 14 -769.651 508.34 2
-3 20 13 542.423 401.189 2
-3 20 12 1263.94 669.296 2
-3 20 11 1005.5 537.698 2
3 20 -8 118.663 197.343 2
3 20 -7 -32.0601 153.121 2
3 20 -6 90.291 152.93 2
3 20 -5 2154.49 677.186 2
3 20 -4 467.657 350.297 2
3 20 -3 56.0681 231.844 2
3 20 -2 1026.96 441.745 2
3 20 -1 -160.194 284.725 2
3 20 0 -146.873 246.692 2
3 20 1 -204.208 483.022 2
3 20 2 1348.14 562.273 2
3 20 3 -33.8284 279.105 2
3 20 4 -251.647 331.127 2
3 20 5 1273.76 568.443 2
3 20 6 187.229 279.04 2
3 20 7 526.173 449.331 2
3 20 8 46.734 262.407 2
3 20 9 868.532 451.417 2
3 20 10 4389.16 1154.68 2
3 20 11 1282.39 599.328 2
3 20 12 2401.23 814.142 2
3 20 13 2314.84 847.754 2
3 20 14 110.126 243.932 2
-3 21 13 1850 774.248 2
3 21 -7 795.961 423.319 2
3 21 -6 1346.56 558.791 2
3 21 -5 50.4447 163.063 2
3 21 -4 492.765 340.136 2
3 21 -3 -10.4935 158.704 2
3 21 -2 1.64914 226.187 2
3 21 -1 -556.315 407.714 2
3 21 0 1107.24 522.466 2
3 21 1 1127.6 562.898 2
3 21 2 570.177 425.521 2
3 21 3 -693.711 448.736 2
3 21 4 252.58 289.999 2
3 21 5 710.56 459.807 2
3 21 6 319.109 322.456 2
3 21 7 188.203 269.685 2
3 21 8 739.523 468.867 2
3 21 9 172.776 248.756 2
3 21 10 11.349 254.315 2
3 21 11 638.887 440.664 2
3 22 -6 1978.55 685.398 2
3 22 -5 288.988 257.094 2
3 22 -4 -799.59 470.326 2
3 22 -3 1315.39 655.061 2
3 22 -2 890.91 490.176 2
3 22 -1 1088.42 555.047 2
3 22 0 189.644 282.981 2
3 22 1 1626.23 694.287 2
3 22 2 828.927 522.23 2
3 22 3 911.138 504.354 2
3 22 4 -44.9639 177.472 2
3 22 5 -279.386 430.584 2
3 22 6 1329.99 686.611 2
3 22 7 -522.299 449.319 2
3 22 8 734.22 483.75 2
3 23 -6 3722.94 964.719 2
3 23 -5 36.0943 167.501 2
3 23 -4 -423.983 351.599 2
3 23 -3 -675.784 452.75 2
3 23 -2 171.899 250.533 2
3 23 -1 162.061 316.93 2
3 23 0 -263.661 319.881 2
3 23 1 -794.325 506.211 2
3 23 2 711.204 542.435 2
3 23 3 720.116 497.194 2
3 23 4 76.8712 226.706 2
3 23 5 -85.5516 218.853 2
3 24 -5 -178.407 290.746 2
3 24 -4 192.122 277.505 2
3 24 -3 -308.61 318.616 2
3 24 -2 -63.7898 231.929 2
3 24 -1 1642.34 706.793 2
3 24 0 480.501 451.838 2
3 24 1 281.19 376.731 2
4 0 0 169.655 176.836 2
4 0 1 2410.09 475.204 2
4 0 -1 2300.83 434.872 2
4 0 2 16950.3 1289.15 2
4 0 -2 16444.3 1142.91 2
4 0 3 21047 1484.93 2
4 0 -3 23727.2 1316.1 2
4 0 4 13828.9 1231.66 2
4 0 5 17.1357 182.3 2
4 0 6 4059.88 704.921 2
4 0 7 2596.33 593.424 2
4 0 8 4889.95 878.726 2
4 0 -8 1257.2 238.949 2
4 0 9 188.968 243.161 2
4 0 -9 164.442 82.1628 2
4 0 10 -36.5181 279.703 2
4 0 -10 27.7526 33.8415 2
4 0 11 10285.2 1288.02 2
4 0 -11 8732.83 517.596 2
4 0 12 17149.7 1655.37 2
4 0 -12 14762.6 633.247 2
4 0 13 9029.53 1217.42 2
4 0 -13 6827.33 403.265 2
4 0 14 1976.82 597.12 2
4 0 15 7673.37 1163.03 2
4 0 16 2103.79 656.695 2
4 0 17 7167.01 1156.6 2
4 0 18 292.897 302.449 2
4 0 19 990.556 547.961 2
4 0 20 1071.93 523.551 2
4 0 21 -116.638 189.83 2
4 0 22 2890.1 834.928 2
4 0 23 1435.85 609.653 1
4 0 23 465.184 292.234 2
4 0 24 2922.79 846.294 1
4 0 24 2286.28 721.512 2
4 0 25 937.57 481.636 2
4 0 25 163.533 342.066 1
4 0 26 429.255 455.737 1
4 0 27 64.6892 348.098 1
4 0 28 345.726 433.772 1
4 -1 27 469.936 399.766 1
4 -1 26 481.17 400.793 1
4 -1 25 1079.11 536.508 2
4 -1 25 -343.682 323.337 1
4 -1 24 1078.41 501.138 2
4 -1 24 967.145 502.489 1
4 -1 23 2847.55 805.419 1
4 -1 23 3540.09 901.443 2
4 -1 22 205.47 303.253 1
4 -1 22 99.8482 251.584 2
4 -1 21 2261.14 659.455 1
4 -1 21 2383.74 691.787 2
4 -1 20 2856.23 799.47 2
4 -1 19 3538.2 838.964 2
4 -1 18 36.8772 307.258 2
4 -1 17 12334.7 1518.34 2
4 -1 16 357.277 275.52 2
4 -1 15 1098.5 508.314 2
4 -1 14 16172.7 1668.32 2
4 -1 13 1740.79 583.011 2
4 -1 12 3129.07 724.954 2
4 -1 11 4248.23 806.528 2
4 1 -11 2555.23 239.101 2
4 1 -11 2941.82 233.542 2
4 -1 10 2593.59 634.697 2
4 1 -10 2732.47 262.687 2
4 1 -10 2608.04 283.098 2
4 1 -9 26229.7 906.372 2
4 -1 9 27742.1 1954.16 2
4 1 -9 27179.7 996.312 2
4 -1 8 920.188 408.031 2
4 1 -8 1681.5 277.357 2
4 1 -7 6344.93 559.096 2
4 -1 7 7938.7 1003.09 2
4 1 -6 2928.66 397.571 2
4 -1 6 2837.23 600.232 2
4 1 -5 17444.9 1022.54 2
4 -1 5 19244.4 1494.05 2
4 1 -4 10186.7 818.664 2
4 -1 4 11117.9 1113.28 2
4 -1 3 2443.05 513.113 2
4 1 -3 2659 437.818 2
4 1 -2 27382.3 1426.52 2
4 -1 2 26954.5 1627.67 2
4 1 -1 15493.7 1118.63 2
4 1 0 33911.8 1709.36 2
4 1 1 16581.6 1227.39 2
4 1 2 27787 1634.39 2
4 1 3 2682.83 548.988 2
4 1 4 10652.1 1083.99 2
4 1 5 18236.3 1454.43 2
4 1 6 3105.28 632.633 2
4 1 7 6549.71 920.235 2
4 1 8 1407.95 481.971 2
4 -1 -8 1155.93 237.801 2
4 -1 -9 25175.8 1081.7 2
4 1 9 26843.5 1957.11 2
4 1 10 2989.07 682.175 2
4 -1 -10 2565.94 338.065 2
4 1 11 4686.65 870.175 2
4 -1 -11 3160.23 361.678 2
4 1 12 2930.91 688.03 2
4 -1 -12 3071.96 345.779 2
4 1 13 1789.11 554.122 2
4 -1 -13 1983.05 276.794 2
4 1 14 15248.8 1627.33 2
4 1 15 1376.69 539.943 2
4 1 16 -108.222 276.353 2
4 1 17 12784.8 1571.1 2
4 1 18 966.295 492.33 2
4 1 19 3679.66 878.47 2
4 1 20 1722.53 579.06 2
4 1 21 1997.4 685.307 2
4 1 22 575.184 498.338 2
4 1 23 3202.08 873.605 2
4 1 24 1689.17 672.217 1
4 1 24 1001.15 484.68 2
4 1 25 196.776 338.704 1
4 1 25 -738.001 442.827 2
4 1 26 400.206 362.705 2
4 1 26 608.802 414.08 1
4 1 27 575.742 503.405 1
4 1 28 46.9623 177.774 1
4 1 29 124.66 376.469 1
4 -2 25 1044.85 540.923 1
4 -2 25 1229.52 570.65 2
4 -2 24 786.216 425.362 1
4 -2 24 619.524 416.394 2
4 -2 23 1191.08 522.753 2
4 -2 23 367.407 308.565 1
4 -2 22 3671.75 861.967 1
4 -2 22 4791.73 1044.71 2
4 -2 21 136.792 304.729 2
4 -2 21 766.372 408.493 1
4 -2 20 972.6 512.361 2
4 -2 20 948.924 465.55 1
4 -2 19 11379 1518.43 2
4 -2 18 519.559 449.506 2
4 -2 17 104.989 239.754 2
4 -2 16 3174.24 778.505 2
4 -2 15 13477.4 1553.28 2
4 -2 14 357.878 306.232 2
4 -2 13 4732.06 918.355 2
4 -2 12 5765.86 996.729 2
4 -2 11 1756.98 542.394 2
4 2 -10 2585.08 202.522 2
4 2 -10 2490.65 212.688 2
4 -2 10 2824.7 655.564 2
4 2 -9 7290.6 461.468 2
4 -2 9 7078.13 1011.9 2
4 2 -8 3639.48 374.007 2
4 -2 8 3209.15 690.703 2
4 2 -7 15104.7 833.096 2
4 -2 7 17489 1525.48 2
4 2 -6 19015.2 1008.7 2
4 -2 6 20690.5 1598.16 2
4 -2 5 1652.13 504.804 2
4 2 -5 1329.3 282.788 2
4 2 -4 12605.1 903.116 2
4 2 -3 60767 2064.97 2
4 2 -2 3983.87 550.658 2
4 2 -1 15729.2 1141.65 2
4 2 0 24017.4 1446.33 2
4 2 1 16015.5 1214.11 2
4 2 2 4815.11 699.221 2
4 2 3 64022.2 2589.43 2
4 2 4 13106.8 1206.32 2
4 2 5 1464.85 437.644 2
4 2 6 18568.4 1512.58 2
4 2 7 18396.3 1555.74 2
4 2 8 3098.44 684.986 2
4 2 9 8368.11 1063.91 2
4 2 10 2551.7 632.229 2
4 2 11 1053.35 441.174 2
4 2 12 6887.5 1043.52 2
4 2 13 4541.53 867.129 2
4 2 14 -9.52049 177.422 2
4 2 15 14845.3 1626.79 2
4 2 16 3410.48 786.4 2
4 2 17 -195.342 306.761 2
4 2 18 430.528 306.057 2
4 2 19 10589.8 1498.26 2
4 2 20 2181.74 698.721 2
4 2 21 445.512 354.889 2
4 2 22 2175.45 716.524 2
4 2 23 1039.49 491.182 2
4 2 24 200.509 283.097 2
4 2 25 1360.13 655.643 1
4 2 25 1646.7 645.364 2
4 2 26 185.924 323.116 2
4 2 26 377.459 442.043 1
4 2 27 703.078 469.382 1
4 2 28 564.582 487.17 1
4 2 29 -213.706 317.364 1
4 -3 24 1863.89 634.193 1
4 -3 24 2371.52 739.699 2
4 -3 23 1039.33 499.301 1
4 -3 23 376.463 365.083 2
4 -3 22 387.856 296.074 1
4 -3 22 -32.2548 338.116 2
4 -3 21 626.164 454.673 2
4 -3 21 -43.8924 267.955 1
4 -3 20 1062.75 519.394 2
4 -3 20 786.352 321.153 1
4 -3 19 3008.67 692.309 1
4 -3 19 3910.31 912.288 2
4 -3 18 2363.42 700.726 2
4 -3 18 2091.45 559.91 1
4 -3 17 5790.15 1089.72 2
4 -3 16 263.263 352.477 2
4 -3 15 9215.27 1306.19 2
4 -3 14 1533.86 513.354 2
4 -3 13 1201.65 445.464 2
4 -3 12 185.292 210.033 2
4 -3 11 4574.21 832.31 2
4 -3 10 5218.81 899.214 2
4 -3 9 8119.4 1082.92 2
4 3 -9 6493.85 393.222 2
4 -3 8 2758.12 603.283 2
4 3 -8 2126.59 269.337 2
4 -3 7 7495.94 1002.77 2
4 3 -7 7360.36 562.21 2
4 3 -6 8691.79 661.471 2
4 3 -5 2380.01 366.977 2
4 3 -4 23536 1215 2
4 3 -3 3940.17 524.509 2
4 3 -2 27260.7 1431.69 2
4 3 -1 31740.9 1608.79 2
4 3 0 2559.56 480.358 2
4 3 1 29903.3 1679.21 2
4 3 2 28950.7 1691.17 2
4 3 3 3438.92 609.855 2
4 3 4 23587 1623.73 2
4 3 5 2485.41 535.908 2
4 3 6 8365.24 1021.37 2
4 3 7 6248.05 903.645 2
4 3 8 2606.99 614.261 2
4 3 9 8035.11 1076.23 2
4 3 10 5032.92 868.513 2
4 3 11 4204.72 822.763 2
4 3 12 1052.02 494.367 2
4 3 13 1528.23 514.135 2
4 3 14 2364.92 699.753 2
4 3 15 8333.6 1227.88 2
4 3 16 -90.8058 315.282 2
4 3 17 4141.09 883.472 2
4 3 18 2239.87 679.712 2
4 3 19 3135.79 833.828 2
4 3 20 1164.12 558.473 2
4 3 21 522.91 311.901 2
4 3 22 -265.898 347.501 2
4 3 23 1092.39 535.677 2
4 3 24 2790.38 837.762 2
4 3 25 254.595 251.136 2
4 3 26 55.4972 248.454 1
4 3 26 -244.202 278.198 2
4 3 27 218.883 327.986 1
4 3 28 229.617 352.199 1
4 3 29 -361.581 380.102 1
4 -4 24 1954.33 676.131 2
4 -4 23 186.62 235.829 2
4 -4 22 5837.38 1135.96 2
4 -4 22 5390.8 967.63 1
4 -4 21 5193.11 1070.84 2
4 -4 21 3865.51 797.34 1
4 -4 20 2014.28 574.483 1
4 -4 20 2119.3 708.234 2
4 -4 19 6396.12 975.432 1
4 -4 19 6284.46 1150.39 2
4 -4 18 11125.8 1241.92 1
4 -4 18 9268.09 1393.07 2
4 -4 17 1834.17 610.538 2
4 -4 17 914.395 345.908 1
4 -4 16 6776.39 1140.59 2
4 -4 16 6025.39 857.636 1
4 -4 15 805.842 328.847 1
4 -4 15 254.418 262.811 2
4 -4 14 168.258 171.206 2
4 -4 13 1824.63 562.746 2
4 -4 12 3153.74 713.813 2
4 -4 11 4628.94 882.101 2
4 -4 10 23115.2 1880.22 2
4 -4 9 4238.83 783.647 2
4 4 -9 3143.64 270.454 2
4 4 -8 10457 592.331 2
4 4 -7 3211.96 367.868 2
4 4 -6 10161.8 710.604 2
4 4 -5 19967.8 1080.42 2
4 4 -4 117913 2751.19 2
4 4 -3 58469.7 2042.44 2
4 4 -2 15914.9 1120.41 2
4 4 -1 47286.9 2000.23 2
4 4 0 4661.97 653.41 2
4 4 1 52745.8 2247.63 2
4 -4 -1 47421.4 1583.5 1
4 4 2 16931.9 1323.75 2
4 4 3 56864 2493.86 2
4 4 4 122804 3768.12 2
4 4 5 22779.2 1668.75 2
-4 -4 5 17084.5 1027.63 2
4 4 6 11160.1 1229.74 2
4 4 7 3885.48 741.773 2
4 4 8 12851.8 1368.88 2
4 4 9 4606.27 826.256 2
4 4 10 19681.2 1737.55 2
4 4 11 3319.43 758.974 2
4 4 12 3187.64 742.275 2
4 4 13 1818.02 534.38 2
4 4 14 620.341 400.741 2
4 4 15 612.155 427.926 2
4 4 16 5636.15 1026.27 2
4 4 17 2862.48 761.048 2
4 4 18 10906.7 1489.33 2
4 4 19 8057.99 1276.63 2
4 4 20 1221.78 532.982 2
4 4 21 6570.94 1218.85 2
4 4 22 7154.19 1281.06 2
4 4 23 281.551 295.305 2
4 4 24 1865.17 677.895 2
4 4 25 265.614 281.49 2
4 4 26 478.239 408.465 2
4 4 27 278.117 485.207 1
4 4 28 970.377 675.367 1
4 -5 24 448.291 398.613 2
4 -5 23 2141.03 705.843 2
4 -5 22 151.432 237.398 2
4 -5 21 147.248 314.139 2
-4 5 21 311.284 366.086 1
4 -5 20 4738.25 1008.92 2
-4 5 20 6299.78 1222.48 1
4 -5 20 5063.77 869.475 1
4 -5 19 2999.07 832.189 2
4 -5 19 2071.71 532.239 1
-4 5 19 2890.8 790.424 1
-4 5 18 245.095 397.688 1
4 -5 18 449.571 288.812 1
4 -5 18 1130.35 486.381 2
4 -5 17 843.994 335.087 1
4 -5 17 824.19 416.009 2
-4 5 17 1657.82 645.746 1
4 -5 16 2728.17 552.935 1
-4 5 16 1963.49 609.021 1
4 -5 16 3827.42 848.839 2
4 -5 15 8330.54 926.068 1
-4 5 15 9273.49 1293.13 1
4 -5 15 8909.76 1282.07 2
-4 5 14 3319.12 758.088 1
4 -5 14 2189.1 682.224 2
4 -5 14 2702.84 516.675 1
4 -5 13 8406.28 835.651 1
-4 5 13 8739.46 1178.3 1
4 -5 13 7155.55 1100.42 2
4 -5 12 2074.36 389.399 1
-4 5 12 2477.37 629.892 1
4 -5 12 2909.46 717.181 2
4 -5 11 6824.05 1060.12 2
-4 5 11 8595.23 1101.48 1
-4 5 10 7460.92 984.811 1
4 5 -9 14708.2 634.565 2
4 5 -8 4426.89 404.03 2
4 5 -7 550.544 169.643 2
4 5 -6 42067.8 1503.11 2
4 5 -5 44460.5 1646.5 2
4 5 -4 17999 1103.6 2
4 5 -3 11908.2 940.407 2
4 5 -2 7552.8 784.38 2
4 -5 2 8346.57 494.639 1
4 5 -1 13088.5 1075.51 2
4 -5 1 12454.1 669.807 1
4 -5 0 2797.07 352.94 1
4 5 0 3076.52 537.469 2
4 5 1 12173 1114.58 2
4 -5 -1 12099 785.67 1
4 5 2 10413.1 1056.6 2
4 5 3 9518.15 1045.32 2
4 5 4 16853.3 1425.34 2
4 5 5 41929.3 2293.15 2
4 5 6 45376.8 2452.52 2
-4 -5 6 37303.2 1465.31 2
4 5 7 551.894 338.611 2
-4 -5 7 249.894 105.402 2
4 5 8 4405.07 845.17 2
4 5 9 17918.6 1673.59 2
4 5 10 8652.8 1190.42 2
4 5 11 8588.07 1180.6 2
4 5 12 2832.03 740.654 2
4 5 13 7420.5 1144.76 2
4 5 14 3249.96 799.405 2
4 5 15 7840.47 1211.01 2
4 5 16 2464.26 644.098 2
4 5 17 1061.81 600.223 2
4 5 18 228.325 266.558 2
4 5 19 2426.63 715.409 2
4 5 20 3941.49 938.912 2
4 5 21 -147.798 320.429 2
4 5 22 614.894 376.734 2
4 5 23 2452.47 776.372 2
4 5 24 -189.578 383.837 2
4 5 25 668.57 378.277 2
4 5 26 97.848 205.957 2
4 5 27 69.8508 248.763 2
4 5 28 505.376 499.942 1
-4 6 24 1320.5 651.016 1
4 -6 23 610.922 444.181 2
-4 6 23 -435.6 418.899 1
-4 6 22 476.369 422.556 1
4 -6 22 1668.88 606.441 2
4 -6 21 1230.25 524.369 2
-4 6 21 849.727 462.301 1
-4 6 20 105.206 349.566 1
4 -6 20 451.873 401.025 2
4 -6 19 1078.09 517.97 2
-4 6 19 1262.66 577.353 1
4 -6 18 1102.33 365.042 1
4 -6 18 1575.87 605.109 2
-4 6 18 1093.42 511.45 1
-4 6 17 2676.31 720.555 1
4 -6 17 1294.05 525.144 2
4 -6 17 1545.06 408.757 1
4 -6 16 3771.14 625.326 1
-4 6 16 3155.65 784.164 1
4 -6 16 3434.93 834.287 2
-4 6 15 6976.91 1155.65 1
4 -6 15 7461.1 830.107 1
4 -6 15 8683.35 1292.86 2
-4 6 14 3117.57 738.452 1
4 -6 14 3896.27 570.065 1
4 -6 14 3319.22 771.53 2
4 -6 13 9208.83 1294.13 2
-4 6 13 7730.65 1103.5 1
4 -6 13 8295.82 782.959 1
4 -6 12 9308.87 1263.83 2
4 -6 12 11273.3 853.636 1
-4 6 12 10415.9 1259.01 1
4 -6 11 8997.11 704.808 1
-4 6 11 9956.02 1206.35 1
4 -6 10 2310.62 324.964 1
4 6 -10 2214.56 232.66 2
-4 6 10 2199.1 515.591 1
4 -6 9 5828.89 465.145 1
4 6 -9 6506.02 473.886 2
4 -6 8 11170.4 562.056 1
4 6 -8 11155.2 692.922 2
4 -6 7 9894.28 439.024 1
4 6 -7 9688.33 696.57 2
4 6 -6 3677.28 459.994 2
4 6 -5 3385.78 467.685 2
4 6 -4 501.905 173.023 2
4 6 -3 17952.1 1188.84 2
4 6 -2 8087.55 819.881 2
4 6 -1 15367.4 1182.07 2
4 6 0 87996.7 2898.04 2
4 6 1 15224.5 1241.26 2
4 6 2 8163.23 947.167 2
4 6 3 21425.9 1561.77 2
4 6 4 429.625 268.101 2
4 6 5 3464.85 685.658 2
4 6 6 3562.37 714.87 2
4 6 7 11542.7 1288.98 2
-4 -6 7 10874.7 781.785 2
4 6 8 12617.7 1346.29 2
-4 -6 8 9847.39 698.048 2
4 6 9 7955.81 1114.79 2
-4 -6 9 5657.58 479.339 2
4 6 10 2570.76 646.213 2
4 6 11 10076.5 1272.57 2
4 6 12 11577 1430.11 2
4 6 13 9328.18 1288.7 2
4 6 14 3701.67 854.724 2
4 6 15 6665.63 1132.98 2
4 6 16 5206.15 1047.89 2
4 6 17 1621.38 570.046 2
4 6 18 1913.32 676.074 2
4 6 19 1857.78 711.095 2
4 6 20 -350.505 326.651 2
4 6 21 1134.27 550.365 2
4 6 22 613.567 444.724 2
4 6 23 -70.4348 212.381 2
4 6 24 1821.85 677.631 2
4 6 25 2956.7 866.631 2
4 6 26 -962.413 529.284 2
4 6 27 569.096 467.043 2
-4 7 26 1137.22 654.388 1
-4 7 25 516.282 522.75 1
-4 7 24 384.629 350.995 1
4 -7 23 153.043 275.639 2
-4 7 23 -22.9666 185.818 1
4 -7 22 11.5225 188.601 2
-4 7 22 493.843 421.916 1
4 -7 21 1300.15 544.976 2
-4 7 21 2691.43 854.972 1
-4 7 20 4454.28 1078.1 1
4 -7 20 3712.1 897.807 2
-4 7 19 331.666 344.459 1
4 -7 19 -244.71 379.501 2
4 -7 18 2957.36 798.982 2
-4 7 18 2042.89 623.282 1
4 -7 17 7848.09 1260.6 2
-4 7 17 8035.98 1312.62 1
-4 7 16 11909.1 1535.94 1
4 -7 16 9503.52 1388.74 2
4 -7 15 619.679 237.084 1
-4 7 15 222.351 226.945 1
4 -7 15 -183.593 327.369 2
4 -7 14 5590.09 1031.6 2
4 -7 14 5170.73 614.872 1
-4 7 14 4961.1 930.964 1
4 -7 13 2468.99 400.021 1
-4 7 13 1872.66 534.406 1
4 -7 12 3134.73 411.792 1
-4 7 12 3229.06 706.518 1
4 -7 11 5643.3 497.28 1
-4 7 11 3984.11 792.317 1
4 7 -10 2967.35 319.913 2
-4 7 10 2558.65 586.259 1
4 7 -9 1119.99 214.917 2
4 7 -8 15622.8 890.971 2
4 7 -7 3068.67 418.879 2
-4 7 6 7851.15 852.064 1
4 7 -6 7027.67 665.148 2
4 7 -5 17970.7 1125.4 2
4 7 -4 1831.38 368.756 2
4 7 -3 19909.8 1284.78 2
4 7 -2 396.339 236.882 2
4 7 -1 9999.46 990.179 2
4 7 0 28397.1 1692.21 2
4 7 1 9195.85 1010.71 2
4 7 2 456.923 279.672 2
4 7 3 21908 1617.99 2
4 7 4 1619.83 475.707 2
4 7 5 17388.7 1538.11 2
4 7 6 6846.28 1006.72 2
4 7 7 3505.2 708.486 2
4 7 8 15528 1534.48 2
-4 -7 8 14170.1 909.686 2
-4 -7 9 674.838 186.416 2
4 7 9 575.055 374.533 2
4 7 10 3638.68 783.98 2
4 7 11 4174.12 842.721 2
4 7 12 2134.21 616.476 2
4 7 13 3001.29 739.196 2
4 7 14 3884.01 820.506 2
4 7 15 209.423 237.697 2
4 7 16 8621.51 1312.09 2
4 7 17 8250.58 1330.28 2
4 7 18 2666.24 743.185 2
4 7 19 98.6649 288.72 2
4 7 20 5053.02 1095.64 2
4 7 21 1933.72 670.63 2
4 7 22 651.399 549.817 2
4 7 23 -675.104 448.448 2
4 7 24 1749.56 713.085 2
4 7 25 -59.986 240.821 2
4 7 26 83.0876 250.9 2
4 7 27 777.648 491.024 2
-4 8 25 -1074.07 606.946 1
-4 8 24 -164.57 321.139 1
-4 8 23 165.732 259.576 1
-4 8 22 5435.9 1231.53 1
4 -8 22 6579.52 1249.92 2
-4 8 21 2363.16 830.941 1
4 -8 21 856.081 417.006 2
4 -8 20 3600.26 895.446 2
-4 8 20 2746.58 906.172 1
-4 8 19 928.483 507.037 1
4 -8 19 1090.91 539.36 2
-4 8 18 1723.12 554.129 1
4 -8 18 1207.86 486.093 2
-4 8 17 1405.03 563.745 1
4 -8 17 1573.72 576.398 2
-4 8 16 677.673 431.171 1
4 -8 16 1135.99 477.298 2
-4 8 15 15553.9 1716.13 1
4 -8 15 14042.3 1687.58 2
-4 8 14 633.099 350.262 1
-4 8 13 2121.48 577.4 1
-4 8 12 14434.4 1508.76 1
-4 8 11 3785.16 742.413 1
4 8 -11 3788.12 368.309 2
-4 8 10 11096.3 1223.74 1
4 8 -10 9236.14 639.764 2
4 8 -9 4351.87 472.814 2
4 8 -8 11130.8 806.889 2
4 8 -7 3924.71 502.898 2
-4 8 6 44506.5 2072.73 1
4 8 -6 44270.2 1780.11 2
-4 8 5 14961.8 1135.77 1
4 8 -5 15293.6 1096.2 2
-4 8 4 2892.77 479.642 1
4 8 -4 2566.41 473.436 2
4 8 -3 11306.2 1013.57 2
4 8 -2 3586.58 584.369 2
4 8 -1 1335.73 380.878 2
4 8 0 13349.5 1196.06 2
4 8 1 1520.92 435.009 2
4 8 2 3384.29 648.398 2
4 8 3 11472 1190.46 2
4 8 4 2507.68 599.773 2
4 8 5 15986.2 1473.64 2
4 8 6 42022.7 2469.39 2
4 8 7 4513.87 834.692 2
4 8 8 10990.9 1318.8 2
4 8 9 5198 962.478 2
4 8 10 8870 1259.42 2
4 8 11 4730.78 929.119 2
4 8 12 15440.2 1686.28 2
4 8 13 2608 681.634 2
4 8 14 1877.59 574.842 2
4 8 15 15617.7 1769.33 2
4 8 16 1035.39 587.94 2
4 8 17 2788.64 813.352 2
4 8 18 1589.32 621.993 2
4 8 19 1681.33 658.019 2
4 8 20 2452.6 795.056 2
4 8 21 3876.47 964.95 2
4 8 22 7283.51 1338.83 2
4 8 23 -178.185 188.25 2
4 8 24 849.25 476.143 2
4 8 25 495.617 365.665 2
4 8 26 -464.991 379.505 2
4 8 27 133.289 350.455 2
-4 9 25 -328.281 362.971 1
-4 9 24 120.85 262.49 1
-4 9 23 1399.05 754.372 1
4 -9 22 -269.856 353.021 2
-4 9 22 65.1671 193.982 1
4 -9 21 3729.3 952.516 2
-4 9 21 3763.3 1041.41 1
-4 9 20 1257.98 680.736 1
4 -9 20 919.634 525.746 2
-4 9 19 121.666 330.29 1
4 -9 19 25.3314 202.097 2
-4 9 18 686.155 404.282 1
4 -9 18 259.273 354.492 2
-4 9 17 4762.22 1015.95 1
4 -9 17 4503.2 995.167 2
-4 9 16 775.799 438.323 1
4 -9 16 733.215 406.769 2
-4 9 15 2759.59 751.966 1
-4 9 14 1467.22 613.255 1
-4 9 13 348.594 301.311 1
-4 9 12 14581.2 1542.04 1
-4 9 11 9784.77 1226.7 1
4 9 -11 9144.11 657.597 2
4 9 -10 465.167 173.265 2
-4 9 10 129.016 180.848 1
4 9 -9 4944.99 549.975 2
-4 9 9 5755.55 870.468 1
4 9 -8 780.325 238.927 2
4 9 -7 6733.16 700.583 2
4 9 -6 653.122 190.524 2
-4 9 6 1259.51 363.03 1
-4 9 5 13573.1 1094.51 1
4 9 -5 14250.5 1104.13 2
4 9 -4 -113.906 136.027 2
-4 9 4 138.266 202.493 1
4 9 -3 143.302 153.568 2
-4 9 3 31.7852 91.1013 1
4 9 -2 1786.49 429.699 2
4 9 -1 12572.9 1163.25 2
4 9 0 8887.84 1006.14 2
4 9 1 13058.2 1242.38 2
4 9 2 1797.39 484.18 2
4 9 3 56.1114 176.13 2
4 9 4 473.155 333.285 2
4 9 5 14737.7 1462.79 2
4 9 6 1531.14 556.908 2
4 9 7 6853.42 1044.67 2
4 9 8 188.217 190.779 2
4 9 9 4075.88 838.881 2
4 9 10 231.157 260.47 2
4 9 11 9508.95 1305.72 2
4 9 12 13106.3 1572.35 2
4 9 13 569.855 424.374 2
4 9 14 1251.06 529.517 2
4 9 15 3918.36 885.845 2
4 9 16 1028.09 530.052 2
4 9 17 4883.96 1003.08 2
4 9 18 936.299 504.361 2
4 9 19 167.115 256.195 2
4 9 20 875.424 492.498 2
4 9 21 2899.77 870.776 2
4 9 22 167.259 332.613 2
4 9 23 1286.64 662.722 2
4 9 24 0.9425 263.863 2
4 9 25 194.78 280.245 2
4 9 26 949.006 534.381 2
4 9 27 -156.131 282.004 2
-4 10 25 3245.84 1084.65 1
-4 10 24 -228.667 352.618 1
-4 10 23 1306.62 655.615 1
-4 10 22 4373.76 1133.28 1
-4 10 21 -6.70265 242.053 1
4 -10 21 -610.219 414.525 2
-4 10 20 436.842 338.438 1
4 -10 20 468.751 419.608 2
-4 10 19 1360.05 629.551 1
4 -10 19 1400.41 619.652 2
4 -10 18 1804.03 640.676 2
-4 10 18 2437.66 845.045 1
4 -10 17 2812.6 806.607 2
-4 10 17 2316.91 722.217 1
-4 10 16 10789.1 1524.61 1
-4 10 15 1498.74 553.503 1
-4 10 14 4309.64 901.392 1
-4 10 13 4386.65 882.311 1
-4 10 12 809.462 382.248 1
-4 10 11 8875.61 1195.43 1
4 10 -10 4069.91 511.441 2
-4 10 10 3296.75 688.729 1
-4 10 9 9253.06 1111.08 1
4 10 -9 10226.7 856.719 2
4 10 -8 15620.5 1106.36 2
4 10 -7 19080.9 1266.86 2
4 10 -6 12472.1 1054.43 2
4 10 -5 4871.32 672.706 2
-4 10 5 3304.54 559.177 1
4 10 -4 3751.11 612.3 2
-4 10 4 4158.68 582.562 1
-4 10 3 11322.1 895.511 1
4 10 -3 10884.7 1068.56 2
-4 10 2 2985.25 428.522 1
4 10 -2 4458.33 698.99 2
4 10 -1 681.148 350.578 2
4 10 0 30350.4 1896.63 2
4 10 1 556.096 286.82 2
4 10 2 2961.01 635.845 2
4 10 3 10953.4 1233.92 2
4 10 4 5121.16 863.132 2
4 10 5 3211.72 688.507 2
4 10 6 13474.8 1451.1 2
4 10 7 23320 1926.16 2
4 10 8 19916.9 1828.36 2
4 10 9 10274.6 1367.56 2
4 10 10 3466.03 836.028 2
4 10 11 7433.2 1203.89 2
4 10 12 1687.62 609.93 2
4 10 13 4603.44 958.718 2
4 10 14 5939.31 1142.9 2
4 10 15 2166.72 715.507 2
4 10 16 8662.64 1392.6 2
4 10 17 1275.78 548.451 2
4 10 18 1821.12 672.198 2
4 10 19 993.298 518.393 2
4 10 20 1027.63 533.17 2
4 10 21 743.066 553.706 2
4 10 22 3919.84 1025.14 2
4 10 23 1053.63 569.515 2
4 10 24 402.248 436.006 2
4 10 25 1309.61 660.469 2
4 10 26 520.37 438.118 2
4 10 27 610.995 537.552 2
-4 11 24 209.423 423.412 1
-4 11 23 -723.809 510.568 1
-4 11 22 278.458 371.49 1
-4 11 21 791.417 503.467 1
4 -11 21 997.873 531.458 2
-4 11 20 1227.23 573.295 1
4 -11 20 2567.86 789.898 2
-4 11 19 272.784 386.025 1
4 -11 19 433.805 397.593 2
4 -11 18 896.266 443.726 2
-4 11 18 66.3012 213.12 1
-4 11 17 1550.29 613.757 1
-4 11 16 2458.65 749.389 1
-4 11 15 300.633 324.856 1
-4 11 14 5454.89 1035.38 1
-4 11 13 2540.49 687.578 1
-4 11 12 4680.24 898.553 1
-4 11 11 64.1204 250.221 1
-4 11 10 15922.2 1546.43 1
4 11 -10 14488.1 1043.83 2
-4 11 9 5966.9 895.348 1
4 11 -9 6599.65 741.545 2
-4 11 8 9907.96 1111.13 1
4 11 -8 11055.2 987.206 2
4 11 -7 7997.24 868.923 2
4 11 -6 7685.5 869.92 2
-4 11 5 3379.4 586.887 1
4 11 -5 3306.89 582.619 2
-4 11 4 11204.5 974.993 1
4 11 -4 12052.9 1130.96 2
4 11 -3 1219.32 431.944 2
-4 11 3 1241.62 308.729 1
-4 11 2 28474.8 1330.12 1
4 11 -2 27988 1827.13 2
-4 11 1 12262 782.164 1
4 11 -1 13616.9 1305.96 2
4 11 0 200.229 244.213 2
4 11 1 12739 1316.98 2
4 11 2 28266.3 1991.43 2
4 11 3 1532.03 520.673 2
4 11 4 11339.6 1309.43 2
4 11 5 2465.03 637.464 2
4 11 6 7092.31 1094.65 2
4 11 7 8169.36 1172.72 2
4 11 8 10877.2 1400.63 2
4 11 9 7547.53 1187.44 2
4 11 10 16659.5 1775.82 2
4 11 11 274.294 412.74 2
4 11 12 5820.6 1121.26 2
4 11 13 2528.66 806.085 2
4 11 14 5346.22 1078.31 2
4 11 15 1680.18 714.955 2
4 11 16 2153.76 691.542 2
4 11 17 3737.33 941.046 2
4 11 18 1668.01 662.253 2
4 11 19 -191.165 299.222 2
4 11 20 1615.84 658.039 2
4 11 21 640.679 481.644 2
4 11 22 101.995 262.776 2
4 11 23 81.4892 261.007 2
4 11 24 650.819 463.367 2
4 11 25 4.11461 270.924 2
4 11 26 1982.93 806.429 2
-4 12 24 -908.411 585.714 1
-4 12 23 -44.0534 213.294 1
-4 12 22 -507.302 425.538 1
4 -12 21 1530.8 679.315 2
-4 12 21 1561.08 646.23 1
-4 12 20 1133.83 588.649 1
4 -12 20 625.886 428.365 2
4 -12 19 612.389 356.358 2
-4 12 19 1187.8 601.073 1
-4 12 18 -385.142 360.612 1
-4 12 17 1702.1 644.695 1
-4 12 16 650.423 462.309 1
-4 12 15 1911.72 643.477 1
-4 12 14 1540.52 581.578 1
-4 12 13 336.94 248.717 1
-4 12 12 11027.1 1398.99 1
-4 12 11 15032.5 1568.64 1
-4 12 10 18449.7 1685.63 1
4 12 -10 16988.6 1215.28 2
4 12 -9 8300.67 883.162 2
-4 12 9 9998.36 1192.73 1
-4 12 8 4526.11 780.535 1
4 12 -8 4847 701.097 2
4 12 -7 1156.44 358.753 2
4 12 -6 3564.15 634.427 2
-4 12 5 1791.84 442.529 1
4 12 -5 2055.42 493.342 2
-4 12 4 11602.1 1016.86 1
4 12 -4 10114.3 1092.29 2
4 12 -3 3718.81 677.775 2
-4 12 3 3091.69 482.343 1
-4 12 2 6696.61 658.873 1
4 12 -2 6570.81 939.485 2
4 12 -1 5978.43 914.747 2
-4 12 1 6072.9 567.332 1
4 12 0 396.855 272.753 2
-4 12 0 204.086 110.061 1
4 12 1 6549.36 978.791 2
4 12 2 7252.23 1056.61 2
4 12 3 2769.28 694.631 2
4 12 4 11945.7 1381.55 2
4 12 5 1989.29 597.383 2
4 12 6 3501.13 827.07 2
4 12 7 1350.5 505.115 2
4 12 8 5535.39 1060.09 2
4 12 9 10216.8 1399.57 2
4 12 10 16436.4 1801.31 2
4 12 11 15203.5 1761.17 2
4 12 12 11621.1 1568.8 2
4 12 13 1057.81 488.564 2
4 12 14 2276.14 775.44 2
4 12 15 3390.55 907.341 2
4 12 16 2022.92 765.979 2
4 12 17 1857.02 641.203 2
4 12 18 -142.434 214.439 2
4 12 19 621.329 403.062 2
4 12 20 976.243 498.862 2
4 12 21 965.846 531.182 2
4 12 22 89.9865 317.165 2
4 12 23 652.061 473.704 2
4 12 24 438.601 433.904 2
4 12 25 580.625 491.882 2
-4 13 23 301.77 461.637 1
-4 13 22 -174.099 304.163 1
-4 13 21 -130.991 284.8 1
4 -13 20 336.154 306.411 2
-4 13 20 813.499 521.008 1
4 -13 19 32.3076 228.883 2
-4 13 19 88.4018 279.709 1
-4 13 18 2137.55 794.519 1
-4 13 17 734.931 471.918 1
-4 13 16 368.776 219.353 1
-4 13 15 1250.63 556.307 1
-4 13 14 2013.37 640.995 1
-4 13 13 355.697 311.714 1
-4 13 12 5041.73 989.529 1
-4 13 11 444.007 379.097 1
-4 13 10 944.082 436.553 1
-4 13 9 1586.69 546.028 1
4 13 -9 1764.73 429.355 2
-4 13 8 9663.05 1144.48 1
4 13 -8 8988.17 996.896 2
4 13 -7 8098.44 976.369 2
4 13 -6 4788.52 766.756 2
4 13 -5 8654.45 1036.94 2
-4 13 4 6267.9 768.006 1
4 13 -4 6602.27 933.594 2
-4 13 3 799.5 277.922 1
4 13 -3 1188.6 424.751 2
4 13 -2 780.509 360.575 2
-4 13 2 706.43 226.334 1
4 13 -1 6871.66 989.317 2
4 13 0 94.1046 192.096 2
4 13 1 6141.78 968.482 2
4 13 2 855.622 375.92 2
4 13 3 767.534 323.823 2
4 13 4 5919.51 1010.05 2
4 13 5 9805.24 1323.95 2
4 13 6 3019.62 779.692 2
4 13 7 9431.52 1328.12 2
4 13 8 10195.2 1409.58 2
4 13 9 3295.03 852.753 2
4 13 10 1248.85 547.732 2
4 13 11 438.105 291.528 2
4 13 12 7883.33 1327.01 2
4 13 13 780.154 482.775 2
4 13 14 3587.41 923.917 2
4 13 15 564.283 363.891 2
4 13 16 427.11 396.205 2
4 13 17 1893.36 742.518 2
4 13 18 2010.95 715.785 2
4 13 19 -200.319 401.999 2
4 13 20 1671.27 683.004 2
4 13 21 428.01 349.059 2
4 13 22 103.874 259.736 2
4 13 23 216.446 329.542 2
-4 14 23 150.738 500.829 1
-4 14 22 575.915 454.941 1
-4 14 21 4.20307 226.942 1
4 -14 20 1089.03 563.974 2
-4 14 20 1377.3 677.637 1
-4 14 19 -345.568 367.551 1
-4 14 18 661.877 456.86 1
-4 14 17 -69.1304 186.392 1
-4 14 16 753.11 538.176 1
-4 14 15 591.219 448.973 1
-4 14 14 -143.156 288.508 1
-4 14 13 1025.51 471.268 1
-4 14 12 134.554 310.389 1
-4 14 11 1006.26 498.311 1
-4 14 10 2124.49 622.73 1
-4 14 9 11732 1341.84 1
4 14 -9 10169.5 1076.81 2
4 14 -8 19774.8 1549.69 2
-4 14 8 20084.3 1680.19 1
4 14 -7 5218.76 791.553 2
-4 14 7 6109.95 897.472 1
4 14 -6 5070.36 812.086 2
4 14 -5 4093.56 746.598 2
4 14 -4 3188.22 669.684 2
-4 14 4 2195.9 472.489 1
4 14 -3 11836.2 1308.62 2
4 14 -2 10694.1 1273.97 2
4 14 -1 12422 1388.42 2
4 14 0 19294.3 1737.45 2
4 14 1 12495.1 1421.94 2
4 14 2 11595.7 1396.89 2
4 14 3 12981.1 1503.76 2
4 14 4 3058.05 768.15 2
4 14 5 4667.02 939.222 2
4 14 6 4565.34 915.463 2
4 14 7 5691.96 1062.03 2
4 14 8 20263.8 2028.8 2
4 14 9 10340.9 1467.46 2
4 14 10 3606.19 888.257 2
4 14 11 692.796 431.533 2
4 14 12 709.676 481.777 2
4 14 13 1281.19 629.218 2
4 14 14 186.39 243.187 2
4 14 15 -376.247 467.216 2
4 14 16 570.252 388.679 2
4 14 17 1486.89 693.379 2
4 14 18 3158.43 947.256 2
4 14 19 794.317 524.828 2
4 14 20 314.931 329.67 2
4 14 21 267.754 412.289 2
4 14 22 373.655 404.663 2
-4 15 22 152.316 294.811 1
-4 15 21 -416.551 417.159 1
-4 15 20 -642.594 468.548 1
-4 15 19 129.616 235.46 1
-4 15 18 -64.5343 204.853 1
-4 15 17 214.478 339.986 1
-4 15 16 1126.4 500.097 1
-4 15 15 656.416 382.679 1
-4 15 14 2627.61 752.316 1
-4 15 13 78.1245 176.366 1
-4 15 12 -99.6417 265.946 1
-4 15 11 75.7281 222.932 1
-4 15 10 3059.05 722.744 1
4 15 -9 3422.82 647.17 2
-4 15 9 3394.07 745.506 1
4 15 -8 680.842 362.004 2
-4 15 8 172.894 139.302 1
4 15 -7 183.561 197.4 2
-4 15 7 227.488 256.718 1
4 15 -6 1462.29 469.674 2
4 15 -5 935.445 388.047 2
4 15 -4 2870.82 653.034 2
4 15 -3 9297.65 1207.12 2
4 15 -2 1096.72 390.284 2
4 15 -1 6516.77 1055.73 2
4 15 0 9715.18 1287.79 2
4 15 1 7528.27 1154.41 2
4 15 2 1123.46 414.621 2
4 15 3 9066.18 1287.52 2
4 15 4 5597.7 1023.18 2
4 15 5 976.225 515.238 2
4 15 6 1326.47 502.05 2
4 15 7 -375.35 340.461 2
4 15 8 119.323 200.657 2
4 15 9 4199.94 971.863 2
4 15 10 2169.66 719.859 2
4 15 11 400.901 353.353 2
4 15 12 48.099 253.51 2
4 15 13 181.743 296.666 2
4 15 14 1475.87 712.571 2
4 15 15 -401.128 382.191 2
4 15 16 1556.25 723.966 2
4 15 17 12.3946 243.929 2
4 15 18 45.1253 199.938 2
4 15 19 394.593 490.71 2
4 15 20 842.849 529.019 2
4 15 21 127.762 299.314 2
-4 16 21 -370.37 373.537 1
-4 16 20 560.724 498.797 1
-4 16 19 146.414 315.564 1
-4 16 18 -306.46 333.425 1
-4 16 17 -122.603 222.791 1
-4 16 16 304.562 228.413 1
-4 16 15 34.6309 321.583 1
-4 16 14 -3.13388 144.01 1
-4 16 13 298.828 359.245 1
-4 16 12 2521.56 701.879 1
-4 16 11 -120.515 266.222 1
-4 16 10 1725.46 565.042 1
4 16 -8 3124.93 671.721 2
4 16 -7 397.97 304.867 2
4 16 -6 2925.38 658.813 2
4 16 -5 1393.04 510.057 2
4 16 -4 5919.03 979.085 2
4 16 -3 442.459 290.466 2
4 16 -2 732.358 405.195 2
4 16 -1 971.248 440.364 2
4 16 0 -47.8255 315.639 2
4 16 1 1094.36 480.739 2
4 16 2 1828.51 585.381 2
4 16 3 1314.31 505.724 2
4 16 4 4933.32 997.041 2
4 16 5 2411.66 699.671 2
4 16 6 3191.82 798.347 2
4 16 7 573.384 486.981 2
4 16 8 3330.94 867.116 2
4 16 9 295.792 262.165 2
4 16 10 1352.19 599.377 2
4 16 11 2.53093 315.483 2
4 16 12 920.656 455.736 2
4 16 13 616.523 422.686 2
4 16 14 227.095 289.446 2
4 16 15 132.715 350.597 2
4 16 16 707.249 502.683 2
4 16 17 290.393 329.602 2
4 16 18 484.505 442.542 2
4 16 19 1141.85 602.478 2
-4 17 21 -1157.77 625.564 1
-4 17 20 1.08503 180.081 1
-4 17 19 231.142 297.948 1
-4 17 18 -8.90346 186.893 1
-4 17 17 1382.18 612.721 1
-4 17 16 440.68 381.558 1
-4 17 15 -151.885 265.923 1
-4 17 14 63.0253 176.778 1
4 17 -8 1325.12 464.668 2
4 17 -7 1781.6 514.041 2
4 17 -6 930.811 397.817 2
4 17 -5 2084.55 604.435 2
4 17 -4 2379.86 651.065 2
4 17 -3 370.752 301.462 2
4 17 -2 3021.05 750.407 2
4 17 -1 3527.6 815.717 2
4 17 0 61.7065 203.379 2
4 17 1 4095.09 914.753 2
4 17 2 2896.07 765.853 2
4 17 3 347.455 327.873 2
4 17 4 1601.85 596.151 2
4 17 5 3363.64 875.275 2
4 17 6 1144.84 551.432 2
4 17 7 1451.02 603.871 2
4 17 8 1271.85 566.775 2
4 17 9 2490.02 771.623 2
4 17 10 773.82 441.333 2
4 17 11 3955.58 999.5 2
4 17 12 2717.42 873.204 2
4 17 13 339.47 476.928 2
4 17 14 -361.976 435.562 2
4 17 15 -392.374 363.619 2
4 17 16 841.23 493.228 2
4 17 17 757.764 541.849 2
4 17 18 497.344 502.179 2
4 18 -7 2502.44 648.766 2
4 18 -6 1534.85 531.414 2
4 18 -5 1179.8 464.222 2
4 18 -4 1122.76 499.13 2
4 18 -3 5253.66 1011.57 2
4 18 -2 -362.217 272.522 2
4 18 -1 1925.67 632.055 2
4 18 0 3362.94 839.667 2
4 18 1 1425.06 477.874 2
4 18 2 628.438 379.37 2
4 18 3 5988.57 1144.5 2
4 18 4 1330.52 567.189 2
4 18 5 1704.84 635.322 2
4 18 6 1407.09 570.698 2
4 18 7 3062.58 857.088 2
4 18 8 134.64 292.723 2
4 18 9 315.991 322.839 2
4 18 10 1406.25 646.364 2
4 18 11 481.161 455.178 2
4 18 12 560.538 370.246 2
4 18 13 2295.38 823.755 2
4 18 14 710.036 477.243 2
4 18 15 743.812 581.02 2
4 18 16 972.02 612.877 2
4 19 -7 611.341 323.362 2
4 19 -6 499.815 309.127 2
4 19 -5 2262.08 670.848 2
4 19 -4 160.845 256.077 2
4 19 -3 282.898 210.402 2
4 19 -2 2723.45 778.951 2
4 19 -1 655.835 415.11 2
4 19 0 100.102 165.945 2
4 19 1 1254.14 586.818 2
4 19 2 1685.88 611.451 2
4 19 3 226.341 191.654 2
4 19 4 518.187 434.606 2
4 19 5 2403.97 769.45 2
4 19 6 282.794 269.505 2
4 19 7 1427.11 646.624 2
4 19 8 1254.76 584.176 2
4 19 9 434.319 504.787 2
4 19 10 30.801 218.198 2
4 19 11 464.443 393.536 2
4 19 12 942.374 491.494 2
4 19 13 187.92 277.212 2
4 19 14 89.9223 289.037 2
4 20 -6 167.757 232.203 2
4 20 -5 979.742 483.342 2
4 20 -4 547.901 364.226 2
4 20 -3 926.368 466.495 2
4 20 -2 126.539 180.46 2
4 20 -1 663.62 472.704 2
4 20 0 187.781 271.183 2
4 20 1 568.883 413.957 2
4 20 2 -347.23 353.904 2
4 20 3 783.313 456.455 2
4 20 4 852.86 466.45 2
4 20 5 713.997 463.627 2
4 20 6 229.714 391.255 2
4 20 7 2116.11 751.009 2
4 20 8 777.858 495.388 2
4 20 9 -12.8943 240.08 2
4 20 10 862.492 532.891 2
4 20 11 -94.6925 270.592 2
4 20 12 298.863 387.696 2
4 21 -5 1027.58 488.305 2
4 21 -4 297.292 297.393 2
4 21 -3 409.415 368.318 2
4 21 -2 261.166 279.457 2
4 21 -1 333.781 284.991 2
4 21 0 -384.022 361.208 2
4 21 1 533.443 401.122 2
4 21 2 878.96 460.288 2
4 21 3 748.583 460.793 2
4 21 4 -383.158 370.822 2
4 21 5 1102.45 588.492 2
4 21 6 360.351 454.079 2
4 21 7 594.305 451.642 2
4 21 8 851.605 557.291 2
4 21 9 101.32 221.443 2
4 22 -5 120.61 208.693 2
4 22 -4 -384.697 329.963 2
4 22 -3 -129.253 236.148 2
4 22 -2 -547.388 411.03 2
4 22 -1 -381.907 337.544 2
4 22 0 499.048 391.725 2
4 22 1 -168.11 260.325 2
4 22 2 619.193 496.655 2
4 22 3 402.549 375.629 2
4 22 4 -562.499 440.708 2
4 22 5 -349.609 356.002 2
4 22 6 -21.7364 166.292 2
4 22 7 237.588 325.697 2
4 23 -4 517.143 438.857 2
4 23 -3 -151.633 238.199 2
4 23 -2 -466.259 394.767 2
4 23 -1 4.82846 270.637 2
4 23 0 862.324 575.226 2
4 23 1 -317.077 341.901 2
4 23 2 675.981 491.072 2
4 23 3 214.055 368.271 2
4 24 -2 552.28 446.514 2
4 24 -1 971.499 570.172 2
5 0 0 49.4708 148.554 2
5 0 1 3175.37 622.783 2
5 0 -1 3248.38 591.922 2
5 0 2 2214.95 527.458 2
5 0 -2 2568.57 524.135 2
5 0 3 6058.03 878.189 2
5 0 -3 4447.41 673.719 2
5 0 4 8395.17 1075.6 2
5 0 -4 6494.97 776.734 2
5 0 5 8738.43 1129.82 2
5 0 -5 9558.47 909.049 2
5 0 6 12393.8 1333.22 2
5 0 -6 11258.1 961.416 2
5 0 -7 1645.51 357.07 2
5 0 7 2848.05 685.972 2
5 0 8 3993.04 925.091 2
5 0 -8 4155.09 551.466 2
5 0 -9 974.846 256.124 2
5 0 9 1166.6 520.664 2
5 0 10 121.26 255.042 2
5 0 -10 295.955 149.085 2
5 0 11 296.655 356.296 2
5 0 -11 562.638 174.12 2
5 0 12 3011.54 753.659 2
5 0 -12 1490.85 270.87 2
5 0 13 -100.319 369.059 2
5 0 -13 -23.3919 43.2712 2
5 0 14 2694.4 716.581 2
5 0 15 2031.87 666.379 2
5 0 16 5671.38 1107.43 2
5 0 17 19845.3 2065.18 2
5 0 18 2935.53 792.727 2
5 0 19 259.885 203.665 2
5 0 20 -17.4591 212.162 2
5 0 21 4512.96 1041.4 2
5 0 22 -132.043 353.555 2
5 0 23 697.546 431.818 2
5 0 24 -635.19 421.695 1
5 0 24 -887.575 505.492 2
5 0 25 362.506 386.074 1
5 0 25 538.956 406.799 2
5 0 26 703.273 472.354 2
5 -1 26 372.718 432.044 2
5 -1 25 338.198 330.755 2
5 -1 24 0.80826 288.213 1
5 -1 24 18.5542 185.971 2
5 -1 23 2319.57 739.511 1
5 -1 23 362.691 333.491 2
5 -1 22 1791.22 708.347 2
5 -1 21 338.118 342.374 2
5 -1 20 1297.48 567.482 2
5 -1 19 304.26 327.778 2
5 -1 18 2653.54 814.683 2
5 -1 17 2597.05 773.599 2
5 -1 16 1919 605.855 2
5 -1 15 4696.15 995.066 2
5 -1 14 9117.7 1333.06 2
5 -1 13 1436.6 610.04 2
5 1 -12 79.0442 72.868 2
5 -1 12 91.6389 185.885 2
5 1 -11 2379.51 323.705 2
5 -1 11 2194.71 670.912 2
5 1 -11 1813.51 254.808 2
5 1 -10 2204.66 341.368 2
5 -1 10 3052.81 759.001 2
5 1 -10 2104.23 299.942 2
5 -1 9 4604.13 901.016 2
5 1 -9 4092.6 500.387 2
5 -1 8 4234.52 851.3 2
5 1 -8 3844.52 507.892 2
5 -1 7 5128.89 893.413 2
5 1 -7 6113.77 661.87 2
5 1 -6 418.609 225.791 2
5 -1 6 365.018 237.581 2
5 1 -5 15190.5 1121.56 2
5 -1 5 15133.2 1480.65 2
5 1 -4 23773.8 1445.86 2
5 -1 4 22567.8 1757.97 2
5 1 -3 7698.01 840.025 2
5 -1 3 8339.67 1031.64 2
5 1 -2 5312.03 733.597 2
5 -1 2 4789.05 762.105 2
5 -1 1 763.153 341.149 2
5 1 -1 834.765 344.777 2
5 1 0 8208.98 956.487 2
5 -1 0 8503.63 979.311 2
5 -1 -1 397.683 203.374 2
5 1 1 838.759 327.895 2
5 1 2 4193.04 715.004 2
5 1 3 9226.63 1105.84 2
5 1 4 21145.3 1715.25 2
5 1 5 15556.6 1479.03 2
5 1 6 607.809 433.712 2
5 1 7 6385.47 981.292 2
5 1 8 3317.21 717.158 2
5 1 9 6262.39 1066.36 2
5 1 10 1560.71 597.202 2
5 1 11 2121.95 643.08 2
5 1 12 112.351 297.505 2
5 1 13 1571.38 526.508 2
5 1 14 9289.44 1352.18 2
5 1 15 3374.34 858.938 2
5 1 16 2178.53 652.311 2
5 1 17 2063.4 721.362 2
5 1 18 1965.38 716.242 2
5 1 19 557.589 340.782 2
5 1 20 1862.32 695.125 2
5 1 21 108.989 293.919 2
5 1 22 1409.88 621.345 2
5 1 23 615.799 418.174 2
5 1 24 614.777 422.716 2
5 1 25 -14.6357 169.472 1
5 1 25 742.35 480.909 2
5 1 26 169.794 327.207 1
5 1 26 -9.6287 201.684 2
5 1 27 1165.36 614.566 2
5 1 27 1494.42 693.16 1
5 -2 26 301.219 333.076 2
5 -2 25 461.727 387.651 2
5 -2 24 -58.6667 309.475 2
5 -2 23 838.248 479.808 2
5 -2 22 769.78 457.103 2
5 -2 22 762.67 416.221 1
5 -2 21 975.674 428.92 2
5 -2 21 555.612 345.177 1
5 -2 20 839.772 403.389 2
5 -2 19 1432.15 599.454 2
5 -2 18 2508.21 734.427 2
5 -2 17 14727.1 1799.33 2
5 -2 16 4305.15 984.398 2
5 -2 15 12251.9 1595.69 2
5 -2 14 2431.99 737.447 2
5 -2 13 4727.59 974.914 2
5 -2 12 2143.94 643.272 2
5 -2 11 464.634 369.136 2
5 2 -11 444.637 111.245 2
5 2 -11 781.323 164.114 2
5 2 -10 4318.25 434.181 2
5 -2 10 4865.64 944.802 2
5 2 -9 3774.77 449.076 2
5 -2 9 4196.71 845.922 2
5 2 -8 2174.64 358.015 2
5 -2 8 3421.3 724.494 2
5 2 -7 12134 910.309 2
5 -2 7 12544.7 1401.69 2
5 2 -6 954.619 276.048 2
5 -2 6 616.34 393.191 2
5 2 -5 15533.7 1122.24 2
5 -2 5 17051.7 1568.48 2
5 2 -4 12026.1 1030.28 2
5 -2 4 10559 1204.93 2
5 -2 3 301.207 243.259 2
5 2 -3 300.868 184.891 2
5 2 -2 19840.1 1394.2 2
5 2 -1 8361.2 937.414 2
5 2 0 1704.18 433.461 2
5 2 1 7521.74 939.041 2
5 2 2 20710.8 1589.54 2
5 2 3 425.123 299.157 2
5 2 4 10367.2 1184.74 2
5 2 5 18416.7 1615.09 2
5 2 6 650.653 350.701 2
5 2 7 13767.3 1456.92 2
5 2 8 3259.74 746.288 2
5 2 9 3541.01 754.114 2
5 2 10 4316.21 868.91 2
5 2 11 373.383 254.884 2
5 2 12 2508.29 675.705 2
5 2 13 4054.88 876.947 2
5 2 14 2839.54 791.237 2
5 2 15 14339.7 1727.91 2
5 2 16 4889 1017.15 2
5 2 17 10344.3 1513.11 2
5 2 18 4187.11 973.549 2
5 2 19 1587.11 591.885 2
5 2 20 713.363 371.66 2
5 2 21 1057.36 575.578 2
5 2 22 1096.88 563.161 2
5 2 23 1157.68 678.642 2
5 2 24 121.114 182.68 2
5 2 25 625.089 457.5 2
5 2 26 1122.32 571.288 2
5 2 27 1416.68 722.466 1
5 2 27 1342.41 647.635 2
5 -3 25 -189.023 260.976 2
5 -3 24 56.9126 190.647 2
5 -3 23 2577.88 1154.68 2
5 -3 22 999.263 506.25 2
5 -3 21 911.373 453.146 2
5 -3 20 1570.07 659.913 2
5 -3 20 1438.92 530.698 1
5 -3 19 1371.88 633.238 2
5 -3 18 1245.13 551.031 2
5 -3 17 216.328 205.665 2
5 -3 16 810.92 448.618 2
5 -3 15 1562.21 629.795 2
5 -3 14 11924.9 1528.42 2
5 -3 13 -255.497 448.641 2
5 -3 12 4740.48 945.243 2
5 3 -11 321.309 87.6118 2
5 -3 11 816.956 503.106 2
5 3 -10 12919.1 687.08 2
5 -3 10 14149.7 1570.6 2
5 3 -9 1765.74 290.167 2
5 -3 9 1999.22 607.492 2
5 3 -8 3356.86 439.328 2
5 -3 8 3952.08 825.474 2
5 -3 7 1107.3 491.777 2
5 3 -7 1261.58 294.458 2
5 3 -6 12944.3 961.106 2
5 -3 6 13979.5 1469.84 2
5 3 -5 12527.2 1000.05 2
5 3 -4 5268.13 672.113 2
5 3 -3 15795.1 1199.25 2
5 3 -2 2417.73 493.345 2
5 3 -1 1897.57 465.712 2
5 3 0 2814.34 570.45 2
5 3 1 1200.05 409.662 2
5 3 2 3568.71 666.831 2
5 3 3 16300.1 1424.28 2
5 3 4 5360.03 830.811 2
5 3 5 14400.2 1424.52 2
5 3 6 15782.1 1518.83 2
5 3 7 749.26 368.509 2
5 3 8 3164.8 711.511 2
5 3 9 2132 607.474 2
5 3 10 12507.8 1477.21 2
5 3 11 382.718 291.124 2
5 3 12 3886.3 831.778 2
5 3 13 437.572 407.177 2
5 3 14 10314.2 1466.82 2
5 3 15 725.468 349.336 2
5 3 16 871.388 448.489 2
5 3 17 593.476 471.357 2
5 3 18 914.989 521.378 2
5 3 19 1329.63 606.32 2
5 3 20 1114.17 519.46 2
5 3 21 1311.86 589.611 2
5 3 22 865.418 513.634 2
5 3 23 -11.7208 246.252 2
5 3 24 218.869 362.979 2
5 3 25 44.1506 188.059 2
5 3 26 720.617 529.358 2
5 3 27 219.226 352.466 1
5 3 27 88.196 203.786 2
5 3 28 1057.3 666.295 1
5 -4 25 502.787 470.112 2
5 -4 24 421.967 404.424 2
5 -4 23 1822.09 705.001 2
5 -4 22 -324.729 335.777 2
5 -4 21 -497.116 391.138 2
5 -4 20 1362.3 540.066 2
5 -4 19 2055.3 670.102 2
5 -4 18 112.868 204.2 2
5 -4 18 1163.71 412.454 1
5 -4 17 397.086 251.497 1
5 -4 17 -277.062 297.294 2
5 -4 16 1080.97 512.247 2
5 -4 15 2312.9 722.462 2
5 -4 14 6022.06 1100.86 2
5 -4 13 2806.44 759.488 2
5 -4 12 3888.26 886.137 2
5 4 -11 684.312 111.051 2
5 -4 11 659.921 415.749 2
5 4 -10 1965.53 254.917 2
5 -4 10 1038.79 381.194 2
5 -4 9 1112.96 503.988 2
5 4 -9 772.265 179.338 2
5 -4 8 2232.35 624.216 2
5 4 -8 1013.07 244.503 2
5 4 -7 1242.92 286.831 2
5 4 -6 4873.47 593.511 2
5 4 -5 855.515 261.374 2
5 4 -4 13360.8 1069.77 2
5 4 -3 10071.1 978.737 2
5 4 -2 25225.1 1597.09 2
5 4 -1 5290.68 769.879 2
5 4 0 90.8122 146.449 2
5 4 1 5816.1 837.639 2
5 4 2 24501.7 1735.41 2
5 4 3 10366.4 1157.48 2
5 4 4 13783.1 1379.95 2
5 4 5 1114.2 371.019 2
5 4 6 5931.72 928.948 2
5 4 7 831.108 456.529 2
5 4 8 1559.05 531.873 2
5 4 9 1287.03 444.787 2
5 4 10 3603.4 853.498 2
5 4 11 844.172 433.22 2
5 4 12 3226.45 788.655 2
5 4 13 3611.23 885.054 2
5 4 14 4436.65 949.313 2
5 4 15 2333.51 688.55 2
5 4 16 1747.51 613.376 2
5 4 17 -266.797 374.492 2
5 4 18 629.466 460.801 2
5 4 19 2162.38 765.753 2
5 4 20 1110.88 522.964 2
5 4 21 -177.909 330.669 2
5 4 22 18.6693 221.814 2
5 4 23 3087.59 876.213 2
5 4 24 198.125 231.237 2
5 4 25 675.158 430.798 2
5 4 26 2048.59 798.759 2
5 4 27 470.69 421.598 2
5 4 28 301.372 358.564 1
5 -5 25 885.792 531.872 2
5 -5 24 -2.81851 170.197 2
5 -5 23 252.904 213.114 2
5 -5 22 502.888 408.039 2
5 -5 21 15.0198 178.662 2
5 -5 20 -297.868 360.743 2
5 -5 19 3374.94 910.301 2
5 -5 18 3500.01 890.821 2
5 -5 17 694.058 426.934 2
5 -5 16 -16.5173 242.906 2
5 -5 16 477.904 225.597 1
5 -5 15 1629.36 421.174 1
5 -5 15 1627.42 587.013 2
5 -5 14 3302.34 812.172 2
5 -5 13 3164.91 855.2 2
5 -5 12 4651.71 977.347 2
5 -5 11 1691.36 545.238 2
5 -5 10 6326.08 1075.92 2
5 5 -10 5310.92 421.59 2
5 5 -9 1421.77 253.58 2
5 5 -8 1562.39 300.641 2
5 5 -7 17819.3 1065.63 2
5 5 -6 4802.74 591.828 2
5 5 -5 4279.54 586.507 2
5 5 -4 3580.28 567.927 2
5 5 -3 28186.9 1626.25 2
5 5 -2 4165.6 653.878 2
5 5 -1 16424.7 1334.7 2
5 -5 1 15725.3 892.328 1
5 5 0 7851.31 942.038 2
5 5 1 16436.8 1401.55 2
5 5 2 5330.55 844.84 2
5 5 3 30569.4 2011.47 2
5 5 4 3436.65 682.088 2
5 5 5 3721.51 735.673 2
5 5 6 6270.07 983.148 2
5 5 7 16826.8 1668.51 2
5 5 8 2264.41 612.443 2
5 5 9 358.617 214.319 2
5 5 10 3708.63 845.143 2
5 5 11 1256.12 484.919 2
5 5 12 4895.19 990.08 2
5 5 13 1715.38 578.464 2
5 5 14 3050.92 843.724 2
5 5 15 1580.79 563.025 2
5 5 16 -160.614 265.603 2
5 5 17 142.24 316.123 2
5 5 18 3840.72 937.861 2
5 5 19 4497.03 1029.02 2
5 5 20 -219.794 240.115 2
5 5 21 867.771 450.727 2
5 5 22 1681.69 670.739 2
5 5 23 325.495 427.831 2
5 5 24 -720.917 483.632 2
5 5 25 573.139 463.129 2
5 5 26 1352.62 664.206 2
5 5 27 -552.825 456.038 2
5 -6 24 -106.245 229.656 2
5 -6 23 1747.79 659.252 2
5 -6 22 671.468 456.194 2
5 -6 21 1156.04 621.98 2
5 -6 20 1062.44 545.082 2
5 -6 19 2305.85 769.479 2
5 -6 18 -76.532 337.398 2
5 -6 17 4594.45 1033.85 2
5 -6 16 933.333 489.022 2
5 -6 15 4274.52 981.232 2
5 -6 14 3101.95 815.151 2
5 -6 13 447.939 210.708 1
5 -6 13 -162.87 299.889 2
5 -6 12 1353.56 486.785 2
5 -6 12 2950.38 435.998 1
5 -6 11 7909.51 1250.69 2
5 -6 11 7532.05 647.823 1
5 6 -10 4882.64 428.341 2
5 6 -9 905.867 217.815 2
5 6 -8 898.777 238.51 2
5 6 -7 8288.06 736.868 2
5 6 -6 2679.97 448.748 2
5 6 -5 9427.47 889.844 2
5 6 -4 5276.12 687.496 2
5 6 -3 11726.9 1069.82 2
5 -6 3 10126.6 569.203 1
5 6 -2 9708.88 999.47 2
5 -6 2 9596.08 605.704 1
5 6 -1 9670.7 1019.14 2
5 -6 1 8235.25 610.538 1
5 6 0 348.325 238.859 2
5 -6 0 -4.95784 48.2989 1
5 6 1 8471.98 1020.64 2
5 6 2 11329.7 1206.17 2
5 6 3 10131.6 1193.75 2
5 6 4 5653.24 908.228 2
5 6 5 11097.7 1276.96 2
5 6 6 2514.78 635.826 2
5 6 7 8369.48 1160.38 2
5 6 8 502.01 268.745 2
5 6 9 945.281 504.127 2
5 6 10 4979.89 995.444 2
5 6 11 8853.17 1297.55 2
5 6 12 1050.5 505.091 2
5 6 13 471.004 383.708 2
5 6 14 2747.33 780.348 2
5 6 15 3456.7 816.957 2
5 6 16 1363.83 573.282 2
5 6 17 4960.45 1024.12 2
5 6 18 -433.164 466.133 2
5 6 19 3219.64 901.127 2
5 6 20 1617.53 648.173 2
5 6 21 437.466 280.996 2
5 6 22 133.596 209.575 2
5 6 23 791.878 525.925 2
5 6 24 246.787 249.753 2
5 6 25 304.072 347.121 2
5 6 26 258.766 403.11 2
5 6 27 1408.27 661.449 2
5 -7 24 1401.66 637.302 2
5 -7 23 94.1825 293.391 2
5 -7 22 4256.88 1078.78 2
5 -7 21 721.196 458.817 2
5 -7 20 1685.49 638.292 2
5 -7 19 452.634 342.806 2
5 -7 18 5185.85 1117.62 2
5 -7 17 1226.85 580.852 2
5 -7 16 6744.91 1244.43 2
5 -7 15 288.153 255.545 2
5 -7 14 2070.61 730.697 2
5 -7 13 2460.39 683.417 2
5 -7 10 4979.54 387.565 1
5 7 -10 5689.94 495.208 2
5 7 -9 2313.84 356.247 2
5 -7 9 1820.42 190.287 1
5 7 -8 6994.23 656.683 2
5 7 -7 50.8765 101.688 2
5 7 -6 3901.11 553.156 2
5 7 -5 289.044 156.926 2
5 7 -4 3181.67 556.053 2
5 7 -3 838.468 289.876 2
5 7 -2 2855.21 560.683 2
5 7 -1 5724.3 791.645 2
5 7 0 3284.05 609.99 2
5 7 1 5557.83 823.906 2
5 7 2 3396.71 689.675 2
5 7 3 979.092 386.611 2
5 7 4 4067.24 777.718 2
5 7 5 89.3954 270.308 2
5 7 6 3067.47 676.428 2
5 7 7 -118.678 249.89 2
5 7 8 5845.98 978.734 2
5 7 9 2530.91 691.45 2
5 7 10 6813.72 1148.32 2
5 7 11 2307.62 681.985 2
5 7 12 8133.45 1270.87 2
5 7 13 1733.6 636.864 2
5 7 14 581.896 343.035 2
5 7 15 617.705 438.461 2
5 7 16 5273.33 1112.75 2
5 7 17 577.276 414.788 2
5 7 18 7092.55 1307.8 2
5 7 19 589.857 466.864 2
5 7 20 1142.06 570.42 2
5 7 21 688.081 438.714 2
5 7 22 3644.97 984.234 2
5 7 23 1425.24 655.451 2
5 7 24 734.497 462.915 2
5 7 25 659.942 533.125 2
5 7 26 432.915 444.782 2
5 7 27 417.696 437.732 2
5 -8 23 1429.11 663.622 2
5 -8 22 873.841 514.123 2
5 -8 21 286.301 500.762 2
5 -8 20 1044.34 608.166 2
5 -8 19 -640.4 437.312 2
5 -8 18 1910.14 741.139 2
5 -8 17 1232.16 521.762 2
-5 8 16 -652.896 399.245 1
5 -8 16 -75.0806 218.728 2
5 -8 15 7993.85 1348.16 2
-5 8 15 6980.8 1197.89 1
5 -8 14 13745.8 1729.31 2
5 8 -10 23652.6 1099.54 2
5 8 -9 2549.01 409.365 2
5 8 -8 4958.02 587.02 2
5 8 -7 13549.1 1016.21 2
5 8 -6 -83.3428 115.325 2
5 8 -5 9621.29 937.85 2
5 8 -4 9791.47 975.515 2
5 8 -3 2514.63 507.717 2
5 8 -2 16085.6 1335.99 2
5 8 -1 10616.7 1111.4 2
5 8 0 5732.79 834.211 2
5 8 1 9536.21 1121.35 2
5 8 2 14272.5 1398.96 2
5 8 3 4027.43 762.546 2
5 8 4 8909.57 1184.11 2
5 8 5 11186.4 1303.6 2
5 8 6 -262.3 382.493 2
5 8 7 14593.3 1574.11 2
5 8 8 5702.55 1035.06 2
5 8 9 2772.5 742.54 2
5 8 10 25250.4 2184.22 2
5 8 11 339.046 435.493 2
5 8 12 9174.16 1378.73 2
5 8 13 4917.34 1023.97 2
5 8 14 13816.2 1732.09 2
5 8 15 8375.8 1361.46 2
5 8 16 117.162 204.712 2
5 8 17 1183.22 478.769 2
5 8 18 397.996 300.155 2
5 8 19 -92.003 314.005 2
5 8 20 -27.909 339.117 2
5 8 21 -128.788 305.253 2
5 8 22 662.763 455.095 2
5 8 23 1303.52 641 2
5 8 24 1046.01 569.075 2
5 8 25 227.338 258.482 2
5 8 26 1394.77 658.221 2
5 -9 23 853.999 526.196 2
5 -9 22 231.793 344.97 2
-5 9 21 0.96758 261.748 1
5 -9 21 483.902 387.242 2
-5 9 20 -58.7396 240.438 1
5 -9 20 130.748 252.546 2
-5 9 19 3373.98 912.577 1
5 -9 19 2607.1 829.726 2
-5 9 18 943.465 437.852 1
5 -9 18 1399.24 678.849 2
-5 9 17 1014.07 467.31 1
5 -9 17 57.9502 296.981 2
5 -9 16 1081.87 531.805 2
-5 9 16 -87.2762 299.578 1
5 -9 15 4295.06 1024.06 2
-5 9 15 4281.96 933.77 1
-5 9 14 918.085 472.639 1
-5 9 13 2095.42 609.787 1
-5 9 12 358.311 258.39 1
-5 9 11 4456.81 846.768 1
-5 9 10 2402.92 620.29 1
5 9 -9 14306.1 986.692 2
5 9 -8 236.991 151.657 2
5 9 -7 4796.08 634.5 2
5 9 -6 4808.84 661.993 2
5 9 -5 3610.72 595.909 2
5 9 -4 5563.36 755.68 2
5 9 -3 2553.5 528.711 2
5 9 -2 1433.07 417.7 2
5 9 -1 1080.36 375.987 2
5 9 0 190.535 201.381 2
5 9 1 1121.05 431.025 2
5 9 2 1816.81 526.153 2
5 9 3 2947.82 690.256 2
5 9 4 7131.24 1063.54 2
5 9 5 4185.73 812.377 2
5 9 6 5542.27 969.039 2
5 9 7 5092.53 959.999 2
5 9 8 9.31552 289.167 2
5 9 9 12181.5 1521.82 2
5 9 10 3312.66 834.319 2
5 9 11 4278.51 939.882 2
5 9 12 42.9893 324.351 2
5 9 13 1538.88 570.356 2
5 9 14 -254.72 427.262 2
5 9 15 3364.86 883.34 2
5 9 16 861.186 493.157 2
5 9 17 1379.81 619.431 2
5 9 18 1601.4 687.912 2
5 9 19 5328.82 1180.27 2
5 9 20 -53.3485 260.321 2
5 9 21 741.591 526.765 2
5 9 22 -118.345 363.978 2
5 9 23 1710.81 738.111 2
5 9 24 -675.213 483.61 2
5 9 25 -47.738 231.381 2
5 9 26 -840.37 547.1 2
-5 10 23 -383.95 385.714 1
-5 10 22 1.03131 241.511 1
5 -10 22 137.878 337.816 2
-5 10 21 714.25 554.916 1
5 -10 21 494.475 322.306 2
-5 10 20 725.685 505.03 1
5 -10 20 698.266 492.644 2
-5 10 19 577.107 367.22 1
5 -10 19 77.6212 215.77 2
-5 10 18 1088.3 509.479 1
5 -10 18 800.336 442.739 2
5 -10 17 1260.83 606.267 2
-5 10 17 900.014 530.595 1
5 -10 16 730.648 481.194 2
-5 10 16 773.06 453.069 1
-5 10 15 1156.53 533.798 1
-5 10 14 9802.05 1381.39 1
-5 10 13 6779.56 1115.74 1
-5 10 12 2213.29 568.917 1
-5 10 11 7114.98 1070.16 1
-5 10 10 104.063 192.385 1
5 10 -9 7165.77 737.767 2
-5 10 9 6095.53 925.798 1
5 10 -8 4091.12 587.799 2
-5 10 8 4461.98 738.498 1
5 10 -7 -117.39 197.684 2
5 10 -6 1546.82 389.031 2
5 10 -5 416.462 208.522 2
5 10 -4 1996.69 466.626 2
5 10 -3 3386.82 632.238 2
5 10 -2 3893.92 685.973 2
5 10 -1 4988.26 822.622 2
5 10 0 12292.9 1286.51 2
5 10 1 5109.49 842.518 2
5 10 2 4506.74 818.127 2
5 10 3 2371.76 612.6 2
5 10 4 2046.37 602.721 2
5 10 5 2184.07 647.691 2
5 10 6 1333.63 497.503 2
5 10 7 460.6 339.276 2
5 10 8 3848.47 871.774 2
5 10 9 8918.47 1321.06 2
5 10 10 7.55999 266.722 2
5 10 11 6460.3 1154.5 2
5 10 12 3861.64 956.514 2
5 10 13 8522.17 1378.92 2
5 10 14 10801.4 1549.44 2
5 10 15 1968.46 756.828 2
5 10 16 1632.33 681.856 2
5 10 17 1628.25 696.653 2
5 10 18 573.935 341.426 2
5 10 19 805.577 519.065 2
5 10 20 381.444 499.336 2
5 10 21 381.574 397.141 2
5 10 22 -100.985 235.554 2
5 10 23 272.296 370.173 2
5 10 24 -262.928 347.783 2
5 10 25 267.777 353.198 2
-5 11 23 313.585 378.716 1
5 -11 22 375.197 374.673 2
-5 11 22 644.757 525.569 1
-5 11 21 370.765 391.152 1
5 -11 21 -481.664 419.437 2
5 -11 20 1106.42 589.556 2
-5 11 20 2035.13 763.692 1
-5 11 19 -164.651 226.003 1
5 -11 19 826.278 489.786 2
5 -11 18 1328.18 614.825 2
-5 11 18 557.64 397.794 1
5 -11 17 730.093 504.684 2
-5 11 17 -105.06 197.87 1
-5 11 16 824.739 423.634 1
-5 11 15 600.395 185.864 1
-5 11 14 1056.59 547.101 1
-5 11 13 1151.51 450.169 1
-5 11 12 660.2 360.832 1
-5 11 11 2138.49 599.416 1
-5 11 10 745.573 374.052 1
-5 11 9 1002.41 352.874 1
5 11 -9 1366.82 366.661 2
5 11 -8 1189.82 353.432 2
-5 11 8 1407.12 410.565 1
5 11 -7 3694.6 611.9 2
5 11 -6 12870.2 1170.61 2
5 11 -5 1695.45 440.786 2
5 11 -4 12192.8 1204.14 2
5 11 -3 15903.9 1417.25 2
5 11 -2 1286.21 467.358 2
5 11 -1 3447.84 696.985 2
5 11 0 20633.1 1712.67 2
5 11 1 4332.17 836.521 2
5 11 2 721.978 333.115 2
5 11 3 16236.1 1617.13 2
5 11 4 12805.8 1472.48 2
5 11 5 1859.87 592.981 2
5 11 6 14421.8 1611.49 2
5 11 7 3942.68 883.956 2
5 11 8 1522.19 549.62 2
5 11 9 1292.93 586.473 2
5 11 10 581.671 437.379 2
5 11 11 3925.29 932.848 2
5 11 12 85.7326 370.486 2
5 11 13 2979.98 808.141 2
5 11 14 726.604 464.644 2
5 11 15 310.461 337.529 2
5 11 16 813.669 538.762 2
5 11 17 178.728 345.042 2
5 11 18 1017.12 541.735 2
5 11 19 1272.53 625.67 2
5 11 20 1957.35 755.132 2
5 11 21 102.746 267.786 2
5 11 22 700.465 515.393 2
5 11 23 418.43 488.786 2
5 11 24 156.105 265.941 2
-5 12 23 955.068 638.719 1
-5 12 22 3.20543 213.864 1
5 -12 22 268.053 313.728 2
-5 12 21 632.568 505.621 1
5 -12 21 2243.14 815.738 2
-5 12 20 2983.78 945.341 1
5 -12 20 564.416 304.193 2
-5 12 19 -311.387 330.763 1
5 -12 19 318.411 398.863 2
-5 12 18 -20.1617 198.893 1
5 -12 18 90.9054 204.798 2
-5 12 17 0.83208 275.26 1
-5 12 16 1987.34 660.981 1
-5 12 15 -12.6343 269.655 1
-5 12 14 669.569 369.915 1
-5 12 13 1120.87 491.255 1
-5 12 12 2364.88 661.3 1
-5 12 11 3344.69 749.56 1
-5 12 10 6026.96 971.503 1
-5 12 9 3635.71 721.695 1
-5 12 8 296.86 265.91 1
5 12 -8 548.335 247.757 2
5 12 -7 5018.67 745.704 2
5 12 -6 4522.75 737.568 2
5 12 -5 8571.39 1018.77 2
5 12 -4 3751.7 689.376 2
5 12 -3 4289.31 748.944 2
5 12 -2 16755.8 1519.58 2
5 12 -1 1853.76 511.562 2
5 12 0 -157.373 329.236 2
5 12 1 2629.02 663.941 2
5 12 2 19260.9 1775.96 2
5 12 3 3090.96 735.467 2
5 12 4 3721.2 823.284 2
5 12 5 7945.41 1206.85 2
5 12 6 5460.74 1019.73 2
5 12 7 4646.89 962.555 2
5 12 8 839.751 407.144 2
5 12 9 4550.82 970.223 2
5 12 10 5421.46 1066.19 2
5 12 11 1541.35 630.56 2
5 12 12 3579.17 919.962 2
5 12 13 513.425 412.416 2
5 12 14 474.743 428.588 2
5 12 15 -672.8 451.535 2
5 12 16 2432.31 793.707 2
5 12 17 819.407 473.46 2
5 12 18 633.708 467.066 2
5 12 19 850.476 483.918 2
5 12 20 2156.15 819.368 2
5 12 21 1460.33 677.409 2
5 12 22 43.2561 241.899 2
5 12 23 -332.448 388.645 2
-5 13 22 538.002 453.054 1
-5 13 21 198.007 450.592 1
5 -13 21 672.004 464.395 2
-5 13 20 1618.36 745.254 1
5 -13 20 1290.25 646.455 2
5 -13 19 -322.3 356.344 2
-5 13 19 -822.474 503.384 1
5 -13 18 619.288 454.501 2
-5 13 18 -43.9174 187.18 1
-5 13 17 40.8207 217.074 1
-5 13 16 -239.023 330.072 1
-5 13 15 456.163 259.287 1
-5 13 14 215.755 165.106 1
-5 13 13 367.479 292.057 1
-5 13 12 640.838 289.079 1
-5 13 11 868.622 369.29 1
-5 13 10 3721 760.926 1
-5 13 9 2814.46 653.686 1
-5 13 8 2503.89 593.84 1
5 13 -8 957.4 334.186 2
5 13 -7 6398.52 876.337 2
-5 13 7 5488.71 807.66 1
5 13 -6 3503.08 666.531 2
5 13 -5 5790.78 869.87 2
5 13 -4 3872.75 734.613 2
5 13 -3 7405.51 1023.9 2
5 13 -2 1852.28 519.595 2
5 13 -1 -37.7103 148.49 2
5 13 0 8276.87 1153.63 2
5 13 1 -303.001 386.236 2
5 13 2 1295.1 468.579 2
5 13 3 7702.63 1191.03 2
5 13 4 4929.92 982.925 2
5 13 5 5803.83 1066.32 2
5 13 6 3049.69 764.455 2
5 13 7 5465.69 1063.15 2
5 13 8 1952.24 627.318 2
5 13 9 3555.63 934.366 2
5 13 10 3918.94 926.496 2
5 13 11 1018.1 457.998 2
5 13 12 711.221 421.363 2
5 13 13 1005.98 561.947 2
5 13 14 790.633 473.69 2
5 13 15 341.556 299.69 2
5 13 16 411.849 392.778 2
5 13 17 814.845 504.021 2
5 13 18 350.308 346.956 2
5 13 19 93.2453 281.416 2
5 13 20 2036.94 773.809 2
5 13 21 158.91 308.922 2
-5 14 22 125.979 323.558 1
-5 14 21 272.046 459.796 1
5 -14 21 -365.093 393.039 2
5 -14 20 584.122 486.747 2
-5 14 20 -458.211 402.041 1
5 -14 19 -90.5999 221.218 2
-5 14 19 -430.899 382.353 1
-5 14 18 208.954 346.702 1
-5 14 17 2458.67 793.385 1
-5 14 16 2372.25 735.004 1
-5 14 15 228.03 285.641 1
-5 14 14 803.127 376.405 1
-5 14 13 313.674 154.91 1
-5 14 12 186.777 188.612 1
-5 14 11 1279.29 465.303 1
-5 14 10 2570.43 657.502 1
-5 14 9 4886.15 853.8 1
5 14 -8 5766.58 841.763 2
5 14 -7 1639.84 462.103 2
5 14 -6 4362.94 777.153 2
5 14 -5 4789.49 835.136 2
5 14 -4 1639.86 525.674 2
5 14 -3 3821.32 764.801 2
5 14 -2 4387.41 830.353 2
5 14 -1 188.306 268.915 2
5 14 0 287.59 252.144 2
5 14 1 699.713 375.701 2
5 14 2 4303.61 872.379 2
5 14 3 2978.37 748.063 2
5 14 4 1225.63 445.128 2
5 14 5 4424.59 975.502 2
5 14 6 4056.48 930.174 2
5 14 7 1497.76 597.95 2
5 14 8 3261.07 864.4 2
5 14 9 4057 964.866 2
5 14 10 3728.7 918.868 2
5 14 11 2336.17 673.564 2
5 14 12 460.772 438.785 2
5 14 13 1241.35 593.771 2
5 14 14 952.224 569.172 2
5 14 15 7.40137 212.681 2
5 14 16 1546.34 677.836 2
5 14 17 3403.45 942.052 2
5 14 18 564.672 503.387 2
5 14 19 -838.379 519.713 2
5 14 20 -22.4529 224.961 2
-5 15 21 267.239 363.717 1
5 -15 20 1587.23 740.152 2
-5 15 20 249.418 261.669 1
-5 15 19 178.431 373.825 1
-5 15 18 334.415 469.684 1
-5 15 17 -352.205 340.103 1
-5 15 16 792.872 515.941 1
-5 15 15 1002.78 484.445 1
-5 15 14 -40.6577 162.764 1
-5 15 13 -163.066 231.103 1
5 15 -7 526.763 297.988 2
5 15 -6 311.31 171.731 2
5 15 -5 1741.52 517.469 2
5 15 -4 1666.69 515.744 2
5 15 -3 3007.24 711.437 2
5 15 -2 509.411 379.642 2
5 15 -1 1300.4 499.468 2
5 15 0 -19.2269 188.222 2
5 15 1 1103.12 477.462 2
5 15 2 716.172 451.8 2
5 15 3 2100.92 645.619 2
5 15 4 2444.45 712.455 2
5 15 5 1566.96 577.046 2
5 15 6 727.676 443.649 2
5 15 7 97.5914 277.592 2
5 15 8 3325.82 823.179 2
5 15 9 1860.88 691.094 2
5 15 10 1700.42 613.025 2
5 15 11 640.671 457.125 2
5 15 12 2824.49 837.432 2
5 15 13 311.215 212.963 2
5 15 14 598.127 467.022 2
5 15 15 977.648 531.981 2
5 15 16 441.285 444.833 2
5 15 17 -377.405 398.8 2
5 15 18 1250.88 610.564 2
5 15 19 616.717 416.147 2
-5 16 20 526.935 428.446 1
-5 16 19 1665.28 701.681 1
-5 16 18 -247.294 308.796 1
5 16 -7 322.201 234.6 2
5 16 -6 2039.07 582.673 2
5 16 -5 235.773 199.376 2
5 16 -4 1448.49 513.031 2
5 16 -3 1270.76 488.953 2
5 16 -2 2955.64 731.82 2
5 16 -1 -736.848 390.647 2
5 16 0 3954.67 862.652 2
5 16 1 418.25 361.906 2
5 16 2 2521.45 727.179 2
5 16 3 1702.6 600.159 2
5 16 4 1949.44 644.399 2
5 16 5 1136.09 503.157 2
5 16 6 2432.76 763.791 2
5 16 7 -171.274 292.767 2
5 16 8 539.116 303.65 2
5 16 9 181.231 313.034 2
5 16 10 5277.95 1207.91 2
5 16 11 -1.80277 200.994 2
5 16 12 16.6741 257.191 2
5 16 13 1936.45 764.728 2
5 16 14 1692.8 717.628 2
5 16 15 -47.2684 276.84 2
5 16 16 636.733 513.556 2
5 16 17 169.971 230.692 2
5 17 -6 4559.43 876.259 2
5 17 -5 458.739 255.23 2
5 17 -4 238.977 187.244 2
5 17 -3 1364.95 532.93 2
5 17 -2 389.398 334.509 2
5 17 -1 259.871 273.057 2
5 17 0 449.276 337.33 2
5 17 1 641.899 405.718 2
5 17 2 102.279 219.296 2
5 17 3 626.455 396.096 2
5 17 4 731.1 433.088 2
5 17 5 84.1452 206.909 2
5 17 6 2690.23 796.106 2
5 17 7 2444.72 727.319 2
5 17 8 2183.81 771.611 2
5 17 9 2179.26 784.152 2
5 17 10 485.074 367.108 2
5 17 11 420.901 463.899 2
5 17 12 1246.62 551.409 2
5 17 13 627.545 465.929 2
5 17 14 237.55 239.989 2
5 17 15 1187.11 630.2 2
5 17 16 -333.209 297.518 2
5 18 -6 524.503 349.701 2
5 18 -5 1783.11 605.707 2
5 18 -4 543.442 343.091 2
5 18 -3 1246.9 513.744 2
5 18 -2 1937.99 654.337 2
5 18 -1 -169.487 189.82 2
5 18 0 1958.11 652.205 2
5 18 1 628.286 507.363 2
5 18 2 3239.79 871.57 2
5 18 3 693.302 409.128 2
5 18 4 313.173 319.899 2
5 18 5 3489.7 934.651 2
5 18 6 750.602 430.697 2
5 18 7 631.65 444.906 2
5 18 8 1894.37 746.475 2
5 18 9 1825.2 749.055 2
5 18 10 -154.556 363.714 2
5 18 11 427.251 382.774 2
5 18 12 349.34 433.009 2
5 18 13 -672.098 487.954 2
5 18 14 266.798 402.263 2
5 19 -5 694.75 413.371 2
5 19 -4 419.912 292.274 2
5 19 -3 503.5 325.536 2
5 19 -2 120.721 288.417 2
5 19 -1 112.898 195.514 2
5 19 0 164.084 182.264 2
5 19 1 25.171 257.697 2
5 19 2 -149.094 256.323 2
5 19 3 1124.97 570.271 2
5 19 4 701.931 421.592 2
5 19 5 263.948 308.435 2
5 19 6 848.645 483.081 2
5 19 7 543.535 459.118 2
5 19 8 1060.4 564.652 2
5 19 9 1215.23 619.462 2
5 19 10 308.94 310.443 2
5 19 11 -477.42 433.821 2
5 19 12 -153.527 261.367 2
5 20 -4 414.729 303.602 2
5 20 -3 182.782 245.463 2
5 20 -2 187.541 203.674 2
5 20 -1 145.445 187.87 2
5 20 0 572.465 432.214 2
5 20 1 -699.768 444.713 2
5 20 2 801.399 520.02 2
5 20 3 845.144 518.698 2
5 20 4 329.619 391.039 2
5 20 5 -88.9924 250.282 2
5 20 6 -370.474 385.625 2
5 20 7 1023.21 603.402 2
5 20 8 -119.445 318.965 2
5 20 9 1213.98 590.618 2
5 20 10 -279.366 340.098 2
5 21 -4 -344.393 307.506 2
5 21 -3 1649.88 635.803 2
5 21 -2 -208.294 279.056 2
5 21 -1 1281.26 615.259 2
5 21 0 -537.675 398.027 2
5 21 1 195.935 231.171 2
5 21 2 730.928 427.306 2
5 21 3 -494.275 419.405 2
5 21 4 493.569 394.592 2
5 21 5 1356.99 684.476 2
5 21 6 139.342 305.944 2
5 21 7 837.445 541.953 2
5 22 -3 -142.034 224.426 2
5 22 -2 466.774 440.442 2
5 22 -1 148.865 273.52 2
5 22 0 966.172 552.325 2
5 22 1 80.2524 188.071 2
5 22 2 438.954 376.838 2
5 22 3 -45.2477 209.458 2
5 22 4 690.816 481.769 2
5 23 -2 2663.17 921.101 2
5 23 -1 475.687 412.84 2
5 23 0 630.151 509.391 2
5 23 1 -623.753 448.288 2
6 0 0 1475.77 503.017 2
6 0 1 22373.1 1780.56 2
6 0 -1 22987.9 1739.83 2
6 0 2 7072.81 1016.52 2
6 0 -2 6123.89 899.406 2
6 0 3 303.719 369.576 2
6 0 -3 30.3502 193.61 2
6 0 4 20.6205 248.134 2
6 0 -4 234.535 175.742 2
6 0 5 7166.13 1109.99 2
6 0 -5 6609.02 843.216 2
6 0 6 2749.29 780.527 2
6 0 -6 2057.76 504.382 2
6 0 7 1215.39 486.355 2
6 0 -7 527.852 236.785 2
6 0 8 1364.26 529.146 2
6 0 -8 1309.23 343.328 2
6 0 9 3226.31 864.865 2
6 0 -9 3524.62 570.305 2
6 0 10 10980.6 1474.89 2
6 0 -10 11565.6 975.868 2
6 0 11 -159.644 353.22 2
6 0 -11 152.054 67.2307 2
6 0 12 -102.837 227.436 2
6 0 13 2694.97 748.295 2
6 0 14 1086.05 573.909 2
6 0 15 2716.15 838.032 2
6 0 16 386.439 274.179 2
6 0 17 10.1249 387.39 2
6 0 18 1363.27 562.435 2
6 0 19 -546.584 453.441 2
6 0 20 609.615 536.16 2
6 0 21 989.042 497.058 2
6 0 22 -289.774 332.578 2
6 0 23 1151.92 609.539 2
6 0 24 879.162 503.745 2
6 0 25 2541.02 886.986 2
6 0 26 157.453 351.852 2
6 0 27 1289.51 647.353 2
6 -1 26 173.586 364.762 2
6 -1 25 -90.6277 278.397 2
6 -1 24 316.713 394.323 2
6 -1 23 3303.64 982.049 2
6 -1 22 315.191 470.659 2
6 -1 21 -129.209 311.64 2
6 -1 20 2632.17 840.718 2
6 -1 19 817.235 481.137 2
6 -1 18 933.01 505.992 2
6 -1 17 1248.5 569.519 2
6 -1 16 4919.54 1092.51 2
6 -1 15 2358.12 767.612 2
6 -1 14 3186.64 861.541 2
6 -1 13 4386.11 1013.36 2
6 -1 12 6151.47 1160.86 2
6 1 -11 709.9 225.029 2
6 -1 11 -1156.56 513.218 2
6 1 -10 1721.75 360.17 2
6 -1 10 2667.01 769.728 2
6 1 -9 528.155 195.213 2
6 -1 9 115.684 257.81 2
6 -1 8 6454.73 1112.15 2
6 1 -8 5582.11 695.744 2
6 -1 7 6607.93 1102.26 2
6 1 -7 7737.99 861.962 2
6 1 -6 3572.11 601.521 2
6 -1 6 3305.29 764.064 2
6 1 -5 -59.7072 169.783 2
6 -1 5 63.2639 194.718 2
6 1 -4 13775.3 1240.19 2
6 -1 4 13811.4 1508.13 2
6 1 -3 5010.68 759.826 2
6 -1 3 3547.05 735.262 2
6 1 -2 4855.97 780.76 2
6 -1 2 4804.33 853.588 2
6 1 -1 404.33 229.879 2
6 -1 1 1324.08 451.747 2
6 1 0 32784.2 2103.34 2
6 -1 0 35133.1 2203.42 2
6 1 1 1199.82 476.824 2
6 -1 -1 678.868 312.998 2
6 -1 -2 4264.65 754.657 2
6 1 2 4954.19 852.889 2
6 -1 -3 4408.94 734.76 2
6 1 3 5148.22 899.688 2
6 1 4 14217.7 1521.06 2
6 -1 -4 12932.3 1245.15 2
6 -1 -5 13.7454 138.03 2
6 1 5 0.56947 295.175 2
6 -1 -6 3489 608.732 2
6 1 6 3348.36 751.946 2
6 -1 -7 8548.76 958.538 2
6 1 7 7942.45 1225.96 2
6 1 8 7087.92 1172.53 2
6 1 9 956.684 548.918 2
6 1 10 734.791 359.855 2
6 -1 -11 471.805 228.974 2
6 1 11 278.929 251.862 2
6 1 12 7793.9 1289.86 2
6 -1 -12 6409.87 709.73 2
6 1 13 5677.52 1166.09 2
6 1 14 2484.59 731.975 2
6 1 15 2378.08 736.676 2
6 1 16 2721.22 792.394 2
6 1 17 1089.78 514.75 2
6 1 18 739.675 539.833 2
6 1 19 1001.69 520.711 2
6 1 20 1636.42 682.213 2
6 1 21 133.118 242.564 2
6 1 22 -10.8543 215.498 2
6 1 23 2631.28 896.289 2
6 1 24 -506.361 416.516 2
6 1 25 673.293 546.604 2
6 1 26 133.394 331.597 2
6 1 27 -159.852 303.338 2
6 -2 26 -406.159 381.38 2
6 -2 25 112.015 213.861 2
6 -2 24 198.145 334.778 2
6 -2 23 870.428 532.999 2
6 -2 22 1659.94 703.014 2
6 -2 21 249.029 282.617 2
6 -2 20 1430.15 589.607 2
6 -2 19 796.024 534.859 2
6 -2 18 8827.98 1518.37 2
6 -2 17 1964.34 726.09 2
6 -2 16 1024.69 519.511 2
6 -2 15 2681.81 828.736 2
6 -2 14 920.789 274.553 2
6 -2 13 1139.01 583.088 2
6 -2 12 1086.67 516.1 2
6 2 -11 911.84 231.074 2
6 -2 11 116.957 307.189 2
6 2 -10 2010.89 369.909 2
6 -2 10 1594.13 620.915 2
6 2 -9 573.497 220.196 2
6 -2 9 1392.35 550.053 2
6 2 -8 2191.35 429.9 2
6 -2 8 2982.8 739.331 2
6 2 -7 4000.35 614.264 2
6 -2 7 3517.18 782.437 2
6 2 -6 8363.91 914.829 2
6 -2 6 8947.63 1251.59 2
6 2 -5 6079.24 811.002 2
6 -2 5 6953.38 1104.21 2
6 2 -4 2417.74 539.455 2
6 -2 4 2111.76 619.283 2
6 2 -3 5243.49 791.161 2
6 -2 3 5398.08 893.668 2
6 -2 2 4941.88 885.729 2
6 2 -2 5182.59 800.095 2
6 -2 1 6101.57 944.956 2
6 2 -1 5535.95 844.062 2
6 -2 0 688.55 361.877 2
6 2 0 75.7507 181.534 2
6 2 1 5031.54 851.771 2
6 2 2 3550.45 729.136 2
6 2 3 4769.47 895.77 2
6 2 4 1969.85 599.113 2
6 2 5 5694.01 996.685 2
6 2 6 8126.77 1255.74 2
6 2 7 4699.8 957.706 2
6 2 8 2466.89 658.438 2
6 2 9 268.603 353.197 2
6 2 10 1504.25 548.845 2
6 2 11 177.042 292.042 2
6 2 12 884.295 454.258 2
6 2 13 420.737 291.521 2
6 2 14 1518.89 714.04 2
6 2 15 2385.81 813.485 2
6 2 16 2585.08 863.533 2
6 2 17 474.999 271.185 2
6 2 18 6906.11 1353.44 2
6 2 19 437.013 380.732 2
6 2 20 626.019 428.49 2
6 2 21 587.177 458.513 2
6 2 22 2291.42 838.382 2
6 2 23 1257.48 636.072 2
6 2 24 467.918 416.423 2
6 2 25 1273.82 677.532 2
6 2 26 -789.111 512.324 2
6 2 27 308.155 354.67 2
6 -3 26 8.84446 168.104 2
6 -3 25 -53.0981 332.891 2
6 -3 24 374.684 411.681 2
6 -3 23 639.209 525.457 2
6 -3 22 2207.21 1632.72 2
6 -3 21 1419.84 651.476 2
6 -3 20 2360.47 847.839 2
6 -3 19 2170.43 782.782 2
6 -3 18 4049.92 1024.37 2
6 -3 17 1142.1 585.988 2
6 -3 16 1794.12 668.395 2
6 -3 15 1329.53 618.036 2
6 -3 14 2273.64 697.983 2
6 -3 13 5389.3 1082.52 2
6 -3 12 8585.31 1333.95 2
6 -3 11 4607.01 1023.84 2
6 -3 10 1009.81 506.652 2
6 3 -10 741.969 212.487 2
6 3 -9 6538.68 683.261 2
6 -3 9 7092.72 1202.24 2
6 -3 8 1351.44 624.624 2
6 3 -8 690.66 231.197 2
6 3 -7 2319.44 455.878 2
6 -3 7 2148.47 629.525 2
6 3 -6 1200.66 349.643 2
6 -3 6 1186.68 495.14 2
6 3 -5 12004.3 1103.99 2
6 -3 5 13232.2 1526.41 2
6 -3 4 7459.72 1141.11 2
6 3 -4 9940.25 1044.55 2
6 3 -3 4099.06 711.658 2
6 3 -2 1087.18 392.485 2
6 3 -1 2058.52 501.079 2
6 3 0 10932.8 1212.48 2
6 3 1 1616.36 488.208 2
6 3 2 2368.62 635.066 2
6 3 3 3945.49 774.626 2
6 3 4 9927.35 1265.27 2
6 3 5 12937.9 1451.21 2
6 3 6 1608.15 640.039 2
6 3 7 2896.99 772.123 2
6 3 8 532.173 330.508 2
6 3 9 5614.01 1049.42 2
6 3 10 82.4146 321.503 2
6 3 11 5624.75 1073.78 2
6 3 12 7649.93 1274.14 2
6 3 13 8248.86 1350.98 2
6 3 14 4614.55 1058.3 2
6 3 15 888.808 579.089 2
6 3 16 2025.33 759.426 2
6 3 17 1682.3 687.134 2
6 3 18 3630.38 963.268 2
6 3 19 834.98 463.477 2
6 3 20 398.662 457.884 2
6 3 21 1505.49 621.985 2
6 3 22 807.217 483.349 2
6 3 23 370.87 439.56 2
6 3 24 -595.422 459.569 2
6 3 25 836.3 526.094 2
6 3 26 -553.967 462.544 2
6 3 27 41.6967 255.502 2
6 -4 26 1.11445 238.579 2
6 -4 25 1589.39 719.834 2
6 -4 24 1697.85 749.665 2
6 -4 23 445.276 458.734 2
6 -4 22 2445.49 816.636 2
6 -4 21 816.803 545.758 2
6 -4 20 1881.22 769.776 2
6 -4 19 -128.251 323.825 2
6 -4 18 5987.41 1261.2 2
6 -4 17 3.52603 297.031 2
6 -4 16 1776.88 717.334 2
6 -4 15 3322.52 891.389 2
6 -4 14 -32.548 305.671 2
6 -4 13 1513.69 548.238 2
6 -4 12 9055.03 1417.45 2
6 -4 11 2562.54 729.11 2
6 4 -10 6964.18 622.995 2
6 -4 10 6778.01 1183.54 2
6 4 -9 3974.53 513.451 2
6 -4 9 3279 804.135 2
6 4 -8 327.448 145.294 2
6 -4 8 611.559 338.071 2
6 -4 7 1798.22 578.888 2
6 4 -7 1952.21 413.785 2
6 -4 6 14613.7 1659.84 2
6 4 -6 15326.9 1200.53 2
6 4 -5 38.8242 128.643 2
6 4 -4 4346.2 696.858 2
6 4 -3 501.134 253.891 2
6 4 -2 3713.75 667.236 2
6 4 -1 1795.9 478.218 2
6 4 0 6261.77 913.717 2
6 4 1 2020.58 559.507 2
6 4 2 3975.01 778.271 2
6 4 3 769.766 405.687 2
6 4 4 4927.96 894.953 2
6 4 5 248.237 344.095 2
6 4 6 16901.4 1718.82 2
6 4 7 3158.25 768.93 2
6 4 8 280.322 425.266 2
6 4 9 3872.01 894.686 2
6 4 10 6727.11 1157.28 2
6 4 11 1965.56 602.68 2
6 4 12 8801.63 1397.98 2
6 4 13 1792.76 635.915 2
6 4 14 -234.58 364.209 2
6 4 15 4336.89 1028.86 2
6 4 16 2855.77 893.64 2
6 4 17 297.889 313.87 2
6 4 18 9891.63 1589.29 2
6 4 19 -172.643 249.83 2
6 4 20 2420.17 840.468 2
6 4 21 2346.82 887.316 2
6 4 22 1140.4 582.016 2
6 4 23 -324.774 415.537 2
6 4 24 793.796 491.996 2
6 4 25 919.087 547.887 2
6 4 26 200.862 320.215 2
6 4 27 -271.09 327.809 2
6 -5 25 2018.89 803.067 2
6 -5 24 1548.55 731.536 2
6 -5 23 1467.87 713.95 2
6 -5 22 92.7804 192.95 2
6 -5 21 1399.71 641.962 2
6 -5 20 1651.51 720.089 2
6 -5 19 445.776 288.496 2
6 -5 18 3064.02 910.584 2
6 -5 17 3214.82 893.752 2
6 -5 16 1307.46 617.768 2
6 -5 15 1877.09 667.673 2
6 -5 14 6555.3 1265.24 2
6 -5 13 612.519 470.15 2
6 -5 12 5986.26 1183.04 2
6 -5 11 7913.89 1331.7 2
6 -5 10 9370.43 1406.92 2
6 -5 9 1368.44 518.78 2
6 5 -9 2978.42 442.559 2
6 -5 8 1588.92 606.181 2
6 5 -8 1741.08 371.427 2
6 5 -7 2352.46 439.123 2
6 5 -6 2486.78 490.817 2
6 5 -5 9795.15 1006.89 2
6 5 -4 891.531 308.152 2
6 5 -3 3806.67 651.391 2
6 5 -2 1782.22 477.412 2
6 5 -1 9889.53 1150.53 2
6 5 0 8454.33 1085.07 2
6 5 1 9157.72 1139.06 2
6 5 2 2244.7 636.012 2
6 5 3 2761.41 677.12 2
6 5 4 1590.03 548.518 2
6 5 5 11372.5 1404.43 2
6 5 6 2520.04 677.979 2
6 5 7 1955.95 564.614 2
6 5 8 794.319 513.037 2
6 5 9 2741.47 719.776 2
6 5 10 10868.8 1474.51 2
6 5 11 8569.87 1368.76 2
6 5 12 5624.46 1144.46 2
6 5 13 1200.75 584.48 2
6 5 14 8667.97 1406.67 2
6 5 15 2577.49 832.734 2
6 5 16 1712.27 673.648 2
6 5 17 1795.33 690.934 2
6 5 18 2308.25 773.366 2
6 5 19 773.23 477.107 2
6 5 20 3554.66 966.411 2
6 5 21 790.21 457.563 2
6 5 22 791.712 515.697 2
6 5 23 1903.01 743.047 2
6 5 24 991.549 627.598 2
6 5 25 1658.58 746.556 2
6 5 26 1632.77 722.798 2
6 -6 25 917.203 582.029 2
6 -6 24 423.232 389.293 2
6 -6 23 -224.306 336.167 2
6 -6 22 4417.56 1157.57 2
6 -6 21 853.496 565.661 2
6 -6 20 115.68 308.472 2
6 -6 19 869.937 541.768 2
6 -6 18 384.08 410.187 2
6 -6 17 1552.73 612.654 2
6 -6 16 383.76 255.427 2
6 -6 15 1390.92 551.385 2
6 -6 14 1220.55 637.046 2
6 -6 13 13933.7 1813.26 2
6 -6 12 3730.99 916.25 2
6 -6 11 -47.0624 310.738 2
6 -6 10 -279.843 338.996 2
6 6 -9 7223.32 695.199 2
6 6 -8 6581.69 704.873 2
6 6 -7 2385.59 456.264 2
6 6 -6 4634.22 665.022 2
6 6 -5 8282.39 923.05 2
6 6 -4 10348.4 1055.85 2
6 6 -3 8810.6 1003.03 2
6 6 -2 75.4114 126.698 2
6 6 -1 1428.61 458.057 2
6 6 0 745.601 275.258 2
6 6 1 1059.95 428.077 2
6 6 2 663.833 337.508 2
6 6 3 8442.36 1145.18 2
6 6 4 10193.7 1304.53 2
6 6 5 8599.93 1215.85 2
6 6 6 7050.18 1143.22 2
6 6 7 3034.33 782.387 2
6 6 8 5601 1045.83 2
6 6 9 8918.48 1350.55 2
6 6 10 303.926 240.525 2
6 6 11 85.3414 280.728 2
6 6 12 4063.29 959.038 2
6 6 13 16358.8 1909.36 2
6 6 14 527.183 333.789 2
6 6 15 2175.19 710.448 2
6 6 16 127.391 249.901 2
6 6 17 1191.9 527.612 2
6 6 18 -40.5329 411.394 2
6 6 19 476.597 402.083 2
6 6 20 -220.05 228.116 2
6 6 21 689.789 485.548 2
6 6 22 3097.53 933.352 2
6 6 23 124.086 351.151 2
6 6 24 -486.042 413.837 2
6 6 25 1955.64 820.981 2
6 -7 25 450.631 408.781 2
6 -7 24 890.3 597.166 2
6 -7 23 660.794 547.46 2
6 -7 22 960.674 593.529 2
6 -7 21 2356.63 854.032 2
6 -7 20 4037.47 1084.39 2
6 -7 19 764.652 562.833 2
6 -7 18 3414.95 940.492 2
6 -7 17 84.8742 235.763 2
6 -7 16 1270.07 640.345 2
6 -7 15 998.674 471.133 2
6 -7 14 1171.01 589.141 2
6 -7 13 1652.35 725.957 2
6 -7 12 2878.05 785.866 2
6 -7 11 40.0522 303.793 2
6 7 -9 628.684 225.802 2
6 7 -8 432.361 204.942 2
6 7 -7 5251.42 684.712 2
6 7 -6 213.949 163.561 2
6 7 -5 50.6915 161.894 2
6 7 -4 4362.65 697.089 2
6 7 -3 1518.97 430.031 2
6 7 -2 11832 1219.29 2
6 7 -1 2375.04 563.441 2
6 7 0 16035 1507.52 2
6 7 1 2636.63 635.096 2
6 7 2 11041.2 1303.05 2
6 7 3 2526.46 648.929 2
6 7 4 4255.78 895.446 2
6 7 5 16.458 182.075 2
6 7 6 492.625 353.201 2
6 7 7 3896.49 892.931 2
6 7 8 934.599 446.198 2
6 7 9 1113.55 543.749 2
6 7 10 3868.73 871.017 2
6 7 11 785.671 421.51 2
6 7 12 3419.82 910.186 2
6 7 13 1698.3 641.225 2
6 7 14 1330.73 593.011 2
6 7 15 934.615 488.188 2
6 7 16 893.77 524.074 2
6 7 17 122.195 241.325 2
6 7 18 2375.69 779.084 2
6 7 19 2217.72 819.272 2
6 7 20 5111.5 1226.36 2
6 7 21 -147.592 284.564 2
6 7 22 427.091 401.062 2
6 7 23 70.4669 299.394 2
6 7 24 40.5626 245.671 2
6 7 25 -136.921 294.112 2
6 -8 24 83.2972 377.825 2
6 -8 23 479.15 505.627 2
6 -8 22 463.862 439.27 2
6 -8 21 824.325 492.646 2
6 -8 20 1124.4 582.485 2
6 -8 19 186.51 410.395 2
6 -8 18 411.515 328.002 2
6 -8 17 288.026 299.69 2
6 -8 16 807.422 439.959 2
6 -8 15 -1002.58 536.009 2
6 -8 14 4191.39 985.002 2
6 -8 13 7376.26 1383.81 2
6 8 -8 4380.17 600.277 2
6 8 -7 3320.19 548.405 2
6 8 -6 4494.06 668.92 2
6 8 -5 4581.73 703.541 2
6 8 -4 163.216 223.525 2
6 8 -3 1500.07 454.657 2
6 8 -2 6389 907.844 2
6 8 -1 2957.74 646.738 2
6 8 0 17452.2 1576.07 2
6 8 1 1039.07 392.271 2
6 8 2 6498.22 1024.49 2
6 8 3 1127.65 428.041 2
6 8 4 263.746 230.015 2
6 8 5 5000.84 958.278 2
6 8 6 3076.56 712.353 2
6 8 7 4271.33 900.197 2
6 8 8 4349.24 952.522 2
6 8 9 5328.12 1085.61 2
6 8 10 9975.23 1462.75 2
6 8 11 985.213 507.393 2
6 8 12 2424.99 734.781 2
6 8 13 7829.22 1346.76 2
6 8 14 2369.11 769.064 2
6 8 15 989.629 668.703 2
6 8 16 951.714 515.099 2
6 8 17 1647.55 700.258 2
6 8 18 248.783 398.857 2
6 8 19 534.13 250.378 2
6 8 20 557.271 348.681 2
6 8 21 562.61 379.741 2
6 8 22 19.9614 195.08 2
6 8 23 -334.405 360.715 2
6 8 24 1026.72 680.651 2
6 -9 24 1399.15 743.054 2
6 -9 23 10.0735 226.323 2
6 -9 22 -309.863 375.177 2
6 -9 21 463.295 331.111 2
6 -9 20 -1077.87 593.969 2
6 -9 19 779.868 500.601 2
6 -9 18 178.029 331.731 2
6 -9 17 2023.1 767.884 2
6 -9 16 -42.225 323.102 2
6 -9 15 336.727 285.3 2
6 -9 14 1810.87 706.732 2
6 9 -8 14156.8 1109.64 2
6 9 -7 4427.84 650.946 2
6 9 -6 9229.16 981.093 2
6 9 -5 1058.31 365.986 2
6 9 -4 464.466 240.929 2
6 9 -3 941.495 381.32 2
6 9 -2 173.07 228.409 2
6 9 -1 533.664 258.563 2
6 9 0 11880.5 1308.35 2
6 9 1 974.158 421.204 2
6 9 2 -87.0066 247.053 2
6 9 3 1825.27 600.274 2
6 9 4 85.7353 268.69 2
6 9 5 1680.37 581.482 2
6 9 6 9658.74 1346.64 2
6 9 7 3294.52 815.578 2
6 9 8 15185.9 1756.17 2
6 9 9 1568.1 630.419 2
6 9 10 696.017 365.334 2
6 9 11 1546.4 608.795 2
6 9 12 223.237 348.761 2
6 9 13 2284.42 739.831 2
6 9 14 986.811 485.576 2
6 9 15 51.7446 314.52 2
6 9 16 132.648 244.044 2
6 9 17 1014.35 610.104 2
6 9 18 549.378 509.894 2
6 9 19 442.574 400.86 2
6 9 20 139.467 386.107 2
6 9 21 646.586 522.939 2
6 9 22 393.205 389.598 2
6 9 23 492.079 419.681 2
6 -10 23 591.359 492.253 2
6 -10 22 -121.636 268.253 2
6 -10 21 857.359 554.216 2
6 -10 20 1866.77 801.243 2
6 -10 19 620.294 393.064 2
6 -10 18 535.628 430.831 2
6 -10 17 92.9139 335.438 2
6 -10 16 215.217 369.309 2
6 -10 15 -93.5551 315.349 2
6 10 -8 2466.7 479.379 2
6 10 -7 348.892 171.424 2
6 10 -6 4054.98 672.945 2
6 10 -5 2523.96 543.199 2
6 10 -4 1562.68 439.646 2
6 10 -3 4709.32 794.149 2
6 10 -2 9759.6 1164.43 2
6 10 -1 2443.27 578.458 2
6 10 0 1904.82 559.295 2
6 10 1 2159.7 623.131 2
6 10 2 8789.3 1216.25 2
6 10 3 3788.39 835.053 2
6 10 4 2345.03 634.458 2
6 10 5 3498.38 817.773 2
6 10 6 4592.89 960.596 2
6 10 7 320.158 270.385 2
6 10 8 3534.42 883.218 2
6 10 9 2511.26 739.775 2
6 10 10 775.884 431.78 2
6 10 11 3525.15 884.738 2
6 10 12 3733.27 972.511 2
6 10 13 2361.64 750.429 2
6 10 14 763.364 399.612 2
6 10 15 95.6475 304.46 2
6 10 16 190.205 270.007 2
6 10 17 91.0728 267.275 2
6 10 18 458.408 258.867 2
6 10 19 1174.58 621.768 2
6 10 20 1069.02 496.195 2
6 10 21 1535.89 698.709 2
6 10 22 497.34 507.623 2
6 -11 23 454.44 449.277 2
6 -11 22 284.441 341.904 2
6 -11 21 -93.8931 260.166 2
6 -11 20 185.128 265.332 2
6 -11 19 -500.253 440.809 2
6 -11 18 369.474 419.775 2
6 -11 17 395.821 484.06 2
6 -11 16 530.343 496.918 2
6 11 -7 209.039 223.549 2
6 11 -6 481.777 209.718 2
6 11 -5 6606.81 910.91 2
6 11 -4 3785.06 713.155 2
6 11 -3 206.378 176.685 2
6 11 -2 6744.51 996.508 2
6 11 -1 1500.16 487.087 2
6 11 0 282.216 265.248 2
6 11 1 1042.61 465.287 2
6 11 2 3608.73 806.291 2
6 11 3 740.725 448.2 2
6 11 4 5651.88 1061.66 2
6 11 5 7658.64 1221.99 2
6 11 6 192.849 178.217 2
6 11 7 374.297 430.253 2
6 11 8 4005.83 967.517 2
6 11 9 996.984 532.76 2
6 11 10 3995.95 974.864 2
6 11 11 12633.6 1749.64 2
6 11 12 3245.63 843.289 2
6 11 13 -516.825 435.842 2
6 11 14 2964.42 889.346 2
6 11 15 1611.14 705.196 2
6 11 16 396.942 395.746 2
6 11 17 110.78 181.142 2
6 11 18 394.913 461.719 2
6 11 19 1311.73 626.583 2
6 11 20 -66.6655 259.982 2
6 11 21 424.208 381.129 2
6 -12 22 264.777 286.706 2
6 -12 21 -636.082 476.197 2
6 -12 20 743.05 559.412 2
6 -12 19 1024.38 578.565 2
6 -12 18 929.792 531.496 2
6 -12 17 1849.76 736.732 2
6 12 -7 350.695 197.626 2
6 12 -6 3083.78 621.258 2
6 12 -5 647.879 298.453 2
6 12 -4 -150.778 266.413 2
6 12 -3 3173.45 688.887 2
6 12 -2 2975.47 669.926 2
6 12 -1 287.262 242.435 2
6 12 0 10655.1 1328.69 2
6 12 1 116.685 353.218 2
6 12 2 3152.66 776.068 2
6 12 3 4094.61 852.769 2
6 12 4 63.126 185.742 2
6 12 5 1496.1 502.054 2
6 12 6 2099.9 704.744 2
6 12 7 298.296 215.164 2
6 12 8 1881.47 649.844 2
6 12 9 2090.43 703.06 2
6 12 10 3751.66 950.126 2
6 12 11 1723.93 667.056 2
6 12 12 879.125 536.297 2
6 12 13 812.434 448.02 2
6 12 14 457.462 377.581 2
6 12 15 342.708 402.023 2
6 12 16 487.282 426.876 2
6 12 17 110.556 273.954 2
6 12 18 933.116 586.898 2
6 12 19 866.359 508.213 2
6 12 20 872.921 606.729 2
6 -13 21 853.47 619.306 2
6 -13 20 169.226 240.417 2
6 -13 19 945.792 583.502 2
6 -13 18 104.871 269.658 2
6 -13 17 1747.52 746.616 2
6 13 -6 2939.29 637.69 2
6 13 -5 1416.73 455.983 2
6 13 -4 259.46 201.2 2
6 13 -3 776.232 373.075 2
6 13 -2 1880.83 548.048 2
6 13 -1 411.989 184.691 2
6 13 0 117.196 189.323 2
6 13 1 345.818 264.836 2
6 13 2 1964.1 643.428 2
6 13 3 -81.5263 271.912 2
6 13 4 1298.36 499.065 2
6 13 5 2044.9 668.598 2
6 13 6 3669.5 884.437 2
6 13 7 1939.49 667.487 2
6 13 8 1634.97 652.897 2
6 13 9 -300.223 356.541 2
6 13 10 1203.3 630.317 2
6 13 11 5746.67 1183.07 2
6 13 12 -294.787 273.383 2
6 13 13 588.262 566.181 2
6 13 14 107.455 283.758 2
6 13 15 416.3 488.445 2
6 13 16 1282.52 637.544 2
6 13 17 571.119 419.634 2
6 13 18 654.783 566.434 2
6 13 19 -67.3072 211.358 2
6 -14 21 -84.7058 241.032 2
6 -14 20 535.072 439.852 2
6 -14 19 410.124 394.049 2
6 -14 18 595.057 543.741 2
6 14 -6 2324.72 596.368 2
6 14 -5 65.3906 129.931 2
6 14 -4 730.863 399.105 2
6 14 -3 1852.76 560.583 2
6 14 -2 1761.71 534.702 2
6 14 -1 137.957 210.47 2
6 14 0 378.246 210.181 2
6 14 1 728.281 381.48 2
6 14 2 843.669 375.313 2
6 14 3 1472 540.08 2
6 14 4 1804.32 605.396 2
6 14 5 435.04 380.961 2
6 14 6 1991.22 683.944 2
6 14 7 -755.68 432.463 2
6 14 8 131.849 302.321 2
6 14 9 951.086 564.804 2
6 14 10 445.853 382.709 2
6 14 11 3538.23 960.041 2
6 14 12 837.656 498.384 2
6 14 13 2521.69 840.23 2
6 14 14 132.217 289.592 2
6 14 15 1336.9 719.757 2
6 14 16 515.984 452.348 2
6 14 17 630.5 431.928 2
6 14 18 465.096 430.792 2
6 -15 20 -186.106 319.381 2
6 -15 19 -7.20761 194.471 2
6 15 -5 974.008 432.97 2
6 15 -4 925.695 381.624 2
6 15 -3 622.91 366.229 2
6 15 -2 684.543 382.869 2
6 15 -1 -569.576 344.781 2
6 15 0 874.457 445.796 2
6 15 1 192.797 262.37 2
6 15 2 1083.67 429.42 2
6 15 3 261.586 314.131 2
6 15 4 2452.6 737.262 2
6 15 5 769.658 375.342 2
6 15 6 781.229 445.058 2
6 15 7 578.935 381.6 2
6 15 8 1210.73 573.984 2
6 15 9 -621.735 423.833 2
6 15 10 1213.22 513.899 2
6 15 11 1168.2 583.582 2
6 15 12 -188.349 226.133 2
6 15 13 153.596 359.864 2
6 15 14 358.181 368.654 2
6 15 15 114.849 308.021 2
6 15 16 2892.93 936.359 2
6 15 17 769.057 512.932 2
6 -16 19 -9.84428 222.403 2
6 16 -5 -59.0114 183.184 2
6 16 -4 347.964 309.314 2
6 16 -3 58.1096 137.315 2
6 16 -2 2400.09 720.31 2
6 16 -1 477.28 298.78 2
6 16 0 893.016 465.874 2
6 16 1 78.0798 141.329 2
6 16 2 2505.02 758.748 2
6 16 3 116.832 242.67 2
6 16 4 118.804 164.406 2
6 16 5 -289.924 298.127 2
6 16 6 3318.44 890.246 2
6 16 7 213.647 332.353 2
6 16 8 3849.15 1009.52 2
6 16 9 -207.811 310.387 2
6 16 10 -506.985 382.481 2
6 16 11 427.029 387.297 2
6 16 12 369.279 437.545 2
6 16 13 16.3197 281.931 2
6 16 14 266.195 507.804 2
6 16 15 -1335.2 673.001 2
6 17 -4 605.062 302.543 2
6 17 -3 233.075 243.431 2
6 17 -2 1236.2 500.963 2
6 17 -1 324.912 247.036 2
6 17 0 861.638 461.859 2
6 17 1 151.915 214.756 2
6 17 2 1363.69 551.558 2
6 17 3 426.626 310.049 2
6 17 4 589.127 394.911 2
6 17 5 766.686 484.379 2
6 17 6 -43.8891 280.672 2
6 17 7 1493.03 637.585 2
6 17 8 -315.217 331.193 2
6 17 9 1393.19 606.393 2
6 17 10 -177.395 409.845 2
6 17 11 1592.6 690.708 2
6 17 12 561.819 541.783 2
6 17 13 691.234 503.773 2
6 18 -4 995.802 485.95 2
6 18 -3 703.664 380.336 2
6 18 -2 407.423 340.96 2
6 18 -1 76.5247 171.313 2
6 18 0 932.831 519.758 2
6 18 1 821.099 488.749 2
6 18 2 78.7826 219.925 2
6 18 3 1195.07 548.432 2
6 18 4 869.237 511.788 2
6 18 5 -228.29 313.092 2
6 18 6 -470.054 386.39 2
6 18 7 873.284 519.934 2
6 18 8 1502.2 672.574 2
6 18 9 531.372 492.822 2
6 18 10 636.606 401.834 2
6 18 11 1151.12 663.333 2
6 18 12 601.568 469.103 2
6 19 -3 -253.945 283.737 2
6 19 -2 -59.0016 172.684 2
6 19 -1 -60.6 190.313 2
6 19 0 -516.289 388.282 2
6 19 1 611.606 428.617 2
6 19 2 604.999 421.537 2
6 19 3 75.1346 199.315 2
6 19 4 192.037 281.024 2
6 19 5 68.7883 169.241 2
6 19 6 1020.47 539.657 2
6 19 7 -118.581 281.699 2
6 19 8 574.641 485.589 2
6 19 9 183.791 334.714 2
6 19 10 32.9892 368.731 2
6 20 -3 1069.89 530.978 2
6 20 -2 156.488 226.181 2
6 20 -1 2420.17 814.117 2
6 20 0 1432.73 616.301 2
6 20 1 2189.61 746.257 2
6 20 2 768.714 485.752 2
6 20 3 1000.74 603.632 2
6 20 4 -456.544 401.452 2
6 20 5 396.068 346.235 2
6 20 6 -63.743 195.321 2
6 20 7 -51.9136 282.901 2
6 21 -2 503.862 390.121 2
6 21 -1 -9.02811 161.434 2
6 21 0 -167.399 287.089 2
6 21 1 120.302 230.864 2
6 21 2 -3.87881 201.378 2
6 21 3 -526.989 410.698 2
6 21 4 494.352 412.395 2
6 21 5 695.691 502.761 2
6 22 -1 1171.73 626.911 2
6 22 0 51.7927 220.387 2
6 22 1 -0.99776 235.28 2
6 22 2 1033 618.052 2
7 0 0 1974.48 656.743 2
7 0 1 26824.2 2122.05 2
7 0 -1 27495 2050.1 2
7 0 2 5702.31 995.959 2
7 0 -2 4680.08 859.357 2
7 0 3 34161.4 2474.29 2
7 0 -3 29896 2081.81 2
7 0 4 3193.51 838.514 2
7 0 -4 4292.35 789.788 2
7 0 5 1133.79 534.843 2
7 0 -5 1971.91 529.432 2
7 0 6 9737.71 1417.59 2
7 0 -6 9782.58 1138.75 2
7 0 7 12315.6 1595.93 2
7 0 -7 12306.8 1239.56 2
7 0 8 13980.1 1743.77 2
7 0 -8 17301.7 1417.68 2
7 0 9 3460.78 847.871 2
7 0 -9 2699.77 555.063 2
7 0 10 -125.476 355.299 2
7 0 -10 95.0384 113.945 2
7 0 11 3694 1017.74 2
7 0 12 782.234 552.64 2
7 0 13 4025.81 1023.9 2
7 0 14 1267.1 609.47 2
7 0 15 1083.43 560.471 2
7 0 16 574.079 365.558 2
7 0 17 7737 1470.87 2
7 0 18 432.011 476.784 2
7 0 19 25.2809 345.868 2
7 0 20 484.405 405.874 2
7 0 21 568.497 396.637 2
7 0 22 1228.77 642.075 2
7 0 23 5357.53 1332.49 2
7 0 24 465.975 506.191 2
7 0 25 116.279 274.776 2
7 -1 25 333.895 434.191 2
7 -1 24 755.885 614.014 2
7 -1 23 1021.98 598.895 2
7 -1 22 1287.58 689.075 2
7 -1 21 796.66 520.771 2
7 -1 20 -3.11965 240.396 2
7 -1 19 1738.02 724.773 2
7 -1 18 4114.93 1097.8 2
7 -1 17 1718.71 715.473 2
7 -1 16 4120.34 1067.05 2
7 -1 15 1809.83 832.238 2
7 -1 14 981.167 561.639 2
7 -1 13 5380.74 1164.84 2
7 -1 12 224.838 301.459 2
7 -1 11 1257.46 502.49 2
7 1 -10 1939.98 436.928 2
7 -1 10 1312.99 501.585 2
7 -1 9 7851.26 1323.94 2
7 1 -9 8271.91 929.649 2
7 -1 8 5882.31 1116.94 2
7 1 -8 6870.84 873.924 2
7 1 -7 3734.77 667.25 2
7 -1 7 5758.52 1103.46 2
7 1 -6 896.318 355.116 2
7 -1 6 636.57 404.532 2
7 1 -5 4589.02 778.889 2
7 -1 5 4394.2 949.824 2
7 1 -4 3603.99 729.994 2
7 -1 4 2966.92 817.718 2
7 1 -3 16447.3 1538.48 2
7 -1 3 17099.6 1770.21 2
7 1 -2 2590.13 623.048 2
7 -1 2 2519.74 731.848 2
7 1 -1 5282.19 921.802 2
7 -1 1 5883.16 1018.29 2
7 1 0 33494.3 2347.73 2
7 -1 0 31364.8 2272.42 2
7 1 1 4270.08 859.38 2
7 -1 -1 4739.67 885.883 2
7 1 2 2742.18 721.418 2
7 -1 -2 2982.68 691.982 2
7 1 3 13445.1 1551.5 2
7 -1 -3 14667.1 1478.17 2
7 1 4 3478.91 854.841 2
7 -1 -4 3320.18 689.748 2
7 1 5 3039.01 720.465 2
7 -1 -5 3994.2 750.36 2
7 1 6 647.735 275.183 2
7 -1 -6 865.186 340.454 2
7 1 7 2620.64 773.424 2
7 -1 -7 4963.56 808.731 2
7 1 8 6634.65 1196.37 2
7 -1 -8 6031.95 869.333 2
7 1 9 8026.14 1322.43 2
7 -1 -9 7058.43 899.757 2
7 1 10 1448.95 591.57 2
7 -1 -10 996.419 329.351 2
7 1 11 3666.52 959.309 2
7 -1 -11 2359.2 493.913 2
7 1 12 199.822 380.377 2
7 1 13 4962.48 1126.24 2
7 1 14 1337.83 616.927 2
7 1 15 2504.99 852.555 2
7 1 16 3884.66 983.251 2
7 1 17 1947.98 766.123 2
7 1 18 3455.48 1006.05 2
7 1 19 253.81 302.162 2
7 1 20 747.139 612.431 2
7 1 21 1833.99 785.327 2
7 1 22 1832.41 755.326 2
7 1 23 1332.96 732.965 2
7 1 24 -400.723 394.904 2
7 1 25 -49.9233 256.901 2
7 -2 25 332.449 495.532 2
7 -2 24 -77.6304 232.379 2
7 -2 23 1149.74 644.813 2
7 -2 22 -537.466 437.987 2
7 -2 21 181.547 497.46 2
7 -2 20 723.589 513.371 2
7 -2 19 -292.904 483.006 2
7 -2 18 1522.38 643.745 2
7 -2 17 2308.11 840.841 2
7 -2 16 1613.15 746.91 2
7 -2 15 297.637 351.603 2
7 -2 14 10803.2 1690.33 2
7 -2 13 2032.71 797.041 2
7 -2 12 6301.65 1225.75 2
7 -2 11 518.552 377.976 2
7 -2 10 276.661 406.877 2
7 2 -9 -102.362 130.054 2
7 -2 9 72.9308 278.725 2
7 2 -8 4053.05 662.242 2
7 -2 8 4924.07 1034.97 2
7 2 -7 609.657 254.748 2
7 -2 7 762.24 455.696 2
7 2 -6 4716.91 764.606 2
7 -2 6 4439.13 1010.53 2
7 2 -5 8055.31 1023.98 2
7 -2 5 7338.95 1181.08 2
7 2 -4 5949.21 902.365 2
7 -2 4 5492.08 1044.65 2
7 2 -3 1043.27 350.966 2
7 -2 3 852.501 444.806 2
7 2 -2 16358.3 1556.19 2
7 -2 2 15777.1 1661.04 2
7 2 -1 -5.33011 192.343 2
7 -2 1 75.61 214.678 2
7 2 0 12628.7 1428.53 2
7 -2 0 13178.4 1497.96 2
7 -2 -1 -134.494 316.314 2
7 2 1 18.4206 295.193 2
7 2 2 15753.8 1657.06 2
7 -2 -2 13169.4 1445.73 2
7 -2 -3 967.221 403.179 2
7 2 3 639.493 292.21 2
7 -2 -4 5218.38 881.953 2
7 2 4 5205.9 1004.91 2
7 -2 -5 7056.91 1008.67 2
7 2 5 9259.28 1330.98 2
7 -2 -6 5452.96 878.857 2
7 2 6 3419.4 847.643 2
7 2 7 -52.8172 297.845 2
7 2 8 4214.05 936.507 2
7 2 9 239.501 257.783 2
7 2 10 46.9361 203.859 2
7 2 11 11437.6 1599.96 2
7 2 12 5418.79 1134.01 2
7 2 13 4362.12 1077 2
7 2 14 10401 1623.47 2
7 2 15 1320.73 656.299 2
7 2 16 1838.25 681.76 2
7 2 17 1487.7 590.38 2
7 2 18 658.442 486.303 2
7 2 19 391.767 485.635 2
7 2 20 -393.027 395.443 2
7 2 21 -103.308 239.455 2
7 2 22 532.24 478.59 2
7 2 23 842.013 609.24 2
7 2 24 587.947 481.574 2
7 2 25 656.403 561.867 2
7 -3 25 1295.8 716.206 2
7 -3 24 337.881 420.895 2
7 -3 23 487.743 397.988 2
7 -3 22 1303.13 661.485 2
7 -3 21 109.42 174.507 2
7 -3 20 1155.94 678.638 2
7 -3 19 -160.468 446.105 2
7 -3 18 308.067 378.589 2
7 -3 17 418.427 482.951 2
7 -3 16 5817.97 1281.88 2
7 -3 15 989.959 635.241 2
7 -3 14 1111.54 549.588 2
7 -3 13 1021.39 528.928 2
7 -3 12 1124.94 558.382 2
7 -3 11 6945.53 1295.66 2
7 -3 10 758.535 496.576 2
7 -3 9 1672.98 638.838 2
7 3 -9 1769.23 409.598 2
7 3 -8 11108.5 1067.61 2
7 -3 8 11253.4 1578.34 2
7 3 -7 16964.7 1365.5 2
7 -3 7 15623.8 1815.47 2
7 3 -6 7558.8 948.375 2
7 -3 6 8199.78 1314.51 2
7 3 -5 363.47 253.258 2
7 -3 5 569.131 426.251 2
7 3 -4 -107.082 218.16 2
7 -3 4 24.7692 218.87 2
7 -3 3 449.636 246.802 2
7 3 -3 372.431 202.198 2
7 -3 2 7641.01 1190.32 2
7 3 -2 9660.32 1193.24 2
7 3 -1 15157.5 1506.59 2
7 -3 1 13786.3 1570.94 2
7 3 0 2637.54 669.425 2
7 -3 0 591.307 282.041 2
7 3 1 14069.2 1531.89 2
7 3 2 11374.8 1448.46 2
7 3 3 1077.23 534.39 2
7 3 4 21.438 343.596 2
7 3 5 303.902 316.139 2
7 3 6 7561.2 1232.3 2
7 3 7 15177.9 1764.92 2
7 3 8 9927.51 1456.86 2
7 3 9 2334.71 698.107 2
7 3 10 715.644 480.108 2
7 3 11 3711.06 938.544 2
7 3 12 992.501 590.979 2
7 3 13 678.738 365.066 2
7 3 14 1096.2 540.177 2
7 3 15 1049.77 594.401 2
7 3 16 4900.58 1211.68 2
7 3 17 135.452 287.311 2
7 3 18 231.744 361.395 2
7 3 19 -334.205 399.873 2
7 3 20 -83.9743 428.743 2
7 3 21 -110.926 262.484 2
7 3 22 79.238 268.723 2
7 3 23 -411.521 403.628 2
7 3 24 826.708 577.48 2
7 -4 25 1948.84 910.805 2
7 -4 24 580.244 578.01 2
7 -4 23 503.005 362.219 2
7 -4 22 962.265 608.122 2
7 -4 21 1042.31 615.718 2
7 -4 20 1048.63 670.53 2
7 -4 19 -445.017 422.718 2
7 -4 18 3019.43 986.428 2
7 -4 17 10.9794 309.226 2
7 -4 16 809.132 570.88 2
7 -4 15 1545.84 683.207 2
7 -4 14 1100.85 581.524 2
7 -4 13 -270.077 351.554 2
7 -4 12 5846.16 1228.08 2
7 -4 11 467.725 212.669 2
7 -4 10 1675.84 593.874 2
7 -4 9 1117.21 395.145 2
7 4 -8 5425.87 747.693 2
7 -4 8 5069.79 1023.93 2
7 4 -7 14946.3 1291.8 2
7 -4 7 15914.9 1841.31 2
7 4 -6 540.978 284.519 2
7 -4 6 3556.18 908.633 2
7 -4 5 7667.88 1241.02 2
7 4 -5 7997.08 1008.72 2
7 -4 4 9670.57 1400.67 2
7 4 -4 8781.56 1079.41 2
7 4 -3 1595.57 505.867 2
7 -4 3 1151.2 542.94 2
7 4 -2 4756.72 834.544 2
7 4 -1 1899.22 562.929 2
7 4 0 1241.32 490.624 2
7 4 1 2148.04 608.727 2
7 4 2 4047.25 838.142 2
7 4 3 1890.5 653.017 2
7 4 4 9844.26 1377.82 2
7 4 5 6204.55 1092.7 2
7 4 6 1131.31 530.443 2
7 4 7 16455.9 1843.29 2
7 4 8 5938.19 1180.59 2
7 4 9 2162.26 740.106 2
7 4 10 2478.86 793.931 2
7 4 11 884.676 405.761 2
7 4 12 8486.07 1443.41 2
7 4 13 -152.026 349.015 2
7 4 14 741.595 363.45 2
7 4 15 1329.07 692.879 2
7 4 16 48.9122 167.689 2
7 4 17 353.873 399.017 2
7 4 18 4014.67 1071.75 2
7 4 19 795.792 514.242 2
7 4 20 727.862 509.784 2
7 4 21 1324.58 719.491 2
7 4 22 312.932 404.872 2
7 4 23 -146.255 296.119 2
7 4 24 1181.57 588.562 2
7 -5 25 -962.44 612.389 2
7 -5 24 -489.94 445.852 2
7 -5 23 269.221 331.126 2
7 -5 22 546.343 453.596 2
7 -5 21 1828.23 823.844 2
7 -5 20 16.4217 192.153 2
7 -5 19 1785.36 799.663 2
7 -5 18 820.08 453.945 2
7 -5 17 -669.706 475.801 2
7 -5 16 279.769 283.956 2
7 -5 15 302.98 245.358 2
7 -5 14 221.252 349.537 2
7 -5 13 1481.87 645.104 2
7 -5 12 5151.15 1149.98 2
7 -5 11 1864.58 618.96 2
7 -5 10 5616.68 1198.61 2
7 -5 9 4787.95 1069.05 2
7 -5 8 513.209 392.644 2
7 5 -8 941.823 319.482 2
7 -5 7 3784.13 873.654 2
7 5 -7 3638.37 618.027 2
7 -5 6 1096.02 498.923 2
7 5 -6 835.122 329.397 2
7 5 -5 1310.98 398.375 2
7 5 -4 9149.95 1102.95 2
7 5 -3 7917.71 1051.93 2
7 5 -2 9766.91 1203.63 2
7 5 -1 253.053 133.526 2
7 5 0 895.325 390.957 2
7 5 1 -1.72824 338.959 2
7 5 2 11045.1 1398.74 2
7 5 3 7278.62 1185.49 2
7 5 4 7720.64 1218 2
7 5 5 2456.42 720.036 2
7 5 6 933.512 489.016 2
7 5 7 5982.35 1153.42 2
7 5 8 283.509 280.187 2
7 5 9 3118.15 824.157 2
7 5 10 4896.37 1055.33 2
7 5 11 2471.71 786.577 2
7 5 12 3725.5 942.771 2
7 5 13 759.377 424.794 2
7 5 14 1253.46 589.464 2
7 5 15 444.711 366.282 2
7 5 16 8.52015 294.272 2
7 5 17 1216.92 654.514 2
7 5 18 1615.42 701.331 2
7 5 19 1404.47 686.577 2
7 5 20 2034.1 847.128 2
7 5 21 1542.76 732.38 2
7 5 22 326.007 325.985 2
7 5 23 94.811 226.568 2
7 -6 24 2436.62 931.89 2
7 -6 23 100.658 217.054 2
7 -6 22 252.526 384.294 2
7 -6 21 1933.59 843.962 2
7 -6 20 793.656 537.366 2
7 -6 19 1202.7 619.288 2
7 -6 18 67.104 209.238 2
7 -6 17 212.762 350.806 2
7 -6 16 1944.2 722.324 2
7 -6 15 586.714 395.175 2
7 -6 14 756.353 454.406 2
7 -6 13 1121.97 571.137 2
7 -6 12 337.538 320.392 2
7 -6 11 2055.23 714.361 2
7 -6 10 8335.6 1443.99 2
7 -6 9 3978.86 963.331 2
7 -6 8 1204.7 541.843 2
7 6 -8 1219.76 350.637 2
7 6 -7 13055.8 1173.09 2
7 6 -6 3253.21 611.417 2
7 6 -5 18984.1 1530.91 2
7 6 -4 2070.31 553.107 2
7 6 -3 1916.67 544.742 2
7 6 -2 36.4116 133.519 2
7 6 -1 5152.2 919.644 2
7 6 0 4596 862.704 2
7 6 1 6414.56 1055.1 2
7 6 2 41.3922 235.384 2
7 6 3 2166.1 647.743 2
7 6 4 2203.11 624.022 2
7 6 5 18078.8 1876.54 2
7 6 6 2543.73 769.311 2
7 6 7 13790.1 1683.44 2
7 6 8 721.86 411.072 2
7 6 9 2060.75 712.199 2
7 6 10 8973.72 1443.89 2
7 6 11 138.02 320.205 2
7 6 12 999.378 542.949 2
7 6 13 1039.02 549.223 2
7 6 14 2489.4 839.546 2
7 6 15 799.5 516.049 2
7 6 16 2015.01 736.422 2
7 6 17 277.851 425.319 2
7 6 18 -43.991 473.725 2
7 6 19 328.587 496.256 2
7 6 20 1861.16 769.618 2
7 6 21 2141.01 873.769 2
7 6 22 287.559 337.099 2
7 6 23 901.493 702.968 2
7 -7 24 -233.087 334.91 2
7 -7 23 398.476 398.811 2
7 -7 22 1062.65 609.612 2
7 -7 21 905.158 548.299 2
7 -7 20 138.456 386.694 2
7 -7 19 -90.7838 245.084 2
7 -7 18 1649.58 708.403 2
7 -7 17 1727.34 774.177 2
7 -7 16 1764.99 742.401 2
7 -7 15 2562.94 860.852 2
7 -7 14 70.0274 388.186 2
7 -7 13 -138.357 329.617 2
7 -7 12 508.183 327.601 2
7 -7 11 679.643 519.418 2
7 -7 10 2996.37 873.761 2
7 -7 9 5672.77 1181.4 2
7 7 -7 1759.39 436.363 2
7 7 -6 80.1619 119.641 2
7 7 -5 723.472 257.299 2
7 7 -4 7308.87 987.151 2
7 7 -3 4123.34 766.65 2
7 7 -2 3461.5 714.45 2
7 7 -1 831.328 386.664 2
7 7 0 26178.2 2050.1 2
7 7 1 820.168 431.767 2
7 7 2 3244.53 763.448 2
7 7 3 4865.55 956.441 2
7 7 4 9116.1 1340.81 2
7 7 5 197.981 208.516 2
7 7 6 468.365 362.779 2
7 7 7 1309.84 565.453 2
7 7 8 5297.31 1067.32 2
7 7 9 4266.11 1021.85 2
7 7 10 1612.69 605.432 2
7 7 11 393.403 323.463 2
7 7 12 -264.607 219.349 2
7 7 13 254.041 520.685 2
7 7 14 160.007 530.104 2
7 7 15 2576.14 832.987 2
7 7 16 862.65 484.894 2
7 7 17 684.389 399.254 2
7 7 18 2254.52 896.1 2
7 7 19 -139.634 302.124 2
7 7 20 997.136 564.023 2
7 7 21 984.806 555.8 2
7 7 22 924.239 578.442 2
7 -8 24 -62.62 213.296 2
7 -8 23 -52.8671 224.041 2
7 -8 22 673.648 540.53 2
7 -8 21 -609.986 488.896 2
7 -8 20 1021.51 622.152 2
7 -8 19 32.0594 204.959 2
7 -8 18 1336.32 657.526 2
7 -8 17 603.517 517.644 2
7 -8 16 1463.78 724.126 2
7 -8 15 -451.969 439.994 2
7 -8 14 1385.49 666.497 2
7 -8 13 2081.84 807.413 2
7 -8 12 2591.44 830.832 2
7 -8 11 2181.84 782.561 2
7 8 -7 1541.7 404.553 2
7 8 -6 802.981 333.026 2
7 8 -5 1888.83 483.894 2
7 8 -4 575.899 288.577 2
7 8 -3 1161.71 427.622 2
7 8 -2 9478.6 1207.61 2
7 8 -1 161.656 160.223 2
7 8 0 -98.784 252.776 2
7 8 1 97.9883 224.88 2
7 8 2 9403.67 1297.74 2
7 8 3 1441.16 473.403 2
7 8 4 1827.96 593.56 2
7 8 5 3002.98 802.586 2
7 8 6 -2.82952 262.404 2
7 8 7 1088.96 485.838 2
7 8 8 2400.67 751.183 2
7 8 9 -112.672 463.51 2
7 8 10 1213.76 623.823 2
7 8 11 747.352 484.301 2
7 8 12 5476.39 1183.38 2
7 8 13 1105.02 594.411 2
7 8 14 2375.32 844.184 2
7 8 15 1267.66 650.831 2
7 8 16 -506.065 549.538 2
7 8 17 13.1277 261.356 2
7 8 18 1634.55 697.022 2
7 8 19 39.5251 344.543 2
7 8 20 1954.5 855.115 2
7 8 21 336.994 383.207 2
7 -9 23 630.578 497.558 2
7 -9 22 673.359 524.253 2
7 -9 21 278.998 405.076 2
7 -9 20 1089.2 650.046 2
7 -9 19 1175.49 662.76 2
7 -9 18 124.661 263.497 2
7 -9 17 349.629 404.496 2
7 -9 16 -469.028 430.145 2
7 -9 15 666.141 464.087 2
7 -9 14 1553.57 684.594 2
7 -9 13 -103.767 376.667 2
7 -9 12 3388.16 994.905 2
7 9 -7 350.045 223.621 2
7 9 -6 10547.5 1128.32 2
7 9 -5 26.1921 157.182 2
7 9 -4 6734.7 966.078 2
7 9 -3 1444.47 496.573 2
7 9 -2 3372.07 721.5 2
7 9 -1 3845.12 776.813 2
7 9 0 87.9669 173.632 2
7 9 1 3406.86 779.203 2
7 9 2 3227.23 787.904 2
7 9 3 892.686 527.444 2
7 9 4 5946.45 1093.15 2
7 9 5 145.894 222.794 2
7 9 6 10594.9 1496.82 2
7 9 7 642.1 447.562 2
7 9 8 243.786 260.679 2
7 9 9 2631.4 801.254 2
7 9 10 4464.42 1034.33 2
7 9 11 1130.52 509.018 2
7 9 12 708.182 479.024 2
7 9 13 -119.452 262.407 2
7 9 14 1020.28 490.209 2
7 9 15 1886.72 712.772 2
7 9 16 -149.911 381.915 2
7 9 17 64.6692 267.462 2
7 9 18 538.917 436.491 2
7 9 19 1416.4 683.622 2
7 9 20 236.523 245.679 2
7 9 21 -339.196 372.601 2
7 -10 22 150.249 391.897 2
7 -10 21 1049.47 618.818 2
7 -10 20 606.48 504.298 2
7 -10 19 86.6503 260.259 2
7 -10 18 768.394 564.496 2
7 -10 17 1696.66 808.123 2
7 -10 16 802.818 545.138 2
7 -10 15 130.021 301.649 2
7 -10 14 641.132 385.09 2
7 -10 13 212.645 329.901 2
7 10 -6 217.38 233.54 2
7 10 -5 1747.19 483.71 2
7 10 -4 3516.48 699.45 2
7 10 -3 131.153 165.367 2
7 10 -2 3603.69 756.242 2
7 10 -1 1031.68 425.863 2
7 10 0 1120.39 503.938 2
7 10 1 1771.28 593.256 2
7 10 2 5907.08 1072.93 2
7 10 3 -83.5213 268.156 2
7 10 4 2548.35 709.131 2
7 10 5 2354.03 706.274 2
7 10 6 -131.62 405.441 2
7 10 7 1725.85 651.471 2
7 10 8 4178.85 987.756 2
7 10 9 293.225 294.395 2
7 10 10 1011.74 549.059 2
7 10 11 1099.42 544.857 2
7 10 12 195.564 313.193 2
7 10 13 1551.29 732.23 2
7 10 14 652.393 475.111 2
7 10 15 884.666 541.096 2
7 10 16 277.376 276.856 2
7 10 17 2132.33 841.653 2
7 10 18 734.868 419.523 2
7 10 19 1785.16 758.962 2
7 10 20 82.7784 391.627 2
7 -11 22 1277.53 727.491 2
7 -11 21 477.842 450.097 2
7 -11 20 -276.924 368.369 2
7 -11 19 561.495 526.667 2
7 -11 18 1133.48 690.82 2
7 -11 17 944.65 606.625 2
7 -11 16 742.691 479.69 2
7 -11 15 339.67 362.875 2
7 -11 14 243.024 295.085 2
7 11 -6 5093.3 818.222 2
7 11 -5 2638.25 606.579 2
7 11 -4 4389.35 807.217 2
7 11 -3 1.07733 176.074 2
7 11 -2 3393.35 762.496 2
7 11 -1 5683.49 986.524 2
7 11 0 7878.64 1159.46 2
7 11 1 8793.4 1279.17 2
7 11 2 3287.02 783.791 2
7 11 3 531.549 384.187 2
7 11 4 4779.81 1007.19 2
7 11 5 1476.03 578.453 2
7 11 6 5636.54 1106.11 2
7 11 7 315.251 286.29 2
7 11 8 310.617 400.595 2
7 11 9 6040.37 1250.14 2
7 11 10 3924.47 1024.42 2
7 11 11 301.483 435.17 2
7 11 12 2374.43 816.462 2
7 11 13 2132.99 721.345 2
7 11 14 1067.72 601.01 2
7 11 15 859.127 536.242 2
7 11 16 1590.31 714.438 2
7 11 17 -355.413 373.582 2
7 11 18 348.547 381.147 2
7 11 19 974.586 667.468 2
7 -12 21 120.889 307.672 2
7 -12 20 1547.18 768.536 2
7 -12 19 976.593 548.703 2
7 -12 18 353.322 382.594 2
7 -12 17 391.557 370.951 2
7 -12 16 595.028 561.252 2
7 -12 15 -325.838 425.253 2
7 12 -5 225.144 196.363 2
7 12 -4 2522.21 624.934 2
7 12 -3 464.047 310.824 2
7 12 -2 2455.35 653.463 2
7 12 -1 1923.62 595.104 2
7 12 0 441.797 302.483 2
7 12 1 1852.76 603.147 2
7 12 2 1900.45 663.018 2
7 12 3 564.814 369.661 2
7 12 4 2087.87 632.622 2
7 12 5 -299.931 348.46 2
7 12 6 230.863 356.664 2
7 12 7 1876.21 639.809 2
7 12 8 2025.4 634.343 2
7 12 9 910.893 717.189 2
7 12 10 878.265 499.224 2
7 12 11 41.263 385.595 2
7 12 12 1965.19 711.676 2
7 12 13 1402.67 651.284 2
7 12 14 1199.27 627.899 2
7 12 15 566.181 453.326 2
7 12 16 1107.92 666.107 2
7 12 17 1287.58 693.242 2
7 12 18 380.99 387.021 2
7 -13 19 319.304 443.871 2
7 -13 18 -289.746 398.37 2
7 -13 17 1105.73 706.45 2
7 -13 16 -307.225 359.304 2
7 13 -5 264.192 162.339 2
7 13 -4 240.436 184.68 2
7 13 -3 -122.454 185.897 2
7 13 -2 825.942 405.066 2
7 13 -1 128.851 158.594 2
7 13 0 2874.58 735.966 2
7 13 1 1112.99 583.337 2
7 13 2 1679.43 660.638 2
7 13 3 -23.4957 222.209 2
7 13 4 -25.0654 219.329 2
7 13 5 365.673 324.044 2
7 13 6 1699.05 673.035 2
7 13 7 1595.28 640.961 2
7 13 8 -265.928 424.103 2
7 13 9 2979.73 853.178 2
7 13 10 968.776 543.22 2
7 13 11 434.641 422.817 2
7 13 12 -64.0661 320.311 2
7 13 13 1005.31 553.195 2
7 13 14 506.114 567.457 2
7 13 15 993.863 591.55 2
7 13 16 -848.215 532.426 2
7 13 17 779.064 596.393 2
7 -14 18 880.665 605.763 2
7 -14 17 356.431 455.789 2
7 14 -4 -41.9159 188.858 2
7 14 -3 725.59 375.115 2
7 14 -2 883.698 383.921 2
7 14 -1 165.484 151.738 2
7 14 0 2203.8 706.096 2
7 14 1 83.4176 200.41 2
7 14 2 291.998 287.644 2
7 14 3 485.628 354.673 2
7 14 4 81.0621 239.146 2
7 14 5 1555.38 629.276 2
7 14 6 -85.45 204.676 2
7 14 7 1640.96 636.065 2
7 14 8 -121.97 341.208 2
7 14 9 1361.34 632.784 2
7 14 10 459.979 384.459 2
7 14 11 207.524 266.671 2
7 14 12 -187.551 344.402 2
7 14 13 414.591 439.011 2
7 14 14 95.0003 367.805 2
7 14 15 -92.2797 318.87 2
7 15 -4 1644.43 565.96 2
7 15 -3 234.055 215.945 2
7 15 -2 276.492 193.995 2
7 15 -1 528.253 335.328 2
7 15 0 -342.41 304.235 2
7 15 1 973.592 539.946 2
7 15 2 -159.549 321.546 2
7 15 3 135.042 211.204 2
7 15 4 1601.5 608.021 2
7 15 5 526.219 373.381 2
7 15 6 1045.41 465.169 2
7 15 7 745.51 535.386 2
7 15 8 570.064 418.438 2
7 15 9 863.061 498.192 2
7 15 10 2048.54 770.352 2
7 15 11 354.634 379.084 2
7 15 12 702.361 519.807 2
7 15 13 84.4349 229.205 2
7 15 14 505.494 540.751 2
7 16 -3 659.715 367.199 2
7 16 -2 1026.55 492.079 2
7 16 -1 742.948 408.13 2
7 16 0 602.928 380.769 2
7 16 1 333.87 265.689 2
7 16 2 883.645 471.831 2
7 16 3 652.446 372.257 2
7 16 4 557.758 440.349 2
7 16 5 317.033 343.026 2
7 16 6 574.47 414.021 2
7 16 7 303.29 347.114 2
7 16 8 263.788 218.797 2
7 16 9 -572.374 432.856 2
7 16 10 787.322 516.599 2
7 16 11 772.377 536.659 2
7 16 12 2980.37 953.531 2
7 17 -3 313.664 299.286 2
7 17 -2 307.726 295.265 2
7 17 -1 997.508 479.501 2
7 17 0 -247.614 283.609 2
7 17 1 1058.74 514.114 2
7 17 2 -13.4317 182.31 2
7 17 3 107.259 223.793 2
7 17 4 -62.3508 293.931 2
7 17 5 -419.412 384.697 2
7 17 6 679.368 478.531 2
7 17 7 1577.66 673.404 2
7 17 8 -723.038 480.896 2
7 17 9 1598.68 719.911 2
7 17 10 681.53 441.968 2
7 17 11 -483.55 412.783 2
7 18 -2 545.672 372.272 2
7 18 -1 81.5057 168.957 2
7 18 0 73.295 267.653 2
7 18 1 225.784 310.928 2
7 18 2 -434.415 356.298 2
7 18 3 1320.26 629.133 2
7 18 4 153.947 166.045 2
7 18 5 771.764 475.815 2
7 18 6 814.429 551.444 2
7 18 7 2594.58 859.74 2
7 18 8 -189.352 313.987 2
7 18 9 715.178 473.349 2
7 19 -1 796.783 499.668 2
7 19 0 -228.511 267.202 2
7 19 1 128.334 324.736 2
7 19 2 353.618 346.466 2
7 19 3 1937.72 749.94 2
7 19 4 334.078 345.351 2
7 19 5 210.291 260.593 2
7 19 6 3.06531 276.796 2
7 19 7 1659.74 732.721 2
7 20 -1 149.405 218.661 2
7 20 0 -207.592 298.311 2
7 20 1 883.111 568.855 2
7 20 2 190.957 362.877 2
7 20 3 297.53 324.914 2
7 20 4 299.499 381.587 2
7 21 1 0.9903 218.135 2
7 21 2 562.214 436.313 2
8 0 0 1469.47 584.559 2
8 0 -1 10236.1 1389.62 2
8 0 1 13839.7 1646.41 2
8 0 2 2553.16 775.71 2
8 0 -2 1148.42 442.279 2
8 0 3 12723.1 1628.65 2
8 0 -3 11990.8 1434.25 2
8 0 4 339.289 333.629 2
8 0 -4 287.864 253.22 2
8 0 5 253.987 291.07 2
8 0 -5 328.263 279.43 2
8 0 6 11348.6 1620.03 2
8 0 -6 10879.1 1305.3 2
8 0 7 620.816 449.887 2
8 0 -7 1141.3 462.726 2
8 0 8 1378.93 653.703 2
8 0 -8 1682.7 488.411 2
8 0 9 -45.1128 342.102 2
8 0 -9 66.8162 142.939 2
8 0 10 15987.2 2028.8 2
8 0 11 5427.91 1235.2 2
8 0 12 3390 975.911 2
8 0 13 370.448 406.698 2
8 0 14 -496.972 441.36 2
8 0 15 858.151 584.54 2
8 0 16 1093.89 594.759 2
8 0 17 739.961 592.475 2
8 0 18 414.693 416.316 2
8 0 19 758.362 517.205 2
8 0 20 564.908 460.197 2
8 0 21 663.173 522.222 2
8 0 22 1636.68 808.615 2
8 -1 22 1715.17 802.392 2
8 -1 21 295.239 376.451 2
8 -1 20 138.227 301.618 2
8 -1 19 271.514 273.881 2
8 -1 18 772.507 539.678 2
8 -1 17 778.446 533.657 2
8 -1 16 1908.72 816.098 2
8 -1 15 5840.69 1310.33 2
8 -1 14 751.663 510.045 2
8 -1 13 -426.18 531.064 2
8 -1 12 2157.81 820.804 2
8 -1 11 3928.49 1056.51 2
8 -1 10 2562.27 838.085 2
8 -1 9 4161.8 1028.4 2
8 1 -8 1250.16 408.009 2
8 -1 8 752.88 520.04 2
8 1 -7 166.914 204.447 2
8 -1 7 344.52 386.34 2
8 1 -6 1053.72 395.795 2
8 -1 6 860.326 571.388 2
8 -1 5 9228.1 1429.92 2
8 1 -5 10068 1256.78 2
8 1 -4 -102.588 201.735 2
8 -1 4 2.9867 233.571 2
8 1 -3 474.687 268.861 2
8 -1 3 664.52 413.846 2
8 1 -2 1837.29 608.839 2
8 -1 2 1607 633.708 2
8 1 -1 16103.8 1727.08 2
8 -1 1 14574.2 1702.41 2
8 1 0 10547.2 1410.07 2
8 -1 0 9747.58 1380.13 2
8 1 1 18538.7 1909.22 2
8 -1 -1 15519.3 1700.34 2
8 1 2 1812.36 577.338 2
8 -1 -2 2967.17 721.458 2
8 1 3 360.577 314.831 2
8 -1 -3 1195.42 492.54 2
8 1 4 582.714 413.805 2
8 -1 -4 29.5885 243.981 2
8 1 5 12137.6 1649.15 2
8 -1 -5 11521.2 1376.71 2
8 1 6 789.919 387.907 2
8 -1 -6 1987.4 563.982 2
8 1 7 211.893 257.71 2
8 -1 -7 391.992 295.901 2
8 1 8 1816.91 652.036 2
8 -1 -8 960.36 373.262 2
8 1 9 3920.88 1023.32 2
8 -1 -9 4392.17 793.487 2
8 1 10 1761.14 688.223 2
8 1 11 2538.4 831.76 2
8 1 12 1475.82 667.133 2
8 1 13 -202.415 540.05 2
8 1 14 358.58 476.053 2
8 1 15 6089.53 1344.89 2
8 1 16 737.324 424.367 2
8 1 17 2457.38 917.991 2
8 1 18 -17.6754 204.367 2
8 1 19 -87.9541 293.31 2
8 1 20 949.353 618.505 2
8 1 21 813.018 618.171 2
8 1 22 1680.42 828.105 2
8 -2 22 1500.8 737.342 2
8 -2 21 -830.687 560.156 2
8 -2 20 -715.387 532.39 2
8 -2 19 -142.465 321.663 2
8 -2 18 981.965 598.536 2
8 -2 17 142.878 375.633 2
8 -2 16 2823.67 931.967 2
8 -2 15 4260.35 1150.57 2
8 -2 14 74.9793 386.742 2
8 -2 13 493.755 307.991 2
8 -2 12 896.036 447.858 2
8 -2 11 292.871 357.163 2
8 -2 10 5897.71 1247.31 2
8 -2 9 758.398 500.418 2
8 2 -8 853.483 322.754 2
8 -2 8 851.871 434.188 2
8 2 -7 2629.56 615.589 2
8 -2 7 2302.33 749.778 2
8 2 -6 3162.53 670.57 2
8 -2 6 2351.55 787.257 2
8 2 -5 4536.71 834.658 2
8 -2 5 6278.3 1197.8 2
8 2 -4 6201.68 1001.15 2
8 -2 4 6776.65 1266.86 2
8 2 -3 76.1934 186.217 2
8 -2 3 840.296 534.469 2
8 2 -2 10974 1393.52 2
8 -2 2 13115.5 1643.6 2
8 2 -1 1595.13 531.742 2
8 -2 1 718.334 277.669 2
8 2 0 3903.23 857.249 2
8 -2 0 2957.84 739.424 2
8 2 1 211.939 243.056 2
8 -2 -1 403.535 299.002 2
8 2 2 9976.62 1404.01 2
8 -2 -2 8370.56 1244.04 2
8 2 3 807.418 481.33 2
8 -2 -3 36.3433 201.755 2
8 2 4 7852.89 1297.47 2
8 -2 -4 8407.96 1286.52 2
8 2 5 5868.55 1169.89 2
8 -2 -5 5306.99 964.734 2
8 2 6 1935.39 709.193 2
8 -2 -6 1668.24 535.475 2
8 2 7 2572.32 788.821 2
8 -2 -7 1850.98 600.788 2
8 2 8 720.06 540.698 2
8 -2 -8 700.743 327.899 2
8 2 9 452.69 355.165 2
8 -2 -9 1219.21 424.563 2
8 2 10 4699.27 1095.38 2
8 2 11 1478.85 737.242 2
8 2 12 61.0359 297.618 2
8 2 13 1075.88 460.712 2
8 2 14 -29.4391 357.793 2
8 2 15 2673.61 941.934 2
8 2 16 1651.3 798.619 2
8 2 17 -278.25 364.749 2
8 2 18 962.649 695.114 2
8 2 19 1522.01 739.473 2
8 2 20 -97.8994 337.829 2
8 2 21 365.494 419.527 2
8 2 22 763.381 501.813 2
8 -3 22 284.004 413.549 2
8 -3 21 37.4878 352.46 2
8 -3 20 2908.17 996.313 2
8 -3 19 1891.25 791.846 2
8 -3 18 2963.93 1000.46 2
8 -3 17 -162.508 379.133 2
8 -3 16 -95.0199 311.727 2
8 -3 15 431.933 421.072 2
8 -3 14 268.926 259.59 2
8 -3 13 1584.3 702.913 2
8 -3 12 2000.53 736.488 2
8 -3 11 5232.68 1200.56 2
8 -3 10 1167.15 580.205 2
8 -3 9 2246.83 757.82 2
8 -3 8 1334.65 556.439 2
8 3 -7 -56.8763 105.309 2
8 -3 7 253.882 363.938 2
8 3 -6 968.988 381.227 2
8 -3 6 762.656 475.167 2
8 3 -5 5465.77 909.517 2
8 -3 5 4405.04 1023.37 2
8 3 -4 8198.94 1115.65 2
8 -3 4 10009.8 1490.23 2
8 3 -3 1434.8 508.172 2
8 -3 3 798.544 440.12 2
8 3 -2 12065.6 1446.84 2
8 -3 2 12375.7 1624.29 2
8 3 -1 5422.02 1002.19 2
8 -3 1 4999.48 1016.3 2
8 3 0 6112.85 1051.69 2
8 -3 0 6977.17 1213.68 2
8 -3 -1 5790.76 1043.27 2
8 3 1 4670.61 955.048 2
8 3 2 11704.1 1536.58 2
8 -3 -2 11134.5 1455.48 2
8 -3 -3 1567.14 551.021 2
8 3 3 975.63 517.964 2
8 3 4 9905.84 1468.56 2
8 -3 -4 10097.1 1359.02 2
8 3 5 4684.55 1002.76 2
8 -3 -5 4416.21 877.582 2
8 3 6 1006.75 599.279 2
8 -3 -6 746.652 369.464 2
8 3 7 1225.88 548.094 2
8 -3 -7 480.299 301.058 2
8 3 8 1638.02 673.535 2
8 -3 -8 757.24 351.751 2
8 3 9 1920.5 694.554 2
8 -3 -9 2304.35 609.035 2
8 3 10 2065.33 737.731 2
8 -3 -10 1126.51 416.135 2
8 3 11 2660.26 834.742 2
8 3 12 1041.78 625.276 2
8 3 13 1618.64 649.9 2
8 3 14 138.47 271.967 2
8 3 15 -364.935 367.253 2
8 3 16 -276.632 353.146 2
8 3 17 736.507 498.499 2
8 3 18 3624.18 1078.6 2
8 3 19 372.717 303.941 2
8 3 20 2457.87 869.818 2
8 3 21 951.242 598.915 2
8 -4 22 32.4521 206.76 2
8 -4 21 1267.93 761.927 2
8 -4 20 582.85 499.606 2
8 -4 19 1814.99 785.596 2
8 -4 18 -33.3287 221.113 2
8 -4 17 2373.92 887.713 2
8 -4 16 31.6484 254.934 2
8 -4 15 724.045 551.908 2
8 -4 14 406.567 536.022 2
8 -4 13 112.839 313.207 2
8 -4 12 4866.92 1158.94 2
8 -4 11 3254.69 940.071 2
8 -4 10 3999.28 1025.87 2
8 -4 9 920.075 576.76 2
8 -4 8 4997.7 1143.21 2
8 -4 7 -87.0619 258.584 2
8 4 -7 -19.4315 217.364 2
8 -4 6 211.304 309.175 2
8 4 -6 1176.88 429.62 2
8 -4 5 3867.31 926.013 2
8 4 -5 4678.32 817.781 2
8 -4 4 3008.22 826.159 2
8 4 -4 4940.93 865.033 2
8 -4 3 4806.59 1072.31 2
8 4 -3 4478.98 855.479 2
8 4 -2 -247.3 318.323 2
8 -4 2 -45.8418 230.506 2
8 4 -1 4673.46 928.883 2
8 -4 1 5325.57 1072.38 2
8 4 0 877.199 464.934 2
8 -4 0 672.747 373.355 2
8 4 1 4369.84 911.547 2
8 -4 -1 4109.44 920.313 2
8 4 2 72.1227 154.969 2
8 4 3 4066.67 929.877 2
8 4 4 3601.85 905.838 2
8 4 5 4153.81 975.262 2
8 4 6 301.663 319.316 2
8 4 7 235.289 395.44 2
8 4 8 6444.3 1280.03 2
8 4 9 2483.53 815.098 2
8 4 10 3600.29 955.508 2
8 4 11 4361.94 1040.02 2
8 4 12 2983.62 891.556 2
8 4 13 -43.6411 239.899 2
8 4 14 393.489 411.527 2
8 4 15 3227.31 1032.52 2
8 4 16 655.89 461.189 2
8 4 17 -412.328 445.84 2
8 4 18 867.747 637.359 2
8 4 19 2056.64 803.696 2
8 4 20 29.0301 223.342 2
8 4 21 -444.499 434.818 2
8 -5 21 1209.92 759.308 2
8 -5 20 463.427 412.601 2
8 -5 19 93.0822 246.935 2
8 -5 18 549.149 369.813 2
8 -5 17 1780.63 766.038 2
8 -5 16 1010.32 634.678 2
8 -5 15 391.878 280.514 2
8 -5 14 3163.99 982.856 2
8 -5 13 1938.63 763.334 2
8 -5 12 18.6248 333.681 2
8 -5 11 2149.48 770.595 2
8 -5 10 3905.3 1097.36 2
8 -5 9 879.043 593.327 2
8 -5 8 156.264 448.914 2
8 5 -7 1737.5 471.65 2
8 -5 7 766.007 522.828 2
8 5 -6 1233.68 419.349 2
8 -5 6 1307.55 619.22 2
8 -5 5 803.843 461.844 2
8 5 -5 700.39 322.007 2
8 -5 4 -224.224 457.973 2
8 5 -4 99.1963 124.826 2
8 -5 3 298.794 308.665 2
8 5 -3 244.691 198.524 2
8 5 -2 3615.26 772.682 2
8 5 -1 3938.87 837.947 2
8 5 0 120.772 231.1 2
8 5 1 4502.03 937.666 2
8 5 2 2821.2 761.998 2
8 5 3 390.853 336.649 2
8 5 4 -252.782 380.848 2
8 5 5 790.885 365.72 2
8 5 6 92.3885 319.545 2
8 5 7 2842.56 836.447 2
8 5 8 218.506 296.02 2
8 5 9 -228.93 310.97 2
8 5 10 3145.28 889.787 2
8 5 11 1501.13 683.693 2
8 5 12 1382.77 675.179 2
8 5 13 1356.5 562.452 2
8 5 14 3534.15 995.409 2
8 5 15 1004.81 495.023 2
8 5 16 631.754 528.489 2
8 5 17 2233.15 911.964 2
8 5 18 975.07 599.311 2
8 5 19 -19.2608 284.335 2
8 5 20 884.032 617.713 2
8 -6 21 295.611 438.11 2
8 -6 20 812.476 615.811 2
8 -6 19 810.491 545.06 2
8 -6 18 -456.734 454.364 2
8 -6 17 99.5969 378.779 2
8 -6 16 -1371.49 695.868 2
8 -6 15 2034.31 777.751 2
8 -6 14 105.909 249.199 2
8 -6 13 1724.63 672.844 2
8 -6 12 5843.88 1309.04 2
8 -6 11 2261.81 739.044 2
8 -6 10 2660.81 859.571 2
8 -6 9 409.758 636.486 2
8 -6 8 1968.01 779.684 2
8 -6 7 6598.39 1337.42 2
8 -6 6 339.022 474.213 2
8 6 -6 562.143 291.502 2
8 -6 5 -64.1078 228.768 2
8 6 -5 215.048 194.084 2
8 6 -4 -203.367 251.042 2
8 6 -3 10425.2 1296.2 2
8 6 -2 2640.34 672.997 2
8 6 -1 6399.36 1066.85 2
8 6 0 3032.77 742.329 2
8 6 1 5733.23 1064.74 2
8 6 2 2697.35 749.208 2
8 6 3 12541.6 1617.27 2
8 6 4 516.741 419.948 2
8 6 5 775.338 481.182 2
8 6 6 291.854 346.861 2
8 6 7 6728.93 1249.5 2
8 6 8 851.854 562.409 2
8 6 9 534.605 382.821 2
8 6 10 2330.67 797.945 2
8 6 11 3155.69 963.819 2
8 6 12 5855.31 1272.33 2
8 6 13 852.724 537.959 2
8 6 14 1379.38 589.645 2
8 6 15 2246.31 932.035 2
8 6 16 535.449 408.187 2
8 6 17 543.585 439.248 2
8 6 18 846.437 444.776 2
8 6 19 2064.94 861.645 2
8 6 20 -1640.44 768.629 2
8 -7 21 2278.61 981.163 2
8 -7 20 1953.93 854.511 2
8 -7 19 12.2567 225.643 2
8 -7 18 914.541 687.673 2
8 -7 17 240.225 371.881 2
8 -7 16 993.356 636.788 2
8 -7 15 162.263 315.12 2
8 -7 14 1002.16 607.049 2
8 -7 13 3299.57 1008.16 2
8 -7 12 1498.98 706.257 2
8 -7 11 1026.7 552.59 2
8 -7 10 1520.89 591.842 2
8 -7 9 555.956 561.401 2
8 -7 8 203.99 207.734 2
8 -7 7 58.0144 237.108 2
8 7 -6 1000.3 376.584 2
8 7 -5 1990.02 556.608 2
8 7 -4 4654.48 841.085 2
8 7 -3 2394.26 633.946 2
8 7 -2 607.041 402.346 2
8 7 -1 59.1586 234.038 2
8 7 0 2797.78 717.579 2
8 7 1 689.823 392.031 2
8 7 2 459.179 330.952 2
8 7 3 2196.62 659.73 2
8 7 4 3613.48 875.031 2
8 7 5 866.176 438.325 2
8 7 6 858.5 434.012 2
8 7 7 111.24 262.058 2
8 7 8 968.632 533.676 2
8 7 9 -61.0175 407.128 2
8 7 10 1588.35 654.626 2
8 7 11 2236.62 793.638 2
8 7 12 2453.47 896.693 2
8 7 13 3777.85 1030.6 2
8 7 14 1375.45 647.161 2
8 7 15 -474.157 410.067 2
8 7 16 882.568 545.828 2
8 7 17 -767.394 528.947 2
8 7 18 228.058 348.603 2
8 7 19 1149.72 675.464 2
8 -8 20 242.369 398.131 2
8 -8 19 1410.75 785.687 2
8 -8 18 366.199 488.134 2
8 -8 17 -269.526 551.008 2
8 -8 16 145.501 294.705 2
8 -8 15 1037.99 591.81 2
8 -8 14 1744.92 780.547 2
8 -8 13 567.438 477.514 2
8 -8 12 103.903 303.927 2
8 -8 11 112.832 298.363 2
8 -8 10 1048.12 517.422 2
8 -8 9 -11.6827 337.421 2
8 8 -5 1050.1 396.375 2
8 8 -4 924.857 391.895 2
8 8 -3 307.083 211.537 2
8 8 -2 2269.01 659.965 2
8 8 -1 1550.52 565.259 2
8 8 0 11596.3 1472.06 2
8 8 1 538.092 373.203 2
8 8 2 2566.52 713.513 2
8 8 3 855.089 518.54 2
8 8 4 1700.54 666.927 2
8 8 5 1292.19 583.666 2
8 8 6 72.3804 193.509 2
8 8 7 4184.06 1018.77 2
8 8 8 3653.98 961.22 2
8 8 9 499.398 385.086 2
8 8 10 656.383 457.31 2
8 8 11 849.776 549.736 2
8 8 12 -11.4935 321.052 2
8 8 13 302.972 321.072 2
8 8 14 1908.81 779.978 2
8 8 15 606.841 459.521 2
8 8 16 923.317 585.471 2
8 8 17 453.518 493.636 2
8 8 18 -226.638 320.697 2
8 8 19 865.922 614.824 2
8 -9 19 106.807 504.632 2
8 -9 18 197.017 402.974 2
8 -9 17 734.725 528.343 2
8 -9 16 113.201 320.971 2
8 -9 15 664.883 509.238 2
8 -9 14 1222.15 643.927 2
8 -9 13 -138.706 366.21 2
8 -9 12 491.888 496.664 2
8 -9 11 -101.909 328.05 2
8 -9 10 1270.07 634.156 2
8 9 -5 1273.15 440.452 2
8 9 -4 1224.09 447.235 2
8 9 -3 717.503 370.869 2
8 9 -2 680.595 311.509 2
8 9 -1 -61.7426 259.308 2
8 9 0 41.7503 149.582 2
8 9 1 -100.641 283.855 2
8 9 2 592.345 487.738 2
8 9 3 76.8109 217.724 2
8 9 4 722.888 406.662 2
8 9 5 1349.87 587.907 2
8 9 6 2678.18 782.349 2
8 9 7 1063.48 524.024 2
8 9 8 8904.71 1508.58 2
8 9 9 2704.25 849.004 2
8 9 10 1204.89 577.783 2
8 9 11 275.643 202.065 2
8 9 12 350.787 239.465 2
8 9 13 180.691 288.951 2
8 9 14 1113.17 611.954 2
8 9 15 -141.017 244.522 2
8 9 16 -445.777 431.113 2
8 9 17 -7.91366 219.436 2
8 9 18 -300.395 353.855 2
8 -10 19 1420.77 738.632 2
8 -10 18 705.139 468.636 2
8 -10 17 653.933 565.324 2
8 -10 16 499.303 411.526 2
8 -10 15 852.271 578.148 2
8 -10 14 -166.312 254.006 2
8 -10 13 983.212 592.952 2
8 -10 12 1378.81 693.943 2
8 -10 11 474.362 478.024 2
8 10 -5 2803.02 659.829 2
8 10 -4 6653.27 1031.54 2
8 10 -3 1426.6 512.054 2
8 10 -2 998.002 443.564 2
8 10 -1 -246.917 250.027 2
8 10 0 3104.41 775.963 2
8 10 1 255.643 329.941 2
8 10 2 730.586 428.2 2
8 10 3 690.338 402.3 2
8 10 4 6825.25 1249.18 2
8 10 5 2660.34 813.124 2
8 10 6 13.3419 216.61 2
8 10 7 1752.05 748.532 2
8 10 8 1012.86 553.679 2
8 10 9 879.591 435.924 2
8 10 10 380.736 353.819 2
8 10 11 323.41 263.135 2
8 10 12 832.602 538.544 2
8 10 13 73.9035 298.199 2
8 10 14 -628.073 461.779 2
8 10 15 1006.3 587.607 2
8 10 16 140.699 274.523 2
8 10 17 869.214 620.481 2
8 -11 18 468.51 552.252 2
8 -11 17 -354.477 395.751 2
8 -11 16 324.176 444.944 2
8 -11 15 126.016 374.138 2
8 -11 14 1032.37 576.921 2
8 -11 13 1314.31 650.019 2
8 -11 12 21.3944 285.81 2
8 11 -4 1534.4 506.313 2
8 11 -3 153.085 213.572 2
8 11 -2 886.525 394.201 2
8 11 -1 -79.3723 180.335 2
8 11 0 330.195 350.463 2
8 11 1 1751.77 611.404 2
8 11 2 1110.2 477.784 2
8 11 3 256.28 337.604 2
8 11 4 1797.83 641.907 2
8 11 5 471.126 457.983 2
8 11 6 3710.56 983.228 2
8 11 7 948.147 544.525 2
8 11 8 2557.15 823.835 2
8 11 9 2960.66 888.733 2
8 11 10 47.9693 260.651 2
8 11 11 776.685 501.617 2
8 11 12 624.829 344.288 2
8 11 13 1628.4 740.698 2
8 11 14 1146.74 653.466 2
8 11 15 253.754 323.471 2
8 11 16 197.593 321.727 2
8 -12 16 280.849 411.59 2
8 -12 15 1803.73 802.119 2
8 -12 14 971.342 600.805 2
8 -12 13 415.56 426.831 2
8 12 -4 1356.04 486.498 2
8 12 -3 1193.32 446.893 2
8 12 -2 148.717 168.291 2
8 12 -1 378.014 347.779 2
8 12 0 604.446 356.516 2
8 12 1 579.715 403.45 2
8 12 2 432.455 330.172 2
8 12 3 988.38 470.796 2
8 12 4 1409.83 628.548 2
8 12 5 1301.5 549.28 2
8 12 6 10.4185 274.171 2
8 12 7 1253.96 612.057 2
8 12 8 3142.98 909.572 2
8 12 9 624.112 507.239 2
8 12 10 1528.2 605.433 2
8 12 11 -187.965 345.49 2
8 12 12 843.154 510.272 2
8 12 13 -684.577 486.364 2
8 12 14 1325.58 713.329 2
8 12 15 1025.63 599.313 2
8 -13 15 477.382 509.577 2
8 -13 14 732.908 539.74 2
8 13 -3 197.906 226.417 2
8 13 -2 -60.6883 190.636 2
8 13 -1 32.2577 136.218 2
8 13 0 -166.067 175.351 2
8 13 1 389.596 301.958 2
8 13 2 85.9889 203.829 2
8 13 3 1227.48 619.197 2
8 13 4 -19.2711 272.38 2
8 13 5 629.254 421.817 2
8 13 6 -273.942 388.608 2
8 13 7 -147.896 409.378 2
8 13 8 779.041 435.628 2
8 13 9 2218.12 777.975 2
8 13 10 760.695 546.739 2
8 13 11 1114.07 560.916 2
8 13 12 69.8988 300.411 2
8 13 13 386.673 348.012 2
8 13 14 467.078 519.111 2
8 14 -3 461.49 306.752 2
8 14 -2 557.062 349.122 2
8 14 -1 672.298 396.571 2
8 14 0 -319.654 313.03 2
8 14 1 416.262 263.665 2
8 14 2 668.837 373.956 2
8 14 3 1305.48 599.306 2
8 14 4 1173.45 556.546 2
8 14 5 3033.66 943.303 2
8 14 6 -249.246 329.48 2
8 14 7 147.055 224.319 2
8 14 8 405.256 423.201 2
8 14 9 405.755 466.708 2
8 14 10 -795.17 518.327 2
8 14 11 -206.211 435.125 2
8 14 12 -638.065 492.471 2
8 15 -2 663.252 374.594 2
8 15 -1 -170.67 248.619 2
8 15 0 501.615 351.195 2
8 15 1 -335.489 310.916 2
8 15 2 1260.4 509.938 2
8 15 3 197.107 293.088 2
8 15 4 -427.823 377.001 2
8 15 5 2270.34 773.873 2
8 15 6 2783.62 902.912 2
8 15 7 1937.72 771.383 2
8 15 8 2859.06 910.182 2
8 15 9 -354.917 382.229 2
8 15 10 299.117 436.09 2
8 15 11 465.808 435.829 2
8 16 -1 660.042 413.076 2
8 16 0 2522.03 782.298 2
8 16 1 742.546 536.048 2
8 16 2 558.932 331.998 2
8 16 3 377.563 284.023 2
8 16 4 255.444 274.348 2
8 16 5 -171.713 260.553 2
8 16 6 2550.43 849.874 2
8 16 7 2807.23 916.627 2
8 16 8 743.232 532.459 2
8 16 9 612.012 495.869 2
8 17 -1 864.205 489.492 2
8 17 0 -353.871 338.782 2
8 17 1 275.087 289.957 2
8 17 2 146.36 247.729 2
8 17 3 777.177 535.37 2
8 17 4 -524.405 424.424 2
8 17 5 45.3758 267.06 2
8 17 6 -113.723 348.617 2
8 17 7 234.505 330.906 2
8 17 8 -99.4395 262.5 2
8 18 0 1303.04 628.819 2
8 18 1 1841.26 715.904 2
8 18 2 292.52 304.69 2
8 18 3 -72.419 196.749 2
8 18 4 -313.127 342.602 2
8 18 5 1109.64 645.485 2
8 18 6 -11.5419 163.589 2
8 19 0 392.057 340.421 2
8 19 1 -274.657 311.531 2
8 19 2 281.854 320.691 2
8 19 3 1.00565 192.27 2
8 19 4 270.391 339.145 2
9 0 0 312.379 381.549 2
9 0 1 18.1205 208.006 2
9 0 -1 561.879 346.059 2
9 0 2 -1264.29 571.807 2
9 0 -2 -57.7964 225.407 2
9 0 3 4492.17 1058.12 2
9 0 -3 3261.35 820.942 2
9 0 4 1704.02 637.656 2
9 0 -4 1262.93 495.296 2
9 0 5 491.257 423.996 2
9 0 -5 26.9366 141.948 2
9 0 6 1532.57 682.427 2
9 0 -6 1354.12 537.095 2
9 0 7 2068.47 755.522 2
9 0 -7 1716.36 558.405 2
9 0 8 12860.5 1882.49 2
9 0 9 319.518 366.231 2
9 0 10 5949.36 1321.53 2
9 0 11 75.0322 228.022 2
9 0 12 -165.352 409.959 2
9 0 13 703.7 508.92 2
9 0 14 585.86 428.876 2
9 0 15 109.551 256.513 2
9 0 16 524.239 305.882 2
9 0 17 -129.661 357.25 2
9 0 18 -365.815 424.172 2
9 0 19 620.11 571.068 2
9 -1 19 1442.6 720.274 2
9 -1 18 -120.154 439.597 2
9 -1 17 -101.543 435.565 2
9 -1 16 2390.86 869.232 2
9 -1 15 317.717 584.913 2
9 -1 14 1266.53 737.134 2
9 -1 13 552.764 384.388 2
9 -1 12 487.303 335.276 2
9 -1 11 -310.894 387.323 2
9 -1 10 2386.29 883.007 2
9 -1 9 1822.78 659.175 2
9 -1 8 1423.35 644.683 2
9 1 -7 882.967 351.044 2
9 -1 7 1478.74 650.65 2
9 1 -6 163.41 164.709 2
9 -1 6 417.772 349.819 2
9 1 -5 2018.42 604.853 2
9 -1 5 3224.61 905.497 2
9 1 -4 -816.994 418.642 2
9 -1 4 -157 259.861 2
9 1 -3 1459.08 556.136 2
9 -1 3 1405.85 552.858 2
9 1 -2 1034.74 497.013 2
9 -1 2 970.775 483.543 2
9 1 -1 675.798 385.639 2
9 -1 1 1249.33 581.763 2
9 1 0 2029.71 664.257 2
9 -1 0 3477.75 892.987 2
9 1 1 509.542 377.642 2
9 -1 -1 799.164 451.838 2
9 1 2 -6.42935 276.81 2
9 -1 -2 -50.8357 423.035 2
9 1 3 2021.44 724.189 2
9 -1 -3 852 451.265 2
9 1 4 -242.743 304.466 2
9 -1 -4 -145.34 225.375 2
9 1 5 3913.23 1052.73 2
9 -1 -5 3046.98 765.345 2
9 1 6 -17.9122 240.427 2
9 -1 -6 850.627 415.732 2
9 1 7 873.634 463.273 2
9 -1 -7 1515.01 502.602 2
9 1 8 1416.41 549.924 2
9 1 9 385.971 448.993 2
9 1 10 1427.08 679.733 2
9 1 11 -174.44 364.076 2
9 1 12 -103.315 379.404 2
9 1 13 443.513 319.443 2
9 1 14 904.745 491.287 2
9 1 15 -40.5609 363.003 2
9 1 16 1180.34 641.911 2
9 1 17 -1022.23 619.373 2
9 1 18 1654.92 812.081 2
9 -2 18 2480.2 922.801 2
9 -2 17 -319.621 548.781 2
9 -2 16 956.875 578.96 2
9 -2 15 974.098 598.658 2
9 -2 14 533.006 362.23 2
9 -2 13 2277.28 901.587 2
9 -2 12 1912.85 781.041 2
9 -2 11 3783.39 1066.71 2
9 -2 10 -197.562 459.014 2
9 -2 9 -678.305 612.231 2
9 -2 8 801.53 502.941 2
9 -2 7 2630.36 856.035 2
9 2 -6 4869.08 907.299 2
9 -2 6 6718.93 1349 2
9 2 -5 179.077 317.597 2
9 -2 5 691.325 474.792 2
9 2 -4 1568.53 533.844 2
9 -2 4 1060.89 493.277 2
9 2 -3 879.365 430.724 2
9 -2 3 972.556 531.862 2
9 2 -2 2450.91 700.469 2
9 -2 2 3733.85 959.16 2
9 2 -1 159.399 260.329 2
9 -2 1 604.006 382.067 2
9 2 0 1936.93 657.753 2
9 -2 0 3270.22 856.805 2
9 2 1 921.156 428.079 2
9 -2 -1 411.128 322.364 2
9 2 2 3018.76 813.591 2
9 -2 -2 2825.86 788.905 2
9 2 3 511.565 371.525 2
9 -2 -3 936.394 518.24 2
9 2 4 2502.69 834.73 2
9 -2 -4 1897.6 638.831 2
9 2 5 194.312 337.019 2
9 -2 -5 296.986 151.406 2
9 2 6 3824.74 965.881 2
9 -2 -6 4964.75 980.554 2
9 2 7 3384.74 969.351 2
9 -2 -7 2259.03 660.58 2
9 2 8 435.581 317.284 2
9 -2 -8 975.241 431.806 2
9 2 9 203.543 309.474 2
9 2 10 1281.76 617.907 2
9 2 11 3868.38 1076.58 2
9 2 12 1248.62 661.071 2
9 2 13 1844.37 764.063 2
9 2 14 344.253 325.966 2
9 2 15 1464.42 692.181 2
9 2 16 472.472 226.401 2
9 2 17 355.26 453.4 2
9 2 18 691.163 525.411 2
9 -3 18 1882.05 904.029 2
9 -3 17 -512.51 459.598 2
9 -3 16 2466.01 926.507 2
9 -3 15 178.856 275.349 2
9 -3 14 4768.26 1292.65 2
9 -3 13 765.878 562.991 2
9 -3 12 571.716 632.08 2
9 -3 11 44.5897 273.282 2
9 -3 10 912.994 554.13 2
9 -3 9 1581.81 683.724 2
9 -3 8 2599.55 874.664 2
9 -3 7 2002.92 812.999 2
9 3 -6 3183.53 716.575 2
9 -3 6 1547.26 640.251 2
9 3 -5 921.56 405.648 2
9 -3 5 1077.09 569.463 2
9 3 -4 1632.63 551.482 2
9 -3 4 1714.4 656.026 2
9 3 -3 2809.21 724.811 2
9 -3 3 1866.71 655.635 2
9 3 -2 649.816 382.229 2
9 -3 2 947.74 436.509 2
9 3 -1 355.001 420.411 2
9 -3 1 733.835 455.196 2
9 3 0 6781.57 1197.99 2
9 -3 0 7482.8 1296.05 2
9 3 1 -7.54937 162.136 2
9 -3 -1 183.845 220.561 2
9 3 2 2195.43 717.155 2
9 -3 -2 762.999 517.185 2
9 3 3 1412.59 545.718 2
9 -3 -3 2131.8 674.494 2
9 3 4 1305.96 569.331 2
9 -3 -4 1553.95 592.247 2
9 3 5 484.998 393.099 2
9 -3 -5 315.645 261.393 2
9 3 6 2660.08 807.962 2
9 -3 -6 2951.84 773.469 2
9 3 7 698.268 570.957 2
9 -3 -7 1625.44 554.85 2
9 3 8 4308.66 1107.99 2
9 -3 -8 2782.18 720.342 2
9 3 9 3188.1 944.627 2
9 3 10 290.734 274.407 2
9 3 11 -44.653 263.257 2
9 3 12 1905.02 774.55 2
9 3 13 1028.5 584.984 2
9 3 14 3903.11 1102.21 2
9 3 15 53.6527 364.929 2
9 3 16 1588.52 744.43 2
9 3 17 -987.512 622.18 2
9 3 18 1518.1 813.137 2
9 -4 18 1256.71 737.677 2
9 -4 17 2324.17 910.549 2
9 -4 16 84.1682 290.778 2
9 -4 15 150.078 322.533 2
9 -4 14 4289.44 1261.12 2
9 -4 13 811.653 573.351 2
9 -4 12 54.9472 393.223 2
9 -4 11 1841.71 783.883 2
9 -4 10 504.276 483.793 2
9 -4 9 441.699 472.611 2
9 -4 8 12757.1 1912.89 2
9 -4 7 1196.32 682.662 2
9 -4 6 1048.75 596.484 2
9 -4 5 -157.273 291.622 2
9 4 -5 -175.498 229.173 2
9 -4 4 1442.77 657.89 2
9 4 -4 279.048 312.348 2
9 -4 3 1738.74 682.03 2
9 4 -3 1004.86 404.001 2
9 -4 2 555.605 426.579 2
9 4 -2 205.855 263.06 2
9 4 -1 3557.94 877.713 2
9 -4 1 2618.57 826.602 2
9 4 0 -87.0091 246.954 2
9 -4 0 -167 190.828 2
9 4 1 2971.54 802.691 2
9 -4 -1 2862.05 824.764 2
9 4 2 746.114 438.291 2
9 -4 -2 127.45 240.146 2
9 4 3 1349.12 577.894 2
9 -4 -3 1033.14 486.924 2
9 4 4 413.738 454.501 2
9 -4 -4 1174.49 487.899 2
9 4 5 334.931 329.314 2
9 -4 -5 514.256 412.787 2
9 -4 -6 702.702 377.567 2
9 4 6 559.559 279.22 2
9 -4 -7 432.852 352.934 2
9 4 7 707.082 455.048 2
9 -4 -8 9164.28 1327.64 2
9 4 8 14543.7 1981.86 2
9 -4 -9 447.062 312.22 2
9 4 9 406.158 393.35 2
9 4 10 1472.54 678.859 2
9 4 11 1975.01 713.421 2
9 4 12 -312.914 364.905 2
9 4 13 578.289 481.878 2
9 4 14 4236.75 1139.25 2
9 4 15 763.537 558.126 2
9 4 16 -323.339 366.779 2
9 4 17 2186.09 913.73 2
9 4 18 -966.504 616.611 2
9 -5 18 185.398 333.634 2
9 -5 17 -255.708 343.59 2
9 -5 16 37.0067 301.459 2
9 -5 15 894.456 619.693 2
9 -5 14 -50.3484 317.495 2
9 -5 13 1193.39 714.313 2
9 -5 12 527.822 484.832 2
9 -5 11 2933.8 1027.25 2
9 -5 10 1327.95 669.397 2
9 -5 9 944.293 578.944 2
9 -5 8 166.665 348.869 2
9 -5 7 644.574 462.631 2
9 -5 6 144.887 326.952 2
9 5 -5 1751.48 551.824 2
9 -5 5 3892.09 1029.39 2
9 5 -4 -141.959 178.995 2
9 -5 4 139.166 274.998 2
9 5 -3 5132.8 980.246 2
9 -5 3 3354.7 922.237 2
9 -5 2 680.834 413.088 2
9 5 -2 732.977 369.476 2
9 -5 1 -207.183 343.997 2
9 5 -1 -277.499 267.379 2
9 -5 0 587.684 416.109 2
9 5 0 293.237 324.649 2
9 -5 -1 423.788 306.266 2
9 5 1 -129.54 272.6 2
9 -5 -2 710.246 437.022 2
9 5 2 335.407 340.662 2
9 -5 -3 4760 1053.13 2
9 5 3 4545.8 1049.92 2
9 5 4 -146.793 361.302 2
9 5 5 4018.57 1003.68 2
9 5 6 767.979 518.045 2
9 5 7 624.241 294.151 2
9 5 8 -28.2964 249.313 2
9 5 9 598.626 361.526 2
9 5 10 1485.64 746.837 2
9 5 11 789.079 537.457 2
9 5 12 1524.65 663.528 2
9 5 13 266.387 338.825 2
9 5 14 -247.359 365.506 2
9 5 15 797.157 654.404 2
9 5 16 -529.926 496.706 2
9 5 17 620.837 486.233 2
9 -6 17 753.044 556.574 2
9 -6 16 -26.1934 390.558 2
9 -6 15 958.857 618.109 2
9 -6 14 -247.805 347.112 2
9 -6 13 469.074 433.986 2
9 -6 12 1278.17 584.275 2
9 -6 11 -123.274 400.989 2
9 -6 10 367.88 330.863 2
9 -6 9 3406.37 1039.48 2
9 -6 8 5535.01 1297.6 2
9 -6 7 1170.57 622.714 2
9 -6 6 2525.13 909.981 2
9 6 -5 1883.07 551.661 2
9 -6 5 1508.84 685.488 2
9 -6 4 1676.41 648.311 2
9 6 -4 2111.6 590.128 2
9 -6 3 1236.74 521.784 2
9 6 -3 812.63 377.286 2
9 -6 2 -252.687 444.592 2
9 6 -2 160.271 201.916 2
9 -6 1 1304.8 637.464 2
9 6 -1 1218.44 532.105 2
9 6 0 -14.6438 133.188 2
9 6 1 462.272 320.125 2
9 6 2 540.775 388.173 2
9 6 3 936.503 453.515 2
9 6 4 1674.68 696.189 2
9 6 5 3260.31 877.007 2
9 6 6 2261.44 737.639 2
9 6 7 2003.61 773.506 2
9 6 8 5849.75 1248.39 2
9 6 9 2972.32 942.425 2
9 6 10 18.0178 396.436 2
9 6 11 35.9821 268.372 2
9 6 12 241.412 275.206 2
9 6 13 921.862 604.748 2
9 6 14 847.137 566.735 2
9 6 15 2156.51 886.568 2
9 6 16 751.083 529.589 2
9 6 17 641.093 541.47 2
9 -7 17 492.795 416.236 2
9 -7 16 66.9361 347.73 2
9 -7 15 1849.13 890.056 2
9 -7 14 248.781 360.809 2
9 -7 13 262.024 360.091 2
9 -7 12 -1193.59 662.135 2
9 -7 11 1402.55 707.023 2
9 -7 10 1369.02 736.685 2
9 -7 9 74.2971 325.514 2
9 -7 8 750.001 512.481 2
9 -7 7 1294.02 628.912 2
9 -7 6 19.1862 295.967 2
9 -7 5 796.468 494.622 2
9 -7 4 107.823 244.111 2
9 7 -4 209.467 155.874 2
9 7 -3 500.211 300.924 2
9 7 -2 -45.6137 214.306 2
9 7 -1 571.85 365.296 2
9 7 0 4599.69 978.275 2
9 7 1 944.698 477.493 2
9 7 2 838.413 442.377 2
9 7 3 900.824 530.15 2
9 7 4 188.299 371.021 2
9 7 5 896.982 519.489 2
9 7 6 131.748 232.778 2
9 7 7 1397.48 572.784 2
9 7 8 1465.62 608.552 2
9 7 9 467.608 469.046 2
9 7 10 378.317 312.591 2
9 7 11 1157.22 608.621 2
9 7 12 256.271 344.822 2
9 7 13 726.331 498.612 2
9 7 14 633.521 509.676 2
9 7 15 -255.908 358.296 2
9 7 16 191.585 347.541 2
9 -8 16 137.978 304.743 2
9 -8 15 -408.292 440.067 2
9 -8 14 434.029 481.194 2
9 -8 13 253.84 323.641 2
9 -8 12 149.673 300.12 2
9 -8 11 352.859 362.533 2
9 -8 10 929.425 540.698 2
9 -8 9 284.407 377.537 2
9 -8 8 -73.4262 396.243 2
9 -8 7 554.168 517.954 2
9 -8 6 -133.877 326.943 2
9 8 -4 168.754 158.272 2
9 8 -3 2388.82 653.914 2
9 8 -2 2946.19 751.204 2
9 8 -1 -189.326 256.74 2
9 8 0 150.815 166.351 2
9 8 1 486.022 349.827 2
9 8 2 2733.08 804.291 2
9 8 3 800.652 390.562 2
9 8 4 -215.161 362.285 2
9 8 5 708.972 448.769 2
9 8 6 -6.23222 168.929 2
9 8 7 160.577 302.333 2
9 8 8 -616.412 429.095 2
9 8 9 32.1377 269.424 2
9 8 10 -102.305 433.197 2
9 8 11 641.065 510.276 2
9 8 12 -150.684 337.51 2
9 8 13 383.148 353.758 2
9 8 14 -5.61803 205.292 2
9 8 15 469.135 522.708 2
9 -9 15 1808.46 848.822 2
9 -9 14 -187.57 224.83 2
9 -9 13 -365.916 524.115 2
9 -9 12 2780.59 1041.26 2
9 -9 11 77.7881 400.996 2
9 -9 10 385.652 311.714 2
9 -9 9 11.3171 404.776 2
9 -9 8 998.719 630.781 2
9 -9 7 1711.89 694.507 2
9 9 -3 1046.2 459.547 2
9 9 -2 538.021 333.679 2
9 9 -1 233.989 247.961 2
9 9 0 4021.62 931.838 2
9 9 1 229.287 209.106 2
9 9 2 189.842 187.266 2
9 9 3 351.53 279.02 2
9 9 4 520.543 389.449 2
9 9 5 510.36 420.161 2
9 9 6 1383.74 678.527 2
9 9 7 724.591 533.874 2
9 9 8 557.375 470.648 2
9 9 9 396.239 444.001 2
9 9 10 880.375 511.883 2
9 9 11 29.4291 279.896 2
9 9 12 1287.39 651.947 2
9 9 13 405.278 404.266 2
9 9 14 190.089 347.272 2
9 9 15 888.349 547.333 2
9 -10 14 39.9369 265.652 2
9 -10 13 88.17 423.563 2
9 -10 12 2.46825 439.668 2
9 -10 11 -627.668 482.878 2
9 -10 10 443.673 395.499 2
9 -10 9 -544.053 461.688 2
9 10 -3 374.662 333.704 2
9 10 -2 614.791 375.346 2
9 10 -1 1996.06 649.061 2
9 10 0 -368.637 347.431 2
9 10 1 2255.4 714.82 2
9 10 2 1462.35 613.751 2
9 10 3 308.994 295.085 2
9 10 4 381.432 387.389 2
9 10 5 321.44 370.471 2
9 10 6 1556.82 629.139 2
9 10 7 148.126 214.989 2
9 10 8 -569.772 433.583 2
9 10 9 555.164 430.736 2
9 10 10 66.7347 426.11 2
9 10 11 -95.5037 281.686 2
9 10 12 503.12 500.639 2
9 10 13 692.036 510.03 2
9 10 14 622.155 553.371 2
9 -11 13 478.173 467.265 2
9 -11 12 1784.35 864.555 2
9 -11 11 1275.3 713.903 2
9 -11 10 3592.04 1133.71 2
9 11 -2 209.338 312.267 2
9 11 -1 292.475 264.09 2
9 11 0 844.054 419.049 2
9 11 1 93.9947 163.3 2
9 11 2 442.158 368.436 2
9 11 3 940.891 541.435 2
9 11 4 923.233 495.14 2
9 11 5 808.173 506.368 2
9 11 6 742.667 483.817 2
9 11 7 828.793 542.373 2
9 11 8 287.029 300.558 2
9 11 9 1661.08 718.319 2
9 11 10 1737.6 725.708 2
9 11 11 -8.71387 468.036 2
9 11 12 2040.07 850.766 2
9 11 13 173.202 308.877 2
9 -12 11 972.875 698.856 2
9 12 -2 179.38 295.462 2
9 12 -1 1657.28 611.832 2
9 12 0 1111.17 497.676 2
9 12 1 1025.6 476.403 2
9 12 2 388.122 363.074 2
9 12 3 1549.82 624.357 2
9 12 4 3173.7 943.451 2
9 12 5 3814.83 1008.86 2
9 12 6 3764.03 1023.21 2
9 12 7 693.112 494.889 2
9 12 8 436.177 380.676 2
9 12 9 777.305 550.428 2
9 12 10 1038.64 576.149 2
9 12 11 518.519 515.034 2
9 12 12 792.783 521.927 2
9 13 -1 334.749 339.727 2
9 13 0 171.383 253.949 2
9 13 1 -10.0085 227.737 2
9 13 2 760.671 426.08 2
9 13 3 118.515 202.482 2
9 13 4 460.711 417.693 2
9 13 5 -97.7031 302.876 2
9 13 6 508.145 478.134 2
9 13 7 1014.15 541.501 2
9 13 8 707.326 496.589 2
9 13 9 84.1097 193.599 2
9 13 10 -606.262 466.438 2
9 14 -1 148.464 233.243 2
9 14 0 973 515.772 2
9 14 1 390.884 240.19 2
9 14 2 235 308.574 2
9 14 3 332.361 357.966 2
9 14 4 570.415 421.034 2
9 14 5 13.5811 216.211 2
9 14 6 512.636 428.162 2
9 14 7 838.905 594.192 2
9 14 8 -93.0949 235.643 2
9 14 9 157.613 407.894 2
9 15 0 -230.074 268.199 2
9 15 1 563.108 384.383 2
9 15 2 -56.2203 228.612 2
9 15 3 -148.094 245.364 2
9 15 4 2247.23 839.829 2
9 15 5 706.579 478.838 2
9 15 6 2003.49 796.497 2
9 15 7 494.845 449.191 2
9 15 8 255.768 380.746 2
9 16 1 408.368 343.821 2
9 16 2 621.682 468.02 2
9 16 3 -0.96862 247.21 2
9 16 4 731.739 546.729 2
9 16 5 -3.07355 191.47 2
9 16 6 138.936 178.978 2
9 17 1 319.397 424.273 2
9 17 2 0.97291 264.017 2
9 17 3 495.77 400.39 2
9 17 4 24.8152 226.779 2
10 0 0 304.774 417.22 2
10 0 1 631.717 429.002 2
10 0 -1 396.552 300.42 2
10 0 2 55.5234 169.56 2
10 0 -2 -139.621 283.412 2
10 0 3 1.90009 337.016 2
10 0 -3 -634.699 404.894 2
10 0 4 8411.68 1535.34 2
10 0 -4 7114.14 1256.74 2
10 0 5 454.885 430.925 2
10 0 -5 347.156 280.359 2
10 0 6 2043.08 793.676 2
10 0 7 318.011 283.173 2
10 0 8 148.128 286.14 2
10 0 9 160.086 228.132 2
10 0 10 1061.97 673.033 2
10 0 11 542.233 557.612 2
10 0 12 505.195 432.769 2
10 0 13 -1250.91 682.252 2
10 0 14 493.594 528.033 2
10 0 15 98.1781 316.951 2
10 -1 15 1198.65 753.674 2
10 -1 14 957.56 652.5 2
10 -1 13 -49.8653 266.42 2
10 -1 12 -102.305 354.688 2
10 -1 11 302.885 268.418 2
10 -1 10 357.803 378.161 2
10 -1 9 -115.915 345.655 2
10 -1 8 -46.7777 299.768 2
10 -1 7 816.65 511.169 2
10 -1 6 686.409 426.647 2
10 1 -5 -54.7071 154.621 2
10 -1 5 390.998 414.016 2
10 1 -4 1538.85 586.378 2
10 -1 4 929.046 578.341 2
10 1 -3 883.846 452.659 2
10 -1 3 882.446 505.85 2
10 1 -2 1071.46 534.124 2
10 -1 2 813.681 406.506 2
10 1 -1 2527.03 753.634 2
10 -1 1 1555.72 614.174 2
10 1 0 189.691 340.11 2
10 -1 0 -394 363.159 2
10 1 1 1763.76 672.315 2
10 -1 -1 2475.11 790.598 2
10 1 2 1753.86 706.997 2
10 -1 -2 1374.99 526.637 2
10 1 3 962.05 539.679 2
10 -1 -3 213.014 289.901 2
10 1 4 987.455 568.256 2
10 -1 -4 1219.06 524.477 2
10 1 5 -334.506 370.275 2
10 -1 -5 310.473 262.344 2
10 1 6 397.677 287.125 2
10 -1 -6 287.616 260.442 2
10 1 7 381.557 403.866 2
10 1 8 442.294 475.234 2
10 1 9 1457.03 730.891 2
10 1 10 -1394.42 694.077 2
10 1 11 328.838 366.761 2
10 1 12 384.912 382.479 2
10 1 13 700.39 549 2
10 1 14 2367.38 918.687 2
10 1 15 2870.56 1036.62 2
10 -2 14 121.37 430.109 2
10 -2 13 562.864 511.325 2
10 -2 12 493.829 468.483 2
10 -2 11 358.057 501.748 2
10 -2 10 1274.62 691.751 2
10 -2 9 3815.15 1134.47 2
10 -2 8 283.481 307.716 2
10 -2 7 596.186 481.405 2
10 -2 6 -446.289 427.488 2
10 2 -5 191.93 198.116 2
10 -2 5 754.826 274.766 2
10 2 -4 1302.43 507.143 2
10 -2 4 543.079 418.353 2
10 2 -3 264.79 289.956 2
10 -2 3 57.005 368.084 2
10 2 -2 357.236 291.192 2
10 -2 2 288.603 265.432 2
10 2 -1 802.636 489.166 2
10 -2 1 -102.693 383.095 2
10 2 0 822.74 437.356 2
10 -2 0 830.491 461.455 2
10 2 1 344.582 387.886 2
10 -2 -1 -51.5249 391.393 2
10 2 2 572.689 419.685 2
10 -2 -2 1002.33 546.188 2
10 2 3 -913.901 524.678 2
10 -2 -3 -81.2403 284.951 2
10 2 4 1064.2 542.893 2
10 -2 -4 1357.15 574.75 2
10 2 5 413.135 445.594 2
10 -2 -5 438.886 368.821 2
10 2 6 -142.842 331.884 2
10 -2 -6 391.648 331.333 2
10 2 7 2393.54 842.77 2
10 2 8 1211.15 658.72 2
10 2 9 3808.75 1134.28 2
10 2 10 416.27 369.551 2
10 2 11 552.284 427.651 2
10 2 12 -1090.76 641.995 2
10 2 13 1231.77 754.603 2
10 2 14 931.823 610.713 2
10 -3 14 399.941 538.236 2
10 -3 13 25.0408 336.734 2
10 -3 12 2185.47 888.389 2
10 -3 11 90.7679 270.264 2
10 -3 10 388.686 524.331 2
10 -3 9 853.652 586.922 2
10 -3 8 -457.043 538.36 2
10 -3 7 981.202 552.205 2
10 -3 6 3525.97 1027.76 2
10 -3 5 454.526 349.962 2
10 3 -4 1612.16 564.68 2
10 -3 4 2342.55 857.162 2
10 3 -3 1389.89 581.679 2
10 -3 3 659.318 436.468 2
10 3 -2 551.59 438.397 2
10 -3 2 -288.33 304.107 2
10 3 -1 1110.88 529.29 2
10 -3 1 979.545 544.714 2
10 3 0 -79.1656 164.853 2
10 -3 0 467.763 411.657 2
10 3 1 581.393 433.03 2
10 -3 -1 2478.15 806.01 2
10 3 2 551.869 420.472 2
10 -3 -2 1093.37 566.461 2
10 3 3 233.04 218.495 2
10 -3 -3 213.95 268.095 2
10 3 4 2296.53 808.778 2
10 -3 -4 2659.99 761.653 2
10 3 5 277.442 370.201 2
10 -3 -5 944.233 494.057 2
10 3 6 5197.68 1227.22 2
10 -3 -6 3174.84 845.848 2
10 3 7 459.425 460.735 2
10 3 8 412.581 469.45 2
10 3 9 428.415 338.059 2
10 3 10 -463.775 440 2
10 3 11 597.568 482.492 2
10 3 12 1561.91 730.926 2
10 3 13 1213.29 620.658 2
10 3 14 794.603 536.036 2
10 -4 14 173.762 336.909 2
10 -4 13 172.295 354.684 2
10 -4 12 7020.55 1574.89 2
10 -4 11 791.587 514.974 2
10 -4 10 284.409 298.35 2
10 -4 9 365.121 230.501 2
10 -4 8 1727.57 742.957 2
10 -4 7 890.786 562.906 2
10 -4 6 962.663 602.569 2
10 -4 5 2798.19 937.144 2
10 -4 4 730.888 531.207 2
10 4 -4 765.902 389.487 2
10 -4 3 4318.58 1103.2 2
10 4 -3 1939.19 676.778 2
10 -4 2 539.263 303.834 2
10 4 -2 224.495 249.095 2
10 -4 1 -48.8455 303.928 2
10 4 -1 -160.414 279.855 2
10 -4 0 -48.8238 188.698 2
10 4 0 788.372 451.689 2
10 -4 -1 441.101 301.761 2
10 4 1 -330.952 325.136 2
10 -4 -2 881.936 483.74 2
10 4 2 755.165 441.949 2
10 -4 -3 2931.32 878.346 2
10 4 3 1880.23 716.788 2
10 -4 -4 200.481 294.485 2
10 4 4 892.253 527.713 2
10 -4 -5 811.965 449.825 2
10 4 5 125.338 279.422 2
10 -4 -6 299.322 313.796 2
10 4 6 261.784 440.306 2
10 -4 -7 -349.288 313.682 2
10 4 7 -162.997 343.285 2
10 4 8 2545.09 901.247 2
10 4 9 2148.64 831.567 2
10 4 10 363.725 512.029 2
10 4 11 398.23 403.399 2
10 4 12 17309.4 2438.46 2
10 4 13 -606.783 506.452 2
10 4 14 773.306 575.732 2
10 -5 13 78.1557 260.84 2
10 -5 12 499.334 436.69 2
10 -5 11 1071.48 564.748 2
10 -5 10 565.935 543.37 2
10 -5 9 28.8782 348.889 2
10 -5 8 -699.222 513.961 2
10 -5 7 1100.1 641.708 2
10 -5 6 279.989 315.709 2
10 -5 5 63.9333 189.726 2
10 -5 4 -56.431 241.591 2
10 -5 3 682.364 512.166 2
10 5 -3 1933.68 640.366 2
10 -5 2 1696.71 740.531 2
10 5 -2 1542.93 602.507 2
10 -5 1 3938.72 1078.35 2
10 5 -1 3576.03 923.653 2
10 -5 0 -15.3612 304.97 2
10 5 0 54.3366 160.995 2
10 5 1 3842.77 964.378 2
10 -5 -1 3388.71 969.351 2
10 5 2 1323.81 604.741 2
10 -5 -2 1003.07 564.977 2
10 5 3 1112.31 538.69 2
10 -5 -3 748.278 455.402 2
10 5 4 532.945 468.545 2
10 -5 -4 -43.4022 237.32 2
10 5 5 285.745 365.608 2
10 -5 -5 289.775 283.52 2
10 5 6 -126.024 185.708 2
10 -5 -6 -259.188 285.977 2
10 5 7 2068.32 776.282 2
10 -5 -7 832.697 464.438 2
10 5 8 384.221 363.143 2
10 5 9 254.556 360.49 2
10 5 10 170.427 314.283 2
10 5 11 -328.186 392.085 2
10 5 12 605.708 536.424 2
10 5 13 -134.187 226.301 2
10 -6 13 1614.12 793.142 2
10 -6 12 2892.14 1016.74 2
10 -6 11 109.32 345.889 2
10 -6 10 2206.09 961.65 2
10 -6 9 749.807 578.36 2
10 -6 8 1097.34 626.22 2
10 -6 7 1911.71 807.015 2
10 -6 6 691.245 575.802 2
10 -6 5 -227.85 366.831 2
10 -6 4 849.271 520.488 2
10 6 -3 2509.97 733.813 2
10 -6 3 2438.38 849.989 2
10 6 -2 1181.52 540.063 2
10 -6 2 1715.03 703.602 2
10 6 -1 295.951 315.298 2
10 -6 1 1000.11 550.495 2
10 6 0 -65.507 211.101 2
10 -6 0 51.2719 168.344 2
10 -6 -1 -264.126 397.817 2
10 6 1 694.722 400.467 2
10 -6 -2 1251.88 570.355 2
10 6 2 2050.84 721.011 2
10 -6 -3 1197.77 565.685 2
10 6 3 1081.22 561.338 2
10 -6 -4 -30.1314 242.334 2
10 6 4 597.384 434.005 2
10 -6 -5 74.0092 195.291 2
10 6 5 -153.054 170.406 2
10 -6 -6 682.666 446.227 2
10 6 6 204.401 231.386 2
10 -6 -7 1818.75 675.477 2
10 6 7 2672.7 904.594 2
10 6 8 -267.039 380.887 2
10 6 9 261.961 333.029 2
10 6 10 1949.27 799.144 2
10 6 11 373.176 512.471 2
10 6 12 1362.31 685.241 2
10 6 13 1090.5 583.55 2
10 -7 12 188.83 321.926 2
10 -7 11 310.09 444.066 2
10 -7 10 222.498 429.123 2
10 -7 9 19.3237 313.724 2
10 -7 8 -258.381 386.615 2
10 -7 7 160.239 334.862 2
10 -7 6 -40.9732 292.408 2
10 -7 5 1296.61 715.678 2
10 -7 4 314.602 293.593 2
10 -7 3 252.947 316.28 2
10 -7 2 -550.248 435.857 2
10 7 -2 124.934 164.057 2
10 -7 1 -25.7638 246.624 2
10 7 -1 629.807 424.602 2
10 -7 0 -445.568 405.033 2
10 7 0 -70.7431 170.573 2
10 -7 -1 -126.733 363.083 2
10 7 1 1081.71 508.004 2
10 -7 -2 197.599 251.611 2
10 7 2 253.092 326.845 2
10 7 3 39.2342 286.935 2
10 7 4 -330.93 323.182 2
10 7 5 614.804 439.021 2
10 7 6 -268.104 366.323 2
10 7 7 214.359 296.913 2
10 7 8 -587.733 463.383 2
10 7 9 252.882 292.271 2
10 7 10 170.317 236.939 2
10 7 11 -61.4087 244.193 2
10 7 12 815.665 658.919 2
10 -8 11 96.4004 223.098 2
10 -8 10 757.03 593.48 2
10 -8 9 592.216 496.67 2
10 -8 8 305.454 367.91 2
10 -8 7 2210.6 818.731 2
10 -8 6 210.661 399.32 2
10 -8 5 -499.169 613.821 2
10 -8 4 1006.07 580.08 2
10 -8 3 -961.649 511.577 2
10 -8 2 592.167 471.924 2
10 8 -2 889.795 456.078 2
10 -8 1 253.467 350.397 2
10 8 -1 407.255 385.103 2
10 8 0 2342.61 751.356 2
10 8 1 -1058.08 527.938 2
10 8 2 866.757 477.405 2
10 8 3 757.444 485.759 2
10 8 4 1090.65 551.602 2
10 8 5 650.396 425.223 2
10 8 6 35.7611 212.702 2
10 8 7 3787.31 1058.69 2
10 8 8 198.754 287.018 2
10 8 9 974.511 686.739 2
10 8 10 513.874 456.828 2
10 8 11 249.904 260.71 2
10 8 12 -523.18 457.486 2
10 -9 10 951.068 615.689 2
10 -9 9 136.459 265.218 2
10 -9 8 582.578 448.575 2
10 -9 7 183.721 369.884 2
10 -9 6 691.822 426.853 2
10 -9 5 -19.9071 269.486 2
10 -9 4 1822.22 797.648 2
10 -9 3 200.679 214.557 2
10 9 -1 134.95 220.842 2
10 9 0 -139.289 245.956 2
10 9 1 637.262 394.044 2
10 9 2 -103.86 331.523 2
10 9 3 -492.094 395.024 2
10 9 4 766.027 519.27 2
10 9 5 424.848 373.896 2
10 9 6 1630.06 674.967 2
10 9 7 -68.5853 230.557 2
10 9 8 1029.36 544.442 2
10 9 9 165.983 470.835 2
10 9 10 678.1 552.265 2
10 9 11 1090.42 646.926 2
10 -10 9 1833 866.816 2
10 -10 8 569.992 527.105 2
10 -10 7 1017.57 653.549 2
10 -10 6 -701.372 522.491 2
10 -10 5 364.196 490.941 2
10 10 -1 620.924 361.499 2
10 10 0 -647.871 418.071 2
10 10 1 1223.56 567.365 2
10 10 2 -47.3142 203.168 2
10 10 3 1324.68 611.045 2
10 10 4 59.9274 290.343 2
10 10 5 124.769 276.1 2
10 10 6 223.941 213.566 2
10 10 7 -619.273 456.819 2
10 10 8 -115.201 241.332 2
10 10 9 486.064 444.295 2
10 10 10 1340.38 689.592 2
10 -11 7 1005.34 650.912 2
10 11 0 627.137 458.633 2
10 11 1 -0.88674 234.264 2
10 11 2 -460.242 373.434 2
10 11 3 -144.33 262.489 2
10 11 4 163.342 340.215 2
10 11 5 -72.8145 245.585 2
10 11 6 1153.97 599.746 2
10 11 7 177.651 264.147 2
10 11 8 107.829 291.984 2
10 11 9 20.357 193.175 2
10 12 0 133.016 208.49 2
10 12 1 1403.49 630.417 2
10 12 2 620.872 407.808 2
10 12 3 587.234 459.474 2
10 12 4 378.079 357.485 2
10 12 5 619.721 526.599 2
10 12 6 816.265 553.438 2
10 12 7 -35.6899 196.868 2
10 12 8 769.214 555.72 2
10 13 1 105.161 216.704 2
10 13 2 -363.812 344.504 2
10 13 3 -927.947 536.895 2
10 13 4 54.4718 220.708 2
10 13 5 1596.84 748.475 2
10 13 6 287.926 352.743 2
10 13 7 378.435 491.135 2
10 14 1 605.46 419.419 2
10 14 2 483.18 415.016 2
10 14 3 47.9166 296.885 2
10 14 4 238.328 410.209 2
10 14 5 -417.733 390.388 2
10 15 3 -809.008 512.807 2
10 15 4 -40.9271 216.428 2
11 0 0 -538.479 418.377 2
11 0 1 349.994 426.509 2
11 0 -1 -261.807 318.5 2
11 0 2 -9.35717 308.493 2
11 0 -2 412.882 267.951 2
11 0 3 1871.87 777.928 2
11 0 -3 1187.41 580.88 2
11 0 4 60.101 257.138 2
11 0 5 114.807 327.868 2
11 0 6 -46.8385 322.185 2
11 0 7 -1634.26 761.055 2
11 0 8 4670.94 1284.38 2
11 0 9 479.789 527.822 2
11 0 10 -334.533 402.97 2
11 -1 10 -574.59 496.902 2
11 -1 9 861.593 574.089 2
11 -1 8 -198.771 386.166 2
11 -1 7 479.79 585.106 2
11 -1 6 2044.27 833.015 2
11 -1 5 -101.114 247.397 2
11 -1 4 -562.409 472.799 2
11 1 -3 466.707 381.797 2
11 -1 3 1793.55 758.776 2
11 1 -2 90.0309 315.879 2
11 -1 2 446.729 439.724 2
11 1 -1 -137.014 272.164 2
11 -1 1 -696.196 489.362 2
11 1 0 -184.511 298.234 2
11 -1 0 1341.51 625.769 2
11 1 1 -666.255 377.69 2
11 -1 -1 409.587 339.849 2
11 1 2 812.96 500.778 2
11 -1 -2 -58.5507 198.645 2
11 1 3 680.454 480.833 2
11 -1 -3 674.18 434.918 2
11 1 4 476.847 452.228 2
11 -1 -4 -60.0641 209.124 2
11 1 5 405.391 434.882 2
11 1 6 1710.13 761.48 2
11 1 7 233.758 340.332 2
11 1 8 -474.775 435.663 2
11 1 9 782.103 596.987 2
11 1 10 1068.5 623.947 2
11 -2 10 -305.736 379.641 2
11 -2 9 886.441 592.843 2
11 -2 8 773.413 574.821 2
11 -2 7 251.471 291.241 2
11 -2 6 -191.853 209.544 2
11 -2 5 1022.14 571.824 2
11 -2 4 460.052 431.899 2
11 2 -3 -377.44 332.744 2
11 -2 3 -661.775 503.723 2
11 2 -2 1677.84 707.918 2
11 -2 2 553.379 466.555 2
11 2 -1 -703.737 468.868 2
11 -2 1 741.896 528.785 2
11 2 0 3045.35 940.179 2
11 -2 0 1854.13 757.115 2
11 2 1 169.262 341.396 2
11 -2 -1 79.0361 205.135 2
11 2 2 1705.94 729.118 2
11 -2 -2 721.779 468.688 2
11 2 3 283.474 413.518 2
11 -2 -3 625.148 467.913 2
11 2 4 613.807 446.213 2
11 -2 -4 136.581 198.956 2
11 2 5 547.453 462.658 2
11 2 6 -74.4775 241.441 2
11 2 7 648.989 482.426 2
11 2 8 1054.35 682.726 2
11 2 9 81.6489 191.466 2
11 2 10 84.9924 302.08 2
11 -3 9 533.882 483.949 2
11 -3 8 -289.21 591.18 2
11 -3 7 660.763 426.818 2
11 -3 6 -901.949 591.823 2
11 -3 5 886.16 590.255 2
11 -3 4 -13.629 246.579 2
11 -3 3 538.802 503.746 2
11 3 -2 539.523 431.262 2
11 -3 2 214.512 307.828 2
11 3 -1 -183.593 248.563 2
11 -3 1 362.431 374.38 2
11 3 0 1698 712.519 2
11 -3 0 2832.68 923.198 2
11 3 1 678.083 450.899 2
11 -3 -1 -216.036 301.112 2
11 3 2 684.264 460.35 2
11 -3 -2 479.651 351.274 2
11 3 3 89.4477 280.815 2
11 -3 -3 194.822 358.349 2
11 3 4 -182.724 268.525 2
11 -3 -4 137.527 312.642 2
11 3 5 393.747 426.006 2
11 -3 -5 373.222 355.332 2
11 3 6 1330.86 707.82 2
11 3 7 808.232 519.915 2
11 3 8 218.865 323.645 2
11 3 9 1133.03 657.915 2
11 3 10 -208.919 328.868 2
11 -4 9 253.804 435.473 2
11 -4 8 -174.047 358.428 2
11 -4 7 -142.749 377.294 2
11 -4 6 -1225.85 678.539 2
11 -4 5 -468.902 455.134 2
11 -4 4 231.454 363.065 2
11 -4 3 725.442 478.505 2
11 -4 2 1991.83 816.645 2
11 4 -2 1187.41 548.993 2
11 -4 1 528.341 467.722 2
11 4 -1 3263.78 887.146 2
11 -4 0 67.1647 216.78 2
11 4 0 260.487 325.386 2
11 -4 -1 1062.75 597.773 2
11 4 1 687.72 473.502 2
11 -4 -2 2639.9 877.114 2
11 4 2 1496.67 671.732 2
11 -4 -3 2255.5 791.98 2
11 4 3 463.496 425.387 2
11 -4 -4 861.23 501.287 2
11 4 4 334.233 370.921 2
11 -4 -5 1013.67 549.856 2
11 4 5 -125.374 259.514 2
11 4 6 -111.983 361.595 2
11 4 7 1523.75 727.811 2
11 4 8 -439.387 429.452 2
11 4 9 567.173 475.785 2
11 -5 8 226.529 213.153 2
11 -5 7 -29.7881 283.867 2
11 -5 6 712.107 542.401 2
11 -5 5 583.752 623.514 2
11 -5 4 1113.78 614.726 2
11 -5 3 1104.26 660.194 2
11 -5 2 1886.28 850.352 2
11 -5 1 702.255 501.549 2
11 5 -1 323.658 313.177 2
11 -5 0 1370.49 712.065 2
11 5 0 980.535 572.519 2
11 -5 -1 188.92 288.753 2
11 5 1 290.652 365.828 2
11 -5 -2 106.132 365.152 2
11 5 2 389.049 360.983 2
11 -5 -3 1124.79 574.844 2
11 5 3 710.276 482.45 2
11 -5 -4 1487.62 700.902 2
11 5 4 534.084 454.823 2
11 -5 -5 934.477 518.558 2
11 5 5 1635 741.151 2
11 5 6 101.447 191.046 2
11 5 7 826.819 586.567 2
11 5 8 1354.9 728.886 2
11 5 9 167.02 235.987 2
11 -6 7 521.139 482.224 2
11 -6 6 984.648 649.39 2
11 -6 5 1990.01 924.974 2
11 -6 4 1837.03 819.69 2
11 -6 3 1954.81 841.326 2
11 -6 2 -2.30792 205.613 2
11 6 -1 481.931 405.91 2
11 -6 1 748.599 574.062 2
11 6 0 71.7449 227.93 2
11 -6 0 1158.97 650.278 2
11 6 1 215.868 249.093 2
11 -6 -1 1529.3 758.032 2
11 6 2 803.144 533.291 2
11 -6 -2 71.7253 323.465 2
11 6 3 826.723 508.767 2
11 -6 -3 1001.45 560.649 2
11 6 4 1150.07 600.245 2
11 -6 -4 1660 711.751 2
11 6 5 1025.78 583.835 2
11 -6 -5 743.174 526.672 2
11 6 6 1681.99 752.133 2
11 -6 -6 605.055 457.778 2
11 6 7 497.684 431.58 2
11 6 8 522.953 311.925 2
11 6 9 1671.19 844.261 2
11 -7 6 278.248 381.335 2
11 -7 5 -303.517 427.959 2
11 -7 4 383.646 420.043 2
11 -7 3 417.664 495.254 2
11 -7 2 -91.0116 249.765 2
11 -7 1 -103.132 291.005 2
11 7 0 508.971 429.033 2
11 -7 0 696.901 510.975 2
11 7 1 137.183 292.552 2
11 -7 -1 43.6235 306.849 2
11 7 2 570.83 535.963 2
11 -7 -2 771.827 534.126 2
11 7 3 697.042 486.778 2
11 -7 -3 300.323 368.803 2
11 7 4 70.7885 205.196 2
11 -7 -4 310.052 324.866 2
11 7 5 12.8473 187.642 2
11 -7 -5 -203.477 278.756 2
11 -7 -6 -274.732 331.022 2
11 7 6 767.097 538.164 2
11 7 7 1527.94 729.257 2
11 7 8 -299.762 351.874 2
11 -8 5 1731.72 898.524 2
11 -8 4 1460.55 714.735 2
11 -8 3 290.704 372.757 2
11 -8 2 883.647 700.283 2
11 -8 1 44.032 277.421 2
11 -8 0 93.6601 315.429 2
11 8 0 -5.53728 205.912 2
11 -8 -1 -318.994 388.932 2
11 8 1 438.12 336.85 2
11 -8 -2 -744.609 513.033 2
11 8 2 801.789 524.732 2
11 -8 -3 -398.212 413.809 2
11 8 3 -258.06 324.237 2
11 -8 -4 77.7319 214.349 2
11 8 4 373.91 380.35 2
11 -8 -5 976.211 620.574 2
11 8 5 1172 637.451 2
11 -8 -6 1.05462 384.365 2
11 8 6 766.564 573.319 2
11 8 7 476.521 473.879 2
11 -9 3 835.892 618.494 2
11 -9 2 578.556 597.274 2
11 -9 1 791.33 606.888 2
11 -9 0 241.795 333.501 2
11 -9 -1 -852.229 574.96 2
11 9 1 -0.96545 221.407 2
11 -9 -2 687.551 518.26 2
11 9 2 948.659 562.857 2
11 -9 -3 1688.89 734.235 2
11 9 3 9365.74 1706.11 2
11 -9 -4 79.6875 235.069 2
11 9 4 1.05598 243.348 2
11 9 5 -319.347 361.454 2
11 9 6 7.81724 222.861 2
11 9 7 535.956 535.725 2
11 -10 1 93.9707 254.536 2
11 -10 0 632.971 579.99 2
11 10 1 2.91961 203.646 2
11 10 2 270.956 338.506 2
11 10 3 426.78 423.306 2
11 10 4 -184.906 279.262 2
11 10 5 -279.25 343.614 2
11 10 6 -900.051 579.994 2
11 11 2 -117.073 245.23 2
11 11 3 62.7958 284.854 2
11 11 4 1093.37 626.327 2
11 11 5 402.185 365.066 2
12 0 0 613.104 521.626 2
12 0 1 609.306 499.566 2
12 0 -1 397.751 421.51 2
12 0 2 267.574 265.395 2
12 0 3 445.674 321.095 2
12 0 4 802.621 578.914 2
12 0 5 475.957 327.522 2
12 -1 4 838.573 600.155 2
12 -1 3 -296.909 363.025 2
12 -1 2 1139.2 633.126 2
12 1 -1 505.654 441.95 2
12 -1 1 226.602 391.423 2
12 1 0 226.23 267.812 2
12 -1 0 1134.56 640.977 2
12 1 1 667.7 474.063 2
12 -1 -1 393.343 460.743 2
12 1 2 -407.014 399.927 2
12 -1 -2 225.674 274.672 2
12 1 3 -423.056 422.396 2
12 1 4 226.302 438.091 2
12 1 5 770.03 570.564 2
12 -2 4 292.757 380.046 2
12 -2 3 12.3042 249.236 2
12 -2 2 222.608 382.632 2
12 2 -1 700.237 486.92 2
12 -2 1 370.607 383.355 2
12 2 0 1.0664 166.614 2
12 -2 0 568.12 454.694 2
12 2 1 1024.12 580.728 2
12 -2 -1 582.764 505.88 2
12 2 2 1008.47 600.826 2
12 -2 -2 769.082 666.044 2
12 2 3 -216.838 299.652 2
12 2 4 -502.689 451.893 2
12 2 5 -591.734 495.27 2
12 -3 3 -394.795 408.646 2
12 -3 2 1268.16 761.33 2
12 -3 1 -236.611 347.034 2
12 -3 0 10.5241 186.382 2
12 3 0 -624.572 456.59 2
12 -3 -1 -261.951 323.808 2
12 3 1 451.864 419.865 2
12 -3 -2 533.54 508.39 2
12 3 2 731.827 568.411 2
12 3 3 270.144 337.681 2
12 3 4 573.439 464.716 2
12 3 5 2493.13 950.411 2
12 -4 2 -307.173 397.203 2
12 -4 1 -538.77 455.083 2
12 -4 0 1.18866 392.746 2
12 4 0 -236.586 303.059 2
12 -4 -1 32.4968 231.43 2
12 4 1 -6.51985 169.055 2
12 -4 -2 140.901 237.459 2
12 4 2 197.712 358.605 2
12 -4 -3 7.78413 208.506 2
12 4 3 657.492 532.865 2
12 4 4 417.041 434.396 2
12 -5 1 242.046 358.504 2
12 -5 0 -1.20232 379.494 2
12 -5 -1 137.926 327.232 2
12 5 1 685.866 544.817 2
12 -5 -2 974.171 633.935 2
12 5 2 476.946 431.646 2
12 -5 -3 -127.751 289.364 2
12 5 3 266.935 354.116 2
12 5 4 -213.26 342.708 2
12 -6 0 1128.36 680.056 2
12 -6 -1 372.814 497.107 2
12 6 1 126.477 263.109 2
12 -6 -2 1.189 425.706 2
12 6 2 120.322 254.939 2
12 -6 -3 1374.33 719.937 2
12 6 3 805.086 577.088 2
12 6 4 -432.909 420.064 2
12 -7 -2 334.946 512.695 2
12 7 3 135.038 266.075 2
12 -7 -3 -560.49 450.979 2
