#------------------------------------------------------------------------------
#$Date: 2017-08-26 04:51:53 +0300 (Sat, 26 Aug 2017) $
#$Revision: 199955 $
#$URL: file:///home/coder/svn-repositories/cod/cif/1/54/68/1546841.cif $
#------------------------------------------------------------------------------
#
# This file is available in the Crystallography Open Database (COD),
# http://www.crystallography.net/
#
# All data on this site have been placed in the public domain by the
# contributors.
#
data_1546841
_journal_paper_doi               10.1039/C7CC06125K
_chemical_formula_sum            'C20.5 H14 N5.5 O9.5 S2 Zn2'
_chemical_formula_weight         684.23
_space_group_crystal_system      tetragonal
_space_group_IT_number           96
_space_group_name_Hall           'P 4nw 2abw'
_space_group_name_H-M_alt        'P 43 21 2'
_symmetry_space_group_name_Hall  'P 4nw 2abw'
_symmetry_space_group_name_H-M   'P 43 21 2'
_atom_sites_solution_hydrogens   geom
_audit_creation_method           SHELXL-2014/7
_audit_update_record
;
2017-08-19 deposited with the CCDC.
2017-08-25 downloaded from the CCDC.
;
_cell_angle_alpha                90
_cell_angle_beta                 90
_cell_angle_gamma                90
_cell_formula_units_Z            8
_cell_length_a                   19.3596(14)
_cell_length_b                   19.3596(14)
_cell_length_c                   14.1336(15)
_cell_measurement_reflns_used    7414
_cell_measurement_temperature    120(2)
_cell_measurement_theta_max      72.8160
_cell_measurement_theta_min      3.8650
_cell_volume                     5297.2(8)
_computing_structure_refinement  'SHELXL-2014/7 (Sheldrick, 2014)'
_diffrn_ambient_temperature      120(2)
_diffrn_measured_fraction_theta_full 0.998
_diffrn_measured_fraction_theta_max 0.981
_diffrn_measurement_device_type  'XtaLAB AFC12 (RINC): Kappa single'
_diffrn_radiation_type           CuK\a
_diffrn_radiation_wavelength     1.54184
_diffrn_reflns_av_R_equivalents  0.0259
_diffrn_reflns_av_unetI/netI     0.0324
_diffrn_reflns_Laue_measured_fraction_full 0.998
_diffrn_reflns_Laue_measured_fraction_max 0.981
_diffrn_reflns_limit_h_max       20
_diffrn_reflns_limit_h_min       -15
_diffrn_reflns_limit_k_max       24
_diffrn_reflns_limit_k_min       -21
_diffrn_reflns_limit_l_max       13
_diffrn_reflns_limit_l_min       -16
_diffrn_reflns_number            13248
_diffrn_reflns_point_group_measured_fraction_full 0.999
_diffrn_reflns_point_group_measured_fraction_max 0.982
_diffrn_reflns_theta_full        67.684
_diffrn_reflns_theta_max         73.045
_diffrn_reflns_theta_min         3.228
_exptl_absorpt_coefficient_mu    4.261
_exptl_absorpt_correction_type   multi-scan
_exptl_crystal_colour            green
_exptl_crystal_density_diffrn    1.716
_exptl_crystal_description       block
_exptl_crystal_F_000             2748
_exptl_crystal_size_max          0.270
_exptl_crystal_size_mid          0.130
_exptl_crystal_size_min          0.100
_exptl_transmission_factor_max   0.653
_exptl_transmission_factor_min   0.540
_refine_diff_density_max         0.428
_refine_diff_density_min         -0.380
_refine_diff_density_rms         0.055
_refine_ls_abs_structure_details
;
 Refined as an inversion twin.
;
_refine_ls_abs_structure_Flack   0.44(4)
_refine_ls_extinction_method     none
_refine_ls_goodness_of_fit_ref   1.069
_refine_ls_hydrogen_treatment    constr
_refine_ls_matrix_type           full
_refine_ls_number_parameters     331
_refine_ls_number_reflns         5093
_refine_ls_number_restraints     24
_refine_ls_restrained_S_all      1.170
_refine_ls_R_factor_all          0.0357
_refine_ls_R_factor_gt           0.0332
_refine_ls_shift/su_max          0.001
_refine_ls_shift/su_mean         0.000
_refine_ls_structure_factor_coef Fsqd
_refine_ls_weighting_details
'w=1/[\s^2^(Fo^2^)+(0.0512P)^2^+1.4015P] where P=(Fo^2^+2Fc^2^)/3'
_refine_ls_weighting_scheme      calc
_refine_ls_wR_factor_gt          0.0881
_refine_ls_wR_factor_ref         0.0894
_reflns_Friedel_coverage         0.751
_reflns_Friedel_fraction_full    1.000
_reflns_Friedel_fraction_max     0.983
_reflns_number_gt                4750
_reflns_number_total             5093
_reflns_threshold_expression     'I > 2\s(I)'
_cod_data_source_file            c7cc06125k5.cif
_cod_data_source_block           test_sq
_cod_original_cell_volume        5297.19(10)
_cod_original_formula_sum        'C20.50 H14 N5.50 O9.50 S2 Zn2'
_cod_database_code               1546841
_shelx_shelxl_version_number     2014/7
_shelx_space_group_comment
;
The symmetry employed for this shelxl refinement is uniquely defined
by the following loop, which should always be used as a source of
symmetry information in preference to the above space-group names.
They are only intended as comments.
;
_shelx_estimated_absorpt_t_min   0.393
_shelx_estimated_absorpt_t_max   0.675
_shelx_res_file
;

    test_sq.res created by SHELXL-2014/7

TITL test.res in P4(3)2(1)2
CELL 1.54184 19.359602 19.359602 14.133597 90 90 90
ZERR 8 0.000138 0.000138 0.000154 0 0 0
LATT -1
SYMM -X,-Y,0.5+Z
SYMM 0.5-Y,0.5+X,0.75+Z
SYMM 0.5+Y,0.5-X,0.25+Z
SYMM 0.5-X,0.5+Y,0.75-Z
SYMM 0.5+X,0.5-Y,0.25-Z
SYMM +Y,+X,-Z
SYMM -Y,-X,0.5-Z
SFAC C H N O S Zn
UNIT 164 112 44 76 16 16
ISOR 0.01 0.02 O1 N1 C3 C4

L.S. 20 0 85
PLAN  20
SIZE 0.27 0.13 0.1
TEMP -153
BOND $H
list 4
conf
ABIN
fmap 2
acta
TWIN -1 0 0 0 -1 0 0 0 -1 2
REM <olex2.extras>
REM <HklSrc "%.\\test_sq.hkl">
REM </olex2.extras>

WGHT    0.051200    1.401500
BASF   0.44051
FVAR       0.14197   0.72547   0.45237   0.27193   0.50863
ZN1   6    1.036372    0.492590    0.642056    11.00000    0.02909    0.03409 =
         0.02744    0.00536    0.00152   -0.00058
ZN2   6    0.464447    0.535553    0.250000    10.50000    0.02959    0.02959 =
         0.03366   -0.00149   -0.00149    0.00064
ZN3   6    0.491873    0.491873    0.500000    10.50000    0.03206    0.03206 =
         0.02893    0.00320   -0.00320    0.00116
O1    4    0.937835    0.495366    0.678294    11.00000    0.02772    0.19379 =
         0.04603    0.03848    0.00274   -0.00287
O2    4    0.902750    0.471681    0.820408    11.00000    0.03124    0.15088 =
         0.03581    0.02267    0.00311   -0.00455
O4    4    0.562765    0.477063    0.604874    11.00000    0.02926    0.04302 =
         0.03502    0.00436   -0.00083   -0.00116
O6    4    0.486446    0.403530    0.428982    11.00000    0.10244    0.03282 =
         0.03678    0.00050   -0.00412   -0.00371
O7    4    0.455377    0.115174    0.087333    11.00000    0.18543    0.04950 =
         0.02745   -0.00236   -0.01205   -0.00661
O8    4    0.471412    0.062701    0.220929    11.00000    0.04077    0.03124 =
         0.02942   -0.00257   -0.00175    0.00020
N1    3    0.756311    0.468062    0.844041    11.00000    0.04109    0.25554 =
         0.03052   -0.00287   -0.00638   -0.02412
N2    3    0.643156    0.466675    0.769039    11.00000    0.02906    0.15348 =
         0.03123   -0.00191    0.00005   -0.01953
N3    3    0.506107    0.259126    0.452062    11.00000    0.23736    0.03217 =
         0.04583   -0.00179   -0.05171    0.00450
N4    3    0.496266    0.144012    0.379130    11.00000    0.13246    0.02893 =
         0.03694   -0.00269   -0.02848    0.00526
C1    1    0.893088    0.483267    0.736566    11.00000    0.02575    0.07805 =
         0.04554    0.01051    0.01013   -0.00182
C2    1    0.821708    0.483697    0.697164    11.00000    0.03150    0.13838 =
         0.05019    0.02298    0.00231   -0.00308
C3    1    0.812583    0.486437    0.602571    11.00000    0.04750    0.25242 =
         0.04966    0.05214   -0.00046   -0.01798
AFIX  43
H3    2    0.852088    0.490307    0.563053    11.00000   -1.20000
AFIX   0
C4    1    0.745099    0.483718    0.559005    11.00000    0.05439    0.22671 =
         0.06028    0.05343   -0.00332   -0.01167
AFIX  43
H4    2    0.742631    0.483475    0.491875    11.00000   -1.20000
AFIX   0
C5    1    0.685396    0.481506    0.608176    11.00000    0.03706    0.14953 =
         0.05183    0.04584   -0.00570   -0.00684
C6    1    0.693254    0.474074    0.707413    11.00000    0.02824    0.06837 =
         0.03512   -0.00186   -0.00051   -0.00563
C7    1    0.760422    0.473507    0.751531    11.00000    0.02975    0.10305 =
         0.03230    0.00274    0.00155   -0.01203
C8    1    0.617854    0.486005    0.558927    11.00000    0.03402    0.10445 =
         0.04604    0.02934    0.00087   -0.00257
C9    1    0.476436    0.393459    0.345388    11.00000    0.08723    0.03342 =
         0.04459    0.00244   -0.00649    0.00594
C10   1    0.474218    0.321045    0.307276    11.00000    0.13598    0.03292 =
         0.04391   -0.00116   -0.02151    0.00492
C11   1    0.449897    0.311781    0.215647    11.00000    0.15864    0.03813 =
         0.03786    0.00672   -0.01818    0.01086
AFIX  43
H11   2    0.436374    0.350938    0.179619    11.00000   -1.20000
AFIX   0
C12   1    0.444867    0.245159    0.174902    11.00000    0.12046    0.04349 =
         0.04387    0.00247   -0.01235    0.00284
AFIX  43
H12   2    0.427759    0.241165    0.112142    11.00000   -1.20000
AFIX   0
C13   1    0.463583    0.186190    0.221990    11.00000    0.09954    0.03655 =
         0.03262   -0.00252   -0.01122    0.00091
C14   1    0.482462    0.194223    0.318332    11.00000    0.07084    0.03057 =
         0.03248   -0.00245   -0.00733    0.00330
C15   1    0.487224    0.261245    0.361301    11.00000    0.10440    0.02931 =
         0.03098    0.00049   -0.01466    0.00523
C16   1    0.463022    0.118174    0.172570    11.00000    0.08649    0.03693 =
         0.03059    0.00160   -0.00729   -0.00283
PART 1
S1    5    0.675153    0.473165    0.873472    21.00000    0.02848    0.23996 =
         0.02939   -0.01896    0.00075   -0.01993
S2    5    0.525675    0.177733    0.473102    31.00000    0.16157    0.03736 =
         0.05681   -0.01190   -0.06445    0.01164
O3    4    0.613884    0.526152    0.492634    41.00000    0.03665    0.10144 =
         0.02453   -0.00954    0.00626   -0.01138
O5    4    0.491188    0.440681    0.277841    51.00000    0.06673    0.03778 =
         0.03838    0.00002   -0.00431    0.00271
PART 0
PART 2
S1'   5    0.683968    0.421507    0.863967   -21.00000    0.04160    0.12185 =
         0.03419    0.01953   -0.00312   -0.01880
S2'   5    0.502468    0.178787    0.484752   -31.00000    0.33953    0.02547 =
         0.02772   -0.00186   -0.03600    0.02807
O3'   4    0.617425    0.489918    0.468024   -41.00000    0.04419    0.13233 =
         0.02791    0.01969   -0.00438    0.00039
O5'   4    0.443027    0.436230    0.297653   -51.00000    0.05690    0.03106 =
         0.04721    0.00621   -0.01302   -0.01194
HKLF 4

REM  test.res in P4(3)2(1)2
REM R1 =  0.0332 for    4750 Fo > 4sig(Fo)  and  0.0357 for all    5093 data
REM    331 parameters refined using     24 restraints

END

WGHT      0.0514      1.3957

REM Highest difference peak  0.428,  deepest hole -0.380,  1-sigma level  0.055
Q1    1   0.8104  0.5432  0.6252  11.00000  0.05    0.43
Q2    1   0.7341  0.5413  0.5893  11.00000  0.05    0.36
Q3    1   0.5066  0.2384  0.1714  11.00000  0.05    0.31
Q4    1   0.9434  0.5198  0.6888  11.00000  0.05    0.31
Q5    1   0.9994  0.5441  0.6707  11.00000  0.05    0.27
Q6    1   0.5007  0.4914  0.5980  11.00000  0.05    0.26
Q7    1   0.9383  0.5056  0.8740  11.00000  0.05    0.25
Q8    1   0.5094  0.1071  0.0936  11.00000  0.05    0.25
Q9    1   0.5363  0.2142  0.4004  11.00000  0.05    0.24
Q10   1   0.9984  0.4741  0.7175  11.00000  0.05    0.23
Q11   1   1.0795  0.4386  0.6272  11.00000  0.05    0.23
Q12   1   0.5604  0.4661  0.4710  11.00000  0.05    0.23
Q13   1   0.9418  0.4582  0.6772  11.00000  0.05    0.23
Q14   1   0.5316  0.4360  0.2273  11.00000  0.05    0.23
Q15   1   0.4942  0.0423  0.2548  11.00000  0.05    0.22
Q16   1   0.4678 -0.0054  0.2068  11.00000  0.05    0.21
Q17   1   0.4065  0.4855  0.2625  11.00000  0.05    0.21
Q18   1   0.7432  0.4569  0.5556  11.00000  0.05    0.20
Q19   1   1.0815  0.5118  0.7076  11.00000  0.05    0.19
Q20   1   0.5395  0.4678  0.6454  11.00000  0.05    0.19
;
_shelx_res_checksum              20500
_shelx_fab_file
;
    0    0    4     20.37     -0.06
    0    0    8      3.37     -0.13
    0    0   12      0.33      0.30
    0    1    1    -23.52     23.92
    0    1    2     10.31      2.09
    0    1    3     -8.05     -7.08
    0    1    4      0.21     -3.23
    0    1    5      1.78     -2.16
    0    1    6     -1.93     -0.19
    0    1    7     -1.23     -2.02
    0    1    8      0.20     -0.59
    0    1    9     -0.58      0.67
    0    1   10     -0.42      1.11
    0    1   11      1.56      1.15
    0    1   12      0.00      0.18
    0    1   13     -1.11      1.46
    0    1   14     -1.10     -0.04
    0    1   15      0.43      0.64
    1    1    0      4.86      0.97
    1    1    1     -0.74      1.41
    1    1    2     -1.95      0.09
    1    1    3     -0.17     -0.70
    1    1    4      4.38     -1.33
    1    1    5      0.36     -0.37
    1    1    6      2.08      0.18
    1    1    7      0.09     -1.10
    1    1    8     -0.28      0.01
    1    1    9     -0.02     -1.27
    1    1   10     -0.44      0.33
    1    1   11     -0.13      0.11
    1    1   12      0.22     -0.02
    1    1   13     -0.00      0.40
    1    1   14      0.15      0.05
    1    1   15      0.12     -0.67
    1    1   16     -0.28      0.20
    0    2    0   -353.11      3.55
    0    2    1     60.03     58.76
    0    2    2     -0.83      7.39
    0    2    3     -6.57      5.24
    0    2    4    -14.77     -1.27
    0    2    5      1.76      2.13
    0    2    6     -0.06      2.80
    0    2    7      0.55     -0.19
    0    2    8     -2.35      0.10
    0    2    9     -0.82     -0.56
    0    2   10      0.15     -0.50
    0    2   11     -0.76      0.93
    0    2   12      0.32     -0.16
    0    2   13     -0.08     -0.11
    0    2   14      0.13     -0.02
    0    2   15     -0.63     -0.23
    0    2   16     -1.63     -0.20
    1    2   16      0.53     -0.89
    1    2   15     -1.32     -1.47
    1    2   14      0.34     -1.82
    1    2   13     -0.48      0.15
    1    2   12     -3.51     -0.36
    1    2   11     -0.05      0.61
    1    2   10      0.18     -2.42
    1    2    9      0.30     -0.07
    1    2    8     -2.33     -0.70
    1    2    7     -2.51      1.51
    1    2    6      0.82     -6.96
    1    2    5     -1.84     -0.02
    1    2    4      5.14     -1.61
    1    2    3     -5.33      5.55
    1    2    2     -4.66      6.27
    1    2    1    -17.64     -4.42
    1    2    0     -6.71      0.65
    2    2    3      1.27     -8.00
    2    2    4     10.24      1.72
    2    2    5      1.24     -1.47
    2    2    6     -4.82      0.18
    2    2    7     -0.11      0.31
    2    2    8      1.25      0.14
    2    2    9     -0.16      0.38
    2    2   10     -0.01     -0.10
    2    2   11     -0.24      2.79
    2    2   12     -0.31     -0.16
    2    2   13      0.10     -1.99
    2    2   14      3.91     -0.82
    2    2   15      0.60     -1.07
    2    2   16      0.88      0.12
    0    3    1    -38.91     39.65
    0    3    2     -4.24     -3.43
    0    3    3      5.38      5.06
    0    3    4      0.49      0.87
    0    3    5     -1.62      1.17
    0    3    6      4.15     -0.18
    0    3    7     -0.74     -0.42
    0    3    8     -0.04      1.80
    0    3    9      1.01     -0.96
    0    3   10      1.67      0.12
    0    3   11     -0.73     -0.55
    0    3   12     -0.07      0.10
    0    3   13      0.21     -0.45
    0    3   14      2.35      0.07
    0    3   15      0.69      0.70
    0    3   16      0.11      0.96
    1    3   16     -0.20      0.54
    1    3   15      0.67      0.24
    1    3   14     -0.64     -0.10
    1    3   13     -0.39      0.27
    1    3   12     -0.57      0.32
    1    3   11      0.18     -0.04
    1    3   10      0.86     -0.76
    1    3    9     -0.37      1.01
    1    3    8      1.00      1.21
    1    3    7      1.39      0.05
    1    3    6     -0.09     -0.76
    1    3    5     -1.33      1.39
    1    3    4     -7.10      0.74
    1    3    3      2.18      8.51
    1    3    2    -12.86     -1.17
    1    3    1      4.63     -0.85
    1    3    0     -8.84     -2.61
    2    3   16      0.60     -0.61
    2    3   15     -1.59      1.43
    2    3   14     -1.13      0.22
    2    3   13     -0.84      0.04
    2    3   12      0.08     -0.23
    2    3   11      0.74     -0.97
    2    3   10     -1.00     -2.09
    2    3    9      0.44      0.56
    2    3    8      2.45     -1.34
    2    3    7     -0.43      0.99
    2    3    6     -1.58      1.14
    2    3    5      1.36     -0.39
    2    3    4     -2.19     -0.42
    2    3    3     -4.84     -0.27
    2    3    2      0.42     -4.24
    2    3    1     20.79    -34.09
    2    3    0    -17.32     -1.30
    3    3    0     12.51      1.56
    3    3    1     -1.47     -3.42
    3    3    2      6.23     -0.39
    3    3    3      1.10    -11.34
    3    3    4     10.43     -0.77
    3    3    5      0.22     -3.09
    3    3    6      0.12     -0.10
    3    3    7     -0.58      2.97
    3    3    8     -1.67     -0.26
    3    3    9      0.19     -1.31
    3    3   10     -1.26      0.19
    3    3   11     -0.33      0.63
    3    3   12      0.80     -0.11
    3    3   13     -0.15      0.69
    3    3   14      0.84     -0.08
    3    3   15     -0.08      0.56
    3    3   16      0.65      0.08
    0    4    0    -24.97      1.27
    0    4    1     -8.97    -10.07
    0    4    2     -0.60    -28.59
    0    4    3      4.91     -4.26
    0    4    4      3.64      0.65
    0    4    5     -0.19     -0.49
    0    4    6      0.04     -7.00
    0    4    7     -1.16      1.22
    0    4    8     -0.44     -0.16
    0    4    9      0.57      0.28
    0    4   10      0.09      0.77
    0    4   11      0.80     -1.03
    0    4   12      0.49     -0.19
    0    4   13      1.63      1.55
    0    4   14     -0.34     -0.55
    0    4   15      0.80     -0.68
    0    4   16     -0.77     -0.23
    1    4   16      0.76     -0.36
    1    4   15      1.25      0.64
    1    4   14      0.61      0.34
    1    4   13     -0.71     -1.17
    1    4   12      0.67      0.18
    1    4   11      1.98     -1.86
    1    4   10      0.59      2.45
    1    4    9     -2.34     -1.20
    1    4    8      2.70      0.74
    1    4    7      2.59     -1.25
    1    4    6      1.83      4.07
    1    4    5      5.37      5.42
    1    4    4     -5.42     -1.48
    1    4    3      1.70     -0.29
    1    4    2      1.37     -1.75
    1    4    1      3.38     -1.91
    1    4    0     -2.40     -2.97
    2    4   16     -0.17      0.70
    2    4   15     -0.03      1.78
    2    4   14     -0.81      0.80
    2    4   13     -1.68      0.27
    2    4   12     -0.87      3.77
    2    4   11     -1.10     -3.30
    2    4   10      0.14     -0.15
    2    4    9     -1.39     -0.68
    2    4    8     -0.57     -1.33
    2    4    7      1.52     -0.71
    2    4    6      3.47      3.62
    2    4    5      0.30     -1.78
    2    4    4     -1.86     -0.11
    2    4    3      0.81      6.89
    2    4    2     14.05     18.05
    2    4    1      4.43      2.51
    2    4    0     21.62     -0.86
    3    4   16     -1.21      0.06
    3    4   15     -1.28     -2.02
    3    4   14     -1.27      0.56
    3    4   13     -0.19     -0.31
    3    4   12     -0.03      0.16
    3    4   11     -0.77      0.89
    3    4   10     -1.46     -2.78
    3    4    9      1.58     -0.02
    3    4    8     -2.28     -1.42
    3    4    7      0.25     -1.04
    3    4    6     -3.56      1.42
    3    4    5      1.90     -1.10
    3    4    4      1.58      3.10
    3    4    3     -6.20     -5.85
    3    4    2     -2.11     -5.84
    3    4    1      4.79      6.32
    3    4    0      9.24      5.64
    4    4    0    -17.86      0.43
    4    4    1     -0.20     -1.62
    4    4    2     -7.11     -0.09
    4    4    3      0.00     -5.80
    4    4    4     -1.42     -0.43
    4    4    5     -0.01      2.24
    4    4    6     -2.67     -0.16
    4    4    7      0.27     -0.80
    4    4    8      2.50      0.05
    4    4    9      0.22      1.46
    4    4   10     -0.27     -0.34
    4    4   11      0.29      4.34
    4    4   12      1.11     -0.12
    4    4   13     -0.06      0.47
    4    4   14     -0.03     -0.31
    4    4   15      0.33     -2.20
    4    4   16      1.72     -0.02
    0    5    1     49.48    -49.98
    0    5    2    -10.26      1.87
    0    5    3      1.55      0.73
    0    5    4      0.07      2.14
    0    5    5      3.59     -3.21
    0    5    6     -2.38     -0.10
    0    5    7      1.35      1.80
    0    5    8      0.36     -3.05
    0    5    9     -0.44      0.71
    0    5   10     -1.70     -0.37
    0    5   11     -0.34      0.27
    0    5   12     -0.12     -0.62
    0    5   13      0.14     -0.19
    0    5   14     -1.82     -0.08
    0    5   15      0.57      0.25
    0    5   16      0.02      1.04
    1    5   16      0.69     -0.08
    1    5   15      0.18      0.16
    1    5   14     -0.38     -0.02
    1    5   13      1.29     -1.03
    1    5   12      0.06     -1.10
    1    5   11      0.34     -0.50
    1    5   10     -0.76      0.76
    1    5    9     -0.36      1.56
    1    5    8     -0.37     -1.06
    1    5    7     -0.88      1.51
    1    5    6     -0.89      0.83
    1    5    5      3.41     -1.55
    1    5    4      4.75      0.94
    1    5    3     -2.43     -9.36
    1    5    2     15.33      1.62
    1    5    1     -5.26      5.22
    1    5    0      4.93      3.60
    2    5   16     -0.64     -0.29
    2    5   15     -0.36      0.05
    2    5   14      0.32      0.14
    2    5   13      1.05      0.45
    2    5   12      0.59     -0.81
    2    5   11     -0.09     -0.26
    2    5   10      0.80      2.27
    2    5    9      0.16     -0.07
    2    5    8     -1.69      2.15
    2    5    7     -2.53     -2.57
    2    5    6      0.89     -3.62
    2    5    5     -4.23      1.78
    2    5    4     -2.55     -1.50
    2    5    3      2.22     -7.61
    2    5    2      8.12     11.79
    2    5    1    -36.47     30.57
    2    5    0     13.90      1.31
    3    5   16     -0.44      0.44
    3    5   15      0.35      0.13
    3    5   14     -0.26     -0.35
    3    5   13      0.48     -1.33
    3    5   12     -0.16      0.29
    3    5   11     -0.17     -0.04
    3    5   10      0.56     -1.44
    3    5    9     -0.78     -0.21
    3    5    8      0.25      0.57
    3    5    7      1.70     -2.77
    3    5    6     -0.04     -1.78
    3    5    5     -4.10      0.20
    3    5    4     -6.45      1.58
    3    5    3      0.05      6.94
    3    5    2     -0.93     -2.01
    3    5    1     -0.88     -1.02
    3    5    0     -4.35      0.64
    4    5   16      0.73     -0.46
    4    5   15     -0.03      0.52
    4    5   14      1.66      1.02
    4    5   13     -0.50     -0.07
    4    5   12      0.97      0.67
    4    5   11      0.25     -0.73
    4    5   10      1.56     -1.60
    4    5    9      0.06     -1.50
    4    5    8      2.19     -0.51
    4    5    7      3.28     -0.01
    4    5    6      1.87      0.66
    4    5    5      4.55     -2.60
    4    5    4      6.10      1.26
    4    5    3     -6.14     10.63
    4    5    2     -0.72     -9.81
    4    5    1     12.91     -2.50
    4    5    0     -3.26     -4.05
    5    5    0     -1.96     -5.10
    5    5    1     -0.22      1.37
    5    5    2     -3.77     -0.66
    5    5    3      0.36      1.46
    5    5    4      4.13      0.74
    5    5    5      0.33      1.46
    5    5    6      1.50      0.28
    5    5    7     -0.44      1.36
    5    5    8      0.67      0.07
    5    5    9      0.16     -0.62
    5    5   10      0.32      0.62
    5    5   11      0.42      0.60
    5    5   12      0.71     -0.06
    5    5   13      0.10      1.67
    5    5   14     -0.13      0.22
    5    5   15     -0.08      0.69
    5    5   16      0.25      0.02
    0    6    0     95.88     -1.01
    0    6    1    -35.89    -33.48
    0    6    2      0.44     30.11
    0    6    3      2.25     -1.84
    0    6    4      4.62     -0.16
    0    6    5      0.05     -0.40
    0    6    6      0.12      3.11
    0    6    7      0.47     -0.68
    0    6    8      3.18      0.48
    0    6    9      0.28      0.06
    0    6   10     -0.18      0.28
    0    6   11     -1.32      1.29
    0    6   12     -2.32      0.03
    0    6   13     -1.99     -2.26
    0    6   14      0.45      0.49
    0    6   15      0.56      0.10
    0    6   16     -0.44      0.12
    1    6   16     -1.65      0.66
    1    6   15      0.14      0.13
    1    6   14     -0.93      2.77
    1    6   13      0.58     -0.22
    1    6   12      2.57      0.90
    1    6   11     -1.92      0.97
    1    6   10     -1.01     -2.36
    1    6    9      1.26      1.38
    1    6    8     -1.09      0.30
    1    6    7     -0.51      1.04
    1    6    6     -2.50      3.05
    1    6    5     -1.93     -4.59
    1    6    4     -1.43     -0.87
    1    6    3      4.47      0.02
    1    6    2     -2.45      6.74
    1    6    1     -0.02     -6.75
    1    6    0      1.71      4.91
    2    6   16      0.38     -0.23
    2    6   15     -1.14     -1.27
    2    6   14     -2.21     -0.40
    2    6   13      2.34      3.30
    2    6   12      1.62     -3.98
    2    6   11     -0.35     -0.72
    2    6   10     -0.67     -0.27
    2    6    9      0.19      0.21
    2    6    8      0.45      1.19
    2    6    7     -1.18      0.22
    2    6    6     -1.06     -1.39
    2    6    5      0.15      2.29
    2    6    4     -2.06      3.95
    2    6    3     -2.46     -0.53
    2    6    2      0.90    -22.34
    2    6    1     16.45     26.39
    3    6   16     -0.60     -0.19
    3    6   15      0.50      0.89
    3    6   14      1.66     -0.86
    3    6   13     -0.90      0.75
    3    6   12     -1.25      0.18
    3    6   11      0.81     -0.38
    3    6   10      2.29      1.76
    3    6    9      0.16     -0.07
    3    6    8      0.03     -0.05
    3    6    7     -1.33      0.65
    3    6    6      4.49     -0.36
    3    6    5     -1.10      2.70
    3    6    4     -0.77     -1.94
    3    6    3      0.18      0.62
    3    6    2      7.68     -0.78
    3    6    1     -2.07      9.76
    3    6    0      5.56     -7.78
    4    6   16     -1.21      0.10
    4    6   15     -0.40      1.10
    4    6   14      1.50      1.32
    4    6   13     -2.40     -3.24
    4    6   12     -0.20      2.38
    4    6   11      0.54     -1.21
    4    6   10      1.30      0.65
    4    6    9     -0.85     -0.03
    4    6    8     -1.91     -1.40
    4    6    7      1.00      1.74
    4    6    6      1.77     -0.17
    4    6    5      0.29     -1.69
    4    6    4      0.15      0.77
    4    6    3      3.97      1.76
    4    6    2      2.47      6.90
    4    6    1     -2.62      4.59
    4    6    0     10.03     -0.66
    5    6   16      1.24     -1.12
    5    6   15     -0.18     -1.00
    5    6   14     -0.80      1.19
    5    6   13      0.53     -0.96
    5    6   12      0.24     -2.80
    5    6   11      0.08      0.70
    5    6   10     -1.64     -0.22
    5    6    9     -0.68      1.14
    5    6    8     -0.51      0.65
    5    6    7     -0.04      1.71
    5    6    6     -0.63     -2.29
    5    6    5      0.24      3.14
    5    6    4     -1.98      4.67
    5    6    3     -4.01     -5.52
    5    6    2     -5.30     -0.33
    5    6    1      4.51     -2.20
    5    6    0     -5.41      4.34
    6    6    0      3.96      0.96
    6    6    1      0.02    -19.38
    6    6    2     -4.51     -0.19
    6    6    3      0.68      3.04
    6    6    4      0.42     -0.06
    6    6    5     -0.32      0.40
    6    6    6     -3.08     -0.35
    6    6    7     -0.26     -0.54
    6    6    8     -0.35     -0.11
    6    6    9      0.31      1.23
    6    6   10     -1.51      0.21
    6    6   11      0.25      0.11
    6    6   12     -0.58      0.23
    6    6   13     -0.04      2.48
    6    6   14     -1.28     -0.50
    6    6   15      0.08     -0.53
    0    7    1    -11.43     10.61
    0    7    2      0.65      0.36
    0    7    3      0.23      0.21
    0    7    4     -0.01      2.38
    0    7    5     -1.79      2.63
    0    7    6     -0.98      0.11
    0    7    7      0.89      0.51
    0    7    8     -0.28      3.40
    0    7    9      0.01     -0.39
    0    7   10      0.32     -0.03
    0    7   11      2.39      0.00
    0    7   12      0.46      0.48
    0    7   13     -0.10     -0.22
    0    7   14      1.10      0.18
    0    7   15     -1.06     -0.91
    0    7   16     -0.11      2.07
    1    7   16      0.16     -2.21
    1    7   15     -0.55      0.26
    1    7   14      1.13      0.09
    1    7   13     -0.37      0.09
    1    7   12      0.97      1.53
    1    7   11     -0.91      0.12
    1    7   10     -0.28     -0.13
    1    7    9      0.41     -1.39
    1    7    8     -0.16      0.06
    1    7    7     -1.06     -0.64
    1    7    6     -0.14      0.90
    1    7    5     -0.96      0.84
    1    7    4     -1.30      1.72
    1    7    3     -1.12      2.72
    1    7    2    -13.77      1.14
    1    7    1      3.29     -5.40
    1    7    0      0.99     -2.18
    2    7   16      0.21     -0.84
    2    7   15      0.20      0.56
    2    7   14     -0.51     -1.12
    2    7   13      0.08      0.22
    2    7   12      0.51      0.64
    2    7   11     -1.58      0.36
    2    7   10      0.62     -0.49
    2    7    9      0.20      0.24
    2    7    8     -0.39     -3.30
    2    7    7      1.05      0.44
    2    7    6      0.33     -0.23
    2    7    5     -0.40     -3.44
    2    7    4      1.63     -0.73
    2    7    3     -1.98      6.90
    2    7    2      0.73     -6.74
    2    7    1     12.48     -3.11
    2    7    0     -0.61     -0.11
    3    7   16     -0.16     -0.11
    3    7   15     -0.37     -1.00
    3    7   14     -0.39      0.92
    3    7   13     -1.18      0.79
    3    7   12     -0.82     -0.47
    3    7   11      0.64     -0.72
    3    7   10      0.28     -0.36
    3    7    9      0.94     -0.44
    3    7    8     -0.30      0.06
    3    7    7      0.92     -0.42
    3    7    6     -0.06      0.49
    3    7    5      1.46      1.50
    3    7    4      2.30     -1.25
    3    7    3     -1.82     -4.22
    3    7    2      3.58      0.09
    3    7    1      1.44      5.11
    3    7    0     -1.03     -2.80
    4    7   16      0.64      0.11
    4    7   15     -1.19      0.68
    4    7   14     -0.03      0.18
    4    7   13     -0.14      0.26
    4    7   12     -1.35     -0.00
    4    7   11     -0.25      1.26
    4    7   10     -0.85     -0.94
    4    7    9     -0.16      1.78
    4    7    8     -0.98      0.64
    4    7    7     -1.04      1.03
    4    7    6      1.25      2.98
    4    7    5      1.19      3.62
    4    7    4     -6.15      0.72
    4    7    3     -0.86     -5.72
    4    7    2      0.07      7.24
    4    7    1     -4.80     -0.93
    4    7    0      0.29     -0.22
    5    7   15      0.22     -0.84
    5    7   14      0.52     -1.28
    5    7   13      1.04      0.30
    5    7   12     -0.52     -0.39
    5    7   11     -0.00      1.52
    5    7   10      0.47      0.91
    5    7    9      0.50      0.84
    5    7    8      0.13      0.35
    5    7    7     -1.55      0.70
    5    7    6     -0.12     -2.24
    5    7    5     -1.28     -0.62
    5    7    4     -2.85      0.18
    5    7    3      2.82     -1.24
    5    7    2      0.98     -2.18
    5    7    1     -3.07     -2.91
    5    7    0      1.35      5.53
    5    7   16     -1.63      1.01
    6    7   15      0.98     -0.23
    6    7   14     -0.35      0.90
    6    7   13     -0.38      0.44
    6    7   12      0.54     -2.51
    6    7   11     -0.06     -0.99
    6    7   10      0.10      1.73
    6    7    9      0.16     -1.45
    6    7    8     -0.17      1.61
    6    7    7     -0.69     -2.47
    6    7    6     -2.65     -0.99
    6    7    5     -1.79     -3.47
    6    7    4      2.40     -0.81
    6    7    3      1.44      2.97
    6    7    2     -2.92     -1.10
    6    7    1      0.76     -0.86
    6    7    0     -1.10      0.61
    7    7    0     -0.89     -3.75
    7    7    1     -0.48      2.24
    7    7    2     -2.37      0.48
    7    7    3      0.80      2.73
    7    7    4      3.32      0.57
    7    7    5     -0.19     -1.75
    7    7    6     -2.69     -0.10
    7    7    7     -0.50      0.41
    7    7    8      0.21     -0.06
    7    7    9     -0.23     -0.16
    7    7   10     -2.76     -0.01
    7    7   11     -0.04     -2.04
    7    7   12      0.54     -0.19
    7    7   13      0.11     -0.91
    7    7   14     -0.43     -0.03
    7    7   15     -0.06      2.47
    0    8    0    -21.28     -0.65
    0    8    1     20.21     19.40
    0    8    2      1.16     -3.35
    0    8    3     -2.92      2.37
    0    8    4     -3.28     -0.26
    0    8    5      1.43      1.94
    0    8    6     -0.04      3.40
    0    8    7      1.47     -1.39
    0    8    8     -3.06      0.33
    0    8    9     -0.64     -0.38
    0    8   10     -0.18     -0.18
    0    8   11      1.20     -0.59
    0    8   12      1.88      0.49
    0    8   13      0.48      0.63
    0    8   14      0.19      1.22
    0    8   15     -0.84      0.70
    0    8   16     -0.04     -0.01
    1    8   16      0.69     -0.71
    1    8   15     -0.49     -0.69
    1    8   14      1.04     -2.20
    1    8   13      0.58      1.37
    1    8   12     -1.54     -0.82
    1    8   11      1.38     -0.44
    1    8   10      0.23     -0.44
    1    8    9      0.34      1.00
    1    8    8     -0.60     -1.69
    1    8    7     -1.50     -0.54
    1    8    6      0.08     -3.10
    1    8    5     -3.32     -0.28
    1    8    4      4.26      5.62
    1    8    3     -4.08     -0.65
    1    8    2     -1.61    -10.24
    1    8    1     -2.00      6.37
    1    8    0     -0.60     -2.40
    2    8   16      0.47     -0.43
    2    8   15      0.69     -0.32
    2    8   14      2.10     -0.13
    2    8   13     -2.65     -2.10
    2    8   12     -0.97      1.48
    2    8   11      1.13      1.47
    2    8   10     -0.44     -0.18
    2    8    9      0.44      0.86
    2    8    8      1.13     -1.05
    2    8    7     -1.15      1.02
    2    8    6     -0.63     -2.40
    2    8    5     -2.18      0.06
    2    8    4      1.27     -1.54
    2    8    3     -3.58     -4.69
    2    8    2     -7.77      5.27
    2    8    1    -11.19     -9.87
    2    8    0     11.49      0.02
    3    8   16      2.57      0.10
    3    8   15      0.30     -0.11
    3    8   14     -0.83      0.05
    3    8   13      0.57     -0.54
    3    8   12      1.90     -0.58
    3    8   11      0.08     -0.48
    3    8   10     -0.24      0.72
    3    8    9     -0.27     -1.46
    3    8    8      1.08      2.26
    3    8    7      1.41     -0.75
    3    8    6      0.06     -0.10
    3    8    5     -0.31     -2.95
    3    8    4     -1.05     -4.89
    3    8    3      2.73      2.67
    3    8    2     -0.38      3.44
    3    8    1      1.78     -8.62
    3    8    0     -5.49      4.16
    4    8   16     -0.75     -0.36
    4    8   15      0.36      0.84
    4    8   14     -1.41     -1.71
    4    8   13      3.03      3.23
    4    8   12      0.34     -1.48
    4    8   11     -1.13     -0.01
    4    8   10     -0.24     -0.53
    4    8    9      0.18     -0.87
    4    8    8     -0.42      1.17
    4    8    7      1.15     -0.11
    4    8    6      0.75      0.51
    4    8    5     -1.49      0.10
    4    8    4      0.37     -2.69
    4    8    3     -2.16      1.17
    4    8    2      0.09     -3.11
    4    8    1      1.74     -5.25
    4    8    0      3.20     -0.21
    5    8   15      0.92      1.26
    5    8   14     -0.52     -0.38
    5    8   13     -0.45      1.39
    5    8   12     -1.78      3.60
    5    8   11     -0.48      0.84
    5    8   10     -0.52     -0.14
    5    8    9      0.73      0.15
    5    8    8     -0.04     -1.04
    5    8    7      1.31      0.64
    5    8    6     -2.04      0.07
    5    8    5      2.09      0.11
    5    8    4     -1.90     -3.37
    5    8    3     -1.16      2.21
    5    8    2      1.73     -1.18
    5    8    1     -2.17      0.63
    5    8    0      0.04     -2.54
    6    8   15     -0.49     -0.39
    6    8   14      0.76      1.22
    6    8   13     -0.85     -0.58
    6    8   12      0.54     -0.24
    6    8   11      0.21      1.31
    6    8   10      1.20      0.82
    6    8    9      0.31     -0.73
    6    8    8     -0.38     -0.39
    6    8    7     -1.68     -1.96
    6    8    6      0.48      0.35
    6    8    5      2.33     -0.42
    6    8    4     -0.18      2.74
    6    8    3      5.62     -2.91
    6    8    2      3.77     -1.34
    6    8    1     -2.11     11.35
    6    8    0     -3.75     -0.07
    7    8   15     -1.92     -0.97
    7    8   14     -0.83      1.73
    7    8   13      0.21     -0.78
    7    8   12     -0.19     -2.46
    7    8   11     -0.84     -0.59
    7    8   10      0.92      1.32
    7    8    9     -1.07     -0.12
    7    8    8      0.48     -0.18
    7    8    7      0.32     -0.21
    7    8    6      1.97      1.15
    7    8    5     -1.10      1.53
    7    8    4      1.22      0.74
    7    8    3      2.90     -4.18
    7    8    2      1.45      0.41
    7    8    1      2.68      1.48
    7    8    0      4.28     -0.14
    8    8    0     -1.66      0.17
    8    8    1      0.10     -6.80
    8    8    2     -2.50     -1.03
    8    8    3      0.81      2.71
    8    8    4     -0.55     -0.20
    8    8    5      0.49     -0.29
    8    8    6     -0.66     -0.36
    8    8    7     -0.30      3.30
    8    8    8      2.43     -0.31
    8    8    9      0.45     -0.39
    8    8   10     -1.64      0.12
    8    8   11     -0.32     -1.81
    8    8   12     -2.34      0.17
    8    8   13      0.27     -1.61
    8    8   14     -1.15      0.05
    8    8   15      0.18     -1.13
    0    9    1    -11.93     11.08
    0    9    2      5.84      0.48
    0    9    3     -1.70     -2.89
    0    9    4     -0.53     -1.53
    0    9    5     -0.84      1.26
    0    9    6      0.94      0.03
    0    9    7     -1.88     -1.65
    0    9    8     -0.08     -0.89
    0    9    9     -1.27      1.10
    0    9   10      0.54      0.61
    0    9   11     -1.78      0.83
    0    9   12      0.23     -0.13
    0    9   13     -1.04      1.25
    0    9   14      0.00     -0.13
    0    9   15     -0.61     -0.46
    0    9   16      0.04     -3.32
    1    9   16      0.17      4.32
    1    9   15     -0.40     -0.49
    1    9   14     -0.28      0.59
    1    9   13     -1.37      1.77
    1    9   12     -0.17      0.25
    1    9   11      1.38      1.29
    1    9   10      1.03     -0.09
    1    9    9      0.73     -0.66
    1    9    8     -1.00     -1.40
    1    9    7      1.24      0.14
    1    9    6     -0.23     -1.39
    1    9    5     -2.76      0.84
    1    9    4     -2.54     -2.34
    1    9    3     -2.50     -0.92
    1    9    2      9.17     -0.49
    1    9    1     -0.41      0.44
    1    9    0     -3.54      0.32
    2    9   16      0.20      1.81
    2    9   15      0.48     -0.62
    2    9   14      0.22      0.62
    2    9   13     -0.97     -2.19
    2    9   12     -1.51     -0.03
    2    9   11      2.04     -0.82
    2    9   10     -1.29     -0.67
    2    9    9     -0.26     -1.40
    2    9    8      0.02      0.83
    2    9    7      2.11      0.41
    2    9    6     -0.21      3.39
    2    9    5      2.32     -0.02
    2    9    4      0.16      1.90
    2    9    3      1.44      0.51
    2    9    2     -6.05     -1.40
    2    9    1      6.74     -8.10
    2    9    0     -2.71     -1.35
    3    9   16     -0.69     -0.78
    3    9   15      0.99      1.07
    3    9   14     -0.04     -1.83
    3    9   13      0.82     -0.35
    3    9   12     -0.33      0.58
    3    9   11     -0.78     -0.11
    3    9   10     -1.01      1.42
    3    9    9     -0.52      1.52
    3    9    8      2.23      0.75
    3    9    7     -2.20      0.88
    3    9    6     -0.24      1.06
    3    9    5      2.17     -1.09
    3    9    4      3.44     -1.47
    3    9    3      2.83      0.68
    3    9    2     -4.18     -0.66
    3    9    1      0.83     -2.60
    3    9    0      3.24      1.35
    4    9   15      0.18      0.13
    4    9   14     -0.63     -1.78
    4    9   13      0.22      0.88
    4    9   12      0.65     -0.24
    4    9   11     -0.60     -0.92
    4    9   10      1.09      0.38
    4    9    9      1.06      0.18
    4    9    8      0.29      0.66
    4    9    7     -0.61     -0.39
    4    9    6     -1.00     -2.74
    4    9    5     -1.32     -0.68
    4    9    4      0.42     -3.20
    4    9    3      1.52     -3.15
    4    9    2      2.24     -2.93
    4    9    1     -3.80      1.97
    4    9    0     -2.58      2.41
    5    9   15     -0.53      0.19
    5    9   14      0.15      1.17
    5    9   13     -0.42     -1.12
    5    9   12      0.17      0.55
    5    9   11      0.00     -1.33
    5    9   10     -0.50     -1.51
    5    9    9     -1.66     -0.16
    5    9    8     -1.58     -0.77
    5    9    7      3.35     -1.07
    5    9    6      0.84      1.68
    5    9    5     -0.34      0.56
    5    9    4     -0.94      1.31
    5    9    3     -1.77     -0.66
    5    9    2     -1.60      1.70
    5    9    1      1.36      2.50
    5    9    0      0.58     -1.68
    6    9   15      1.16      0.46
    6    9   14      0.48     -0.07
    6    9   13      1.06      0.73
    6    9   12     -0.14      0.04
    6    9   11     -0.23      1.19
    6    9   10     -0.67      0.12
    6    9    9     -1.19     -1.43
    6    9    8      0.77     -0.68
    6    9    7     -1.04      0.60
    6    9    6      0.36     -0.52
    6    9    5     -0.40      0.06
    6    9    4      1.60      4.12
    6    9    3     -1.48      3.20
    6    9    2      3.13      3.40
    6    9    1      3.97      0.34
    6    9    0      5.48     -1.98
    7    9   15      0.35     -1.82
    7    9   14     -0.16      0.06
    7    9   13      0.36     -0.11
    7    9   12      0.33     -1.85
    7    9   11     -0.53      1.09
    7    9   10      1.89     -0.62
    7    9    9      1.85     -0.45
    7    9    8      0.78      1.32
    7    9    7     -2.30     -0.66
    7    9    6      0.93     -1.94
    7    9    5      1.09      0.37
    7    9    4     -0.95     -0.21
    7    9    3      0.21     -1.40
    7    9    2      4.27     -0.72
    7    9    1     -1.83     -2.76
    7    9    0     -1.74      0.40
    8    9   14      0.81      2.31
    8    9   13      0.45     -1.56
    8    9   12     -0.15      0.24
    8    9   11      0.38      0.65
    8    9   10     -0.18      0.94
    8    9    9     -0.34      2.51
    8    9    8     -1.87     -1.83
    8    9    7      1.52      0.10
    8    9    6      1.83      2.04
    8    9    5      0.04     -0.24
    8    9    4     -0.18     -2.41
    8    9    3      1.42      0.68
    8    9    2     -2.22     -0.52
    8    9    1     -1.36     -0.51
    8    9    0     -3.52      0.62
    9    9    0      2.56      0.12
    9    9    1      0.56      1.43
    9    9    2     -2.94      0.15
    9    9    3      0.33      2.90
    9    9    4      2.16     -0.39
    9    9    5     -0.01     -0.93
    9    9    6     -0.32     -0.45
    9    9    7      0.04      2.51
    9    9    8     -0.38      0.29
    9    9    9      0.10     -0.36
    9    9   10     -1.65      0.74
    9    9   11     -0.02     -0.74
    9    9   12      0.01      0.43
    9    9   13      0.22      0.66
    9    9   14      0.16     -0.15
    0   10    0    -13.22     -0.63
    0   10    1     -0.87     -0.07
    0   10    2     -0.00    -11.80
    0   10    3     -2.28      2.29
    0   10    4     -3.01      1.16
    0   10    5     -1.71     -1.83
    0   10    6      0.47     -1.71
    0   10    7     -1.31      1.53
    0   10    8      1.30     -0.64
    0   10    9      0.45      0.63
    0   10   10      0.50     -0.44
    0   10   11     -0.45     -0.07
    0   10   12     -0.07     -0.10
    0   10   13      1.27      1.31
    0   10   14     -0.17     -1.70
    0   10   15      0.06     -0.13
    1   10   15     -0.25      1.40
    1   10   14     -0.63     -0.57
    1   10   13     -2.59     -0.66
    1   10   12     -1.13      0.21
    1   10   11     -0.94      0.29
    1   10   10      0.12      2.81
    1   10    9     -0.12     -2.83
    1   10    8      1.46      0.62
    1   10    7      2.10     -0.38
    1   10    6      0.91     -0.76
    1   10    5      1.55      1.06
    1   10    4      1.15     -4.21
    1   10    3     -1.87     -0.31
    1   10    2      3.08      1.30
    1   10    1     -0.57     -1.46
    1   10    0      3.36     -0.63
    2   10   15      0.21      1.29
    2   10   14     -1.85      0.49
    2   10   13      1.22     -0.48
    2   10   12      0.05     -0.90
    2   10   11     -0.55     -0.19
    2   10   10      1.65      0.48
    2   10    9      1.29     -1.41
    2   10    8     -0.40      1.13
    2   10    7      1.91     -1.58
    2   10    6      1.46      1.36
    2   10    5      1.94     -1.42
    2   10    4      0.71     -3.41
    2   10    3      2.47      0.47
    2   10    2      5.69      5.81
    2   10    1      4.55     -8.23
    2   10    0      9.48      0.89
    3   10   15     -0.34     -0.16
    3   10   14     -0.06      0.01
    3   10   13      1.53     -0.36
    3   10   12     -0.57      0.28
    3   10   11     -0.57      0.30
    3   10   10     -0.15     -2.02
    3   10    9     -0.88      1.88
    3   10    8     -1.06     -1.08
    3   10    7     -2.01      1.69
    3   10    6     -1.29      0.34
    3   10    5      1.03      0.10
    3   10    4      1.29      4.82
    3   10    3      1.18      0.53
    3   10    2     -5.70     -2.39
    3   10    1      2.79      1.78
    3   10    0      1.26     -0.13
    4   10   15      0.68     -1.33
    4   10   14     -0.16     -0.20
    4   10   13     -1.04     -1.18
    4   10   12     -0.46      0.68
    4   10   11      0.45     -0.04
    4   10   10     -0.88      0.54
    4   10    9     -0.60      0.84
    4   10    8     -0.47      0.97
    4   10    7     -2.10      0.76
    4   10    6     -1.96     -0.47
    4   10    5      0.98      1.31
    4   10    4      2.39      2.01
    4   10    3      2.37     -0.35
    4   10    2     -2.26     -0.17
    4   10    1     -1.13      6.58
    4   10    0     -6.26      0.43
    5   10   15     -0.98     -1.10
    5   10   14      0.15      1.34
    5   10   13      0.76     -1.11
    5   10   12      1.25     -0.82
    5   10   11      0.30      0.87
    5   10   10      0.80      0.75
    5   10    9     -0.10      1.58
    5   10    8      0.02      0.43
    5   10    7     -0.12     -2.54
    5   10    6      0.62      0.43
    5   10    5     -0.98      0.61
    5   10    4      0.34     -0.35
    5   10    3      2.32     -1.68
    5   10    2      2.55      1.90
    5   10    1     -2.05     -1.15
    5   10    0      2.69      0.71
    6   10   15     -0.84     -0.36
    6   10   14      0.75      1.42
    6   10   13     -0.71     -0.61
    6   10   12     -0.22      0.87
    6   10   11      0.38     -0.34
    6   10   10     -0.80     -0.89
    6   10    9     -1.54     -0.02
    6   10    8      0.43     -0.67
    6   10    7      2.05      1.10
    6   10    6      0.86      0.20
    6   10    5     -0.42      0.60
    6   10    4     -1.78     -0.52
    6   10    3     -4.68     -0.66
    6   10    2     -1.37      1.45
    6   10    1      1.42     -0.71
    6   10    0      3.61     -0.99
    7   10   14      2.04     -1.35
    7   10   13     -1.79      0.61
    7   10   12     -0.27     -0.16
    7   10   11      1.21      0.02
    7   10   10     -1.71     -1.27
    7   10    9      0.94     -1.77
    7   10    8     -0.28      1.05
    7   10    7     -0.15      1.42
    7   10    6      0.15      0.74
    7   10    5     -0.09     -1.40
    7   10    4      0.13      0.03
    7   10    3     -2.27      2.34
    7   10    2      1.09     -0.28
    7   10    1     -2.15      1.54
    7   10    0     -4.01      0.17
    8   10   14      1.44     -1.29
    8   10   13      0.71      0.63
    8   10   12      0.25     -1.15
    8   10   11     -0.84     -0.06
    8   10   10      0.54     -0.18
    8   10    9      0.51      0.72
    8   10    8      0.35     -0.45
    8   10    7     -1.81     -3.49
    8   10    6      0.99     -0.05
    8   10    5     -1.58     -0.10
    8   10    4      1.16      0.28
    8   10    3      2.42      0.25
    8   10    2      1.76     -2.14
    8   10    1     -0.68     -0.91
    8   10    0      1.03      0.56
    9   10   14     -1.37      0.71
    9   10   13      0.69      1.05
    9   10   12      0.09      0.29
    9   10   11      0.86     -2.71
    9   10   10      0.19      1.02
    9   10    9     -1.08     -1.30
    9   10    8      1.75     -1.80
    9   10    7      1.13     -0.09
    9   10    6     -0.55      0.45
    9   10    5     -0.42      2.39
    9   10    4     -2.02     -0.93
    9   10    3      1.47     -0.32
    9   10    2     -1.21      0.09
    9   10    1      2.44     -0.00
    9   10    0      0.41     -0.04
   10   10    0     -1.99     -0.24
   10   10    1     -0.34     -0.89
   10   10    2     -0.93      0.01
   10   10    3      0.44      2.40
   10   10    4     -0.74      0.93
   10   10    5      0.63      0.25
   10   10    6     -1.39     -0.11
   10   10    7      0.22      5.33
   10   10    8     -1.17     -0.43
   10   10    9     -0.16     -0.72
   10   10   10      0.95      0.30
   10   10   11      0.31     -0.38
   10   10   12      1.97      0.34
   10   10   13      0.23      1.30
    0   11    1     10.22     -9.92
    0   11    2     -5.38     -0.29
    0   11    3      1.59      2.85
    0   11    4      1.12     -0.78
    0   11    5      1.16     -1.99
    0   11    6     -0.29      0.45
    0   11    7      0.19      0.14
    0   11    8     -0.09     -1.45
    0   11    9      1.21     -0.60
    0   11   10     -0.87      0.02
    0   11   11     -1.09     -1.32
    0   11   12     -0.16     -0.89
    0   11   13      2.05     -1.83
    0   11   14     -0.82     -0.01
    0   11   15      1.45      1.60
    1   11   14     -0.48     -0.78
    1   11   13      0.40     -0.90
    1   11   12     -1.35     -2.27
    1   11   11     -1.40     -0.91
    1   11   10     -1.08     -0.36
    1   11    9     -1.07      0.39
    1   11    8      0.36      2.14
    1   11    7     -0.25     -0.48
    1   11    6      1.08      0.12
    1   11    5      3.57     -3.00
    1   11    4      2.00      2.11
    1   11    3      3.62      0.86
    1   11    2      0.11     -3.18
    1   11    1     -0.55     -0.45
    1   11    0      0.49     -0.03
    1   11   15      0.45      0.54
    2   11   14      0.37      0.32
    2   11   13      0.00      2.69
    2   11   12      1.53      0.71
    2   11   11     -1.00      1.57
    2   11   10      1.86      0.42
    2   11    9     -0.52      0.84
    2   11    8      0.85      1.46
    2   11    7     -0.75      0.33
    2   11    6      0.17     -2.76
    2   11    5     -2.09      1.68
    2   11    4      0.21     -0.38
    2   11    3      0.93     -6.08
    2   11    2      3.54      5.10
    2   11    1     -8.48      4.49
    2   11    0      3.87      0.58
    2   11   15     -1.24     -0.12
    3   11   15     -1.02     -0.81
    3   11   14      0.46      1.53
    3   11   13      0.29     -0.51
    3   11   12      2.59     -0.62
    3   11   11      1.31      0.51
    3   11   10      1.89      0.20
    3   11    9      1.39     -0.37
    3   11    8     -0.95     -1.05
    3   11    7      0.22      0.45
    3   11    6     -1.02     -0.78
    3   11    5     -1.40      1.43
    3   11    4     -2.19     -1.42
    3   11    3     -0.34      2.83
    3   11    2      0.59      4.39
    3   11    1     -0.35     -0.01
    3   11    0     -0.83      0.47
    4   11   15      2.63     -1.08
    4   11   14      0.05      0.66
    4   11   13     -0.21     -1.24
    4   11   12     -0.89     -0.48
    4   11   11      1.38      0.19
    4   11   10     -2.79      0.35
    4   11    9     -0.20     -0.53
    4   11    8     -0.09     -0.59
    4   11    7     -0.82     -0.00
    4   11    6      0.35      1.68
    4   11    5      0.55     -0.66
    4   11    4      0.11      1.31
    4   11    3      0.09      6.46
    4   11    2      0.51     -2.41
    4   11    1      4.04      0.44
    4   11    0     -0.13     -1.23
    5   11   15      1.18      0.17
    5   11   14     -0.39     -0.36
    5   11   13     -0.02      0.67
    5   11   12     -0.55      0.33
    5   11   11     -0.73     -0.06
    5   11   10     -2.35      0.06
    5   11    9     -0.84     -0.19
    5   11    8      1.29      0.43
    5   11    7     -0.39      0.65
    5   11    6     -0.95      0.65
    5   11    5     -0.51     -0.39
    5   11    4      1.30      0.76
    5   11    3     -0.09     -1.16
    5   11    2      2.31     -0.92
    5   11    1      1.52      0.19
    5   11    0      0.02     -1.11
    6   11   14     -1.06     -0.21
    6   11   13     -0.39     -0.76
    6   11   12     -0.00      0.81
    6   11   11     -0.64     -0.58
    6   11   10      1.52     -1.76
    6   11    9      0.45      0.82
    6   11    8     -0.43     -0.92
    6   11    7      1.44      0.39
    6   11    6      0.16      0.17
    6   11    5      1.84      1.04
    6   11    4     -1.12     -0.79
    6   11    3     -1.87     -2.25
    6   11    2     -2.03     -1.09
    6   11    1     -2.27     -0.02
    6   11    0     -3.61      1.06
    7   11   14      0.04     -0.04
    7   11   13     -0.53      1.12
    7   11   12     -1.49      1.59
    7   11   11      0.99     -0.20
    7   11   10      1.81      0.20
    7   11    9     -0.01      0.32
    7   11    8     -1.51     -1.26
    7   11    7      0.29     -0.51
    7   11    6      2.44      1.08
    7   11    5     -0.30      0.11
    7   11    4     -1.71      1.21
    7   11    3     -1.02      0.32
    7   11    2     -2.64      0.39
    7   11    1     -1.34      0.33
    7   11    0      1.24      1.13
    8   11   14      2.80     -0.42
    8   11   13      0.44      0.47
    8   11   12      0.84     -0.36
    8   11   11     -0.58     -2.10
    8   11   10     -0.47      1.80
    8   11    9     -0.19     -1.39
    8   11    8      0.70      1.17
    8   11    7     -0.28      0.18
    8   11    6     -1.61     -2.12
    8   11    5     -0.80     -0.63
    8   11    4     -0.27      0.91
    8   11    3      1.43     -0.60
    8   11    2     -0.26      1.59
    8   11    1      1.22     -2.21
    8   11    0      1.66     -0.75
    9   11   14      0.67     -0.41
    9   11   13      0.32      0.32
    9   11   12      0.53     -1.22
    9   11   11     -0.81      0.53
    9   11   10      0.36      0.26
    9   11    9      0.95      0.27
    9   11    8     -0.35      1.02
    9   11    7     -0.77     -0.76
    9   11    6     -2.06     -1.36
    9   11    5      0.76      2.01
    9   11    4     -0.35     -1.32
    9   11    3     -1.06     -1.24
    9   11    2      0.48     -1.65
    9   11    1      0.67      1.46
    9   11    0     -0.56     -0.09
   10   11   13     -1.96      0.38
   10   11   12      0.39     -1.20
   10   11   11      2.82      3.59
   10   11   10      1.62     -1.71
   10   11    9     -0.56      1.45
   10   11    8     -1.65     -0.41
   10   11    7      0.22     -0.61
   10   11    6      0.98      2.27
   10   11    5     -0.76     -0.89
   10   11    4      0.87     -0.69
   10   11    3     -0.30      0.03
   10   11    2      0.69     -0.05
   10   11    1      0.73      1.72
   10   11    0      1.92      0.37
   11   11    0     -0.98      0.04
   11   11    1     -0.81     -2.87
   11   11    2      0.02      0.26
   11   11    3      0.10      1.26
   11   11    4      1.45      0.17
   11   11    5     -0.17     -3.50
   11   11    6      0.25     -0.48
   11   11    7      0.24     -0.61
   11   11    8      1.73      0.04
   11   11    9     -0.30     -0.58
   11   11   10     -1.79      0.01
   11   11   11     -0.27     -0.24
   11   11   12      1.19     -0.16
   11   11   13     -0.10     -3.05
    0   12    0      3.10      0.29
    0   12    1     -4.51     -3.85
    0   12    2     -0.13      9.30
    0   12    3      5.06     -4.57
    0   12    4      2.63     -0.11
    0   12    5     -1.18     -0.93
    0   12    6     -0.78     -0.46
    0   12    7     -0.36     -0.27
    0   12    8     -0.91      0.20
    0   12    9     -0.18      0.23
    0   12   10      0.11     -0.39
    0   12   11      0.16     -0.10
    0   12   12     -1.13     -0.04
    0   12   13     -0.89     -0.44
    0   12   14     -0.07     -0.09
    0   12   15      0.22     -0.22
    1   12   15      0.70     -1.14
    1   12   14     -0.67      1.72
    1   12   13      1.66     -0.51
    1   12   12      1.32     -0.20
    1   12   11      1.68     -0.33
    1   12   10     -0.46     -1.30
    1   12    9      0.59      2.83
    1   12    8     -1.34      1.27
    1   12    7     -1.05      0.94
    1   12    6     -0.60      2.35
    1   12    5      2.63      1.31
    1   12    4     -4.93      0.09
    1   12    3      2.16      0.22
    1   12    2     -2.12      4.28
    1   12    1      0.59     -1.47
    1   12    0     -4.78      2.01
    2   12   14      1.21     -0.40
    2   12   13      0.25     -0.44
    2   12   12      0.10      0.09
    2   12   11     -0.15      0.85
    2   12   10     -0.73      0.27
    2   12    9     -1.01      0.49
    2   12    8     -0.76     -0.69
    2   12    7     -1.31      0.79
    2   12    6     -0.15      0.44
    2   12    5     -0.61      2.20
    2   12    4     -1.21      1.28
    2   12    3     -0.94      2.25
    2   12    2      2.67     -5.41
    2   12    1     -0.97      8.47
    2   12    0     -2.08     -0.55
    2   12   15      0.30     -0.35
    3   12   14      1.18      0.46
    3   12   13     -1.46      1.01
    3   12   12     -0.95      0.13
    3   12   11      0.10      0.38
    3   12   10      0.17      1.40
    3   12    9     -0.07     -1.15
    3   12    8      0.18     -1.14
    3   12    7      1.74     -1.78
    3   12    6      0.52     -1.16
    3   12    5     -3.33      1.67
    3   12    4      1.38     -0.11
    3   12    3     -0.85     -2.00
    3   12    2      5.67      0.22
    3   12    1     -3.26      1.84
    3   12    0     -0.20     -1.62
    4   12   14      0.53      2.13
    4   12   13      0.20      0.17
    4   12   12     -0.01      0.08
    4   12   11      0.27     -0.59
    4   12   10     -0.35     -0.37
    4   12    9     -0.32     -0.02
    4   12    8      2.14     -1.13
    4   12    7      0.54     -1.69
    4   12    6     -0.69      0.09
    4   12    5      1.57     -0.39
    4   12    4     -1.13      0.25
    4   12    3     -1.92      0.29
    4   12    2      0.36     -0.61
    4   12    1      0.79     -3.91
    4   12    0      2.96     -0.34
    5   12   14      0.17     -1.60
    5   12   13     -1.15      0.11
    5   12   12     -1.32     -0.51
    5   12   11     -0.54     -3.28
    5   12   10     -0.68     -0.68
    5   12    9     -0.13     -3.02
    5   12    8     -0.98     -0.21
    5   12    7     -1.37      1.36
    5   12    6      0.36      0.55
    5   12    5      3.17     -3.14
    5   12    4     -0.72      0.50
    5   12    3     -2.03      1.63
    5   12    2     -2.98     -2.54
    5   12    1      3.77      0.57
    5   12    0      1.10      0.16
    6   12   14     -0.86     -3.22
    6   12   13      0.55      0.75
    6   12   12      0.08     -0.63
    6   12   11     -0.84     -0.64
    6   12   10      0.37      0.79
    6   12    9      0.73     -0.42
    6   12    8     -0.45     -0.13
    6   12    7      0.23     -0.31
    6   12    6      0.76     -0.72
    6   12    5     -2.18     -1.67
    6   12    4      0.66      0.24
    6   12    3      0.77      1.92
    6   12    2     -2.56      2.10
    6   12    1      0.05     -2.55
    6   12    0     -3.09      0.99
    7   12   14     -1.50     -0.26
    7   12   13      1.92     -0.56
    7   12   12      1.86      1.18
    7   12   11     -0.46      1.52
    7   12   10      1.05     -0.47
    7   12    9      0.11      2.76
    7   12    8      1.62     -0.05
    7   12    7     -0.59      0.07
    7   12    6     -0.41     -1.68
    7   12    5     -1.87      1.34
    7   12    4      1.10     -0.04
    7   12    3      1.48      0.81
    7   12    2     -1.90      0.87
    7   12    1      0.10     -1.11
    7   12    0     -0.54     -0.19
    8   12   13     -1.02     -0.35
    8   12   12      1.52      0.24
    8   12   11      0.81     -0.68
    8   12   10      0.88     -0.83
    8   12    9      1.48      0.84
    8   12    8     -1.39      1.40
    8   12    7      1.07      2.58
    8   12    6     -0.20      0.18
    8   12    5      1.34      1.24
    8   12    4      0.02     -1.10
    8   12    3     -0.73     -1.66
    8   12    2      1.51      1.23
    8   12    1     -0.36      3.21
    8   12    0     -0.51     -0.42
    8   12   14     -0.47      2.45
    9   12   13      0.76     -0.21
    9   12   12      0.91      0.28
    9   12   11     -0.94      1.06
    9   12   10      1.16      0.63
    9   12    9      0.88      0.02
    9   12    8     -1.37     -0.44
    9   12    7      0.32     -0.15
    9   12    6     -0.23      1.54
    9   12    5     -0.00     -0.37
    9   12    4     -0.49     -0.85
    9   12    3     -0.79     -1.03
    9   12    2      1.24      0.70
    9   12    1     -2.79     -0.61
    9   12    0      1.32      0.40
   10   12   13      0.49     -0.71
   10   12   12     -0.19      0.25
   10   12   11      0.23      1.91
   10   12   10     -0.53     -0.03
   10   12    9     -1.58     -0.73
   10   12    8      0.15      0.02
   10   12    7     -0.85     -2.23
   10   12    6     -1.57      0.05
   10   12    5     -0.44     -0.72
   10   12    4     -0.43     -0.35
   10   12    3      0.03     -1.93
   10   12    2     -0.53     -2.98
   10   12    1      0.46      1.75
   10   12    0      2.19     -0.09
   11   12   12     -1.98     -2.20
   11   12   11      3.03      1.39
   11   12   10     -1.71     -1.24
   11   12    9     -0.75     -1.09
   11   12    8      0.96      0.79
   11   12    7      0.25     -0.56
   11   12    6     -0.54     -0.21
   11   12    5      0.68     -0.00
   11   12    4     -0.45     -0.06
   11   12    3      0.43     -0.89
   11   12    2      0.03      0.59
   11   12    1      1.65     -0.05
   11   12    0     -0.84     -0.68
   12   12    0     -1.23     -0.35
   12   12    1      0.31     -4.05
   12   12    2     -1.86      0.02
   12   12    3      0.14      1.40
   12   12    4      0.66      0.31
   12   12    5     -0.05      0.07
   12   12    6      3.38     -0.76
   12   12    7      0.35     -0.15
   12   12    8      1.17     -0.55
   12   12    9     -0.24     -0.27
   12   12   10     -0.84      0.17
   12   12   11     -0.26      0.79
   12   12   12     -3.74     -0.43
    0   13    1      1.56     -0.43
    0   13    2      0.49     -0.35
    0   13    3     -4.09     -2.11
    0   13    4     -0.64      0.97
    0   13    5     -1.21      1.29
    0   13    6      0.35     -0.08
    0   13    7     -0.28     -0.36
    0   13    8     -0.01      0.70
    0   13    9     -0.43     -0.35
    0   13   10     -0.41     -0.60
    0   13   11      0.86      0.48
    0   13   12     -0.38      2.52
    0   13   13     -1.56      1.70
    0   13   14     -0.48     -0.03
    1   13   14     -0.85     -0.24
    1   13   13      1.48     -1.24
    1   13   12      0.68      1.55
    1   13   11     -0.23     -0.60
    1   13   10      0.52      0.80
    1   13    9      1.13     -0.01
    1   13    8      1.07     -0.26
    1   13    7     -0.10     -0.06
    1   13    6     -0.23      0.63
    1   13    5     -2.83      3.04
    1   13    4     -0.17     -2.73
    1   13    3     -0.01     -0.48
    1   13    2     -3.52      2.02
    1   13    1     -0.07      0.04
    1   13    0     -0.19      0.25
    2   13   14      0.28     -1.57
    2   13   13      0.87     -1.95
    2   13   12     -0.87     -1.97
    2   13   11      0.19     -0.89
    2   13   10     -1.59     -1.05
    2   13    9      0.10     -0.08
    2   13    8      0.55     -0.34
    2   13    7      0.17      0.92
    2   13    6     -0.28     -1.40
    2   13    5      1.48     -0.41
    2   13    4      1.04     -1.49
    2   13    3     -0.28      3.61
    2   13    2      0.12     -1.90
    2   13    1     -0.98     -0.64
    2   13    0     -0.26     -0.08
    3   13   14      0.05     -0.35
    3   13   13     -0.44      0.70
    3   13   12     -1.27      0.24
    3   13   11     -1.23     -0.38
    3   13   10     -1.47     -1.15
    3   13    9     -2.74     -0.67
    3   13    8     -1.33     -0.47
    3   13    7      0.29     -0.41
    3   13    6      1.05     -0.17
    3   13    5      1.02     -1.21
    3   13    4     -0.93      3.27
    3   13    3     -1.51     -1.15
    3   13    2      2.30     -2.64
    3   13    1      0.54      0.92
    3   13    0      1.23     -0.37
    4   13   14     -0.11      2.02
    4   13   13      0.37      0.72
    4   13   12      1.67      0.66
    4   13   11     -0.59     -0.33
    4   13   10      3.58      0.21
    4   13    9      0.08      0.25
    4   13    8     -1.40     -0.47
    4   13    7     -0.97     -0.03
    4   13    6     -0.02      2.12
    4   13    5     -1.52     -0.34
    4   13    4     -0.69      1.77
    4   13    3      2.36     -1.33
    4   13    2     -1.57      2.56
    4   13    1     -0.04      0.78
    4   13    0      1.12      0.00
    5   13   13     -1.04      0.54
    5   13   12     -0.23     -0.36
    5   13   11      0.93      0.35
    5   13   10      2.10      0.03
    5   13    9      3.13      0.80
    5   13    8     -0.14      0.81
    5   13    7     -1.04      0.64
    5   13    6     -0.79     -1.37
    5   13    5     -0.06      0.20
    5   13    4      0.75     -1.52
    5   13    3     -0.31      0.62
    5   13    2     -1.25      0.13
    5   13    1     -2.33     -0.94
    5   13    0     -0.99      0.73
    5   13   14      0.72      0.53
    6   13   13      0.04      0.45
    6   13   12     -1.20     -0.09
    6   13   11      0.84      0.51
    6   13   10     -1.27      0.86
    6   13    9      0.42      0.17
    6   13    8      0.89      0.80
    6   13    7      0.22     -1.23
    6   13    6     -0.66     -1.38
    6   13    5      0.23     -0.87
    6   13    4     -0.55     -1.37
    6   13    3     -0.80     -1.89
    6   13    2      1.21     -0.99
    6   13    1      0.36      0.07
    6   13    0     -2.17      0.22
    6   13   14      1.94     -0.17
    7   13   13      1.66     -1.58
    7   13   12      1.08     -0.47
    7   13   11      0.87     -0.33
    7   13   10     -1.36      1.03
    7   13    9     -1.77     -0.17
    7   13    8      0.02      0.26
    7   13    7      1.21     -0.10
    7   13    6     -1.21     -0.35
    7   13    5     -0.32     -0.63
    7   13    4      0.76     -1.52
    7   13    3      1.57      1.21
    7   13    2     -0.95     -0.83
    7   13    1      2.35      0.40
    7   13    0      0.40     -0.51
    8   13   13     -2.28      1.03
    8   13   12      0.67     -0.27
    8   13   11      0.04      1.09
    8   13   10     -0.70     -1.51
    8   13    9     -0.74     -0.81
    8   13    8      1.17     -0.71
    8   13    7     -0.37      0.15
    8   13    6      1.18      0.28
    8   13    5      0.18      1.82
    8   13    4      0.63     -0.27
    8   13    3     -1.20      2.44
    8   13    2     -0.03     -1.22
    8   13    1     -0.90      0.68
    8   13    0      3.52     -0.01
    9   13   13     -1.00     -0.84
    9   13   12      0.32      0.88
    9   13   11     -1.07      0.68
    9   13   10      0.35     -1.10
    9   13    9     -0.42     -0.94
    9   13    8     -0.03     -1.24
    9   13    7     -0.12     -0.94
    9   13    6      2.58      1.63
    9   13    5     -0.05     -0.71
    9   13    4     -1.20      1.66
    9   13    3      1.58     -1.90
    9   13    2      1.15      2.80
    9   13    1     -0.60     -0.69
    9   13    0     -0.96      0.06
   10   13   12     -1.00      1.53
   10   13   11     -2.31     -0.34
   10   13   10      0.35      2.98
   10   13    9     -0.10      1.00
   10   13    8     -1.36      0.38
   10   13    7      3.27      0.71
   10   13    6     -1.13     -1.02
   10   13    5      0.80     -1.11
   10   13    4     -0.12      0.76
   10   13    3      1.11     -1.39
   10   13    2      0.79      0.08
   10   13    1      0.63     -1.72
   10   13    0     -3.76      0.71
   11   13   12     -1.54     -0.75
   11   13   11     -0.27     -0.45
   11   13   10      0.19      0.34
   11   13    9      1.20      0.85
   11   13    8      0.95      0.23
   11   13    7     -0.57      1.30
   11   13    6     -0.42     -0.15
   11   13    5      0.88      1.88
   11   13    4      0.21     -0.70
   11   13    3     -2.39      0.32
   11   13    2     -0.35     -1.74
   11   13    1     -0.29      1.90
   11   13    0      0.18      0.22
   12   13   11      2.57     -2.70
   12   13   10     -0.69     -3.14
   12   13    9      0.88     -0.00
   12   13    8     -0.31      0.08
   12   13    7     -2.98     -0.46
   12   13    6      1.33      0.91
   12   13    5      0.07     -0.05
   12   13    4      0.90     -0.07
   12   13    3     -0.19      0.43
   12   13    2     -1.25      2.28
   12   13    1      0.66      1.32
   12   13    0      0.33     -1.21
   13   13    0      0.08     -1.13
   13   13    1     -1.47     -2.07
   13   13    2      0.76     -0.18
   13   13    3     -0.38     -0.13
   13   13    4      0.15      0.30
   13   13    5      0.17     -0.92
   13   13    6     -1.36     -0.18
   13   13    7     -0.61     -0.64
   13   13    8      0.20      0.05
   13   13    9     -0.02      0.48
   13   13   10      0.36     -0.04
   13   13   11     -0.04      0.37
    0   14    1     -0.05     -1.26
    0   14    2     -0.27      0.36
    0   14    3     -2.76      2.57
    0   14    4     -0.33     -1.01
    0   14    5     -0.11      0.57
    0   14    6      0.07      0.13
    0   14    7      0.57     -0.24
    0   14    8      0.17      0.03
    0   14    9     -0.77     -0.92
    0   14   10     -0.41      0.83
    0   14   11     -0.81      0.85
    0   14   12      0.02     -0.07
    0   14   13     -0.02      0.17
    0   14   14     -0.11      1.91
    1   14   14      0.98     -1.44
    1   14   13      1.31      0.55
    1   14   12     -0.37     -0.08
    1   14   11     -2.43      0.67
    1   14   10      0.20      0.07
    1   14    9     -0.49     -1.95
    1   14    8      1.57     -1.46
    1   14    7     -0.72     -1.12
    1   14    6     -0.21     -0.68
    1   14    5     -3.53     -2.92
    1   14    4      3.63      0.85
    1   14    3     -0.55     -0.02
    1   14    2      1.07     -1.97
    1   14    1      2.36     -0.33
    1   14    0      8.25     -2.95
    2   14   14     -0.64     -0.85
    2   14   13     -0.61      1.41
    2   14   12      1.11      1.88
    2   14   11      0.97     -1.48
    2   14   10     -0.30     -0.72
    2   14    9     -0.37      1.28
    2   14    8      0.29      1.23
    2   14    7     -0.06      0.12
    2   14    6      0.47     -0.26
    2   14    5      0.82     -1.33
    2   14    4      0.10     -0.09
    2   14    3      0.45     -1.37
    2   14    2     -0.83      0.29
    2   14    1     -4.15      4.24
    2   14    0     -7.18     -0.06
    3   14   14     -1.01      0.64
    3   14   13     -0.33      0.36
    3   14   12      0.87     -0.33
    3   14   11      0.91     -0.23
    3   14   10     -0.40     -0.41
    3   14    9      0.36      1.40
    3   14    8      0.43      1.75
    3   14    7      0.60      0.91
    3   14    6     -0.64     -0.08
    3   14    5      3.52      0.23
    3   14    4     -1.44     -1.62
    3   14    3      0.16      1.89
    3   14    2     -1.91      0.48
    3   14    1     -0.84      1.84
    3   14    0     -0.70      2.08
    4   14   13     -0.75     -1.18
    4   14   12     -0.76     -0.93
    4   14   11     -0.41      0.68
    4   14   10      1.00     -0.13
    4   14    9      1.38     -1.44
    4   14    8     -1.65     -1.33
    4   14    7      0.24      0.18
    4   14    6      0.63     -0.05
    4   14    5     -0.28      0.52
    4   14    4     -0.07      0.34
    4   14    3      0.55     -0.35
    4   14    2     -3.23      0.08
    4   14    1      4.27     -2.25
    4   14    0     -2.19      0.43
    5   14   13      0.45     -0.26
    5   14   12      1.96      0.65
    5   14   11      0.90      1.39
    5   14   10      0.70     -0.34
    5   14    9     -0.62      0.87
    5   14    8      0.13     -0.14
    5   14    7      0.85      0.49
    5   14    6      1.29     -0.02
    5   14    5     -3.94      1.71
    5   14    4     -0.32      1.07
    5   14    3      0.94     -1.47
    5   14    2      0.60      1.28
    5   14    1     -1.45     -0.37
    5   14    0     -4.07     -0.14
    6   14   13      0.75     -0.13
    6   14   12     -0.30     -0.83
    6   14   11     -0.01      0.32
    6   14   10     -0.16     -0.40
    6   14    9     -0.20      0.24
    6   14    8      1.58      0.79
    6   14    7     -1.03     -0.18
    6   14    6     -0.90      0.15
    6   14    5     -0.31      0.50
    6   14    4     -0.29     -1.09
    6   14    3      0.79     -1.37
    6   14    2      4.17     -1.46
    6   14    1     -1.88      0.29
    6   14    0      1.54     -0.25
    7   14   13     -0.40      0.40
    7   14   12     -2.23      0.09
    7   14   11     -0.48     -0.98
    7   14   10      0.10      1.24
    7   14    9      0.55     -1.42
    7   14    8     -1.42     -1.06
    7   14    7      0.47     -1.51
    7   14    6     -0.14      0.43
    7   14    5      3.10     -0.31
    7   14    4     -0.56     -0.33
    7   14    3     -1.44     -1.39
    7   14    2      1.24     -0.27
    7   14    1      1.25     -1.56
    7   14    0      3.13     -0.80
    8   14   12      1.29      1.61
    8   14   11      0.96      1.54
    8   14   10     -0.05      0.96
    8   14    9     -0.81     -0.40
    8   14    8     -0.33     -0.75
    8   14    7      1.38      1.09
    8   14    6     -0.46     -0.22
    8   14    5      0.68     -1.00
    8   14    4      1.30      1.47
    8   14    3     -0.45      1.16
    8   14    2     -1.03      0.82
    8   14    1     -0.31     -1.25
    8   14    0      1.69     -0.69
    9   14   11     -0.24      2.18
    9   14   10     -0.93     -0.50
    9   14    9     -0.10      0.33
    9   14    8      1.54      2.08
    9   14    7     -0.95      0.65
    9   14    6     -1.20     -1.28
    9   14    5     -0.64     -1.61
    9   14    4      1.12      0.60
    9   14    3      0.19      1.20
    9   14    2     -1.11     -1.34
    9   14    1     -0.15      1.44
    9   14    0     -1.26      0.48
    9   14   12     -0.74     -1.72
   10   14   11     -1.38     -0.47
   10   14   10     -0.65      0.66
   10   14    9      0.86      1.15
   10   14    8      0.84     -0.34
   10   14    7     -1.11     -2.25
   10   14    6      2.27      1.05
   10   14    5      0.19      1.01
   10   14    4     -1.44     -0.01
   10   14    3      0.55      0.63
   10   14    2     -0.90      0.83
   10   14    1      0.29      1.26
   10   14    0     -0.88      0.99
   10   14   12     -4.09     -0.86
   11   14   11     -0.08     -4.49
   11   14   10     -0.34     -0.33
   11   14    9      0.08      0.77
   11   14    8     -0.99     -0.91
   11   14    7     -0.08      0.58
   11   14    6      1.56      1.45
   11   14    5     -1.13      1.36
   11   14    4      0.28     -0.40
   11   14    3      0.32      0.48
   11   14    2      0.58     -0.30
   11   14    1     -0.48      0.07
   11   14    0     -0.72      0.49
   12   14   11      0.54     -3.45
   12   14   10      0.52     -1.12
   12   14    9     -0.47      0.80
   12   14    8     -1.00      1.91
   12   14    7      0.46      0.52
   12   14    6     -3.14     -0.16
   12   14    5     -0.87      0.11
   12   14    4      0.26     -1.14
   12   14    3     -1.69     -0.12
   12   14    2      3.55     -1.10
   12   14    1      0.72     -0.03
   12   14    0     -1.30     -0.02
   13   14   10      1.07     -0.28
   13   14    9      0.03     -0.72
   13   14    8      1.09     -0.71
   13   14    7      0.30      0.85
   13   14    6     -0.26     -0.73
   13   14    5      1.24     -0.76
   13   14    4     -0.88     -0.08
   13   14    3     -0.06      0.44
   13   14    2     -0.81      1.73
   13   14    1      1.09     -1.60
   13   14    0      1.10     -0.00
   14   14    0      1.96     -0.45
   14   14    1      0.07     -0.03
   14   14    2     -4.45      0.33
   14   14    3      0.16     -1.05
   14   14    4      0.94      0.37
   14   14    5     -0.17     -1.28
   14   14    6      1.75     -1.19
   14   14    7      0.29      2.45
   14   14    8      0.40     -0.47
   14   14    9      0.24     -2.43
    0   15    1     -6.11      6.21
    0   15    2      5.99     -0.39
    0   15    3     -0.62     -0.58
    0   15    4     -0.39      0.51
    0   15    5      1.43     -1.90
    0   15    6      1.20     -0.27
    0   15    7      0.48      0.65
    0   15    8      0.19      0.33
    0   15    9      0.29     -0.40
    0   15   10      0.44      0.10
    0   15   11      0.73      1.19
    0   15   12      0.03     -1.59
    0   15   13      1.54     -1.45
    1   15   13     -0.80      0.55
    1   15   12      0.49     -0.13
    1   15   11      1.47      0.21
    1   15   10     -0.12     -0.92
    1   15    9     -0.91      0.28
    1   15    8     -1.00      0.61
    1   15    7      0.10      0.83
    1   15    6      0.24     -0.89
    1   15    5     -0.02     -0.88
    1   15    4     -0.63      1.38
    1   15    3     -0.48     -0.45
    1   15    2      2.40     -0.44
    1   15    1      0.70     -0.08
    1   15    0      1.32     -0.29
    2   15   13     -1.07      1.11
    2   15   12      0.06      1.13
    2   15   11      0.04     -0.63
    2   15   10      0.83      0.69
    2   15    9      0.45      0.34
    2   15    8     -0.80     -0.42
    2   15    7     -1.25     -1.72
    2   15    6     -0.89      3.05
    2   15    5      0.16      0.97
    2   15    4     -0.16     -0.71
    2   15    3      0.71      2.13
    2   15    2     -3.67     -3.46
    2   15    1      6.25      0.33
    2   15    0     -2.09     -0.39
    3   15   13      0.36      0.57
    3   15   12     -1.31      1.00
    3   15   11      0.27      1.06
    3   15   10      0.92      1.06
    3   15    9      1.73      0.27
    3   15    8      1.60      0.58
    3   15    7      0.25     -0.27
    3   15    6      0.42      0.34
    3   15    5      1.94     -0.98
    3   15    4      0.25      0.50
    3   15    3      0.49      1.42
    3   15    2     -1.76      0.32
    3   15    1     -1.23     -0.48
    3   15    0     -2.69     -0.47
    4   15   13     -0.48     -0.79
    4   15   12     -0.24     -0.33
    4   15   11     -0.51      0.55
    4   15   10     -1.40      0.75
    4   15    9     -0.40      0.15
    4   15    8      1.26     -1.13
    4   15    7      2.81      0.88
    4   15    6     -0.88     -5.48
    4   15    5     -0.47      0.07
    4   15    4      0.76      0.57
    4   15    3     -1.00     -3.18
    4   15    2     -0.70      1.24
    4   15    1     -1.82     -2.59
    4   15    0     -1.10      0.67
    5   15   13      0.51     -1.10
    5   15   12      1.58     -0.43
    5   15   11     -1.14     -0.60
    5   15   10     -0.21     -0.16
    5   15    9     -1.03     -0.95
    5   15    8     -0.99     -1.88
    5   15    7      0.30     -1.01
    5   15    6     -0.10      1.32
    5   15    5     -0.53      0.48
    5   15    4     -0.00     -1.94
    5   15    3     -0.16     -1.19
    5   15    2     -0.96      2.02
    5   15    1      1.54      1.36
    5   15    0      0.81      0.03
    6   15   12      0.03     -0.35
    6   15   11     -0.39     -0.60
    6   15   10      0.01     -0.75
    6   15    9     -0.07      0.36
    6   15    8     -0.83      2.09
    6   15    7     -0.77      0.20
    6   15    6      2.10      3.55
    6   15    5     -0.17     -0.52
    6   15    4      0.12     -0.26
    6   15    3      0.13      2.26
    6   15    2      1.56      0.69
    6   15    1     -2.03     -1.99
    6   15    0      3.42     -0.17
    7   15   12     -0.04      0.21
    7   15   11     -0.46      1.05
    7   15   10     -1.16     -0.13
    7   15    9      0.16      0.48
    7   15    8      1.31      0.56
    7   15    7     -1.10     -0.05
    7   15    6      0.58     -0.43
    7   15    5     -0.88      1.59
    7   15    4      1.40      1.92
    7   15    3     -0.53     -1.61
    7   15    2      2.00     -2.76
    7   15    1     -0.47     -0.54
    7   15    0      0.72      0.33
    8   15   12     -0.01      0.16
    8   15   11      0.11      0.13
    8   15   10      0.62     -0.02
    8   15    9      0.80     -0.10
    8   15    8     -0.87     -0.48
    8   15    7      1.38      0.27
    8   15    6     -0.33      0.87
    8   15    5      0.35     -0.00
    8   15    4      0.09      0.26
    8   15    3      0.49     -1.12
    8   15    2      0.37     -0.14
    8   15    1      3.98      2.48
    8   15    0     -2.37      0.41
    9   15   12     -1.75     -1.18
    9   15   11      0.87     -1.08
    9   15   10      0.72     -0.10
    9   15    9      0.13      0.60
    9   15    8      0.65      1.22
    9   15    7      1.78      1.16
    9   15    6     -1.68     -0.81
    9   15    5      0.90     -0.66
    9   15    4     -0.59     -1.68
    9   15    3      0.00      2.93
    9   15    2     -1.05     -0.07
    9   15    1     -0.97     -0.80
    9   15    0     -0.20      0.06
   10   15   11      1.58     -0.27
   10   15   10     -1.29     -1.14
   10   15    9      0.08     -1.36
   10   15    8      1.58     -0.24
   10   15    7     -5.12     -0.74
   10   15    5     -0.83      1.32
   10   15    4     -0.66      0.07
   10   15    3      0.20      0.80
   10   15    2     -1.45      1.09
   10   15    1     -2.65      0.63
   10   15    0      1.15     -3.58
   10   15    6     -0.77     -0.37
   11   15   11      0.75      0.49
   11   15   10      0.75      0.22
   11   15    9     -0.57     -0.21
   11   15    8     -0.99     -0.05
   11   15    7     -0.73      0.23
   11   15    6      0.44     -0.09
   11   15    5     -1.00     -1.10
   11   15    4     -1.19      1.28
   11   15    3      1.39     -1.27
   11   15    2      1.59      0.92
   11   15    1      1.19     -0.45
   11   15    0     -0.30     -0.77
   12   15   10      1.84      2.20
   12   15    9     -1.49      1.43
   12   15    8      0.16      0.16
   12   15    7      3.43      0.83
   12   15    6      0.44     -1.64
   12   15    5      0.30     -0.85
   12   15    4     -0.43     -0.76
   12   15    3      0.27     -0.21
   12   15    2      0.73     -2.33
   12   15    1     -0.14     -0.66
   12   15    0     -0.15      5.83
   13   15    9      0.63     -0.26
   13   15    8     -3.25     -0.80
   13   15    7      0.64     -0.30
   13   15    6      1.77      1.10
   13   15    5      0.54      0.13
   13   15    4      1.16     -0.96
   13   15    3     -0.82      0.38
   13   15    2     -1.46      0.66
   13   15    1      1.34      0.66
   13   15    0      0.30      1.04
   14   15    8     -0.96     -0.70
   14   15    7      0.91     -1.35
   14   15    6     -0.67     -0.75
   14   15    5      0.65     -0.55
   14   15    4      1.01      0.68
   14   15    3     -1.24     -0.29
   14   15    2      0.79      1.04
   14   15    1      1.16     -0.34
   14   15    0     -0.19     -3.20
   14   15    9      0.65      0.37
   15   15    0      2.05     -0.20
   15   15    1     -2.80      1.06
   15   15    2     -0.87      0.85
   15   15    3     -0.41     -0.19
   15   15    4     -0.04      0.53
   15   15    5      0.26      1.83
   15   15    6     -1.24      0.22
   15   15    7     -2.12     -0.41
    0   16    1      3.03      3.43
    0   16    2     -0.98     -5.33
    0   16    3     -0.54      0.65
    0   16    4      1.84      0.61
    0   16    5      1.00      0.64
    0   16    6      0.41     -0.98
    0   16    7      0.24     -0.34
    0   16    8      1.68     -0.23
    0   16    9      0.58      0.49
    0   16   10     -0.18     -0.83
    0   16   11      1.52     -1.69
    0   16   12      0.58     -0.22
    0   16   13     -1.37     -1.50
    1   16   13     -2.31     -0.58
    1   16   12      1.05      0.30
    1   16   11      1.33     -1.04
    1   16   10      0.36     -0.12
    1   16    9      0.28      0.74
    1   16    8     -1.70      0.67
    1   16    7      1.29      0.33
    1   16    6      0.67      0.05
    1   16    5      1.01      1.04
    1   16    4     -0.61     -0.97
    1   16    3      0.09      0.56
    1   16    2      1.35     -1.62
    1   16    1     -0.04      2.14
    1   16    0     -4.77     -0.59
    2   16   12     -1.63     -2.35
    2   16   11     -2.05      0.93
    2   16   10     -0.67      0.07
    2   16    9      0.87     -1.25
    2   16    8     -0.80     -1.71
    2   16    7      0.89      0.20
    2   16    6     -1.16      0.38
    2   16    5     -1.11      0.12
    2   16    4     -0.70      0.09
    2   16    3      2.04      1.21
    2   16    2     -2.56      2.07
    2   16    1      3.74     -8.25
    2   16    0      6.16      0.36
    3   16   12     -0.08      0.43
    3   16   11     -0.43      0.39
    3   16   10      0.33     -0.13
    3   16    9     -0.40     -0.23
    3   16    8      0.16     -1.50
    3   16    7     -1.83     -0.30
    3   16    6     -0.43      0.45
    3   16    5     -0.39     -0.74
    3   16    4      0.24      1.85
    3   16    3     -1.03     -1.64
    3   16    2     -2.71      1.15
    3   16    1      1.34     -2.79
    3   16    0      0.73     -0.21
    4   16   12      2.29      0.73
    4   16   11      1.59      0.41
    4   16   10     -0.64      0.74
    4   16    9     -0.76      0.95
    4   16    8      0.29      1.85
    4   16    7     -0.37      0.39
    4   16    6      0.87      0.04
    4   16    5     -1.06     -0.92
    4   16    4     -1.21     -1.35
    4   16    3     -0.46     -0.99
    4   16    2      4.95      1.70
    4   16    1     -4.03      3.94
    4   16    0      0.20      0.06
    5   16   12     -1.95     -1.14
    5   16   11     -1.34      1.13
    5   16   10     -0.92      0.42
    5   16    9      1.44     -0.68
    5   16    8      0.42      0.96
    5   16    7      0.42     -1.08
    5   16    6     -0.50      0.05
    5   16    5      0.41     -0.00
    5   16    4      0.58     -1.68
    5   16    3      1.29      1.22
    5   16    2      1.11     -0.98
    5   16    1     -1.83      0.70
    5   16    0      2.60      0.47
    6   16   12     -0.52      1.71
    6   16   11      0.39     -0.35
    6   16   10      1.30     -0.00
    6   16    9      0.10      0.18
    6   16    8     -0.21     -0.10
    6   16    7      1.01      0.37
    6   16    6      1.10      0.13
    6   16    5      1.98      0.74
    6   16    4      1.93      1.32
    6   16    3     -0.86      0.27
    6   16    2     -2.47     -1.25
    6   16    1      1.42      0.15
    6   16    0      1.73     -0.90
    7   16   11      0.95     -1.35
    7   16   10     -0.12      0.17
    7   16    9     -1.01      0.59
    7   16    8      0.52      0.23
    7   16    7      0.70      1.57
    7   16    6     -0.00     -0.35
    7   16    5     -0.88      0.07
    7   16    4     -0.23      0.71
    7   16    3      0.52      0.56
    7   16    2     -0.09      0.62
    7   16    1      0.34      0.83
    7   16    0     -2.36      0.43
    8   16   11     -1.77     -1.05
    8   16   10     -0.43      0.02
    8   16    9     -1.02     -0.25
    8   16    8      0.06      0.28
    8   16    7     -2.11     -1.57
    8   16    6     -1.02      0.01
    8   16    5      0.16      0.72
    8   16    4     -2.46     -1.04
    8   16    3     -0.51      0.90
    8   16    2     -1.43     -0.87
    8   16    1      0.38      0.46
    8   16    0     -1.33      0.76
    9   16   11      0.80     -0.78
    9   16   10      0.36     -1.04
    9   16    9      0.06      0.44
    9   16    8     -1.08     -0.34
    9   16    7     -0.48     -0.34
    9   16    6      0.85      0.61
    9   16    5      0.94      0.98
    9   16    4      0.19     -0.70
    9   16    3     -0.40     -1.62
    9   16    2      1.97      0.16
    9   16    1      0.45     -0.29
    9   16    0      0.56     -0.89
   10   16   10     -0.88     -1.25
   10   16    9      1.28     -0.00
   10   16    8     -0.89      0.41
   10   16    7      1.34      1.80
   10   16    6     -0.60      0.14
   10   16    5     -1.54     -1.51
   10   16    4      1.87      0.42
   10   16    3      0.39     -1.43
   10   16    2      1.43      2.08
   10   16    1     -0.26     -1.80
   10   16    0     -2.15     -0.58
   11   16   10      0.41      1.62
   11   16    9     -0.65     -0.62
   11   16    8      1.19     -0.78
   11   16    7     -0.47     -0.61
   11   16    6     -0.49     -0.96
   11   16    5     -0.42     -1.60
   11   16    4     -1.73      0.81
   11   16    3     -0.56      0.77
   11   16    2     -2.55     -1.12
   11   16    1      0.67     -0.60
   11   16    0     -0.51      0.42
   12   16    9     -0.78     -1.29
   12   16    8      1.13     -2.41
   12   16    7     -1.05      0.53
   12   16    6      0.88     -0.92
   12   16    5      1.30     -0.34
   12   16    4      0.35      0.52
   12   16    3      2.36     -0.16
   12   16    2     -0.54     -0.93
   12   16    1     -1.22      1.38
   12   16    0      3.13      0.50
   13   16    8     -0.92      1.56
   13   16    7      0.04     -0.53
   13   16    6     -0.19      1.16
   13   16    5      0.38      1.38
   13   16    4      2.39      0.44
   13   16    3      0.89     -0.09
   13   16    2      1.56      1.16
   13   16    1     -0.95      0.16
   13   16    0      1.18      0.12
   14   16    8     -0.73      1.51
   14   16    7      0.71     -2.25
   14   16    6      0.57      1.31
   14   16    5     -0.48      2.52
   14   16    4      0.38     -0.83
   14   16    3     -2.41      1.07
   14   16    2      0.70     -0.34
   14   16    1      0.87      0.13
   14   16    0     -1.09      0.06
   15   16    7      1.48      1.85
   15   16    6     -0.08     -1.65
   15   16    5     -0.01      0.57
   15   16    4     -1.17      0.47
   15   16    3     -0.47      0.30
   15   16    2      0.40     -0.49
   15   16    1      1.18     -0.13
   15   16    0      0.48      0.02
   16   16    0     -0.90     -0.25
   16   16    1      0.32     -0.32
   16   16    2      0.71      0.19
   16   16    3     -0.16      0.21
   16   16    4     -4.00      0.73
   16   16    5      0.01     -1.00
    0   17    1      1.75     -2.32
    0   17    2     -3.65      0.08
    0   17    3      1.32      1.42
    0   17    4     -0.35     -1.76
    0   17    5     -1.48      1.34
    0   17    6     -1.08     -0.06
    0   17    7      0.82      0.90
    0   17    8      0.36     -1.27
    0   17    9      0.36      0.02
    0   17   10      0.66     -0.18
    0   17   11     -1.61     -2.27
    0   17   12     -0.10     -0.74
    1   17   12     -0.75     -0.02
    1   17   11     -1.20      0.62
    1   17   10      0.42      0.95
    1   17    9     -0.60      0.59
    1   17    8      0.01     -1.11
    1   17    7     -0.66     -1.62
    1   17    6      0.20      0.41
    1   17    5      0.85      0.25
    1   17    4      1.45     -1.48
    1   17    3      0.27      0.12
    1   17    2      0.25      0.60
    1   17    1     -0.55      1.31
    1   17    0      1.94      1.19
    2   17   12      0.55      0.24
    2   17   11      1.15      0.84
    2   17   10     -0.22      0.92
    2   17    9      0.26      0.42
    2   17    8      0.50      0.50
    2   17    7      0.41      0.33
    2   17    6      0.44     -0.46
    2   17    5      0.17     -0.78
    2   17    4     -0.10      2.10
    2   17    3     -2.50     -0.82
    2   17    2      2.73      1.51
    2   17    1     -1.24     -0.58
    2   17    0      0.67      0.95
    3   17   12      1.55     -1.56
    3   17   11      0.50     -0.90
    3   17   10     -1.23     -1.60
    3   17    9     -0.01      0.24
    3   17    8     -0.33      0.07
    3   17    7     -0.47      0.77
    3   17    6     -0.75     -0.37
    3   17    5     -3.38      1.69
    3   17    4     -0.24     -1.10
    3   17    3      0.20     -0.23
    3   17    2      0.65     -1.10
    3   17    1      0.99      0.87
    3   17    0     -2.07      0.70
    4   17   12     -1.42      0.65
    4   17   11      0.27      0.35
    4   17   10     -1.07     -1.43
    4   17    9     -0.92     -0.87
    4   17    8     -1.56      2.72
    4   17    7     -0.94     -1.20
    4   17    6      1.29      2.05
    4   17    5      1.04     -0.21
    4   17    4      0.44     -2.01
    4   17    3      0.59      0.73
    4   17    2      0.03      0.33
    4   17    1      0.04      0.88
    4   17    0      1.79     -1.76
    5   17   11      0.99     -0.10
    5   17   10      0.74      1.36
    5   17    9     -0.36     -0.02
    5   17    8      0.87      1.46
    5   17    7      0.47     -0.11
    5   17    6     -0.20     -0.33
    5   17    5      2.07     -1.55
    5   17    4     -1.84      1.93
    5   17    3      0.36      1.00
    5   17    2      0.35     -1.74
    5   17    1     -1.01     -2.46
    5   17    0      0.23      0.08
    6   17   11     -0.19     -0.39
    6   17   10      1.08      0.57
    6   17    9      0.00     -0.16
    6   17    8      1.11     -4.29
    6   17    7     -0.81      0.84
    6   17    6     -0.66     -2.21
    6   17    5     -0.01      1.30
    6   17    4     -0.20      0.51
    6   17    3      1.45     -0.60
    6   17    2     -1.05     -1.46
    6   17    1      2.19      4.01
    6   17    0     -1.23      0.70
    7   17   11     -1.20     -0.59
    7   17   10      0.50     -1.17
    7   17    9      0.70     -0.26
    7   17    8     -0.81     -1.10
    7   17    7      1.07      0.57
    7   17    6      0.92      0.32
    7   17    5      0.47      0.18
    7   17    4     -0.66     -1.56
    7   17    3     -0.14     -0.17
    7   17    2      0.07      4.19
    7   17    1      0.65      1.66
    7   17    0     -0.88     -0.80
    8   17   10      0.63      0.63
    8   17    9      1.21      0.30
    8   17    8      0.02      1.69
    8   17    7     -0.53      0.60
    8   17    6     -1.90      0.41
    8   17    5     -0.31     -1.38
    8   17    4     -0.44      0.57
    8   17    3     -0.35     -0.11
    8   17    2     -0.12      0.05
    8   17    1     -4.16     -4.21
    8   17    0     -2.35      0.10
    9   17   10     -0.89      0.71
    9   17    9     -0.72      0.19
    9   17    8      0.02      0.30
    9   17    7     -1.52     -0.36
    9   17    6     -0.54     -0.38
    9   17    5     -0.54     -0.33
    9   17    4      2.38      1.66
    9   17    3     -1.26     -1.07
    9   17    2     -0.40     -1.18
    9   17    1      0.48     -0.32
    9   17    0      0.39      0.10
   10   17    9     -1.55      1.23
   10   17    8      0.23      0.52
   10   17    7      2.55     -1.58
   10   17    6      1.48      0.41
   10   17    5     -0.15     -0.18
   10   17    4      0.48     -0.52
   10   17    3     -0.49      0.66
   10   17    2      0.57      0.16
   10   17    1      2.82      0.26
   10   17    0      3.11      3.06
   11   17    9      0.86     -0.12
   11   17    8     -1.65     -0.45
   11   17    7      0.38     -0.11
   11   17    6      0.69      0.67
   11   17    5      0.42      0.46
   11   17    4     -0.55     -0.56
   11   17    3      1.00      0.72
   11   17    2     -1.21     -1.14
   11   17    1     -0.78     -0.29
   11   17    0      1.10     -0.06
   12   17    8     -0.83     -1.02
   12   17    7     -0.67      1.14
   12   17    6      0.05      0.17
   12   17    5      0.67      0.48
   12   17    4      1.00      0.90
   12   17    3     -0.56      0.20
   12   17    2     -0.11      0.89
   12   17    1     -0.76      0.02
   12   17    0     -1.34     -6.29
   13   17    7     -0.08     -0.19
   13   17    6     -1.17     -0.53
   13   17    5     -0.74      0.18
   13   17    4     -0.17     -0.12
   13   17    3      0.03      0.49
   13   17    2      1.07     -0.12
   13   17    1     -0.61      0.65
   13   17    0      1.56      0.36
   14   17    6     -0.30      0.65
   14   17    5     -1.42      1.81
   14   17    4     -1.41     -1.09
   14   17    3      0.19     -1.48
   14   17    2      0.39     -0.28
   14   17    1     -0.30      0.69
   14   17    0      0.86      4.64
   14   17    7     -1.47     -0.12
   15   17    5      0.18     -1.19
   15   17    4     -0.97     -0.27
   15   17    3     -0.52     -0.82
   15   17    2      1.69      0.05
   15   17    1      1.67      0.19
   15   17    0     -3.83     -0.35
   16   17    4     -0.13      0.81
   16   17    3      1.58      1.83
   16   17    2     -1.25     -1.61
   16   17    1      1.53      1.64
   16   17    0     -1.37     -0.61
    0   18    1     -1.50     -0.80
    0   18    2      0.16      0.10
    0   18    3      0.73     -0.66
    0   18    4     -0.04     -0.75
    0   18    5      0.69      0.17
    0   18    6     -0.37      0.55
    0   18    7     -1.33      1.22
    0   18    8     -0.98      0.05
    0   18    9      0.03      0.11
    0   18   10     -0.20      0.77
    0   18   11     -0.40      0.56
    1   18   11     -0.10      0.29
    1   18   10      0.19      0.06
    1   18    9     -1.45     -0.85
    1   18    8      0.45     -0.01
    1   18    7     -2.60      2.27
    1   18    6     -0.27     -1.62
    1   18    5      1.25      0.63
    1   18    4     -0.01      0.82
    1   18    3      0.17     -0.22
    1   18    2     -0.75      1.80
    1   18    1     -2.47     -1.70
    1   18    0     -0.10      4.00
    2   18   11      1.75     -0.25
    2   18   10      2.03      0.46
    2   18    9     -0.51     -0.30
    2   18    8      0.46     -0.48
    2   18    7      0.15     -0.02
    2   18    6     -0.09     -0.39
    2   18    5      0.18     -0.19
    2   18    4      0.09      0.10
    2   18    3      0.43     -0.62
    2   18    2      0.11     -0.77
    2   18    1      0.92      1.66
    2   18    0     -1.29     -0.70
    3   18   11     -0.56     -0.10
    3   18   10     -1.33      0.13
    3   18    9      0.65     -0.66
    3   18    8     -0.86     -0.12
    3   18    7      1.94     -0.68
    3   18    6      1.01      0.64
    3   18    5     -0.32      0.34
    3   18    4     -0.56     -2.21
    3   18    3     -0.09      1.07
    3   18    2      2.12     -0.90
    3   18    1      0.50      1.38
    3   18    0     -0.46     -1.56
    4   18   11     -2.25     -0.64
    4   18   10      0.37     -0.66
    4   18    9      0.11      0.69
    4   18    8      1.14     -0.09
    4   18    7      1.17     -0.87
    4   18    6     -0.44     -0.12
    4   18    5      0.48     -0.02
    4   18    4      0.61      1.90
    4   18    3     -1.49      1.61
    4   18    2     -0.79      1.07
    4   18    1     -0.44     -1.33
    4   18    0      1.31     -0.20
    5   18   11      1.51     -1.24
    5   18   10      1.43     -0.44
    5   18    9     -0.06      1.34
    5   18    8      0.05     -0.02
    5   18    7      0.16     -0.31
    5   18    6     -1.40     -0.24
    5   18    5      0.60     -0.44
    5   18    4      1.23      1.70
    5   18    3     -0.52     -1.57
    5   18    2     -1.34     -0.25
    5   18    1      3.23     -2.02
    5   18    0     -0.88     -0.66
    6   18   10     -2.23     -0.61
    6   18    9     -0.12      0.21
    6   18    8     -1.88      0.25
    6   18    7     -1.03     -0.08
    6   18    6     -0.47      0.78
    6   18    5     -0.91      0.05
    6   18    4     -0.20     -1.13
    6   18    3      0.98     -0.79
    6   18    2      0.10     -0.17
    6   18    1     -0.09      0.75
    6   18    0     -1.94      0.86
    7   18   10      0.29     -0.17
    7   18    9      0.11     -1.05
    7   18    8      1.65      0.72
    7   18    7     -1.78      1.29
    7   18    6      0.72      0.76
    7   18    5     -1.02      0.31
    7   18    4     -0.93     -0.29
    7   18    3     -0.50      0.21
    7   18    2      0.02      0.71
    7   18    1     -2.52      1.72
    7   18    0      1.68      0.62
    8   18   10      0.60      0.21
    8   18    9      1.04      0.11
    8   18    8      0.77      0.32
    8   18    7      0.71      0.42
    8   18    6      0.69      0.21
    8   18    5     -0.81     -0.37
    8   18    4     -0.70     -0.23
    8   18    3      0.63     -0.47
    8   18    2      1.88      0.00
    8   18    1     -0.27     -0.45
    8   18    0      0.45      0.92
    9   18    9     -1.14      0.66
    9   18    8     -1.79     -1.97
    9   18    7      0.67     -1.64
    9   18    6      0.16     -0.31
    9   18    5      0.42     -0.47
    9   18    4     -0.19      0.19
    9   18    3      0.94      1.78
    9   18    2     -1.85     -1.10
    9   18    1     -0.49     -0.87
    9   18    0      0.19     -0.30
   10   18    9     -1.26     -1.37
   10   18    8      0.25     -1.13
   10   18    7     -0.89      0.28
   10   18    6      0.55     -2.13
   10   18    5      0.49     -0.30
   10   18    4      0.95     -0.65
   10   18    3     -1.22      0.64
   10   18    2     -1.01     -1.41
   10   18    1      0.75     -0.29
   10   18    0      1.92     -2.66
   11   18    8     -1.09      1.81
   11   18    7      1.77      1.09
   11   18    6     -0.68     -0.53
   11   18    5      0.72      0.09
   11   18    4      2.37     -0.66
   11   18    3      0.79     -1.54
   11   18    2      3.31      2.08
   11   18    1      0.42      0.08
   11   18    0     -0.28     -0.06
   12   18    7      1.29     -0.90
   12   18    6     -0.10      2.13
   12   18    5      1.03      2.19
   12   18    4      0.03      1.51
   12   18    3      0.38      0.62
   12   18    2     -1.45      1.48
   12   18    1      0.05      1.35
   12   18    0     -2.30      1.66
   13   18    6      0.55      1.26
   13   18    5     -1.85      0.99
   13   18    4     -2.98      0.44
   13   18    3     -1.16      0.14
   13   18    2     -1.47     -1.84
   13   18    1      0.94      0.44
   13   18    0      0.16      0.46
   14   18    4     -3.28     -0.26
   14   18    3      0.20     -0.23
   14   18    2      2.05     -0.02
   14   18    1     -0.07     -1.43
   14   18    0      0.75     -0.15
   15   18    3     -0.77      0.41
   15   18    2     -0.91      1.52
   15   18    1     -1.77      1.36
   15   18    0     -1.81      0.28
    0   19    1      1.16     -0.42
    0   19    2      0.25     -0.67
    0   19    3      3.50     -0.50
    0   19    4      0.45     -0.62
    0   19    5      0.14      0.42
    0   19    6      0.13     -0.42
    0   19    7     -0.88     -0.88
    0   19    8     -0.50      1.85
    0   19    9     -0.03      0.40
    0   19   10     -0.12      0.04
    1   19   10      0.26     -0.94
    1   19    9      0.84     -0.91
    1   19    8      0.33     -0.80
    1   19    7      1.45      0.94
    1   19    6     -1.56      0.17
    1   19    5     -0.20     -0.32
    1   19    4     -1.04      1.27
    1   19    3     -0.70      0.83
    1   19    2     -1.49      0.40
    1   19    1     -0.32      1.99
    1   19    0     -2.88     -2.17
    2   19   10     -0.56     -0.31
    2   19    9     -0.89     -0.72
    2   19    8     -0.68     -0.91
    2   19    7     -0.49      0.91
    2   19    6      0.40     -0.96
    2   19    5     -0.18     -0.63
    2   19    4     -1.15     -0.35
    2   19    3      3.03     -2.55
    2   19    2     -0.42      4.02
    2   19    1     -1.54     -0.24
    2   19    0      0.25     -0.84
    3   19   10      0.36      1.54
    3   19    9      0.73      0.10
    3   19    8     -0.90      0.44
    3   19    7      0.12     -0.63
    3   19    6      1.42      0.08
    3   19    5      1.11     -0.44
    3   19    4      0.23     -0.09
    3   19    3      0.26     -1.90
    3   19    2     -1.69     -0.14
    3   19    1     -1.48     -2.04
    3   19    0      3.33      0.92
    4   19   10      1.40      0.70
    4   19    9      1.44      0.41
    4   19    8      1.92     -2.10
    4   19    7      1.11     -0.82
    4   19    6     -0.95      1.37
    4   19    5      0.88      0.98
    4   19    4     -0.07      1.56
    4   19    3     -3.68      1.36
    4   19    2      0.48     -3.02
    4   19    1      0.68      0.44
    4   19    0     -1.76      2.32
    5   19   10     -1.07     -0.82
    5   19    9     -1.12     -0.47
    5   19    8      0.71      0.07
    5   19    7     -1.27      1.16
    5   19    6      1.12     -0.81
    5   19    5     -0.58      0.56
    5   19    4      2.76     -0.74
    5   19    3      0.24      0.10
    5   19    2      1.68      0.15
    5   19    1      1.09     -0.58
    5   19    0      0.03     -1.79
    6   19    9     -0.26      0.36
    6   19    8     -1.31      3.65
    6   19    7      0.45      0.55
    6   19    6      0.10     -0.21
    6   19    5     -1.03     -0.89
    6   19    4      0.11     -0.01
    6   19    3      0.31      0.98
    6   19    2      0.30      1.30
    6   19    1     -1.87     -3.24
    6   19    0      1.18     -2.09
    7   19    9      0.36      0.52
    7   19    8     -0.45     -0.12
    7   19    7      0.76     -0.19
    7   19    6     -2.57      1.03
    7   19    5      0.58     -0.78
    7   19    4     -1.19      1.41
    7   19    3      0.55      0.95
    7   19    2     -0.43     -0.60
    7   19    1     -0.60      0.87
    7   19    0      0.69      1.13
    8   19    9     -1.46      0.13
    8   19    8      0.18     -0.67
    8   19    7     -0.58     -1.03
    8   19    6      0.88     -0.32
    8   19    5     -0.03      0.87
    8   19    4      0.96     -0.90
    8   19    3      0.16     -0.47
    8   19    2      0.14      0.37
    8   19    1      3.27      4.83
    8   19    0      2.33     -0.25
    9   19    7     -0.90     -1.07
    9   19    6      1.58      1.47
    9   19    5     -0.95      1.50
    9   19    4     -2.35     -0.37
    9   19    3     -0.13      0.32
    9   19    2      0.65     -1.02
    9   19    1      0.07      0.79
    9   19    0     -0.93      0.37
   10   19    7     -0.80      2.03
   10   19    6      0.15     -0.44
   10   19    5      0.77     -1.01
   10   19    4     -0.38     -0.18
   10   19    3     -0.32     -1.92
   10   19    2     -1.02     -0.98
   10   19    1     -1.82     -1.88
   10   19    0     -4.05      0.57
   11   19    6     -0.71     -2.36
   11   19    5     -0.41     -0.56
   11   19    4      2.29     -1.03
   11   19    3     -1.12     -0.55
   11   19    2     -0.19      2.26
   11   19    1     -0.01     -0.12
   11   19    0      0.12      0.10
   12   19    6     -1.05      0.54
   12   19    5     -1.54      1.54
   12   19    4     -1.30      0.88
   12   19    3      0.51      1.18
   12   19    2      0.59      0.08
   12   19    1      0.53     -0.42
   12   19    0      2.51      1.31
   13   19    5      0.88     -0.29
   13   19    4     -1.11      0.75
   13   19    3      0.41     -0.28
   13   19    2     -0.03     -0.96
   13   19    1      0.42     -0.13
   13   19    0     -2.67     -0.39
   14   19    3      1.73      1.84
   14   19    2     -0.36     -0.92
   14   19    1     -0.42      1.00
   14   19    0     -0.75     -1.80
    0   20    0      2.21     -0.20
    0   20    1      0.19     -0.84
    0   20    2     -0.28      3.92
    0   20    3     -0.53     -0.98
    0   20    4     -1.59     -0.29
    0   20    5     -0.08     -0.31
    0   20    6      0.07     -0.02
    0   20    7      0.99     -0.75
    0   20    8     -0.78     -0.16
    0   20    9      0.65      0.34
    1   20    9      1.20      1.31
    1   20    8      0.75     -0.18
    1   20    7      2.32     -2.33
    1   20    6      0.30      0.15
    1   20    5     -0.21      0.76
    1   20    4     -1.87      0.21
    1   20    3      0.78     -0.00
    1   20    2     -1.69     -0.86
    1   20    1      1.26      0.64
    1   20    0      0.92     -1.81
    2   20    9     -0.12      0.17
    2   20    8      0.84      2.38
    2   20    7      0.05     -0.68
    2   20    6      0.00     -0.65
    2   20    5     -0.15      0.38
    2   20    4      1.35      1.03
    2   20    3     -0.63     -0.31
    2   20    2      2.02     -1.02
    2   20    1     -2.01      2.62
    2   20    0     -0.54     -0.13
    3   20    9      0.43     -0.74
    3   20    8      0.59      0.33
    3   20    7     -0.67      1.00
    3   20    6     -0.65      0.84
    3   20    5     -0.37     -1.48
    3   20    4     -0.74      0.76
    3   20    3      1.04     -1.03
    3   20    2      0.50      0.97
    3   20    1     -0.44     -0.92
    3   20    0     -0.17      0.61
    4   20    9     -0.05     -1.00
    4   20    8     -1.52     -0.60
    4   20    7     -1.20      1.56
    4   20    6      0.56      1.85
    4   20    5      0.55     -0.23
    4   20    4     -0.07     -1.17
    4   20    3      0.53     -1.10
    4   20    2     -0.95     -2.40
    4   20    1      1.05     -1.63
    4   20    0     -0.82      0.31
    5   20    8      0.55     -0.17
    5   20    7     -1.43      0.42
    5   20    6      1.19     -0.37
    5   20    5      0.73      0.04
    5   20    4      1.35     -0.44
    5   20    3     -1.28      0.77
    5   20    2      1.74      0.89
    5   20    1     -1.94      1.81
    5   20    0     -0.01      0.33
    6   20    8      1.93     -1.29
    6   20    7      0.27      0.15
    6   20    6     -0.70     -1.24
    6   20    5     -0.80      0.33
    6   20    4     -0.71     -0.29
    6   20    3     -0.83      1.82
    6   20    2     -0.10      1.69
    6   20    1     -0.10      0.38
    6   20    0      0.41     -0.21
    7   20    8     -3.00      0.17
    7   20    7      1.22     -1.68
    7   20    6     -0.97     -1.02
    7   20    5      0.09      0.57
    7   20    4      0.18     -0.75
    7   20    3     -0.30      0.63
    7   20    2     -0.50     -2.39
    7   20    1      1.56     -1.75
    7   20    0     -0.98     -0.34
    8   20    7     -0.42     -1.02
    8   20    6      0.79     -0.70
    8   20    5      0.16     -0.45
    8   20    4      1.87      1.62
    8   20    3      1.72     -0.48
    8   20    2     -0.74     -0.47
    8   20    1      0.46      0.33
    8   20    0     -0.52     -1.70
    9   20    7      0.69      2.33
    9   20    6      0.21      0.67
    9   20    5     -0.79     -0.26
    9   20    4     -0.69      1.14
    9   20    3      1.12     -0.73
    9   20    2     -0.27      2.06
    9   20    1      2.06      0.61
    9   20    0      1.84      0.68
   10   20    6     -1.28      1.12
   10   20    5      1.32      1.42
   10   20    4     -1.72      0.07
   10   20    3     -0.38      0.20
   10   20    2      0.78      0.41
   10   20    1     -0.42      0.08
   10   20    0     -0.02      4.23
   11   20    5      0.03      1.16
   11   20    4     -0.62     -0.36
   11   20    3     -1.74      0.22
   11   20    2     -1.30     -0.64
   11   20    1     -2.18      0.91
   11   20    0     -0.40     -0.61
   12   20    3     -2.09     -0.19
   12   20    2      0.35      0.32
   12   20    1      0.06     -1.56
   12   20    0      1.11     -3.44
   13   20    2      0.53      0.44
   13   20    1     -1.09      0.27
   13   20    0     -1.95      0.20
    0   21    1     -1.74     -1.63
    0   21    2      0.31      0.43
    0   21    3     -1.88     -0.55
    0   21    4      0.21      2.65
    0   21    5      0.84     -0.18
    0   21    7      0.12      0.04
    0   21    8     -0.00     -0.37
    1   21    8      0.30      0.58
    1   21    7     -0.62      0.16
    1   21    6      0.68     -0.16
    1   21    5      0.58     -0.57
    1   21    4      0.60     -1.02
    1   21    3      0.70     -0.14
    1   21    2      1.16     -0.70
    1   21    1      0.36     -2.55
    1   21    0      0.95      1.05
    2   21    8      0.18      0.32
    2   21    7      1.21     -1.18
    2   21    6      0.04      0.10
    2   21    5      0.28     -0.57
    2   21    4     -0.04      0.06
    2   21    3     -2.59      3.07
    2   21    2     -0.23     -3.95
    2   21    1      1.69      1.75
    2   21    0     -0.24     -0.22
    3   21    8     -0.12     -0.51
    3   21    7      0.60      0.18
    3   21    6     -0.47      0.60
    3   21    5      1.01      0.15
    3   21    4      0.04      1.35
    3   21    3     -0.77     -0.12
    3   21    2     -0.29      1.24
    3   21    1      0.55      2.01
    3   21    0     -0.43     -1.34
    4   21    7     -1.57      1.67
    4   21    6      0.85      0.25
    4   21    5     -2.23      0.54
    4   21    4      0.85     -2.28
    4   21    3      2.64     -0.98
    4   21    2      0.34      2.34
    4   21    1     -0.48     -0.97
    4   21    0      0.82     -0.84
    5   21    7      0.18     -1.10
    5   21    6     -0.94      0.64
    5   21    5     -1.52      0.78
    5   21    4     -1.62      0.99
    5   21    3      0.48      0.69
    5   21    2      0.84      0.00
    5   21    1      0.69      1.46
    5   21    0     -0.26      2.80
    6   21    7      0.53     -1.00
    6   21    6     -0.44     -0.09
    6   21    5      0.42      0.27
    6   21    4     -0.24      0.75
    6   21    3      0.29     -1.57
    6   21    2     -0.45     -0.53
    6   21    1      1.42      1.49
    6   21    0     -0.52      1.31
    7   21    6      1.21     -0.96
    7   21    5     -0.76     -0.57
    7   21    4      0.89     -2.22
    7   21    3     -1.49     -0.02
    7   21    2     -1.18     -0.68
    7   21    1     -1.54     -1.63
    7   21    0     -1.77     -1.01
    8   21    5      1.34     -0.37
    8   21    4     -2.02      0.51
    8   21    3     -1.02      0.86
    8   21    2     -0.62      0.51
    8   21    1     -2.17     -2.77
    8   21    0     -1.24      0.38
    9   21    4      1.05     -0.34
    9   21    3      1.30     -0.96
    9   21    2     -0.28      0.76
    9   21    1      0.58     -0.44
    9   21    0      1.76     -1.06
   10   21    3      0.77      1.89
   10   21    2      1.64     -0.10
   10   21    1      0.33      1.68
   10   21    0      2.34     -1.75
   11   21    2      0.51     -1.16
   11   21    1      0.76      0.22
   11   21    0     -0.54      0.36
    0   22    0     -0.21     -1.59
    0   22    1     -0.50     -0.76
    0   22    2      0.96     -3.41
    0   22    3     -0.18      2.26
    0   22    4     -0.54      1.69
    0   22    5      0.05      0.12
    0   22    6      0.18      0.42
    1   22    6     -0.14      0.71
    1   22    5     -0.34     -1.61
    1   22    4      2.00     -0.56
    1   22    3     -1.63     -0.38
    1   22    2      1.36     -1.01
    1   22    1      1.53      1.34
    1   22    0     -0.11      0.01
    2   22    6      0.18      1.05
    2   22    5      0.41     -0.82
    2   22    4      0.01     -1.80
    2   22    3     -1.19     -0.53
    2   22    2     -1.13      3.18
    2   22    1      0.67     -0.03
    2   22    0     -0.11      1.23
    3   22    5     -0.31      1.22
    3   22    4      2.85      0.75
    3   22    3      0.74      1.88
    3   22    2     -1.49     -0.71
    3   22    1     -1.19     -1.52
    3   22    0      0.43      0.25
    4   22    5     -1.29      0.86
    4   22    4     -0.05     -0.23
    4   22    3      1.83      0.68
    4   22    2      0.21     -0.93
    4   22    1     -0.55      1.17
    4   22    0     -0.19      0.17
    5   22    4     -4.48      0.00
    5   22    3      0.18     -0.21
    5   22    2     -0.13      0.14
    5   22    1     -0.69      1.94
    5   22    0      1.51     -0.40
    6   22    4     -0.22      1.05
    6   22    3     -0.17     -1.12
    6   22    2      0.03     -0.53
    6   22    1      1.26     -0.83
    6   22    0      0.73     -0.66
    7   22    3      1.30     -0.64
    7   22    2     -0.39      0.88
    7   22    1      1.06     -0.95
    7   22    0     -1.72      0.23
    8   22    3     -2.23     -0.10
    8   22    2     -0.62      0.80
    8   22    1     -1.43     -0.32
    8   22    0      0.18      1.07
    9   22    2      1.07     -0.79
    9   22    1     -1.20      0.33
    9   22    0     -2.62     -0.27
    0   23    1      1.52      2.30
    0   23    2     -0.26      0.51
    0   23    3     -0.30      0.60
    1   23    3      0.26      0.05
    1   23    2     -1.02      0.32
    1   23    1      0.08     -0.35
    1   23    0     -0.38      0.29
    2   23    3      1.11     -1.92
    2   23    2      0.34      1.07
    2   23    1     -1.49     -1.87
    2   23    0     -1.12      1.54
    3   23    3      0.05      0.43
    3   23    2      2.25     -0.45
    3   23    1      0.83     -1.43
    3   23    0     -0.36     -0.27
    4   23    3     -0.43      0.71
    4   23    2     -0.23     -0.84
    4   23    1      0.24      0.64
    4   23    0      0.87     -1.00
    5   23    2     -2.05     -0.06
    5   23    1     -1.50      1.33
    5   23    0      0.30     -0.91
    6   23    2     -0.44      0.22
    6   23    1     -0.15      0.15
    6   23    0     -0.24      0.08
    0   24    0      0.28      0.55
    1   24    0     -1.26     -0.14
    2    2    0    199.04     -4.05
    2    6    0    -60.35      1.21
    0   14    0     14.39      0.19
    0   16    0    -12.81     -0.49
   17   17    0      1.79      0.19
    0   18    0      1.94      0.96
   16   18    0      0.51     -0.05
   17   18    0      0.86     -0.70
   15   19    0      2.37     -0.08
   16   19    0     -0.32      0.55
   14   20    0     -0.97      0.75
   15   20    0      1.65      0.02
   12   21    0     -1.68      1.31
   13   21    0      1.15      0.11
   14   21    0      0.09     -0.34
   10   22    0     -0.67     -1.99
   11   22    0      2.91      0.13
   12   22    0     -0.37      1.68
    7   23    0      1.29      0.26
    8   23    0     -0.08     -0.26
    9   23    0     -1.04      0.71
   10   23    0     -0.05      0.39
    2   24    0     -0.38     -0.25
    3   24    0     -0.52      0.14
    4   24    0      0.81     -0.70
    5   24    0     -0.33      0.09
    6   24    0     -1.47      0.72
    7   24    0      1.86     -0.22
    8   24    0      1.07     -0.32
    2    2    1     -1.28    -66.19
   17   17    1     -0.85     -0.92
   16   18    1     -0.53      0.19
   17   18    1      1.21     -2.37
   15   19    1     -0.45     -0.98
   16   19    1     -0.10     -1.64
   14   20    1     -0.34      1.61
   15   20    1      1.56     -2.22
   12   21    1      0.52      0.25
   13   21    1     -1.18     -0.01
   14   21    1      0.54     -0.80
   10   22    1     -0.13      0.46
   11   22    1      1.02     -1.10
   12   22    1      0.68      0.20
    7   23    1      1.58     -0.63
    8   23    1      0.38     -0.11
    9   23    1     -0.56      0.38
   10   23    1      0.31     -0.43
    0   24    1      1.68      1.40
    1   24    1     -1.26     -0.44
    2   24    1     -0.49     -1.57
    3   24    1      1.40      1.25
    4   24    1     -0.01      0.29
    5   24    1      1.39     -2.76
    6   24    1     -0.85     -0.06
    7   24    1     -1.98      1.73
    8   24    1      1.40      0.08
    2    2    2    -25.57      0.62
   17   17    2     -2.82      0.92
   16   18    2     -1.69      0.05
   17   18    2      0.88     -2.20
   15   19    2     -1.13     -0.40
   16   19    2      0.19      2.44
   14   20    2     -0.91     -0.81
   15   20    2      0.28     -1.64
   12   21    2     -0.76     -0.21
   13   21    2     -0.15      0.84
   10   22    2      0.81     -0.23
   11   22    2      0.04     -0.31
   12   22    2     -0.20     -0.97
    7   23    2      0.27      0.07
    8   23    2      1.05     -0.53
    9   23    2      0.67      0.52
   10   23    2     -1.13      0.20
    0   24    2      0.48      0.48
    1   24    2      0.43      1.35
    2   24    2     -0.95     -1.23
    3   24    2      0.49     -0.60
    4   24    2      0.01      1.07
    5   24    2     -1.35      0.30
    6   24    2      1.09     -0.17
    7   24    2      1.16      0.16
   17   17    3     -0.15      0.69
   16   18    3     -0.54     -1.26
   17   18    3      1.72     -1.09
   15   19    3      0.58      0.43
   16   19    3     -2.72     -2.41
   13   20    3      0.52     -0.10
   14   20    3      1.98     -0.81
   15   20    3      1.00     -0.39
   11   21    3      0.17      0.34
   12   21    3     -0.72     -1.93
   13   21    3     -0.00      0.12
    9   22    3     -2.25     -0.76
   10   22    3      1.67     -0.16
   11   22    3      1.60      1.13
    5   23    3     -0.95      0.06
    6   23    3     -0.81      0.87
    7   23    3      1.43     -0.64
    8   23    3      1.06     -0.79
    9   23    3     -0.41      0.28
    0   24    3      0.68     -1.60
    1   24    3      1.48     -0.14
    2   24    3      0.61      1.16
    3   24    3     -1.91     -1.05
    4   24    3     -0.92     -0.39
    5   24    3      1.06      0.60
    6   24    3      0.09      0.08
    7   24    3     -0.87     -0.61
   17   17    4      0.96     -0.04
   15   18    4      0.73     -0.37
   16   18    4      4.09     -0.91
   14   19    4      1.30     -0.73
   15   19    4      0.93     -0.29
   12   20    4     -1.10     -1.71
   13   20    4      0.85     -0.77
   14   20    4      2.84      0.30
   10   21    4      1.56      0.20
   11   21    4     -1.11      1.35
   12   21    4      0.35     -1.25
   13   21    4      0.13     -0.26
    7   22    4      1.33     -0.02
    8   22    4     -0.60     -0.99
    9   22    4      0.62     -0.54
   10   22    4      0.95      0.28
   11   22    4     -0.48      0.28
    0   23    4     -0.12     -2.36
    1   23    4     -0.10      1.02
    2   23    4      1.01      0.31
    3   23    4     -0.47     -1.30
    4   23    4     -1.48      1.29
    5   23    4      0.40     -0.87
    6   23    4      0.63     -0.70
    7   23    4      0.23      1.47
    8   23    4      1.16     -0.15
    9   23    4     -0.49      0.12
    0   24    4      0.79     -0.98
    1   24    4     -0.64      0.11
    2   24    4     -0.42      1.20
    3   24    4     -1.59      0.21
    4   24    4      0.12      0.43
    5   24    4      2.16     -0.59
    6   24    4      0.05     -0.52
   16   17    5      0.72     -2.16
   17   17    5     -0.14      1.03
   14   18    5     -0.71     -1.69
   15   18    5      0.95     -0.85
   16   18    5     -0.10     -1.26
   14   19    5      1.88     -2.06
   15   19    5     -0.18     -0.17
   12   20    5     -1.90     -1.89
   13   20    5      0.80     -2.03
    9   21    5      0.95     -1.13
   10   21    5     -0.57      0.47
   11   21    5      0.66      1.08
   12   21    5      0.51     -1.16
    5   22    5     -0.45      1.08
    6   22    5      1.58     -0.27
    7   22    5      0.65     -1.64
    8   22    5     -0.15      0.30
    9   22    5     -0.20      0.44
   10   22    5     -0.60     -0.72
    0   23    5     -0.61     -0.14
    1   23    5      0.19      0.48
    2   23    5     -0.48      1.19
    3   23    5     -1.94      0.20
    4   23    5      1.49     -1.33
    5   23    5      1.35     -0.99
    6   23    5      0.42      0.44
    7   23    5      0.66      0.85
    8   23    5     -1.62     -0.37
    0   24    5     -0.75     -0.50
    1   24    5     -0.36      0.88
    2   24    5      0.45      0.62
    3   24    5      0.81     -0.34
    4   24    5      0.25     -0.17
   16   16    6     -1.79     -0.36
   15   17    6      0.32      0.42
   16   17    6      0.10     -1.61
   14   18    6     -1.16     -1.06
   15   18    6     -0.34     -0.72
   13   19    6      0.16     -0.06
   14   19    6      0.33     -0.35
   11   20    6      0.38      0.73
   12   20    6      0.45     -0.33
   13   20    6     -0.51     -1.48
    0   21    6     -0.95      0.39
    8   21    6      0.12     -0.66
    9   21    6     -0.46     -1.28
   10   21    6     -0.43      0.39
   11   21    6      0.23      1.90
    3   22    6      0.15     -1.29
    4   22    6     -0.34     -2.16
    5   22    6     -0.04      0.50
    6   22    6      0.53      0.63
    7   22    6      0.06      0.56
    8   22    6     -0.91      0.52
    9   22    6     -0.22     -0.86
    0   23    6      1.16      0.09
    1   23    6      0.03      0.26
    2   23    6      0.13      0.18
    3   23    6     -0.62     -0.18
    4   23    6     -1.01     -0.66
    5   23    6      0.71     -0.53
    6   23    6     -0.03      0.23
   16   16    7      0.13      1.22
   15   17    7      0.50      0.11
   16   17    7      1.34     -1.10
   13   18    7     -1.91     -0.51
   14   18    7     -0.83      0.46
   15   18    7     -0.46     -0.72
   11   19    7      0.52     -0.12
   12   19    7      0.30     -1.48
   13   19    7      0.28      0.82
   10   20    7      1.26     -0.26
   11   20    7     -1.71     -1.85
   12   20    7     -0.58      0.65
    7   21    7     -0.97      0.32
    8   21    7     -0.25      0.34
    9   21    7      1.00      0.94
   10   21    7      0.72     -0.46
    0   22    7      0.23     -0.15
    1   22    7     -0.11     -0.06
    2   22    7     -0.79      0.50
    3   22    7     -0.86     -0.01
    4   22    7      0.19     -0.96
    5   22    7      1.16      0.53
    6   22    7      0.30      0.17
    7   22    7     -0.22     -0.49
    8   22    7      0.44      0.52
    0   23    7      0.20     -0.18
    1   23    7     -0.19      0.13
    2   23    7     -0.66      0.77
    3   23    7     -0.00     -0.24
    4   23    7      0.09     -0.33
   15   15    8      4.49     -0.08
   15   16    8     -0.03     -1.14
   16   16    8      0.51     -0.07
   13   17    8      3.48      0.55
   14   17    8      0.15      0.82
   15   17    8     -2.45     -0.29
   12   18    8     -0.54      1.17
   13   18    8      1.83     -0.71
   14   18    8      0.52     -0.20
    9   19    8      0.04     -0.44
   10   19    8     -0.57     -1.76
   11   19    8      1.15      0.48
   12   19    8      0.55      1.07
    8   20    8     -1.02     -0.02
    9   20    8      2.58      0.61
   10   20    8      0.33      0.85
   11   20    8      0.31     -1.07
    4   21    8     -0.18      0.97
    5   21    8     -0.50     -0.01
    6   21    8     -0.05     -1.69
    7   21    8      0.92      0.34
    8   21    8     -0.13      0.15
    9   21    8     -0.87     -0.30
    0   22    8      0.31      0.03
    1   22    8     -1.18      0.07
    2   22    8     -0.46     -0.95
    3   22    8      0.24      0.87
    4   22    8      0.81      0.17
    5   22    8     -0.39     -0.98
    6   22    8     -0.84      0.67
   15   15    9     -0.07     -0.14
   13   16    9      0.92      0.51
   14   16    9      0.36      1.69
   15   16    9     -0.23     -0.60
   12   17    9      1.20     -1.49
   13   17    9     -1.03     -0.30
   14   17    9     -0.62      0.25
   11   18    9      1.72     -0.29
   12   18    9      0.73      1.20
    9   19    9      0.68      0.16
   10   19    9      1.33     -1.09
   11   19    9     -1.23     -0.39
    5   20    9     -1.64      0.02
    6   20    9      0.28      0.09
    7   20    9      0.76      1.12
    8   20    9     -0.61      0.13
    9   20    9      0.72     -1.71
    0   21    9     -0.44      0.22
    1   21    9     -0.17      0.22
    2   21    9      0.52     -0.06
    3   21    9     -0.92     -0.39
    4   21    9     -0.81      0.33
    5   21    9      1.26      0.97
    6   21    9      0.37     -0.68
    7   21    9     -0.78     -0.62
    0   22    9     -0.68     -0.95
    1   22    9      0.23     -0.52
    2   22    9      0.21      0.82
   14   14   10      0.20      0.11
   13   15   10     -1.04      0.15
   14   15   10     -0.71     -0.83
   15   15   10      0.18     -0.07
   12   16   10      0.95      1.09
   13   16   10     -0.30     -1.17
   14   16   10     -0.03     -0.27
   10   17   10     -0.67     -0.17
   11   17   10      0.04     -0.23
   12   17   10     -0.49     -0.47
    9   18   10     -1.13      1.16
   10   18   10      1.13      0.62
   11   18   10      0.57     -1.30
    6   19   10     -0.68     -0.47
    7   19   10      0.79      0.60
    8   19   10     -0.60     -0.26
    9   19   10     -0.05     -0.44
    0   20   10      0.48      0.07
    1   20   10     -0.58     -0.18
    2   20   10     -1.25     -0.41
    3   20   10      1.04      0.02
    4   20   10     -0.37      0.31
    5   20   10     -0.21      0.71
    6   20   10      1.23      0.56
    7   20   10     -0.62     -0.72
    0   21   10     -0.01      0.09
    1   21   10     -1.02      0.45
    2   21   10      0.21     -0.57
    3   21   10      0.61     -0.54
   13   14   11      0.69      2.86
   14   14   11     -0.35      3.42
   12   15   11     -1.50      0.32
   13   15   11     -1.05     -0.43
   10   16   11      0.82     -0.02
   11   16   11     -1.31      1.74
   12   16   11      0.54      1.44
    8   17   11      0.02      0.49
    9   17   11      0.96      0.76
   10   17   11     -0.84     -0.65
   11   17   11     -0.64     -0.26
    6   18   11      0.14      0.43
    7   18   11     -1.09      2.00
    8   18   11      1.01      0.57
    9   18   11     -0.03     -1.18
    0   19   11      1.41      1.49
    1   19   11      0.75     -0.37
    2   19   11     -1.33     -0.03
    3   19   11     -0.67      0.31
    4   19   11      0.15     -0.91
    5   19   11     -0.03      0.54
    6   19   11      0.29      0.58
    7   19   11      0.62     -0.36
    0   20   11     -0.76      0.87
    1   20   11     -0.31      0.83
    2   20   11     -0.25     -0.44
    3   20   11      0.34     -0.58
   12   13   12      1.13     -2.10
   13   13   12      1.28     -0.14
   11   14   12      1.04      2.17
   12   14   12      3.78     -0.01
   13   14   12      0.01     -1.13
   10   15   12      0.18     -0.20
   11   15   12      1.03      1.11
   12   15   12     -0.25      0.72
    7   16   12      1.20     -0.41
    8   16   12     -2.51     -1.84
    9   16   12      0.19      1.56
   10   16   12      3.55      0.80
    5   17   12     -1.30      0.39
    6   17   12      1.01      0.07
    7   17   12     -0.13      0.37
    8   17   12     -0.29     -0.45
    9   17   12      1.32      0.69
    0   18   12      0.29     -0.05
    1   18   12     -0.80     -0.10
    2   18   12      0.40      0.89
    3   18   12     -0.32     -0.18
    4   18   12     -1.65      0.58
    5   18   12      1.01      0.82
    6   18   12      1.25     -1.07
    0   19   12      0.08      0.93
    1   19   12      0.43     -0.22
    2   19   12     -0.03     -0.30
    3   19   12     -0.51      0.83
   11   12   13     -2.89      0.63
   12   12   13      0.26      1.30
   10   13   13      3.22     -1.57
   11   13   13      0.08      2.88
   12   13   13     -1.90     -0.21
    8   14   13      0.27      1.56
    9   14   13     -1.30      0.18
   10   14   13     -0.34     -0.96
   11   14   13      1.44     -0.63
    6   15   13      0.24      0.61
    7   15   13     -1.83      0.78
    8   15   13      1.99     -0.32
    9   15   13      1.36      0.32
   10   15   13     -1.99      0.10
    2   16   13      1.16     -0.17
    3   16   13      0.53     -1.49
    4   16   13      0.42      1.66
    5   16   13      0.47      0.73
    6   16   13     -0.49     -0.61
    7   16   13     -0.11      0.11
    8   16   13     -0.11     -0.92
    0   17   13     -1.62      1.24
    1   17   13     -0.09      0.55
    2   17   13      0.85     -0.60
    3   17   13     -0.48     -0.77
    4   17   13      0.61      0.92
    5   17   13      0.48      0.51
    6   17   13     -0.80     -1.39
    0   18   13      1.42      1.04
    1   18   13      1.36      0.49
   10   10   14     -2.05     -0.10
   10   11   14     -2.55     -0.10
   11   11   14     -1.27     -0.01
    9   12   14      0.69      1.54
   10   12   14      0.83     -0.95
   11   12   14      0.51     -0.52
    7   13   14     -0.31     -0.65
    8   13   14     -4.16     -1.23
    9   13   14     -0.86      0.88
   10   13   14      2.83      0.16
    4   14   14      0.49     -1.09
    5   14   14     -0.38     -0.08
    6   14   14      0.01      1.78
    7   14   14      0.48      0.79
    8   14   14      0.02     -1.36
    0   15   14      0.88     -0.01
    1   15   14      1.70      0.60
    2   15   14     -0.53      1.61
    3   15   14     -0.34     -0.20
    4   15   14      0.48     -1.55
    5   15   14     -1.13     -0.65
    6   15   14     -1.13      0.24
    7   15   14      1.08      0.64
    0   16   14      0.01     -0.83
    1   16   14     -0.22      0.57
    2   16   14      0.31      1.06
    3   16   14     -0.07     -1.05
    4   16   14     -0.27     -0.79
    8    9   15     -2.45      0.02
    9    9   15      0.13      1.81
    7   10   15      2.26      0.41
    8   10   15      0.73      1.93
    9   10   15     -1.48      0.21
   10   10   15     -0.21     -1.29
    6   11   15     -3.24     -0.43
    7   11   15     -0.90      0.49
    8   11   15      1.39      0.95
    9   11   15      0.37     -0.55
    3   12   15     -0.13     -0.04
    4   12   15     -1.10     -0.01
    5   12   15      0.12      0.65
    6   12   15      1.28      1.20
    7   12   15     -0.42      0.20
    8   12   15     -1.25     -1.15
    0   13   15     -0.70     -0.86
    1   13   15     -0.35     -0.64
    2   13   15      1.38     -0.05
    3   13   15      0.70      0.32
    4   13   15     -2.32      0.50
    5   13   15     -0.82      0.16
    6   13   15      1.55      0.25
    7   13   15      0.39      0.17
    0   14   15     -0.17      0.17
    1   14   15     -0.57      0.45
    2   14   15     -0.46     -0.73
    3   14   15      0.52      0.02
    4   14   15      0.29      0.62
    0    0   16      4.03      0.45
    0    1   16      0.23     -1.93
    6    6   16      1.55      0.05
    6    7   16     -1.20     -1.40
    7    7   16      3.22      0.00
    5    8   16     -2.74      2.02
    6    8   16      0.20      0.23
    7    8   16      0.55     -2.28
    8    8   16      0.06     -0.01
    4    9   16     -0.80     -0.86
    5    9   16      1.76     -1.64
    6    9   16      0.67      1.36
    7    9   16     -1.81      1.01
    8    9   16      0.44     -0.46
    0   10   16      2.16     -0.02
    1   10   16      0.54      0.77
    2   10   16     -1.79     -0.14
    3   10   16     -2.27     -0.66
    4   10   16      1.34      0.55
    5   10   16      2.15     -1.22
    6   10   16     -1.04     -0.25
    7   10   16     -0.45      1.08
    0   11   16      0.02      1.03
    1   11   16     -1.00     -2.64
    2   11   16     -0.39     -1.53
    3   11   16      1.34      0.66
    4   11   16     -0.20      1.34
    5   11   16     -0.68      0.99
    6   11   16      0.39     -0.18
    0   12   16     -1.14      0.13
    1   12   16     -0.57     -0.65
    2   12   16      1.07      0.40
    3   12   16      0.69      0.80
    4   12   16     -0.63     -0.10
    0    0    0      0.00      0.00
# SQUEEZE RESULTS (Version =  30416)
# Note: Data are Listed for all Voids in the P1 Unit Cell
# i.e. Centre of Gravity, Solvent Accessible Volume,
# Recovered number of Electrons in the Void and
# Details about the Squeezed Material
loop_
  _platon_squeeze_void_nr
  _platon_squeeze_void_average_x
  _platon_squeeze_void_average_y
  _platon_squeeze_void_average_z
  _platon_squeeze_void_volume
  _platon_squeeze_void_count_electrons
  _platon_squeeze_void_content
   1  0.250  0.250 -0.011       543       151 ' '
   2  0.250  0.750 -0.044       544       150 ' '
   3  0.750  0.750 -0.014       544       151 ' '
   4  0.750  0.250  0.020       543       150 ' '
# Missing Reflections Below sin(th)/lambda = 0.25
loop_
  _platon_missing_refln_index_h
  _platon_missing_refln_index_k
  _platon_missing_refln_index_l
  _platon_missing_refln_theta
    2    2    0     6.456
    2    6    0    14.561
    2    2    1     7.177
    2    2    2     9.008
_platon_squeeze_void_probe_radius                  1.20
_platon_squeeze_details
)
TITL test.res in P4(3)2(1)2
CELL   19.3938   19.3938   14.1496     90.00     90.00     90.00
SPGR P43212
# Solvent Accessible Volume =      2179
# Electrons Found in S.A.V. =       601
# Note: Atoms in Void as Cxxx and Qxxx all others
C101 0.796 0.863 0.543 !       1.58 eA-3
C102 0.326 0.328 0.498 !       1.41 eA-3
C103 0.341 0.253 0.784 !       1.35 eA-3
C104 0.665 0.235 0.325 !       1.31 eA-3
C105 0.152 0.172 0.908 !       1.30 eA-3
Q106 0.201 0.188 0.510 !       1.26 eA-3
C107 0.144 0.141 0.003 !       1.26 eA-3
C108 0.233 0.657 0.719 !       1.24 eA-3
C109 0.318 0.313 0.006 !       1.21 eA-3
C110 0.652 0.702 0.335 !       1.19 eA-3
C111 0.649 0.706 0.272 !       1.19 eA-3
C112 0.170 0.250 0.781 !       1.14 eA-3
C113 0.693 0.141 0.041 !       1.13 eA-3
C114 0.233 0.670 0.601 !       1.10 eA-3
C115 0.818 0.282 0.836 !       1.05 eA-3
C116 0.139 0.171 0.056 !       1.04 eA-3
C117 0.342 0.842 0.651 !       1.03 eA-3
C118 0.807 0.295 0.906 !       1.02 eA-3
C119 0.267 0.340 0.283 !       1.02 eA-3
C120 0.221 0.341 0.332 !       1.02 eA-3
C121 0.170 0.238 0.828 !       1.01 eA-3
C122 0.738 0.702 0.694 !       1.01 eA-3
C123 0.159 0.638 0.880 !       1.00 eA-3
C124 0.164 0.659 0.845 !       0.98 eA-3
C125 0.752 0.660 0.665 !       0.97 eA-3
Q126 0.358 0.659 0.583 !       0.97 eA-3
C127 0.827 0.313 0.301 !       0.97 eA-3
C128 0.787 0.154 0.830 !       0.95 eA-3
Q129 0.145 0.344 0.268 !       0.94 eA-3
C130 0.716 0.719-0.003 !       0.93 eA-3
C131 0.146 0.682 0.034 !       0.91 eA-3
C132 0.743 0.721 0.746 !       0.90 eA-3
C133 0.266 0.340 0.460 !       0.89 eA-3
C134 0.150 0.687 0.873 !       0.89 eA-3
C135 0.231 0.703 0.496 !       0.89 eA-3
Q136 0.659 0.298 0.472 !       0.89 eA-3
C137 0.664 0.706 0.453 !       0.88 eA-3
C138 0.649 0.708 0.193 !       0.88 eA-3
C139 0.786 0.266 0.846 !       0.86 eA-3
C140 0.298 0.238 0.468 !       0.85 eA-3
C141 0.234 0.293 0.532 !       0.85 eA-3
C142 0.152 0.784 0.842 !       0.84 eA-3
C143 0.727 0.701 0.809 !       0.84 eA-3
Q144 0.133 0.267 0.798 !       0.84 eA-3
C145 0.335 0.218 0.949 !       0.82 eA-3
C146 0.729 0.170 0.164 !       0.81 eA-3
Q147 0.845 0.342 0.579 !       0.79 eA-3
C148 0.771 0.140 0.191 !       0.79 eA-3
C149 0.653 0.312 0.055 !       0.78 eA-3
C150 0.720 0.702 0.868 !       0.77 eA-3
Q151 0.919 0.827 0.516 !       0.77 eA-3
C152 0.266 0.783 0.052 !       0.77 eA-3
C153 0.767 0.799 0.708 !       0.76 eA-3
C154 0.786 0.716 0.780 !       0.75 eA-3
C155 0.320 0.298 0.926 !       0.75 eA-3
C156 0.221 0.778 0.319 !       0.75 eA-3
C157 0.762 0.128 0.932 !       0.75 eA-3
C158 0.847 0.690 0.446 !       0.74 eA-3
C159 0.208 0.266 0.512 !       0.74 eA-3
C160 0.772 0.734 0.805 !       0.73 eA-3
C161 0.279 0.327 0.536 !       0.73 eA-3
C162 0.805 0.298 0.455 !       0.73 eA-3
C163 0.359 0.784 0.616 !       0.73 eA-3
Q164 0.419 0.673 0.735 !       0.73 eA-3
C165 0.681 0.283 0.986 !       0.72 eA-3
C166 0.681 0.266 0.891 !       0.71 eA-3
C167 0.720 0.275 0.548 !       0.71 eA-3
C168 0.267 0.346 0.359 !       0.70 eA-3
C169 0.774 0.245 0.015 !       0.70 eA-3
Q170 0.315 0.887 0.325 !       0.68 eA-3
C171 0.251 0.675 0.987 !       0.67 eA-3
Q172 0.216 0.812 0.968 !       0.67 eA-3
C173 0.133 0.233 0.094 !       0.66 eA-3
C174 0.677 0.293 0.162 !       0.66 eA-3
Q175 0.817 0.590 0.633 !       0.64 eA-3
C176 0.287 0.218 0.188 !       0.64 eA-3
C177 0.823 0.286 0.692 !       0.63 eA-3
C178 0.735 0.749 0.871 !       0.63 eA-3
C179 0.295 0.812 0.377 !       0.62 eA-3
Q180 0.191 0.157 0.631 !       0.62 eA-3
C181 0.268 0.791 0.381 !       0.62 eA-3
C182 0.803 0.271 0.628 !       0.62 eA-3
C183 0.818 0.152 0.869 !       0.62 eA-3
C184 0.782 0.725 0.622 !       0.62 eA-3
Q185 0.793 0.748 0.161 !       0.62 eA-3
Q186 0.172 0.057 1.008 !       0.61 eA-3
C187 0.669 0.296 0.085 !       0.61 eA-3
C188 0.817 0.249 0.645 !       0.61 eA-3
C189 0.251 0.735 0.513 !       0.59 eA-3
C190 0.173 0.621 0.758 !       0.59 eA-3
Q191 0.828 0.300 0.137 !       0.58 eA-3
Q192 0.714 0.608 0.878 !       0.58 eA-3
C193 0.816 0.233 0.862 !       0.57 eA-3
Q194 0.698 0.290 0.875 !       0.57 eA-3
C195 0.175 0.862 0.659 !       0.57 eA-3
C196 0.403 0.733 0.698 !       0.56 eA-3
C197 0.343 0.799 0.484 !       0.56 eA-3
Q198 0.297 0.155 0.535 !       0.55 eA-3
Q199 0.697 0.845 0.704 !       0.54 eA-3
)
;
_shelx_fab_checksum              97829
loop_
_space_group_symop_operation_xyz
'x, y, z'
'-x, -y, z+1/2'
'-y+1/2, x+1/2, z+3/4'
'y+1/2, -x+1/2, z+1/4'
'-x+1/2, y+1/2, -z+3/4'
'x+1/2, -y+1/2, -z+1/4'
'y, x, -z'
'-y, -x, -z+1/2'
loop_
_atom_site_label
_atom_site_type_symbol
_atom_site_fract_x
_atom_site_fract_y
_atom_site_fract_z
_atom_site_U_iso_or_equiv
_atom_site_adp_type
_atom_site_occupancy
_atom_site_site_symmetry_order
_atom_site_calc_flag
_atom_site_refinement_flags_posn
_atom_site_refinement_flags_adp
_atom_site_refinement_flags_occupancy
_atom_site_disorder_assembly
_atom_site_disorder_group
Zn1 Zn 1.03637(3) 0.49259(3) 0.64206(3) 0.03020(14) Uani 1 1 d . . . . .
Zn2 Zn 0.46445(3) 0.53555(3) 0.2500 0.03094(18) Uani 1 2 d S T P . .
Zn3 Zn 0.49187(3) 0.49187(3) 0.5000 0.03102(18) Uani 1 2 d S T P C .
O1 O 0.93783(18) 0.4954(3) 0.6783(3) 0.0892(18) Uani 1 1 d . U . . .
O2 O 0.90275(17) 0.4717(3) 0.8204(3) 0.0726(14) Uani 1 1 d . . . . .
O4 O 0.56277(14) 0.47706(15) 0.6049(2) 0.0358(6) Uani 1 1 d . . . . .
O6 O 0.4864(2) 0.40353(16) 0.4290(2) 0.0573(10) Uani 1 1 d . . . . .
O7 O 0.4554(3) 0.1152(2) 0.0873(2) 0.0875(17) Uani 1 1 d . . . . .
O8 O 0.47141(15) 0.06270(14) 0.22093(18) 0.0338(6) Uani 1 1 d . . . . .
N1 N 0.7563(3) 0.4681(5) 0.8440(3) 0.109(3) Uani 1 1 d . U . . .
N2 N 0.6432(2) 0.4667(4) 0.7690(3) 0.0713(17) Uani 1 1 d . . . . .
N3 N 0.5061(5) 0.2591(2) 0.4521(3) 0.105(3) Uani 1 1 d . . . . .
N4 N 0.4963(3) 0.1440(2) 0.3791(3) 0.0661(15) Uani 1 1 d . . . . .
C1 C 0.8931(2) 0.4833(3) 0.7366(4) 0.0498(12) Uani 1 1 d . . . . .
C2 C 0.8217(3) 0.4837(4) 0.6972(4) 0.073(2) Uani 1 1 d . . . . .
C3 C 0.8126(3) 0.4864(6) 0.6026(4) 0.117(3) Uani 1 1 d . U . . .
H3 H 0.8521 0.4903 0.5631 0.140 Uiso 1 1 calc R U . . .
C4 C 0.7451(3) 0.4837(6) 0.5590(5) 0.114(3) Uani 1 1 d . U . . .
H4 H 0.7426 0.4835 0.4919 0.137 Uiso 1 1 calc R U . . .
C5 C 0.6854(3) 0.4815(5) 0.6082(4) 0.079(2) Uani 1 1 d . . . . .
C6 C 0.6933(2) 0.4741(3) 0.7074(3) 0.0439(11) Uani 1 1 d . . . . .
C7 C 0.7604(2) 0.4735(3) 0.7515(3) 0.0550(14) Uani 1 1 d . . . . .
C8 C 0.6179(3) 0.4860(4) 0.5589(4) 0.0615(17) Uani 1 1 d . . . . .
C9 C 0.4764(3) 0.3935(3) 0.3454(4) 0.0551(14) Uani 1 1 d . . . . .
C10 C 0.4742(4) 0.3210(3) 0.3073(4) 0.071(2) Uani 1 1 d . . . . .
C11 C 0.4499(4) 0.3118(3) 0.2156(4) 0.078(2) Uani 1 1 d . . . . .
H11 H 0.4364 0.3509 0.1796 0.094 Uiso 1 1 calc R U . . .
C12 C 0.4449(4) 0.2452(3) 0.1749(4) 0.0693(19) Uani 1 1 d . . . . .
H12 H 0.4278 0.2412 0.1121 0.083 Uiso 1 1 calc R U . . .
C13 C 0.4636(4) 0.1862(3) 0.2220(3) 0.0562(14) Uani 1 1 d . . . . .
C14 C 0.4825(3) 0.1942(2) 0.3183(3) 0.0446(11) Uani 1 1 d . . . . .
C15 C 0.4872(4) 0.2612(2) 0.3613(3) 0.0549(14) Uani 1 1 d . . . . .
C16 C 0.4630(3) 0.1182(3) 0.1726(3) 0.0513(13) Uani 1 1 d . . . . .
S1 S 0.67515(13) 0.4732(8) 0.87347(18) 0.099(4) Uani 0.725(19) 1 d . . P A 1
S2 S 0.5257(9) 0.1777(6) 0.4731(10) 0.085(4) Uani 0.45(5) 1 d . . P B 1
O3 O 0.6139(10) 0.526(3) 0.493(2) 0.054(8) Uani 0.27(6) 1 d . . P C 1
O5 O 0.4912(7) 0.4407(4) 0.2778(5) 0.048(3) Uani 0.509(18) 1 d . . P D 1
S1' S 0.6840(5) 0.4215(11) 0.8640(8) 0.066(4) Uani 0.275(19) 1 d . . P A 2
S2' S 0.5025(18) 0.1788(5) 0.4848(9) 0.131(5) Uani 0.55(5) 1 d . . P B 2
O3' O 0.6174(4) 0.4899(17) 0.4680(13) 0.068(6) Uani 0.73(6) 1 d . . P C 2
O5' O 0.4430(7) 0.4362(3) 0.2977(6) 0.045(3) Uani 0.491(18) 1 d . . P D 2
loop_
_atom_site_aniso_label
_atom_site_aniso_U_11
_atom_site_aniso_U_22
_atom_site_aniso_U_33
_atom_site_aniso_U_23
_atom_site_aniso_U_13
_atom_site_aniso_U_12
Zn1 0.0291(3) 0.0341(3) 0.0274(3) 0.0054(2) 0.00152(19) -0.0006(2)
Zn2 0.0296(2) 0.0296(2) 0.0337(4) -0.0015(2) -0.0015(2) 0.0006(3)
Zn3 0.0321(2) 0.0321(2) 0.0289(3) 0.0032(2) -0.0032(2) 0.0012(3)
O1 0.0277(17) 0.194(5) 0.046(2) 0.038(3) 0.0027(15) -0.003(3)
O2 0.0312(18) 0.151(4) 0.0358(18) 0.023(2) 0.0031(14) -0.005(2)
O4 0.0293(14) 0.0430(17) 0.0350(14) 0.0044(12) -0.0008(12) -0.0012(12)
O6 0.102(3) 0.0328(18) 0.0368(18) 0.0005(13) -0.0041(19) -0.0037(19)
O7 0.185(6) 0.050(2) 0.0274(19) -0.0024(16) -0.012(3) -0.007(3)
O8 0.0408(16) 0.0312(14) 0.0294(13) -0.0026(11) -0.0017(12) 0.0002(11)
N1 0.041(3) 0.256(8) 0.031(2) -0.003(4) -0.006(2) -0.024(4)
N2 0.029(2) 0.153(5) 0.031(2) -0.002(3) 0.0001(17) -0.020(3)
N3 0.237(9) 0.032(2) 0.046(3) -0.002(2) -0.052(4) 0.005(4)
N4 0.132(5) 0.029(2) 0.037(2) -0.0027(17) -0.028(3) 0.005(3)
C1 0.026(2) 0.078(4) 0.046(3) 0.011(2) 0.0101(19) -0.002(2)
C2 0.031(3) 0.138(7) 0.050(3) 0.023(4) 0.002(2) -0.003(3)
C3 0.048(3) 0.252(10) 0.050(3) 0.052(5) 0.000(3) -0.018(5)
C4 0.054(4) 0.227(10) 0.060(4) 0.053(5) -0.003(3) -0.012(5)
C5 0.037(3) 0.150(7) 0.052(3) 0.046(4) -0.006(2) -0.007(4)
C6 0.028(2) 0.068(3) 0.035(2) -0.002(2) -0.0005(17) -0.006(2)
C7 0.030(2) 0.103(4) 0.032(2) 0.003(3) 0.0016(19) -0.012(2)
C8 0.034(3) 0.104(5) 0.046(3) 0.029(3) 0.001(2) -0.003(3)
C9 0.087(4) 0.033(2) 0.045(3) 0.002(2) -0.006(3) 0.006(2)
C10 0.136(6) 0.033(3) 0.044(3) -0.001(2) -0.022(3) 0.005(3)
C11 0.159(7) 0.038(3) 0.038(3) 0.007(2) -0.018(4) 0.011(4)
C12 0.120(6) 0.043(3) 0.044(3) 0.002(2) -0.012(3) 0.003(3)
C13 0.100(4) 0.037(3) 0.033(2) -0.003(2) -0.011(3) 0.001(3)
C14 0.071(3) 0.031(2) 0.032(2) -0.0024(17) -0.007(2) 0.003(2)
C15 0.104(4) 0.029(2) 0.031(2) 0.0005(18) -0.015(3) 0.005(3)
C16 0.086(4) 0.037(3) 0.031(2) 0.0016(18) -0.007(2) -0.003(3)
S1 0.0285(10) 0.240(11) 0.0294(10) -0.019(2) 0.0008(7) -0.020(2)
S2 0.162(10) 0.037(3) 0.057(6) -0.012(3) -0.064(5) 0.012(3)
O3 0.037(7) 0.10(2) 0.025(8) -0.010(13) 0.006(6) -0.011(9)
O5 0.067(8) 0.038(3) 0.038(3) 0.000(3) -0.004(4) 0.003(3)
S1' 0.042(3) 0.122(10) 0.034(4) 0.020(4) -0.003(2) -0.019(4)
S2' 0.340(15) 0.025(2) 0.028(2) -0.0019(14) -0.036(6) 0.028(5)
O3' 0.044(3) 0.132(16) 0.028(5) 0.020(7) -0.004(3) 0.000(4)
O5' 0.057(7) 0.031(3) 0.047(4) 0.006(3) -0.013(4) -0.012(3)
loop_
_atom_type_symbol
_atom_type_description
_atom_type_scat_dispersion_real
_atom_type_scat_dispersion_imag
_atom_type_scat_source
C C 0.0181 0.0091 'International Tables Vol C Tables 4.2.6.8 and 6.1.1.4'
H H 0.0000 0.0000 'International Tables Vol C Tables 4.2.6.8 and 6.1.1.4'
N N 0.0311 0.0180 'International Tables Vol C Tables 4.2.6.8 and 6.1.1.4'
O O 0.0492 0.0322 'International Tables Vol C Tables 4.2.6.8 and 6.1.1.4'
S S 0.3331 0.5567 'International Tables Vol C Tables 4.2.6.8 and 6.1.1.4'
Zn Zn -1.5491 0.6778 'International Tables Vol C Tables 4.2.6.8 and 6.1.1.4'
loop_
_geom_angle_atom_site_label_1
_geom_angle_atom_site_label_2
_geom_angle_atom_site_label_3
_geom_angle
_geom_angle_site_symmetry_1
_geom_angle_site_symmetry_3
O1 Zn1 O2 94.5(2) . 3_644
O1 Zn1 O8 90.04(13) . 7_656
O2 Zn1 O8 108.77(13) 3_644 7_656
O1 Zn1 O8 96.32(15) . 5_655
O2 Zn1 O8 99.78(12) 3_644 5_655
O8 Zn1 O8 150.17(11) 7_656 5_655
O1 Zn1 N4 172.3(2) . 7_656
O2 Zn1 N4 92.0(2) 3_644 7_656
O8 Zn1 N4 83.96(14) 7_656 7_656
O8 Zn1 N4 86.62(15) 5_655 7_656
O1 Zn1 O7 90.3(2) . 5_655
O2 Zn1 O7 156.84(13) 3_644 5_655
O8 Zn1 O7 93.83(12) 7_656 5_655
O8 Zn1 O7 57.14(11) 5_655 5_655
N4 Zn1 O7 85.3(2) 7_656 5_655
O1 Zn1 C16 94.0(2) . 5_655
O2 Zn1 C16 129.09(14) 3_644 5_655
O8 Zn1 C16 121.32(13) 7_656 5_655
O8 Zn1 C16 29.35(13) 5_655 5_655
N4 Zn1 C16 85.1(2) 7_656 5_655
O7 Zn1 C16 27.80(13) 5_655 5_655
O5 Zn2 O5 62.6(8) 8_665 .
O5' Zn2 O5' 118.3(7) 8_665 .
O5 Zn2 N2 102.6(4) 8_665 7_556
O5 Zn2 N2 162.8(4) . 7_556
O5' Zn2 N2 75.0(4) 8_665 7_556
O5' Zn2 N2 164.3(4) . 7_556
O5 Zn2 N2 162.8(4) 8_665 2_664
O5 Zn2 N2 102.6(4) . 2_664
O5' Zn2 N2 164.3(4) 8_665 2_664
O5' Zn2 N2 75.0(4) . 2_664
N2 Zn2 N2 93.3(4) 7_556 2_664
O5 Zn2 O4 90.5(2) 8_665 2_664
O5 Zn2 O4 98.7(2) . 2_664
O5' Zn2 O4 86.5(2) 8_665 2_664
O5' Zn2 O4 99.0(2) . 2_664
N2 Zn2 O4 89.74(14) 7_556 2_664
N2 Zn2 O4 82.87(14) 2_664 2_664
O5 Zn2 O4 98.7(2) 8_665 7_556
O5 Zn2 O4 90.5(2) . 7_556
O5' Zn2 O4 99.0(2) 8_665 7_556
O5' Zn2 O4 86.5(2) . 7_556
N2 Zn2 O4 82.87(14) 7_556 7_556
N2 Zn2 O4 89.74(14) 2_664 7_556
O4 Zn2 O4 169.24(17) 2_664 7_556
O6 Zn3 O6 99.5(3) 7_556 .
O6 Zn3 O4 101.81(12) 7_556 .
O6 Zn3 O4 106.37(14) . .
O6 Zn3 O4 106.37(14) 7_556 7_556
O6 Zn3 O4 101.81(12) . 7_556
O4 Zn3 O4 135.79(16) . 7_556
O6 Zn3 O3 105.2(15) 7_556 7_556
O6 Zn3 O3 149.8(11) . 7_556
O4 Zn3 O3 85.6(7) . 7_556
O4 Zn3 O3 54.7(5) 7_556 7_556
O6 Zn3 O3 149.8(11) 7_556 .
O6 Zn3 O3 105.2(15) . .
O4 Zn3 O3 54.7(5) . .
O4 Zn3 O3 85.6(7) 7_556 .
O3 Zn3 O3 59(3) 7_556 .
O6 Zn3 O3' 86.9(9) 7_556 7_556
O6 Zn3 O3' 159.8(3) . 7_556
O4 Zn3 O3' 90.9(3) . 7_556
O4 Zn3 O3' 58.0(3) 7_556 7_556
O6 Zn3 O3' 159.7(3) 7_556 .
O6 Zn3 O3' 86.9(9) . .
O4 Zn3 O3' 58.0(3) . .
O4 Zn3 O3' 90.9(3) 7_556 .
O3' Zn3 O3' 93.6(17) 7_556 .
O6 Zn3 C8 100.1(2) 7_556 7_556
O6 Zn3 C8 130.45(15) . 7_556
O4 Zn3 C8 113.39(15) . 7_556
O4 Zn3 C8 28.76(14) 7_556 7_556
O3 Zn3 C8 27.9(6) 7_556 7_556
O3 Zn3 C8 76.9(12) . 7_556
O3' Zn3 C8 29.4(4) 7_556 7_556
O3' Zn3 C8 89.9(6) . 7_556
O6 Zn3 C8 130.44(15) 7_556 .
O6 Zn3 C8 100.1(2) . .
O4 Zn3 C8 28.75(14) . .
O4 Zn3 C8 113.39(15) 7_556 .
O3 Zn3 C8 76.9(12) 7_556 .
O3 Zn3 C8 27.9(6) . .
O3' Zn3 C8 89.9(6) 7_556 .
O3' Zn3 C8 29.4(4) . .
C8 Zn3 C8 100.8(3) 7_556 .
C1 O1 Zn1 148.9(4) . .
C1 O2 Zn1 129.3(3) . 4_565
C8 O4 Zn3 100.1(3) . .
C8 O4 Zn2 136.1(3) . 2_665
Zn3 O4 Zn2 123.29(14) . 2_665
C9 O6 Zn3 129.7(3) . .
C16 O7 Zn1 85.3(3) . 5_645
C16 O8 Zn1 137.6(3) . 7_546
C16 O8 Zn1 97.3(3) . 5_645
Zn1 O8 Zn1 124.98(14) 7_546 5_645
C7 N1 S1 107.9(4) . .
C7 N1 S1' 105.0(6) . .
C6 N2 S1 108.5(3) . .
C6 N2 S1' 103.0(5) . .
C6 N2 Zn2 130.6(3) . 2_665
S1 N2 Zn2 120.1(2) . 2_665
S1' N2 Zn2 121.7(3) . 2_665
C15 N3 S2' 106.9(5) . .
C15 N3 S2 105.4(5) . .
C14 N4 S2 108.3(5) . .
C14 N4 S2' 107.7(5) . .
C14 N4 Zn1 128.8(3) . 7_546
S2 N4 Zn1 122.6(5) . 7_546
S2' N4 Zn1 122.5(4) . 7_546
O1 C1 O2 125.7(4) . .
O1 C1 C2 113.9(5) . .
O2 C1 C2 120.4(4) . .
C3 C2 C7 115.5(5) . .
C3 C2 C1 119.5(5) . .
C7 C2 C1 124.7(5) . .
C2 C3 C4 122.6(6) . .
C2 C3 H3 118.7 . .
C4 C3 H3 118.7 . .
C5 C4 C3 123.8(6) . .
C5 C4 H4 118.1 . .
C3 C4 H4 118.1 . .
C4 C5 C6 114.9(5) . .
C4 C5 C8 120.8(5) . .
C6 C5 C8 124.4(5) . .
N2 C6 C5 126.1(4) . .
N2 C6 C7 112.3(4) . .
C5 C6 C7 121.7(4) . .
N1 C7 C2 126.7(5) . .
N1 C7 C6 112.1(4) . .
C2 C7 C6 121.0(4) . .
O3 C8 O4 115.5(14) . .
O4 C8 O3' 121.1(6) . .
O3 C8 C5 117.0(11) . .
O4 C8 C5 119.7(5) . .
O3' C8 C5 118.5(6) . .
O3 C8 Zn3 70.4(9) . .
O4 C8 Zn3 51.1(2) . .
O3' C8 Zn3 70.7(4) . .
C5 C8 Zn3 170.8(4) . .
O6 C9 O5' 120.2(6) . .
O6 C9 O5 123.0(5) . .
O6 C9 C10 120.2(4) . .
O5' C9 C10 114.2(5) . .
O5 C9 C10 112.6(5) . .
C11 C10 C15 117.3(5) . .
C11 C10 C9 117.7(5) . .
C15 C10 C9 124.5(5) . .
C10 C11 C12 121.3(5) . .
C10 C11 H11 119.3 . .
C12 C11 H11 119.3 . .
C13 C12 C11 122.9(5) . .
C13 C12 H12 118.5 . .
C11 C12 H12 118.5 . .
C12 C13 C14 116.3(5) . .
C12 C13 C16 120.4(4) . .
C14 C13 C16 123.3(5) . .
N4 C14 C13 126.5(4) . .
N4 C14 C15 112.1(4) . .
C13 C14 C15 121.5(4) . .
N3 C15 C10 126.5(5) . .
N3 C15 C14 113.4(4) . .
C10 C15 C14 120.1(4) . .
O7 C16 O8 120.2(5) . .
O7 C16 C13 120.5(5) . .
O8 C16 C13 119.3(4) . .
O7 C16 Zn1 66.9(3) . 5_645
O8 C16 Zn1 53.4(2) . 5_645
C13 C16 Zn1 172.6(3) . 5_645
N2 S1 N1 97.6(3) . .
N4 S2 N3 99.2(5) . .
C8 O3 Zn3 81.7(11) . .
C9 O5 Zn2 136.4(7) . .
N1 S1' N2 88.9(5) . .
N3 S2' N4 97.9(6) . .
C8 O3' Zn3 79.9(6) . .
C9 O5' Zn2 133.2(8) . .
loop_
_geom_bond_atom_site_label_1
_geom_bond_atom_site_label_2
_geom_bond_distance
_geom_bond_site_symmetry_2
Zn1 O1 1.976(4) .
Zn1 O2 2.019(4) 3_644
Zn1 O8 2.044(3) 7_656
Zn1 O8 2.101(3) 5_655
Zn1 N4 2.107(4) 7_656
Zn1 O7 2.396(4) 5_655
Zn1 C16 2.597(5) 5_655
Zn2 O5 1.948(6) 8_665
Zn2 O5 1.948(6) .
Zn2 O5' 2.079(7) 8_665
Zn2 O5' 2.079(7) .
Zn2 N2 2.101(4) 7_556
Zn2 N2 2.101(4) 2_664
Zn2 O4 2.132(3) 2_664
Zn2 O4 2.132(3) 7_556
Zn3 O6 1.986(3) 7_556
Zn3 O6 1.986(3) .
Zn3 O4 2.040(3) .
Zn3 O4 2.040(3) 7_556
Zn3 O3 2.456(18) 7_556
Zn3 O3 2.456(18) .
Zn3 O3' 2.473(9) 7_556
Zn3 O3' 2.473(9) .
Zn3 C8 2.580(5) 7_556
Zn3 C8 2.580(5) .
O1 C1 1.218(5) .
O2 C1 1.220(6) .
O2 Zn1 2.019(4) 4_565
O4 C8 1.261(6) .
O4 Zn2 2.132(3) 2_665
O6 C9 1.213(6) .
O7 C16 1.215(6) .
O7 Zn1 2.396(4) 5_645
O8 C16 1.283(6) .
O8 Zn1 2.044(3) 7_546
O8 Zn1 2.101(3) 5_645
N1 C7 1.314(7) .
N1 S1 1.628(6) .
N1 S1' 1.689(10) .
N2 C6 1.311(6) .
N2 S1 1.606(4) .
N2 S1' 1.786(9) .
N2 Zn2 2.101(4) 2_665
N3 C15 1.334(6) .
N3 S2' 1.624(10) .
N3 S2 1.648(12) .
N4 C14 1.325(6) .
N4 S2 1.586(10) .
N4 S2' 1.642(12) .
N4 Zn1 2.106(4) 7_546
C1 C2 1.490(7) .
C2 C3 1.350(8) .
C2 C7 1.427(7) .
C3 C4 1.445(9) .
C3 H3 0.9500 .
C4 C5 1.349(8) .
C4 H4 0.9500 .
C5 C6 1.418(7) .
C5 C8 1.484(7) .
C6 C7 1.442(6) .
C8 O3 1.22(3) .
C8 O3' 1.287(17) .
C9 O5' 1.249(9) .
C9 O5 1.352(10) .
C9 C10 1.502(7) .
C10 C11 1.390(8) .
C10 C15 1.410(7) .
C11 C12 1.416(8) .
C11 H11 0.9500 .
C12 C13 1.370(7) .
C12 H12 0.9500 .
C13 C14 1.418(7) .
C13 C16 1.491(7) .
C14 C15 1.436(6) .
C16 Zn1 2.597(5) 5_645
loop_
_geom_torsion_atom_site_label_1
_geom_torsion_atom_site_label_2
_geom_torsion_atom_site_label_3
_geom_torsion_atom_site_label_4
_geom_torsion
_geom_torsion_site_symmetry_1
_geom_torsion_site_symmetry_4
Zn1 O1 C1 O2 17.1(16) . .
Zn1 O1 C1 C2 -163.1(8) . .
Zn1 O2 C1 O1 -3.2(11) 4_565 .
Zn1 O2 C1 C2 177.0(5) 4_565 .
O1 C1 C2 C3 9.9(12) . .
O2 C1 C2 C3 -170.3(9) . .
O1 C1 C2 C7 -177.6(7) . .
O2 C1 C2 C7 2.2(12) . .
C7 C2 C3 C4 3.8(17) . .
C1 C2 C3 C4 177.0(9) . .
C2 C3 C4 C5 3.2(19) . .
C3 C4 C5 C6 -6.9(16) . .
C3 C4 C5 C8 173.7(10) . .
S1 N2 C6 C5 -170.5(8) . .
S1' N2 C6 C5 154.0(9) . .
Zn2 N2 C6 C5 -1.2(11) 2_665 .
S1 N2 C6 C7 9.9(9) . .
S1' N2 C6 C7 -25.6(9) . .
Zn2 N2 C6 C7 179.2(5) 2_665 .
C4 C5 C6 N2 -175.8(8) . .
C8 C5 C6 N2 3.6(13) . .
C4 C5 C6 C7 3.8(12) . .
C8 C5 C6 C7 -176.8(7) . .
S1 N1 C7 C2 168.3(8) . .
S1' N1 C7 C2 -154.3(10) . .
S1 N1 C7 C6 -6.6(10) . .
S1' N1 C7 C6 30.8(11) . .
C3 C2 C7 N1 178.9(10) . .
C1 C2 C7 N1 6.1(14) . .
C3 C2 C7 C6 -6.6(12) . .
C1 C2 C7 C6 -179.4(6) . .
N2 C6 C7 N1 -2.2(9) . .
C5 C6 C7 N1 178.2(8) . .
N2 C6 C7 C2 -177.4(7) . .
C5 C6 C7 C2 3.0(10) . .
Zn3 O4 C8 O3 31(3) . .
Zn2 O4 C8 O3 -141(3) 2_665 .
Zn3 O4 C8 O3' -10.5(19) . .
Zn2 O4 C8 O3' 177.9(18) 2_665 .
Zn3 O4 C8 C5 178.8(6) . .
Zn2 O4 C8 C5 7.2(11) 2_665 .
Zn2 O4 C8 Zn3 -171.6(6) 2_665 .
C4 C5 C8 O3 -39(4) . .
C6 C5 C8 O3 141(3) . .
C4 C5 C8 O4 173.1(8) . .
C6 C5 C8 O4 -6.3(12) . .
C4 C5 C8 O3' 2(2) . .
C6 C5 C8 O3' -177.3(19) . .
Zn3 O6 C9 O5' -27.1(11) . .
Zn3 O6 C9 O5 24.8(11) . .
Zn3 O6 C9 C10 -179.8(5) . .
O6 C9 C10 C11 168.1(8) . .
O5' C9 C10 C11 14.0(12) . .
O5 C9 C10 C11 -34.1(11) . .
O6 C9 C10 C15 -4.0(12) . .
O5' C9 C10 C15 -158.2(10) . .
O5 C9 C10 C15 153.8(9) . .
C15 C10 C11 C12 -6.1(13) . .
C9 C10 C11 C12 -178.8(7) . .
C10 C11 C12 C13 -0.3(13) . .
C11 C12 C13 C14 5.9(11) . .
C11 C12 C13 C16 -174.6(7) . .
S2 N4 C14 C13 171.5(10) . .
S2' N4 C14 C13 -170.7(14) . .
Zn1 N4 C14 C13 -2.1(10) 7_546 .
S2 N4 C14 C15 -9.7(11) . .
S2' N4 C14 C15 8.1(15) . .
Zn1 N4 C14 C15 176.8(5) 7_546 .
C12 C13 C14 N4 173.6(7) . .
C16 C13 C14 N4 -6.0(11) . .
C12 C13 C14 C15 -5.1(10) . .
C16 C13 C14 C15 175.3(6) . .
S2' N3 C15 C10 171.1(15) . .
S2 N3 C15 C10 -171.4(10) . .
S2' N3 C15 C14 -10.6(16) . .
S2 N3 C15 C14 6.9(11) . .
C11 C10 C15 N3 -175.2(9) . .
C9 C10 C15 N3 -3.0(14) . .
C11 C10 C15 C14 6.7(11) . .
C9 C10 C15 C14 178.8(7) . .
N4 C14 C15 N3 1.6(9) . .
C13 C14 C15 N3 -179.5(7) . .
N4 C14 C15 C10 180.0(7) . .
C13 C14 C15 C10 -1.1(10) . .
Zn1 O7 C16 O8 1.1(6) 5_645 .
Zn1 O7 C16 C13 -179.6(6) 5_645 .
Zn1 O8 C16 O7 174.7(5) 7_546 .
Zn1 O8 C16 O7 -1.2(7) 5_645 .
Zn1 O8 C16 C13 -4.6(9) 7_546 .
Zn1 O8 C16 C13 179.5(5) 5_645 .
Zn1 O8 C16 Zn1 175.9(5) 7_546 5_645
C12 C13 C16 O7 10.2(11) . .
C14 C13 C16 O7 -170.2(7) . .
C12 C13 C16 O8 -170.5(6) . .
C14 C13 C16 O8 9.1(10) . .
C6 N2 S1 N1 -12.3(10) . .
Zn2 N2 S1 N1 177.1(5) 2_665 .
C7 N1 S1 N2 11.0(11) . .
C14 N4 S2 N3 12.4(13) . .
Zn1 N4 S2 N3 -173.5(6) 7_546 .
C15 N3 S2 N4 -11.2(13) . .
O4 C8 O3 Zn3 -25(2) . .
C5 C8 O3 Zn3 -174.0(8) . .
O6 C9 O5 Zn2 -58.0(15) . .
C10 C9 O5 Zn2 145.0(8) . .
C7 N1 S1' N2 -38.6(11) . .
C6 N2 S1' N1 37.0(10) . .
Zn2 N2 S1' N1 -165.0(5) 2_665 .
C15 N3 S2' N4 13.6(19) . .
C14 N4 S2' N3 -12.8(19) . .
Zn1 N4 S2' N3 177.7(8) 7_546 .
O4 C8 O3' Zn3 8.7(16) . .
C5 C8 O3' Zn3 179.5(8) . .
O6 C9 O5' Zn2 70.6(14) . .
C10 C9 O5' Zn2 -135.2(8) . .
