#------------------------------------------------------------------------------
#$Date: 2017-08-05 15:43:53 +0300 (Sat, 05 Aug 2017) $
#$Revision: 199561 $
#$URL: file:///home/coder/svn-repositories/cod/cif/1/54/67/1546762.cif $
#------------------------------------------------------------------------------
#
# This file is available in the Crystallography Open Database (COD),
# http://www.crystallography.net/
#
# All data on this site have been placed in the public domain by the
# contributors.
#
data_1546762
loop_
_publ_author_name
'Mizojiri, Ryo'
'Takami, Kazuaki'
'Ito, Tatsuya'
'Maeda, Hiroyuki'
'Yamano, Mitsuhisa'
'Kawamoto, Tetsuji'
_publ_section_title
;
 Efficient and Stereoselective Syntheses of Isomerically Pure
 4-Aminotetrahydro-2H-thiopyran 1-Oxide Derivatives
;
_journal_issue                   7
_journal_name_full               'Organic Process Research &amp; Development'
_journal_page_first              1034
_journal_paper_doi               10.1021/acs.oprd.7b00147
_journal_volume                  21
_journal_year                    2017
_chemical_formula_moiety         'C11 H14 N2 O5 S2 '
_chemical_formula_sum            'C11 H14 N2 O5 S2'
_chemical_formula_weight         318.36
_chemical_name_systematic
;
cis-2-Nitro-N-(1-oxidotetrahydro-2H-thiopyran-4-yl)benzenesulfonamide
;
_space_group_IT_number           61
_symmetry_cell_setting           orthorhombic
_symmetry_Int_Tables_number      61
_symmetry_space_group_name_Hall  '-P 2ac 2ab'
_symmetry_space_group_name_H-M   'P b c a'
_atom_sites_solution_hydrogens   geom
_atom_sites_solution_primary     direct
_atom_sites_solution_secondary   difmap
_cell_angle_alpha                90
_cell_angle_beta                 90
_cell_angle_gamma                90
_cell_formula_units_Z            8
_cell_length_a                   9.411(3)
_cell_length_b                   14.986(4)
_cell_length_c                   19.855(6)
_cell_measurement_reflns_used    25992
_cell_measurement_temperature    100.2
_cell_measurement_theta_max      68.3
_cell_measurement_theta_min      3.0
_cell_volume                     2800.2(14)
_computing_cell_refinement       PROCESS-AUTO
_computing_data_collection       PROCESS-AUTO
_computing_data_reduction        'teXsan Ver. 1.11'
_computing_publication_material  'teXsan Ver. 1.11'
_computing_structure_refinement  'SHELXL-97 (Sheldrick, 1997)'
_computing_structure_solution    'SHELXS-97 (Sheldrick, 1990)'
_diffrn_ambient_temperature      100
_diffrn_detector_area_resol_mean 10.00
_diffrn_measurement_device_type  'Rigaku RAXIS-RAPID Imaging Plate'
_diffrn_measurement_method       \w
_diffrn_radiation_monochromator  ' graphite '
_diffrn_radiation_source         'fine-focus sealed tube'
_diffrn_radiation_type           'Cu K\a'
_diffrn_radiation_wavelength     1.5419
_diffrn_reflns_av_R_equivalents  0.000
_diffrn_reflns_av_sigmaI/netI    0.4649
_diffrn_reflns_limit_h_max       10
_diffrn_reflns_limit_h_min       0
_diffrn_reflns_limit_k_max       18
_diffrn_reflns_limit_k_min       0
_diffrn_reflns_limit_l_max       23
_diffrn_reflns_limit_l_min       0
_diffrn_reflns_number            28975
_diffrn_reflns_theta_max         68.12
_exptl_absorpt_coefficient_mu    3.659
_exptl_absorpt_correction_T_max  0.481
_exptl_absorpt_correction_T_min  0.126
_exptl_absorpt_correction_type   multi-scan
_exptl_absorpt_process_details   '(Higashi, 1995)'
_exptl_crystal_colour            colorless
_exptl_crystal_density_diffrn    1.510
_exptl_crystal_density_method    'not measured'
_exptl_crystal_description       prism
_exptl_crystal_F_000             1328
_exptl_crystal_size_max          0.700
_exptl_crystal_size_mid          0.250
_exptl_crystal_size_min          0.200
_refine_diff_density_max         0.24
_refine_diff_density_min         -0.27
_refine_ls_extinction_coef       0.0000
_refine_ls_extinction_expression Fc^*^=kFc[1+0.001xFc^2^\l^3^/sin(2\q)]^-1/4^
_refine_ls_extinction_method     SHELXL
_refine_ls_goodness_of_fit_ref   0.177
_refine_ls_hydrogen_treatment    mixed
_refine_ls_number_parameters     181
_refine_ls_number_reflns         438
_refine_ls_number_restraints     0
_refine_ls_restrained_S_all      0.177
_refine_ls_R_factor_all          0.0439
_refine_ls_R_factor_gt           0.0328
_refine_ls_shift/su_max          0.0000
_refine_ls_shift/su_mean         0.000
_refine_ls_structure_factor_coef Fsqd
_refine_ls_weighting_details
'w = 1/[\s^2^(Fo^2^) + (0.0010P)^2^+0.0000P] where P=(Fo^2^+2Fc^2^)/3'
_refine_ls_weighting_scheme      calc
_refine_ls_wR_factor_gt          0.0834
_refine_ls_wR_factor_ref         0.1009
_reflns_number_gt                438
_reflns_number_total             2468
_reflns_threshold_expression     >2.0sigma(I)
_cod_data_source_file            op7b00147_si_003.cif
_cod_data_source_block           compound_4a
_cod_original_cell_volume        2800(5)
_cod_original_formula_sum        'C11 H14 N2 O5 S2 '
_cod_database_code               1546762
_shelx_res_file
;
TITL  compound_4a
CELL  1.54186 9.4106 14.9858 19.8550 90.000 90.000 90.000
ZERR  8 0.0034 0.0042 0.0056 0.000 0.000 0.000
LATT 1
SYMM .50+X, .50-Y,    -Z
SYMM    -X, .50+Y, .50-Z
SYMM .50-X,    -Y, .50+Z
SFAC C H N O S
UNIT    88   112    16    40    16
L.S. 6
FMAP 2
PLAN -25
 
ACTA
 
WGHT    0.001000
FVAR       1.01483
C1    1    0.307932    0.530343    0.642736    11.00000    0.01188    0.01709 =
         0.01120   -0.00151    0.00058    0.00013
C2    1    0.365946    0.468254    0.687617    11.00000    0.01210    0.01044 =
         0.01420   -0.00057    0.00420    0.00050
C3    1    0.457182    0.499092    0.737589    11.00000    0.01459    0.01775 =
         0.01295    0.00117    0.00202    0.00298
AFIX  43
H3    2    0.497525    0.459064    0.767847    11.00000   -1.20000
AFIX   0
C4    1    0.488067    0.589048    0.742413    11.00000    0.01722    0.01962 =
         0.01716   -0.00583    0.00009   -0.00252
AFIX  43
H4    2    0.550927    0.608968    0.775280    11.00000   -1.20000
AFIX   0
C5    1    0.426371    0.649679    0.698826    11.00000    0.01431    0.01411 =
         0.02569   -0.00278    0.00502   -0.00040
AFIX  43
H5    2    0.445476    0.710233    0.703634    11.00000   -1.20000
AFIX   0
C6    1    0.335857    0.620833    0.647784    11.00000    0.01607    0.01344 =
         0.01961    0.00311    0.00281    0.00364
AFIX  43
H6    2    0.295260    0.661246    0.617895    11.00000   -1.20000
AFIX   0
N7    3    0.214430    0.502444    0.586431    11.00000    0.02409    0.01670 =
         0.01687    0.00351   -0.00384    0.00009
O8    4    0.090103    0.526157    0.588649    11.00000    0.01758    0.02761 =
         0.04025   -0.00182   -0.01199    0.00549
O9    4    0.269745    0.460332    0.540766    11.00000    0.03576    0.03191 =
         0.01751   -0.00649   -0.00422    0.00534
S10   5    0.323514    0.352850    0.683682    11.00000    0.01452    0.01127 =
         0.01223    0.00044    0.00243   -0.00058
O11   4    0.365607    0.317712    0.748111    11.00000    0.02632    0.01554 =
         0.01300    0.00389    0.00342    0.00106
O12   4    0.177651    0.346603    0.663133    11.00000    0.01222    0.01481 =
         0.02511    0.00012    0.00369   -0.00165
N13   3    0.418074    0.308860    0.626383    11.00000    0.01349    0.01942 =
         0.01028   -0.00754   -0.00062   -0.00027
AFIX  43
H13   2    0.375521    0.286789    0.591860    11.00000   -1.20000
AFIX   0
C14   1    0.573534    0.303594    0.628773    11.00000    0.01293    0.01755 =
         0.00951   -0.00226   -0.00053   -0.00102
AFIX  13
H14   2    0.604432    0.308304    0.675774    11.00000   -1.20000
AFIX   0
C15   1    0.618180    0.212584    0.601264    11.00000    0.01782    0.01541 =
         0.01836    0.00162    0.00051    0.00119
AFIX  23
H15A  2    0.570925    0.165977    0.626713    11.00000   -1.20000
H15B  2    0.588305    0.207568    0.554661    11.00000   -1.20000
AFIX   0
C16   1    0.778045    0.199337    0.605571    11.00000    0.02249    0.02610 =
         0.01733    0.00097   -0.00140    0.00763
AFIX  23
H16A  2    0.801244    0.138874    0.592033    11.00000   -1.20000
H16B  2    0.808387    0.207029    0.651898    11.00000   -1.20000
AFIX   0
S17   5    0.873141    0.276945    0.552689    11.00000    0.01479    0.03865 =
         0.01423   -0.00320    0.00116    0.00222
C18   1    0.803241    0.377119    0.589661    11.00000    0.02397    0.02793 =
         0.01284   -0.00422    0.00226   -0.00712
AFIX  23
H18A  2    0.835277    0.381271    0.635990    11.00000   -1.20000
H18B  2    0.840321    0.428330    0.565497    11.00000   -1.20000
AFIX   0
C19   1    0.641081    0.380008    0.588153    11.00000    0.02106    0.01751 =
         0.01509   -0.00210    0.00432   -0.00263
AFIX  23
H19A  2    0.609067    0.376377    0.541796    11.00000   -1.20000
H19B  2    0.609115    0.436615    0.606368    11.00000   -1.20000
AFIX   0
O20   4    0.801899    0.270396    0.484655    11.00000    0.02499    0.03836 =
         0.00981   -0.00632    0.00122    0.00443
HKLF 4
 
REM  compound_4a
REM R1 =  0.0328 for    438 Fo > 4sig(Fo)  and  0.0439 for all   2468 data
REM    181 parameters refined using      0 restraints
 
END  
     
WGHT      0.0001      0.0000 
REM Highest difference peak  0.239,  deepest hole -0.268,  1-sigma level  0.048
Q1    1   0.9916  0.2654  0.5601  11.00000  0.05    0.24
Q2    1   0.3816  0.3435  0.6455  11.00000  0.05    0.17
Q3    1   0.4705  0.4865  0.7029  11.00000  0.05    0.16
Q4    1   0.4998  0.3132  0.6406  11.00000  0.05    0.15
Q5    1   0.2735  0.3583  0.5650  11.00000  0.05    0.14
Q6    1   0.6870  0.2677  0.4933  11.00000  0.05    0.14
Q7    1   0.2487  0.3460  0.6410  11.00000  0.05    0.14
Q8    1   0.4453  0.3201  0.5728  11.00000  0.05    0.13
Q9    1   0.4499  0.2161  0.7136  11.00000  0.05    0.13
Q10   1   0.4550  0.2806  0.7314  11.00000  0.05    0.13
Q11   1   0.3197  0.5387  0.7845  11.00000  0.05    0.13
Q12   1   0.3718  0.4854  0.7284  11.00000  0.05    0.13
Q13   1   0.1439  0.5594  0.5764  11.00000  0.05    0.13
Q14   1   0.2118  0.7239  0.5686  11.00000  0.05    0.12
Q15   1   0.4706  0.7391  0.7127  11.00000  0.05    0.12
Q16   1   0.3445  0.3761  0.5595  11.00000  0.05    0.12
Q17   1   0.2649  0.7133  0.6405  11.00000  0.05    0.12
Q18   1   1.0383  0.3614  0.5662  11.00000  0.05    0.11
Q19   1   0.3140  0.2384  0.5614  11.00000  0.05    0.11
Q20   1   0.6896  0.5819  0.7108  11.00000  0.05    0.11
Q21   1   0.5957  0.5182  0.6443  11.00000  0.05    0.11
Q22   1   0.9105  0.2815  0.4987  11.00000  0.05    0.11
Q23   1   0.3128  0.5376  0.8495  11.00000  0.05    0.11
Q24   1   0.7596  0.1992  0.4920  11.00000  0.05    0.11
Q25   1   0.1830  0.3529  0.5602  11.00000  0.05    0.11
;
_shelx_hkl_file
;
   0  -1   0    1.18    0.97
   0   1   0    1.09    1.22
   0   1   0    1.29    0.97
   0   1   0    1.44    0.91
   0  -1   0    1.56    1.15
   0   1   0    4.66    4.79
   0  -1   0    1.36    0.93
   0  -1   0    1.66    1.29
   0   1   0    2.04    1.22
   0   1   1    1.17    1.43
   0  -1  -1    0.58    0.93
   0   1  -1    1.11    1.08
   0  -1   1    0.50    0.91
   0  -1   1    5.56    5.64
   0   1   1    0.90    1.36
   0   1  -1    0.78    0.87
   0   1  -1    1.77    5.58
   0   1   1    1.15    0.95
   0   1   1    2.73    2.26
   0  -1  -1    1.98    2.21
   0  -1   1    0.44    1.32
   0  -1  -1    0.82    4.42
   0  -1  -1    0.53    1.33
   0   1  -1    0.68    1.11
   0   1  -1    1.08    1.24
   0   0   2  100.36   16.22
   0   0   2  108.76   17.49
   0   0  -2  108.56   17.02
   0   0  -2  108.93   13.96
   0   0   2  106.27   13.57
   0   0  -2  104.90   20.87
   0   0  -2  114.78   15.97
   0   0   2  112.29   15.13
   0   0  -2  205.82   29.60
  -1   0   0    1.93    1.82
  -1   0   0    1.75    2.05
  -1   0   0    2.56    2.24
   1   0   0    1.94    2.85
   1   0   0    9.05    6.65
  -1   0   0    5.21    5.22
   1   0   0    2.55    1.62
   1   0   0    1.67    1.67
  -1   0  -1    2.41    2.82
   1   0  -1    3.80    1.78
  -1   0  -1    4.35    1.94
   1   0   1    9.57    8.09
  -1   0   1    1.27    1.65
  -1   0   1    2.57    4.28
   1   0   1    1.60    2.74
   1   0  -1    2.15    2.59
   1   0  -1    1.14    3.37
  -1   0   1    0.89    2.46
   1   0   1    0.45    2.38
  -1   0   1    1.34    2.40
  -1   0  -1    2.47    0.94
   1   0  -1    2.94    1.67
  -1   0  -1    5.28    6.31
   1   0   1    1.20    1.70
   1   0   1    2.39    0.95
  -1   0   1    0.96    2.38
   1   0  -1    3.16    2.55
  -1   0  -1    3.20    3.08
   0   1   2    2.19    2.06
   0  -1  -2    0.66    3.34
   0   1  -2    1.02    1.21
   0   1   2    3.07    1.99
   0   1   2    0.69    5.96
   0  -1   2    2.27    2.23
   0  -1  -2    0.98    4.46
   0   1  -2    3.67    2.14
   0   1   2    0.34    1.74
   0   1  -2    0.65    2.41
   0   1   2    1.23    3.16
   0   1  -2    4.93    6.90
   0  -1   2    1.27    9.67
   0  -1  -2    0.33    2.07
   0  -1   2    0.79    2.21
   0  -1  -2    1.50    1.64
   0  -1   2    0.43    2.31
   0  -1   2    0.43    1.29
   0   1  -2    0.78    1.62
  -1  -1   0   -0.23    5.09
   1  -1   0    0.18    1.56
   1   1   0    0.44    0.95
  -1   1   0    0.79    2.13
  -1  -1   0    0.07    1.24
   1   1   0    1.29    3.03
  -1   1   0    1.39    5.23
   1  -1   0    0.39    2.15
   1  -1   0   -0.21    3.74
  -1  -1   0    0.74    1.14
   1   1   0    1.05    1.37
  -1  -1   0    0.06    2.35
  -1   1   0    0.32    0.91
   1   1   0    0.20    2.05
   1   1   0    0.44    0.56
   1  -1   0    0.30    0.70
  -1   1   0    0.61    1.63
   1  -1   0    0.32    1.45
   1  -1   0    0.46    0.89
   0  -2   0 1782.17  229.95
   0   2   0 1758.56  209.22
   0  -2   0 1683.53  228.87
   0  -2   0 1734.90  203.88
   0   2   0 1699.72  231.35
   0  -2   0 1605.06  193.41
   0   2   0 1697.69  199.04
   0   2   0 8102.75  999.72
   0  -2   0 1844.58  478.56
   0   2   0 1791.17  230.82
   1  -1  -1   16.86    7.25
   1  -1  -1   20.25    8.61
  -1  -1   1   48.73   14.79
  -1   1  -1   18.33    9.10
   1   1   1   17.84    7.66
   1  -1  -1   52.86   25.96
  -1  -1  -1   24.39    9.07
   1  -1   1   19.47    8.60
  -1   1   1   65.31   19.60
   1   1  -1   18.15    8.70
   1   1  -1   20.40    5.32
  -1  -1  -1   47.64   26.03
  -1   1   1   18.71    7.50
  -1   1   1   18.38    9.33
   1   1  -1   21.32    9.65
   1  -1   1   18.15    6.78
   1  -1  -1   19.07    9.27
   1  -1  -1   37.70    5.59
   1   1   1   63.27   30.86
  -1  -1  -1   20.60    6.97
   1   1  -1   21.87    6.37
  -1   1  -1   20.02    9.43
  -1   1  -1   75.26   33.76
  -1  -1   1   35.91   20.68
  -1   1   1   18.80    7.74
   1  -1   1   60.99   28.09
  -1  -1   1   20.57    4.46
   1   1   1   56.39   13.92
   1  -1   1    8.19   17.15
   1   1   1   19.24    6.26
   1  -1   1   19.11    9.71
  -1  -1   1   21.42    9.07
   0   2  -1 8958.52 1168.47
   0  -2   1 2203.92  299.87
   0  -2   1 2399.38  318.83
   0  -2  -1 4617.38  939.72
   0   2   1 4234.19  494.00
   0   2   1 2213.86  320.63
   0  -2   1 2124.75  283.42
   0  -2  -1 2131.13  317.58
   0   2   1 8324.45 1083.07
   0  -2   1 2750.19  802.30
   0   2   1 2228.24  260.82
   0  -2   1 2352.46  287.95
   0   2   1 2152.01  322.46
   0  -2  -1 5992.19  717.46
   0   2  -1 2189.19  289.60
   0  -2  -1 2158.66  254.65
   0   2  -1 2201.97  305.82
   0  -2  -1 2337.90  332.93
   0   2  -1 2297.01  309.99
   0  -2   1 2255.01  281.51
   1   0   2 3637.84  441.51
   1   0   2 4993.32  747.40
   1   0  -2 2129.81  305.59
  -1   0   2 2114.65  300.95
  -1   0  -2 4437.82  536.33
   1   0  -2 2235.98  196.21
   1   0  -2 2377.36  326.98
  -1   0  -2 2169.43  137.57
  -1   0   2 2251.35  298.32
   1   0   2 2234.56  133.91
   1   0   2 2138.61  248.28
   1   0  -2 2256.40  212.24
  -1   0  -2 2085.41  301.84
   1   0  -2 2206.05  249.85
  -1   0   2 4869.70  476.55
   1   0  -2 3703.39  364.65
   1   0   2 2163.00  309.05
  -1   0  -2 1299.94  394.29
  -1   0   2 2200.94  264.53
  -1   0  -2 2162.93  265.43
   0   0  -3    0.31    2.30
   0   0   3    0.66    1.66
   0   0  -3    0.41    2.77
   0   0  -3    2.01    3.36
   0   0   3    0.48    1.82
   0   0   3    1.97    2.05
   0   0  -3    0.64    1.95
   0   0  -3    0.47    2.18
   0   0  -3    0.90    1.45
   0   0   3    0.72    1.36
   0   0   3    0.58    3.76
  -1  -1  -2  142.52   74.12
  -1   1   2  510.03   37.81
  -1   1   2  361.50   65.53
   1  -1   2  366.10   65.81
  -1   1  -2  337.46   61.11
   1  -1  -2  358.46   58.20
   1   1   2  357.96   47.37
   1   1   2  344.22   32.78
   1  -1  -2  357.03   28.97
   1   1   2  333.00   59.46
  -1   1  -2  338.96   62.13
   1   1   2  955.08  180.97
   1  -1  -2 1021.92  145.80
   1  -1  -2 1299.27  195.78
   1   1  -2  354.72   62.37
  -1   1   2  360.00   65.87
  -1  -1  -2  366.51   67.72
  -1  -1  -2  341.94   36.16
   1   1  -2  333.12   51.06
   1   1  -2 1440.64  171.78
   1   1  -2  368.98   60.74
   1  -1   2  330.57   56.89
   1  -1   2  194.63  109.41
   1   1  -2  376.19   69.50
  -1  -1  -2  347.39   49.09
  -1  -1  -2  859.59  189.56
   1  -1   2  344.76   68.34
  -1   1  -2  349.18   63.35
   1  -1  -2  358.28   53.52
   1  -1  -2  380.91   71.09
  -1   1  -2 1339.10  228.58
  -1  -1   2  360.75   67.07
   1  -1  -2  327.69   58.39
  -1  -1   2  616.76   90.47
  -1  -1   2  353.08   62.84
   1   1   2  748.47  105.53
   0  -1  -3    3.64    2.71
   0   1  -3    3.59    2.15
   0  -1   3    0.20    1.65
   0   1  -3    3.65    2.96
   0  -1   3    1.06    2.07
   0   1   3    0.16    2.45
   0   1   3    2.21    5.48
   0   1  -3    0.67    3.25
   0  -1  -3    2.56    2.25
   0   1  -3   -0.58    8.71
   0   1  -3    0.70    1.63
   0  -1   3    1.28    3.06
   0  -1  -3    0.65    2.37
   0   1   3    0.62    2.16
   0   1   3    1.74    2.55
   0  -1   3    1.31    3.04
   0  -1   3    1.67    5.75
   0   1   3    1.86    4.52
   0  -1  -3    1.88    6.20
   0  -1  -3    1.45    2.43
   0   2  -2  712.41  107.35
   0   2   2 2105.92  273.85
   0  -2  -2  712.14  120.65
   0  -2   2  729.79  118.43
   0  -2   2  626.44  286.35
   0   2   2  738.90  101.31
   0  -2   2  724.32   95.40
   0  -2   2  753.54  126.24
   0   2  -2  753.02  127.35
   0  -2  -2 2013.47  350.86
   0   2   2  758.65  130.65
   0  -2  -2 2001.41  268.93
   0   2   2  725.49  127.28
   0   2  -2  709.72   94.85
   0   2  -2 2892.91  520.99
   0  -2  -2 1672.15  365.02
   0   2  -2  746.84  121.47
   0  -2  -2  637.22   88.38
   0   2  -2  771.88  115.55
   0  -2  -2  723.12  125.46
  -1  -2   0    1.33    1.56
   1   2   0    0.30    1.97
  -1   2   0    0.44    1.70
   1  -2   0    0.11    1.49
   1   2   0    0.31    0.86
  -1  -2   0   -0.20    4.24
   1   2   0    0.30    1.38
   1   2   0    0.34    3.91
  -1  -2   0    0.47    0.58
   1   2   0    0.53    1.83
   1   2   0    0.20    4.35
  -1  -2   0    0.17    5.23
  -1   2   0    0.57    2.13
   1  -2   0    0.22    0.88
  -1   2   0    0.06    7.62
   1  -2   0    0.27    2.13
   1  -2   0    0.48    1.88
   1  -2   0    0.14    5.95
  -1   2  -1   61.79   19.79
   1   2  -1   55.88   20.07
   1   2  -1   61.19   21.00
   1   2  -1   63.25   12.19
   1   2  -1  132.19   79.12
  -1   2  -1   62.74   21.84
   1  -2  -1   63.16   20.14
  -1   2  -1   86.26   70.04
  -1  -2   1   63.26   12.81
  -1  -2   1   89.83   48.61
   1   2  -1   60.24   14.78
  -1  -2  -1  158.90   71.80
   1  -2   1   65.59   13.30
   1  -2   1   58.93   20.63
   1   2   1   63.15   17.93
  -1   2  -1   51.78   14.30
   1  -2  -1   53.66   16.84
  -1  -2  -1   59.83   20.20
  -1  -2   1   58.37   12.28
   1   2   1   55.43   17.39
   1  -2   1   56.97   18.20
   1  -2  -1   59.98   22.48
   1   2   1  108.00   39.69
   1  -2  -1   52.45   18.50
   1  -2  -1   62.76    5.26
  -1  -2   1  112.51   56.56
  -1   2  -1   58.52   20.44
  -1   2   1   59.54   26.39
  -1  -2  -1  129.71   46.03
  -1  -2  -1   93.45   20.27
  -1   2   1  129.78   58.82
   1  -2   1   47.26   68.35
  -1   2   1   59.57   22.07
  -1  -2  -1  146.40   50.11
   1  -2   1   57.89   20.01
   1   0   3    1.63    0.83
   1   0  -3    0.69    1.12
  -1   0   3    0.76    2.92
   1   0   3    1.02    2.97
  -1   0   3    0.62    3.04
   1   0   3    0.54    3.07
   1   0  -3    1.79    3.21
  -1   0  -3    0.63    2.51
  -1   0  -3    0.79    2.96
  -1   0  -3    1.62    0.98
  -1   0   3    0.95    3.99
   1   0  -3    0.85    3.16
   1   0   3    0.55    2.26
   1   0  -3    0.93    2.10
   1   0   3    0.94    4.55
  -1   0  -3    0.88    5.10
   1   0   3    5.52    7.54
   1   0  -3    0.74    3.30
  -1   0   3    0.78    1.29
   1  -1  -3 1387.06  238.05
   1  -1  -3 1374.70  186.97
  -1   1  -3 4180.14  716.44
  -1   1  -3 1203.21  198.46
  -1  -1   3  971.78  252.99
   1  -1  -3 1230.62  206.76
   1  -1  -3 2793.38  392.15
  -1   1  -3 1266.66  225.68
   1   1   3 1258.91  210.19
  -1   1  -3 1381.62  233.49
  -1  -1   3 1424.05  257.47
  -1  -1   3 1182.28  198.02
  -1  -1  -3 2764.71  407.98
   1   1   3 1270.94  149.62
   1  -1  -3 1322.20  137.10
  -1   1  -3 1354.38  104.21
   1   1   3 3462.95  612.64
  -1   1   3 1306.11  151.62
  -1   1   3 4311.00  601.86
   1   1  -3 1389.41  236.91
  -1  -1  -3 1336.43  170.48
   1  -1   3 1348.05  215.07
   1  -1   3 1064.51  321.42
  -1   1   3 1381.39  230.29
  -1   1  -3 1417.16  107.32
   1  -1   3 1377.17  226.97
   1   1  -3 1343.78  225.53
  -1  -1  -3 3111.24  543.14
   1   1   3 2672.03  394.30
  -1   1   3 1331.94  227.76
   1   1   3 1414.96  173.74
  -1   1   3 1301.76  199.00
   1   1  -3 1355.75  223.81
   1   1  -3 1267.28  196.03
  -1  -1  -3 1356.04  182.95
   1  -1   3 1238.89  207.10
   1   1  -3 4870.86  629.80
  -1  -1  -3 1326.46  229.37
   1   2   2 9387.75 1528.72
  -1  -2   2 3394.34  532.01
  -1   2  -2 3276.61  499.41
   1   2  -2 3344.26  430.77
  -1  -2  -2 3440.01  552.32
  -1   2  -2 3348.15  543.84
  -1   2  -2 3302.29  515.67
  -1  -2   2 2857.42  819.84
   1   2  -2 3518.54  300.97
   1  -2   2 3274.76  521.62
   1  -2   2 3406.99  477.05
   1  -2   2 3271.21  356.31
   1  -2   2 3000.66  997.70
   1  -2  -2 4842.39  986.53
  -1   2  -2 3634.32  420.41
   1   2   2 3386.36  482.37
  -1  -2   2 3340.98  311.12
  -1   2  -2 4627.34 1382.83
   1  -2  -2 3314.76  526.33
  -1   2   2 3469.70  545.49
  -1  -2  -2 2906.19  820.83
   1  -2   2 3350.76  531.98
   1   2  -2 3484.98  546.60
  -1  -2  -2 3166.68  224.07
  -1  -2  -2 3261.76  237.32
  -1  -2  -2 2496.79  800.28
   1   2  -2 3363.41  550.75
  -1   2   2 3227.09  519.55
  -1   2   2 3501.88  565.77
  -1  -2  -2 6612.98 1259.58
   1   2  -2 4914.78 1147.01
  -1  -2   2 3403.10  469.75
   1  -2  -2 3106.37  477.98
   1   2   2 3199.87  487.79
  -1  -2  -2 3342.86  506.28
  -1  -2   2 3631.62  587.61
   1  -2  -2 3541.68  527.97
   0   3   0    1.59    3.90
   0  -3   0    1.60    3.94
   0   3   0    2.06    2.99
   0  -3   0    1.38    3.03
   0  -3   0    2.00    2.87
   0   3   0    1.61    4.16
   0   3   0    1.36   16.17
   0  -3   0    2.31    5.66
   0   3   0    1.81    2.94
   0   0   4 2681.48  524.62
   0   0  -4 4258.63  635.71
   0   0  -4 1951.98  259.02
   0   0   4 1997.79  289.23
   0   0  -4 2061.92  318.03
   0   0   4 1933.87  299.54
   0   0   4 1955.12  261.46
   0   0  -4 2042.31  317.43
   0   0  -4 1960.70  279.05
   0   0   4 2052.46  322.44
   0  -2   3  352.04  227.11
   0   2   3 1213.64  185.76
   0   2   3  543.44  106.74
   0   2  -3  521.42  101.26
   0  -2  -3  522.11  101.26
   0   2   3 1598.39  288.82
   0  -2  -3 1212.29  196.11
   0  -2   3  526.38   88.05
   0  -2   3  507.58  117.24
   0  -2   3  474.81   67.68
   0   2  -3  494.59   70.57
   0   2  -3  529.81  109.09
   0  -2  -3  470.63   91.02
   0   2  -3  771.12  309.25
   0  -2   3  504.20   97.68
   0  -2  -3  482.89   87.98
   0   2   3  501.82  100.80
   0   2   3  522.40   85.42
   0   2  -3  504.32   85.57
   0  -2  -3 1019.01  243.64
   0   3   1    2.42    3.28
   0   3   1    1.43    4.65
   0   3   1    1.05    4.83
   0   3  -1    0.84   15.10
   0   3   1    1.27   13.85
   0  -3  -1    0.36   16.57
   0  -3   1    0.92    4.78
   0  -3   1    2.58    3.44
   0   3   1    1.90    2.68
   0   3  -1    2.39    3.64
   0  -3   1    1.27    3.91
   0   3  -1    5.41    3.82
   0  -3  -1    0.64    5.88
   0   3  -1    1.38    4.17
   0  -3  -1    1.67    4.51
   0  -3  -1    0.73    2.86
   0  -3  -1    6.39    4.77
   0  -3   1    1.79    3.77
   0   1  -4    3.74    3.11
   0  -1  -4    0.81    2.62
   0  -1   4    0.83    1.79
   0  -1   4    0.07    6.21
   0   1  -4   -0.58    7.76
   0  -1  -4    2.00    2.36
   0   1   4    0.85    5.62
   0   1  -4    0.24    3.33
   0  -1  -4    0.27    2.28
   0   1   4    0.10    2.29
   0  -1   4    0.40    3.00
   0   1   4    1.06    2.30
   0   1   4    0.47    2.35
   0   1  -4    1.39    1.48
   0  -1   4    0.43    1.98
   0  -1   4    0.91    3.10
   0  -1  -4    0.62    2.56
   0  -1  -4    0.65    5.61
   0   1  -4    0.24    2.94
   0   1   4    2.29    4.85
  -2   0   0 3634.76  493.88
  -2   0   0 3773.23  534.12
  -2   0   0 3461.05  519.57
  -2   0   0 9007.13 1514.45
  -2   0   0 3733.28  574.64
  -2   0   1    0.44    6.78
   2   0   1    0.46    1.49
  -2   0   1    0.23    1.84
  -2   0  -1    0.51    2.61
  -2   0  -1    0.62    1.20
   2   0   1    2.04    2.39
   2   0   1   -0.28    1.65
  -2   0   1    0.37    1.91
  -2   0  -1    0.24    1.87
  -2   0   1    0.32    2.89
  -2   0  -1    3.44    3.49
  -2   0  -1   -0.10    5.15
  -2  -1   0 2342.52  277.84
  -2   1   0 5322.28  764.87
  -2   1   0 2527.49  432.23
   2   1   0 2315.75  339.60
  -2   1   0 2588.76  430.96
  -2  -1   0 2577.78  380.15
  -2  -1   0 2809.20  960.42
  -2  -1   0 2612.89  402.47
   2  -1   0 2140.27  288.02
  -2   1   0 2620.46  359.45
   2   1   0 4731.42  848.29
  -2   1   0 2404.78  640.89
   0   3   2    0.98    3.89
   0   3   2    0.26    3.68
   0  -3   2    0.55    3.41
   0   3  -2    3.42    3.14
   0   3  -2    0.46    2.71
   0  -3   2    0.48    2.25
   0   3  -2    2.57    3.10
   0  -3   2    0.39    2.85
   0  -3  -2    0.92    9.13
   0  -3  -2    1.18    2.08
   0   3  -2    1.08   12.11
   0  -3  -2    0.38   14.61
   0  -3  -2    1.25    3.38
   0  -3  -2    0.55    6.84
   0  -3  -2    0.38    3.67
   0   3   2    0.42    2.26
   0  -3   2    0.05   13.48
   1  -3   0    0.15    1.23
   1   3   0    0.65    2.47
  -1   3   0    0.09   10.74
   1  -3   0    0.23    8.54
   1  -3   0    0.61    2.64
  -1  -3   0    0.40    3.30
   1   3   0    0.05    2.20
  -1   3   0    0.28    2.72
   1  -3   0    0.82    2.27
  -1  -3   0    0.68    5.60
  -1   3   0    0.77    2.47
  -1   3   0    0.24    1.31
   1   3   0    0.26    2.00
  -1  -3   0    0.73    1.01
   1  -3   0    1.46    2.76
   1   3   0    0.39    0.97
   1  -3   0    0.46    2.10
   1   0  -4 6279.55 1045.65
   1   0   4 6054.06  892.71
  -1   0  -411479.24 1831.01
  -1   0   410668.42 1683.86
  -1   0   4 5476.53  930.18
  -1   0  -4 5876.18  612.07
   1   0  -4 5990.22 1016.87
   1   0  -4 6163.83  971.66
   1   0   4 7994.49 1470.75
   1   0  -4 6180.28  615.11
  -1   0   4 5998.44  931.21
  -1   0  -4 5303.70  890.18
   1   0  -4 9683.59 1394.86
   1   0   4 6053.85  994.70
   1   0   412701.22 2268.78
   1   0  -4 6135.47  865.50
  -1   0  -4 5901.89  927.46
  -1   0   4 5795.68  686.05
   1   0   4 5352.20  563.85
   1   0   4 5956.65  982.35
   1   2   3 3506.39  654.37
   1  -2  -3 1167.71  194.63
   1  -2   3 1125.59  203.43
  -1  -2   3 1169.98   74.49
  -1   2  -3 1070.29  131.41
  -1   2  -3 1103.25  192.56
  -1  -2   3 1132.10  194.87
  -1   2  -3 1169.47  220.25
   1   2  -3 1534.04  485.79
  -1  -2  -3 1105.31  125.18
  -1  -2   3 1128.73  201.23
  -1   2  -3 1124.25  130.90
   1  -2  -3 1367.80  397.48
  -1   2   3 1141.12  212.08
   1  -2   3  842.24  413.19
   1   2  -3 1179.82  216.78
  -1   2   3 1066.09   79.14
  -1  -2  -3 1035.09  112.83
   1  -2   3 1188.81  207.91
   1   2  -3 1087.70  174.20
   1   2  -3 1135.29  207.93
   1   2   3 3392.37  534.09
  -1   2   3 1112.41  208.49
   1  -2  -3 1035.37  188.99
  -1  -2   3 1179.60  227.76
   1   2   3 1067.27  192.18
  -1   2  -3 1069.89  204.40
  -1  -2   3  790.39  389.61
  -1  -2  -3 1124.58  193.01
   1  -2  -3 1178.17  214.50
  -1  -2   3 1097.66   72.35
  -1   2  -3 1160.91  543.35
   1  -2   3 1087.47  189.37
  -1   2   3 1149.06  206.42
  -1  -2  -3 2933.81  471.54
  -1  -2  -3 2075.20  462.73
  -1  -2  -3 1171.94  221.65
   1   2   3 1168.30  187.36
  -2   1  -1 1951.67  220.37
   2  -1   1 1735.59  187.63
   2   1   1 5816.06  551.53
   2  -1   1 1530.66  437.36
   2   1  -1 1718.97  223.48
  -2  -1  -1 1827.12  202.36
   2   1   1 1868.76  201.38
  -2  -1   1 2035.66  277.20
   2   1   1 2109.15  274.12
  -2   1  -1  758.62  316.48
  -2  -1  -1 2012.67  334.23
  -2   1   1 1945.04  302.30
  -2  -1  -1 3142.80  784.69
  -2   1   1 1422.68  366.63
  -2   1   1 1991.23  336.17
  -2   1   1 2056.75  313.62
   2  -1   1 1817.31  292.50
  -2   1   1  854.17  302.57
   2  -1   1 2009.10  350.15
   2  -1  -1 1709.39  255.36
  -2  -1   1 1877.70  243.72
  -2  -1   1 1542.79  652.85
  -2   1  -1 1927.59  334.20
   2   1   1 1861.75  294.67
  -2   1  -1 1658.71  562.78
  -2  -1   1 1911.21  306.94
  -2   1  -1 2015.58  337.39
   2   1   1 5914.09 1097.99
   1  -3   1  215.91  183.25
   1   3   1  225.37   24.07
  -1   3   1  257.49   63.01
   1   3  -1  248.93   43.27
   1   3   1  245.14   58.02
  -1  -3   1  253.27   42.30
   1   3   1  449.73  115.45
  -1  -3  -1  148.74  153.89
   1   3   1  666.48  178.96
   1  -3  -1  254.15   66.11
   1  -3  -1  241.40   27.06
   1  -3  -1  249.55   60.36
  -1   3   1  272.09   66.04
  -1   3  -1  263.36   57.24
   1   3  -1  244.58   61.29
   1  -3   1  260.87   53.43
  -1   3  -1  242.39   62.48
   1  -3  -1  225.67  192.96
   1   3  -1  265.32   41.39
   1   3  -1  261.27   61.91
  -1  -3  -1  248.68   61.59
   1  -3   1  244.39   47.93
   1  -3   1  236.72   57.52
  -1  -3   1  191.55  116.30
  -1   3  -1  211.96  179.87
   1   3   1  245.39   65.46
   1  -3  -1  224.75   64.45
  -1   3  -1  232.17   47.69
   1  -3  -1  240.31   54.84
  -1   3  -1  244.34   58.04
  -1  -3   1  250.15   49.48
   1  -3   1  249.97   62.14
   1   3  -1  234.65   57.13
   1   3  -1  286.52  171.18
  -1  -3  -1  244.18   26.85
  -1   3   1  211.89  161.20
  -1   3   1  224.35   28.70
  -1  -3  -1  243.33   59.98
  -1  -3  -1  210.13  152.31
  -2   0  -2 2278.95  347.91
  -2   0  -2 5431.39  886.17
   2   0   2 2304.68  219.43
   2   0   2 2211.12  398.86
   2   0   2 2085.23  207.14
  -2   0   2 2240.31  301.57
   2   0   2 2262.35  318.98
  -2   0  -2 2322.53  427.25
  -2   0   2 2243.01  389.33
   2   0  -2 2060.96  307.14
   2   0   2 6547.38 1261.78
   2   0  -2 2073.11  385.04
   2   0  -2 4061.22  348.73
  -2   0  -2 4893.72  903.20
   2   0   2 1709.96  367.14
  -2   0   2 2246.47  368.09
  -2   0   2 3169.39  797.94
   1   1   4   64.44   15.81
  -1   1   4   64.87   25.00
   1  -1   4   60.33   24.30
   1   1  -4  211.87   81.62
   1   1  -4   64.14   23.05
  -1   1   4  210.36   58.79
   1  -1   4   35.41   49.85
  -1  -1   4   32.02   34.26
   1   1   4   63.23   14.38
  -1   1  -4   62.80   25.26
  -1   1  -4   69.83   11.98
   1   1   4  125.59   44.03
  -1   1  -4   58.22   21.80
   1  -1  -4   64.05   16.87
  -1  -1   4   58.79   21.98
  -1   1   4   56.19   18.73
   1   1  -4   67.54   25.01
   1  -1  -4  127.24   50.99
   1  -1  -4   63.48   25.27
   1   1   4   60.71   22.32
  -1   1   4   61.84   25.58
   1  -1   4   65.51   22.30
   1   1   4   67.63   26.25
   1  -1  -4   58.68   22.19
   1   1  -4   61.75   21.60
  -1  -1  -4   63.67   25.45
  -1  -1  -4  129.39   42.70
  -1   1   4   62.19   15.80
  -1  -1  -4   60.33   15.65
   1   1   4  143.91   75.07
   1  -1   4   68.07    9.78
   1   1  -4   62.94   26.01
  -1  -1  -4   60.53   17.51
   1  -1   4   62.88   22.89
  -1  -1   4   63.73   26.02
  -1   1  -4  172.71   82.65
  -1   1  -4   63.98   26.87
   1  -1  -4   61.35   17.35
   0   2  -4   26.07   16.13
   0  -2  -4   24.15   12.39
   0   2   4   27.22   20.61
   0  -2  -4   26.01   15.25
   0   2  -4   29.00    8.98
   0  -2   4   10.55   29.43
   0   2  -4   26.39   17.44
   0   2   4   80.94   42.28
   0   2   4   27.60   15.30
   0  -2  -4   60.49   36.25
   0   2  -4   27.87   12.01
   0  -2   4   26.84   12.06
   0   2  -4   45.54   53.70
   0   2   4   64.00   25.22
   0  -2   4   26.21   15.90
   0   2   4   27.67   12.98
   0  -2  -4   25.01   11.52
   0  -2   4   25.98   16.67
   0   2   4   27.24   11.28
   0  -2   4   26.28    8.86
  -2  -1  -2  363.45   80.81
  -2   1  -2  357.74   80.72
   2   1   2 1145.79  287.13
  -2   1  -2  304.79  176.37
   2   1   2  340.80   52.91
   2  -1  -2  365.76   83.30
   2  -1  -2  317.60   64.77
  -2  -1   2  295.41  139.52
  -2   1  -2  350.02   76.07
   2   1   2 1029.59  160.16
   2  -1   2  323.39   27.17
   2   1   2  348.03   40.36
   2   1  -2  301.41   38.66
  -2   1  -2  337.51   28.67
   2   1   2  343.52   73.41
  -2  -1   2  332.73   58.17
   2   1  -2  372.71   81.76
  -2  -1  -2  109.06   55.12
  -2  -1  -2  356.26   46.25
   2   1  -2  327.79   82.46
   2  -1   2  152.33   85.71
  -2  -1  -2  134.79  147.73
   2  -1   2  341.23   67.47
   2  -1   2  356.88   81.44
  -2   1   2  333.60   71.93
   2   1  -2  320.62   65.72
   2  -1  -2  755.64  126.50
  -2   1   2  340.46  116.59
  -2   1   2  343.29   61.92
  -2   1   2  361.07   89.29
   2  -1  -2  319.62   42.90
  -2  -1   2  347.47   73.56
   2  -1   2  330.72   66.63
  -2  -1   2  359.78   47.64
  -1  -3  -2    0.75    3.79
  -1  -3  -2    0.64    9.49
  -1   3   2    0.11   12.29
   1   3  -2    2.61    2.70
  -1   3   2    0.80    3.97
  -1   3   2    0.68    4.42
   1  -3   2    0.55    3.64
   1   3   2    1.01    3.67
   1  -3   2    0.78    3.89
   1   3  -2    1.62    3.89
  -1   3   2    0.69    4.57
  -1  -3  -2    1.52    0.96
  -1  -3  -2    1.24   10.13
  -1  -3  -2    0.15    9.05
   1   3  -2    0.59   11.41
  -1  -3   2    1.05    4.52
   1  -3   2    3.72    3.08
   1  -3  -2    0.98    3.19
   1   3   2    2.13    6.48
   1   3   2    0.91    1.06
  -1   3  -2    0.28   15.12
   1   3  -2    1.66    1.88
   1  -3  -2    0.68    3.55
  -1   3  -2    2.24    3.08
  -1   3  -2    0.98    3.40
   1   3   2    0.70    3.80
  -1  -3   2    0.99   11.68
   1  -3  -2    2.18    3.87
   1  -3  -2    0.10    1.71
  -1  -3   2    1.36    2.27
  -1   3  -2    0.81    3.60
  -1   3  -2    0.65    4.21
   1  -3   2    0.98    2.43
   1   3  -2    1.64    4.09
   1  -3   2    0.39   15.34
  -1  -3   2    0.96    2.71
   1   3  -2    0.90    3.90
   0  -3  -3    3.72    5.75
   0  -3   3    0.93   10.53
   0   3  -3    0.92    3.19
   0  -3  -3    0.26    1.79
   0  -3  -3    2.01    3.41
   0  -3  -3    2.00    9.23
   0  -3   3    0.16    1.82
   0   3  -3    0.20    2.27
   0   3  -3    0.20    2.65
   0   3  -3    1.27   13.46
   0   3   3    0.13    2.19
   0  -3  -3    0.23   10.01
   0  -3  -3    0.92    2.96
   0  -3   3    0.16    3.22
   0   3   3    0.05    4.52
   0   3   3    0.55    3.25
   0  -3   3    1.41    2.72
   0   3  -3    1.41    3.16
   0   3   3    1.52    3.60
   0  -3   3    1.31    2.06
   2   2   0   25.70    4.75
   2   2   0   30.02   14.77
  -2  -2   0   26.34   21.99
   2  -2   0   29.80   17.77
  -2  -2   0   11.56   63.40
  -2   2   0   29.91   19.59
   2  -2   0   32.22    9.94
   2  -2   0   26.98   16.59
   2   2   0   24.80   10.20
  -2   2   0   28.46   11.87
  -2   2   0   22.16   45.70
  -2  -2   0   19.44   20.06
  -2   2   0   28.83   17.06
   2  -2   0   44.13    8.15
   2   2   0   45.14   34.04
  -2  -2   0   29.41   13.69
   0   0   5    0.19    2.41
   0   0   5   -0.00    2.97
   0   0   5    2.82    2.01
   0   0  -5    0.20    2.11
   0   0   5    0.01    8.02
   0   0  -5    0.54    3.20
   0   0  -5    0.58    3.04
   0   0   5    1.34    3.21
   0   0  -5    4.50    6.07
   0   0  -5    0.10    2.24
   2   2   1 1339.56   77.21
  -2   2  -1 1208.41  481.79
  -2  -2  -1 3146.72  414.42
  -2  -2  -1 1433.46  257.82
  -2   2   1 1374.39  247.05
   2   2  -1 1218.03  281.04
  -2   2  -1 1417.88  190.43
   2  -2  -1 1266.95  247.67
  -2   2  -1 1406.99  267.17
  -2   2   1 1014.60  382.30
  -2  -2  -1 4313.49  562.36
  -2  -2   1  660.15  506.07
   2  -2  -1 1250.05  133.62
  -2  -2   1 1195.05  299.31
   2  -2   1 1316.81  246.24
   2   2  -1 1244.81  237.19
   2  -2   1 1340.12  171.28
  -2   2   1 1414.41  242.26
   2  -2   1 1209.95  514.70
  -2  -2   1 1478.33  213.33
  -2  -2  -1  781.05  487.08
   2   2   1 1277.13   70.38
  -2  -2   1 1452.84  255.91
  -2   2  -1 1438.97  282.47
   2   2   1 1242.36  206.41
   2   2  -1 1275.00  152.47
   2   2  -1 1234.45  163.79
   2   2   1 2768.15  550.59
  -2   2   1 1449.94  282.94
   2   2   1 1431.27  226.71
   2  -2  -1 1278.39  207.01
   2  -2   1 1272.52  188.35
   2  -2   1 1409.77  274.35
   0  -1  -5    0.29    2.72
   0   1   5    6.00    4.99
   0  -1  -5    0.30    3.42
   0  -1   5    0.32    1.70
   0  -1   5    0.25    5.44
   0   1  -5    0.16    2.94
   0   1   5    0.35    2.17
   0   1  -5    0.31    5.18
   0  -1   5    1.28    2.91
   0   1  -5    0.17    1.49
   0   1   5    0.13    2.50
   0  -1   5    1.57    3.12
   0  -1   5    0.10    1.90
   0   1  -5    0.71    3.22
   0  -1  -5    0.76    2.38
   0   1  -5    2.65    2.24
   2   0   3    1.45   10.08
  -2   0  -3    0.50    3.37
   2   0  -3    0.43    1.87
  -2   0   3    4.94    3.82
   2   0   3    0.29    1.95
  -2   0   3    0.94    4.89
   2   0   3    0.09    3.91
  -2   0  -3    2.59    2.31
   2   0   3    0.13    3.13
   2   0   3    0.61    0.58
  -2   0  -3    1.94    7.06
  -2   0   3    0.24    2.77
  -2   0  -3    4.43    4.70
   2   0  -3    0.35    1.28
   1  -2   4 2505.53  448.73
   1  -2   4 2772.28  479.58
   1   2   4 6551.19 1221.73
   1  -2   4 2621.62  474.67
  -1   2   4 2362.26  279.62
  -1   2   4 5087.30  543.63
  -1  -2  -4 2617.18  353.84
  -1  -2  -4 2332.37  306.88
  -1  -2  -4 5179.63 1052.87
   1   2  -4 2716.72  498.74
   1  -2   4 1308.49  569.11
   1   2   4 2475.56  450.13
  -1  -2   4 2446.21  452.95
   1   2  -4 3967.00 1104.70
  -1  -2  -4 2850.32  540.70
  -1   2   4  477.64  446.31
  -1   2   4 2537.34  479.34
   1  -2  -4 2395.85  442.91
  -1   2  -4 2750.07  521.36
  -1  -2   4 1202.41  472.14
   1   2  -4 2499.95  420.27
  -1   2   4 2689.88  479.71
  -1   2  -4 2519.17  494.04
   1  -2  -4 2711.40  437.66
  -1  -2  -4 2628.45  440.41
   1   2  -4 2668.77  484.18
  -1   2   4 2470.07  463.26
  -1  -2  -4 6503.30 1080.06
  -1  -2   4 2658.09  481.14
   1   2   4 7584.43 1246.55
   1  -2  -4 3092.04  717.07
  -1  -2   4 2781.70  536.07
   1  -2  -4 2737.75  499.09
  -1   2  -4 2603.12  304.06
  -1   2  -4 2577.48  312.44
  -1   2  -4 2442.25  419.31
   1   2   4 2800.66  437.69
  -1   2  -4 2296.15  964.98
   0   4   0  391.66   79.08
   0  -4   0  401.89   97.98
   0   4   0  414.56   94.85
   0  -4   0  337.78  141.22
   0  -4   0  394.44   78.07
   0   4   0  394.43   79.37
   0   4   0  388.43   97.44
   0  -4   0  414.11   95.40
   2  -1   3 1190.85  223.41
   2   1  -3 1213.71  205.33
   2   1  -3 1397.33  274.49
  -2   1   3 1275.00  250.39
   2  -1  -3 1163.76  221.79
   2   1   3 1277.83  157.41
   2  -1  -3 1423.75  282.81
  -2   1  -3 1394.99  511.32
   2  -1  -3 1299.12  194.69
   2   1   3 1310.47  155.70
  -2   1  -3 1227.91  238.24
  -2  -1   3 1254.96  243.90
   2   1  -3 3368.99  467.30
  -2  -1  -3 1249.85  257.15
  -2  -1   3 1026.92  368.36
  -2   1   3 1252.20  239.06
  -2  -1  -3 1204.39  166.94
   2  -1   3  579.98  256.46
   2   1  -3 1263.43  222.57
   2   1  -3 1083.74  104.24
  -2  -1   3 1001.31  201.80
  -2   1  -3 1222.62  246.14
   2  -1   3 1245.93  216.88
  -2  -1  -3 2397.89  382.98
   2  -1  -3 2628.86  371.41
   2  -1   3 1287.66  256.74
   2   1   3 1286.04  248.69
  -2  -1  -3 2327.21  563.10
  -2   1   3  673.04  259.73
   2   1   3 3501.25  753.43
  -2  -1   3 1180.76  116.04
   2  -1  -3 1228.01  150.13
   2   1   3 2738.30  409.88
   2  -2   2  363.52   81.92
   2   2   2 1045.23  279.67
   2  -2  -2  379.75   78.04
  -2   2  -2  372.74   91.90
  -2  -2   2  243.38  109.06
  -2  -2   2  384.57   51.70
  -2  -2   2  267.29  158.16
  -2   2  -2  381.40   46.41
   2  -2  -2  367.40   88.48
   2   2  -2  338.39   53.71
   2  -2   2  263.41  172.66
  -2   2   2  372.99  104.70
  -2  -2  -2  166.55   86.32
  -2   2   2  379.54   84.96
   2  -2  -2  340.42   29.51
   2  -2  -2  340.28   71.48
   2   2   2  334.72   72.32
   2  -2  -2  343.72   30.57
   2   2  -2  353.13   45.78
   2  -2  -2  218.01  122.29
   2  -2   2  359.95   41.51
   2   2  -2  313.31  126.90
   2  -2   2  383.66   92.81
  -2  -2   2  378.58   84.26
  -2   2  -2  341.68  286.96
   2   2  -2  404.76   93.42
  -2   2  -2  374.73   88.37
   2  -2   2  337.97   65.54
  -2  -2  -2  383.58   89.39
   2   2  -2  341.09   78.97
  -2  -2  -2  222.39  116.32
   2   2   2  363.66   64.90
  -2  -2  -2  309.03  202.61
   0   4   1 2471.72  405.77
   0  -4  -1 2503.10  489.56
   0   4  -1 2447.65  424.50
   0   4  -1 2528.02  448.47
   0   4   1 2623.34  500.29
   0   4  -1 2456.29  469.97
   0  -4  -1 2420.74  395.08
   0   4   1 2167.53  945.88
   0  -4   1 2583.33  455.30
   0  -4   1 2431.61  439.64
   0  -4  -1 2382.72 1069.30
   0   4   1 2708.62  438.75
   0  -4  -1 2736.73  515.98
   0  -4   1 2578.02  450.46
   0  -4   1 2585.81  457.43
   0   4   1 2437.79  494.46
   0  -4  -1 2333.35  584.97
   0  -4   1 2535.85  481.11
  -1   3  -3  997.04  148.13
   1   3   3 2728.91  549.66
  -1  -3  -3 1751.12  477.46
   1  -3   3 1025.51  206.61
   1   3   3  990.67  196.38
  -1  -3  -3 1089.01  231.53
   1  -3  -3  611.30  346.79
   1  -3  -3 1076.26  210.07
  -1  -3   3  731.14  362.96
  -1  -3   3 1082.44  232.82
   1  -3  -3  969.94  210.57
   1  -3   3 1057.20  195.90
  -1   3  -3 1036.37  221.59
  -1   3   3 1012.33  221.03
  -1   3   3  966.24  190.12
  -1  -3   3  973.60  132.76
  -1  -3  -3 1046.66  209.76
   1  -3  -3 1018.95  201.29
  -1  -3  -3 1068.93  123.06
   1   3  -3 1047.03  214.49
  -1   3   3 1125.62  235.37
  -1  -3   3 1044.04  194.62
   1   3  -3 1030.37  210.12
  -1   3  -3  969.73  206.24
  -1   3  -3 1017.77  193.54
  -1   3  -3 1010.49  163.04
  -1  -3  -3  686.61  375.50
  -1  -3  -3  960.97  111.51
  -1  -3  -3  973.33  404.18
  -1  -3   3 1081.65  211.01
  -1  -3   3  988.38  116.31
   1  -3   3  763.21  426.87
   1  -3   3 1029.16  199.53
  -1   3  -3 1004.94  570.08
   1   3   3 1059.71  203.08
   1   3  -3  941.56  435.36
   1   3  -3 1067.02  184.91
  -1   0   5    0.31    1.17
   1   0   5    1.09    5.47
   1   0   5    0.43    4.36
   1   0   5    0.24    2.14
  -1   0   5    0.65    2.25
   1   0  -5    0.18    2.39
   1   0  -5    0.31    0.88
   1   0  -5    0.58    2.35
   1   0   5    0.38    3.40
   1   0  -5    0.08    1.83
  -1   0  -5    0.92    4.48
  -1   0  -5    0.13    2.04
   1   0  -5    0.44    3.63
  -1   0  -5    1.73    2.17
  -1   0   5    0.40    1.99
  -1   0  -5    0.16    0.97
   1   0  -5    0.20    2.36
  -1   0   5   -0.29    3.85
  -1   1   5 1014.21  174.15
  -1  -1  -5 1054.89  185.96
  -1   1  -5 1769.70  540.53
  -1   1   5 1025.10  196.16
   1   1  -5 1172.48  230.93
  -1   1   5 1087.04  220.20
   1   1  -5 1881.63  361.50
   1   1  -5  989.68   85.11
  -1  -1  -5 2142.18  400.67
   1  -1   5 1047.52  213.66
  -1   1  -5 1095.75  236.93
   1  -1  -5 1084.28  222.72
  -1  -1   5  950.81   98.40
  -1  -1   5  981.65  192.65
   1  -1  -5 1057.41  160.09
  -1   1  -5 1068.38  130.73
  -1   1  -5 1086.85  221.69
   1   1   5 1017.59  150.05
   1  -1  -5 1143.37  181.67
   1   1   5 1061.03  205.53
   1   1   5 1073.14  175.21
   1   1  -5 1156.89  218.17
   1   1  -5 1048.22  218.35
   1   1  -5 1130.34  231.15
  -1  -1  -5  972.97  156.76
   1  -1   5 1068.58  128.72
  -1   1   5 3487.36  609.83
  -1  -1  -5 1073.79  217.30
   1  -1   5  444.66  251.89
   1  -1   5 1158.64  214.08
   1  -1   5 1140.44  214.37
   1  -1  -5 1036.71  205.53
   1   1   5 1095.36  219.49
   1   1   5 2240.35  417.65
   1  -1  -5 2067.27  359.28
  -1  -1   5  458.96  225.45
  -1   1  -5  984.18  185.28
   1   1   5 2427.79  501.68
  -1  -1   5 1080.33  224.04
   0  -3   4    1.06    1.62
   0  -3  -4    0.41    2.62
   0  -3   4    0.87    2.76
   0  -3   4    0.96    9.70
   0   3  -4    0.30    2.47
   0   3   4    0.17    3.31
   0  -3  -4    1.10    3.25
   0   3  -4    0.05   12.17
   0   3  -4    0.44    4.87
   0   3  -4    0.16    3.11
   0   3   4    0.33    2.18
   0  -3  -4    0.16    9.30
   0   3   4    0.89    2.99
   0  -3  -4    0.08    9.72
   0   3  -4    0.37    1.71
   0  -3   4    0.54    3.26
   0  -3  -4    1.44    4.86
   0   3  -4    0.50    2.13
   0   3   4    0.18    4.65
   0  -3  -4    0.18    1.90
   0   2  -5    0.73   13.55
   0  -2  -5    1.34    3.12
   0  -2  -5    2.76    3.73
   0  -2  -5    0.90    4.26
   0  -2  -5    0.50    9.71
   0  -2  -5    0.60    3.39
   0   2   5    3.02    6.96
   0   2  -5    1.94    3.25
   0   2   5    4.06    4.11
   0  -2   5    0.24    3.10
   0  -2   5    0.23    6.52
   0  -2   5    1.89    9.08
   0   2  -5    1.09    4.65
   0  -2   5    0.74    4.61
   0   2   5    4.17   11.41
   0   2  -5    0.39    2.25
   0   2  -5    0.31    5.23
   0   2   5    2.61    3.86
   0  -2   5    2.30    3.12
   0   2   5    3.49    3.20
   0  -4  -2 3448.72 1164.02
   0  -4   2 4514.26 1830.28
   0  -4   2 4219.40  758.10
   0   4   2 4613.05 1663.51
   0  -4   2 4578.64  815.48
   0  -4  -2 4134.79  816.40
   0  -4   2 4490.35  739.16
   0  -4  -2 4275.02 1758.24
   0   4  -2 4179.24 1641.22
   0   4  -2 4377.69  805.20
   0   4   2 4136.40  630.41
   0   4  -2 3997.94  744.64
   0   4  -2 4183.86  752.30
   0   4   2 4208.82  852.58
   0   4   2 4140.24  649.25
   0  -4  -2 4100.26  649.65
   0  -4  -2 4532.90  861.58
   0   4   2 4443.53  852.01
   0  -4   2 4325.25  727.12
   0   4  -2 4295.78  780.33
   1  -4   0    0.23    3.30
   1  -4   0    0.43    2.72
   1   4   0    0.16    3.13
  -1  -4   0    3.03    3.35
  -1  -4   0    0.09    6.53
  -1  -4   0    0.28    3.04
   1  -4   0    0.63    2.65
  -1   4   0    1.17    4.66
  -1   4   0    0.85    1.84
  -1   4   0    0.32    3.30
   1  -4   0    1.04    3.15
   1  -4   0    0.40    1.58
   1   4   0    0.22    1.43
  -1   4  -1   25.61   13.10
  -1   4   1   25.92   23.96
   1   4  -1   24.99   15.73
   1   4  -1   29.92   12.19
   1   4  -1   31.61   17.82
   1  -4   1   26.14   11.43
  -1  -4  -1   21.41   52.37
   1  -4   1   25.23   17.03
   1  -4   1   25.53   15.74
   1  -4   1   22.03   64.98
  -1  -4  -1   24.38    7.07
   1  -4   1   26.72   23.72
  -1  -4  -1   10.66   49.17
   1   4  -1   25.72   17.55
   1   4  -1   21.38   59.25
  -1   4   1   25.71    8.37
   1  -4   1   24.60   13.51
  -1   4   1   20.61   57.04
   1   4  -1   24.97    9.83
  -1   4   1   32.61   19.77
   1   4   1   23.47   13.31
  -1   4  -1   31.04   16.96
  -1  -4   1   24.28   10.04
  -1   4  -1   25.04   25.17
   1  -4  -1   23.06   24.46
  -1  -4   1   24.44   14.31
   1  -4  -1   21.18   14.26
   1   4   1   26.99   15.20
  -1  -4  -1   25.04   17.58
  -1  -4   1   20.70   35.74
  -1  -4  -1   25.59   17.70
   1  -4  -1   27.48   19.21
   1  -4  -1   25.51   16.30
   1   4   1   25.36   17.35
   1   4   1   25.88    9.47
   1  -4  -1   22.10   13.63
   2   3   0  961.98  161.35
   2  -3   0  962.86  166.21
  -2  -3   0  779.69  309.90
   2  -3   0 1102.23  241.94
  -2   3   0  956.58  493.37
   2   3   0 1026.77   95.56
   2   3   0 1271.59  368.02
   2  -3   0 1071.21  139.86
   2   3   0 1049.56  206.73
  -2   3   0  982.82  182.55
   2  -3   0  937.61  201.13
  -2   3   0 1062.29  243.57
  -2  -3   0  455.84  451.64
  -2   3   0 1021.30  212.94
  -2  -3   0 1049.82  200.91
   2   0  -4  879.17  183.06
   2   0   4  873.27  148.98
  -2   0   4  818.10  175.33
   2   0  -4  338.89  135.42
  -2   0  -4 1679.83  333.52
   2   0   4  531.76  204.68
   2   0   4  910.04  188.89
  -2   0  -4  834.37  181.83
   2   0   4  851.75  180.27
   2   0   4  371.13  314.56
  -2   0   4  849.40  169.14
   2   0  -4  968.11  206.17
  -2   0   4  695.56  262.71
  -2   0   4 2860.69  405.05
   2   0  -4  838.42  142.54
   2   0  -4  839.17  100.48
  -2   0  -4  825.58  158.46
  -2   2  -3  402.94   31.60
  -2  -2   3  390.84   92.96
   2  -2  -3  432.55  106.61
   2  -2  -3  389.66   88.03
   2   2   3  413.45   72.92
   2   2  -3  387.83   70.88
   2  -2  -3  275.04  154.11
  -2  -2  -3  435.84  107.92
  -2  -2   3  166.88   76.00
  -2   2  -3  407.33   98.72
  -2   2  -3  366.19  271.18
   2   2   3 1241.43  213.88
   2  -2  -3  407.15   26.65
  -2  -2   3  422.25   37.87
   2   2   3 1271.79  341.02
   2   2  -3  460.27  109.91
  -2   2   3  435.48  103.76
   2   2  -3  413.07   36.05
   2   2   3  389.42   88.76
  -2  -2   3  295.80  178.49
   2   2  -3  364.06  181.54
  -2  -2  -3  429.87   80.85
  -2  -2  -3  263.08  268.90
  -2   2   3  399.68   97.52
   2   2  -3  418.21   94.22
   2  -2   3  382.51   83.09
  -2   2  -3  404.45  103.31
   2  -2   3  426.74  104.45
   2  -2   3  428.95   96.86
  -2  -2  -3  353.63   29.84
  -2  -2  -3  956.48  167.64
   2  -2  -3  422.37   84.26
  -2   2  -3  447.75   36.36
  -2  -3   1 1338.04  476.71
   2  -3   1 1442.52  299.66
   2   3  -1 1617.33  339.34
   2  -3  -1 1555.26  150.53
   2  -3  -1 1411.48  261.56
   2  -3  -1 1665.58  353.73
   2  -3   1 1495.40  226.21
  -2   3  -1 1469.91  243.94
   2  -3   1 1503.10  229.79
   2   3  -1 1639.57  320.09
  -2  -3  -1 1100.58  435.43
   2   3  -1 1476.96  218.59
   2  -3  -1 1619.63  315.96
   2   3  -1 1382.23  289.04
  -2  -3   1 1157.16  494.51
  -2   3  -1 1540.31  340.05
   2  -3  -1 1345.06  297.31
  -2  -3  -1  780.56  628.91
  -2   3  -1 1522.64  313.51
  -2   3  -1 1253.84  592.69
   2   3   1 1535.28  282.98
   2   3   1 2286.87  544.80
   2   3  -1 1566.37  192.83
  -2   3   1 1488.19  286.07
  -2   3   1 1608.14  349.65
   2   3  -1 1336.78  441.51
   2  -3   1 1573.28  336.07
   2   3   1 1414.67  252.19
  -2  -3   1 1573.40  260.80
  -2  -3  -1 1945.43  609.79
  -2  -3  -1 1613.00  321.69
  -2  -1   4 1819.98  360.31
  -2  -1   4 1741.48  349.68
   2  -1  -4 1825.84  228.89
  -2   1  -4 1684.26  340.87
   2  -1  -4 1703.33  333.49
   2   1   4 1880.50  248.56
   2   1   4 1859.11  218.98
   2   1   4 1865.51  367.48
   2  -1  -4  687.34  255.17
   2   1  -4 1756.98  310.07
   2  -1  -4 2087.98  419.02
  -2   1  -4 1797.76  707.14
   2   1   4 4888.96 1063.08
  -2  -1   4  898.22  284.90
   2   1   4 3719.82  632.98
   2  -1  -4 1822.19  265.04
  -2   1  -4 1765.51  367.94
   2   1  -4 1627.23   87.82
  -2   1   4 1797.28  363.60
   2   1  -4 2001.43  418.91
   2  -1   4 1684.65  329.19
   2   1  -4 1796.16  315.62
   2   1  -4 1716.30   90.05
   2   1  -4 5762.30  821.84
  -2   1   4 1818.38  353.99
  -2  -1  -4 3537.21  811.84
  -2  -1  -4 1844.33  239.82
   2  -1   4 4146.82  898.08
  -2   1   4 1370.82  336.90
  -2  -1  -4 3932.66  661.22
  -2  -1  -4 1761.67  366.37
   2  -1   4 1846.76  321.54
   2  -1   4 1914.10  382.38
  -2  -1  -4 1773.40  279.21
   0   0  -6 1168.06  203.99
   0   0  -6 1290.89  259.44
   0   0   6 1243.14  265.38
   0   0   6  939.46  368.16
   0   0  -6 2545.32  497.35
   0   0  -6 1263.17  252.40
   0   0  -6 1244.95  223.24
   0   0   6 1206.66  211.61
   0   0   6 1169.72  209.11
   0   0  -6 1267.96  256.69
  -1   3   4  869.57   88.13
   1   3  -4  467.76  303.88
   1   3  -4  527.84  125.75
  -1   3   4  487.39   53.95
   1  -3   4  521.24  122.44
   1  -3   4  534.15  114.99
   1  -3   4  511.22  115.85
  -1  -3  -4  548.17  137.56
   1   3  -4  531.28  122.36
  -1   3   4  508.63  115.89
  -1   3  -4  534.86  136.18
   1  -3  -4  527.89  117.77
  -1  -3   4  458.69   60.29
   1  -3  -4  464.64  109.90
  -1  -3   4  327.27  227.34
  -1  -3  -4  455.65   66.12
   1   3   4  537.19  116.54
   1  -3  -4  511.94  116.75
   1  -3  -4  298.77  228.88
  -1  -3  -4  510.01   77.04
   1   3  -4  510.61  109.03
  -1   3   4  493.89  124.92
  -1  -3  -4  444.49  223.58
  -1   3  -4  512.62  125.80
  -1  -3   4  521.80  136.27
  -1   3  -4  519.37   83.88
  -1  -3   4  503.08   55.35
  -1   3  -4  493.89   84.95
  -1  -3   4  521.18  118.04
  -1   3   4  543.68  137.48
  -1  -3  -4  898.86  254.08
   1   3   4 1457.14  337.07
  -1  -3   4  527.04  117.79
  -1   3  -4  447.77  364.30
  -1   3  -4  493.37  125.38
  -1  -3  -4  521.19  116.21
   1   3   4  483.92  113.47
   1  -3   4  335.28  271.66
  -1  -3  -4 1453.00  361.03
   1  -2  -5 1392.43  290.61
   1   2   5 4235.26  802.60
  -1  -2  -5 3294.79  634.25
  -1   2  -5 1550.03  336.29
  -1  -2   5  644.04  328.76
  -1  -2   5 1359.55  273.59
  -1   2  -5 1333.14  254.24
  -1   2   5 1543.19  330.66
   1  -2   5 1496.54  305.19
   1   2  -5 1588.22  325.78
   1  -2   5 1505.87  328.68
  -1  -2  -5 1471.60  245.13
   1   2  -5 1653.07  616.86
  -1   2   5 3071.91  415.95
   1   2  -5 1535.14  317.44
  -1   2   5 1386.34  291.88
   1  -2   5 1551.34  296.06
   1  -2   5  680.19  387.84
   1   2  -5 1391.02  274.84
   1  -2  -5 2438.56  536.60
  -1  -2  -5 1582.75  341.06
   1   2   5 1540.55  265.74
   1   2   5 3662.76  763.76
   1  -2  -5 1535.71  273.65
  -1  -2   5 1505.06  317.63
   1  -2  -5 1466.62  303.16
  -1   2  -5 1501.00  205.76
   1   2   5 1424.29  289.78
   1   2   5 1557.03  314.54
  -1   2  -5 1429.93  325.59
  -1   2  -5 1052.31  607.89
  -1  -2  -5 1405.14  261.77
  -1   2   5 1510.63  306.48
  -1   2   5 4534.86  850.56
  -1  -2  -5 1294.51  206.50
  -1   2   5 1323.49  206.59
  -1   2  -5 1575.94  211.70
  -1  -2   5 1521.69  336.46
  -1   4   2    6.26   36.49
   1  -4   2   11.77    8.41
   1  -4   2    8.98    9.79
  -1  -4  -2    8.68   10.78
   1   4  -2   10.61   11.27
   1  -4   2    9.89   10.16
   1   4  -2   14.34    7.89
  -1  -4  -2    7.63   32.38
   1  -4   2    8.25   42.44
   1   4  -2   10.95   39.88
   1   4  -2    9.69    6.50
   1   4  -2    9.23   10.00
   1  -4  -2    4.54   10.19
   1   4  -2   10.23   10.70
  -1  -4  -2    8.82    3.47
  -1  -4  -2    4.83   29.95
   1   4   2   10.65    3.85
  -1  -4  -2    8.71   11.76
   1   4   2   12.65   18.00
   1  -4   2    9.53    7.84
  -1  -4   2   11.16    7.40
  -1   4   2   17.35   13.77
   1   4   2   11.54   11.28
  -1   4   2    9.72   11.06
  -1   4  -2    6.06   44.07
   1  -4   2    9.77   10.54
   1  -4  -2    8.40   10.75
   1   4   2    9.75   10.80
   1  -4  -2    8.41    8.21
  -1   4  -2    9.61    9.26
  -1  -4   2    8.23   33.88
   1  -4  -2    9.80   45.71
  -1   4  -2    8.83    9.47
  -1  -4   2   10.06    7.95
  -1   4  -2    9.18   11.48
  -1   4   2    9.13    3.41
  -1  -4  -2    7.87   28.50
   1  -4  -2   10.38   11.47
  -1  -4   2   17.36   12.28
  -1   4   2    5.60   12.67
   0   4  -3  164.19   51.65
   0   4  -3  166.34   58.47
   0  -4  -3  105.50   83.34
   0  -4   3  159.06   46.79
   0   4   3  285.48   68.46
   0  -4   3  166.45   39.93
   0  -4   3  121.15  200.68
   0   4  -3  173.19   51.88
   0  -4   3  170.03   54.25
   0   4   3  163.73   39.03
   0  -4  -3  165.15   55.59
   0  -4  -3  157.48   51.23
   0   4  -3  128.53  158.04
   0   4  -3  159.91   43.28
   0   4   3  168.60   59.34
   0  -4   3  156.63   37.59
   0  -4  -3  131.87  170.78
   0   4   3  160.67   54.17
   0  -4  -3   93.64  123.04
   0  -4  -3  145.94   33.58
  -2  -3  -2  386.74  188.13
   2  -3   2  628.18  143.51
  -2  -3  -2  668.61  157.36
  -2   3   2  614.01  138.49
   2  -3   2  625.89  149.25
   2  -3   2  603.53  111.02
   2   3  -2  629.56  261.22
  -2   3   2  672.96  161.38
  -2  -3  -2 1021.66  282.10
   2  -3   2  605.57   88.66
  -2  -3  -2  252.78  279.92
   2   3  -2  674.83  159.07
   2  -3  -2  646.74  137.20
   2  -3   2  470.74  301.12
   2   3  -2  620.44   85.61
   2   3  -2  600.98   92.87
  -2   3  -2  510.24  343.21
   2   3  -2  591.07  136.18
  -2   3  -2  623.68  179.08
  -2   3  -2  588.42  101.90
   2   3   2  574.77  120.17
   2  -3  -2  591.17  139.71
   2   3   2  616.86  123.32
   2  -3  -2  562.88  118.50
  -2  -3   2  445.21  253.52
  -2  -3   2  660.40  145.63
  -2  -3   2  400.26  183.91
  -2  -3   2  647.65   98.51
  -2   3  -2  628.72  145.85
   2   3   2 1029.02  273.97
   0  -1   6    0.88    6.39
   0   1   6    1.76    2.50
   0   1  -6    0.14    1.72
   0  -1   6    1.89    3.87
   0  -1  -6    0.87    2.64
   0   1   6    2.11    5.94
   0  -1  -6    0.79    2.92
   0  -1   6    0.33    3.49
   0   1   6    1.20    2.86
   0  -1  -6    2.72    6.39
   0   1  -6    0.34    2.50
   0  -1   6    0.70    1.84
   0  -1   6    0.38    2.22
   0  -1  -6    3.53    3.37
   0   1   6    0.41    2.97
   0  -1  -6    1.09    2.81
   0   1  -6    0.89    3.47
   0   1   6    0.62    6.57
   0   1  -6    0.33    3.86
  -3   0   0    1.39    2.70
  -3   0   0   -0.42    7.33
  -3   0   0    0.22    1.93
  -3   0   0    0.41    2.13
   1   0  -6  902.83  175.54
   1   0  -6  912.03  207.31
   1   0  -6  870.18  122.15
   1   0  -6  894.44  191.09
   1   0   6  794.61  119.19
  -1   0   6  845.90  182.91
  -1   0  -6  899.99  192.91
  -1   0   6  963.17  305.74
   1   0  -6 1847.69  357.35
   1   0   6 1451.08  399.32
  -1   0  -6  824.78  173.60
   1   0   6 2082.21  486.11
   1   0   6  955.44  189.17
  -1   0   6  816.95  142.26
  -1   0  -6 1758.76  391.83
  -1   0   6  837.83  182.12
   1   0   6  923.00  188.33
   1   0  -6  893.84  193.82
  -1   0  -6  834.02  130.52
   1   0   6  887.54  199.29
   0   3  -5    5.18    4.12
   0  -3   5    3.03    4.00
   0  -3   5    0.61    3.71
   0  -3  -5    5.50    3.81
   0  -3  -5    0.61    3.12
   0   3  -5    0.05   14.19
   0   3   5    0.52    8.04
   0   3   5    0.25    3.94
   0  -3  -5    0.41    2.38
   0   3  -5    3.63    4.30
   0   3   5    0.67    2.86
   0   3  -5    0.39    2.59
   0   3   5   -0.07    9.60
   0  -3   5    0.33    1.80
   0   3  -5    0.26    1.95
   0   3   5    0.30    2.51
   0   3   5    0.42    3.62
   0  -3   5    0.10    2.82
   0  -3  -5   -0.18    8.93
  -2  -2  -4  848.15  112.53
   2  -2  -4  539.79  224.20
   2  -2  -4  902.84  161.61
  -2  -2   4  325.52  142.13
  -2  -2   4  907.21  213.16
   2   2   4 2739.26  475.15
   2   2   4 1793.42  566.87
   2   2   4  924.19  146.99
   2   2  -4  959.29  212.22
  -2  -2  -4  798.46  368.16
  -2   2  -4  771.11  467.24
   2   2  -4  889.86  184.47
   2   2  -4  852.68  331.05
  -2   2   4  811.62  177.27
   2  -2   4  387.17  228.64
   2  -2  -4  830.51   67.12
  -2   2  -4  874.65  200.36
  -2  -2  -4  775.84   87.83
   2  -2   4  832.39  171.20
   2  -2   4  930.28  201.03
  -2  -2  -4 1970.09  350.62
  -2  -2  -4  931.14  213.41
   2   2   4  855.49  179.92
  -2   2  -4  827.68  182.09
   2  -2  -4  984.15  218.73
   2  -2   4  907.69  185.60
   2   2  -4  826.79  164.09
  -2   2   4  950.07  212.14
  -2  -2  -4  941.11  166.49
   2  -2  -4  840.14  178.55
  -2  -2   4  829.05  176.43
  -3   0  -1    0.55    1.67
   3   0   1    0.34    1.35
  -3   0   1    0.34    1.74
  -3   0   1    0.16    1.89
  -3   0   1    0.16    5.44
  -3   0   1    0.49    1.82
  -3   0  -1   -0.16    2.28
  -3   0  -1   -0.34    5.24
   3   0   1    0.15    1.14
  -3   0  -1    0.32    1.15
   1   4   3 4832.26  987.06
   1   4  -3 2838.00  581.27
  -1  -4  -3 2908.04  593.59
  -1  -4   3 3026.29  631.63
   1   4  -3 2969.88  585.73
   1  -4  -3 2887.30 1346.75
  -1   4  -3 2813.74  529.37
   1  -4  -3 3051.81  597.85
  -1  -4   3 2771.17  390.35
   1  -4  -3 2521.70  487.27
  -1  -4  -3 2019.45  956.72
  -1   4   3 3229.59  680.23
  -1   4   3 2918.32  629.87
  -1  -4  -3 1372.29  764.63
   1   4   3 2862.23  565.73
   1   4  -3 2693.39 1097.82
   1   4  -3 3021.70  528.18
   1  -4   3 2812.02  563.95
  -1   4   3 2827.22  542.77
  -1  -4  -3 2932.61  618.50
  -1  -4   3 2854.35  534.95
  -1  -4  -3 1857.26  873.89
   1  -4   3 2318.51 1077.52
   1  -4   3 2833.06  548.93
   1  -4  -3 2640.43  530.78
  -1   4  -3 2727.84 1273.34
   1  -4   3 2960.08  537.55
  -1  -4  -3 2723.24  338.64
   1   4  -3 2876.47  578.25
  -1  -4   3 2777.38  452.44
  -1   4  -3 2868.45  595.26
   1   4   3 2833.65  565.40
  -1   4  -3 2922.79  599.91
   1   4   3 3076.65  372.30
  -1   4  -3 2746.65  454.75
   1  -4  -3 1828.45  863.89
  -1  -4   3 2234.39  973.35
  -1   4  -3 2911.19  525.23
   1  -4  -3 1460.83  308.32
  -1   4   3 2519.81  250.65
  -3   1   0    0.34    2.19
  -3   1   0    0.70    2.45
  -3   1   0    0.14    3.10
   3  -1   0    0.09    2.01
   3  -1   0    0.26    1.13
   3   1   0    0.39    1.73
  -3   1   0    0.26    3.85
   3  -1   0    0.55    2.18
  -3  -1   0    0.19    1.71
  -3  -1   0    0.41    7.18
  -3  -1   0    0.19    1.15
  -3  -1   0    0.44    2.06
  -3   1   0    0.60    2.39
   1   1  -6 1306.64  270.37
  -1  -1  -6 1313.68  254.22
  -1  -1  -6 1205.40  206.44
  -1  -1  -6 1313.84  277.63
   1   1   6 3010.07  658.73
   1   1  -6 1424.03  295.53
   1  -1   6 1298.04  280.77
   1  -1   6 1255.84  174.05
   1  -1  -6 1332.54  288.48
  -1   1  -6 1299.06  184.84
  -1   1  -6 1184.92  233.86
  -1   1   6 4177.81  802.69
  -1   1  -6 1378.65  316.55
  -1   1   6 1216.44  236.96
  -1  -1  -6 2584.57  523.31
   1  -1   6 1438.05  278.51
  -1  -1   6  531.34  286.60
  -1   1   6 1220.63  240.91
  -1  -1   6 1181.93  245.25
   1   1  -6 1350.97  275.47
   1   1  -6 1920.24  455.57
   1  -1  -6 1308.80  222.09
  -1  -1  -6 1292.08  236.11
  -1  -1   6 1267.08  282.94
  -1  -1   6 1154.67  154.26
   1  -1  -6 2476.35  468.45
   1   1   6 1348.21  284.57
   1   1   6 1312.18  211.92
   1   1  -6 1389.72  306.63
   1   1  -6 1174.96  126.94
   1  -1   6 1391.84  284.45
   1  -1  -6 1287.98  269.83
  -1   1  -6 1315.36  285.90
   1   1   6 2702.55  557.60
   1  -1  -6 1369.11  282.28
  -1   1  -6 1391.32  586.09
   1  -1  -6 1342.23  215.66
   1  -1   6 1505.83  471.73
  -1   1   6 1327.21  282.80
   1   1   6 1311.14  265.73
  -2   3   3  207.89   65.98
   2   3  -3  201.72   23.80
   2   3  -3  169.72  110.30
  -2  -3  -3  488.65  143.34
   2   3  -3  192.82   41.12
   2  -3   3  143.84  152.87
   2  -3   3  189.36   49.56
   2  -3   3  211.83   64.23
   2   3  -3  216.54   67.35
   2  -3   3  208.35   63.38
  -2  -3   3  207.75   61.70
   2   3   3  480.01  179.12
  -2  -3   3  219.00   27.81
   2   3   3  201.95   50.40
  -2   3  -3  199.36   69.21
  -2  -3   3  145.16  127.47
  -2   3  -3  197.41   33.01
   2   3   3  191.48   55.20
   2  -3  -3  203.14   55.50
  -2  -3   3  124.35   88.96
   2  -3  -3  201.09   61.71
  -2   3  -3  202.95   63.88
  -2   3  -3  160.45  179.85
  -2   3  -3  192.26   57.83
   2  -3  -3  188.32   54.10
   2  -3  -3  121.26  113.46
   2   3  -3  199.25   60.84
   2  -3   3  213.28   30.90
  -2  -3  -3  282.87  110.76
  -2   3   3  201.20   63.20
  -2  -3  -3  213.02   57.28
  -2  -3  -3  221.98   72.98
  -2  -3  -3   77.94  136.49
  -2   0   5    0.43    3.35
   2   0   5    0.65    3.53
   2   0   5    0.74    3.22
  -2   0  -5    5.68    5.75
  -2   0  -5    0.02    3.40
   2   0  -5    2.46    3.22
   2   0  -5    0.09    3.28
   2   0  -5    0.39    0.95
  -2   0   5    0.06    2.57
   2   0  -5    0.72    3.66
   2   0  -5    0.97    2.11
   2   0   5    0.20    5.36
   2   0  -5    0.20    4.04
   2   0   5    0.29    8.75
  -2   0  -5    2.89    2.96
   2   0   5    0.14    2.23
  -2   0   5    0.28    7.53
   3  -1  -1   49.64   24.59
  -3   1   1   47.52   52.48
  -3  -1  -1   59.61   13.75
  -3   1  -1   69.60   26.64
   3   1  -1   65.01   16.44
  -3   1  -1   41.58   37.68
  -3   1  -1   65.21   14.38
  -3  -1  -1   36.70   15.69
  -3   1  -1   66.87   27.87
   3   1   1   55.87   21.28
  -3  -1   1   29.36   84.98
  -3  -1  -1   42.62   19.05
  -3  -1  -1   69.41   27.91
   3  -1  -1   39.48   20.17
  -3  -1   1   65.37   20.14
  -3   1   1   67.29   24.51
  -3  -1  -1   24.65   74.47
   3  -1  -1   53.54   15.95
   3  -1   1   58.70   21.15
  -3  -1  -1   67.49   17.65
   3  -1   1   26.10   21.00
   3   1   1   61.84   14.24
  -3  -1   1   64.41   22.33
   3  -1   1   55.02   11.73
  -3   1   1   66.47   21.67
  -3   1  -1   89.31   45.44
  -3  -1   1   55.32   15.23
  -3   1   1   66.75   25.73
   0   2   6  553.83  126.09
   0  -2  -6  528.24  117.71
   0   2  -6  601.18  130.59
   0   2  -6  513.03   88.11
   0  -2   6  584.41  143.23
   0  -2   6  540.76  136.55
   0   2   6  540.00  122.97
   0  -2  -6  583.19  126.88
   0   2  -6  359.59  274.66
   0   2   6  564.81  117.63
   0   2   6 1237.64  250.93
   0  -2   6  613.04  103.38
   0  -2  -6  595.91  133.03
   0  -2  -6 1276.66  289.76
   0  -2  -6  531.13  114.57
   0   2   6 1735.37  388.57
   0   2  -6  584.69  152.55
   0  -2   6  530.63  105.95
   0   2  -6  558.69  138.59
   0   5   0    0.22    2.26
   0  -5   0    0.14    3.41
   0   5   0    0.42    2.47
   0  -5   0    0.37    2.27
   0   5   0    0.09    1.65
   0  -5   0   -0.03    2.32
   0  -5   0    0.16    1.47
   3   0  -2  220.93   47.62
  -3   0  -2  199.86  116.39
  -3   0  -2  199.16  106.18
  -3   0   2  111.14  132.38
  -3   0   2  259.07   60.18
  -3   0   2  248.23   61.71
  -3   0  -2  263.10   65.43
  -3   0  -2  247.98   69.64
   3   0   2  246.20   48.26
  -3   0   2  228.26   53.98
   3   0   2  273.64   38.69
   3   0   2   85.18   44.19
   0   4   4  565.19  143.19
   0  -4  -4  333.03  279.79
   0   4   4  584.95  115.05
   0   4  -4  429.65  345.82
   0   4  -4  593.57  144.50
   0  -4  -4  529.54  131.00
   0   4  -4  585.39  128.24
   0  -4   4  579.63  146.10
   0  -4   4  567.40  107.51
   0  -4  -4  362.27  173.65
   0  -4  -4  501.00   99.71
   0  -4   4  389.08  308.76
   0   4  -4  561.65  121.34
   0   4  -4  596.15  150.40
   0  -4   4  559.41  132.31
   0   4   4  982.61  191.23
   0  -4  -4  367.09  302.19
   0  -4  -4  595.31  149.20
   0   4   4  614.51  158.34
   0  -4   4  531.78  102.05
   2   1  -5   50.27   20.20
  -2  -1  -5   48.42   11.42
   2   1  -5  123.65   52.29
   2   1   5   49.19   23.24
   2   1  -5   55.82   28.31
  -2   1   5   49.02   26.75
  -2   1  -5   48.89   25.60
  -2  -1  -5  121.14   47.94
   2   1   5  132.20   72.37
   2  -1  -5   55.90   28.75
   2  -1  -5   51.06   12.90
  -2   1  -5   33.76   70.19
  -2  -1   5   48.98   25.50
   2  -1   5   46.77   33.05
  -2  -1   5   21.43   27.52
   2  -1   5   50.15   20.39
   2   1  -5   49.84   21.63
   2   1   5   47.98    9.87
   2  -1   5   52.67   25.09
   2  -1   5   17.18   40.23
  -2   1   5   50.72   25.91
   2   1   5   50.96   14.14
   2   1   5   93.53   46.16
  -2   1  -5   47.02   25.23
  -2   1   5   47.14   14.57
  -2  -1  -5   49.50   27.55
  -2   1   5  167.43   49.68
   2  -1   5  114.89   65.54
  -2  -1  -5   49.35   18.74
  -2  -1   5   48.03   25.10
   2  -1  -5   47.99   23.74
   2  -1  -5   49.84   18.10
   2  -1  -5   89.96   31.54
   2   1   5   50.84   28.01
   0  -5   1    0.66    2.68
   0   5  -1    0.19    2.72
   0  -5  -1    1.32    3.68
   0  -5  -1    1.22    5.38
   0  -5  -1    0.51    4.73
   0   5   1    0.07    4.09
   0   5   1    0.41   11.65
   0   5  -1    0.84    3.52
   0  -5   1    1.66    3.06
   0  -5  -1    0.59    2.09
   0   5  -1    0.16    3.60
   0   5   1    0.38    2.56
   0   5   1    0.31    2.08
   0  -5   1    0.29    2.40
   0  -5   1    0.46    3.44
   0   5   1    2.86    3.70
   0  -5   1    0.08    2.81
   1  -3  -5  166.62   49.59
   1   3  -5  142.21  158.86
   1  -3  -5   75.70   87.49
  -1  -3   5   63.90   73.11
   1  -3   5  168.25   52.99
  -1  -3  -5  172.26   34.95
   1   3  -5  178.37   52.68
  -1  -3  -5  164.32   46.07
   1   3  -5  171.30   57.43
  -1  -3   5  173.95   53.28
  -1  -3   5  152.70   20.26
  -1   3  -5  176.37   63.38
  -1   3  -5  167.49   45.38
  -1   3  -5  163.14   58.30
   1  -3   5  159.24   51.99
   1   3   5  488.10  139.93
  -1   3  -5  167.36   33.75
  -1   3   5  165.08   26.91
  -1   3  -5  183.21   38.33
  -1  -3  -5  146.68   27.75
   1   3   5  157.89   48.98
  -1   3  -5  139.42  189.54
  -1   3   5  168.80   51.56
  -1  -3  -5  180.26   62.76
  -1   3   5  176.27   60.82
  -1  -3  -5  390.37  125.19
  -1   3   5  163.49   53.87
   1   3  -5  164.54   48.82
  -1  -3  -5  161.50  108.35
   1   3   5  182.65   50.67
  -1  -3   5  181.56   17.88
   1  -3  -5  153.89   48.69
   1  -3   5  180.53   48.36
  -1  -3   5  174.61   80.19
   1   3   5  488.30  149.30
  -1  -3   5  163.20   49.79
   1  -3  -5  174.36   49.93
  -3   1   2   81.70   73.05
   3   1   2  184.47   31.93
  -3  -1   2   76.61  137.67
   3   1   2  157.37   45.97
  -3   1  -2  174.13   58.59
   3  -1   2   70.74   48.48
  -3  -1  -2  171.11   30.79
  -3  -1   2  175.91   35.45
   3   1  -2  153.59   42.10
  -3  -1  -2   73.52  111.51
  -3   1   2  167.74   47.39
   3  -1   2  158.55   22.92
  -3   1  -2  164.93   22.35
  -3  -1  -2  182.18   57.36
  -3   1   2  175.24   44.01
   3  -1   2  175.87   56.16
  -3  -1   2  176.17   48.81
   3   1   2  176.81   29.40
   3  -1  -2   68.69   27.81
   3  -1   2  170.68   43.83
   3  -1  -2  142.04   38.39
  -3   1  -2  140.20  104.05
   3  -1  -2  162.13   32.74
  -3   1  -2  181.54   52.30
  -3   1   2  166.86   48.91
   3   1   2  265.96   62.13
  -3  -1   2  151.34   34.76
   3  -1   2  158.98   44.05
   3   1  -2  155.86   30.52
   2  -4   0   37.11   22.27
   2  -4   0   35.12    9.05
   2  -4   0   31.83   18.95
   2   4   0   31.93   18.84
   2   4   0   28.07   47.74
   2  -4   0   36.87   24.46
  -2   4   0   37.23   25.42
   2  -4   0   35.30   15.82
  -2   4   0   37.20   19.96
   2   4   0   33.84   14.73
   2   4   0   35.83   27.31
  -2  -4   0   37.55   27.51
  -2  -4   0   25.69   41.65
  -2  -4   0   14.37   75.67
   2   4   0   35.44    5.74
  -2   4  -1   14.30   11.42
   2  -4  -1   13.09   13.44
   2  -4  -1   12.25   10.28
  -2   4  -1   13.48   13.60
  -2   4   1   13.66   13.21
  -2   4   1   13.50   15.49
   2  -4   1   14.40    8.48
  -2   4  -1   13.42   15.59
   2  -4   1   13.18    7.02
   2  -4   1   13.84   14.35
  -2   4  -1   13.24    8.41
   2  -4  -1   13.18   11.65
   2  -4  -1   13.13    3.21
   2  -4   1   14.59   12.11
   2   4   1   13.15   12.12
   2   4  -1   13.28    7.57
  -2  -4   1    9.78   33.14
  -2  -4  -1   12.56   31.62
   2   4  -1   15.82   13.00
   2   4  -1   13.80    5.14
   2   4  -1   14.70   14.18
  -2  -4  -1   12.10   27.50
  -2  -4  -1    5.79   48.13
   2   4   1   12.74    9.63
  -2  -4   1   10.17   31.55
  -2  -4   1   13.69   14.52
   2   4   1   11.87   24.49
   2   4  -1   17.21   11.80
   2  -4  -1   15.06   15.75
  -2  -4  -1   13.54   19.72
  -3   2   0    0.47    3.02
  -3  -2   0    1.01   13.52
  -3   2   0    0.24    5.94
  -3  -2   0    0.76    0.82
   3   2   0    0.55    1.67
  -3   2   0    0.90    3.35
   3  -2   0    0.82    2.54
   3   2   0   -0.13    2.37
  -3  -2   0    0.34    0.45
   3  -2   0    0.88    1.39
   3  -2   0    1.78    5.07
  -3  -2   0    0.13    0.91
  -3   2   0    0.49    1.87
  -3  -2   0    0.94    2.40
  -1  -2  -6   39.66   12.94
  -1  -2   6   15.57   33.06
   1   2   6  125.17   61.75
   1  -2   6   43.99   24.67
  -1  -2  -6   39.85   15.64
   1  -2  -6   45.31   23.40
   1  -2  -6   42.48   21.73
   1   2  -6   42.29   22.18
  -1  -2   6   39.10   19.67
   1  -2   6   45.77   24.09
  -1   2   6   46.13   25.79
   1  -2  -6   37.00   38.12
  -1   2   6  135.50   57.62
   1  -2   6   45.87   18.46
   1  -2   6   44.35   11.48
  -1   2   6   41.24   19.87
  -1  -2  -6   96.33   46.83
   1   2  -6   43.26   24.83
   1   2  -6   50.56   23.11
  -1  -2  -6   43.65   17.26
  -1   2   6   44.39   23.18
   1   2  -6   32.52   64.91
  -1   2   6   41.24   14.37
  -1  -2   6   46.14   24.46
   1   2   6   45.42   23.38
  -1   2  -6   44.33   25.78
   1   2   6   44.29   16.41
  -1  -2  -6   47.98   26.67
   1   2   6   44.26   20.95
  -1   2  -6   43.07   27.10
  -1   2  -6   37.77   22.66
  -1   2  -6   29.88   75.05
   1  -2  -6   44.04   21.71
   1   2   6  112.16   52.18
  -1  -2   6   43.53   25.84
  -1   2   6   91.55   27.48
  -1   2  -6   47.50   11.71
   0  -5  -2    1.08    3.40
   0   5  -2    0.10    2.83
   0  -5   2    0.12    2.40
   0   5   2    0.43   11.89
   0   5   2    0.09    2.28
   0   5   2    0.76    3.72
   0  -5  -2   -0.03    6.83
   0   5   2    0.20    1.75
   0   5  -2    0.42    2.80
   0  -5   2   -0.20   12.78
   0   5   2    1.76    4.06
   0  -5   2    0.20    2.56
   0   5  -2    0.06    2.80
   0  -5  -2    1.15    1.85
   0   5  -2    0.18    3.32
   0  -5   2    2.20    2.69
   0  -5   2    0.51    3.02
   0   5  -2    1.08   14.70
   0  -5  -2    2.06   12.82
   0  -5  -2    0.73    3.73
  -3   2   1  262.50  141.20
  -3  -2  -1  448.43  108.89
  -3  -2   1  195.22  276.93
   3  -2   1  389.31   76.03
   3   2  -1  351.94   64.24
   3  -2   1  448.87  120.35
  -3   2  -1  444.95   75.29
   3   2   1  457.27   90.82
   3  -2  -1  380.43   85.48
  -3   2   1  451.40  107.27
  -3   2  -1  345.34  255.05
  -3   2  -1  465.31  122.11
   3  -2   1  292.42  159.24
  -3   2   1  464.36  121.08
   3  -2   1  380.06   94.02
  -3  -2   1  461.93   91.94
   3   2  -1  371.50  113.28
  -3  -2  -1  172.38  233.87
  -3   2   1  443.38   97.09
   3   2  -1  377.68   58.07
  -3  -2  -1  338.56   40.62
  -3  -2   1  437.23   99.46
   3  -2  -1  382.22   61.19
   3   2   1  418.72   53.80
   3  -2   1  394.74   61.47
  -3  -2  -1  925.69  115.55
  -3   2  -1  457.19  115.88
   3   2   1  357.55   79.79
   3   2   1  615.49  223.00
   1  -5   0    0.32    3.07
   1   5   0    0.83    2.73
   1   5   0    0.14    1.67
  -1   5   0    0.53    5.37
  -1  -5   0    0.44    1.66
  -1  -5   0    2.12    3.57
   1  -5   0    0.72    3.40
   1  -5   0    0.46    1.67
  -1  -5   0   -0.04    6.77
   1  -5   0    0.47    4.70
  -1   5   0    0.47    3.34
   1  -5   0    0.27    2.65
   1   5   0   -0.02    2.57
   1   5   0    1.88    3.58
  -1   5   0    1.77    3.00
  -1  -5   0    0.61    3.27
   1   4  -4 2771.64  522.89
  -1   4   4 2683.41  531.72
  -1  -4   4 2874.48  636.92
   1  -4  -4 2563.94  520.62
   1   4   4 2763.18  562.82
  -1   4  -4 2566.56  436.96
   1  -4  -4 1686.91  869.33
   1   4  -4 2444.76 1098.19
  -1   4   4 2526.21  243.50
  -1   4   4 2942.33  658.13
   1  -4   4 2787.76  567.43
  -1   4  -4 2507.60 1262.73
  -1  -4   4 2730.06  557.82
  -1   4  -4 2735.77  605.25
  -1  -4   4 1942.39  920.14
  -1   4  -4 2637.32  510.98
   1   4   4 2666.39  558.78
  -1  -4   4 2498.80  394.86
   1  -4  -4 2452.88  520.04
   1  -4  -4 2766.22  569.39
  -1  -4  -4 1465.39  806.37
   1   4  -4 2730.23  576.05
  -1  -4  -4 1888.23  898.25
  -1  -4  -4 2723.31  575.20
   1  -4   4 2645.47  527.59
   1  -4   4 2691.68  569.66
  -1  -4  -4 2817.44  627.63
   1  -4   4 2035.69 1028.53
  -1   4   4 2507.38  233.53
  -1  -4  -4 2619.40  372.18
  -1   4   4 2667.26  610.96
  -1  -4  -4 1438.29  707.79
   1   4  -4 2750.29  583.67
   1   4  -4 2844.98  579.10
  -1   4  -4 2713.27  608.76
  -1  -4  -4 2440.75  340.78
   1   4   4 3412.05  844.52
  -1   4  -4 2636.95  471.59
  -1  -4   4 2507.28  338.77
   0   0  -7    0.24    2.17
   0   0  -7    0.83    2.35
   0   0  -7    0.47    3.59
   0   0   7    0.65    2.08
   0   0  -7    1.66    6.61
   0   0   7    0.67    3.32
   0   0   7   -0.01    7.21
   0   0  -7    0.52    3.57
   0   0   7    1.03    2.33
   0   0  -7    2.44    3.31
   3   0  -3    2.25    2.07
  -3   0  -3    0.03    8.34
  -3   0   3    1.70    2.93
   3   0   3    0.34    3.23
   3   0  -3    1.85    1.96
  -3   0   3    0.53    9.46
   3   0   3    0.67    0.73
  -3   0  -3    0.39    4.61
  -3   0  -3    0.32    2.78
  -3   0   3    0.47    1.89
  -3   0   3    0.61    3.68
  -3   0  -3   10.19    8.00
   3   0   3    0.15    3.95
   1  -5   1  391.96  100.84
  -1  -5  -1  394.36  110.01
   1  -5   1  383.71   78.71
   1  -5   1  381.13   92.21
  -1  -5  -1  387.88  109.56
   1  -5   1  385.63  103.98
   1   5  -1  380.95   97.33
  -1   5   1  416.33  119.38
   1  -5  -1  376.09   98.68
  -1  -5   1  382.23   79.06
   1  -5  -1  395.09  111.99
  -1   5  -1  394.59  107.78
   1   5   1  386.36   97.59
   1   5   1  361.76   87.47
   1   5   1  383.10  125.53
   1  -5  -1  254.60   90.99
  -1  -5   1  264.55  166.16
   1   5   1  365.33   64.43
  -1   5  -1  365.85   89.12
  -1   5   1  405.41  104.80
   1  -5  -1  400.68  107.12
  -1   5  -1  376.99  102.57
   1  -5  -1  354.40   87.46
   1  -5   1  373.07   96.53
  -1  -5  -1  375.51   65.37
   1   5  -1  377.83   72.79
   1   5  -1  399.17  107.38
   1   5  -1  387.79   86.38
  -1   5   1  365.40   71.73
   1  -5   1  299.69  286.13
  -1  -5  -1  143.38  202.39
   1   5  -1  377.98  105.78
  -1  -5   1  377.00   97.92
   2   3  -4  220.16   68.39
  -2   3  -4  199.37   69.41
  -2   3  -4  195.94   28.42
  -2  -3  -4  214.69   58.14
   2  -3   4  204.46   61.98
  -2   3   4  199.42   63.28
   2  -3  -4  123.01  119.49
  -2   3  -4  199.37   62.02
  -2  -3   4  209.64   91.47
   2  -3   4  195.72   53.92
   2  -3  -4  206.71   55.13
  -2  -3   4  200.07   61.84
   2   3   4  208.66   49.82
   2   3   4  192.07   57.27
   2  -3  -4  205.22   62.95
   2  -3  -4  189.01   57.24
   2   3   4  527.14  189.68
  -2   3  -4  193.13   63.10
  -2   3  -4  218.62   27.22
  -2  -3   4   76.17   60.19
  -2   3   4  222.86   71.89
   2   3  -4  186.70   45.03
  -2  -3  -4   77.67  124.49
  -2  -3  -4  244.01  110.29
  -2  -3  -4  226.21   77.49
  -2  -3  -4  121.13  110.55
   2   3  -4  202.55   61.62
   2  -3   4  210.73   63.73
   2   3  -4  172.52  124.05
   2   2   5  714.88  220.58
   2   2   5  282.67   73.63
  -2   2   5  280.49   79.08
   2   2  -5  283.48   73.69
  -2  -2  -5  297.75   91.19
   2  -2  -5  289.60   61.21
   2   2  -5  319.27   89.78
   2  -2   5  258.64   72.99
   2  -2  -5  301.34   87.08
   2   2  -5  267.32   64.26
   2  -2  -5  273.47   74.47
   2  -2  -5  273.08   31.46
  -2  -2   5  102.20   72.06
  -2   2  -5  253.81   72.98
  -2   2   5  299.47   89.05
   2   2   5  866.24  198.53
   2   2  -5  240.80  158.95
  -2  -2   5  285.72   88.60
   2   2   5  292.11   54.11
  -2  -2  -5  282.03  175.51
  -2   2  -5  278.18   84.29
   2  -2   5  285.53   75.44
  -2  -2  -5  289.50   63.47
  -2  -2  -5  607.58  140.48
   2  -2   5  305.68   82.51
  -2  -2  -5  261.27   38.73
   2  -2  -5  218.72  107.93
  -2  -2   5  269.49   75.80
  -2   2   5  187.85   48.87
  -2  -2  -5  286.28   55.34
  -2   4  -2  828.31  196.20
  -2  -4   2  861.13  157.95
   2  -4  -2  693.10  166.58
   2   4   2  765.32  165.91
   2  -4  -2  901.80  231.73
   2  -4  -2  756.73  168.01
   2   4   2  822.04  180.86
  -2   4   2  887.40  212.72
  -2  -4  -2  611.55  375.65
   2   4   2  775.59  281.25
   2  -4   2  811.50  147.09
   2   4  -2  783.25  206.39
   2  -4   2  832.16  154.46
  -2   4   2  890.49  222.15
  -2   4  -2  901.02  183.63
  -2  -4   2  594.81  336.80
   2  -4   2  822.34  196.16
   2   4  -2  862.00  215.01
  -2  -4   2  613.70  328.55
  -2   4  -2  828.61  215.09
   2   4  -2  831.48  135.18
   2  -4  -2  838.08  192.32
   2   4  -2  785.69  125.60
  -2  -4  -2  304.38  336.08
   2  -4   2  834.65  206.81
   2   4  -2  822.04  391.03
  -2  -4  -2  528.78  329.27
  -2   4  -2  791.12  180.34
  -2   4  -2  638.96  432.25
  -2  -4  -2  927.63  230.88
   2   4  -2  878.31  204.97
   0  -1   7    0.31    2.06
   0   1   7    1.86    2.22
   0   1   7    0.24    2.75
   0   1  -7    0.65    3.74
   0   1  -7    0.09    6.18
   0  -1  -7    0.65    2.74
   0  -1  -7    0.38    2.58
   0  -1   7    0.57    3.79
   0   1   7    1.16    6.63
   0   1   7    0.55    5.77
   0  -1   7    2.00    3.29
   0   1  -7    0.46    1.56
   0  -1   7    0.49    1.66
   0  -1   7    0.05    6.56
   0  -1  -7    0.82    6.31
   0   1  -7    3.25    3.47
   0  -1  -7    0.12    2.42
   0   1  -7    0.13    2.27
   3   1   3 2626.37  664.83
  -3   1   3  744.75  159.71
  -3  -1  -3  816.09  205.50
  -3  -1  -3  360.23  253.73
   3   1  -3  691.10   96.18
   3  -1   3  279.73  134.08
  -3   1   3  288.09  175.52
   3  -1  -3  817.39  139.30
  -3   1  -3  664.87  334.94
   3   1   3  785.53  106.84
  -3  -1   3  724.10  133.43
  -3   1  -3  792.21  181.51
  -3   1  -3  790.39  169.25
   3  -1  -3  717.08  107.62
  -3  -1   3  777.65  111.65
   3   1   3  358.56  160.93
   3   1   3  772.97  166.24
   3   1  -3  701.62  136.16
  -3  -1  -3  788.94  121.51
  -3  -1  -3  305.69  132.68
  -3  -1   3  334.63  314.05
   3  -1   3  743.99  152.81
   3  -1   3  812.60  153.31
  -3  -1   3  793.87  169.24
   3  -1  -3  671.55  140.26
   3  -1  -3  266.01   84.18
   3   1   3  756.18  101.75
  -3   1   3  780.83  166.89
   3  -1   3  819.46  187.60
  -3  -2   2  127.61   26.84
  -3  -2   2   54.59  132.81
  -3  -2   2  127.18   40.63
  -3   2  -2  135.51   48.84
   3  -2  -2  113.17   32.38
   3  -2   2  117.08   32.30
   3  -2   2  147.54   65.28
  -3  -2  -2   51.55  117.89
  -3   2   2  136.21   47.26
   3   2  -2  108.70   20.26
   3   2  -2  112.13   37.72
  -3   2   2  125.42   37.32
   3  -2   2  123.26   17.62
  -3  -2  -2  106.33   13.03
  -3   2   2   36.57   27.74
   3  -2  -2   73.57   54.72
   3  -2   2  123.47   39.95
   3   2   2  132.42   14.18
   3   2   2  113.69   34.82
   3  -2  -2  126.14   24.82
  -3   2  -2   86.69   89.00
   3   2   2  262.74  150.39
   3   2   2  133.72   36.11
  -3   2  -2  130.24   19.89
  -3  -2  -2  132.09   45.89
  -3  -2  -2  248.83   48.33
   3   2  -2  114.83   23.63
  -3   2  -2  133.67   48.63
   3  -2   2   58.05   51.66
  -3   2   2  134.23   41.54
   0   3   6    0.25    3.85
   0  -3   6    0.61    5.31
   0   3   6    0.69    3.43
   0  -3   6    0.19    1.69
   0  -3   6    0.20    2.62
   0  -3   6    0.34    4.06
   0   3  -6    1.11    4.53
   0   3  -6    2.32    1.82
   0   3  -6    0.46    4.03
   0   3   6    0.98    5.13
   0   3   6    2.35    2.57
   0  -3  -6    0.52    3.06
   0  -3  -6    1.08    2.99
   0  -3  -6    0.03    8.84
   0   3   6    5.57    9.47
   0  -3  -6    0.41    3.84
   0  -3   6    0.35    7.52
   0   3  -6    0.24    2.65
   0  -3  -6    0.16    2.43
   1  -5   2   15.39   11.13
   1  -5   2   12.64   56.33
   1  -5   2   15.54   12.63
  -1  -5  -2   13.01   37.97
   1   5  -2   15.35   14.96
  -1   5   2   16.76   17.84
  -1  -5   2   15.44    9.31
  -1   5  -2   14.15   74.08
   1  -5  -2   15.37   15.78
   1   5   2   14.04    9.78
  -1   5  -2   15.84   13.21
  -1  -5   2   15.14   11.30
   1  -5  -2   15.86   15.64
  -1   5   2   18.11   14.04
   1  -5  -2    6.97   15.75
  -1   5  -2   14.78   14.80
  -1  -5   2   10.45   31.42
   1   5   2   15.40   15.53
   1  -5  -2   14.65   13.73
  -1   5  -2   15.23   11.97
  -1  -5  -2   14.86    5.46
  -1  -5  -2   16.06   14.44
   1   5   2   14.95   13.69
   1  -5  -2   13.76   10.17
   1   5   2   22.55    8.09
  -1   5   2   14.53    5.32
   1   5  -2   15.79   12.33
  -1  -5  -2    5.80   38.55
   1  -5   2   14.73   12.92
   1   5  -2   15.13   13.82
   1  -5   2   15.88   10.55
   1  -5   2   14.75   13.05
   1   5  -2    0.87    8.91
  -1  -5  -2   17.11   15.23
   1   5  -2   16.53    9.63
  -1  -5  -2   11.96   43.68
   0   5  -3    0.72    4.04
   0  -5   3    1.87   17.01
   0   5  -3    1.01   16.72
   0   5  -3    0.95    3.51
   0  -5  -3    0.46   17.20
   0   5  -3    0.49    5.78
   0  -5  -3    0.45    2.38
   0   5  -3    1.01    4.13
   0  -5   3    0.85    3.14
   0   5   3    1.65    4.92
   0  -5   3    0.57    3.62
   0   5   3    1.61    2.13
   0  -5   3    1.40    2.90
   0  -5  -3    2.11    5.12
   0   5   3    0.76    2.86
   0  -5  -3    0.36    7.38
   0  -5   3    0.40    4.51
   0   5   3    5.32    5.49
   0  -5  -3    1.90    4.36
   0  -5  -3    0.87   13.38
   0  -4  -5   68.90  111.73
   0  -4  -5   47.22   52.91
   0   4  -5  102.10   31.18
   0  -4   5  102.33   42.44
   0  -4   5  104.98   26.67
   0  -4  -5   82.06   23.83
   0  -4   5   64.55  105.67
   0  -4   5   96.93   37.65
   0  -4   5   98.08   25.50
   0   4   5  102.05   30.20
   0   4   5  258.91   72.18
   0  -4  -5  106.23   53.61
   0   4  -5  103.40   33.53
   0   4   5  101.74   40.00
   0  -4  -5   89.73   34.80
   0   4  -5  104.37   42.62
   0   4   5  110.81   46.31
   0   4  -5  101.42   42.39
   0  -4  -5   42.98   78.57
   1   0  -7    1.35    1.29
  -1   0   7    0.26    1.63
  -1   0   7    0.06    2.79
  -1   0  -7   -0.45    6.85
   1   0   7    0.64    3.45
   1   0   7    0.22    2.85
  -1   0   7   -0.05    5.64
  -1   0   7    0.11    2.91
   1   0  -7    0.90    3.29
   1   0   7    0.21    1.37
   1   0   7    1.36    7.66
  -1   0  -7   -0.14    3.13
  -1   0  -7   -0.03    2.64
  -1   0  -7    1.30    1.44
   1   0  -7    0.27    3.33
   1   0  -7    0.15    3.72
   1   0  -7    1.07    5.21
   1   0   7    0.16    2.40
   2   0   6 1308.46  299.11
   2   0   6 3104.90  771.49
   2   0  -6 2772.40  486.21
   2   0   6 1392.84  261.05
   2   0  -6 1293.85  151.21
  -2   0  -6 1672.63  488.31
  -2   0   6  530.56  265.90
   2   0  -6 1352.38  307.41
  -2   0   6 1290.63  282.84
   2   0  -6 1461.58  342.50
  -2   0  -6 1233.83  287.37
   2   0   6 1028.29  479.70
   2   0  -6 1331.98  249.64
   2   0  -6 1327.33  287.44
  -2   0  -6 1356.99  304.33
  -2   0  -6 1235.18  122.48
   2   0   6 1232.13  107.42
   2   0   6 1447.06  320.15
  -2   0   6 1258.44  289.88
  -2   4  -3  819.85  160.77
  -2  -4  -3  361.48  241.13
   2   4  -3  753.83  137.86
  -2   4   3  810.55  205.12
  -2   4  -3  753.69  203.42
  -2   4  -3  720.14  180.21
  -2  -4   3  535.98  318.70
   2  -4  -3  716.76  178.09
  -2  -4   3  451.39  258.75
  -2   4  -3  577.85  422.53
   2  -4   3  541.75  387.69
   2   4   3  742.86  166.95
  -2  -4  -3  279.16  299.30
   2  -4  -3  447.27  302.68
  -2  -4   3  758.42  118.90
   2   4   3  814.23  283.61
  -2   4  -3  747.06  181.72
   2   4  -3  804.21  193.35
  -2  -4  -3  832.03  203.13
  -2   4   3  783.24  197.96
  -2  -4  -3  502.19  296.16
  -2  -4  -3  846.31  224.50
   2   4  -3  738.22  182.42
   2   4   3  680.89  159.94
   2  -4  -3  676.24  160.91
   2  -4  -3  762.90  177.39
   2  -4   3  766.56  155.90
   2  -4   3  745.59  187.31
   2  -4   3  771.42  125.79
   2  -4   3  785.78  191.94
   2   4  -3  722.15  100.36
   2   4  -3  793.00  201.80
   2   4  -3  754.31  383.59
   1   1   7   65.43   43.09
   1  -1  -7   33.57   14.15
   1  -1  -7   34.18   17.52
  -1   1  -7   22.29   61.55
  -1  -1   7   12.00   31.46
   1   1   7   33.41   16.53
  -1   1  -7   32.54   15.18
   1  -1  -7   33.21   19.91
   1  -1  -7   34.95   20.13
  -1  -1   7   32.92   16.79
   1  -1  -7   33.01   11.70
  -1  -1   7   31.30   20.22
  -1   1  -7   32.97   21.46
   1  -1   7   36.79   15.87
  -1   1  -7   33.22    9.41
   1  -1  -7   61.27   30.77
  -1  -1  -7   33.40   17.24
  -1  -1  -7   31.12   11.32
   1   1  -7   34.61   35.80
   1   1   7   77.24   43.61
   1  -1   7   34.64   21.72
   1   1   7   34.53   21.19
   1  -1   7   12.61   38.89
   1  -1   7   36.67   20.06
  -1  -1  -7   75.86   43.33
   1   1  -7   31.64    6.26
   1   1  -7   33.33   19.39
   1   1  -7   36.67   22.69
  -1   1   7   31.12   16.21
  -1   1   7   32.67   19.46
  -1  -1  -7   32.93   18.91
   1   1  -7   32.23   20.21
   1  -1   7   30.67    9.02
   1   1  -7   36.02   18.81
  -1   1  -7   36.02   25.43
  -1   1   7   95.53   52.57
  -1   1   7   31.54   14.26
  -1  -1  -7   36.50   14.27
   1   1   7   32.84   11.79
  -1  -1   7   29.95    8.03
  -2   1   6  215.19   51.00
   2   1  -6  482.18  157.20
  -2   1   6  771.34  173.53
   2   1  -6  265.09   81.90
  -2  -1  -6  515.03  147.66
  -2   1   6  238.64   72.52
  -2  -1  -6  233.73   75.29
   2  -1   6  238.15   63.55
   2  -1   6  250.26   73.58
   2   1   6  238.55   50.98
  -2  -1   6   95.00   83.79
  -2   1  -6  151.15  178.00
   2  -1  -6  227.86   68.83
   2   1   6  342.24  134.28
  -2   1  -6  234.15   76.13
   2  -1   6  220.72   71.53
  -2  -1   6  218.99   69.90
   2   1   6  616.56  204.41
  -2  -1  -6  236.87   65.16
  -2  -1  -6  228.25   48.22
   2  -1  -6  248.01   80.57
   2  -1  -6  443.93  103.35
  -2  -1   6  229.94   74.99
   2   1   6  232.44   68.30
   2  -1  -6  236.77   45.01
   2   1   6  235.50   75.77
   2   1  -6  223.52   64.23
   2  -1  -6  229.08   43.16
   2   1   6  233.15   39.41
   2  -1   6  533.34  191.43
  -2   1  -6  222.96   69.27
   2   1  -6  236.37   61.32
  -2   1   6  227.76   75.24
   3   3   0    0.08    1.65
  -3  -3   0    0.80    2.20
  -3   3   0    0.20    3.13
   3   3   0    0.03    6.07
  -3  -3   0    0.81    2.44
  -3  -3   0    0.18    4.66
   3  -3   0    0.24    1.21
  -3   3   0    0.05    8.17
   3  -3   0    0.40    2.28
  -3  -3   0   -0.58   12.90
  -3   3   0    0.97    2.14
   3  -3   0    0.68    2.82
  -3   3   0    2.18    3.86
   0  -2  -7 1217.52  264.11
   0  -2  -7 2766.97  609.53
   0   2  -7  754.62  489.03
   0  -2   7 1215.05  245.56
   0  -2   7 1283.47  225.18
   0  -2  -7 1438.77  320.63
   0   2  -7 1283.45  301.00
   0  -2  -7 1218.81  262.72
   0   2  -7 1130.04  193.87
   0   2   7 1348.08  292.52
   0   2  -7 1316.42  323.69
   0  -2  -7 1329.44  284.98
   0  -2   7 1243.71  293.74
   0  -2   7  481.36  319.88
   0   2  -7 1422.80  281.86
   0   2   7 1249.10  284.77
   0   2   7 1292.48  269.06
   0   2   7 3981.22  867.00
   0   2   7 2891.04  589.35
   0  -2   7 1371.98  323.41
  -3   0   4  730.13  503.70
   3   0   4 1720.93  401.10
   3   0  -4 3686.45  441.95
  -3   0   4 1456.09  313.43
   3   0   4 1718.34  303.24
   3   0   4 1625.00  375.86
   3   0  -4 1622.49  296.65
   3   0  -4 1636.08  247.57
  -3   0  -4 1616.21  348.97
  -3   0  -4 1216.03  589.88
  -3   0   4 1652.76  383.23
  -3   0  -4 1739.99  421.84
   3   0   4 1730.70  478.20
   3   2   3   36.52    4.95
  -3  -2   3   37.42   21.07
  -3  -2  -3   37.69   24.24
   3  -2  -3   38.76   16.87
  -3   2   3   38.27   21.81
   3   2  -3   33.98   15.84
  -3  -2  -3   94.80   33.11
   3  -2   3   14.60   29.31
   3   2  -3   33.54   12.12
   3   2   3  111.25   32.05
  -3  -2   3   13.44  100.27
   3   2   3   34.12   18.68
  -3   2  -3   37.75   24.20
   3  -2  -3   41.28    7.31
   3  -2  -3   48.07   25.50
   3   2  -3   35.64    6.95
   3   2   3   96.94   79.96
  -3  -2  -3   32.44    5.71
   3  -2   3   38.48   24.97
   3  -2  -3   14.23   20.99
  -3   2  -3   37.14   23.70
  -3  -2  -3   14.31   56.69
   3  -2   3   33.27   16.36
   3  -2   3   38.22   19.67
   3   2   3   35.86   11.95
   3   2  -3   32.41   17.77
   3  -2  -3   31.78   17.07
  -3  -2   3   36.15    8.55
  -3   2   3   41.01   23.00
   1   3   6 2286.84  526.16
   1   3  -6 1000.13  241.77
   1  -3   6  416.08  299.22
  -1   3   6  918.60  226.41
  -1  -3  -6 2328.29  559.84
   1   3   6 1012.90  223.71
  -1  -3   6  852.04   63.92
  -1   3   6 1070.32  282.68
  -1  -3  -6  811.80  144.31
   1  -3   6  964.43  225.86
  -1  -3   6  978.14  235.62
  -1   3   6  975.40  218.85
   1  -3  -6  866.04  204.37
  -1   3  -6  957.11  159.32
   1   3   6 2660.79  582.18
   1   3   6  896.78  209.27
   1  -3  -6  942.59  215.48
  -1  -3   6  893.39  200.60
  -1   3  -6  899.26  185.85
   1  -3   6  926.11  217.96
  -1   3  -6  995.12  249.24
   1  -3  -6  608.32  301.98
  -1  -3  -6  878.60  202.99
  -1   3   6 2059.31  297.98
  -1  -3  -6  947.57  175.29
  -1   3  -6  898.72  154.13
  -1  -3   6  983.77  249.41
  -1  -3   6  788.42   67.99
  -1   3  -6  953.02  246.70
  -1  -3  -6 1067.10  263.17
   1   3  -6  897.56  205.08
  -1   3   6  899.74  150.75
   1  -3   6 1003.12  209.53
   1   3  -6  984.23  225.72
   1   3   6 1014.06  208.83
   1  -3  -6  997.20  210.26
   3  -3  -1   69.42   31.27
   3  -3  -1   70.47   12.32
  -3   3   1   74.22   30.39
   3  -3   1   66.52   29.71
  -3  -3  -1   56.64   60.77
   3   3  -1   69.03   12.14
   3  -3   1   67.81   18.20
   3  -3   1   55.16   68.02
   3  -3   1   69.08   16.52
  -3   3   1   82.44   38.34
   3   3  -1   64.00   29.65
  -3  -3  -1   34.42   98.04
  -3  -3  -1   31.16   26.19
   3   3  -1   84.58   31.33
   3   3  -1   69.49   17.53
  -3   3   1   43.83   59.63
  -3  -3   1   79.79   23.52
  -3   3  -1   77.88   20.89
   3  -3   1   77.00   36.16
  -3  -3  -1   76.41   30.92
  -3   3   1   78.17   26.88
  -3   3  -1   81.51   39.39
   3   3   1   64.28   21.05
   3   3   1   58.02   63.29
  -3  -3   1   32.74  113.48
  -3   3  -1   78.22   34.31
  -3  -3   1   45.54   27.01
   3   3   1   78.74   25.73
  -3  -3   1   45.61   25.01
  -3   3  -1   60.37   83.86
   3  -3  -1   65.50   21.25
  -1   5  -3  717.03  165.59
   1  -5  -3  412.90  329.73
  -1  -5  -3  754.53  199.19
  -1  -5  -3  508.23  383.16
   1  -5   3  769.86  174.60
  -1  -5  -3  449.31  341.80
   1   5  -3  775.91  185.99
   1   5   3  779.72  116.16
   1   5   3  737.61  186.33
  -1  -5   3  757.41  196.84
   1  -5  -3  648.61  505.79
   1  -5  -3  788.46  194.03
  -1  -5   3  710.69  150.04
  -1   5  -3  723.71  188.58
  -1  -5   3  689.23  126.08
   1  -5   3  728.26  172.80
   1  -5  -3  657.52  160.58
   1   5  -3  773.79  159.81
   1   5  -3  721.96  177.60
  -1   5   3  844.75  224.14
   1  -5   3  778.51  170.32
  -1  -5  -3  689.82  108.81
  -1  -5  -3  283.45  273.27
   1   5  -3  712.47  178.97
   1  -5   3  852.26  587.55
   1  -5   3  736.67  178.39
   1  -5  -3  699.58  172.88
  -1  -5   3  751.79  168.19
  -1   5   3  645.35   90.82
  -1   5   3  766.59  205.32
  -1   5   3  776.95  197.18
   1   5   3  737.82  179.93
   1  -5  -3  356.39  135.44
  -1  -5   3  553.90  384.78
  -1   5  -3  615.78  472.15
  -1   5  -3  698.59  145.71
  -1   5  -3  735.34  185.87
  -1  -5  -3  752.46  189.80
   1   5   3  622.42  235.71
  -1   4   5  768.92  206.22
  -1   4   5  688.80  180.46
  -1  -4  -5  397.78  277.82
   1  -4   5  695.44  158.69
  -1   4   5  636.88   74.69
   1   4  -5  705.22  173.44
  -1  -4  -5  750.98  199.37
   1  -4   5  700.57  192.76
   1   4  -5  710.50  183.98
   1   4   5 1641.89  406.91
   1  -4   5  683.81  169.49
  -1   4   5 1624.54  167.37
  -1  -4  -5  678.81  166.34
  -1  -4  -5  755.74  379.07
  -1   4   5  671.35   86.40
  -1  -4   5  714.81  198.38
  -1   4  -5  733.82  196.25
  -1   4  -5  681.63  150.40
  -1   4  -5  664.47  133.49
  -1   4  -5  676.35  189.16
  -1   4  -5  709.27  133.88
   1  -4  -5  382.12  391.95
   1   4   5  683.13  171.43
  -1  -4   5  603.62  101.61
   1  -4  -5  646.00  161.46
  -1  -4   5  697.22  173.07
   1  -4  -5  652.62  155.42
  -1  -4   5  686.12   94.53
   1   4   5  739.31  177.93
   1  -4  -5  724.88  174.18
  -1  -4  -5  688.91  118.30
  -1  -4  -5  298.32  247.34
   1   4  -5  721.68  174.29
   1   4  -5  692.88  160.60
  -1   4   5  693.22  188.14
  -1  -4  -5  588.29  103.98
   3   1  -4  691.58  183.87
   3   1  -4  668.36  135.24
   3  -1   4  696.61  140.94
   3   1   4  708.28  103.75
   3   1   4  706.15  167.07
  -3  -1   4  427.66  124.46
   3  -1  -4  681.75  103.75
   3   1   4  311.02  361.12
   3   1   4  393.24  159.98
   3   1  -4  675.70   82.63
  -3   1  -4  689.94  172.84
  -3  -1  -4  682.57  118.97
   3   1  -4  663.25  136.55
  -3   1   4  298.77  195.76
  -3  -1   4  498.53  243.38
   3  -1  -4  258.18   99.16
   3   1   4  678.17   85.55
   3  -1   4  717.42  176.93
  -3  -1  -4  700.11  178.43
   3   1  -4  592.34   73.79
   3  -1   4  290.03  166.05
  -3   1  -4  697.90  164.18
   3  -1  -4  614.41  143.21
  -3   1   4  652.26  150.38
  -3  -1  -4  422.99  276.28
  -3  -1  -4 1350.67  262.81
   3  -1  -4  679.13  117.98
  -3  -1   4  705.17  167.42
   3  -1   4  650.05  149.32
  -3   1   4  675.12  162.48
  -2  -3   5  628.12  179.93
  -2   3   5  584.80  164.04
  -2  -3   5  235.46  146.48
  -2   3  -5  590.31  164.85
  -2   3  -5  520.55  408.30
  -2  -3  -5  604.65   89.80
  -2  -3  -5  699.85  189.27
   2  -3   5  624.03  154.81
   2  -3   5  625.99  153.51
   2   3  -5  620.34  152.32
  -2  -3  -5  652.74  151.76
   2   3   5 1773.94  374.93
   2   3   5 1689.39  471.73
  -2  -3  -5  250.40  243.63
  -2  -3  -5  512.77   63.16
   2   3  -5  546.89  306.69
   2  -3  -5  642.25  138.09
   2   3  -5  660.00  168.08
   2   3  -5  569.04  122.12
   2  -3   5  578.56  137.43
  -2   3   5  676.80  182.07
  -2  -3  -5 1434.41  315.94
   2   3   5  590.60  144.82
  -2   3  -5  614.62  168.31
   2  -3  -5  591.59  146.92
  -2  -3   5  570.15  143.56
   2   3   5  639.52  126.58
  -2   3  -5  605.02   63.88
   2  -3  -5  269.76  188.80
   2  -3  -5  625.97  161.09
  -2   3  -5  583.08  142.20
  -2   3  -5  559.46   67.23
   3   3  -2   43.13   25.61
  -3   3  -2   52.62   12.84
   3   3   2   42.45   18.51
   3  -3  -2   46.71   26.31
  -3  -3   2   17.58   12.09
  -3  -3   2   18.60   91.14
  -3   3  -2   51.84   30.47
   3  -3  -2   47.97    6.04
  -3  -3   2   52.29   14.80
   3  -3  -2   50.85   23.56
  -3  -3   2   53.22   24.66
  -3   3  -2   49.97   27.04
  -3   3  -2   34.60   62.81
   3  -3  -2   23.88   41.48
   3  -3  -2   46.84    6.48
   3  -3  -2   43.83   18.52
   3   3   2   50.78   52.23
  -3  -3  -2   18.05   77.92
   3   3  -2   40.98   22.83
   3  -3   2   43.70   16.01
  -3   3   2   49.61   23.76
  -3   3   2   54.10   31.00
  -3  -3  -2   50.71   26.48
   3  -3   2   51.91   29.33
   3   3   2   48.56   18.50
  -3  -3  -2   59.82   28.58
   3  -3   2   46.93   24.09
   3  -3   2   46.20   10.19
   3   3  -2   46.46   11.00
   3   3  -2   43.52   11.07
   3  -3   2   32.87   57.95
  -3  -3  -2   47.56   42.51
   0  -5  -4    1.02    3.88
   0   5  -4    0.64    3.67
   0  -5   4    0.50    2.33
   0  -5   4    0.83    6.34
   0  -5   4    2.57    2.58
   0   5   4    0.89    4.33
   0   5  -4    0.79   15.65
   0   5   4    1.00    1.78
   0   5  -4    0.59    4.24
   0  -5   4    0.91   13.36
   0  -5  -4    0.01   16.54
   0  -5  -4    1.08    4.87
   0   5   4    0.93    2.75
   0   5  -4    0.49    4.26
   0  -5   4    0.37    3.45
   0  -5  -4    0.49    8.16
   0   5  -4    0.71    2.93
   0  -5  -4    0.56    2.08
   0   5   4    2.24    5.07
   0  -5  -4    0.33   12.82
  -1   2  -7   31.12   23.76
   1   2   7   87.82   51.86
  -1  -2   7   26.84   15.31
   1   2   7   29.27   12.64
  -1   2  -7   17.06   61.59
  -1   2  -7   30.86   21.65
  -1   2  -7   28.51   13.15
   1  -2   7   30.77    9.22
   1   2  -7   29.23   18.56
  -1   2   7   29.27   13.13
   1   2  -7   28.44    3.51
  -1  -2  -7   29.08   11.55
   1  -2   7   32.77   14.12
  -1  -2  -7   65.73   38.04
  -1   2   7   31.05   21.31
  -1  -2   7   32.78   21.50
   1   2  -7   40.72   23.27
  -1   2   7   48.82   23.54
   1  -2  -7   31.02   19.15
   1   2  -7   35.26   18.70
   1   2   7   30.12   16.39
   1   2   7   81.69   43.26
  -1   2  -7   33.55    9.39
   1  -2   7   10.83   37.81
   1  -2   7   29.67   20.86
  -1  -2  -7   30.98   14.98
  -1   2   7   31.56   21.20
   1   2  -7   19.59   51.31
   1  -2  -7   31.98   13.80
  -1  -2   7   26.77    4.24
  -1   2   7   93.65   47.63
  -1  -2  -7   36.53   21.30
   1   2  -7   31.42   20.46
   1  -2  -7   29.63   17.64
  -1  -2   7   12.20   29.49
   1  -2  -7   29.17   17.44
   1   2   7   32.69   18.75
  -1  -2  -7   27.23   11.96
   1  -2   7   32.01   20.55
   1  -2  -7   57.14   33.63
  -2   2  -6    8.87   12.23
   2  -2   6   17.90   30.52
   2  -2  -6    5.28   15.46
  -2  -2   6    9.60   10.26
   2  -2  -6    9.17    3.28
   2   2   6    7.85    5.08
  -2  -2  -6   18.13   18.42
  -2  -2  -6   11.56   12.71
   2   2   6   23.28   27.83
  -2   2  -6    7.30   13.33
   2   2   6    8.76   11.97
   2  -2  -6    8.28    9.97
   2  -2  -6    9.31    6.53
  -2  -2   6    3.77   12.62
   2   2   6   30.13   27.11
  -2   2  -6    9.72   35.60
   2   2  -6    8.17    8.93
   2  -2   6    8.31    9.54
  -2   2   6    9.19   12.98
   2  -2   6   10.22   10.59
  -2  -2  -6   15.50    9.64
   2   2  -6   11.35    9.86
   2   2  -6    8.15   23.24
   2  -2   6    8.03   10.79
  -2  -2  -6    9.48    9.11
  -2   2   6    8.25    3.76
  -2  -2  -6    7.60    3.82
   2  -2  -6    9.04   11.66
  -2  -2   6    9.44   12.55
   2   2   6   13.17    9.52
   2   2  -6    9.02   16.16
  -2   2   6    8.70   11.14
  -2   5   0 1005.56  192.96
  -2  -5   0  991.88  253.92
   2  -5   0 1053.74  280.83
   2  -5   0  963.52  156.51
   2   5   0  934.48  198.60
  -2  -5   0  399.94  478.87
  -2  -5   0 1404.47  544.30
   2   5   0  988.17  266.01
  -2   5   0 1165.76  291.78
   2   5   0  815.19  443.23
   2  -5   0 1036.52  251.06
   2  -5   0  939.30  205.24
   2   5   0  981.68  124.00
   2   5   0  976.83  240.66
  -2   5   0 1020.15  272.59
   2  -5   0  898.34  225.20
   2   5   0  901.65  225.65
  -2  -4  -4  174.78  220.04
   2   4  -4  366.21  237.65
   2   4   4  247.67  150.41
   2  -4  -4  264.83  219.02
  -2   4  -4  445.54  116.37
   2  -4   4  439.33  104.32
   2   4  -4  438.10  119.41
   2  -4   4  300.20  272.03
  -2   4   4  451.86  123.57
  -2  -4  -4  484.83  127.98
  -2   4   4  473.86  137.79
   2   4   4  409.10  107.80
  -2   4  -4  356.28  321.10
  -2   4  -4  416.71  121.70
  -2   4  -4  449.53  134.76
   2  -4  -4  389.57  120.42
  -2   4  -4  467.35   92.84
  -2  -4  -4  515.40  152.73
   2   4  -4  468.60  129.97
   2   4   4  453.99  107.88
   2  -4  -4  455.56  114.39
  -2  -4  -4  385.05  223.97
  -2   4  -4  435.24   69.85
   2  -4   4  458.01  124.25
  -2  -4   4  424.18   46.85
   2   4  -4  439.90   92.57
  -2  -4  -4  225.51  177.41
   2  -4  -4  430.73  117.86
   2  -4   4  445.51  121.36
  -2  -4   4  314.89  226.14
  -2  -4   4  261.30  180.62
   2   5   1  445.60  119.39
   2  -5  -1  525.64  181.55
   2   5  -1  504.64  135.00
   2  -5   1  472.16  104.86
  -2   5   1  518.33  150.51
  -2  -5   1  492.25   92.26
   2   5   1  491.70  129.99
   2   5   1  469.51  112.70
  -2   5  -1  571.76  152.94
   2  -5  -1  498.50  132.91
   2   5  -1  456.66  124.00
  -2   5  -1  483.63  113.92
   2   5  -1  474.43   98.05
  -2   5   1  552.33  155.55
   2   5  -1  496.21   78.03
  -2  -5  -1  206.67  304.40
   2  -5   1  460.37  126.78
   2  -5   1  484.91   91.99
  -2  -5  -1  317.45  237.14
   2   5  -1  543.07  295.37
  -2  -5   1  366.31  275.97
  -2   5  -1  501.93  149.90
   2  -5  -1  451.89  126.00
  -2  -5  -1  502.26  144.99
   2  -5  -1  468.87   63.23
  -2  -5   1  345.16  234.98
   2  -5  -1  428.67  117.96
  -2  -5  -1  326.73  236.57
   2  -5   1  501.55  147.02
   2  -5   1  512.37  137.99
  -2  -5   1  495.76  128.03
   2   5  -1  494.15  144.54
   3   2   4   99.03   21.49
   3  -2  -4   37.91   36.94
  -3  -2   4   96.89   38.15
   3   2   4  275.77   72.44
  -3  -2   4   69.64   78.92
   3   2  -4  115.03   47.36
   3   2   4   89.34   35.04
   3  -2  -4   87.15   32.95
  -3   2   4  100.98   40.56
   3  -2   4  101.46   40.93
   3  -2  -4   97.79   28.09
   3  -2   4   97.15   34.04
   3   2  -4   92.99    9.41
  -3   2  -4   98.34   41.89
  -3  -2  -4   38.78   83.75
  -3   2  -4   83.26  113.63
   3   2  -4   89.02   43.66
   3   2  -4   89.57   26.04
  -3  -2  -4  221.88   56.92
  -3  -2  -4   99.50   44.28
  -3   2   4   98.37   40.10
   3   2  -4   91.72   33.60
  -3  -2  -4   94.23   15.54
   3  -2  -4   98.21   12.95
  -3   2  -4  100.00   44.18
   3  -2  -4  105.31   44.61
   3   2   4   91.82   12.21
  -3  -2   4   38.02   20.72
   3   2   4  253.93  142.36
   3  -2   4   88.54   40.89
   0   6   0 3993.22  823.12
   0  -6   0 4439.02  974.39
   0  -6   0 4154.46  929.15
   0   6   0 3993.68  952.04
   0   6   0 4227.20  861.57
   0  -6   0 3040.32 1077.38
   0  -6   0 4098.68  967.32
   0  -6   0 4025.12  833.44
   0   0  -8  157.29   39.27
   0   0   8  174.54   56.09
   0   0   8  171.77   41.52
   0   0  -8  181.99   59.02
   0   0  -8  340.01  113.86
   0   0   8  151.37   40.38
   0   0  -8  183.44   58.21
   0   0   8   96.23  100.81
   0   0  -8  183.12   59.82
   0   0  -8  178.74   46.17
   0   4   6 1351.26  322.75
   0  -4  -6 1815.77  761.66
   0   4   6 1409.63  262.75
   0  -4  -6 1448.88  336.31
   0   4  -6 1475.85  342.45
   0  -4   6 1457.42  342.67
   0  -4   6  656.15  169.15
   0  -4  -6 1261.78  253.33
   0  -4   6 1418.99  248.86
   0   4  -6 1426.87  290.52
   0   4  -6 1464.25  359.61
   0   4   6 3695.22  688.46
   0  -4  -6 1273.63  292.43
   0   4  -6 1481.38  312.89
   0  -4   6 1388.31  328.33
   0   4   6 1534.30  355.80
   0  -4  -6  735.80  443.79
   0   4   6 1455.46  289.51
   0  -6   1    2.08    7.66
   0   6   1    2.65    8.09
   0   6  -1    2.96    5.21
   0  -6   1    1.91    5.75
   0  -6   1    4.77   11.98
   0  -6   1    6.66    6.74
   0  -6  -1    3.00    4.58
   0   6   1    2.51    4.27
   0  -6   1    1.89    4.86
   0   6  -1    2.18    7.80
   0  -6  -1    1.71    7.74
   0  -6  -1    1.15   20.73
   0   6   1    2.14    7.74
   0   6  -1    2.98    5.71
   0  -6  -1    9.64    7.60
  -1  -5  -4   47.53   24.99
   1   5   4   45.79   25.78
  -1   5  -4   37.82  100.90
   1  -5  -4   39.52  103.29
   1   5   4   47.78   26.91
  -1   5  -4   45.47   20.05
   1   5   4   51.75   12.44
  -1  -5   4   49.08   30.70
   1  -5   4   46.52   20.88
  -1   5   4   47.66   29.31
  -1   5  -4   46.14   16.09
  -1  -5  -4   28.10   76.70
  -1  -5  -4   20.19   54.88
  -1   5  -4   49.54   29.74
   1   5  -4   39.57   81.01
  -1   5   4   52.44   33.33
   1   5  -4   51.72   26.39
  -1  -5   4   45.01   15.71
  -1  -5   4   28.60   65.08
   1  -5  -4   48.83   27.10
   1  -5   4   48.96   22.28
   1   5  -4   49.54   22.39
   1   5   4   38.03   36.04
  -1   5  -4   47.29   26.61
  -1  -5   4   47.97   22.12
   1  -5  -4   40.17   18.19
   1   5  -4   48.31   25.65
  -1  -5  -4   48.00   30.64
  -1  -5  -4   42.77   10.28
  -1   5   4   44.21   21.79
  -1  -5   4   45.88   11.90
  -1   5   4   50.44    7.63
   1  -5   4   33.69   80.37
   1  -5   4   46.01   24.79
   1  -5   4   51.44   24.05
  -1   5   4   43.61    6.80
   1   5  -4   48.07   24.33
   1  -5  -4   43.73   24.79
   1  -5  -4   30.57   70.59
  -1  -5  -4   31.33   74.95
   0   3  -7    0.16    3.96
   0   3   7    0.25    3.16
   0   3   7    1.32    2.74
   0   3  -7    1.58    2.17
   0  -3  -7    0.31    2.51
   0  -3  -7    0.26    2.04
   0  -3  -7    0.68    2.59
   0   3  -7    0.18    1.46
   0  -3   7    0.23    2.09
   0   3   7    0.52    2.23
   0  -3  -7    0.43    6.74
   0  -3  -7    0.22    3.12
   0  -3   7    0.51    3.28
   0   3   7    4.84    4.49
   0   3  -7    0.28    3.41
   0  -3   7    0.21    3.44
   0  -3   7    0.37    1.38
   0   3   7    1.47    8.27
   3   3  -3  287.25  112.91
  -3  -3  -3  120.78  193.33
  -3   3  -3  214.98  195.50
   3   3  -3  258.65   51.30
  -3  -3   3  223.03  170.67
  -3  -3  -3  298.93   93.82
   3   3  -3  274.24   38.41
   3  -3  -3  263.08   70.84
  -3  -3  -3  469.96  119.86
  -3  -3  -3 1006.00  194.05
   3   3  -3  259.42   90.78
   3  -3  -3  289.11   91.51
   3   3   3  289.51   64.48
  -3   3  -3  293.68   96.48
  -3   3   3  299.54   88.24
   3  -3  -3  299.21   76.68
  -3   3   3  304.80   94.94
   3  -3   3  293.68   85.22
   3  -3   3  300.12   93.51
   3  -3   3  266.17   64.88
  -3  -3   3  105.12   46.66
  -3   3  -3  315.77   40.10
  -3  -3   3  282.56   43.16
  -3   3  -3  298.35   91.09
   3  -3  -3  169.40  124.48
   3   3   3  252.05   69.55
   3  -3   3  293.35   34.82
  -3  -3   3  284.96   81.15
   3   3   3  398.09  279.82
   3   0   5   -0.06    9.60
  -3   0   5    0.02    4.26
  -3   0   5    1.40    2.52
   3   0   5    0.20    2.91
   3   0  -5    0.13    0.80
  -3   0   5    0.16    2.88
  -3   0  -5    0.55    3.31
   3   0  -5    0.50    2.07
  -3   0  -5   -0.12    6.66
   3   0   5    1.11    1.56
   3   0  -5    0.13    3.07
   3   0   5   -0.02    2.84
  -2  -5   2 1199.35  249.67
  -2   5   2 1297.11  331.07
  -2   5   2 1347.62  347.60
   2  -5   2 1187.15  230.48
   2   5  -2 1196.63  206.68
   2  -5  -2 1290.74  347.40
  -2  -5   2  829.98  468.25
   2  -5  -2 1196.18  288.85
   2  -5   2 1189.81  294.34
   2   5  -2 1213.19  319.01
   2   5  -2 1148.20  285.17
  -2   5  -2 1188.99  319.44
   2  -5   2 1155.25  227.24
   2   5  -2 1145.75  596.47
  -2  -5  -2  547.99  690.05
   2  -5   2 1216.61  314.96
   2   5   2  772.69  410.99
  -2   5  -2 1081.09  790.21
   2  -5  -2 1025.33  254.73
  -2   5  -2 1132.58  279.00
  -2  -5  -2 1215.20  325.96
  -2  -5   2  887.56  518.72
   2   5   2 1151.17  260.84
  -2  -5   2 1206.24  262.73
   2   5   2 1175.56  298.05
   2   5  -2 1230.20  300.05
  -2  -5  -2  750.77  473.61
   2  -5   2 1270.47  304.96
  -2  -5  -2  904.34  559.57
   2   5  -2 1133.86  203.90
  -2   5  -2 1341.10  321.72
   2  -5  -2 1091.25  254.28
   0   1  -8    0.25    4.09
   0  -1  -8    0.74    3.59
   0   1  -8    0.41    3.82
   0   1  -8    0.67    2.36
   0  -1  -8    0.46    3.13
   0  -1   8    0.28    1.73
   0  -1  -8    3.22    7.55
   0   1   8    1.57    2.39
   0  -1   8    0.51    4.29
   0   1   8    3.12    4.61
   0  -1   8    0.87    7.28
   0   1   8    0.33    2.78
   0   1  -8    1.52    1.63
   0   1   8    1.19    6.26
   0  -1  -8    0.09    2.67
   0  -1   8    0.26    2.26
   0  -1  -8    0.80    2.68
   2   0   7    0.29    0.52
   2   0  -7    1.00    2.07
   2   0   7   -0.01    2.65
  -2   0  -7    0.39    3.14
   2   0  -7    0.03    2.84
   2   0   7    0.51    4.65
   2   0  -7    0.63    3.12
   2   0   7    1.40    2.25
  -2   0   7    0.35    3.09
   2   0   7    2.49    8.17
  -2   0  -7    0.34    3.11
   2   0  -7    0.04    3.63
  -2   0   7    0.98    2.81
   2   0  -7    0.92    0.75
  -2   0  -7    0.41    0.67
   2   0  -7   -0.05    4.02
  -2   0   7    0.40    4.29
  -3  -1  -5  710.69  174.85
  -3   1  -5  372.08  106.28
  -3   1   5  157.20  124.99
   3   1  -5  379.05   84.40
   3  -1   5  356.46   96.29
  -3  -1   5  378.23  105.68
  -3  -1   5  264.69  155.35
   3  -1  -5  394.82   63.62
   3   1   5  402.87   67.44
   3  -1  -5  355.19   95.66
   3   1  -5  314.89  124.55
  -3   1  -5  380.59  105.91
  -3   1   5  371.48  105.26
   3  -1  -5  369.76   67.37
   3   1  -5  447.75  125.38
   3   1  -5  349.30   32.35
   3  -1   5  392.24   89.04
  -3  -1  -5  385.88  115.02
  -3  -1   5  237.93  103.20
   3   1  -5  339.88   30.58
   3  -1   5  400.87  110.43
   3   1  -5  361.32   87.51
   3   1   5  375.45   43.76
   3   1   5 1043.49  330.83
  -3   1  -5  276.10  221.45
   3  -1  -5  135.54   68.99
   3   1   5  401.02  107.80
   3   1   5  226.18  118.89
   3  -1   5  142.12  111.02
  -3  -1  -5  364.05   75.47
  -3   1   5  355.63   93.49
   0   6   2 2651.74  516.87
   0   6   2 2760.16  668.02
   0  -6   2 2719.97  599.86
   0  -6  -2 2814.60  664.67
   0  -6  -2 1240.01  779.73
   0  -6  -2 2471.04  500.00
   0   6  -2 2540.36  599.55
   0   6  -2 2645.38  577.09
   0  -6  -2 1934.11 1119.70
   0  -6   2 2657.91  579.76
   0  -6   2 2604.29  577.74
   0   6   2 2701.26  674.15
   0   6  -2 2631.46  600.17
   0   6  -2 2659.91  627.67
   0  -6   2 2736.67  590.39
   0   6   2 2188.23 1217.63
   0  -6  -2 2657.17  639.14
   0   6   2 2777.41  556.20
   1   6   0    0.69    1.99
  -1   6   0    0.93    3.20
  -1   6   0    1.14    4.22
  -1  -6   0    1.73    7.60
   1  -6   0   -0.07    4.90
  -1  -6   0    0.67    4.34
  -1   6   0    0.40    3.76
   1  -6   0    2.30    4.15
   1  -6   0    1.44    3.86
  -1  -6   0    0.35    3.80
  -1  -6   0    0.47    1.88
   1  -6   0    0.16    2.97
   1   6   0    0.15    4.23
   3  -4   0    0.88    3.19
  -3  -4   0    0.67    5.00
  -3   4   0    0.25    3.62
   3  -4   0    0.52    4.26
  -3   4   0    0.35    4.52
   3   4   0    0.62    3.17
  -3  -4   0    0.40   15.40
   3   4   0    0.97    1.98
  -3   4   0   -0.35   10.68
   3  -4   0    0.33    1.98
  -3   4   0    1.99    2.58
   3  -4   0    0.23    1.20
  -3  -4   0    0.68    2.86
   3   4   0    0.93    3.09
   1   0   8 2122.66  492.78
  -1   0   8 1904.00  376.22
  -1   0  -8 2876.69  828.27
  -1   0  -8 1929.96  351.88
   1   0   8 2092.64  447.54
   1   0   8 2177.79  477.09
  -1   0   8 1877.55  424.52
  -1   0   8 1062.73  559.25
   1   0  -8 2043.12  460.62
  -1   0   8 1965.53  463.67
   1   0  -8 3993.26  866.68
   1   0   8 1831.81  319.37
   1   0  -8 2163.91  520.04
  -1   0  -8 2088.19  483.79
   1   0   8 4991.31 1221.31
   1   0  -8 2055.35  473.02
   1   0  -8 1835.68  295.58
   1   0   8 1277.54  658.25
   1   0  -8 2034.80  434.72
  -1   0  -8 1861.68  407.95
  -1   4   6  139.03   25.42
   1  -4   6  134.99   50.65
   1  -4   6  133.98   49.70
  -1   4  -6  137.17   55.95
  -1  -4  -6  118.42   26.42
  -1  -4  -6  343.58  143.92
  -1  -4   6  121.76   22.18
   1   4  -6  145.52   56.68
   1   4   6  340.83  118.85
   1  -4  -6   52.35   84.36
  -1  -4   6  137.50   46.35
  -1  -4  -6  133.93   31.75
  -1  -4   6  138.11   49.38
  -1  -4   6  140.90   59.26
  -1  -4   6  136.13   19.70
   1  -4  -6  147.17   49.66
   1   4  -6  133.42   46.56
  -1   4  -6  143.54   38.23
  -1   4  -6  144.26   59.84
  -1   4   6  233.79   38.26
   1   4  -6  142.43   47.97
   1  -4  -6  127.08   46.79
  -1   4   6  138.14   46.88
  -1  -4  -6   57.21   85.70
   1  -4   6  139.70   42.79
  -1  -4  -6  132.49  106.95
  -1   4   6  146.57   60.63
  -1   4  -6  131.62   33.20
  -1  -4  -6  128.15   42.21
  -1  -4  -6  143.02   60.00
   1  -4  -6  134.00   43.07
   1   4   6  148.54   50.85
  -1   4  -6  128.39   39.20
  -1   4   6  135.60   52.42
   2   1  -7  674.13  156.34
  -2   1  -7  411.42  343.95
   2   1   7 1809.15  508.51
   2   1   7  689.69  141.92
   2   1   7  676.45  182.90
   2  -1  -7  702.49  195.33
   2  -1  -7  685.91  176.22
  -2   1  -7  638.02  165.88
  -2  -1   7  276.52  186.44
  -2  -1  -7  654.54  179.06
  -2   1   7 2179.40  475.67
  -2  -1  -7  704.10  193.28
  -2  -1  -7  634.95  124.15
   2  -1  -7  673.72  113.81
  -2   1   7  636.89  177.68
   2  -1   7  746.75  169.14
   2   1   7  669.77  102.98
  -2  -1  -7 1428.20  362.78
   2   1   7  792.51  301.41
   2  -1   7  653.58  176.78
   2  -1   7  252.87  219.78
   2  -1   7  730.35  185.41
   2   1  -7  723.01  227.10
   2   1  -7  651.75  164.48
  -2   1   7  612.66  146.08
   2  -1   7 1584.97  471.35
   2   1   7  664.85  172.37
  -2  -1   7  617.67  166.64
  -2  -1   7  659.79  191.45
   2  -1  -7  672.20  131.58
   2  -1  -7  675.53  176.04
   2  -1  -7 1263.02  268.50
  -2   1  -7  702.12  195.20
   2   1  -7  767.45  201.59
   2   1  -7  875.19  331.87
   1   6   1    6.76    4.74
   1  -6  -1    6.25    9.70
   1  -6  -1    8.44   11.13
   1  -6  -1    6.31    7.45
   1  -6   1    6.12    8.58
  -1   6  -1    7.18   10.40
   1   6  -1    7.03    6.02
   1  -6   1    7.43   10.01
  -1  -6  -1    6.37    4.50
  -1   6   1   11.48   12.41
   1  -6   1    7.99    9.20
  -1   6   1    6.56    5.33
   1  -6   1    9.12    6.27
   1   6  -1   10.40   11.71
  -1  -6  -1    7.96   11.08
   1   6  -1    6.16   10.73
  -1  -6  -1    1.98   29.98
  -1  -6  -1    7.13   11.17
   1  -6   1    6.47    9.90
  -1   6  -1    6.56    7.32
  -1   6   1    6.78   10.28
   1   6  -1    8.80    7.87
  -1   6  -1    7.22   11.12
   1   6  -1    6.69    8.56
   1   6   1    6.64    7.39
  -1  -6   1    7.25    9.26
  -1  -6   1    4.94   21.57
  -1  -6   1    6.52    5.79
   1   6   1    6.30    9.42
   1  -6  -1    6.66   11.23
   1  -6  -1    4.60    9.20
   1   6   1    8.73   11.98
   0  -5  -5   -0.49    8.17
   0  -5   5    0.67    1.51
   0  -5  -5    0.16    3.46
   0  -5   5    0.10    1.26
   0   5  -5    0.00    1.91
   0  -5  -5    0.51    3.05
   0   5  -5    0.36    2.21
   0   5  -5    0.25    2.77
   0  -5  -5    0.28    2.27
   0  -5  -5   -0.98    8.43
   0  -5  -5    0.47    1.36
   0   5  -5    1.12   10.23
   0   5   5    0.36    2.20
   0   5   5   -0.05    3.28
   0  -5   5   -0.76    8.46
   0  -5   5    0.64    2.97
   0   5  -5    0.47    2.81
   0   5   5    0.12    1.75
   0  -5   5    0.09    2.35
   3   4   1   44.04   21.02
   3  -4   1   39.08   22.82
  -3   4  -1   39.97   15.90
  -3  -4  -1   12.76  113.15
   3   4  -1   45.84   23.97
  -3   4   1   47.59   31.00
   3  -4  -1   44.67   25.19
  -3  -4  -1   26.13   35.04
   3   4  -1   39.61   12.78
   3  -4  -1   39.20   23.24
  -3  -4   1   28.51   32.66
  -3   4  -1   44.37   31.27
   3   4  -1   36.83   21.11
  -3  -4  -1   46.95   23.79
  -3   4   1   41.77   21.33
   3   4  -1   42.00    7.92
  -3   4   1   21.50   56.70
  -3   4  -1   42.31   25.42
  -3  -4   1   21.49   94.05
   3  -4   1   42.48   12.46
  -3  -4  -1   18.11   26.35
  -3  -4   1   42.34   17.44
   3   4   1   37.24   16.06
   3  -4  -1   37.93   16.62
  -3   4  -1   32.76   73.67
  -3  -4   1   25.18   29.17
   3   4   1   23.93   44.11
   3  -4  -1   42.54    7.05
   3  -4   1   40.54   16.63
   3  -4   1   44.43   28.53
   1   3   7    4.64    7.58
  -1  -3  -7    0.62    2.73
  -1   3   7    0.27    2.02
  -1  -3  -7    1.10    8.48
  -1  -3  -7    0.63    5.04
   1   3  -7    0.40    4.00
  -1   3  -7    4.71    5.06
   1  -3   7    1.88    4.33
  -1   3  -7    1.65    1.88
  -1   3  -7    1.61    4.85
   1  -3  -7    1.43    3.28
  -1   3  -7    0.50    1.78
   1  -3  -7    0.30    3.41
  -1  -3  -7    0.79    1.77
  -1  -3   7    5.81    4.92
   1   3   7    0.51    3.14
  -1   3   7    0.37    3.61
  -1  -3   7    0.46    4.21
   1   3  -7    1.51    4.61
  -1   3   7    1.05    3.30
   1   3   7    0.43    3.65
   1   3   7    1.10   10.48
  -1   3   7    0.52    3.87
  -1  -3   7    0.35    3.28
  -1  -3  -7    0.47    2.55
  -1   3  -7    0.70    2.70
   1   3   7    1.91    3.54
   1  -3  -7    0.40    3.57
   1  -3  -7    0.17    8.06
   1  -3   7    1.40    2.67
   1   3  -7    0.66    3.74
   1  -3   7    0.42    4.29
  -1   3   7    3.66    5.02
  -2  -3  -6    3.47    5.42
   2   3   6    9.81   17.23
   2  -3   6    3.70    7.20
   2   3  -6    5.53    7.58
  -2  -3  -6    5.12    9.91
  -2  -3  -6    3.23    1.82
  -2   3   6    3.65    7.42
   2   3  -6    3.59   20.69
  -2  -3  -6    9.55   13.90
   2  -3  -6    5.08    5.39
  -2   3  -6    4.25    8.44
  -2   3  -6    3.83    1.14
  -2   3  -6    3.98    1.00
   2  -3  -6    4.75    7.60
   2  -3  -6    3.29    7.08
   2   3   6    3.03    6.77
   2   3   6    5.78   21.14
   2   3   6    4.16    4.69
  -2  -3  -6   13.87   18.87
   2  -3   6    3.27    7.15
   2   3  -6    4.44    8.05
   2  -3  -6    1.48   12.86
  -2   3  -6    3.15    6.39
  -2   3  -6    4.04    9.03
  -2  -3   6    3.70    6.70
   2  -3   6    6.90    6.82
  -2   3   6    4.90    9.59
   2   3  -6    3.87    5.74
  -2  -3  -6    3.70    3.51
  -2  -3   6    0.94    8.67
   1  -1  -8  335.12  125.20
   1   1  -8  140.67   22.96
   1  -1   8   60.56   90.82
  -1   1   8  385.38  148.16
   1  -1  -8  161.23   55.50
   1   1  -8  156.24   51.85
  -1  -1  -8  145.47   36.01
   1   1  -8  159.38   55.96
   1   1  -8  175.81   53.74
  -1  -1  -8  167.65   64.51
  -1   1   8  157.00   49.48
  -1   1   8  154.04   52.80
  -1   1  -8  138.22   41.15
  -1   1  -8  159.60   37.28
   1  -1   8  148.60   31.34
   1   1  -8  527.67  207.73
  -1  -1   8  142.89   29.05
  -1  -1   8  147.81   55.04
   1  -1  -8  164.43   37.71
   1   1   8  257.38  120.57
  -1   1  -8  161.66   57.95
  -1   1   8  150.03   43.24
  -1   1  -8  169.06   68.44
   1  -1   8  156.13   57.73
   1  -1   8  164.21   45.46
  -1  -1  -8  358.07  128.88
   1  -1   8  169.74   56.26
  -1  -1   8  138.37   44.99
   1  -1  -8  159.88   51.21
   1  -1  -8  161.40   44.09
   1   1   8  369.31  128.57
   1   1   8  150.38   36.17
   1   1   8  166.64   58.52
  -1  -1  -8  162.26   44.72
  -1  -1  -8  158.04   50.74
   1   1  -8  169.71   62.06
   1   1   8  162.39   56.50
   1  -1  -8  166.29   55.84
  -1   1  -8   90.98  145.68
  -2  -5   3    9.62    7.27
  -2  -5   3    4.08   20.89
   2   5  -3    8.42   30.35
  -2  -5  -3    9.59   10.57
  -2   5   3   10.55   13.01
  -2   5  -3   11.89   10.25
   2   5   3    8.02    9.21
   2  -5  -3    6.88   10.59
  -2  -5  -3    2.32   28.45
   2   5  -3    6.34    3.92
  -2   5  -3    8.37    8.90
   2   5   3    6.14    9.68
   2  -5  -3    6.27    9.10
  -2   5  -3    8.09   12.82
   2  -5  -3    6.02   11.19
  -2   5  -3    4.57   39.57
   2   5   3    5.10   16.13
   2  -5  -3    6.66   28.09
  -2  -5  -3    6.63   27.56
   2  -5   3    7.77    5.62
  -2  -5   3    6.93    5.45
  -2  -5   3    6.29   27.75
  -2   5  -3    6.83    8.87
   2   5  -3    6.70   11.06
  -2  -5  -3    5.37   27.33
   2   5  -3    7.55   10.59
  -2   5   3    7.84   16.68
   2  -5   3    6.41    6.93
   2  -5   3    7.57   35.68
   2  -5   3    6.88    9.97
   2   5  -3    6.98    6.04
   2   5  -3    6.45    9.74
   2  -5   3    6.37   13.98
   2   4  -5  377.69  256.76
   2  -4   5  468.20  118.00
   2   4  -5  465.90  105.98
  -2  -4  -5  180.59  206.55
   2  -4  -5  498.76  124.27
   2  -4   5  486.81  133.66
  -2  -4  -5  546.30  167.77
   2  -4  -5  433.07  117.74
  -2   4  -5  470.69   96.20
   2  -4  -5  204.71  209.94
   2   4  -5  499.47  141.49
   2  -4   5  484.98  132.64
  -2  -4   5  499.14  155.93
   2   4  -5  488.45  134.10
  -2  -4  -5  841.62  299.29
  -2   4  -5  466.00  123.10
  -2   4  -5  451.90   69.15
   2   4   5  833.49  318.57
   2  -4  -5  469.72  131.08
  -2  -4   5  463.08  126.78
   2   4   5  486.42  114.41
  -2   4  -5  466.07  141.72
  -2   4   5  454.91  125.68
  -2   4  -5  481.24  147.44
  -2  -4  -5  513.25  137.63
  -2  -4   5  173.95  124.04
  -2   4   5  559.15  188.57
  -2  -4  -5  356.44  211.07
   2   4   5  448.16  120.92
   0  -2  -8  185.66   76.22
   0  -2  -8   84.27   30.56
   0  -2  -8   95.69   35.04
   0   2   8  280.00  103.69
   0  -2  -8   91.98   44.63
   0   2  -8   91.23   40.88
   0   2   8  200.58   67.09
   0  -2   8   31.33   62.03
   0  -2   8   95.40   41.13
   0  -2   8   78.52   31.98
   0  -2   8   82.93   37.84
   0   2  -8  100.36   29.72
   0   2   8   92.38   32.67
   0  -2   8   86.58   21.57
   0   2  -8   98.91   44.12
   0   2   8   90.84   34.25
   0  -2  -8   87.52   30.35
   0   2   8   88.23   31.10
   0   2  -8   78.10   19.70
   0   2  -8   45.05   90.00
  -4   0   0 3630.37  664.73
  -4   0   0 3815.21  813.69
  -4   0   0 1494.00  900.03
  -4   0   0 3649.46  706.21
   4   0   0 3371.73  665.15
   1   6   2 2248.60  495.40
  -1   6  -2 2417.98  603.54
   1   6   2 2416.23  559.88
  -1  -6   2 1751.46  788.23
   1  -6  -2 2595.28  611.08
   1   6  -2 2347.68  589.49
  -1  -6   2 2491.45  533.56
   1  -6  -2 2510.49  637.05
  -1  -6  -2 1056.02  815.05
   1  -6   2 2503.31  562.53
   1  -6  -2 2162.47  489.27
  -1   6  -2 2385.98  569.71
   1   6  -2 2362.46  469.88
   1  -6  -2 1149.96  550.63
  -1  -6   2 2274.90  466.59
   1   6   2 2558.83  418.60
  -1  -6  -2 1497.41  890.70
  -1   6  -2 2488.08  585.36
   1  -6   2 2383.15  555.82
  -1  -6   2 2459.06  549.79
   1  -6   2 2376.82  497.40
   1  -6   2 2478.99  592.87
  -1   6   2 2663.22  604.24
   1   6  -2 2473.07  591.53
   1   6   2 2355.61  582.98
   1   6  -2 2383.16  560.78
  -1   6   2 2669.36  679.64
  -1  -6  -2 1932.92 1247.95
   1  -6  -2 2341.32  552.46
  -1  -6  -2 2279.57  392.83
  -1  -6  -2 2533.85  632.52
   1  -6   2 2419.09  538.17
  -1   6   2 2174.26  396.85
   3   3  -4   48.51   24.82
   3   3   4   46.95   23.48
  -3   3  -4   50.35   29.45
  -3   3   4   53.16   30.02
   3  -3   4   47.75   20.59
   3   3  -4   58.01   31.87
  -3   3  -4   56.86   42.12
   3  -3  -4   54.32   28.01
   3  -3   4   89.94   30.85
  -3  -3  -4  110.80   39.16
   3  -3   4   52.07   25.71
   3  -3  -4   46.93   23.81
  -3   3  -4   50.24   82.83
  -3  -3   4   51.05   26.90
  -3  -3   4   16.84   16.34
   3  -3  -4   20.31   34.71
   3   3   4   51.20   16.95
  -3  -3  -4   16.87   64.96
   3  -3  -4   54.01   30.47
  -3   3   4   55.58   29.98
  -3  -3  -4   53.67   32.75
  -3  -3   4   38.55   64.63
   3   3   4   78.52   84.34
   3   3  -4   52.43   44.56
   3   3  -4   44.67   15.62
  -3  -3  -4  184.47   53.14
  -3  -2  -5  304.80   82.28
   3   2   5  122.46   18.99
   3  -2   5  121.29   42.89
   3   2  -5  128.66   76.21
   3   2   5  128.86   45.81
   3   2   5  411.82  178.83
  -3  -2  -5  128.02   23.15
  -3   2  -5  109.82  144.09
  -3  -2   5   52.37   34.55
   3  -2   5  137.17   43.46
   3   2  -5  126.42   36.00
  -3   2   5  129.60   48.85
  -3  -2  -5   70.33  109.23
   3   2   5  328.08   99.39
   3  -2  -5   48.03   58.91
   3  -2  -5  122.36   43.74
   3   2  -5  159.37   77.69
   3  -2   5  141.92   53.01
  -3  -2   5  136.21   53.38
  -3   2  -5  135.76   53.71
   3  -2  -5  133.13   17.21
  -3   2  -5  130.39   50.84
   3   2   5  132.12   25.51
   3  -2  -5  148.33   59.54
   3  -2  -5  129.82   34.00
  -3  -2   5   92.47   94.47
  -3  -2  -5  136.17   56.60
  -3   2   5  136.95   53.53
   3   2  -5  131.38   41.74
  -3  -4   2   79.73   56.56
   3  -4  -2  130.92   40.41
   3   4  -2  138.14   28.00
   3   4  -2  141.28   26.26
  -3   4  -2  142.92   54.72
  -3   4  -2  152.10   63.27
   3  -4  -2  136.91   51.81
  -3  -4   2   60.71  170.42
  -3   4   2  146.23   51.28
   3  -4   2  137.20   52.07
  -3  -4  -2  103.28   90.88
   3  -4   2  145.34   55.18
   3   4  -2  125.62   74.07
   3  -4   2  142.88   35.04
  -3  -4  -2   56.84  142.54
  -3  -4  -2   69.86   62.43
   3   4   2  145.54   43.38
  -3   4   2   94.75  108.00
  -3   4  -2  140.53   32.98
   3  -4  -2  149.84   50.63
   3  -4   2  134.81   27.50
  -3   4   2  159.22   64.62
   3   4  -2  129.01   48.35
  -3  -4  -2  150.61   56.92
   3  -4   2  101.27  121.44
   3   4  -2  156.35   53.06
   3   4   2   89.94   86.54
  -3  -4   2  147.09   34.30
  -3   4  -2  115.64  156.05
   3   4   2  125.73   39.11
   0  -6   3  422.59  104.03
   0  -6   3  444.52  121.66
   0  -6  -3  169.37  154.71
   0   6   3  457.70  135.91
   0   6  -3  409.82  391.82
   0  -6  -3  433.39  124.55
   0   6   3  416.12   93.52
   0   6   3  445.04  139.44
   0   6  -3  450.12  117.85
   0   6  -3  428.12  114.50
   0   6  -3  442.87  122.33
   0   6   3  433.11   98.20
   0  -6   3  333.52  331.42
   0  -6  -3  391.37   88.73
   0  -6  -3  353.17  339.31
   0  -6   3  431.29  106.06
   0  -6  -3  241.50  251.04
   0   6  -3  452.91  124.37
   0  -6   3  434.87  116.34
   0  -6  -3  458.94  135.81
  -4   0  -1    0.18    8.24
   4   0   1    0.34    2.12
  -4   0  -1    4.86    4.42
   4   0   1    0.38    5.11
  -4   0  -1    0.43    3.65
  -4   0   1    0.51    2.72
  -4   0  -1    0.72    1.73
  -4   0   1    4.68    8.67
  -4   0   1    0.18    3.04
  -4  -1   0 1999.94  430.33
  -4  -1   0  822.39  611.19
  -4   1   0 1947.35  423.12
  -4  -1   0 1671.44  292.03
  -4   1   0  669.12  398.12
  -4  -1   0 1865.51  350.47
   4  -1   0  989.14  207.55
   4  -1   0 1660.92  289.77
  -4   1   0 1989.31  435.40
   4   1   0 1837.16  367.93
  -4   1   0 1864.97  338.02
   4  -1   0 1725.42  362.94
   4   1   0 1777.97  313.11
  -1  -5  -5   38.58   73.97
   1   5  -5   86.36   38.10
   1   5  -5   85.25   34.72
  -1   5   5   81.81   10.48
  -1  -5  -5   30.64   61.14
   1  -5   5   80.40   28.18
  -1   5   5   94.99   47.70
  -1  -5   5   76.90   19.84
   1  -5   5   86.95   35.89
  -1   5   5   85.61   40.62
  -1  -5   5   53.43   86.94
  -1   5   5   87.34   12.12
  -1  -5   5   82.54   17.43
  -1   5   5   83.90   32.75
  -1  -5  -5   92.80   44.73
  -1  -5   5   87.94   44.29
  -1  -5  -5   84.67   19.40
   1   5  -5   87.49   36.13
   1  -5   5   88.37   35.77
  -1  -5  -5   81.95   33.44
   1  -5  -5   47.69   96.79
   1  -5   5   57.84  113.47
   1   5  -5   63.65  110.19
  -1  -5  -5   46.20   83.49
  -1   5  -5   85.29   24.28
   1  -5  -5   89.22   38.92
  -1   5  -5   65.36  138.86
   1  -5  -5   69.72   26.30
  -1   5  -5   88.69   57.29
  -1  -5   5   86.10   33.96
   1   5   5   82.27   36.16
  -1   5  -5   83.58   27.83
   1  -5  -5   77.78   34.27
  -1   5  -5   84.14   40.01
   1   5   5   89.41   38.75
   1   5   5   78.02   49.88
   1   5  -5   90.28   34.25
  -1  -5  -5   73.04   16.31
   2   2  -7  655.57  170.70
   2   2   7  567.19  150.36
   2   2   7  543.39  138.26
  -2  -2   7  208.16  143.38
  -2  -2   7  555.53  163.44
   2  -2  -7  586.37  159.76
   2   2   7 1432.91  402.77
  -2  -2  -7  194.71  159.62
   2  -2  -7  334.43   66.89
   2  -2   7 1279.82  400.00
   2   2   7 1616.05  404.01
  -2   2   7  563.17  146.20
   2   2  -7  527.46  128.30
  -2  -2  -7  583.22  162.05
  -2  -2  -7  547.76  119.90
  -2   2   7  590.61  183.62
  -2  -2  -7  549.70  127.75
  -2  -2   7  506.23  133.89
   2  -2   7  532.01  141.53
  -2   2   7  519.89   94.17
   2  -2   7  564.32  138.97
   2   2  -7  577.82  140.86
   2   2  -7  370.70  243.71
  -2   2  -7  573.97  161.89
   2  -2  -7  709.64  210.80
   2  -2  -7  554.09  107.62
   2   2   7  525.79   93.59
   2  -2   7  606.78  150.95
   2  -2  -7  545.85  156.25
  -2   2  -7  355.77  320.56
   2  -2   7  203.24  180.37
  -2   2  -7  491.89  137.23
  -2   2   7  260.88  195.83
  -2  -2  -7  510.70   93.00
  -4  -1  -1  139.02   48.77
   4  -1   1  118.07   36.48
  -4   1   1  133.39   38.57
  -4   1   1   42.64   62.24
   4  -1   1  117.97   24.89
  -4  -1   1  132.09   39.34
   4   1   1  136.54   32.08
   4   1  -1  122.99   33.11
  -4   1   1  134.82   44.97
  -4  -1  -1   47.67  158.41
  -4  -1  -1  117.82   26.64
  -4   1   1  132.89   43.47
  -4   1  -1   87.25   50.25
   4  -1  -1  114.04   30.49
   4   1   1  129.96   42.54
  -4   1  -1   52.36   77.44
  -4  -1   1  116.48   29.11
   4   1   1  119.67   27.58
  -4   1  -1  127.85   32.34
  -4  -1   1  134.14   39.21
  -4   1  -1  139.03   50.89
  -4   1  -1  145.03   47.61
  -4  -1   1   52.29  114.08
  -4   0   2    0.47    9.49
  -4   0  -2    0.63   10.19
  -4   0  -2    2.46    2.93
  -4   0   2    1.20    2.89
  -4   0  -2    0.94    6.89
   4   0   2    1.23    2.38
  -4   0   2    1.65    3.55
  -4   0  -2    0.05    3.93
   4   0   2    0.94    4.38
   4   0   2    0.27    2.97
   4   0   2    0.95    1.50
   4   0  -2    0.83    2.58
  -4   0   2    1.28    3.07
   1  -2   8  130.61   51.16
   1  -2  -8  131.68   44.57
  -1  -2   8  119.86   17.05
  -1   2   8  129.61   38.66
   1  -2  -8  133.23   45.88
   1  -2  -8  251.63   85.85
   1   2   8  385.44  140.78
  -1   2  -8   73.13  131.60
   1   2   8  132.34   36.79
   1  -2  -8  135.15   47.90
  -1   2  -8  131.17   27.84
   1  -2   8  129.47   28.10
  -1  -2  -8  133.44   41.27
   1   2  -8  142.43   57.19
  -1   2   8  136.93   51.19
   1  -2   8   48.71   82.13
   1  -2   8  139.95   39.98
   1   2  -8  132.48   50.20
   1   2  -8  127.01   47.95
  -1  -2  -8  285.75   98.15
  -1  -2   8  116.54   39.00
   1   2  -8   79.41  115.28
  -1  -2  -8  122.06   33.83
  -1   2   8  123.59   57.85
  -1   2   8  125.10   49.63
  -1   2   8  412.51  131.80
   1   2  -8  117.63   13.74
  -1  -2  -8  118.06   33.64
   1  -2   8  134.35   50.66
  -1  -2  -8  140.80   51.59
  -1  -2   8  126.21   51.88
   1   2   8  132.41   46.84
  -1   2  -8  138.54   59.15
   1   2   8  346.94  116.82
   1   2   8  133.53   43.57
   1  -2  -8  132.81   35.83
   1   2  -8  144.14   46.53
  -1  -2   8   50.91   68.90
  -1   2  -8  128.90   52.53
  -1   2  -8  111.05   33.19
   3   0  -6  497.04  132.17
  -3   0  -6  500.45  136.80
   3   0   6  523.64  111.43
   3   0  -6  557.10  160.29
   3   0  -6 1083.56  192.73
  -3   0  -6  510.01  153.85
   3   0  -6  518.37  106.63
   3   0   6  545.75  154.49
   3   0   6  488.01  141.92
  -3   0   6  302.24  159.27
   3   0   6  845.44  262.18
   3   0   6 1369.04  443.03
  -3   0   6  481.61  144.72
  -3   0   6  349.19  179.58
   3   0  -6  473.33   66.17
  -3   0  -6  324.10  264.43
   1  -6   3    1.62    6.22
  -1  -6   3    2.04    3.82
   1  -6  -3    0.93    5.57
  -1   6  -3    1.23   29.49
  -1  -6  -3   -0.06   18.08
  -1  -6  -3    2.43    1.87
   1  -6  -3    0.48    4.83
  -1   6   3    2.74    1.67
   1  -6   3    0.94    4.88
   1   6  -3    0.92    5.96
   1  -6  -3    0.88    3.67
  -1   6  -3    1.20    4.92
   1  -6  -3    1.88   17.87
  -1   6  -3    0.84    4.88
   1   6  -3    0.55   23.12
  -1   6   3    1.17    5.37
   1   6  -3    1.65    5.54
  -1   6  -3    1.25    5.90
  -1  -6  -3    0.93    5.71
   1   6  -3    2.06    5.36
   1  -6   3    1.68    4.56
   1   6   3    2.34    2.19
  -1  -6  -3    0.81    6.53
  -1  -6  -3   -0.29   12.60
   1  -6   3    0.56   21.66
   1   6  -3    1.43    4.98
   1  -6  -3    5.14   25.55
  -1  -6   3    1.25    4.00
   1  -6  -3    1.21    6.26
  -1   6   3    1.03    7.69
  -1  -6  -3   -0.12   17.12
   1  -6   3    1.31    4.76
   1  -6  -3    2.13    6.51
  -1  -6   3    0.79   18.58
   1   6   3    0.93    6.39
   1   6   3    0.75    3.41
  -1  -6   3    0.66   19.03
  -1   6  -3    0.76    3.50
  -1  -6   3    0.95    2.69
   4  -1  -2    1.57    2.55
   4   1  -2    2.14    3.74
   4  -1   2    1.23    1.31
  -4   1  -2    0.64    6.09
   4  -1  -2    0.92    3.13
   4   1   2    2.00    4.30
   4   1   2    1.26    2.05
  -4  -1   2    1.11   13.37
   4  -1   2    0.68    2.98
  -4  -1   2    2.64    2.58
  -4  -1  -2    0.45    3.65
  -4   1   2    1.47    3.57
   4  -1   2    1.62    3.84
  -4   1  -2    1.85    1.38
  -4  -1   2    1.14    2.85
  -4  -1  -2    0.17    2.49
  -4  -1   2    1.23    4.00
   4   1   2    0.87    1.95
  -4   1  -2    0.91    4.36
  -4  -1  -2    1.18    1.99
  -4   1  -2    6.75    5.98
  -4  -1  -2    1.64    5.07
   4  -1   2    0.77    3.09
  -4   1   2    1.13    3.92
  -4   1   2    0.27    6.31
  -4  -1  -2    0.48   12.46
   4   1  -2    1.16    2.32
  -4   1   2    2.31    4.35
   0   4   7  124.42   34.73
   0  -4  -7  113.80   41.96
   0   4  -7  124.37   38.87
   0  -4   7  122.91   48.12
   0  -4   7  120.14   29.14
   0   4  -7  115.14   27.54
   0  -4   7  134.24   53.75
   0   4   7  134.72   51.57
   0   4  -7  132.86   39.66
   0  -4  -7   74.63  101.63
   0  -4  -7  280.41  157.04
   0  -4  -7  109.81   33.26
   0   4  -7  123.74   51.00
   0  -4  -7  132.80   51.73
   0   4   7  117.54   45.85
   0   4  -7  127.03   55.87
   0  -4  -7  153.27   41.59
   0   4   7  317.77   90.87
  -3  -4  -3  149.08  108.56
   3   4  -3  253.42  149.67
  -3  -4  -3  335.95  108.84
  -3   4   3  338.50  107.42
  -3   4   3  330.58  100.95
   3   4  -3  289.97   88.11
  -3   4  -3  227.21  216.20
   3  -4  -3  177.26  154.29
   3  -4  -3  272.58   73.87
   3  -4  -3  317.39   86.85
  -3  -4   3  231.18  192.14
   3   4   3  206.24  144.24
  -3   4  -3  315.83   55.94
  -3  -4   3  108.99   63.57
   3  -4  -3  300.19   92.49
  -3   4  -3  317.94  108.49
  -3  -4   3  311.09   55.56
   3  -4   3  302.52   71.10
   3  -4   3  329.00  104.47
   3   4  -3  335.96  108.70
   3   4  -3  280.68   43.84
  -3   4  -3  303.95   92.82
   3  -4   3  310.28   94.42
   3   4   3  313.90   77.12
   3   4   3  276.70   76.38
   3   4  -3  300.67   57.58
  -3  -4  -3  126.76  207.64
  -3  -4  -3  295.42  175.11
   3  -4   3  208.31  195.17
   3   4  -3  331.12   95.87
   3  -4   3  299.23   47.65
   2   5  -4    1.47    5.26
   2   5  -4    1.75   15.65
   2  -5   4    1.77    4.39
   2   5   4    1.21    4.63
  -2   5  -4    1.13    4.75
  -2   5  -4    1.12    1.90
  -2   5  -4    1.38    3.60
   2  -5  -4    0.56   14.36
  -2  -5   4    2.45    4.00
  -2  -5   4    1.26    1.11
  -2  -5   4    1.67    1.75
  -2  -5   4    1.12   13.90
  -2   5   4    2.18    6.57
  -2  -5  -4    0.85   13.81
  -2  -5   4    1.11    9.95
  -2  -5  -4    0.08   13.77
   2  -5  -4    1.83    4.72
   2   5  -4    1.91    3.13
   2  -5   4    0.79    4.88
  -2  -5  -4    0.21   10.26
  -2  -5  -4    1.78    6.85
  -2   5   4    1.34    5.39
   2   5  -4    1.24    5.22
   2  -5  -4    0.82    5.02
  -2   5  -4    1.12    4.82
   2   5   4    1.27    7.15
   2   5  -4    1.72    4.69
   2  -5   4    2.87    3.87
   2  -5   4    0.95   17.17
  -2   5  -4    1.54   20.91
   2  -5  -4    0.93    4.27
  -2   5  -4    1.50    6.29
   3  -1  -6  361.64  118.97
   3   1  -6  380.11  144.37
   3   1   6  322.97   62.94
   3   1  -6  311.30   76.74
  -3  -1  -6  436.38  154.38
  -3   1   6  212.31   94.00
  -3   1   6  306.59   90.38
   3   1  -6  299.99   82.42
  -3  -1   6  184.02  109.39
   3   1   6  143.22  117.18
   3  -1   6  315.18   78.67
  -3  -1  -6  315.32  104.08
   3   1  -6  360.41  112.60
  -3   1   6  300.01   97.42
  -3  -1   6  302.01   96.29
  -3   1  -6  306.48   98.47
   3  -1  -6  250.53  110.53
   3   1   6  308.70   93.33
  -3   1  -6  297.75   96.77
  -3  -1   6  209.74  143.30
   3  -1  -6  311.07   60.49
  -3  -1  -6  295.55   74.37
   3  -1   6  485.20  257.67
   3  -1   6  298.88   91.56
   3  -1   6  337.99  103.42
   3  -1   6  118.76  111.03
   3  -1  -6  301.53   61.18
   3   1   6  328.47   32.06
   3  -1  -6  295.33   90.23
   3   1   6  308.55   98.95
   3   1   6  834.43  292.63
  -3   1  -6 1460.12  352.86
  -4   2   0 1567.23  575.28
   4  -2   0 2358.34  408.82
  -4  -2   0 2680.28  565.23
  -4  -2   0 1167.02  895.53
   4  -2   0 2291.50  409.13
   4  -2   0 2390.66  534.12
   4   2   0 2381.78  375.51
  -4   2   0 2898.53  669.24
   4   2   0 2242.02  433.83
  -4   2   0 2682.68  597.33
  -4   2   0 2683.48  502.17
  -4  -2   0 2097.42  314.39
   4   2   0 2729.34  529.52
   4  -2   0 1132.69  375.74
   0  -6  -4  987.84  257.63
   0   6  -4 1042.83  261.81
   0   6  -4 1044.63  276.78
   0  -6   4 1061.19  271.91
   0  -6   4  990.47  219.63
   0  -6  -4  900.87  192.25
   0  -6   4  958.59  215.81
   0   6  -4 1022.40  255.10
   0  -6  -4  581.00  475.27
   0   6  -4  984.21  241.24
   0   6   4 1101.72  300.71
   0  -6  -4  440.73  293.31
   0  -6  -4 1106.44  291.99
   0   6   4  942.56  186.14
   0  -6   4 1031.17  254.81
   0  -6  -4  801.86  630.73
   0   6   4 1024.40  218.09
   0   6   4 1035.66  280.35
   4  -2  -1  767.02  267.80
   4  -2  -1 1009.82  178.00
  -4  -2   1 1140.29  248.19
  -4  -2  -1  907.18  129.18
   4   2   1  997.99  144.39
  -4  -2   1 1150.95  240.68
  -4   2  -1 1093.68  190.85
   4  -2  -1 1072.43  262.24
  -4  -2   1  461.33  469.48
  -4   2   1 1151.64  244.22
  -4  -2  -1 1251.79  294.50
   4  -2  -1 1002.97  199.15
  -4   2  -1  775.37  361.41
   4   2   1 1209.08  237.29
   4  -2  -1  631.38  230.24
   4   2   1  973.76  212.23
  -4   2  -1 1252.64  312.85
  -4   2   1 1143.49  267.26
   4  -2   1  941.41  189.59
   4  -2   1 1010.45  236.16
   4  -2   1  442.71  190.93
   4   2  -1 1041.00  255.18
   4   2  -1  942.48  181.24
  -4  -2  -1  477.42  450.81
   4   2  -1  940.65  155.78
   4  -2   1  951.11  156.10
  -4   2   1 1198.39  294.81
  -4   2  -1 1179.09  287.94
   0   3  -8   18.35   21.70
   0   3  -8   -0.04    3.14
   0   3   8    2.40   12.27
   0  -3  -8    0.33   10.45
   0   3   8    0.96    3.95
   0  -3   8    0.13    3.00
   0   3   8    6.66    6.67
   0  -3   8    1.65    8.91
   0  -3  -8    1.81    3.90
   0   3   8    0.32    3.49
   0  -3   8    0.26    4.97
   0   3  -8    0.04    5.34
   0  -3   8    1.69    2.04
   0   3  -8    3.26    2.77
   0   3   8    0.29    4.80
   0  -3  -8    0.17    3.09
   0  -3  -8    4.17    3.84
   0  -5  -6    0.10    3.19
   0   5   6   -0.38    2.30
   0   5  -6   -0.04    1.86
   0   5  -6    0.80    2.07
   0  -5  -6    0.59    8.45
   0  -5  -6   -0.63    6.53
   0   5   6    1.16    1.84
   0   5   6    0.56    3.18
   0  -5   6    0.03    1.31
   0  -5   6    0.02    1.34
   0  -5  -6    1.95    3.02
   0  -5   6    0.32    3.12
   0   5   6    0.09    1.46
   0  -5   6    0.43    2.47
   0   5  -6    0.76    2.99
   0   5  -6    0.25    2.98
  -4   0  -3    0.35    6.39
  -4   0   3    0.27    2.02
  -4   0  -3    1.00    4.32
  -4   0   3    0.42    3.27
   4   0   3    0.95    0.77
  -4   0  -3   -0.01    8.14
  -4   0   3    0.36    2.76
   4   0   3    1.09    3.89
   4   0   3    0.17    2.56
  -4   0   3    0.29    7.73
   4   0   3    0.62    0.78
   4   0   3    0.44    2.02
   3   3   5    2.33    6.51
   3  -3  -5    3.53    8.24
  -3   3  -5    3.33    8.62
   3  -3   5    4.43    7.68
   3  -3   5    8.99    6.84
  -3  -3   5    1.95   18.79
  -3   3   5    3.08    8.69
  -3  -3  -5    3.24    9.29
   3   3  -5    2.22   11.43
  -3  -3  -5   10.10   19.93
   3  -3   5    0.92   13.07
   3   3  -5    2.78    4.37
  -3  -3  -5    2.22   13.16
  -3   3   5    3.98   11.17
   3   3  -5    5.15    6.55
  -3  -3  -5    6.12   10.15
   3  -3   5    2.81    5.95
   3   3  -5    6.98    8.76
   3   3   5    2.97   22.82
   3  -3  -5    1.33    9.76
  -3  -3   5    0.71    5.20
  -3   3  -5    3.01    7.60
   3   3   5    3.92    3.92
   3  -3  -5    2.87    6.81
   3  -3  -5    2.40    5.08
   0   0  -9    0.44    3.51
   0   0  -9   -0.26    6.43
   0   0   9    0.47    1.78
   0   0   9    0.41    2.01
   0   0  -9    0.72    2.10
   0   0  -9    0.19    3.51
   0   0   9    0.66    7.27
   0   0  -9    0.85    3.20
   0   0  -9    0.88    1.87
   0   0   9    0.25    3.12
   2  -6   0  272.45   52.95
   2  -6   0  297.26  104.58
   2   6   0  284.05  101.67
  -2   6   0  299.82  103.82
   2  -6   0  256.19   81.94
  -2  -6   0  191.30  254.45
  -2  -6   0  282.93   95.42
   2  -6   0  285.01   91.61
   2   6   0  233.59  205.11
   2   6   0  265.52   81.00
  -2  -6   0  271.36   49.72
   2   6   0  273.09   42.92
  -2   6   0  283.76   68.34
   2   6   0  261.52   81.34
  -2   6   0  348.15  116.10
   2  -6   0  267.25   74.88
   2   6   0  290.04   93.73
  -2  -6   0  244.75  213.30
  -1  -4  -7  123.65   54.17
  -1   4   7  106.41   23.45
   1  -4   7  107.14   43.32
   1  -4   7  108.36   34.36
  -1   4   7  110.97   44.60
   1  -4  -7   99.99   40.08
   1  -4  -7  100.07   36.14
   1  -4  -7   42.88   77.44
  -1  -4  -7  337.66  129.36
   1   4   7  114.50   40.17
  -1   4  -7  105.13   31.05
  -1  -4   7   94.57   10.05
   1  -4   7  104.08   44.16
  -1  -4  -7   97.18   33.77
  -1   4   7  274.33   50.23
  -1  -4  -7   46.77   85.22
  -1  -4   7  103.25   37.16
   1   4   7  114.66   39.07
   1   4   7  284.11  104.87
  -1   4  -7  108.93   49.01
  -1   4   7  107.78   39.96
  -1  -4   7  111.51   43.83
  -1   4  -7   99.58   31.31
  -1   4  -7  106.95   26.14
   1   4  -7  102.56   40.68
  -1  -4   7   96.79   11.58
  -1  -4  -7   91.65   22.84
  -1   4   7  115.57   52.31
  -1   4  -7  113.43   51.44
  -1  -4  -7  103.88   28.40
   1   4  -7  115.13   40.45
  -2   0  -8  793.02  361.35
   2   0  -8 1803.06  400.55
   2   0  -8  917.77  230.94
  -2   0  -8  982.91  260.97
  -2   0   8  415.34  290.45
  -2   0   8  863.97  240.82
  -2   0  -8  810.69  130.58
   2   0   8 1045.86  413.16
  -2   0   8  847.06  223.54
   2   0   8  945.16  212.83
   2   0   8  828.88  106.66
  -2   0  -8  868.57  241.31
   2   0  -8  981.49  267.71
   2   0  -8  908.91  194.14
   2   0  -8  909.76  233.61
   2   0   8 2234.97  630.47
   2   0   8  940.69  232.83
   2   0   8  918.47  242.02
   2   0  -8  771.13  103.19
   2   4  -6   12.73   13.21
  -2  -4  -6    5.33   30.18
   2   4   6   15.93   10.12
  -2   4   6   14.21   17.79
  -2   4  -6   11.78    3.44
  -2  -4  -6   39.88   33.50
   2   4  -6   12.43   13.61
  -2  -4  -6   11.99    4.20
  -2  -4  -6   14.19   18.64
   2  -4   6   12.05   13.67
  -2   4  -6   14.28    5.55
  -2   4   6   12.49   12.63
  -2  -4  -6   13.45   10.81
  -2   4  -6   12.52   14.64
   2  -4  -6   13.09   10.67
   2   4   6   26.36   35.12
   2   4  -6   10.97   10.14
  -2  -4   6   11.98   12.27
  -2   4  -6   12.47   16.49
   2  -4  -6   12.34   12.02
  -2  -4   6    4.80   16.91
  -2   4  -6   11.33   11.48
  -2  -4  -6   11.49    3.50
   2  -4  -6    5.79   24.92
   2  -4  -6   11.42   11.76
   2   4   6   11.79   11.66
   2  -4   6   11.96   11.92
  -2  -4   6   13.13   16.93
   2   4  -6   11.24   35.93
  -2  -4  -6   12.16   26.77
   2  -4   6   14.64   11.17
  -4  -1  -3  178.53  116.56
   4  -1   3  230.38   66.15
   4  -1   3   88.18   57.57
   4  -1   3  272.77   68.35
  -4   1   3  266.41   77.84
  -4  -1  -3  255.79   51.70
   4   1  -3  237.58   48.52
   4   1   3  256.66   44.38
   4   1   3  265.26   48.97
   4  -1  -3  256.34   54.30
  -4   1  -3  279.50   91.67
  -4   1  -3  292.36   94.09
   4  -1   3  250.27   24.77
  -4  -1   3  332.89   84.28
  -4   1   3  262.86   64.13
   4  -1   3  230.91   22.66
  -4  -1   3  128.08  187.24
   4  -1  -3  239.87   66.92
   4   1   3  265.81   80.60
  -4  -1   3  257.04   53.94
  -4  -1   3  232.49   56.78
   4   1   3  141.87   70.98
  -4  -1  -3  287.19   95.00
  -4   1   3  261.73   88.22
  -4  -1  -3  141.86  167.97
  -4   1   3   90.15   88.89
   4   1  -3  247.43   66.31
  -2  -6  -1  567.74  431.97
  -2   6  -1  866.96  218.06
  -2  -6   1  889.47  246.48
   2   6  -1  859.51  229.73
   2  -6   1  889.79  173.22
  -2  -6   1  477.56  634.71
  -2  -6  -1  921.63  269.38
   2  -6   1  881.32  213.27
   2  -6   1  850.58  229.45
   2   6  -1  914.36  265.39
   2   6  -1  891.79  153.35
  -2  -6  -1  383.20  475.02
   2   6   1  911.99  241.22
   2  -6   1  943.14  247.93
   2   6  -1  938.69  249.11
  -2   6   1  954.29  269.43
   2   6  -1  720.89  462.18
   2  -6  -1  935.41  300.77
  -2   6  -1 1111.78  303.51
   2  -6  -1  807.70  215.81
  -2   6  -1  936.56  269.11
  -2   6   1 1097.66  313.78
   2  -6  -1  930.55  243.75
   2   6   1  870.91  208.00
   2   6  -1  875.45  189.34
  -2  -6  -1  514.64  387.66
   2   6   1  838.35  218.40
   2  -6  -1  867.29  212.40
   2  -6  -1  629.55  174.26
  -2  -6   1  664.60  463.24
   2  -6   1  932.26  269.45
  -2  -6   1  880.35  180.89
  -2   6   1  957.02  162.53
   4   2  -2   95.02   21.67
  -4   2  -2  127.96   49.52
  -4  -2  -2  173.57   45.19
  -4   2   2  126.51   40.22
   4  -2  -2  102.83   30.18
  -4   2   2  142.47   48.96
  -4   2   2   31.70   31.67
  -4  -2  -2   48.61  162.35
  -4   2  -2  127.04   51.36
   4  -2  -2  112.91   24.47
   4  -2  -2   86.38   57.96
  -4  -2   2  117.78   29.35
  -4  -2   2  118.48   39.83
  -4  -2  -2   97.84   15.03
  -4  -2  -2  128.85   48.47
   4  -2   2  105.95   35.19
   4   2  -2  102.04   22.74
   4  -2   2  103.51   30.79
   4  -2   2   48.93   43.08
   4  -2   2  102.47   17.01
  -4   2   2  121.68   39.18
   4  -2  -2   46.33   27.05
  -4   2  -2  112.43   19.74
   4   2   2  117.16   17.74
   4   2   2  104.86   35.36
   4   2  -2  111.09   40.33
  -4  -2   2   60.15  139.73
   4   2   2  126.14   29.61
   2   3  -7   97.52   35.89
   2  -3   7  108.30   42.31
   2   3   7  110.15   29.38
  -2  -3  -7  244.40   86.09
   2   3  -7  119.52   47.17
   2   3   7  317.75  137.36
   2   3   7  107.50   40.91
   2  -3  -7   45.17   88.86
  -2  -3  -7  108.67   34.93
  -2  -3   7   91.33   36.54
  -2   3   7  120.78   54.89
   2  -3   7  116.80   42.53
  -2  -3  -7  121.33   55.09
  -2  -3  -7   83.31   17.51
  -2   3  -7  103.24   51.52
  -2   3   7  108.08   43.37
  -2  -3   7  108.91   51.74
   2   3   7  318.84  109.95
  -2  -3   7   35.09   48.91
  -2  -3  -7  101.11   29.27
   2  -3  -7  104.72   41.64
  -2   3  -7  108.44   50.42
  -2   3  -7   93.17   35.40
   2   3  -7  109.65   43.55
   2  -3   7  105.60   42.71
   2   3  -7   88.08  110.02
   2  -3  -7  106.46   32.33
   2  -3  -7  107.04   43.79
   2   3   7  110.56   45.23
   0  -1   9    0.10    3.63
   0   1   9    0.86    7.33
   0   1  -9    0.34   10.74
   0  -1  -9    0.26    3.54
   0   1   9   -0.30    6.24
   0   1  -9    1.15    4.11
   0   1   9    0.28    3.32
   0  -1   9    0.92    1.66
   0   1  -9    0.37    3.72
   0   1  -9    0.26    1.68
   0  -1  -9    0.28    7.54
   0  -1  -9    0.99    3.16
   0   1  -9    0.58    2.13
   0  -1  -9    0.71    2.52
   0  -1  -9    0.41    3.54
   0   1   9    0.99    2.27
   0  -1   9    0.05    7.88
   0   1  -9    0.22    5.86
   0   1   9    0.35    2.63
   0  -1   9    2.05    2.16
   3  -2   6  104.17  101.24
  -3   2  -6  283.71   95.20
   3   2  -6  258.73  146.84
  -3  -2  -6  301.26  101.13
   3   2   6  711.81  201.28
   3  -2   6  298.78   80.37
   3  -2   6  296.05  101.87
  -3  -2  -6  264.16   51.35
  -3   2   6  292.47   94.49
   3   2  -6  343.67  105.28
  -3  -2  -6  660.25  165.43
   3   2  -6  286.75   75.28
   3  -2   6  263.41   79.21
  -3  -2   6  198.54  153.91
  -3   2  -6  269.46   84.70
   3  -2  -6  277.35   35.06
   3   2  -6  265.67   68.73
  -3   2   6  266.53   81.69
  -3   2   6  101.84   56.10
   3   2   6  278.73   49.00
   3  -2  -6  263.26   80.30
  -3  -2   6  286.71   88.73
   3  -2  -6  321.50  104.25
   3  -2  -6  100.10   74.95
  -3  -2   6  114.89   69.75
   3   2   6  883.09  310.06
   3   2   6  277.40   81.63
   3  -2  -6  283.06   61.12
   2   1   8  324.06   94.87
  -2   1  -8  196.04  223.15
   2  -1  -8  325.30   99.99
   2   1   8  230.68  171.51
  -2  -1   8  316.85  109.56
   2   1   8  321.90  103.29
   2  -1  -8  337.91  109.75
   2  -1  -8  305.17   58.23
   2   1  -8  317.60   86.80
  -2  -1   8  135.18  120.86
   2   1  -8  321.19   96.16
  -2   1   8  937.11  257.21
   2   1   8  330.10   80.54
   2  -1   8  336.93   93.17
  -2  -1  -8  328.18   98.01
   2   1  -8  346.16  117.12
   2  -1   8  783.72  279.16
   2   1   8  858.85  287.54
  -2   1   8  290.51   85.48
   2  -1  -8  321.55   69.85
  -2   1  -8  301.62   91.14
   2  -1  -8  329.37   99.42
   2  -1  -8  667.72  170.94
  -2  -1   8  295.44   94.12
   2   1   8  313.34   55.71
   2   1  -8  357.56  109.36
   2  -1   8  315.82  102.83
  -2  -1  -8  319.69  102.87
   2   1  -8  408.52  200.16
  -2  -1  -8  307.06   66.30
  -2   1   8  305.87  100.05
  -2  -1  -8  594.44  207.31
   2  -1   8  354.23  101.49
  -2   1  -8  339.52  112.29
   2  -1   8  124.00  142.50
  -1   6   4  172.21   68.69
   1   6  -4  169.42   60.50
  -1  -6   4  151.88   41.85
  -1  -6   4  183.45   55.58
   1  -6   4  164.15   56.89
   1  -6   4  171.23   54.93
   1   6   4  167.43   33.15
   1  -6   4  167.36   52.97
   1  -6  -4  135.76  215.51
  -1   6  -4  154.97   43.59
  -1   6  -4  167.38   65.27
   1   6   4  163.93   59.49
   1   6   4  145.18   41.61
  -1  -6  -4  180.61   69.77
   1   6  -4  151.09  199.50
  -1   6   4  182.19   77.60
   1  -6   4  156.57   50.18
  -1  -6  -4  161.55   30.74
   1   6  -4  162.02   57.30
  -1  -6  -4  131.10  160.53
   1   6   4  165.58   61.98
  -1  -6   4  154.26   35.39
  -1  -6   4  173.30   67.50
   1  -6  -4   66.74   33.79
  -1  -6   4  100.47  138.63
   1  -6  -4  140.33   43.87
   1  -6  -4   94.87  150.69
   1  -6  -4  151.51   56.04
   1   6  -4  161.55   57.28
  -1   6  -4  163.33   60.81
  -1   6  -4  162.88   52.17
   1   6  -4  169.97   51.06
  -1  -6  -4   66.95  107.62
  -1  -6  -4  162.77   58.69
  -1  -6  -4  100.13  149.71
  -1   6   4  156.86   23.96
  -1   6   4  154.50   49.90
   1  -6  -4  170.54   63.13
  -3   5   0    1.26    3.88
   3   5   0    0.27    3.93
  -3  -5   0    0.02    8.33
   3   5   0    0.49    4.72
   3  -5   0    1.67    1.40
   3   5   0    0.69    2.90
   3  -5   0    0.69    4.28
  -3  -5   0   -0.25   21.65
  -3   5   0    0.88    6.33
   3  -5   0    0.85    5.36
   3  -5   0    1.08    6.07
  -3  -5   0    1.08    4.31
   3  -5   0    1.39    2.89
  -3   4  -4  545.94   66.55
   3  -4   4  574.47  168.75
   3   4  -4  572.30  272.49
   3   4  -4  518.01  103.23
  -3  -4  -4  629.75  190.60
   3  -4   4  568.10  155.75
   3   4   4  511.30  135.23
  -3   4  -4  427.88  346.17
   3   4   4  441.75  237.24
  -3  -4   4  198.91  109.78
  -3  -4   4  487.39   41.59
  -3   4  -4  575.24  177.00
   3  -4  -4  336.74  244.39
  -3   4   4  619.20  178.06
  -3  -4   4  411.64  283.99
   3  -4   4  559.19  129.87
   3  -4  -4  568.51  142.45
  -3   4   4  616.15  173.95
  -3  -4  -4  354.10  191.47
  -3  -4  -4  225.45  365.34
  -3   4  -4  550.04  150.18
  -3  -4   4  552.09  151.30
   3  -4  -4  567.08  162.53
   3   4  -4  635.10  181.37
   3   4  -4  540.51  148.91
  -3  -4  -4 1039.82  320.62
  -3  -4   4  506.21   44.92
   3  -4  -4  509.23  132.50
   3   4   4  570.15  128.97
  -3   4  -4  606.74   80.05
   1  -3   8    1.04    7.05
  -1   3   8    0.57    4.23
   1  -3   8    1.29    5.00
   1   3  -8    0.85    4.38
   1  -3   8    2.10    2.87
  -1   3   8    0.54    4.02
  -1  -3  -8    1.29    5.68
   1   3  -8    0.81    5.37
   1   3   8    2.50   12.55
   1  -3  -8    1.92    4.25
  -1  -3   8    0.56    5.55
  -1  -3   8    0.55    3.63
   1  -3  -8    0.85    3.58
  -1   3  -8    1.82    2.05
   1  -3  -8    0.49    8.46
  -1   3  -8    1.23    2.96
  -1   3  -8    1.30    5.90
  -1   3  -8    1.30    2.11
   1   3   8    0.58    3.42
   1   3   8    5.32    4.16
   1  -3  -8    0.54    4.06
   1   3   8    3.44    4.26
  -1  -3   8    3.73    5.07
   1  -3  -8    0.69    4.47
   1   3   8    7.73    9.11
  -1   3  -8    0.94    5.67
  -1  -3   8    0.00    7.65
  -1  -3  -8    1.01    3.34
   1   3  -8    0.92    4.87
  -1   3   8    7.84   11.31
  -1  -3  -8    2.28    9.98
  -1  -3  -8    0.57    2.25
  -1   3   8    0.77    5.75
  -1   3   8    0.63    2.66
  -1  -3  -8    1.09    3.02
   1   5   6   59.00   39.42
  -1  -5  -6   61.98   16.58
   1   5  -6   64.75   29.26
   1  -5   6   60.07   22.87
  -1   5   6   63.81   33.21
  -1  -5   6   64.58   29.51
  -1  -5   6   65.70   37.79
  -1   5  -6   61.32   21.34
   1   5  -6   46.10   98.31
   1  -5   6   62.55   30.42
   1   5  -6   64.70   28.44
  -1  -5  -6   35.52   77.34
  -1  -5  -6   53.82   13.56
  -1  -5  -6   60.70   26.50
   1   5  -6   65.19   33.84
  -1   5   6   69.35   40.36
  -1  -5  -6   67.56   38.13
  -1   5   6   57.94    8.33
  -1  -5  -6   25.92   67.85
  -1   5   6   64.18   11.77
  -1  -5  -6   25.03   51.24
   1   5  -6   62.31   37.64
  -1   5  -6   65.83   37.95
   1  -5  -6   57.62   28.70
  -1   5  -6   64.45   19.52
   1   5   6   60.88   29.79
  -1   5  -6   60.55   23.30
  -1   5   6   67.39   27.85
  -1   5  -6   64.75   37.31
   1  -5  -6   26.25   60.75
   1   5   6   68.85   33.30
  -1  -5   6   59.05   11.84
   1  -5  -6   66.88   32.48
   1  -5  -6   56.53   22.98
  -1  -5   6   57.57   13.77
   1  -5   6   64.13   31.05
  -3  -5   1  693.26  168.03
   3  -5   1  671.49  125.12
   3  -5  -1  695.89  218.78
   3   5   1  556.93  157.36
   3  -5  -1  549.79  155.49
   3   5  -1  639.16  130.49
   3  -5  -1  702.59  189.01
  -3   5   1  732.11  218.39
   3   5  -1  595.97  166.06
  -3  -5  -1  313.20  445.26
  -3  -5  -1  722.70  205.34
   3   5  -1  707.36  184.92
   3  -5   1  625.53  130.09
  -3  -5  -1  407.24  258.43
  -3   5   1  425.26  332.63
  -3   5   1  666.96  181.18
  -3   5  -1  627.93  155.83
   3  -5   1  696.68  233.04
  -3   5  -1  540.41  421.23
   3  -5  -1  588.73  140.26
  -3  -5   1  455.33  268.39
   3   5  -1  650.33   84.68
   3  -5   1  607.00  170.70
   3  -5   1  723.97  199.41
  -3  -5   1  378.82  225.96
   3   5   1  685.19  173.28
   3   5   1  594.31  138.68
  -3  -5   1  277.83  426.26
  -3  -5  -1  416.60  261.82
   3  -5  -1  607.62   64.99
  -3   5  -1  718.60  220.00
   2  -6   2  210.60   74.15
   2   6  -2  202.68   68.87
  -2  -6  -2  212.15   84.38
   2  -6   2  204.96   71.61
  -2   6  -2  249.25   83.39
  -2  -6  -2  125.87  146.61
  -2  -6   2  145.81  168.11
  -2  -6   2  207.36   56.36
   2  -6  -2  220.08   87.11
  -2   6  -2  200.93   65.82
  -2  -6  -2  123.70  150.72
   2   6  -2  208.12   45.46
  -2   6  -2  149.55  284.53
  -2  -6   2  148.30  147.30
  -2  -6   2  205.13   65.40
   2   6   2  205.84   72.76
   2   6   2  193.55   62.69
   2   6  -2  202.43   48.79
  -2   6   2  238.21   92.19
   2   6   2  191.28   61.41
  -2   6  -2  216.77   83.87
   2  -6  -2  179.70   60.64
   2   6  -2  218.69   77.19
   2  -6  -2  190.44   63.51
   2  -6  -2  211.15   74.72
   2   6  -2  208.29   77.44
  -2  -6  -2   93.58  262.19
   2  -6   2  209.33   52.92
  -2   6   2  225.76   83.53
   2  -6   2  207.49   76.93
   2  -6   2  205.62   55.56
   2   6  -2  149.46  168.59
   1   0  -9    0.11    3.95
  -1   0   9    1.28    3.46
   1   0   9    0.21    4.06
   1   0   9    0.10    8.89
  -1   0  -9    0.81    3.04
  -1   0  -9   -0.11    3.73
  -1   0  -9    0.25    1.67
   1   0  -9    0.16    6.40
   1   0   9    0.18    1.64
  -1   0   9   -0.51    7.25
   1   0  -9    1.02    1.35
  -1   0   9    0.65    3.11
   1   0  -9    1.51    3.03
   1   0   9    0.44    2.51
   1   0  -9    0.15    4.06
  -1   0  -9    0.64    2.82
  -1   0   9    2.10    1.84
   0  -7   0    0.15    6.21
   0   7   0    1.57    2.52
   0  -7   0    1.74    4.06
   0  -7   0    0.36    2.48
   0  -7   0    0.62    4.49
   0  -7   0    0.24    3.64
   0   7   0    0.67    3.22
   0   7   0    0.19    4.82
   2   5  -5 1109.22  290.57
  -2  -5   5  962.37   88.71
   2   5  -5 1148.80  308.83
  -2   5  -5 1087.13  270.18
   2  -5   5 1139.02  292.94
  -2  -5  -5 1280.32  366.03
   2   5  -5 1087.67  238.40
   2   5  -5  908.43  524.91
   2   5   5 1033.27  262.93
  -2  -5  -5  405.97  375.70
  -2  -5   5  395.79  255.50
  -2   5   5 1271.24  352.74
  -2   5   5 1132.20  291.38
   2  -5  -5 1229.14  293.86
  -2   5  -5  864.28  653.12
  -2   5  -5 1105.17  198.25
   2   5  -5 1152.28  294.04
   2  -5  -5  685.09  497.38
  -2  -5  -5  525.82  380.43
  -2  -5   5 1237.35  322.21
  -2  -5   5 1123.36  105.16
   2   5   5  762.24  343.19
  -2  -5   5  798.80  566.03
   2   5   5 1147.55  271.29
   2  -5  -5 1013.06  261.35
   2  -5  -5 1087.44  279.52
  -2   5  -5 1152.39  331.30
  -2   5  -5 1162.26  328.15
  -2  -5  -5  659.64  452.42
  -2   5  -5 1196.97  271.30
   2  -5   5 1169.93  300.55
  -2  -5  -5 1223.47  323.60
   2  -5   5 1129.21  263.52
   0  -7   1    0.24    2.98
   0  -7  -1    0.37    2.18
   0  -7  -1    1.73    4.10
   0   7  -1    0.38    2.94
   0  -7  -1    3.46    4.00
   0  -7   1    1.63    3.60
   0   7   1    1.93    2.83
   0   7  -1    0.09    2.59
   0   7   1    0.32    4.52
   0   7   1   -0.25    4.19
   0   7  -1    0.20    4.24
   0  -7   1    0.07    2.47
   0  -7   1    0.86    4.05
   0   7   1    0.23    2.10
   0  -7  -1   -0.30    7.50
   0  -7   1    0.02    6.02
   4  -3   0  150.97   35.33
   4   3   0  149.16   20.13
   4   3   0  139.69   36.75
  -4   3   0  102.06   86.71
   4   3   0  195.33   54.69
  -4   3   0  186.00   63.05
  -4  -3   0   69.93  164.24
  -4   3   0  198.05   73.59
   4  -3   0  120.59   90.66
   4   3   0  159.60   23.76
   4  -3   0  160.49   55.80
  -4  -3   0  191.52   56.74
  -4   3   0  182.11   46.52
   4  -3   0  150.83   34.43
  -1  -1  -9   22.72   15.67
   1   1  -9   19.92   17.31
  -1   1   9   20.93   13.98
  -1  -1  -9   40.23   38.96
   1  -1   9   24.95   10.97
   1   1  -9   21.83   15.20
  -1  -1  -9   21.21   12.24
  -1  -1   9   17.83    6.34
   1  -1   9   32.56   42.51
   1  -1   9    7.05   32.51
  -1   1  -9   17.85   10.80
   1  -1   9   20.29   16.80
   1   1  -9   20.30   13.33
   1  -1  -9   20.56   16.44
   1   1   9   20.57   12.70
   1   1  -9   13.40   44.74
   1  -1  -9   21.46   12.23
   1   1   9   18.19    8.47
  -1  -1   9   17.01   12.55
   1  -1  -9   47.09   30.85
   1  -1  -9   19.89    9.08
  -1  -1  -9   19.81    9.02
   1   1  -9   17.08    4.69
  -1   1   9   20.61   15.00
   1   1  -9   21.57   18.56
  -1  -1   9    6.87   30.16
   1  -1   9   21.63   17.68
   1  -1   9   17.38    7.37
   1  -1  -9   20.42   16.17
  -1  -1  -9   19.34   14.42
  -1  -1   9   19.48   16.65
  -1   1  -9   19.80    8.01
   1  -1  -9   20.60   18.89
   1   1   9   47.76   36.03
   1   1   9   20.32   17.02
  -1   1  -9   20.65   17.66
  -1   1  -9   22.93   52.19
   1   1   9   20.05   35.25
  -1   1   9   68.12   45.64
  -1   1   9   19.23   10.77
   4   0   4  171.47  102.88
  -4   0  -4  495.24  151.42
   4   0   4  488.87  137.03
  -4   0   4  451.83  114.12
  -4   0  -4  509.06  121.30
   4   0  -4  507.29   96.13
   4   0   4  505.33  147.98
   4   0  -4  489.53  106.45
  -4   0  -4  395.89  245.54
  -4   0   4  225.55  281.28
   4   0   4  510.24  104.46
  -4   0   4  488.63  136.14
   4  -2   3   31.36   15.65
  -4   2  -3   38.25   26.31
  -4   2  -3   22.23   43.18
  -4   2  -3   40.00   23.86
  -4  -2   3   37.11   20.45
  -4   2   3   36.63   20.13
  -4  -2  -3   38.51   24.82
  -4  -2  -3   63.75   26.20
  -4   2   3    9.24   14.44
  -4  -2  -3   13.54   56.91
  -4   2   3   36.96   22.75
  -4  -2  -3   28.79    5.20
   4   2  -3   31.25   10.91
   4  -2   3   37.56   25.58
   4   2  -3   34.80   18.66
   4   2  -3   28.66    7.55
  -4  -2   3   16.57   77.73
   4  -2   3   36.40   18.36
   4   2   3   32.02   17.02
   4  -2  -3   32.02   16.07
   4   2   3   37.24    5.94
   4   2   3   37.18   11.39
   4  -2  -3   12.59   13.25
   4  -2  -3   40.06   17.91
   4  -2  -3   35.96    8.98
  -4  -2   3   34.86   10.13
  -3   5   2    5.30   40.36
   3  -5   2   12.15    8.78
   3   5  -2    9.97   25.63
   3   5  -2   17.63   18.08
  -3   5   2   13.77   18.88
  -3  -5  -2   13.78   16.72
   3  -5   2   13.45    7.46
   3   5  -2   14.56    5.30
   3  -5   2   11.67   13.84
   3   5   2   13.57   12.20
  -3   5  -2   13.03    8.47
  -3  -5   2   12.95    7.93
  -3   5  -2    6.34   56.48
   3  -5  -2   11.36   10.44
  -3  -5   2    6.28   19.68
   3   5   2   11.13    9.93
   3  -5  -2   12.07   13.21
  -3   5  -2   13.06   15.35
  -3  -5   2   81.69   67.50
   3   5   2   79.37   33.36
  -3   5  -2   14.16   18.48
   3  -5  -2   12.23   14.19
   3   5  -2   13.18    6.06
  -3   5   2   13.36   19.88
  -3  -5  -2    8.63   34.72
   3   5  -2   16.42   15.03
   3  -5   2   12.67   15.62
  -3  -5  -2    6.72   20.39
  -3  -5  -2    8.35   51.73
   0   2   9  237.91   69.01
   0  -2   9  230.98   79.97
   0   2   9  526.35  156.39
   0  -2   9  209.35   63.62
   0   2  -9  202.81   44.78
   0   2   9  242.41   72.94
   0   2  -9  239.56   84.03
   0  -2  -9  495.57  156.32
   0  -2   9  228.30   50.98
   0  -2  -9  235.73   67.28
   0   2   9  754.17  231.37
   0  -2   9  261.11   89.53
   0  -2  -9  252.47   76.54
   0  -2  -9  232.01   69.78
   0   2   9  247.89   72.19
   0   2  -9  246.15   89.32
   0  -2   9   91.50  117.98
   0   2  -9  253.44   73.05
   0   2  -9  128.19  167.45
   0  -2  -9  251.01   72.44
   4  -3   1   22.97   21.19
   4  -3   1   22.03    9.08
  -4   3   1   15.85   27.93
  -4   3   1   29.75   22.25
   4   3  -1   20.81    8.03
  -4  -3  -1   13.12    7.15
  -4  -3  -1   19.00   61.55
   4   3  -1   27.87   15.70
  -4  -3  -1   11.33    7.71
   4  -3   1   23.42    7.35
  -4   3   1   28.67   18.12
  -4   3   1   29.33   13.99
   4   3  -1   21.31    5.17
  -4   3  -1   28.32   22.29
   4  -3  -1   21.89    7.98
   4  -3  -1   26.69   17.90
   4  -3   1   18.20   30.11
   4   3  -1   23.52   17.42
   4   3   1   20.59   10.67
  -4  -3   1   12.68  107.15
  -4  -3   1   29.39   13.03
   4  -3  -1   19.26   28.94
  -4   3  -1   16.64   37.43
  -4   3  -1   26.68   19.49
   4  -3  -1   22.69    9.94
  -4   3  -1   26.32    9.21
  -4  -3  -1   28.73   23.19
   4   3   1   27.64   13.29
   0  -6   5  937.76  241.36
   0  -6  -5  526.61  453.63
   0   6  -5  914.88  256.42
   0  -6  -5  701.54  581.34
   0  -6   5  947.04  253.69
   0   6  -5  933.73  229.56
   0  -6  -5  788.89  173.54
   0   6   5 1005.09  282.24
   0   6   5  822.73  162.21
   0   6  -5  689.92  548.28
   0  -6  -5 1013.34  273.86
   0   6   5  947.38  202.95
   0  -6   5  583.10  487.08
   0  -6   5  835.72  185.75
   0   6  -5  947.41  247.73
   0   6  -5  896.39  222.19
   0   6   5  902.02  251.92
   0  -6  -5  864.55  231.23
   0  -6   5  865.31  188.55
   0  -6  -5  347.50  222.27
   2  -2   8   83.87  111.88
   2   2   8  226.60   77.00
   2  -2   8  490.36  207.15
   2   2   8  215.41   45.48
  -2  -2   8   90.96   93.70
  -2   2   8  593.98  184.53
  -2  -2  -8  223.25   65.80
  -2  -2  -8  528.20  165.45
   2  -2  -8  229.57   74.26
  -2   2  -8  229.50   84.01
   2  -2  -8  227.87   75.33
   2   2   8  587.52  207.97
   2  -2   8  225.99   71.55
   2   2   8  218.39   79.21
   2  -2  -8  363.52  114.83
   2  -2   8  213.19   75.00
  -2   2   8   68.79   48.68
  -2   2   8  207.54   49.14
  -2   2  -8  132.94  187.50
  -2  -2   8  220.40   83.27
   2  -2  -8  214.24   48.84
   2  -2  -8  231.89   95.83
   2   2   8  583.70  202.69
   2   2  -8  210.54   67.23
  -2  -2  -8  232.92   82.27
   2   2  -8  259.75   83.97
  -2  -2   8  200.22   67.25
  -2   2  -8  190.81   71.38
  -2  -2  -8  206.32   46.45
  -2  -2  -8  216.19   55.02
  -2   2   8  229.74   81.71
   2   2  -8  144.67  141.49
   2  -2   8  240.36   73.43
   2   2  -8  223.25   69.12
   4   1   4  393.45  117.47
   4   1   4  390.95   69.56
  -4  -1  -4  380.79   77.00
  -4   1   4  369.36  104.05
   4   1  -4  370.32   93.58
   4   1  -4  340.25   83.34
  -4  -1  -4  193.02  212.35
   4  -1   4  398.42  124.32
   4   1  -4  330.42   58.50
  -4   1  -4  390.10  123.20
   4  -1  -4  383.16   74.87
   4  -1   4  344.73   96.26
   4  -1  -4  399.04   86.20
  -4  -1   4  387.21  113.55
  -4   1   4  373.16  125.56
  -4  -1   4  173.62  235.46
   4   1   4  189.75  113.70
   4  -1  -4  356.68   99.45
   4   1   4  339.76   50.04
  -4  -1  -4  402.48  130.50
   4  -1   4  392.46   93.51
  -4   1  -4  302.16  224.69
  -4   1   4  126.56  109.01
  -4  -1  -4  258.61  162.21
  -4   1  -4  391.78  111.77
   3   0   7    4.92   14.24
   3   0  -7    0.40    4.12
   3   0   7    0.29    2.69
   3   0  -7    0.12    3.55
  -3   0  -7    0.20    3.99
   3   0   7    0.76    4.32
  -3   0  -7    1.38    4.90
   3   0   7    0.64    4.86
  -3   0   7   -0.09    4.69
   3   0  -7    5.94    4.19
  -3   0   7    1.45    6.18
  -3   0   7    1.36    6.49
   3   0  -7    1.11    0.65
  -3   0  -7    1.55   11.93
   3   0  -7    0.10    4.45
  -2  -6  -3    5.55   31.22
   2  -6  -3   10.02   14.25
  -2  -6  -3    6.08   31.08
  -2  -6  -3    9.28   14.69
   2   6  -3    7.55   11.70
  -2  -6  -3    2.72   29.34
   2   6  -3    7.57   34.55
  -2   6   3    9.37   14.76
   2  -6  -3    5.71   33.16
  -2  -6  -3    8.05   11.84
   2   6   3    6.62    8.05
  -2   6   3    7.77   17.68
   2   6  -3    9.24   10.21
   2   6  -3    6.36   11.63
   2  -6   3    8.37   14.50
   2  -6  -3    7.20    9.69
  -2   6  -3    7.87   13.59
  -2  -6   3    4.32   24.19
   2  -6   3    7.04    6.58
   2  -6   3    8.23   10.75
   2   6  -3    7.04    5.83
   2   6   3    7.58    9.84
   2  -6  -3    8.32   11.81
  -2   6  -3    5.88   54.00
  -2   6  -3    7.84   10.42
  -2  -6   3    8.22    7.55
   2  -6   3    7.01   10.52
  -2  -6   3   10.00    7.08
  -2  -6   3    7.04   29.13
   2   6   3    7.27   11.28
  -2   6  -3    7.11    9.40
   2  -6  -3    6.86    8.21
  -2  -6   3    7.50    4.05
   2  -6   3    7.24    7.32
   0  -7  -2    0.70   11.32
   0  -7  -2    1.00    5.97
   0  -7  -2    1.29    2.89
   0   7  -2    0.25    5.74
   0   7   2    0.47    6.28
   0   7  -2    0.04    4.55
   0  -7   2   -0.10    9.54
   0  -7   2    2.74    3.83
   0   7   2    0.37    9.30
   0   7   2    2.24    3.44
   0   7  -2    0.47    6.24
   0   7   2    2.31    2.74
   0  -7   2    5.31    4.68
   0  -7  -2    0.14    5.65
   0  -7   2    0.67    3.78
   0   7  -2    0.01    4.09
   1  -7   0   -0.30    3.88
  -1   7   0    0.47    3.52
  -1  -7   0    0.29    1.71
   1   7   0    0.25    2.61
   1  -7   0   -0.02    2.65
   1  -7   0    0.12    3.29
  -1  -7   0    0.73    3.56
  -1   7   0    0.41    3.98
  -1  -7   0    0.58   10.57
   1   7   0    0.17    3.11
   1  -7   0    0.13    3.51
   1   7   0    1.97    1.93
   1   7   0    0.05    4.22
   1  -7   0    0.19    3.69
  -1   7   0    0.50    2.02
   3   1   7  143.32   58.45
   3  -1  -7  138.51   52.13
   3  -1  -7  233.23   70.06
   3   1  -7  168.14   63.11
  -3   1  -7   97.73  133.98
   3  -1  -7  140.85   30.59
   3  -1   7  150.22   44.74
  -3  -1  -7  145.25   61.00
   3   1  -7  148.08   42.71
  -3  -1  -7  127.44   89.71
   3  -1   7  138.38   54.33
   3   1   7   62.23   78.37
  -3  -1  -7  142.36   45.21
  -3   1   7   98.55   54.97
  -3   1   7  140.84   56.72
  -3  -1   7   97.17   90.93
   3  -1   7   57.54  137.49
   3   1   7  147.34   35.14
   3  -1  -7  146.01   53.31
   3   1  -7  143.46   48.46
   3  -1   7   57.31   76.26
   3  -1  -7  163.39   69.03
  -3  -1   7  139.36   56.12
  -3   1  -7  141.15   57.39
  -3   1  -7  134.31   54.05
  -3  -1   7   82.11   71.09
   3   1   7  394.46  166.07
   3   1   7  148.12   53.28
   3   1  -7  122.58   85.29
   3  -1   7  157.65   58.11
   3  -1  -7  134.72   27.15
   4  -3   2   70.70   60.30
   4   3  -2  142.76   27.78
  -4  -3  -2   71.33   34.00
   4  -3   2  162.14   53.63
   4  -3   2  154.98   39.35
   4   3  -2  163.98   56.16
  -4  -3  -2   75.65  163.95
  -4  -3  -2  234.24   90.67
   4  -3   2  154.48   25.87
  -4  -3  -2  189.49   64.66
   4  -3  -2  149.31   41.76
  -4   3  -2  125.83  128.77
   4   3   2  183.60   46.43
  -4   3   2  189.73   70.20
   4  -3  -2  165.91   27.54
   4  -3  -2  201.16   61.65
  -4  -3   2   85.63  194.99
   4   3   2  112.94  112.67
   4   3   2  145.95   42.91
  -4   3  -2  188.81   71.08
   4  -3  -2  145.92   23.21
  -4   3  -2  184.35   66.55
   4  -3  -2  173.17   62.68
  -4  -3   2  178.55   56.01
  -4  -3   2  173.16   40.17
  -4   3  -2  170.41   30.90
   4  -3  -2   94.82   74.07
  -4   3   2  180.08   55.42
   4  -3   2  182.76   71.77
   4   3  -2  154.02   34.66
  -1  -7   1  292.97   92.53
   1   7   1  274.44   80.27
   1  -7  -1  279.02  107.53
   1  -7   1  573.84  169.06
  -1  -7   1  283.20   74.30
   1   7  -1  295.44  103.55
   1   7   1  293.72  105.06
  -1   7   1  275.47   76.03
   1  -7   1  288.27   94.68
   1  -7   1  273.80   80.88
  -1   7   1  299.23  110.45
  -1   7   1  304.46   96.96
   1   7  -1  283.90   85.63
   1   7  -1  280.97  100.53
   1  -7  -1  299.61  104.76
  -1   7  -1  272.77   80.65
  -1  -7  -1  300.84  105.38
  -1   7  -1  292.52  103.79
   1   7   1  292.94   92.37
   1  -7  -1  304.87  101.38
   1   7   1  282.31   63.19
   1  -7   1  288.62  111.19
   1   7  -1  290.72   72.18
  -1   7  -1  287.17   96.32
  -1  -7  -1  276.89   64.78
   1  -7   1  289.52   89.51
  -1  -7   1  195.54  151.60
   1  -7  -1  266.53   81.35
  -1  -7  -1  104.81  190.47
   1  -7   1  293.62   91.78
  -1  -7  -1  300.03  104.20
   1  -7  -1  190.88  157.62
   3  -3  -6  365.52  223.98
   3   3  -6 1032.50  274.85
   3   3  -6  797.26  175.90
   3  -3   6  832.64  202.17
   3   3  -6  879.29  214.50
   3   3   6  824.70  210.09
   3  -3  -6  896.53  190.67
  -3  -3  -6  706.54   71.52
  -3  -3   6  850.70  222.70
   3  -3  -6  838.00  216.03
  -3   3  -6  867.72  252.54
  -3   3  -6  735.92  549.89
  -3  -3  -6  678.88   63.81
   3   3   6 2272.77  714.60
  -3  -3  -6  611.37  383.32
  -3  -3   6  593.68  375.27
  -3   3  -6  814.08  214.67
   3   3   6  890.40  163.67
  -3   3   6  876.31  226.70
  -3  -3  -6  345.59  215.34
  -3   3   6  974.46  266.89
   3  -3   6  914.18  224.08
   3  -3   6  907.15  241.98
   3  -3  -6  919.79  249.06
   3   3   6 2597.50  550.18
  -3  -3  -6  957.12  271.93
   0   4  -8  208.58   77.71
   0  -4  -8  187.57   54.41
   0  -4  -8  230.58  146.26
   0   4  -8  207.61   58.56
   0  -4  -8  199.67   65.29
   0   4   8  214.64   56.99
   0  -4   8  211.16   47.76
   0   4  -8  188.87   42.23
   0  -4   8  220.97   77.75
   0  -4   8  299.46   87.71
   0   4   8  528.55  140.44
   0   4   8  207.80   70.77
   0   4  -8  219.36   60.89
   0  -4  -8  218.71   63.79
   0  -4  -8  672.19  252.06
   0   4   8  226.40   77.69
   0  -4  -8  225.07   77.58
   0   4  -8  224.47   86.16
  -1  -2   9  288.91   83.64
  -1   2  -9  341.95   69.95
   1  -2  -9  346.05  103.33
  -1   2  -9  333.45  111.08
  -1   2   9  336.04  105.02
   1   2   9  336.78   97.59
   1  -2  -9  333.93  102.82
   1  -2   9  330.00   84.68
  -1  -2   9  317.42  107.47
   1   2   9  957.44  301.00
  -1   2  -9  195.14  239.46
   1  -2  -9  646.46  182.07
   1   2   9  894.72  264.24
  -1  -2  -9  301.79   77.58
  -1  -2  -9  314.97   89.23
   1   2  -9  369.39  103.76
  -1  -2  -9  809.66  281.20
  -1   2   9  343.03  121.65
  -1   2   9 1074.19  299.17
   1  -2   9  336.91  108.75
   1  -2   9  357.02  111.10
  -1  -2  -9  354.62  107.56
  -1  -2  -9  343.20   94.93
  -1  -2   9  307.31   42.86
   1   2  -9  369.00  121.61
   1  -2   9  310.64   65.34
  -1   2   9  174.72  107.64
   1  -2   9  129.78  149.91
   1   2  -9  330.24  103.08
  -1  -2   9  136.41  141.88
  -1   2   9  346.57   94.57
   1   2  -9  336.14  106.48
   1   2   9  352.69  104.58
   1  -2  -9  347.12  101.09
  -1   2  -9  286.45   81.09
   1   2   9  339.28   83.02
  -1   2  -9  365.55  127.54
   1   2  -9  201.53  213.19
   1  -2  -9  353.52   86.13
  -1  -6   5  847.28  228.18
   1   6  -5  852.43  210.89
   1   6  -5  812.84  222.79
  -1   6   5  822.69  204.87
   1  -6   5  818.43  226.50
  -1  -6  -5  536.25  460.39
   1  -6   5  492.21  423.04
  -1   6   5  743.95   87.92
   1   6  -5  626.74  476.83
  -1   6  -5  835.15  244.99
   1   6   5  781.10  218.24
  -1   6  -5  866.21  248.13
   1  -6   5  818.01  200.79
  -1   6  -5  823.33  212.52
  -1   6   5  811.29   94.36
   1  -6   5  844.67  222.92
   1   6   5  495.06  233.73
   1  -6  -5  485.58  434.51
  -1  -6   5  497.86  416.51
  -1  -6   5  757.20  162.78
  -1  -6   5  851.24  250.70
   1  -6  -5  868.42  235.68
  -1   6   5  910.39  270.67
  -1  -6  -5  721.11  131.41
  -1   6  -5  804.32  193.11
  -1   6  -5  647.60  567.68
   1  -6  -5  679.81  174.02
   1  -6  -5  673.10  584.82
   1  -6   5  766.29  196.21
  -1  -6   5  761.18  148.64
  -1  -6  -5  355.36  314.95
  -1   6   5  863.34  257.87
  -1  -6  -5  800.63  221.38
  -1  -6  -5  864.30  256.27
   1   6  -5  833.54  232.53
  -1  -6  -5  306.73  268.67
   1   6  -5  832.90  220.57
   1   6   5  870.91  239.10
   0   5  -7   -0.00    4.19
   0   5   7    0.08    4.13
   0   5   7    0.68    2.80
   0  -5  -7   -0.12    9.01
   0   5  -7    0.17    2.48
   0  -5   7    3.75    3.48
   0  -5  -7    1.83   11.67
   0  -5  -7    0.18    2.64
   0   5  -7    0.35    2.65
   0  -5   7    1.21    1.60
   0   5   7    0.30    1.91
   0  -5  -7    1.69    4.06
   0  -5   7    0.09    4.32
   0   5  -7    0.15    4.24
   0  -5   7    0.32    1.50
   3   5   3   84.83   32.82
   3   5  -3  101.20   44.29
   3  -5  -3   95.30   40.46
   3  -5   3   93.93   43.14
   3   5   3  103.44   36.99
   3  -5   3  130.99   45.13
   3   5  -3   85.18   17.84
   3   5   3   54.24   63.71
  -3  -5   3   69.93  106.90
  -3   5  -3  100.88   52.51
   3  -5  -3   87.20   40.56
  -3  -5  -3   42.75   58.21
  -3   5   3  104.01   49.88
   3   5  -3  133.75   43.37
   3  -5   3   89.30   20.95
   3   5  -3   97.71   47.83
  -3  -5  -3   62.30   84.04
   3   5  -3   79.34   70.48
   3  -5   3   62.83  109.03
  -3   5  -3   92.93   43.12
  -3  -5  -3  102.16   53.19
  -3  -5  -3   35.09  112.02
  -3  -5   3   91.36   21.48
  -3   5  -3   82.04   23.53
   3  -5  -3   85.34   33.84
   3   5  -3   88.92   21.73
  -3   5   3  103.58   50.54
  -3  -5   3   47.88   55.07
   3  -5   3   92.42   27.87
   3  -5  -3   56.36   86.80
   3  -4  -5  190.35   64.01
  -3   4  -5  184.46   66.41
   3   4   5  206.48   55.27
   3   4   5  188.23   64.63
  -3  -4  -5  609.61  174.40
  -3  -4  -5   70.90  132.71
   3   4  -5  195.88   67.49
   3  -4   5  197.31   59.96
  -3  -4  -5  222.68   92.33
   3   4  -5  219.11   80.96
  -3   4   5  212.68   79.06
   3  -4  -5   84.01   94.24
   3  -4  -5  206.82   75.20
  -3  -4   5  191.10   67.99
   3  -4   5  239.61   82.71
   3  -4   5  210.22   73.18
   3   4   5  111.69  161.10
  -3  -4  -5  174.38  109.63
  -3  -4   5  148.40  158.10
   3  -4  -5  204.09   61.56
  -3   4  -5  205.83   84.92
   3   4  -5  178.42   46.54
  -3   4   5  225.76   86.75
   4   2  -4  205.55   48.28
  -4  -2  -4  621.46  227.54
  -4  -2  -4  253.20   87.72
  -4   2  -4  266.38  178.40
   4   2  -4  197.62   29.55
   4  -2  -4   70.46   40.68
   4   2  -4  231.94   66.89
  -4   2  -4  252.09   83.34
  -4   2   4  235.46   73.85
   4  -2   4  259.24   87.89
   4  -2   4  241.19   68.00
  -4  -2   4  103.19  185.65
  -4   2   4  248.94   94.61
  -4  -2  -4  841.60  184.26
   4   2   4  209.98   64.88
  -4  -2  -4  122.53   83.28
   4  -2   4  213.44   61.20
   4  -2  -4  222.75   35.02
   4  -2   4   82.85   70.02
  -4   2  -4  247.42   89.03
  -4  -2   4  244.21   75.89
   4  -2  -4  216.32   62.59
  -4  -2  -4  195.92   26.29
   4   2   4  213.87   27.13
   4   2   4  230.51   43.77
  -4  -2   4  219.59   34.78
   4   2   4  258.11  233.17
   4  -2  -4  252.96   62.77
   1   7  -2  745.19  222.80
  -1  -7  -2  712.19  143.20
  -1  -7  -2  418.07  388.18
   1  -7   2  762.27  217.44
   1   7  -2  745.73  174.40
  -1  -7  -2  305.04  346.49
  -1   7   2  826.69  254.60
   1   7  -2  788.77  227.51
  -1  -7  -2  791.63  236.65
  -1  -7  -2  458.36  399.89
   1  -7   2  765.73  204.99
  -1   7  -2  774.90  219.98
   1  -7  -2  816.45  231.34
  -1   7  -2  776.52  222.24
   1   7  -2  764.76  204.71
   1  -7  -2  803.61  242.74
   1  -7   2  749.57  205.01
   1  -7  -2  733.05  207.08
   1   7   2  730.21  192.43
   1   7   2  762.17  151.25
   1  -7  -2  320.43  227.90
   1  -7  -2  672.35  177.58
  -1   7   2  738.91  154.93
  -1  -7  -2  765.10  229.80
   1  -7   2  735.29  181.25
   1   7   2  752.40  210.03
  -1  -7   2  517.55  313.76
  -1  -7   2  763.33  202.28
  -1  -7   2  774.92  192.36
  -1  -7   2  693.58  171.16
  -1   7  -2  726.12  202.38
   1   7   2  781.83  231.00
   1   7  -2  688.49  542.42
  -1   7   2  827.46  223.38
   1  -7   2  747.33  205.37
   2  -4  -7  328.58  102.48
   2  -4  -7  340.93  107.15
  -2  -4  -7  410.24  142.15
  -2  -4  -7  620.67  218.26
  -2  -4   7  326.67  100.51
   2   4   7  372.73  104.61
  -2   4  -7  325.53  106.97
  -2   4  -7  327.56   62.65
   2  -4  -7  357.05   96.16
   2   4   7  793.43  291.38
   2  -4  -7  152.79  151.87
  -2   4  -7  364.87  131.56
  -2   4  -7  360.96  149.44
  -2  -4  -7  311.32   68.58
   2  -4   7  377.12  112.63
  -2   4   7  347.22  107.41
   2   4  -7  341.46   95.08
   2  -4   7  341.92  104.41
  -2  -4  -7  363.05  104.67
   2   4  -7  387.99  121.05
  -2  -4  -7 1254.18  343.46
  -2  -4  -7  307.16   52.65
   2   4  -7  298.98  263.48
   2  -4   7  353.75  111.64
  -2   4   7  424.46  144.70
   2   4   7  343.38  105.74
   2   4  -7  365.81  116.10
  -2  -4   7  356.80  131.76
  -2   4  -7  381.65   56.50
   0  -7  -3    0.63   11.61
   0   7  -3    1.51   16.89
   0   7   3    0.16    4.09
   0   7  -3    0.29    3.66
   0  -7   3    1.03    3.25
   0  -7   3    3.19    2.78
   0   7   3    0.44    1.68
   0  -7  -3    0.35    4.19
   0  -7  -3    1.16   12.06
   0  -7   3    0.26    2.74
   0   7   3   -0.05    4.39
   0   7  -3    0.17    3.09
   0  -7  -3    0.39    1.78
   0  -7   3    0.14   13.44
   0  -7   3    0.68    2.32
   0  -7  -3   -0.16    5.77
   0   7   3    0.26    2.24
   0   7  -3    0.33    2.89
   0   7  -3    0.03    3.08
  -4   3  -3  358.17  263.80
   4  -3   3  549.14  168.38
   4  -3  -3  467.41   50.85
  -4  -3  -3  186.04  263.27
   4  -3   3  206.06  141.74
   4  -3   3  444.12  106.95
  -4  -3  -3  349.19  179.65
  -4  -3  -3  517.86  157.96
   4   3  -3  451.90   74.34
   4  -3   3  501.60  138.42
   4   3   3  521.59  111.61
   4  -3  -3  454.69   48.93
  -4   3  -3  459.16   46.62
  -4   3  -3  530.83  180.03
  -4  -3   3  510.76  140.67
  -4   3   3  552.64  163.89
  -4  -3   3  471.57   86.30
  -4   3   3  508.83  142.03
   4   3  -3  410.71   81.24
   4  -3  -3  435.41  111.11
   4   3   3  421.24  112.88
   4  -3  -3  555.02  141.34
   4  -3  -3  194.18  113.52
   4   3   3  364.54  246.23
  -4  -3  -3  959.95  182.36
   4   3  -3  468.33  132.36
  -4   3  -3  532.48  168.56
  -4  -3   3  218.05  357.50
  -3  -2   7  107.67   76.35
   3   2   7  498.96  192.26
   3  -2  -7  293.78  100.07
  -3  -2  -7  246.70   57.13
  -3  -2   7  175.63  151.11
   3   2   7  264.84   81.26
  -3   2  -7  246.34   81.64
  -3   2  -7  208.31  239.11
   3   2   7  697.42  290.30
   3  -2  -7  249.14   35.43
   3  -2  -7  254.93   54.96
   3   2   7  230.45   37.96
   3  -2  -7  256.77   79.94
   3  -2   7  252.99   80.48
   3   2   7  276.35   90.69
  -3   2  -7  260.16   92.77
  -3  -2   7  261.97   85.84
   3  -2  -7   92.55   74.76
  -3   2   7  269.85   93.65
   3   2  -7  320.23  103.52
  -3  -2  -7  617.31  172.59
  -3  -2  -7  281.31   99.58
   3  -2   7  269.96   75.88
   3   2  -7  223.84  149.48
   3  -2   7  296.88   93.68
   3  -2   7  101.16  110.96
  -3   2   7  243.51   77.68
  -3  -2  -7  238.84   42.42
  -3   2   7   86.60   56.14
   3   2  -7  255.38   71.27
   3   2  -7  269.16   74.05
   4   0   5    0.19    3.37
   4   0  -5    0.55    0.89
  -4   0   5    0.15    7.16
   4   0   5    0.02    2.98
  -4   0  -5    0.35    2.10
  -4   0  -5    0.05    3.61
   4   0   5    0.17    1.61
  -4   0   5    0.35    2.44
  -4   0   5    0.46    3.23
   1  -4   8  789.88  230.20
   1   4   8 2133.13  586.44
  -1  -4   8  800.68  241.61
  -1   4  -8  725.09  172.50
   1  -4  -8  733.12  201.73
   1  -4  -8  794.99  208.75
  -1   4  -8  822.31  261.29
   1  -4   8  787.63  200.42
   1   4  -8  811.92  242.44
   1   4  -8  744.61  209.55
  -1  -4  -8 1638.51  484.59
   1   4  -8  901.49  242.58
  -1  -4  -8  787.68  180.56
  -1   4   8 2064.22  369.42
  -1  -4  -8 2580.49  708.42
   1   4  -8  604.85  502.02
   1  -4  -8  747.11  212.21
   1  -4  -8  788.49  210.94
   1  -4   8  760.59  220.25
  -1   4   8  781.71  235.26
  -1  -4  -8  699.47  189.23
  -1  -4  -8  654.21  147.45
  -1   4  -8  819.08  246.50
   1   4   8  825.78  212.40
  -1   4   8  776.70  159.49
  -1   4   8  904.85  270.78
  -1  -4  -8  898.11  267.40
  -1  -4   8  726.72  194.50
   1   4   8  812.39  211.52
   1  -4  -8  444.00  308.71
  -1   4  -8  738.53  157.34
  -1   4  -8  843.20  176.54
   0  -3   9    0.31    7.54
   0   3   9    2.69    2.88
   0   3   9    1.07    5.50
   0   3   9    1.34   10.02
   0   3  -9    0.52    2.38
   0  -3   9    0.19    2.30
   0  -3   9    0.52    1.38
   0  -3  -9    1.61    4.50
   0   3  -9    0.98    4.83
   0   3  -9    4.47    4.46
   0   3   9    0.21    3.09
   0   3  -9    0.47   11.67
   0  -3  -9    0.13    2.52
   0  -3  -9    0.53    8.26
   0   3  -9    0.74    2.04
   0  -3  -9    0.36    2.92
   0  -3  -9    1.70    3.67
   0  -3   9    0.62    4.12
   0   3   9    0.02    3.61
  -2  -6   4  121.47   44.00
  -2  -6   4   65.99   93.06
   2  -6  -4   68.83  120.10
  -2   6  -4  108.93   28.59
  -2   6  -4  121.76   43.24
  -2   6  -4  111.16   49.49
   2   6   4  106.94   44.37
   2  -6   4  115.19   48.33
   2   6  -4  118.43   50.15
   2  -6  -4  102.68   43.83
  -2  -6   4  110.30   28.73
  -2   6  -4  120.51   57.85
   2  -6  -4   93.96   37.04
   2   6   4  118.71   47.89
  -2  -6   4   84.16  108.75
   2  -6  -4  120.79   50.97
  -2  -6   4   94.23   19.98
   2  -6   4  113.71   45.39
  -2  -6  -4   43.95  103.80
   2   6  -4  117.50   34.49
  -2   6   4  129.13   62.10
   2   6  -4  108.08  137.85
  -2  -6  -4   79.69  119.41
  -2  -6  -4   50.73   84.39
   2  -6   4  116.21   46.89
  -2   6   4  121.75   51.68
   2   6  -4  112.76   45.96
   2  -6   4  111.68   38.48
  -2  -6  -4  128.95   53.04
   2  -6   4   77.90  139.69
   2   6  -4  116.07   50.85
  -1   5  -7  502.21  160.00
  -1  -5   7  494.07  149.16
  -1  -5   7  486.92  158.48
   1   5  -7  500.16  140.57
  -1  -5   7  455.62   63.17
   1   5  -7  361.39  332.24
  -1   5  -7  486.30  162.23
   1   5  -7  470.63  130.56
  -1   5  -7  463.62  107.25
   1  -5   7  485.21  126.22
   1  -5   7  470.77  140.31
   1  -5  -7  434.51  131.13
   1   5   7  462.83  138.05
  -1   5   7  479.54  130.41
   1   5   7  516.09  144.65
  -1  -5  -7  234.23  231.70
  -1   5   7  479.17   73.06
  -1   5   7  531.55  169.55
  -1   5   7  435.11   58.38
  -1  -5  -7  443.74  125.50
  -1  -5  -7  402.87  290.49
   1   5   7  409.50  213.08
  -1  -5  -7  398.84   84.90
   1  -5  -7  511.60  144.93
   1  -5  -7  203.25  215.61
   1  -5  -7  429.20  119.14
  -1  -5  -7  458.51   98.89
   1   5   7  503.32  131.29
  -1  -5   7  448.12   69.47
  -1   5  -7  440.89  110.18
  -1   5   7  493.51  154.19
  -1   5  -7  448.84  100.68
   1  -5   7  482.57  143.89
   1   5  -7  484.71  170.21
   1   5  -7  469.62  132.55
  -2  -3  -8   35.27   15.51
   2   3   8   35.78   13.30
   2   3   8   95.16   73.41
   2   3  -8   34.77   20.21
   2   3  -8   37.47   30.78
  -2  -3  -8   36.89   15.90
   2  -3   8   36.55   22.97
   2  -3  -8   15.80   36.65
   2  -3  -8   35.87   19.92
   2   3   8   38.23   21.39
  -2  -3   8   21.48   33.51
  -2  -3   8   31.25   18.90
  -2   3  -8   38.66   27.65
   2  -3  -8   37.77   23.04
  -2   3  -8   31.34   17.74
  -2  -3   8   36.72   27.30
   2   3   8  113.77   61.94
   2  -3  -8   38.25   22.87
   2   3   8   38.02   23.61
   2  -3   8   40.27   19.95
  -2   3   8   44.90   30.26
   2   3  -8   38.68   67.35
  -2  -3  -8   86.40   45.52
  -2  -3  -8   41.41   29.46
  -2   3   8   38.25   22.87
  -2  -3  -8   29.55    8.84
  -2   3   8   34.17    7.15
   2  -3   8   36.85   24.01
   2  -3   8   16.47   63.71
   2  -5  -6    1.53   12.36
  -2  -5  -6    2.25    5.00
  -2   5   6    1.29    5.31
  -2  -5  -6    2.54    8.06
  -2   5   6    2.33   11.87
   2   5  -6    3.69    5.99
  -2  -5  -6    1.18   13.34
   2   5  -6    0.78   16.23
   2  -5  -6    1.64    5.53
   2  -5   6    2.39    5.06
  -2  -5  -6    1.18   13.80
   2  -5   6    1.62    4.75
  -2   5  -6    1.70    1.76
  -2   5  -6    2.11    6.73
   2  -5  -6    2.36    5.35
  -2   5  -6    1.85    7.57
   2   5   6    2.26    4.97
   2   5  -6    1.76    5.61
  -2   5  -6    1.42    5.00
   2   5   6    3.49    5.24
  -2  -5   6    1.26    7.64
   2  -5  -6    1.17    4.98
   2   5  -6    1.42    4.22
   2  -5   6    2.51    5.69
  -2   5   6    2.19   10.84
   2   5  -6    1.53    5.88
  -2  -5  -6    1.38   12.87
  -4  -1   5  204.56   70.21
   4  -1   5   70.78   64.95
  -4   1   5  195.89   82.46
   4  -1   5  210.47   54.75
  -4  -1  -5  135.62  115.55
   4   1  -5  200.78   52.71
  -4  -1  -5  196.81   49.09
  -4   1   5  192.32   61.88
   4   1  -5  166.12   25.31
   4  -1   5  185.26   60.17
  -4  -1  -5  208.87   80.13
   4   1  -5  151.69   24.73
   4  -1   5  212.03   74.43
   4  -1  -5  192.44   63.01
   4   1   5  199.49   38.64
  -4   1  -5  161.98  154.06
   4   1   5  203.67   70.45
  -4  -1   5   81.79  143.64
   4   1   5  574.59  270.57
   4  -1  -5  174.57   38.86
   4   1   5  100.42   82.95
   4   1  -5  178.26   49.98
  -4   1   5   65.06   67.16
  -4   1  -5  200.60   74.70
  -4   1  -5  206.15   66.28
   4  -1  -5  189.22   40.08
   4   1   5  172.00   71.13
   2   0   9    1.16   10.01
  -2   0  -9    0.01    3.49
   2   0  -9    0.36    2.41
   2   0  -9    0.26    4.30
   2   0   9    0.41    2.96
   2   0  -9    0.23    3.53
   2   0   9    0.44    2.85
  -2   0   9    4.55    8.41
   2   0   9    0.14    0.77
   2   0   9    3.58    4.38
  -2   0  -9    0.11    3.95
   2   0  -9    0.85    0.65
   2   0  -9    0.96    5.40
   2   0  -9    0.11    3.95
  -2   0   9    0.59    3.52
  -2   0  -9    1.39    1.04
  -2   0   9    0.19    5.12
   0   6  -6   50.59   21.68
   0  -6  -6   48.95   25.28
   0  -6   6   51.85   26.35
   0  -6  -6   21.00   62.13
   0   6  -6   52.89   30.79
   0   6  -6   55.03   30.67
   0   6   6   45.10   12.94
   0  -6  -6   36.85  102.53
   0  -6  -6   41.88   15.05
   0  -6   6   52.12   18.07
   0  -6   6   53.07   31.85
   0   6  -6   34.91  100.24
   0   6   6   55.82   46.39
   0   6   6   52.75   19.81
   0  -6   6   47.40   16.86
   0   6  -6   50.88   23.63
   0   6   6   51.29   29.52
   4   4   0    1.95    5.57
   4  -4   0    1.92    2.72
  -4   4   0    3.50    6.12
  -4  -4   0    1.07    2.45
   4  -4   0    1.95   12.08
   4   4   0    4.34    4.77
  -4   4   0    0.06   11.91
   4   4   0    3.01    2.97
  -4  -4   0    3.19    4.39
   4  -4   0    2.46    5.52
   4  -4   0    2.84    2.60
  -4   4   0    2.88    7.61
  -4  -4   0    0.63    1.52
   1  -7  -3   24.39   21.52
   1  -7  -3    7.39   16.72
  -1   7  -3   22.43   17.90
  -1  -7  -3   14.49   88.96
  -1  -7  -3   21.78    9.54
  -1  -7   3   21.48   10.18
  -1   7   3   21.87    7.27
  -1   7  -3   21.64   16.22
  -1   7   3   25.15   24.06
   1   7   3   22.35    8.28
  -1  -7   3   22.31   13.89
  -1  -7  -3   39.57   20.48
   1   7   3   25.14   19.20
   1  -7  -3   16.41   69.30
  -1   7  -3   19.07   98.35
   1  -7  -3   20.90   18.39
   1  -7  -3   17.49   60.24
   1  -7   3   16.42   69.23
   1  -7   3   26.26   16.70
  -1   7   3   23.90   25.67
   1   7   3   20.55   11.59
  -1  -7  -3   13.39   56.27
   1   7  -3   24.60   20.50
   1   7  -3   21.86   13.26
   1   7  -3   22.40   18.44
  -1  -7   3   21.95   13.52
   1   7  -3   20.98   74.92
  -1  -7  -3    9.84   41.65
   1  -7   3   23.00   14.61
   1  -7   3   32.42   16.37
   1  -7   3   22.33   16.51
   1   7  -3   21.77   16.88
  -1   7  -3   20.03   12.77
   1  -7  -3   20.37   12.06
  -1  -7   3   16.23   40.98
  -1  -7   3   13.57   61.60
  -1   7  -3   23.18   20.14
   1   7   3   24.89   22.07
   1  -7  -3   24.73   21.67
   3   5  -4   57.63   31.23
   3  -5  -4   55.92   27.51
  -3  -5  -4   25.38   46.25
  -3  -5   4   16.75   24.96
  -3  -5  -4   59.27   39.19
   3   5  -4   56.91   33.19
   3  -5   4   55.86   30.71
  -3   5  -4   47.59   12.79
   3  -5   4   52.22   20.47
  -3  -5  -4   21.20   79.21
   3   5  -4   50.37   62.49
  -3   5   4   58.19   34.56
   3  -5   4   56.65   29.29
   3   5   4   56.72   23.79
   3  -5  -4   48.50   25.05
   3  -5  -4   30.21   67.39
  -3   5  -4   52.53   29.51
  -3  -5   4   46.25    6.95
   3   5   4   48.72   24.28
   3   5   4   32.43   45.45
  -3   5  -4   40.57   94.13
   3  -5  -4   51.92   27.98
  -3   5  -4   58.50   37.85
  -3   5  -4   49.87   10.63
  -3  -5   4   50.45    8.32
  -3  -5   4   39.72   75.82
   3   5  -4   51.58   16.14
  -3   5   4   62.10   36.61
  -3  -5  -4   36.54   61.49
   3  -5   4   40.68   80.39
   3   5  -4   50.68   27.97
   0   0  10   95.08  110.50
   0   0 -10  118.20   33.03
   0   0  10  134.67   51.16
   0   0  10  126.58   35.91
   0   0  10  115.74   42.69
   0   0 -10  136.92   53.31
   0   0  10   80.52   87.51
   0   0 -10  139.11   95.72
   0   0 -10  138.10   41.14
   0   0 -10  143.26   53.21
  -4  -4   1  390.35   95.38
  -4  -4  -1  183.31  281.00
   4   4  -1  332.85   44.88
   4  -4  -1  327.99   77.75
   4  -4   1  331.40  103.05
   4  -4   1  342.51   69.16
  -4   4  -1  419.45  139.25
   4   4  -1  414.36  111.45
   4  -4  -1  360.93   52.79
   4  -4  -1  354.85  111.56
  -4  -4  -1  239.49  111.54
  -4   4   1  386.67  113.51
  -4   4   1  436.96  140.53
   4  -4  -1  435.05  124.29
  -4   4  -1  400.45  119.88
   4   4  -1  342.00  107.27
   4   4   1  329.66   80.28
  -4  -4  -1  119.13   54.16
   4   4  -1  329.63   70.77
  -4   4   1  226.77  176.75
  -4  -4  -1  389.47  112.78
   4  -4   1  324.20   65.45
   4   4   1  405.67  102.08
  -4   4  -1  274.64  229.92
  -4   4  -1  397.72   87.81
   4  -4   1  267.04  193.92
  -4  -4   1  188.43  338.41
   4   4   1  237.89  195.57
  -2  -1  -9  205.29   55.04
   2   1  -9  161.50  142.79
  -2  -1  -9  206.16   72.44
   2  -1   9  513.51  212.21
   2  -1   9  210.98   67.60
  -2   1   9  678.80  197.00
   2   1  -9  227.44   87.75
   2  -1   9   84.12  158.35
   2  -1   9  209.79   66.21
   2  -1  -9  204.31   51.40
   2  -1   9  209.48   77.91
  -2   1   9  186.32   64.70
  -2   1   9  189.72   70.77
   2   1   9  104.66  126.52
   2  -1  -9  436.60  124.83
  -2  -1  -9  187.73   44.88
  -2   1  -9  216.24   82.77
   2  -1  -9  205.87   71.43
  -2   1  -9  178.05   60.93
  -2  -1   9  187.31   68.42
   2   1   9  189.79   38.19
  -2  -1  -9  290.79  150.01
   2   1  -9  199.26   62.98
   2   1  -9  232.79   88.18
  -2  -1   9   89.33  101.41
   2   1   9  575.70  213.55
  -2  -1   9  201.16   80.00
  -2   1  -9  123.64  180.00
   2  -1  -9  206.07   73.69
   2  -1  -9  215.06   80.59
   2   1   9  210.05   68.73
   2  -1  -9  198.65   41.68
   2   1   9  210.48   76.79
  -2  -1  -9  201.91   73.20
   2   1  -9  202.28   72.08
  -1   3  -9  192.07   53.48
   1   3  -9  235.29   89.97
   1  -3  -9  219.16   63.88
  -1  -3   9  187.43   61.02
   1   3   9  222.77   65.01
  -1   3   9  310.17   99.59
  -1   3  -9  230.65   93.55
  -1  -3   9  207.97   82.63
  -1   3   9  215.46   72.85
  -1   3   9  656.12  214.65
   1  -3  -9  220.48   73.12
   1  -3  -9  215.51   83.58
   1   3  -9  217.15   81.85
   1  -3   9   78.78  120.16
  -1   3   9  244.92   87.41
  -1   3   9  216.67   59.98
   1  -3   9  221.98   81.09
   1  -3   9  222.74   62.21
  -1  -3  -9  469.30  160.92
  -1  -3  -9  194.20   58.38
  -1  -3  -9  191.07   51.55
   1  -3   9  214.99   78.06
   1   3  -9  249.53   78.86
  -1  -3  -9  237.90   84.64
   1   3  -9  152.25  206.13
   1   3   9  543.85  174.41
   1  -3  -9  392.39  141.17
  -1   3  -9  130.22  275.16
  -1   3  -9  145.66  313.27
  -1  -3  -9  214.01   63.31
   1   3  -9  210.10   75.48
   1   3   9  217.01   72.02
   1   3   9  617.49  206.19
   1   3   9  218.20   71.47
  -1   3  -9  210.30   50.88
  -1   3  -9  225.04   87.02
  -1  -3   9   79.66  102.33
  -1   3  -9  200.24   45.96
   1  -3  -9  215.07   71.36
   0  -1  10    1.82    1.87
   0   1 -10    0.58    3.63
   0   1  10    0.34    2.13
   0   1  10    0.07    2.61
   0  -1 -10    0.35    1.99
   0  -1  10    0.72    3.19
   0   1 -10    0.34    1.39
   0   1  10    0.39    2.81
   0   1 -10    0.11    1.86
   0  -1  10    0.11    1.37
   0   1 -10    0.72    9.28
   0  -1 -10   -0.04    3.11
   0   1  10    0.73    5.65
   0   1 -10    0.51    3.26
   0  -1 -10    1.74    6.63
   0  -1 -10    0.58    2.75
   0  -7   4    3.60    3.94
   0   7   4    4.64    5.16
   0  -7  -4    0.88    4.81
   0  -7  -4    1.06   15.72
   0   7  -4    0.54    3.69
   0  -7   4    0.21    2.24
   0  -7  -4   -1.40   13.15
   0  -7  -4    0.52    1.82
   0   7   4    0.38    2.41
   0  -7  -4   -0.16    5.80
   0   7  -4    1.36    3.78
   0   7  -4    1.71    3.00
   0  -7  -4    1.19    3.73
   0   7   4    0.34    1.65
   0   7   4    0.67    4.42
   0  -7   4    0.21    2.71
   0   7  -4    0.67   19.25
   0  -7   4    0.41    3.03
   0   7  -4    0.11    3.85
  -4   3   4   21.30   17.91
   4   3  -4   19.13   15.89
   4  -3   4    7.97   24.44
  -4   3  -4   22.74   22.31
  -4  -3   4   15.64   67.77
   4  -3   4   19.88   12.95
  -4  -3  -4   47.19   18.97
  -4  -3  -4   16.28   51.54
   4   3  -4   17.67    8.44
  -4  -3   4   21.67   18.08
  -4   3  -4   22.11   21.87
  -4   3   4   22.49   20.75
   4   3   4   18.29   14.52
  -4  -3  -4   22.16   21.00
   4  -3  -4    6.43   16.82
  -4   3  -4   12.03   47.79
   4   3   4   29.56   10.03
   4  -3  -4   21.00   13.00
   4  -3   4   30.11   21.63
   4  -3  -4   18.46   13.92
   4  -3   4   21.57   15.76
  -4   2   5  152.59   56.53
  -4  -2  -5   54.29   50.04
   4   2  -5  133.43   36.22
  -4  -2  -5   98.04  125.87
   4  -2  -5  143.67   48.65
  -4  -2  -5  135.86   20.44
   4   2  -5  154.13   46.87
   4  -2   5  141.44   47.05
  -4  -2  -5  165.02   66.33
   4  -2   5   58.04   59.36
   4   2   5  237.72  186.88
   4   2   5  145.20   50.78
  -4   2  -5  161.33   62.21
  -4   2  -5  165.35   61.88
  -4  -2   5  156.78   55.70
   4  -2  -5  146.20   42.35
   4  -2   5  166.27   61.55
   4  -2   5  164.22   49.49
  -4   2  -5  128.01  143.36
  -4  -2   5   63.51  143.57
  -4   2   5  160.22   56.79
   4   2   5  137.14   24.08
   4   2   5  104.67   71.30
   4  -2  -5   45.90   31.89
   3   6   0    0.26    3.66
  -3  -6   0    0.67    4.44
   3  -6   0    0.71    5.38
  -3  -6   0    2.20    9.13
  -3   6   0    0.04    5.58
  -3  -6   0    0.27    9.20
  -3   6   0    0.78    4.37
   3  -6   0    0.66    2.66
   3  -6   0    1.31    4.70
   3  -6   0    1.54    3.84
   3   6   0    0.12    2.55
   3  -6   0    1.00    1.10
  -3   6   0   24.04   14.32
   3   6   0    0.04    4.42
  -3  -6   0   -2.85   19.45
   4   4  -2  120.45   44.98
  -4  -4  -2   46.23  141.98
  -4  -4  -2   35.46   28.95
   4  -4   2   99.72   20.08
  -4  -4  -2  127.13   49.47
  -4   4   2  112.08   52.73
   4   4  -2  100.12   21.48
  -4  -4   2  114.62   30.38
   4  -4  -2  110.16   48.01
   4  -4   2   70.55   89.34
  -4   4  -2  122.76   57.71
  -4  -4   2  245.82  206.65
   4  -4  -2   57.03   71.49
   4   4   2  118.66   37.37
   4  -4  -2   97.41   37.53
   4   4   2   94.63   32.62
   4   4  -2  100.02   23.41
   4  -4  -2  127.23   47.70
  -4   4  -2  115.46   25.85
  -4   4   2  127.44   56.81
  -4  -4  -2   64.69   49.76
   4   4  -2  102.05   44.09
   4  -4   2  100.92   27.77
   4  -4   2  122.13   55.98
   4  -4   2  103.10   43.22
  -4   4  -2  115.80   51.08
  -4   4  -2   76.87  116.32
   1  -6  -6  219.25   78.54
   1   6  -6  164.16  200.16
   1  -6  -6  169.91   53.07
  -1   6  -6  156.31  226.66
  -1  -6   6  193.85   44.23
  -1  -6   6  199.75   41.73
   1   6   6  120.74   75.05
  -1   6  -6  218.55   84.94
  -1   6  -6  205.20   54.94
  -1  -6   6  219.44   73.99
   1   6  -6  210.81   70.34
   1   6  -6  218.14   79.97
  -1  -6   6  119.75  210.13
   1   6   6  196.48   71.01
  -1   6  -6  210.00   81.12
   1  -6  -6   86.02  126.09
  -1  -6   6  212.25   86.10
  -1   6  -6  201.36   58.82
   1  -6  -6  187.72   67.49
  -1  -6  -6  199.25   67.13
   1  -6   6  205.21   61.02
  -1  -6  -6  222.32   88.17
  -1   6   6  232.63   92.77
   1  -6   6  214.21   74.36
   1  -6   6  205.51   72.39
   1   6   6  224.06   80.47
  -1  -6  -6  138.42  182.14
  -1  -6  -6   93.08  135.17
  -1  -6  -6   76.25   99.85
  -1  -6  -6  197.17   43.49
  -1   6   6  219.68   83.39
   1   6  -6  216.32   69.22
  -1   6   6  254.55   69.56
   1  -6   6  196.46   60.82
  -1  -6  -6  174.91   37.64
   1   6  -6  208.05   69.67
  -2  -7   0  324.20  352.33
   2  -7   0  458.81  137.05
   2   7   0  405.52  327.69
   2  -7   0  303.24  121.36
   2  -7   0  458.95  126.48
  -2   7   0  596.99  194.79
  -2   7   0  516.02  163.81
  -2   7   0  486.14  120.67
   2   7   0  476.08  138.51
   2   7   0  503.38  157.13
   2   7   0  463.36  122.27
   2   7   0  458.46   77.33
   2  -7   0  512.84  172.20
  -2  -7   0  435.75   89.53
  -2  -7   0  319.02  360.82
   2   7   0  507.74  168.29
   2  -7   0  493.75  149.83
  -2  -7   0  476.80  161.13
   3   0   8 1916.95  425.17
   3   0  -8 1833.24  478.18
  -3   0  -8 1199.21  818.28
   3   0   8 5154.26 1562.65
   3   0   8 1422.27  682.60
   3   0  -8 3785.87  786.40
  -3   0   8 2059.20  804.92
   3   0  -8 1848.07  516.92
   3   0   8 1926.94  517.56
   3   0  -8 1826.25  395.30
  -3   0   8 1231.05  602.90
  -3   0  -8 1789.49  511.49
  -3   0  -8 1762.13  538.52
  -3   0   8 1768.79  495.72
  -3   4   6  322.62  116.06
   3  -4  -6  115.51  117.01
   3  -4  -6  260.10   84.65
   3   4   6  269.38   85.06
   3   4   6  219.71  204.85
   3   4   6  284.05   68.73
   3  -4   6  300.12  100.50
  -3   4  -6  281.98  107.43
  -3  -4   6  267.85   89.36
   3   4  -6  243.77   64.33
  -3   4  -6  249.09   96.77
   3   4  -6  314.41  106.26
   3  -4   6  287.56   91.96
  -3   4   6  286.53   96.32
   3   4  -6  269.46   88.09
  -3  -4  -6   98.34  155.96
  -3  -4  -6  429.66  159.28
  -3  -4  -6  930.68  243.73
  -3  -4  -6  317.77  118.71
   3  -4  -6  287.66   97.49
   3  -4  -6  284.67   78.72
  -3  -4   6   88.41   72.96
   3  -4   6  268.72   80.12
   3   4  -6  228.95  158.84
  -3  -4   6  195.69  187.28
   3  -4   6  111.79  130.92
  -3  -6   1  296.67   92.88
  -3   6  -1  303.49  117.62
  -3   6   1  301.41  114.91
   3   6  -1  291.22   96.39
   3  -6   1  270.56   57.35
   3  -6   1  254.26   88.99
   3   6   1  240.93   82.86
  -3  -6  -1  163.78  158.22
   3  -6   1  290.30  101.30
   3   6  -1  251.08   63.14
   3  -6  -1  284.54   96.72
   3   6   1  255.33   72.80
   3  -6   1  254.40   65.36
  -3  -6   1  111.73  266.89
   3   6  -1  254.20   86.38
  -3   6   1  177.15  214.10
  -3  -6  -1  162.77  155.40
  -3  -6  -1  306.37  114.03
   3  -6  -1  300.97  118.01
  -3   6   1  301.38  107.20
  -3   6  -1  288.52   94.91
  -3   6  -1  225.92  266.70
  -3  -6   1  185.52  165.40
  -3  -6  -1  130.78  275.34
   3  -6  -1  252.76   72.29
   3  -6   1  285.26  111.51
   3  -6  -1  237.97   81.64
   3   6   1  288.28   93.30
  -3  -6   1  914.40  240.17
  -1   0 -10   68.21   35.25
   1   0  10   58.20   18.40
   1   0  10  137.93   83.69
   1   0 -10   67.56   28.37
   1   0  10   65.81   25.70
   1   0  10  347.79   94.78
  -1   0  10   57.66   35.95
   1   0 -10   67.63   29.23
   1   0 -10   54.89   14.33
  -1   0 -10   61.52   25.64
  -1   0 -10  290.74   92.40
  -1   0 -10   69.80   29.27
  -1   0  10   58.61   19.19
  -1   0  10   54.54   66.21
   1   0 -10   69.93   36.73
  -1   0  10   66.49   32.80
   1   0  10   70.24   48.41
  -1   0 -10   64.39   19.19
   1   0 -10   67.68   34.88
   1   0 -10  121.51   69.09
  -2  -7  -1   33.77  120.36
  -2   7  -1   75.06   29.63
   2   7  -1   79.32   43.97
  -2   7   1   84.55   20.32
   2  -7   1   78.03   30.74
   2   7  -1   77.80   34.89
  -2  -7   1   71.04   22.61
   2   7   1   74.66   31.95
   2   7  -1   72.72   18.18
  -2   7   1   89.21   45.50
   2  -7  -1   81.53   42.14
   2  -7   1   81.89   43.11
   2  -7   1   94.16   42.03
   2   7  -1   83.73  113.38
  -2  -7  -1   40.29   92.61
   2  -7   1   75.94   22.86
  -2  -7  -1   42.03   95.77
  -2  -7   1   74.57   39.01
   2  -7  -1   71.85   33.50
  -2  -7   1   57.48  108.43
   2   7   1   74.91   32.08
   2   7   1   82.74   43.22
   2  -7  -1   73.85   33.56
   2   7   1   91.30   45.54
  -2   7  -1   85.53   45.80
   2  -7  -1   85.19   48.41
   2   7  -1   83.60   43.75
  -2  -7  -1   80.99   46.20
  -2   7  -1   95.43   48.32
   2  -7   1   76.59   36.16
  -2   7   1   97.60   54.54
   2   7  -1   77.01   28.11
  -3  -3   7  178.57  173.93
  -3   3  -7  258.43  101.48
   3  -3  -7   97.33   91.57
   3   3  -7  242.47   69.66
  -3  -3  -7  670.94  213.11
  -3   3   7  285.70  105.10
   3   3   7  249.67   53.97
   3  -3  -7  256.89   87.46
  -3  -3   7  104.69   83.19
   3   3   7  794.14  223.41
   3  -3  -7  255.11   65.19
  -3   3  -7  239.08   81.79
   3   3   7  259.29   97.13
   3  -3  -7  273.83   96.81
   3   3   7  703.43  301.52
  -3  -3  -7  288.09  111.29
   3  -3   7  267.04   84.20
   3  -3   7  620.02  183.79
   3   3   7  271.45   96.83
   3   3  -7  239.45  169.78
   3   3  -7  260.88   82.07
   3  -3   7  250.72   81.87
   3  -3   7  274.33   93.41
  -3  -3   7  254.14   87.65
  -3   3   7  253.54   85.50
  -3  -1   8  176.11  146.40
  -3   1  -8  272.65  101.23
  -3  -1   8  269.26   95.74
  -3   1   8  272.57   97.16
  -3  -1  -8  282.78  122.89
   3  -1   8  291.61   80.89
   3   1  -8  194.98  142.96
  -3   1  -8  261.92   89.99
   3  -1   8  314.32  102.39
   3   1  -8  275.16   85.60
   3  -1   8  113.17  203.91
  -3   1   8  180.33   94.01
   3   1  -8  282.13   75.85
  -3  -1  -8  187.92  142.57
   3   1   8  768.33  286.58
   3  -1  -8  273.91   93.04
   3  -1  -8  563.06  140.87
   3  -1  -8  329.90  116.70
   3   1   8  283.24   66.43
   3  -1   8  271.52   94.36
  -3  -1  -8  280.81   97.71
   3  -1  -8  281.93   92.31
   3   1   8  120.92  136.96
  -3  -1   8  191.76  144.41
   3   1   8  285.35   92.44
   3  -1  -8  248.22   45.73
   3  -1  -8  271.98   57.17
   3   1   8  284.29   98.57
  -2   2  -9  510.06  166.61
   2   2   9  502.29  151.34
   2  -2  -9  489.24  169.85
   2  -2  -9  459.44  100.79
  -2  -2   9  202.22  175.41
   2  -2  -9  502.90  149.55
  -2   2  -9  414.39  126.86
   2   2  -9  303.94  250.03
  -2   2   9  501.05  157.99
   2   2  -9  482.27  138.18
  -2   2   9  458.43  113.75
  -2  -2  -9  458.25  104.73
  -2  -2  -9 1153.04  332.17
   2   2  -9  556.87  166.61
  -2  -2  -9  519.71  162.21
   2  -2   9  523.52  145.17
   2   2  -9  475.99  137.50
  -2   2   9 1541.74  403.45
   2  -2   9 1059.21  410.83
  -2   2   9  144.27   97.00
  -2  -2  -9  481.92  137.41
   2  -2  -9  500.51  145.41
   2  -2   9  184.26  199.36
   2  -2   9  505.83  144.13
  -2  -2  -9  452.49  111.57
   2  -2  -9  945.61  248.51
  -2  -2   9  476.26  164.64
   2   2   9 1325.52  414.44
  -2  -2   9  439.72  132.04
   2   2   9 1060.15  396.10
  -2   2  -9  319.17  333.00
   2   2   9  485.12  101.53
   2   2   9  522.36  149.23
   2   6  -5  500.13  393.06
  -2  -6  -5  561.19  173.12
   2  -6   5  531.52  153.29
   2  -6  -5  320.15  316.84
   2   6  -5  519.56  130.10
   2  -6   5  336.50  356.72
   2  -6   5  514.36  159.00
   2  -6  -5  461.63  141.47
   2   6  -5  530.66  158.57
   2   6   5  530.51  151.95
  -2   6  -5  403.93  417.18
   2  -6  -5  459.72  135.59
  -2   6  -5  522.45  179.43
  -2   6  -5  546.10  182.87
  -2   6  -5  494.17  107.13
  -2  -6   5  549.00  166.42
   2   6   5  301.50  180.57
   2   6  -5  512.30  156.38
  -2  -6  -5  356.19  329.99
  -2   6   5  586.31  198.20
  -2  -6   5  372.35  284.72
   2   6  -5  521.76  165.45
   2  -6   5  535.65  161.52
   2  -6   5  510.20  138.71
  -2   6  -5  543.30  156.18
   2  -6  -5  537.28  156.06
  -2  -6   5  271.15  243.85
   2   6   5  487.38  146.89
  -2   6   5  547.32  161.75
  -2  -6  -5  589.97  202.79
  -2  -6  -5  183.00  222.74
  -2  -6  -5  238.43  231.46
  -1   1 -10  129.60   41.37
  -1  -1  10  136.25   31.48
   1  -1 -10  158.32   54.43
  -1  -1  10  153.47   60.39
  -1   1 -10   85.88  149.35
   1  -1 -10  139.13   36.87
   1  -1 -10  159.11   62.15
   1   1  10  151.83   50.18
   1  -1 -10  157.53   59.61
  -1   1 -10  154.80   62.92
   1   1  10  136.78   37.89
  -1  -1  10  127.83   45.24
  -1  -1  10  215.68  119.94
   1   1 -10  162.11   66.53
   1  -1  10  133.64   34.31
   1   1 -10  151.97   60.88
  -1   1 -10  149.60   37.07
   1  -1 -10  315.25  114.88
   1   1  10  160.36   60.61
   1   1  10  373.68  141.34
   1  -1  10  192.61  129.80
   1  -1  10  157.77   62.85
   1  -1  10  165.72  133.37
  -1  -1 -10  141.30   39.38
   1   1 -10   85.15  132.41
   1  -1  10  163.98   61.96
  -1  -1 -10  310.63  132.27
  -1   1  10   50.76   67.33
  -1   1  10  155.80   55.03
  -1   1  10  486.67  180.87
  -1  -1 -10  153.49   49.77
  -1  -1 -10  158.09   57.62
  -1   1  10  143.77   49.49
  -1  -1 -10  145.88   51.13
   1  -1  10  150.45   45.51
   1   1 -10  152.27   55.67
   1   1 -10  151.96   50.70
  -1   1  10  139.65   51.41
   1   1  10   97.80  111.08
   1  -7  -4   25.05  138.04
  -1   7  -4   31.07   19.47
   1   7  -4   30.78   21.35
  -1  -7   4   26.62   10.90
  -1  -7  -4   29.07    8.79
   1   7  -4   30.74   20.91
  -1   7   4   34.49   30.95
   1   7  -4   30.81   17.32
  -1  -7  -4   32.76   27.08
   1  -7   4   28.87   17.06
   1   7  -4   35.90   24.10
   1  -7   4   33.44   19.25
  -1  -7  -4   18.58   68.27
  -1  -7  -4   20.92   73.09
  -1   7   4   29.19   17.76
  -1  -7  -4   30.60   22.38
   1   7   4   32.02   25.63
  -1  -7   4   22.49   50.52
   1  -7  -4   37.16   25.71
  -1  -7   4   43.01   66.81
  -1   7  -4   29.28   20.59
   1  -7  -4   19.01   71.41
   1   7   4   29.13   23.37
   1  -7  -4   29.49   21.52
   1  -7  -4   26.45   14.12
  -1  -7   4   31.71   17.76
  -1   7  -4   29.08   14.78
  -1  -7   4   29.70   14.28
  -1   7  -4   33.80   24.99
   1  -7  -4   34.09   26.46
   1   7  -4   23.02   88.55
   1  -7   4   31.26   20.05
  -1   7  -4   27.97  113.26
   1   7   4   26.65   13.02
  -1  -7  -4   10.89   45.49
   1  -7   4   30.44   18.46
   1   7   4   30.42    9.81
   0   2  10   54.61   24.03
   0   2 -10   45.12   17.19
   0  -2  10   44.41   36.74
   0  -2 -10   43.24   19.67
   0  -2  10    0.05   27.30
   0  -2  10   44.62   13.74
   0   2 -10   24.14   70.12
   0   2  10   46.59   28.69
   0   2  10  141.07   77.53
   0  -2 -10   50.39   21.80
   0   2  10   95.32   47.83
   0  -2 -10  107.31   59.91
   0   2 -10   46.37   29.57
   0  -2  10   18.30   51.76
   0  -2  10   39.53   16.52
   0  -2 -10   44.79   21.90
   0   2 -10   46.24   30.78
   0   2 -10   40.02   12.17
   0  -2 -10   46.83   24.88
   0   2  10   45.27   19.86
  -4   0  -6   87.49   52.53
   4   0   6   24.34   11.20
   4   0  -6   23.83   10.64
  -4   0   6   23.99   21.45
  -4   0   6   11.10   40.59
  -4   0  -6   25.22   15.02
   4   0   6   23.93   19.84
  -4   0  -6   24.85   23.53
   4   0   6   25.56   20.80
   4   0   6   68.71   30.28
   4   0  -6   26.28   21.60
   4   0  -6   23.34   16.59
   3   6  -2   64.38   33.54
   3  -6   2   72.93   20.89
   3  -6  -2   62.17   27.44
  -3   6  -2   75.66   47.20
   3  -6  -2   62.15   31.88
   3  -6  -2   70.61   47.86
  -3  -6   2   38.23   55.55
  -3  -6   2   71.81   26.12
  -3  -6   2  622.51  195.18
   3   6   2   57.59   28.05
  -3   6  -2   50.49  132.10
   3   6   2   72.38   34.08
   3   6   2   65.10   27.73
  -3   6   2   81.24   43.08
  -3  -6  -2   41.50   65.62
  -3   6  -2   73.35   30.33
   3  -6   2   73.96   40.21
   3  -6   2   66.50   34.98
   3   6  -2   64.23   18.71
   3  -6   2   75.58   40.79
  -3   6   2   49.17  102.93
   3   6  -2   65.91   14.66
   3  -6   2   57.35  105.95
   3   6  -2   73.86   49.86
   3   6  -2   73.15   43.71
   3  -6   2   65.00   20.56
  -3  -6  -2   30.01   52.49
  -3  -6  -2   38.35  113.38
  -3  -6  -2   86.63   46.64
  -3   6   2   78.00   45.84
   3   6  -2   55.70   71.96
  -2  -7   2  270.55  210.92
  -2  -7   2  309.02   87.23
   2  -7   2  333.45  118.23
  -2   7   2  388.07  143.79
   2  -7  -2  307.78   96.88
  -2  -7   2  307.01  104.02
  -2  -7  -2  193.06  223.14
   2   7  -2  313.96  102.29
   2  -7  -2  294.04   94.60
  -2   7  -2  293.06  101.22
   2  -7  -2  346.17  130.13
   2  -7   2  327.19   90.22
  -2   7   2  372.43  125.42
   2  -7   2  316.89   81.52
  -2   7  -2  343.23  124.86
   2   7  -2  325.22  119.37
   2  -7   2  330.37  108.33
  -2  -7  -2  342.28  130.38
   2   7   2  309.14   95.12
  -2   7  -2  377.56  128.38
   2   7   2  337.01  115.33
   2  -7   2  333.98  109.99
  -2  -7  -2  158.69  285.46
   2   7  -2  245.53  238.12
   2   7   2  305.99   93.70
   2  -7  -2  338.06  115.20
  -2  -7  -2  195.77  212.70
   2   7  -2  326.03   73.21
  -2  -7   2  226.46  243.17
   2   7  -2  299.05   77.82
   2   7  -2  349.11  117.87
   0   5  -8    0.29    3.42
   0   5  -8    0.65    1.90
   0  -5   8    0.26    1.47
   0  -5   8    0.03    1.07
   0  -5  -8    0.11    8.99
   0  -5  -8    0.31    1.92
   0   5   8   -0.08    4.57
   0  -5  -8   -0.06    2.39
   0  -5   8    0.74    1.49
   0  -5   8   -0.72    6.19
   0  -5  -8    0.23    1.40
   0  -5   8    0.38    3.30
   0   5  -8    0.16    3.25
   0   5   8   -0.03    3.11
   0  -5  -8    0.44    6.95
   0  -5  -8    0.19    3.07
   0   5   8    1.16    2.66
   0   5   8    0.48    1.49
   0  -5   8    0.29    2.78
   4  -4  -3  328.51   87.52
  -4  -4  -3  279.47  175.63
  -4  -4  -3  399.12  130.46
  -4   4   3  393.73  133.46
   4  -4   3  409.70  135.24
   4  -4  -3  390.21  125.44
  -4   4  -3  414.61  143.77
   4   4  -3  335.45   57.27
  -4  -4   3  351.45   68.75
   4   4  -3  322.12   62.08
   4  -4  -3  390.58  108.20
   4   4   3  248.53  176.81
  -4  -4  -3  163.22  255.71
   4   4   3  334.57   92.41
  -4  -4   3  160.24  323.91
  -4   4  -3  395.36  125.20
   4   4  -3  418.10  119.81
   4  -4   3  380.25  115.35
   4  -4   3  349.31   83.71
   4  -4  -3  205.34  159.09
   4   4  -3  356.32  110.55
   4   4   3  399.56   97.04
  -4   4  -3  319.58  283.48
  -4   4   3  430.80  138.97
  -4  -4  -3  132.33   83.56
   4  -4   3  162.77  131.06
  -3   5   5   11.28   15.65
  -3  -5   5   16.33   39.05
   3  -5  -5   11.94   11.75
   3   5   5   14.77   12.24
  -3   5  -5    8.46   49.99
   3  -5  -5   11.31   12.39
  -3   5  -5   12.42   13.44
   3   5   5    6.97   22.22
   3   5  -5   11.95   14.60
   3   5   5   13.63   10.23
  -3  -5  -5   11.91   43.16
   3  -5   5   11.40   18.90
   3  -5   5   11.40    9.73
   3   5  -5   12.48   12.93
   3  -5  -5    8.07   46.48
  -3  -5  -5   14.28   18.93
   3  -5   5    7.66   26.16
  -3  -5  -5    6.43   31.94
   3   5  -5   11.16   14.05
  -3  -5  -5    8.22   22.21
   3   5  -5    9.79   30.86
  -3   5   5   13.42   18.39
   3  -5   5   12.43   14.05
   3   5  -5   11.01    7.44
  -3   5  -5   12.14   24.76
   3  -5  -5   11.19   13.01
  -3  -5   5    3.57   12.43
  -4  -1   6   30.76   22.91
   4  -1  -6   25.19    9.00
  -4  -1  -6   32.64   26.95
  -4   1  -6   29.79   34.20
   4  -1   6   27.46   20.02
  -4  -1  -6   27.75   11.46
   4   1  -6   29.69   13.75
   4  -1   6   60.30   35.47
  -4   1  -6   30.92   20.62
   4  -1  -6   29.34    8.92
   4   1  -6   26.73   15.54
   4   1   6   29.20   20.35
   4   1   6   90.07   88.98
   4   1   6   14.87   34.36
  -4   1  -6   23.33   59.71
   4   1   6   28.76    9.44
   4  -1  -6   30.06   21.14
  -4   1   6   28.63   30.71
  -4  -1   6   14.27   54.15
   4  -1   6   31.44   22.65
  -4  -1  -6   16.91   42.89
   4  -1   6   29.55   18.91
  -4   1   6   28.40   19.63
  -4   1   6    9.67   32.53
   4   1   6   27.16   22.10
   0   4   9  678.25  199.02
   0   4  -9  576.81  144.63
   0   4  -9  512.04  105.10
   0  -4  -9  584.70  166.77
   0   4  -9  597.97  185.70
   0   4   9  629.06  154.92
   0  -4  -9  528.95  143.61
   0  -4   9  296.34  237.25
   0  -4   9  593.23  188.09
   0  -4   9  587.14  123.01
   0  -4  -9  864.89  338.89
   0  -4  -9  622.10  199.41
   0   4  -9  653.86  166.87
   0  -4  -9  618.82  163.48
   0  -4   9  610.92  191.79
   0  -4  -9 2122.53  623.74
   0   4   9 1454.60  360.99
   0   4   9  592.61  175.54
   2  -4  -8  154.18   57.83
   2  -4  -8   67.31  126.18
   2   4   8  158.53   57.99
  -2   4   8  191.22   81.88
   2  -4   8  166.50   57.86
  -2  -4  -8  360.83  135.52
  -2  -4   8  140.15   53.18
   2   4   8  160.29   46.51
  -2   4  -8  164.30   73.26
  -2  -4   8   50.98   67.94
  -2   4  -8  167.13   76.45
   2   4  -8  127.37  154.71
   2  -4  -8  149.49   57.38
  -2   4  -8  146.28   59.95
  -2  -4   8  157.98   72.77
   2   4   8  164.07   61.08
  -2   4  -8  132.41  218.26
   2   4  -8  149.11   53.23
   2  -4  -8  163.00   50.23
  -2  -4  -8  134.47   38.14
  -2  -4  -8  153.00   58.18
  -2   4   8  159.63   59.47
  -2  -4  -8  184.98   80.74
  -2  -4  -8  138.88   29.00
   2   4  -8  168.41   65.59
   2   4   8  404.38  170.00
  -2  -4  -8  106.54  128.53
   2  -4   8  152.31   58.45
   2   4  -8  178.68   66.34
   2  -4   8  162.99   62.01
  -2   5  -7    5.07    2.58
  -2   5   7    6.39   13.34
  -2  -5   7    4.72   12.00
   2  -5  -7    6.53    7.70
   2   5  -7    4.26    7.22
  -2  -5  -7    6.16   13.23
   2   5  -7    6.46    9.76
  -2  -5  -7    4.00   18.76
  -2  -5  -7    3.41   22.57
   2   5  -7    5.48    8.59
   2   5  -7    6.18   26.17
   2  -5  -7    4.49    7.69
   2  -5   7    6.18    8.27
  -2   5  -7    3.12   40.58
  -2   5  -7    5.39   11.78
  -2   5   7    4.74    8.47
   2   5  -7    5.52    8.87
   2   5   7    5.39    7.52
  -2   5  -7    4.52    7.23
   2   5   7    4.95   11.68
   2   5   7    2.06   18.14
  -2  -5   7    2.22   12.28
  -2  -5  -7    1.45   19.76
  -2   5  -7    4.84    4.18
   2  -5   7    5.38    7.07
   2  -5  -7    1.44   19.93
   2  -5   7    3.86    9.06
  -2   5  -7    4.94   10.94
   2  -5  -7    5.64    8.60
  -2  -5  -7    5.04    6.98
   0  -7  -5    1.17   12.67
   0   7  -5    0.37    3.54
   0   7  -5    0.51    2.66
   0  -7  -5    0.53    4.66
   0   7   5    0.23    2.16
   0  -7   5    0.06    3.89
   0  -7   5    0.59    2.93
   0  -7  -5   -0.22   15.15
   0  -7  -5    0.22    4.23
   0  -7  -5    0.22    3.44
   0   7   5    0.91    4.83
   0  -7  -5   -0.04    1.59
   0   7   5    1.46    4.06
   0  -7   5   -0.27   11.99
   0  -7   5    0.10    2.54
   0   7  -5    3.30    3.39
   0   7   5    0.75    1.93
   0  -7   5    0.77    2.15
   0   7  -5    2.21    3.69
  -3  -2  -8    1.11    2.53
   3   2  -8    0.74    9.63
  -3  -2  -8    0.74    1.41
   3   2  -8    1.09    3.71
   3  -2   8    1.47    4.85
   3   2  -8    2.54    3.94
   3  -2   8    3.29   14.75
   3  -2   8    0.76    8.87
  -3  -2   8    1.07    4.86
  -3   2  -8    0.24   17.35
  -3   2  -8    0.60    5.49
   3  -2  -8    1.43    1.90
  -3  -2   8    0.60    5.03
  -3   2   8    0.73    5.44
  -3  -2   8    0.41   11.46
   3   2   8    1.28    5.14
   3   2   8    1.20   11.29
   3  -2  -8    1.27    6.29
   3  -2   8    1.02    4.44
   3  -2  -8    0.88    5.16
   3  -2  -8    1.74    4.77
   3   2  -8    1.31    5.52
  -3  -2  -8    1.26    5.88
   3  -2  -8    0.90    5.39
  -3   2  -8    1.31    4.38
   3  -2   8    1.01    3.73
  -3  -2  -8    0.40    8.74
   3   2   8    2.33   12.94
   5   0   0    0.25    2.95
  -5   0   0    0.29   10.77
   5   0   0    2.27    4.37
  -5   0   0    2.09    3.33
   5   0   0    2.39    2.66
  -5   0   0    1.95    2.95
  -5   0   0    0.22    4.79
   1   2  10  131.82   87.35
  -1  -2 -10   54.16   28.39
   1   2 -10   57.00   34.69
  -1  -2 -10   54.70   33.84
   1  -2  10   45.06   14.80
  -1   2  10   51.68   22.22
  -1   2  10   18.57   33.06
   1  -2 -10   56.69   26.59
   1   2  10  144.48   69.23
  -1   2  10   55.25   30.74
   1   2  10   50.85   19.74
   1   2  10   55.63   28.90
   1  -2 -10   53.06   19.89
  -1  -2  10   44.17   22.07
  -1  -2 -10  122.91   69.98
   1  -2 -10   53.43   29.07
   1  -2 -10  111.33   76.18
   1   2 -10   51.70   30.03
   1  -2 -10   53.59   27.93
   1   2  10   52.37   24.21
   1  -2  10   55.05   31.88
  -1   2 -10   57.25   39.19
  -1   2 -10   31.39   93.74
  -1  -2  10   22.18   54.20
  -1   2 -10   51.57   15.10
   1  -2  10   51.48   32.35
  -1   2 -10   56.66   33.27
   1   2 -10   25.96   75.44
  -1  -2 -10   50.68   20.34
   1   2 -10   50.65   40.71
  -1   2  10  170.37   79.94
   1  -2  10   18.59   56.33
   1  -2  10   49.82   19.33
  -1  -2  10   53.50   31.09
  -1   2 -10   43.50   17.96
  -1  -2 -10   48.47   18.65
  -1   2  10   52.62   28.88
   4   3   5   50.25   27.30
   4  -3  -5   52.17   21.73
  -4   3  -5   58.55   37.32
  -4  -3  -5   58.26   38.30
  -4  -3   5   57.43   32.69
  -4  -3  -5  193.35   59.55
   4  -3   5   58.64   28.89
   4  -3   5   55.02   25.30
   4   3   5   26.17   94.44
   4   3  -5   48.11   17.49
  -4  -3  -5   26.50   80.45
  -4   3   5   55.96   32.97
  -4  -3  -5  127.72   41.54
   4  -3   5   70.04   34.99
   4   3  -5   56.92   27.84
  -4  -3   5   22.39  105.76
   4  -3  -5   20.44   29.57
  -4   3   5   60.77   35.39
   4  -3  -5   61.21   37.82
   4   3   5   53.75   16.23
  -4   3  -5   59.02   38.15
  -4   3  -5   39.68   87.30
   4  -3  -5   49.52   26.14
   0  -6   7  343.53   80.95
   0   6  -7  370.80  118.66
   0   6   7  343.46   77.96
   0   6   7  392.25  128.39
   0   6  -7  361.36  124.76
   0  -6  -7  212.45  307.52
   0  -6  -7  382.18  124.46
   0  -6   7  135.91  162.36
   0  -6  -7  329.45  102.79
   0  -6   7  299.15   75.57
   0  -6  -7  146.87  181.21
   0   6  -7  357.72   98.72
   0  -6  -7  297.87   76.15
   0   6   7  378.86   92.79
   0   6   7  349.55  113.92
   0   6   7  203.47   90.92
   0   6  -7  348.93   96.28
   3  -6  -3  278.24  260.31
   3   6  -3  365.25  241.31
   3   6  -3  474.67  161.70
  -3  -6   3  440.37   97.95
  -3   6   3  496.54  163.75
   3   6   3  375.30  130.95
  -3  -6   3  229.09  348.13
   3   6  -3  404.48   79.10
   3  -6   3  457.65  144.78
  -3   6  -3  485.69  174.68
   3  -6   3  452.40  153.91
  -3  -6  -3  324.22  266.63
   3   6  -3  429.89  135.36
   3  -6   3  452.47  108.17
  -3   6  -3  401.85  405.42
  -3   6  -3  434.80  119.86
   3  -6  -3  464.88  142.12
   3   6  -3  458.66   91.72
   3  -6   3  490.01  153.95
   3   6   3  411.07  119.70
  -3  -6  -3  208.72  177.10
   3  -6  -3  415.88  133.69
   3  -6   3  444.72   96.63
   3   6  -3  484.94  147.68
  -3   6   3  512.98  175.38
   3  -6   3  324.45  317.97
  -3  -6  -3  177.38  276.26
   3   6   3  468.03  135.62
   3  -6  -3  407.02  118.64
  -3  -6   3  231.05  184.75
  -3  -6  -3  513.05  185.42
  -5   0   1    0.22    2.06
   5   0   1    0.32    1.33
   5   0  -1   -0.08    1.79
   5   0   1    1.53    3.00
  -5   0  -1    0.43    1.92
  -5   0  -1    0.11    3.27
   5   0  -1    1.72    2.00
  -5   0   1    0.72    2.92
  -5   0   1    0.24    3.59
  -5   0   1   -0.01    6.25
  -5   0  -1    0.14    1.34
   5   0   1    0.90    1.79
  -5   0  -1   -0.93    6.71
   5   0  -1    0.24    2.26
  -1  -5   8   68.34   41.16
  -1   5  -8   71.98   42.21
   1   5  -8   66.72   29.66
   1  -5   8   26.09   69.57
   1  -5  -8   60.87   25.65
   1   5  -8   65.91   33.38
  -1   5   8   77.93   57.65
  -1  -5  -8  117.31   95.83
  -1  -5  -8   81.18   45.23
   1  -5   8   67.76   25.54
   1   5   8   73.21   33.26
  -1   5   8   72.42   36.35
   1   5   8   70.74   28.38
   1  -5  -8   70.60   33.75
  -1   5  -8   70.51   41.00
   1  -5   8   68.99   35.78
   1  -5  -8   30.82   67.76
  -1  -5  -8   57.93   16.93
  -1   5   8   84.40   61.99
  -1  -5  -8   38.46   99.19
  -1   5   8   73.39   31.69
  -1  -5  -8   67.12   21.26
  -1   5  -8   70.48   20.72
   1   5   8   69.42   33.65
  -1  -5  -8   64.02   27.40
   1   5  -8   75.73   31.93
   1  -5  -8   62.70   32.64
  -1   5  -8   69.90   21.54
  -1  -5   8   25.49   55.65
  -1  -5   8   76.12   35.97
   1   5   8   68.60   56.97
  -1   5  -8   63.98   23.27
   0  -8   0  498.87  156.40
   0  -8   0  512.93  160.54
   0   8   0  520.22  178.51
   0   8   0  483.86  133.43
   0  -8   0  320.61  227.47
   0  -8   0  517.03  174.09
   0  -8   0  473.06  132.32
   0   8   0  536.40  149.62
  -2  -7  -3 1726.25  519.45
   2  -7   3 1134.62  886.82
  -2   7  -3 1825.10  504.46
   2  -7   3 1616.13  384.98
  -2   7   3 1814.50  525.15
  -2  -7   3 1575.00  419.42
   2  -7   3 1630.00  436.11
  -2  -7  -3  997.91  750.60
   2   7  -3 1586.69  480.07
  -2   7  -3 1508.88  470.96
   2   7  -3 1483.29  942.71
   2   7  -3 1571.40  338.39
  -2  -7  -3  590.65  583.50
   2   7  -3 1503.24  423.46
   2   7   3 1501.59  399.28
  -2  -7   3  928.67  670.64
  -2  -7  -3 1652.05  519.80
  -2   7  -3 1487.77 1127.32
  -2   7  -3 1685.89  498.12
  -2  -7   3 1403.68  300.68
   2  -7  -3 1777.93  536.17
   2  -7  -3 1414.04  381.38
   2  -7  -3 1478.78  396.22
   2   7   3 1631.72  449.18
   2  -7   3 1585.74  463.45
   2   7  -3 1640.72  452.84
  -2  -7   3 1162.06  685.03
   2   7   3 1447.54  385.20
   2  -7   3 1537.15  430.78
  -2  -7  -3  953.30  697.97
  -2  -7   3 1587.85  422.60
   2  -7  -3  978.02  751.46
   2  -7  -3 1708.36  463.08
  -2   7   3 1862.80  566.65
  -5  -1   0    0.26    1.39
  -5   1   0    0.32    3.03
  -5   1   0    0.36    2.67
   5  -1   0    0.76    2.27
   5   1   0    0.34    2.28
   5  -1   0    0.17    1.50
  -5  -1   0    0.73    2.73
  -5  -1   0    0.23    1.86
  -5   1   0    0.87    1.66
   5   1   0    0.69    1.58
   0  -8  -1  915.51  280.36
   0   8  -1  927.28  246.30
   0  -8  -1  913.72  271.25
   0   8  -1  883.41  238.25
   0   8   1  946.24  296.69
   0  -8   1  897.93  233.78
   0  -8  -1  907.07  268.64
   0  -8  -1  817.58  210.39
   0  -8  -1  311.77  321.46
   0   8   1  974.37  248.08
   0   8  -1  928.01  283.26
   0  -8   1  593.14  321.99
   0  -8   1  860.65  249.68
   0   8   1  852.18  215.45
   0  -8   1  905.82  256.65
   1   4   9  357.24  151.88
  -1   4  -9  137.18   41.11
   1   4   9  435.13  154.24
  -1  -4   9  158.84   65.96
  -1   4  -9  162.86   72.84
  -1   4  -9  159.53   70.68
   1   4   9  158.91   54.27
  -1  -4   9   51.80   81.35
  -1   4  -9  163.04   40.51
   1  -4  -9   97.76  104.01
   1   4   9  154.93   52.65
   1   4   9  173.60   60.90
   1  -4  -9  147.20   52.34
   1  -4  -9  157.31   53.87
  -1   4  -9  140.89   36.60
   1  -4  -9  155.73   56.78
  -1  -4   9  143.04   51.05
  -1   4   9  391.14   90.29
   1   4  -9  149.45   60.03
   1  -4   9  158.73   63.35
  -1  -4  -9  121.73   34.44
  -1  -4  -9  154.65   46.05
   1   4  -9  158.30   69.56
  -1  -4  -9  180.64   73.95
  -1   4   9  153.13   39.45
   1  -4   9  149.49  118.00
  -1   4   9  182.45   75.30
  -1  -4  -9  140.05   47.15
  -1   4   9  156.16   60.01
   1  -4   9  150.23   77.28
   1  -4   9  154.64   46.79
  -1  -4  -9  345.18  142.13
   1  -4  -9  151.23   58.04
   5   1   1   60.63   18.68
  -5   1   1   59.92   28.03
   5   1  -1   57.64   27.86
   5  -1   1   57.18   24.29
  -5   1   1   61.17   22.84
   5   1  -1   56.62   21.05
  -5   1   1   19.25   39.32
   5  -1   1   56.27   18.55
   5   1   1   54.25   16.42
  -5  -1   1   60.77   23.57
  -5   1  -1   57.38   16.25
   5  -1  -1   57.06   26.71
  -5  -1   1   62.16   24.88
  -5   1  -1   64.98   33.52
  -5   1   1   63.51   27.44
  -5  -1   1   24.32   76.53
   5   1   1   61.03   27.32
   5   1  -1   55.76   20.47
   5  -1   1   56.75   25.44
  -5  -1   1   54.30   17.59
   5  -1  -1   54.18   19.05
  -5   1  -1   64.70   27.83
  -5  -1  -1   51.87   15.49
  -5  -1  -1   20.79   69.82
  -5  -1  -1   64.35   31.76
  -4  -2   6  265.38  343.68
   4   2  -6  562.97  131.39
   4  -2   6  617.44  161.60
  -4   2  -6  699.31  214.07
   4   2  -6  597.19  146.70
  -4   2  -6  663.01  191.89
   4   2   6  371.30  223.42
   4  -2  -6  188.34  100.78
   4  -2  -6  621.90  168.27
   4   2   6  629.40  171.51
   4  -2   6  697.42  168.86
  -4   2  -6  570.44  419.71
  -4  -2  -6  703.35  211.86
  -4   2   6  664.15  180.89
   4  -2   6  704.79  202.03
  -4  -2  -6  247.12  159.51
   4   2   6  553.67  180.34
  -4  -2   6  662.55  184.05
   4  -2  -6  595.19  124.77
  -4   2   6  650.24  186.47
   4   2   6 1267.40  557.72
  -2   3   9  445.89  172.99
   2   3  -9  302.87  269.41
  -2  -3  -9  440.08  147.63
  -2  -3  -9  375.14  104.86
  -2  -3  -9  375.33  101.87
   2  -3   9  395.33  126.18
   2  -3   9  147.05  173.55
   2   3  -9  408.01  124.83
   2  -3  -9  415.20  186.28
   2  -3   9  416.42  120.68
   2   3   9  400.29  123.17
   2  -3   9  407.27  293.74
  -2   3  -9  408.41  142.30
   2   3   9 1017.55  333.61
  -2  -3   9  145.00  135.65
   2   3   9 1211.01  361.74
   2  -3  -9  398.99  122.98
  -2  -3   9  325.42  100.86
  -2  -3  -9  323.13   72.42
   2   3  -9  470.78  144.92
  -2  -3  -9  143.73  158.06
   2   3   9  391.68   92.12
  -2   3  -9  293.61  341.63
   2  -3  -9  387.36  123.04
   2   3  -9  375.24  111.95
  -2   3  -9  335.81   97.19
  -2  -3   9  384.49  141.22
   2  -3  -9  385.85   95.15
   2  -3  -9  394.36  128.25
   2   3   9  408.33  126.58
  -4   5   0  204.18   89.59
   4  -5   0  200.37   76.97
  -4  -5   0  380.77  260.37
   4  -5   0  136.21  149.52
   4  -5   0  154.43   42.14
  -4  -5   0  181.26   61.53
  -4   5   0  110.94  135.26
   4   5   0  192.70   65.54
   4  -5   0  164.64   66.02
   4   5   0  159.58   63.75
   4   5   0  154.47   43.81
  -4   5   0  180.30   57.81
   5   0  -2    3.45    5.71
   5   0   2    4.49    8.15
  -5   0  -2    4.55    9.06
  -5   0   2    7.37    6.61
   5   0   2    3.42    4.11
   5   0  -2    4.65    4.62
   5   0  -2    3.56    4.87
  -5   0  -2    3.56    4.84
  -5   0   2    4.12    5.39
  -5   0   2    4.01    5.55
  -4   4  -4    5.28   32.33
   4  -4   4    4.91   17.31
   4  -4  -4    4.57   13.99
   4  -4   4    8.09   10.54
   4   4   4    9.50    9.03
  -4  -4  -4    9.89   13.94
   4   4  -4    6.70    4.49
   4   4   4    9.42    7.01
  -4  -4   4    3.54   48.52
  -4  -4  -4    4.21   10.51
   4  -4   4    8.14    7.18
   4  -4  -4    8.31    8.87
  -4   4  -4    8.42   12.45
  -4   4  -4   10.41   14.89
   4  -4  -4    8.05    8.27
   4  -4  -4    8.58   12.39
  -4   4   4   13.27   16.37
   4  -4   4   11.42   13.13
  -4   4   4   10.23   13.88
   4   4  -4    7.82   10.48
  -4  -4  -4   15.68   21.02
  -4  -4  -4    5.20   33.53
   4   4  -4    0.03   11.87
   1  -7   5  496.51  146.60
  -1  -7  -5  537.96  181.06
  -1  -7   5  510.74  172.03
   1   7  -5  494.48  157.79
   1  -7  -5  521.16  165.18
  -1  -7  -5  290.60  411.94
   1  -7  -5  409.03  449.91
   1  -7  -5  399.82  114.87
  -1  -7  -5  324.66  335.58
  -1  -7   5  432.21  101.06
  -1   7  -5  487.82  161.38
   1   7  -5  486.97  152.26
   1  -7  -5  441.05  140.33
  -1   7   5  542.40  188.42
   1  -7   5  477.48  133.63
   1   7   5  516.59  166.73
   1  -7  -5  291.79  340.28
   1   7  -5  447.73  433.33
   1   7   5  423.16  110.79
   1  -7   5  446.60  131.89
  -1  -7  -5  425.24   85.80
  -1   7  -5  456.79  129.87
  -1   7   5  522.61  177.84
  -1   7  -5  512.37  168.51
  -1  -7   5  509.16  153.31
  -1  -7   5  461.05  114.10
   1   7  -5  496.22  151.74
  -1   7   5  486.32  136.38
  -1   7  -5  492.95  140.41
   1  -7   5  284.05  321.52
  -1  -7  -5  476.36  152.78
   1   7  -5  482.76  136.58
  -1  -7   5  291.33  305.21
   0  -3  10    0.06    2.31
   0   3  10    1.67    5.98
   0   3  10    5.16   11.05
   0   3 -10    0.62    4.77
   0   3 -10    0.67    5.17
   0   3  10    0.88    3.78
   0  -3 -10    0.63    3.50
   0  -3 -10    0.73    3.67
   0   3 -10    0.63    2.41
   0   3 -10    1.32   13.40
   0  -3 -10    0.46    2.73
   0  -3 -10    0.48    3.06
   0   3  10    4.62    3.12
   0   3  10    0.54    4.32
   0  -3  10    0.53    4.56
   0  -3 -10    0.40    8.72
   0  -3  10    0.68    8.01
   0   3 -10    0.18    1.38
   0  -3  10    1.20    1.34
   4  -5   1  123.48  139.88
  -4  -5  -1  100.36   82.09
   4   5   1  149.03   59.20
  -4   5   1  195.07   83.82
   4   5  -1  150.32   59.57
  -4   5   1  104.34  126.09
   4   5  -1  153.33   39.56
   4  -5   1  149.62   60.92
   4  -5   1  188.76   79.94
   4   5   1  144.38   43.18
   4  -5   1   35.54   56.89
   4   5  -1  180.58   62.82
   4  -5  -1  156.31   62.76
  -4   5  -1  172.59   49.28
  -4   5  -1  676.23  277.56
  -4  -5   1  166.04   50.04
   4  -5  -1  147.23   42.70
  -4   5  -1  191.67   84.36
   4   5   1  179.15   59.24
  -4  -5  -1 1004.64  302.75
  -4  -5  -1   60.63   59.97
   4  -5   1  147.93   35.88
   4  -5  -1  186.77   70.39
  -4  -5   1   80.72  227.51
  -4   5   1  171.38   58.72
  -4  -5  -1  173.96   63.86
   4  -5   1  157.23   34.49
   0   8  -2   94.82   33.59
   0  -8  -2   73.47   38.47
   0  -8  -2   28.13   72.93
   0   8  -2   73.72   42.40
   0  -8   2   67.88   30.37
   0  -8  -2   77.99   41.31
   0   8  -2   72.79   33.02
   0  -8   2   46.52   59.75
   0  -8   2   70.53   29.89
   0  -8  -2   75.89   42.14
   0   8  -2   71.51   35.02
   0   8   2   75.19   46.35
   0   8   2   69.43   28.01
   0   8  -2   58.11  163.58
   0  -8  -2   69.01   25.66
   0  -8   2   70.72   42.23
   0   8   2   74.71   28.19
  -1  -6  -7   20.64   61.06
  -1  -6  -7   20.93   64.26
  -1   6   7   42.15   21.79
   1   6  -7   33.70   82.75
   1   6  -7   43.88   23.36
  -1   6  -7   42.78   16.14
  -1   6   7   47.42   34.71
   1  -6  -7   36.91   16.98
   1   6  -7   45.14   28.71
  -1   6   7   44.45   28.58
  -1  -6  -7   45.79   33.48
   1  -6   7   45.85   27.01
   1   6  -7   42.86   25.26
  -1  -6  -7   36.18   10.55
   1  -6   7   15.70   57.22
  -1  -6  -7   40.25   12.97
   1  -6  -7   17.54   58.10
   1   6   7   47.00   37.90
   1   6   7   42.15   25.78
  -1   6  -7   45.08   40.40
   1  -6  -7   38.81   24.78
   1  -6  -7   48.87   28.48
  -1   6  -7   49.36   43.02
  -1   6  -7   41.77   17.85
   1   6   7   24.04   26.45
  -1  -6   7   46.70   25.10
  -1  -6   7   14.23   43.66
  -1  -6   7   44.12   32.27
   1   6  -7   44.34   23.44
   1  -6   7   40.13   19.23
  -1  -6  -7   39.79   22.03
   1  -6   7   43.45   25.82
   1  -6   7   41.84   19.15
  -1   8   0    0.90    4.08
   1  -8   0    0.08    4.44
   1   8   0    0.02    3.76
   1  -8   0    1.23    4.16
   1  -8   0   -0.16    4.64
  -1  -8   0    0.09    1.85
   1  -8   0    2.29    4.41
   1   8   0    4.21    4.71
  -1  -8   0    0.91    4.32
   1   8   0    0.27    2.91
   1   8   0    1.23    2.93
   1  -8   0    0.12    3.17
  -1   8   0    2.37    4.92
   1   8   0    2.63    5.35
  -1   8   0    0.61    2.38
   2  -6   6    0.73    4.23
  -2  -6  -6    1.50    7.31
   2   6  -6    0.90    4.90
   2  -6   6    1.10    3.93
   2   6  -6    0.89    6.92
   2   6   6    0.26    6.25
  -2  -6  -6    1.63   15.27
   2  -6  -6    5.51    4.99
  -2  -6   6    0.22    6.56
  -2   6  -6    1.05    3.28
  -2  -6   6    1.26   14.09
   2  -6   6    0.68    5.04
  -2   6   6    1.21    7.19
  -2   6  -6    2.42    5.68
  -2   6  -6    0.88    6.41
  -2   6  -6    1.26    1.65
   2  -6  -6    1.29    4.59
   2  -6  -6    0.85    3.80
  -2   6  -6    0.19   22.10
  -2  -6   6    1.23    4.53
   2  -6  -6    0.26   11.29
   2   6   6    0.89    4.63
   2   6  -6    1.91    3.76
  -2  -6  -6   -0.15   11.44
   2  -6   6   -0.04    4.30
  -2  -6  -6    0.81    4.37
   2   6  -6    1.12    5.00
  -2  -6  -6    1.30   11.00
   2   6  -6    0.61   14.06
  -5   1   2  382.51  106.97
   5  -1  -2  384.70  119.46
   5   1   2  397.79  119.92
  -5   1   2  396.59  115.09
   5  -1   2  367.93   99.30
   5  -1   2  386.64  110.12
  -5  -1  -2  331.88   73.24
  -5  -1  -2  415.13  149.61
   5   1  -2  367.81  108.16
  -5   1  -2  429.54  122.93
  -5   1  -2  418.75  137.36
  -5  -1   2  391.12  110.82
   5   1   2  359.51   76.16
   5   1  -2  347.57   86.79
   5  -1  -2  358.01   94.39
  -5   1   2  404.28  112.33
   5   1   2  363.20   77.15
  -5  -1   2  344.46   83.98
  -5  -1   2  164.30  219.28
  -5  -1   2  378.79   97.46
   5  -1  -2  355.69   90.52
   5  -1   2  416.72  152.04
  -5   1   2  119.07  114.50
  -5  -1  -2  201.46  235.71
   3   4   7   12.26    7.56
   3  -4  -7   11.74   12.53
   3   4   7   12.57   12.24
  -3  -4   7   15.28   36.79
  -3  -4   7    3.44   12.68
   3  -4  -7    5.36   21.05
   3   4   7   14.76   37.16
  -3   4  -7   11.14   11.77
   3  -4  -7   13.79   13.88
   3  -4  -7   12.72    9.12
  -3   4  -7   12.10   16.88
   3  -4   7   12.18   12.53
  -3   4   7   13.27   18.30
   3   4  -7    8.64   26.55
  -3  -4  -7   -0.01    8.94
  -3   4   7   15.02   13.98
  -3  -4  -7   42.05   29.09
   3   4  -7   11.88   12.83
   3   4  -7   10.43    8.86
  -3  -4  -7   14.55   19.16
  -3  -4  -7   28.31   24.63
   3  -4   7   12.27   11.89
   3   4  -7   13.94   15.46
  -3  -4   7   11.27   13.36
   1   8   1 1026.28  316.19
  -1   8  -1  952.51  262.17
   1  -8  -1  961.88  284.42
   1   8  -1 1029.48  316.47
  -1   8   1  956.16  232.31
   1   8  -1 1038.60  246.98
  -1  -8  -1 1062.48  339.10
   1  -8   1  637.93  311.70
  -1   8   1 1055.77  331.79
   1  -8   1  989.58  305.19
   1   8  -1  967.28  306.47
  -1  -8  -1 1052.19  330.56
  -1  -8  -1  605.74  543.14
   1  -8   1  955.93  267.30
  -1  -8   1 1007.95  287.57
   1   8   1  944.49  254.61
  -1   8  -1 1044.66  300.92
  -1  -8   1  652.58  413.78
   1  -8  -1  971.83  312.35
  -1   8   1 1089.74  306.27
   1   8  -1  981.49  271.15
  -1  -8  -1  952.61  215.62
   1  -8  -1  357.58  313.83
  -1  -8   1  907.46  248.64
   1  -8  -1  909.33  254.09
   1   8   1  992.71  215.71
   1  -8  -1 1053.08  309.26
  -1  -8   1  967.52  242.04
  -1   8  -1 1015.20  307.89
   1   8   1 1029.38  288.28
   1  -8   1 1023.06  295.68
   1  -8   1 1028.11  291.67
  -1  -8  -1  400.21  471.25
   2   0  10  285.41  139.10
  -2   0 -10   73.12  143.24
  -2   0 -10  122.85   55.53
  -2   0  10  108.65  117.36
  -2   0  10  105.99   51.88
   2   0 -10   67.38   76.01
   2   0 -10  123.81   59.40
   2   0 -10  117.95   48.69
   2   0  10  116.30   55.72
   2   0  10  825.03  169.11
  -2   0  10  106.71   48.20
   2   0  10  116.31   44.63
   2   0  10  112.34   44.32
   2   0 -10  110.25   38.64
  -2   0 -10  108.64   46.97
   2   0 -10  130.47   53.71
   5  -2   0    0.09    1.28
   5  -2   0    0.29    1.51
  -5  -2   0    1.65   10.26
  -5   2   0    0.38    1.55
   5   2   0    0.50    1.78
  -5  -2   0    1.10    2.46
   5  -2   0    0.14    2.52
  -5   2   0    0.14    3.03
   5   2   0    0.84    1.95
  -5   2   0    0.18    3.14
  -4  -5   2  583.55  136.47
   4  -5  -2  580.53  179.60
  -4   5  -2  607.08  187.63
  -4  -5  -2  224.00  138.57
  -4   5   2  677.65  222.89
   4  -5   2  523.36  101.10
   4  -5   2  425.60  335.44
  -4  -5  -2  340.81  218.39
  -4  -5  -2  636.36  203.12
  -4   5   2  615.51  185.53
   4   5  -2  658.76  184.51
   4   5  -2  545.86  167.02
   4  -5   2  663.16  217.43
   4   5  -2  533.55  108.53
   4  -5   2  549.42  169.93
   4   5   2  638.91  167.25
   4  -5   2  575.40  123.02
  -4   5  -2  631.31  139.89
   4   5   2  516.47  136.20
  -4   5  -2  469.76  400.15
   4  -5  -2  522.38  134.64
   4  -5  -2  319.92  250.13
  -4  -5  -2  246.35  382.31
   4  -5  -2  626.96  180.16
  -4  -5   2  547.99  569.78
  -4   5  -2  651.82  221.53
  -3   6  -4   67.04   44.54
  -3   6   4   69.98   39.90
   3  -6   4    0.00   30.46
  -3  -6  -4   72.53   46.60
  -3  -6   4   49.80   92.10
  -3  -6   4   27.77   48.97
   3  -6  -4   56.50   28.77
  -3  -6  -4   43.18   75.67
   3   6  -4   60.50  107.37
   3  -6  -4   68.67   33.67
  -3  -6  -4   23.84   88.98
  -3  -6  -4   29.38   54.60
   3   6  -4   68.01   35.79
   3  -6   4   45.51   98.60
  -3   6   4   80.19   47.30
   3  -6   4   63.16   33.46
   3  -6  -4   38.83   82.70
   3   6  -4   61.15   32.16
   3   6   4   67.12   30.36
  -3   6  -4   58.89   20.64
   3  -6   4   62.56   22.94
  -3   6  -4   59.60  138.43
   3   6  -4   63.34   19.02
   3   6  -4   67.21   38.19
   3  -6   4   67.92   36.21
   3   6   4   58.77   29.46
  -3   6  -4   56.89   14.48
   3  -6  -4   59.93   31.35
   5  -2  -1   62.81   18.53
  -5  -2  -1   74.30   34.03
   5  -2   1   64.14   29.09
  -5  -2   1   70.06   26.49
   5  -2   1   63.39   22.59
  -5   2   1   70.96   31.81
   5   2  -1   57.44   15.17
   5  -2  -1   64.69   21.21
   5   2   1   67.82   22.25
  -5  -2   1   30.91   95.79
  -5   2  -1   73.80   37.20
   5   2   1   60.14   25.72
  -5   2  -1   78.10   37.57
   5  -2   1   62.76   16.07
  -5   2  -1   62.64   17.16
   5  -2  -1   66.21   31.92
   5   2  -1   63.07   19.20
   5   2  -1   66.48   32.58
   5   2  -1   57.65   20.02
  -5   2   1   73.54   25.98
  -5   2   1   76.05   36.25
   2  -1 -10  379.83  136.68
   2   1 -10  366.52  120.97
   2   1 -10  367.78  118.28
   2   1 -10  402.66  147.17
   2   1 -10  200.98  209.71
  -2  -1 -10  362.79   99.21
  -2  -1 -10  351.02  220.94
  -2   1  10  340.81  115.65
   2  -1  10  383.95  252.98
  -2   1 -10  322.67  101.64
  -2  -1  10  331.32  111.20
  -2  -1  10  150.25  153.77
  -2  -1 -10  355.54  119.18
   2  -1 -10  373.57  121.95
  -2   1  10  345.09  118.39
   2   1  10 1058.44  368.72
   2   1  10  368.46  115.70
   2   1  10  165.33  194.80
  -2   1  10 1181.81  354.12
   2  -1 -10  366.85   93.28
  -2   1 -10  540.91  330.11
   2  -1 -10  769.41  222.65
   2   1  10  380.87  129.37
   2  -1 -10  370.35  120.22
  -2  -1  10  357.40  135.30
   2  -1  10  385.96  118.70
   2  -1  10  894.15  357.29
   2   1 -10  356.69  117.19
  -2  -1 -10  373.61  124.24
  -2   1 -10  388.55  138.73
   2  -1  10  363.46  110.99
   2  -7  -4    2.43    4.84
  -2  -7   4    1.98    2.78
  -2  -7  -4    1.09    6.86
   2   7  -4    2.10    5.00
   2   7  -4    0.84    5.45
   2  -7   4    2.05    5.02
   2  -7  -4    0.49   17.36
  -2   7  -4    0.74    4.82
  -2  -7  -4    1.36   13.84
  -2  -7   4    1.17    2.17
   2  -7  -4    0.54    6.95
  -2  -7   4    0.67   11.93
   2   7   4    1.35    4.94
   2   7  -4    0.78   17.55
   2   7   4    0.68    3.41
  -2  -7  -4    0.69    5.49
   2   7   4    1.05    5.56
   2   7  -4    0.99    5.86
  -2   7  -4    0.81    4.56
  -2  -7  -4    0.28   16.23
   2  -7  -4    3.78    5.83
  -2   7   4    0.59    5.40
   2  -7   4    1.58    3.69
  -2  -7  -4    0.07   15.77
   2  -7   4    1.15    4.80
  -2   7   4    1.02    7.25
  -2  -7   4    1.37    3.79
  -2   7  -4    0.58    6.58
  -2   7  -4    0.74   27.22
   2  -7  -4    0.77    3.69
  -2   7  -4    1.02    2.44
  -2  -7   4   -0.61   14.48
   3   3   8   30.37    9.47
   3  -3  -8   36.56   25.67
   3  -3  -8   34.95   23.50
   3  -3  -8   33.75   13.57
   3   3   8   37.79   23.04
   3   3   8  101.51   80.24
  -3   3  -8   32.18   21.18
   3   3  -8   31.55   18.25
   3   3   8   36.76   25.86
   3   3  -8   30.02   50.71
  -3  -3   8   24.05   59.75
   3   3   8  104.69   57.84
  -3  -3  -8   39.06   31.93
   3  -3   8   39.69   23.69
  -3  -3   8   34.70   23.29
  -3   3   8   39.46   29.72
   3   3  -8   43.07   27.85
  -3  -3   8   12.75   25.80
  -3   3   8   32.11   22.77
   3  -3  -8   12.61   29.49
   3  -3   8   12.61   41.86
   3  -3   8   35.59   21.86
  -3  -3  -8   88.59   48.31
  -3   3  -8   36.80   29.23
   3   3  -8   37.19   21.93
  -3  -5  -6  103.89  164.98
  -3   5   6  305.94  125.30
  -3  -5   6   95.65   89.68
   3  -5  -6  131.99  130.94
  -3   5  -6  281.02   92.35
   3   5   6  271.36   89.86
   3  -5  -6  285.54   98.61
   3   5  -6  290.33  214.45
  -3   5   6  355.44  132.73
   3  -5   6  301.06  102.38
   3   5  -6  266.13   70.71
   3  -5   6  304.69  104.14
  -3   5  -6  227.92  274.43
   3   5   6  303.52   81.94
  -3   5  -6  309.67  120.02
   3   5  -6  284.13   96.43
   3   5  -6  311.94  110.44
  -3  -5  -6  131.22  134.24
  -3  -5  -6  339.41  133.81
  -3  -5  -6  234.46  170.14
  -3  -5   6  212.19  207.80
   3  -5  -6  310.01   92.43
   3  -5   6  282.64   83.62
   3  -5  -6  273.35   91.83
   3   5  -6  286.13   97.67
   4   0  -7    1.65    4.40
  -4   0  -7    1.01    4.77
   4   0  -7    0.37    1.92
  -4   0   7    0.18    8.24
   4   0   7    1.98   13.98
   4   0  -7    0.02    3.35
   4   0   7    0.59    4.18
   4   0   7    0.09    2.07
  -4   0   7    0.48    4.49
   4   0   7    3.33    4.16
  -4   0  -7    1.99    3.04
   1  -3  10  525.85  171.03
   1   3  10 1505.36  456.92
  -1  -3 -10  454.47  121.43
   1   3 -10  355.72  361.66
   1   3 -10  504.99  161.12
   1   3 -10  516.30  170.32
  -1   3  10 1580.75  466.19
   1   3 -10  546.07  159.28
  -1   3  10  508.10  157.62
  -1   3 -10  464.07  103.84
  -1  -3 -10  500.39  139.98
  -1   3  10  564.30  178.86
  -1  -3  10  192.28  199.06
  -1   3 -10  537.96  181.69
   1  -3 -10  507.54  153.83
   1  -3  10  198.59  227.56
   1  -3  10  510.80  165.00
  -1  -3  10  497.70  170.71
   1   3  10  532.68  157.42
  -1   3 -10  344.41  496.89
  -1   3  10  528.68  148.61
  -1  -3  10  451.02  132.64
  -1   3 -10  435.58  113.03
   1   3 -10  561.23  188.69
  -1  -3 -10 1113.19  335.44
   1  -3 -10  536.18  144.09
  -1  -3 -10  472.91  131.26
   1   3  10  523.74  140.82
  -1   3 -10  501.63  111.19
  -1   3 -10  302.86  438.12
   1   3  10  513.26  155.22
  -1   3  10  341.30  168.69
   1  -3 -10  523.91  155.82
   1  -3 -10 1002.94  300.95
   1  -3  10  478.52  125.03
  -1   3 -10  556.94  197.81
   1   3  10 1283.67  386.69
  -1  -3 -10  547.90  172.23
  -5   0   3    0.20    3.20
  -5   0   3   -0.12    7.36
  -5   0  -3    0.81    4.40
  -5   0  -3    0.17    3.15
   5   0  -3    2.06    2.06
   5   0  -3    0.37    2.97
  -5   0   3    0.50    2.04
   5   0  -3    0.21    1.85
   5   0   3   -0.20    3.82
   5   0   3    0.80    1.91
   5   0   3    0.11    3.99
  -5   0   3    0.06    2.63
   1  -8  -2  213.39   79.25
  -1   8  -2  210.90   69.84
  -1   8  -2  232.77   85.79
  -1  -8   2  203.29   60.61
   1   8   2  229.37   91.93
  -1   8  -2  212.46  312.12
   1   8  -2  216.56   72.96
   1   8  -2  222.51   62.75
  -1   8   2  209.91   51.50
  -1  -8  -2  124.37  183.06
  -1  -8  -2  231.82   86.83
  -1  -8   2  221.70  151.36
   1   8   2  206.77   62.62
   1   8  -2  228.36  108.42
  -1  -8  -2  231.34   89.18
  -1   8   2  246.86   81.59
   1  -8   2  216.43   73.49
   1  -8   2  217.76   78.35
  -1  -8   2  219.78   71.14
   1  -8   2  168.45  124.53
   1   8  -2  215.86   83.24
   1  -8   2   11.76   50.32
  -1   8   2  240.09   98.32
  -1  -8  -2  126.34  186.04
  -1  -8  -2   86.61  150.56
   1  -8   2  224.75   78.03
  -1  -8   2  219.55   65.02
   1  -8  -2  194.22   62.93
  -1  -8  -2  207.43   48.89
   1   8   2  222.75   80.19
   1  -8  -2  232.88   91.27
   1  -8  -2  232.12   86.60
  -1   8  -2  225.89   82.30
   0   0 -11   -0.94    7.53
   0   0 -11    0.52    2.37
   0   0 -11    0.19    2.17
   0   0  11    0.64    2.14
   0   0  11    0.31    1.72
   0   0 -11    0.11    5.28
   0   0  11    0.81    8.02
   0   0 -11    0.44    3.39
   0   0  11    2.38    3.42
   0   0  11    1.10    6.62
   3   0  -9    0.29    5.38
  -3   0  -9    3.74    5.48
   3   0   9    3.50    3.43
  -3   0   9    0.72    5.79
   3   0  -9    0.54    9.39
   3   0  -9    1.52    2.98
  -3   0  -9    1.21    5.89
  -3   0   9    0.37    8.52
   3   0   9    0.20    6.06
   3   0   9    2.24   17.66
   3   0  -9    1.01    5.40
   3   0  -9    0.30    7.06
  -3   0   9    0.52    8.53
   3   0   9    0.27    4.66
   0   8  -3 1321.56  372.35
   0  -8   3 1256.55  339.45
   0  -8  -3 1443.32  412.14
   0   8   3 1393.65  414.18
   0  -8   3 1212.54  329.82
   0   8  -3 1355.13  377.91
   0  -8  -3  839.69  710.99
   0  -8  -3 1315.56  383.16
   0  -8  -3  739.77  660.10
   0  -8  -3 1189.76  287.93
   0  -8   3 1339.32  346.69
   0   8  -3 1157.44  937.59
   0   8   3 1323.99  314.56
   0   8   3 1229.52  281.66
   0  -8   3  925.93  770.60
   0  -8   3  882.81  469.70
   0   8   3 1371.92  418.26
   0  -8  -3  475.80  386.83
   0   8  -3 1334.41  386.30
   0   8  -3 1271.53  360.61
  -4  -1   7  112.55  173.53
   4   1   7  160.60  140.62
   4  -1  -7   72.58   63.18
   4   1   7  270.16   56.37
   4  -1  -7  285.91   95.15
   4  -1   7  122.50  116.34
  -4   1   7  280.24   97.62
   4   1   7  286.98   93.65
  -4   1  -7  283.88   99.75
   4   1   7  276.45   94.09
  -4  -1  -7  305.14  110.80
  -4  -1  -7  268.40   69.93
  -4   1  -7  289.56  115.49
   4   1   7  132.77  239.03
  -4   1  -7  230.01  226.42
   4  -1   7  307.55  102.77
   4   1  -7  251.85   73.98
  -4  -1  -7  185.90  174.75
   4   1  -7  280.16   72.44
   4  -1   7  301.40   77.48
  -4  -1   7  285.09   96.48
   0  -7   6    0.29    2.42
   0   7  -6    0.05    2.91
   0  -7  -6    0.13    2.51
   0  -7  -6    0.35    3.38
   0  -7  -6   -0.01   11.21
   0  -7  -6    0.64    6.93
   0   7   6    0.07    2.98
   0  -7   6    0.23    1.29
   0  -7   6    0.90    1.44
   0  -7   6    0.29    3.08
   0   7   6    0.11    5.13
   0  -7   6    1.12    9.16
   0   7   6    0.08    0.91
   0   7  -6    0.30   11.34
   0   7  -6    0.32    2.28
   0   7   6    0.13    1.64
   0   7  -6    0.30    1.95
   0   7  -6    0.28    2.89
   5  -1  -3    7.05    5.09
  -5   1  -3    7.36   12.90
  -5  -1   3    6.12    8.85
  -5   1   3    6.84    9.31
   5  -1   3    5.97   12.38
  -5  -1  -3    5.73    3.81
  -5  -1   3    4.44   27.39
   5   1  -3    5.56    4.77
   5  -1   3    6.59    8.93
  -5  -1  -3    8.61   12.01
  -5   1   3    1.39   11.86
   5  -1  -3    6.55    7.42
  -5   1   3    8.27    8.85
   5   1   3    7.00   10.16
  -5  -1   3    6.51    5.73
   5  -1   3    6.94    6.50
  -5   1  -3    7.64    8.54
  -5  -1   3    7.36    5.12
   5   1  -3    6.59    7.00
  -5  -2   2    0.14   16.65
  -5   2  -2    1.06    5.91
   5  -2  -2    0.67    4.85
  -5   2   2    0.70    5.12
   5  -2  -2    0.85    3.08
   5   2   2    0.99    2.23
   5  -2   2    0.96    3.12
   5   2   2    2.86    3.81
  -5   2  -2    0.75    5.19
   5  -2  -2    1.75    2.04
   5   2  -2    0.80    1.84
  -5  -2   2    2.06    2.63
   5   2  -2    1.63    1.82
  -5   2   2    0.83    3.75
  -5  -2  -2   -0.48   14.36
   5  -2   2    1.09    3.70
  -5   2   2    1.80    3.99
   5  -2  -2    0.90    1.79
   5   2  -2    0.52    4.30
  -5  -2   2    0.71    3.90
   0  -1  11    0.28    2.49
   0   1  11    0.32    2.67
   0  -1 -11    1.16    2.80
   0  -1 -11    2.07    2.69
   0  -1 -11   -0.06    9.37
   0   1 -11    0.46    4.39
   0   1 -11    0.25    5.03
   0   1  11    1.29   13.25
   0   1 -11    0.01    1.73
   0   1  11    0.72    7.34
   0   1 -11    0.03    5.02
   0  -1 -11    0.01    4.34
   0  -1  11    2.20    1.82
   0   1 -11    1.02    2.46
   0   1 -11    5.26   13.49
   0  -1  11    0.78    9.81
   0   1  11    1.17    2.49
   0   1  11   -0.02    3.89
   3  -1  -9  149.12   35.83
   3   1  -9  160.60   48.98
   3  -1   9  158.43   65.12
   3  -1   9  178.62   76.05
   3   1   9  159.06   60.01
  -3   1   9  101.28   65.31
  -3  -1  -9  144.14   56.07
   3   1   9   69.11   96.24
  -3   1   9  155.16   65.70
  -3   1  -9  162.76   86.73
  -3  -1  -9  161.65   68.83
  -3   1  -9  146.90   58.91
   3   1   9  156.00   43.36
   3   1  -9   95.50   98.07
   3   1   9  441.75  188.09
   3  -1  -9  334.21   93.46
  -3   1  -9  105.27  155.85
   3  -1  -9  159.36   61.47
   3  -1  -9  154.01   60.34
  -3  -1   9  150.45   60.86
  -3   1   9    3.89   71.23
   3   1  -9  154.99   58.29
   3  -1   9   67.61  102.67
   3  -1   9  163.49   52.34
   3  -1   9   66.82  160.28
   3   1  -9  168.16   65.90
   3  -1  -9  179.10   75.92
  -3  -1   9   98.75  138.43
  -3  -1   9   86.20   88.86
  -3  -1  -9   61.94   92.90
   4  -3  -6   13.95   24.72
   4  -3   6   58.73   32.51
  -4   3  -6   43.72   30.90
  -4  -3   6   20.34   92.35
   4   3   6   41.06   24.83
   4   3   6   46.01   90.69
   4  -3  -6   39.49   24.94
   4   3  -6   36.73   16.55
   4  -3  -6   50.02   34.08
  -4   3   6   45.07   31.16
  -4   3  -6   45.64   34.85
  -4  -3   6   44.73   28.92
   4  -3  -6   41.94   17.72
   4  -3   6   39.83   23.40
   4   3  -6   42.45   21.73
  -4   3   6   45.98   30.12
  -4  -3  -6  104.60   40.94
  -4  -3  -6   48.35   36.14
  -4  -3  -6  151.28   57.94
   4  -3   6   46.35   25.92
  -4  -5  -3   18.20   28.78
   4  -5   3   31.88   70.68
   4  -5   3   48.29   30.25
   4   5   3   52.74   30.30
   4  -5  -3   44.50   21.63
  -4  -5  -3   54.07   36.19
   4  -5   3   48.29   17.61
  -4   5  -3   37.34   94.57
   4  -5  -3   22.63   55.98
  -4   5  -3   57.59   40.01
  -4   5  -3   52.45   32.73
   4   5  -3   48.49   28.56
  -4  -5   3   53.91  130.74
   4  -5  -3   52.80   27.70
   4  -5  -3   50.80   30.13
  -4   5   3   52.48   31.13
  -4  -5  -3   18.51   96.36
   4   5   3   43.82   21.69
  -4  -5  -3   27.34   40.82
   4   5  -3   53.43   29.97
   4  -5   3   54.89   34.02
  -4   5   3   59.71   39.59
  -4   4  -5  454.94  148.22
   4  -4  -5  175.58  139.45
   4  -4  -5  477.77  158.11
   4   4  -5  376.10   88.29
  -4  -4  -5 1392.58  344.21
   4  -4   5  472.33  144.15
   4  -4   5  477.40  160.49
   4   4   5  454.18  108.09
   4  -4  -5  378.73  112.80
   4   4   5  420.07  127.54
  -4  -4  -5  170.51  239.09
   4  -4   5  188.77  173.27
   4  -4   5  417.56  114.38
   4   4  -5  428.92  132.11
  -4  -4  -5  475.59  194.34
  -4   4   5  495.02  164.70
  -4  -4  -5  489.30  176.20
  -4   4   5  488.89  160.41
   4  -4  -5  449.69  123.31
  -4  -4   5  468.01  147.39
  -4   4  -5  486.44  178.24
  -4  -4   5  182.25  359.37
  -2   2  10  101.51   50.03
   2  -2  10   98.89   37.72
   2   2 -10  102.12   42.68
  -2   2  10  326.06  116.18
   2   2  10   98.52   26.63
  -2  -2 -10  103.67   40.98
   2  -2  10  107.57   45.01
   2   2 -10  113.15   46.71
  -2  -2 -10  106.01   50.42
  -2  -2 -10  236.84  111.58
   2  -2 -10  102.00   46.63
  -2   2  10   98.65   33.37
  -2   2  10   28.07   33.63
   2  -2  10  153.92  133.36
  -2  -2 -10   95.90   29.36
   2   2  10  106.29   43.68
  -2  -2 -10   95.63   29.37
   2  -2  10  106.39   51.50
  -2  -2  10   38.94   70.18
   2   2  10  159.81  136.93
  -2   2 -10   71.91  138.20
   2  -2 -10  100.37   28.34
  -2   2 -10  108.35   54.44
   2   2  10  105.78   48.13
   2  -2 -10  226.35   84.60
  -2   2 -10   85.94   34.55
  -2  -2  10   99.96   52.55
   2   2  10  280.17  125.60
  -2  -2  10   90.62   40.44
   2  -2  10   38.39   86.27
   2   2 -10  116.21   59.34
   2  -2 -10  104.46   46.04
   2   2 -10   55.49   97.95
   0   5  -9    0.55    1.82
   0  -5  -9    0.32    3.14
   0  -5   9    0.40    3.18
   0   5   9    0.03    3.37
   0  -5  -9    0.26    6.99
   0  -5  -9    0.43    9.92
   0   5  -9    0.22    3.76
   0   5   9    0.74    2.76
   0  -5  -9    0.23    2.57
   0   5   9    1.12    3.30
   0   5  -9    0.18    1.94
   0   5  -9    1.56    3.55
   0   5   9    0.09    1.65
   0  -5  -9    0.39    2.09
   0  -5  -9    0.17    1.48
   0  -5   9    0.29    3.66
  -1   0 -11    0.33    2.22
   1   0  11    0.36    2.20
  -1   0 -11    0.72    3.78
   1   0 -11    0.04    3.13
   1   0  11    0.44    3.93
   1   0  11    0.18    8.21
   1   0 -11    0.81    3.97
  -1   0 -11    0.67    2.95
   1   0 -11    0.32    2.69
  -1   0  11    0.66    3.50
  -1   0  11    0.81    2.78
   1   0  11    0.85    1.57
  -1   0 -11    0.54    2.50
  -1   0  11    0.28    7.81
  -2  -5  -8  350.78  137.13
  -2   5   8  293.77   98.77
   2  -5  -8  279.69   95.75
   2  -5  -8  125.28  153.48
  -2  -5  -8  751.31  289.54
   2  -5   8  122.04  163.53
   2   5  -8  215.60  230.46
   2  -5   8  304.91  106.23
  -2   5  -8  307.91  121.75
   2  -5   8  286.20   97.92
   2   5  -8  319.83  110.95
   2   5  -8  310.39  112.89
  -2  -5  -8  291.40   93.76
  -2  -5  -8  229.95  182.72
   2   5   8  310.79  102.63
   2   5  -8  273.80   94.59
   2   5  -8  270.57   87.68
  -2   5   8  362.26  142.37
   2   5   8  290.18  117.14
  -2   5  -8  320.96  130.79
   2  -5   8  303.60   99.35
  -2   5  -8  274.79   85.52
   2  -5  -8  278.73   99.19
   2   5   8  301.71   89.62
   2  -5  -8  307.37   94.46
   2   5   8  182.44  180.87
  -2  -5   8  293.71  121.26
   1   8   3    1.42    4.04
   1  -8  -3    0.46   29.00
   1   8  -3    7.90    4.94
  -1   8  -3    1.79    7.55
   1  -8  -3    2.00    8.44
  -1  -8  -3    0.31   16.13
   1  -8   3    2.26    5.62
  -1  -8   3    4.01    4.58
   1  -8   3    1.89    5.18
   1  -8  -3    2.79    8.43
  -1   8  -3    1.34   40.06
  -1   8  -3    1.91    7.22
  -1   8  -3    3.28    5.71
  -1  -8   3    1.23   24.79
  -1   8  -3    2.51    4.84
  -1  -8   3    1.49    4.96
  -1  -8   3    1.83   15.99
  -1  -8  -3    1.00   20.90
  -1  -8   3    1.57    3.66
   1   8   3    2.16   12.84
   1  -8  -3    1.33   26.82
   1  -8   3    1.65   27.61
  -1   8   3   10.54   10.06
   1   8  -3    1.56   30.90
   1  -8  -3    1.43    4.30
  -1   8   3    2.16    6.33
   1   8   3    4.67    7.51
   1   8  -3    2.09    6.22
  -1  -8  -3    8.50    8.61
  -1  -8  -3    1.88    7.83
   1   8  -3    2.27    8.24
   1  -8   3    1.33    6.33
   1   8  -3    2.13    7.08
  -1  -8  -3    1.98   23.89
   1  -8   3    1.61    5.96
  -3   7   0    0.54    5.76
   3  -7   0    0.50    2.71
   3  -7   0   -0.15    3.77
  -3  -7   0    0.13    9.99
  -3  -7   0   10.32   10.13
   3   7   0    1.68    4.55
  -3  -7   0    0.80   18.69
   3   7   0    0.69    3.63
  -3   7   0    1.48    4.97
   3  -7   0    0.63    4.65
  -3  -7   0    0.88    4.64
   3  -7   0    0.32    5.24
   3   7   0    0.15    3.54
  -1  -7  -6    9.29   46.76
  -1  -7  -6   14.25   18.69
   1  -7   6    9.98   48.66
   1   7  -6   11.67   13.64
  -1  -7  -6   11.49   12.53
  -1   7   6   12.62   10.87
   1   7  -6   12.45   12.34
  -1  -7  -6    9.14   35.35
  -1  -7  -6    3.27   22.12
   1  -7   6   14.50    9.89
   1  -7   6   11.20   14.33
   1  -7   6   11.23    9.08
   1   7  -6   11.80   15.16
   1   7  -6   11.95   12.20
  -1   7   6   14.56   16.42
  -1   7  -6   12.00   10.62
  -1   7  -6   11.99   14.67
  -1  -7   6    8.43   37.58
   1   7   6   14.29   16.72
   1  -7  -6   13.29   16.75
  -1   7  -6    8.83   61.37
   1   7   6    9.98    6.92
   1  -7  -6    9.70    8.42
   1  -7  -6    9.82   69.12
  -1  -7   6   13.49   17.60
   1  -7  -6   11.39   12.81
   1  -7  -6   12.61   63.05
  -1   7  -6   12.45   16.87
  -1  -7   6   13.11   12.04
  -1   7  -6   11.13    8.11
   1  -7   6   12.55   12.85
  -1   7   6   15.81   19.64
   1   7  -6    9.76   68.14
  -2  -4  -9  777.10  254.82
  -2   4  -9  351.88  147.75
   2  -4  -9  324.64  111.29
   2   4   9  350.99  115.97
   2  -4  -9  330.43  113.51
   2   4   9  328.19   89.37
  -2   4  -9  304.97  105.49
   2   4  -9  347.34  122.42
   2   4   9  883.86  333.93
  -2  -4  -9  326.84   99.66
   2  -4  -9  135.22  153.14
  -2   4   9  404.90  152.10
   2  -4   9  330.57  114.57
  -2  -4  -9  394.27  146.94
   2   4  -9  322.19  103.90
   2  -4   9  348.96  111.22
   2   4  -9  264.36  272.56
   2   4   9  847.03  298.49
  -2  -4   9  329.63  133.30
   2  -4  -9  337.39  113.38
   2   4   9  337.54  113.49
   2  -4   9  230.23  197.89
   2  -4   9  345.46  120.79
  -2   4  -9  344.44  134.17
  -2  -4   9  296.76  101.43
   2  -4  -9  324.20   93.33
   3  -7  -1  637.82  232.24
  -3   7  -1  639.17  223.43
   3   7   1  631.36  194.60
   3   7   1  541.33  171.20
   3  -7  -1  513.37  167.97
   3   7   1  534.13  148.53
   3  -7   1  623.00  197.36
  -3   7   1  390.33  395.36
   3   7  -1  624.55  196.77
  -3  -7  -1  342.38  306.85
  -3  -7  -1  637.43  236.41
  -3  -7  -1  276.88  448.22
   3  -7   1  605.56  223.00
  -3   7   1  659.40  224.64
   3  -7  -1  544.93  151.81
  -3  -7  -1  354.94  317.06
   3   7  -1  555.05  178.62
   3   7  -1  548.66  137.88
   3  -7   1  552.93  179.75
  -3   7   1  704.74  246.88
   3  -7   1  551.52  143.69
   3  -7  -1  618.83  197.85
  -3   7  -1  673.40  226.97
  -3   7  -1  728.44  497.53
  -3  -7   1  375.22  318.42
  -3  -7   1 1986.80  518.83
  -3  -7   1  649.37  209.94
  -3  -7   1  240.01  437.79
   5   3   0    0.40    3.02
   5  -3   0    0.23    2.63
   5  -3   0    0.24    1.72
   5   3   0    0.24    1.96
  -5  -3   0  -11.05   11.81
  -5   3   0    0.28    2.83
   5   3   0    0.59    1.44
  -5   3   0    0.14    1.47
  -5  -3   0    1.07    2.18
   5  -3   0    0.14    1.07
   0   6  -8   27.98   88.84
   0  -6  -8   39.33   27.04
   0   6   8   41.91   28.57
   0   6   8   34.90   15.59
   0   6   8   36.22   23.44
   0  -6   8   28.82   13.76
   0  -6  -8   34.59   20.81
   0  -6   8   38.53   23.44
   0   6  -8   38.59   27.02
   0  -6  -8   14.60   55.99
   0  -6  -8   30.66   12.99
   0  -6  -8   21.13   70.88
   0   6  -8   39.29   17.64
   0  -6   8   33.90   11.96
   0   6   8   18.46   17.69
   0  -6  -8   37.84   16.36
   0   6  -8   38.56   27.79
   0   6  -8   35.71   17.62
   1  -1 -11   87.63   42.40
   1   1  11   78.75   25.85
  -1  -1 -11   87.66   34.07
   1   1 -11   84.48   33.36
  -1   1  11   79.84   35.18
  -1  -1 -11   88.71   40.45
  -1  -1 -11   81.20   34.15
   1  -1  11   73.50   25.47
   1   1  11   42.86   82.12
   1   1  11   83.37   32.54
  -1   1 -11   91.51   38.46
  -1   1 -11   89.50   45.71
   1   1 -11   48.81  102.30
  -1   1  11   28.14   48.66
  -1   1 -11   71.52   25.84
  -1  -1  11   37.72   73.68
   1  -1 -11   87.70   36.22
  -1  -1  11   71.16   30.26
  -1   1 -11   49.70  122.06
   1   1 -11   87.05   43.85
   1   1  11  202.80   97.57
   1  -1 -11  173.46   82.36
  -1  -1 -11   81.43   26.04
   1  -1 -11   92.19   44.01
  -1  -1  11   89.36   43.19
   1  -1 -11   76.55   22.91
   1   1  11   91.27   54.07
  -1   1 -11   83.55   23.83
   1   1 -11   89.67   39.93
   1  -1  11   90.45   44.52
   1  -1  11   34.87   82.58
  -1   1  11   80.47   27.50
   1  -1  11   81.14   33.81
   1   1 -11   95.78   47.08
  -1   1  11  239.78  125.22
   1  -1  11   63.60   94.72
  -1  -1 -11  133.19   99.87
  -1   1  11   90.32   38.66
  -4  -2  -7   47.16   35.31
   4   2   7  122.41  104.22
   4   2   7   24.64   46.26
  -4   2  -7   36.56   90.37
  -4  -2   7   41.92   28.33
   4   2  -7   55.67   35.89
  -4   2  -7   41.81   29.69
   4   2   7   43.82   25.95
  -4   2  -7   46.32   43.69
  -4   2   7   45.61   30.38
   4  -2  -7   36.84   12.88
   4  -2   7   42.52   25.87
  -4  -2   7  209.42   71.89
  -4   2   7   44.10   27.47
   4   2  -7   41.54   20.04
   4  -2  -7   43.40   27.17
   4  -2   7   15.13   40.25
   4  -2   7   44.75   21.65
   4   2   7   43.34   29.67
   4   2  -7   39.13   25.45
  -4  -2  -7   19.99   50.13
   4  -2   7   47.24   29.03
   5   0  -4 2671.98  584.46
  -5   0  -4 3258.72  761.38
  -5   0   4 1245.79  922.19
  -5   0   4 2924.48  729.86
  -5   0  -4 3252.53  943.26
   5   0  -4 3066.56  705.56
   5   0  -4 3052.82  640.08
   5   0   4 3397.53  931.12
   5   0  -4 3130.27  823.97
   5   0   4 3272.06  875.69
   5   0   4 2821.72  598.87
  -5   0   4 3240.63  871.10
   5  -2   3  672.74  185.06
  -5   2  -3  809.74  248.00
  -5   2  -3  773.07  246.36
   5  -2   3  649.56  174.10
  -5   2   3  730.66  209.78
  -5  -2  -3  738.06  233.53
   5  -2  -3  747.50  197.36
   5   2  -3  684.26  197.20
  -5  -2  -3  288.66  354.03
   5   2  -3  610.02  140.12
   5  -2  -3  661.19  188.70
  -5  -2   3  301.13  385.32
  -5  -2   3  638.47  144.76
   5   2   3  676.99  195.32
  -5  -2   3  722.11  208.12
   0   2  11  435.98  191.23
   0  -2  11   87.35  131.31
   0  -2  11  178.51   55.27
   0  -2 -11  201.90   74.50
   0  -2 -11  461.89  172.73
   0   2  11  196.33   65.41
   0   2  11  202.11   65.69
   0   2 -11  221.56   85.49
   0   2 -11  218.78   89.38
   0  -2 -11  195.10   72.27
   0   2  11  225.02   73.81
   0  -2 -11  215.84   76.32
   0   2 -11  212.77   86.26
   0   2  11  677.52  249.11
   0   2 -11  200.35   58.87
   0  -2  11  183.18   47.21
   0  -2 -11  209.83   72.00
   0   2 -11  112.07  177.92
   0  -2  11  203.49   80.61
  -3  -2   9   91.43  157.85
   3   2   9  376.34  170.80
   3   2  -9  139.81   52.95
   3   2   9  139.80   55.08
  -3  -2  -9  123.83   30.18
   3  -2   9  364.29  188.08
  -3  -2  -9  279.70  124.90
  -3   2   9  142.68   64.81
  -3  -2  -9  127.37   44.01
   3  -2   9   55.49   91.86
   3  -2   9  157.51   61.23
  -3   2  -9  147.85   69.15
   3   2   9  141.44   61.27
  -3   2  -9  128.27   52.29
   3   2  -9  102.08  109.66
   3   2  -9  177.09   71.10
  -3  -2  -9  150.78   70.06
   3  -2   9  146.55   52.80
   3   2   9  131.20  135.61
  -3  -2   9   55.09   61.03
  -3   2  -9  103.67  172.90
  -3  -2   9  133.65   57.71
   3  -2  -9  141.03   58.17
   3  -2  -9  139.96   58.58
   3  -2  -9   56.12   63.31
   3   2  -9  142.29   49.91
   3  -2   9  140.47   60.26
   3  -2  -9  154.47   67.35
  -5   3   1   51.95   33.21
  -5   3   1   48.42   20.33
   5   3  -1   45.58   28.15
  -5   3   1   49.40   26.78
  -5   3  -1   54.91   34.38
   5  -3  -1   42.76   16.05
  -5   3  -1   50.52   30.60
  -5  -3  -1   20.54   91.54
  -5  -3  -1   48.85   25.84
   5   3  -1   37.47   13.72
   5   3   1   46.89   19.02
   5  -3   1   39.17   14.16
   5  -3   1   45.35   25.76
  -5  -3   1   47.00   19.93
   5  -3  -1   45.40   27.17
   5   3  -1   50.91   23.42
  -5  -3   1   18.26   94.17
   5   3   1   39.96   18.05
   0   4  10  236.14   70.37
   0   4  10  227.03   80.74
   0   4  10  566.60  162.03
   0   4 -10  230.45   92.84
   0   4 -10  246.04   72.88
   0   4 -10  216.18   64.21
   0  -4  10   82.26  123.59
   0  -4  10  224.51   91.11
   0  -4 -10  240.99   77.00
   0  -4 -10  252.48   91.30
   0   4  10  256.55   92.17
   0  -4 -10  223.87   76.98
   0  -4 -10  205.48   67.03
   0  -4 -10  845.56  305.78
   0   4 -10  243.38  102.36
   0  -4  10  237.70   94.33
   0  -4 -10  437.07  182.92
  -3   6  -5  225.91  278.90
  -3  -6  -5   97.62  171.40
  -3  -6  -5  138.32  143.72
   3  -6   5  196.91  241.72
   3   6   5  275.27   91.49
   3   6   5  311.66   93.50
   3   6  -5  296.86  102.78
  -3   6   5  367.92  140.80
   3   6   5  169.88  125.77
  -3   6  -5  290.28   97.73
   3  -6  -5  190.46  197.91
   3  -6   5  298.06  103.75
  -3  -6   5   83.26   82.90
   3   6  -5  306.60  114.18
   3   6  -5  272.21  218.90
  -3   6  -5  317.73  126.30
  -3   6   5  325.85  114.08
  -3  -6  -5  332.46  135.97
  -3  -6   5  295.66  245.37
   3  -6  -5  265.92   89.79
   3  -6  -5  312.95  100.46
   3   6  -5  285.67   72.02
   3  -6   5  306.53  109.07
   3  -6   5  285.24   89.48
   3   6  -5  280.32   96.51
  -3  -6  -5  196.04  197.90
   0   8  -4    2.71    6.26
   0   8   4    1.94    2.73
   0   8  -4    4.29   34.18
   0  -8  -4    1.66   24.55
   0  -8  -4    2.69    8.75
   0  -8   4    2.02    3.93
   0   8  -4    2.61    6.41
   0  -8  -4    1.77    6.82
   0   8   4    5.11    9.29
   0  -8   4    1.99   22.72
   0   8  -4    2.50    7.30
   0   8   4    2.39    4.18
   0  -8   4    2.02    6.68
   0   8   4    3.03    8.43
   0  -8  -4    0.28    9.33
   0  -8   4    1.78    5.12
   0   8  -4    7.07    5.57
   0  -8  -4    2.15    3.21
   0  -8  -4    2.38   24.95
  -2   7  -5  964.57  331.62
  -2  -7  -5 1043.84  324.71
  -2   7   5 1046.68  304.85
  -2   7  -5  897.91  213.75
   2  -7  -5  795.36  235.28
   2  -7   5  905.83  275.67
   2  -7   5  972.49  275.64
  -2  -7  -5  434.80  391.32
   2   7   5 1014.81  292.87
   2  -7   5  971.35  265.18
  -2   7  -5 1079.32  302.02
   2  -7   5  968.88  292.85
   2   7  -5  953.60  238.61
   2   7  -5  986.82  309.95
  -2   7  -5 1047.83  340.14
   2   7  -5  949.01  288.59
   2   7   5  821.98  232.87
  -2  -7   5  696.21  481.03
  -2  -7   5 1044.97  318.60
   2  -7  -5  600.24  545.54
   2  -7  -5 1020.41  296.74
  -2  -7   5  472.16  412.29
   2   7  -5  973.13  310.41
  -2   7   5 1103.83  368.01
   2   7  -5  868.08  650.86
  -2  -7  -5  648.04  558.48
   2  -7   5  623.03  586.03
   2   7   5  901.42  267.15
  -5   1   4    0.39    3.55
   5   1  -4    0.70    2.81
   5  -1  -4    0.63    3.65
  -5  -1  -4    2.13    5.00
   5  -1  -4    0.80    2.17
   5  -1   4    2.36    2.35
   5  -1   4    0.69    5.00
   5   1  -4    0.76    2.47
  -5   1   4    0.57    4.09
  -5   1   4    0.08    4.29
   5  -1   4    0.29    3.70
   5   1   4    0.46    4.42
  -5  -1   4    0.84   10.45
   5  -1  -4    0.23    1.64
  -5   1  -4    0.54    3.36
  -5   1  -4   -0.02    5.60
  -5  -1   4    0.30    3.90
   1   5  -9  258.69   83.29
   1  -5  -9  266.97   93.16
   1   5   9  331.49  166.66
  -1   5  -9  241.22   67.55
   1  -5  -9  276.01   89.04
   1  -5  -9  104.38  189.56
  -1   5   9  337.89  126.59
   1   5  -9  307.86  100.21
   1   5  -9  264.62   94.48
  -1  -5  -9  252.46   81.99
   1  -5  -9  242.37   78.71
   1   5   9  285.10   93.42
   1   5  -9  289.24  110.72
  -1   5   9  287.10  103.57
  -1  -5  -9  696.90  285.34
  -1  -5  -9  231.91   60.31
  -1  -5  -9  327.39  123.20
  -1  -5  -9  248.73  185.76
   1   5   9  276.11   83.92
  -1   5  -9  289.39  118.11
  -1   5  -9  252.03   66.21
  -1  -5  -9  268.53   71.93
   1  -5   9  272.02   78.19
  -1  -5   9  290.42  107.94
  -1   5  -9  285.02   72.19
  -1   5  -9  286.37  111.72
  -1  -5   9  268.58  108.46
   1  -5  -9  285.01   93.75
   1   5   9  277.93   97.16
  -2  -6   7   18.47   40.42
  -2   6  -7   62.08   41.36
   2  -6   7   55.67   27.56
  -2   6   7   70.81   47.91
  -2  -6  -7   24.19   66.41
   2  -6   7   56.90   29.91
  -2  -6  -7   59.27   28.41
  -2   6   7   55.88   29.78
   2  -6   7   16.53   66.16
  -2  -6  -7   36.03   70.13
   2  -6  -7   62.24   31.36
   2   6  -7   58.72   34.46
  -2   6  -7   61.98   39.18
  -2  -6  -7   66.86   45.89
   2   6  -7   42.29   87.55
   2   6  -7   60.68   32.42
   2   6  -7   56.48   26.53
   2   6  -7   57.63   31.32
  -2   6  -7   53.86   26.15
   2   6   7   29.87   36.85
  -2  -6   7   60.56   41.29
   2  -6  -7   53.22   30.78
   2   6   7   64.62   30.48
   2  -6  -7   52.55   26.45
   2  -6  -7   23.71   67.53
   3  -7   2   34.00   14.68
   3   7   2   32.42   19.24
   3  -7  -2   40.31   27.98
  -3  -7   2   19.76   44.72
   3  -7  -2   39.96   34.69
   3  -7  -2   31.57   19.73
   3  -7   2   36.15   28.32
  -3   7   2   41.75   32.95
   3   7  -2   32.29   12.50
   3  -7   2   34.55   16.47
  -3  -7  -2   14.85   80.76
  -3  -7  -2   21.21   50.97
  -3  -7   2   40.29   19.46
   3   7   2   38.68   26.45
  -3   7  -2   24.77  100.95
   3  -7   2   35.16   24.54
   3   7  -2   38.31   31.55
  -3   7  -2   40.22   25.03
   3   7  -2   38.40   28.45
   3   7  -2   28.30   57.32
  -3  -7  -2   38.99   33.82
  -3  -7  -2   20.70   57.54
   3  -7   2   24.05   84.38
   3   7  -2   34.67   23.78
  -3   7   2   35.44   84.85
  -3   7   2   43.07   34.01
   3  -7   2   37.76   27.23
   3   7   2   31.77   20.46
  -3   7  -2   40.02   34.38
  -2  -8   0  284.57  308.89
  -2  -8   0  966.29  451.57
   2   8   0  429.36  154.76
   2  -8   0  391.56  124.05
   2   8   0  395.08  119.18
   2  -8   0  422.88  148.71
  -2   8   0  488.92  182.25
  -2   8   0  433.96  156.20
   2   8   0  337.37  337.22
  -2  -8   0  428.75  158.00
   2  -8   0  385.27  130.89
   2  -8   0  425.70  162.79
   2   8   0  415.89  161.67
   2   8   0  390.83  127.89
   5  -3   2   76.70   34.59
   5   3  -2   79.70   34.62
   5  -3   2   61.80   21.82
  -5  -3  -2   82.39   40.65
   5   3   2   66.51   27.82
  -5   3  -2   84.44   44.98
  -5  -3   2   68.97   23.03
   5  -3  -2   69.10   25.38
   5  -3  -2   81.72   36.56
   5  -3  -2   74.45   38.79
   5   3  -2   71.35   35.96
  -5   3   2   74.69   31.08
  -5   3  -2   79.33   42.53
  -5   3   2   83.22   43.68
   5   3   2   70.46   24.26
   5   3  -2   55.43   19.32
  -5  -3   2   64.07  129.55
   4   5   4   67.49   30.61
   4   5  -4   71.13   36.39
   4  -5   4   79.88   45.09
  -4   5  -4   87.94   52.18
   4   5  -4   66.54   18.76
  -4   5   4   87.55   48.81
   4  -5   4   74.18   26.16
   4  -5  -4   79.03   35.49
   4  -5  -4   94.33   44.42
  -4   5  -4   77.98   42.12
  -4  -5  -4   83.26   50.36
  -4  -5  -4   29.22   39.80
   4  -5  -4   40.57   73.10
   4  -5  -4   70.04   30.45
   4   5   4   81.52   30.12
  -4   5  -4   65.40  135.21
  -4  -5   4   30.72  150.68
   4   5  -4   81.39   40.23
   4  -5   4   32.51   57.51
  -4  -5  -4   51.71   68.28
  -4   5   4   85.64   44.78
   4  -5   4   77.05   39.40
  -2   8  -1  291.26   92.94
  -2  -8   1  245.42  269.20
  -2  -8   1 1235.29  425.88
   2   8  -1  307.89  117.47
   2   8   1  276.89   92.78
   2  -8  -1  311.46  127.89
   2  -8  -1  282.80  108.31
  -2   8   1  328.65  121.56
  -2  -8  -1  309.48  122.98
   2  -8   1  289.39  102.67
   2   8  -1  294.73  118.24
   2   8  -1  261.99  264.67
   2   8  -1  273.85   95.86
   2  -8   1  173.48   97.57
  -2   8  -1  345.55  130.90
  -2   8  -1  313.45  121.48
   2  -8   1  287.93   91.50
   2  -8   1  299.39  109.70
   2   8  -1  292.50   85.70
  -2  -8  -1  126.59  247.08
  -2  -8  -1  182.00  218.66
  -2   8   1  358.49  143.35
  -2  -8  -1  162.34  213.18
   2  -8   1  304.52  119.88
  -2  -8   1  292.75  109.86
   2  -8  -1  270.57   94.37
   2   8   1  303.71  117.72
   2  -8  -1  305.53  112.44
   2   8   1  285.92   92.06
   2   8   1  296.10  123.41
  -1  -6  -8    2.98    2.66
   1  -6  -8    3.76    4.86
   1   6   8    5.09    7.96
   1   6   8    1.55    7.55
  -1  -6   8    3.80   10.25
  -1   6  -8    3.55    9.54
  -1   6  -8    3.96   10.23
   1   6   8    4.75    8.05
  -1  -6  -8    2.61   20.70
   1   6  -8    3.15    7.65
   1  -6  -8    3.53    7.80
   1  -6   8    4.16    8.20
  -1  -6  -8    3.77    6.18
  -1  -6  -8    2.18   21.89
   1  -6   8    3.04    4.65
  -1   6   8    6.82   10.87
   1   6  -8    3.54    6.55
   1  -6   8    3.24    4.55
  -1   6  -8    1.90   34.31
   1  -6   8    5.80    8.70
   1   6  -8    4.53    9.46
  -1   6  -8    3.18    3.70
  -1  -6   8    4.19    7.68
   1  -6  -8   30.74   21.96
   1   6  -8    7.19    6.88
  -1   6   8    4.16    8.59
   1  -6  -8    3.52    8.32
   1   6   8    3.44    5.50
   1   6  -8    3.87   29.50
  -1   6  -8    2.88    4.54
  -1   6   8    4.02    6.43
   3   4   8  104.11   30.28
   3   4  -8  169.38   66.74
   3   4   8  106.25   47.13
  -3  -4   8   73.75  116.86
   3   4   8  151.69  134.10
   3  -4   8  111.72   47.57
   3   4  -8  100.07   47.59
   3  -4  -8  105.49   47.85
  -3   4   8  128.98   67.74
   3  -4  -8   42.98   64.01
  -3  -4  -8  125.05   66.29
  -3  -4  -8  381.07  132.23
   3  -4   8  112.31   50.33
  -3  -4  -8   51.47   73.82
   3  -4  -8  105.97   36.21
  -3   4  -8  111.14   60.56
   3   4   8  113.54   53.60
   3  -4  -8  111.32   65.78
  -3  -4   8  100.77   46.51
  -3   4  -8  144.48  202.36
  -3  -4  -8  107.40   42.17
  -3   4   8  104.43   49.63
   3   4  -8  110.12   48.32
   3  -4   8  105.30   46.37
  -3   4  -8   92.83   41.39
   3  -4   8   63.04   93.48
   1  -2  11  162.58  218.83
   1   2  11  765.65  344.12
  -1   2  11  358.72  118.23
  -1  -2 -11  859.69  293.77
   1   2 -11  373.37  126.24
   1   2 -11  360.99  110.35
  -1  -2 -11  344.21   95.78
   1  -2 -11  354.24   95.02
   1   2  11  367.02  114.51
   1  -2 -11  370.90  117.47
   1  -2 -11  380.18  128.03
  -1  -2  11  158.14  188.80
  -1  -2  11  372.86  134.65
   1   2  11  317.70   88.02
  -1  -2 -11  369.43  118.37
  -1  -2 -11  380.11  118.93
  -1   2  11  362.18  109.95
  -1   2 -11  220.63  293.48
   1   2  11  386.89  125.43
   1   2 -11  405.72  146.57
  -1   2  11 1217.68  384.27
  -1   2  11  389.89  119.19
   1   2  11 1017.94  332.89
   1  -2 -11  377.58  124.61
   1  -2 -11  795.18  249.35
  -1   2 -11  296.61   82.96
  -1  -2 -11  356.74  106.08
  -1   2  11  118.35  119.56
   1  -2  11  342.35   95.77
   1   2 -11  215.20  247.28
   1  -2  11  368.16  129.75
   1   2 -11  374.93  130.85
   1  -2  11  147.16  241.69
  -1   2 -11  384.67  136.57
   1  -2  11  393.49  137.55
   1   4  10  277.20   89.49
  -1   4 -10  230.43   65.76
   1  -4 -10  275.22   92.28
   1  -4 -10  251.82   87.47
   1  -4 -10  268.06   95.43
   1  -4  10  260.55  100.71
   1  -4  10  266.89   76.78
  -1   4  10  275.71   98.46
  -1  -4 -10  218.36   62.48
  -1  -4 -10  594.08  220.06
  -1  -4 -10  302.57  114.33
  -1   4  10  313.81  119.00
   1  -4 -10  256.72  165.85
  -1   4 -10  288.90  122.01
   1   4  10  777.37  259.57
  -1   4 -10  276.44  113.03
   1  -4 -10  263.28   85.34
   1   4  10  276.88   97.16
   1   4  10  282.46   90.17
   1   4 -10  257.83   98.84
   1   4 -10  272.39  109.19
   1  -4  10  799.23  253.59
  -1  -4 -10  269.66   79.57
   1  -4  10  276.94  105.66
  -1  -4 -10  243.79   78.83
   1   4 -10  310.09  102.94
   1   4  10  702.84  256.00
   1   8  -4  323.81  115.76
   1   8   4  333.33  125.67
   1  -8   4  316.26  102.54
  -1  -8  -4  327.04  119.89
   1  -8   4  332.67  112.82
  -1  -8  -4  193.48  261.56
  -1   8  -4  334.65  111.84
   1  -8  -4  299.09  108.83
   1  -8  -4  272.35   85.10
   1   8  -4  318.30   96.47
   1   8  -4  328.69  113.02
   1  -8  -4  347.47  125.51
   1  -8   4  192.53  257.87
  -1  -8  -4  126.06  169.10
   1  -8   4  315.87  102.66
   1   8  -4  288.98  351.62
  -1   8   4  396.92  150.37
  -1  -8  -4  185.51  234.79
   1   8  -4  373.20  124.47
  -1   8   4  316.61   98.97
  -1  -8   4  226.15  190.14
   1  -8  -4  195.17  284.13
  -1   8  -4  342.71  142.52
   1  -8  -4  231.19  303.50
  -1  -8   4  329.93  105.92
  -1  -8   4  304.43   89.89
   1   8   4  359.72   95.90
  -1  -8   4  281.24   78.34
  -1   8  -4  312.03  111.10
  -1  -8   4  210.18  252.63
   1   8   4  334.28  118.45
  -1   8  -4  300.49   93.03
  -1   8  -4  305.42  420.49
   1  -8  -4  351.44  134.05
   1  -8   4  300.51  101.58
   3  -5   7   16.92   52.73
  -3  -5  -7   21.34   47.44
   3   5  -7   40.60   26.00
  -3  -5  -7    0.21   19.56
  -3  -5  -7   14.72   61.06
  -3   5   7   44.71   29.01
  -3  -5  -7   70.16   57.20
   3  -5   7   45.54   26.55
  -3   5   7   53.60   39.68
  -3   5  -7   23.45  102.49
  -3   5  -7   46.50   34.95
   3  -5  -7   41.00   26.17
   3   5   7   42.35   24.97
   3  -5   7   42.14   36.96
   3   5  -7   38.04   17.92
   3   5  -7   49.46   30.30
   3   5   7   45.41   19.05
  -3   5  -7   40.46   23.71
  -3  -5   7   32.52   72.51
   3  -5  -7   46.91   21.78
   3   5  -7   43.17   27.27
  -3  -5  -7   49.94   38.53
   3  -5  -7   41.04   26.91
   3  -5   7   41.72   22.70
   3   5   7   66.56   49.36
   3  -5  -7   18.01   45.78
   2   3  10 1180.71  270.51
   2  -3 -10 1792.90  583.45
  -2  -3  10  485.22  391.16
   2  -3 -10 1261.40  385.56
   2   3  10 3183.69  979.32
  -2   3 -10 1044.35  285.14
  -2  -3  10 1218.06  408.26
  -2  -3  10 1014.89  294.13
   2  -3 -10 1169.66  281.62
   2  -3  10  823.15  656.35
   2   3  10 3754.91 1076.12
   2   3 -10 1471.20  429.30
   2   3 -10 1222.99  365.76
   2  -3 -10 1244.19  366.03
  -2   3 -10  898.44  770.92
   2  -3 -10 1273.85  359.84
   2   3  10 1295.73  371.65
  -2  -3 -10 1390.91  421.15
   2  -3  10 1281.79  353.32
  -2  -3 -10 3046.50  854.06
  -2  -3 -10 1011.10  236.51
   2  -3  10 1287.19  369.47
   2  -3  10 1260.60  369.16
   2   3 -10 1248.37  363.12
  -2  -3 -10 1197.49  330.64
   2   3 -10  886.25  662.99
  -2  -3 -10 1141.81  304.59
  -2   3  10 1378.35  419.48
   2  -3  10  459.22  415.27
  -2   3 -10 1298.49  411.66
   2   3  10 1299.72  370.32
  -2   8  -2   31.61   27.97
  -2  -8  -2   13.17   62.63
  -2   8  -2   33.04   25.33
  -2  -8  -2   29.56   65.44
   2  -8   2   28.62   17.07
   2  -8   2   29.51   23.49
   2   8  -2   23.54   70.13
  -2  -8  -2   31.71   28.02
   2   8  -2   28.61   26.01
   2  -8   2   30.00   23.28
  -2   8   2   31.91   26.31
   2   8   2   28.81   19.97
  -2  -8   2   15.18   69.52
  -2   8  -2   25.33  107.58
  -2  -8  -2   14.40   57.34
   2  -8  -2   30.62   25.68
   2  -8  -2   31.49   28.44
  -2  -8   2   29.68   19.70
   2  -8   2   28.77   20.53
  -2   8   2   33.42   31.18
   2  -8   2   26.77   13.00
   2   8  -2   27.89   19.65
   2  -8  -2   27.44   20.43
   2  -8  -2   24.99   17.61
   2   8  -2   30.09   26.54
  -2   8  -2   28.19   17.43
  -2  -8   2   25.58   12.03
   2   8   2   29.86   26.37
   2   8   2   29.46   21.64
   5   2  -4   18.50   14.58
  -5   2  -4   20.59   18.31
  -5   2   4   19.29   18.20
  -5  -2   4    8.05   52.82
   5  -2  -4   17.80   19.05
   5  -2  -4   18.19   11.55
   5   2   4   18.37   15.89
  -5   2   4   18.48   16.66
  -5  -2  -4   18.58   20.15
   5  -2   4   17.22   13.22
   5   2  -4   15.88    8.99
   5  -2   4   18.99   28.59
   5  -2   4   16.73   12.30
  -5  -2   4   24.50   17.05
  -5   2  -4   19.93   21.61
   4  -6   0   75.78   49.47
   4   6   0   62.91   23.29
   4  -6   0   75.17   40.87
  -4   6   0   47.52   94.82
   4  -6   0   64.61   36.78
  -4   6   0   74.58   33.50
  -4  -6   0   73.58   34.14
   4   6   0   75.75   37.64
   4  -6   0   61.49   21.88
  -4  -6   0  291.66  159.96
   4   6   0   61.65   34.09
  -4   6   0   80.98   52.74
   0  -7  -7    0.35    2.81
   0   7   7    0.91    3.28
   0   7  -7    0.26   12.95
   0  -7   7    0.08    1.39
   0  -7   7    2.49    3.61
   0  -7   7    0.93    3.03
   0  -7   7    0.15    1.96
   0   7  -7    0.26    3.43
   0  -7  -7    0.08    8.00
   0  -7   7    0.61    6.49
   0   7   7    0.38    3.99
   0  -7  -7   -0.01    1.36
   0   7  -7    0.37    2.41
   0   7  -7    0.54    2.16
   0  -7  -7    7.86   12.52
   0   7  -7    0.58    3.41
  -3  -7   3    2.95   18.60
   3  -7   3    6.75   11.51
  -3  -7  -3    5.48   19.49
   3  -7   3    6.91   10.45
   3   7   3    6.66    8.13
  -3  -7   3    1.83   49.17
   3  -7   3    6.33    5.71
  -3  -7  -3    4.83   23.18
   3   7  -3    5.85   12.51
   3   7  -3    7.13   13.14
   3  -7  -3    4.16   30.91
  -3   7   3    7.45   15.13
  -3  -7  -3    7.57   15.42
   3  -7   3    6.08   38.21
   3   7  -3    4.11   24.14
  -3  -7  -3    3.76   34.81
   3  -7  -3    7.16   11.63
   3   7  -3    6.20    9.81
   3  -7   3    7.14   11.34
  -3   7  -3    6.94   14.92
   3  -7   3    6.48    5.22
   3  -7  -3    5.49    9.03
   3  -7  -3    5.17    8.88
  -3   7  -3    6.48   48.63
  -3   7  -3    8.61    8.73
   3   7   3    6.26    8.63
   3   7   3    6.46   10.88
  -4   0  -8  738.08  235.98
  -4   0   8  278.79  299.62
   4   0   8  729.10  229.54
   4   0  -8  806.74  252.77
  -4   0   8  732.58  236.77
   4   0   8  778.41  243.54
   4   0   8  745.53  179.78
   4   0   8 2057.79  743.72
   4   0  -8  698.51  202.14
  -4   0  -8  735.88  244.16
   4   0   8  645.07  334.28
  -4   0  -8  953.94  526.64
   4   0  -8  712.21  167.55
  -4  -4   6  168.69   68.20
   4   4  -6  148.28   56.29
  -4   4  -6  125.99  183.59
  -4   4  -6  158.59   66.34
   4  -4  -6  139.56   54.93
   4   4   6  152.70   40.96
  -4  -4   6   97.29  206.92
   4  -4  -6  171.35   73.71
   4  -4   6  148.96   63.55
  -4  -4  -6  346.51  115.93
   4  -4   6  174.63   67.58
   4  -4   6  170.73   72.78
   4  -4   6   69.48   94.59
  -4  -4  -6  554.70  155.20
   4   4   6  154.10   61.92
   4  -4  -6  161.59   52.71
   4   4  -6  134.08   39.74
  -4   4   6  175.96   74.39
  -4   4  -6  173.48   84.00
  -4  -4  -6  178.52   86.42
   4   4  -6  197.09   85.82
  -4   4   6  176.10   77.96
   4  -4  -6   61.37   72.64
  -4  -6  -1 1445.80  280.92
  -4  -6   1   43.94  193.97
   4   6   1   93.36   43.58
   4  -6  -1   86.48   31.00
   4  -6   1  103.07   57.96
  -4   6   1  113.03   63.54
  -4   6   1  103.77   47.85
   4  -6   1  108.95   54.67
   4   6  -1   85.96   42.39
  -4   6  -1  110.04   65.22
   4  -6  -1  108.34   50.50
  -4   6   1   63.52  111.71
  -4  -6  -1  105.23   50.92
  -4   6  -1   98.78   37.97
   4   6   1  104.68   45.08
   4  -6   1   75.09  119.93
   4   6   1   87.71   32.41
  -4  -6   1   94.95   36.10
  -4   6  -1 1013.00  214.18
   4  -6   1   84.42   25.77
   4   6  -1  103.31   48.15
   4  -6  -1  102.77   49.79
   4  -6   1   86.47   44.43
   4   6  -1   83.64   26.79
  -4   3  -7    2.12    7.33
   4   3   7    1.18    5.13
  -4  -3  -7    1.11    9.55
  -4   3   7    1.65    6.22
   4  -3  -7    1.56    7.07
   4   3  -7    2.05    4.36
  -4  -3  -7    1.68    7.94
   4  -3   7    1.38    5.67
   4  -3  -7    0.71    3.95
  -4   3   7    1.34    6.70
  -4   3  -7    1.38    5.92
   4   3  -7    1.42    3.43
   4  -3   7    1.56    5.00
   4  -3   7    0.94    9.05
   4  -3   7    1.44    4.77
  -4  -3  -7    5.95    8.27
   4  -3  -7    1.27    5.58
   4   3   7    1.95    6.40
  -4  -3   7    2.27    6.00
   4  -3  -7    0.46    5.12
   4   3   7   22.62   21.39
  -5   3   3    1.44    3.90
   5  -3   3    0.57    3.89
   5  -3  -3    0.44    3.24
   5   3  -3    0.38    4.20
  -5   3   3    2.73    5.57
  -5  -3   3   -1.22   17.72
   5  -3   3    0.71    2.70
  -5   3  -3    0.53    9.52
   5   3   3    0.61    3.58
  -5  -3  -3   -0.14   14.93
  -5   3  -3    0.27    5.71
  -5  -3   3    1.40    4.28
   5  -3  -3    0.86    3.70
   5   3  -3    1.45    1.66
  -5   3  -3    0.68    5.66
   5   3   3    0.75    2.05
  -5  -3  -3    2.70    5.36
  -5   0   5   -0.01    4.20
  -5   0   5   -0.21    7.55
   5   0   5    0.20    4.56
   5   0   5    0.05    2.73
  -5   0   5    0.05    3.16
  -5   0  -5    0.17    5.32
   5   0  -5    0.79    4.15
   5   0  -5    1.46    2.10
  -5   0  -5    1.56    2.57
   5   0   5    0.31    4.76
   0   3  11    0.51    3.33
   0  -3 -11    0.10    3.26
   0   3  11    0.61    2.76
   0   3  11    2.14    5.53
   0  -3  11    0.78    2.03
   0   3 -11    0.69    1.97
   0  -3 -11   -0.02    2.64
   0   3 -11    1.52    4.41
   0  -3  11    0.32    7.92
   0   3 -11    1.72   17.55
   0   3  11    0.30    2.73
   0  -3 -11    0.62    3.17
   0  -3 -11    0.65    2.79
   0  -3  11    0.02    4.48
   0   3  11    0.68   10.51
   0   3 -11    1.15    4.83
   0  -3 -11    1.52    8.06
   3   3   9  193.83  119.29
  -3   3  -9   47.41  131.03
  -3   3  -9   57.44   30.22
  -3   3  -9   66.80   43.36
  -3  -3   9   59.03   33.36
   3  -3  -9   62.86   35.08
   3   3   9   65.25   37.65
   3   3  -9   49.24   76.50
   3  -3  -9   62.69   35.37
   3   3   9   65.95   34.11
   3  -3  -9   69.05   38.81
  -3  -3   9   24.88   40.65
   3   3   9  166.88   92.74
   3  -3   9   64.44   36.07
  -3   3   9   71.79   44.94
   3  -3   9   71.18   35.08
  -3  -3  -9   74.15   46.44
   3  -3  -9   26.81   43.83
   3   3  -9   75.82   41.00
  -3  -3   9   40.09   85.52
  -3  -3  -9  163.20   76.03
   3  -3   9   23.06   62.15
   3   3  -9   66.24   32.67
   3  -3  -9   57.04   19.72
   3   3  -9   60.10   29.50
   3  -3   9   66.12   32.96
  -4   1  -8  162.71   72.10
   4   1  -8  155.27   48.62
   4  -1  -8  151.01   60.73
   4   1  -8  138.27   52.28
   4  -1   8  170.55   69.44
  -4  -1  -8  100.27  136.01
   4  -1   8  163.25   51.88
  -4   1   8  155.87   70.15
  -4  -1  -8  163.45   78.81
  -4  -1   8  102.39   97.88
   4  -1  -8  162.14   69.69
  -4   1  -8  117.43  166.71
   4  -1   8  149.01   63.87
   4   1   8   85.77  111.14
   4   1   8  511.86  302.99
   4   1   8  159.75   65.68
   4   1   8  152.22   67.33
   4   1  -8  173.31   90.14
  -4  -1   8  154.27   69.00
  -4   1  -8  166.69   70.35
   0  -8  -5  267.95  127.11
   0  -8   5  252.58   94.71
   0   8   5  257.12  102.32
   0  -8  -5  141.40  227.32
   0  -8   5  148.30  219.73
   0   8   5  272.76  114.51
   0   8   5  242.80   68.33
   0   8  -5  226.08  329.38
   0   8  -5  239.77   82.65
   0   8  -5  250.14   90.53
   0   8  -5  250.90   93.56
   0   8  -5  248.63   89.17
   0  -8   5  247.93   86.96
   0  -8   5  235.27   71.27
   0  -8  -5  208.79   63.15
   0  -8  -5  185.76  274.50
   0  -8   5  211.17   71.71
   5   1   5   18.58   17.83
   5   1   5   19.25   21.21
   5  -1   5   16.32   10.25
   5  -1   5   19.01   20.50
   5   1  -5   17.84   11.58
  -5  -1  -5   19.22   21.72
   5  -1   5   18.18   16.91
   5   1  -5   18.52   11.80
  -5   1   5   17.03   15.38
  -5  -1   5   27.35   19.50
  -5   1   5   18.05   17.68
   5  -1  -5   15.22    8.26
  -5   1  -5   19.65   14.38
   5  -1  -5   16.71   16.20
  -5   1  -5   19.68   22.05
  -5  -1   5    7.87   40.63
   4   6   2  658.90  214.35
   4  -6  -2  794.10  239.70
  -4   6  -2  827.37  292.03
   4   6   2  663.88  185.57
  -4   6   2  802.00  270.09
   4  -6   2  803.62  254.86
   4  -6  -2  705.47  231.35
  -4  -6   2  593.25  681.23
   4  -6  -2  660.65  179.91
   4   6   2  797.70  228.64
   4   6  -2  676.82  217.33
   4  -6   2  830.36  290.09
   4  -6   2  688.23  222.76
  -4  -6  -2  817.36  288.10
   4  -6   2  544.72  456.09
   4   6  -2  814.15  241.30
  -4  -6  -2  309.53  454.63
  -4   6  -2  582.84  533.83
   4  -6  -2  430.94  351.51
   2   0  11    0.46    4.09
  -2   0 -11    2.25   12.43
  -2   0 -11    0.31    2.38
  -2   0  11    0.59    3.29
   2   0 -11    0.36    3.90
   2   0 -11    0.11    3.04
  -2   0 -11    0.64    3.80
   2   0  11    0.53    8.69
   2   0 -11    0.29    7.69
  -2   0  11    0.57    3.45
   2   0 -11    0.36    4.30
   2   0  11    0.82    9.94
  -2   0  11    0.35    8.58
   2   0  11   -0.02    2.44
   2   0 -11    1.19    2.38
  -2   0 -11    0.80    3.10
  -2  -8  -3   78.97  142.33
   2  -8   3   87.64  178.79
  -2   8   3  152.90   78.78
   2  -8   3  128.65   55.44
  -2  -8  -3  142.39   72.54
  -2  -8   3  128.95   49.17
  -2   8  -3  116.86  232.82
  -2   8  -3  143.87   69.74
   2   8   3  122.31   52.50
   2  -8   3  123.18   42.34
   2   8  -3   96.96  144.61
  -2  -8  -3   77.88  128.12
   2   8  -3  127.81   68.04
   2   8  -3  137.16   64.90
  -2  -8   3  127.45  149.74
   2   8  -3  132.79   64.70
   2  -8   3  133.06   71.21
  -2  -8  -3   45.91  118.16
  -2  -8   3  127.63   45.62
  -2  -8   3  112.08   33.25
   2   8  -3  126.68   37.44
   2  -8  -3  144.88   64.76
  -2   8  -3  118.01   40.11
  -2   8  -3  136.35   55.26
   2  -8  -3  145.92   73.91
   2  -8   3  129.83   58.89
   2  -8  -3   79.76  160.84
  -2  -8   3   70.97  121.34
   2  -8  -3  119.52   52.58
   2   8   3  137.37   64.41
  -2   8  -3  153.64   63.68
   2   8   3  124.76   44.84
  -3   6  -6   88.78  167.55
   3  -6  -6  122.06   58.23
   3  -6  -6  107.05   48.31
   3  -6  -6   54.97   83.35
  -3   6  -6  114.25   48.34
  -3  -6   6   32.99   47.67
   3   6   6   68.71   66.87
  -3  -6   6   86.78  128.02
   3  -6  -6  109.06   46.89
  -3   6  -6  124.56   83.24
   3  -6   6  119.41   51.89
   3   6  -6  106.09   33.68
   3  -6   6  122.42   54.41
  -3   6   6  148.31   74.58
   3   6  -6  102.96  120.84
   3  -6   6   47.23   89.34
   3   6  -6  114.86   51.97
  -3  -6  -6   42.79  101.12
  -3  -6  -6  136.15   72.75
   3   6   6  116.79   49.48
  -3  -6  -6   48.46   76.27
   3  -6   6  112.84   50.15
  -3  -6  -6   80.00  108.60
   3   6  -6  124.17   57.05
   3   6  -6  113.23   50.39
   3   6   6  120.87   43.51
  -5   4   0    1.24    1.96
  -5  -4   0    0.75   15.01
   5   4   0    0.79    2.78
   5  -4   0    0.10    1.57
  -5   4   0    0.04    3.89
   5   4   0    0.69    1.76
   5   4   0    0.28    3.97
  -5  -4   0    0.47    2.63
  -5   4   0    0.22    4.92
  -1  -7   7  467.59  153.34
   1   7   7  483.18  161.01
  -1  -7   7  456.09  165.15
  -1   7   7  487.63  177.85
  -1  -7  -7  454.72  144.24
   1   7  -7  448.67  155.60
   1  -7   7  439.45  145.95
  -1  -7  -7  191.87  234.19
  -1  -7  -7  280.89  320.85
   1   7  -7  431.36  134.82
   1   7  -7  435.45  139.51
   1  -7   7  449.77  147.50
   1  -7  -7  187.32  227.02
  -1  -7  -7  484.38  173.69
   1  -7   7  171.69  212.25
  -1   7  -7  459.55  160.43
   1   7  -7  439.58  135.38
   1  -7   7  421.04  132.35
   1   7  -7  328.45  348.61
   1  -7   7  401.17  113.52
  -1  -7  -7  144.04  159.20
  -1   7   7  442.06  128.00
  -1   7   7  457.65  164.30
   1  -7  -7  358.74  106.34
   1  -7  -7  352.32  403.74
  -1   7  -7  328.20  394.65
  -1   7  -7  449.02  180.56
   1   7   7  362.63   98.29
  -1   7  -7  427.30  115.68
   1  -7  -7  482.90  157.06
   1   7   7  412.85  140.51
  -1  -7   7  157.08  174.79
  -1   7  -7  418.19  121.06
  -2   7  -6  214.04  309.89
   2   7   6  303.00  104.60
   2   7   6  267.71   97.12
  -2   7  -6  310.61   96.40
   2   7  -6  288.41  100.25
   2   7  -6  261.66  280.27
   2   7  -6  283.90  102.71
   2  -7   6  277.31   97.64
   2  -7   6  277.50   92.72
  -2  -7  -6  105.84  152.53
   2  -7   6  294.41  121.71
   2  -7  -6  307.80  105.96
   2   7  -6  282.25   83.05
  -2   7  -6  255.96   66.45
   2  -7  -6  259.60  111.47
  -2  -7  -6  326.86  134.97
   2   7  -6  287.53  106.46
  -2   7   6  322.42  135.61
   2  -7   6  283.41   92.13
   2  -7   6  180.80  270.22
   2  -7  -6  179.66  318.88
  -2  -7   6  320.70  114.80
  -2  -7   6  205.00  203.04
   2   7   6  158.06  110.73
  -2   7  -6  295.49  117.98
  -2   7  -6  308.13  124.27
  -2  -7  -6  287.51  104.07
  -2  -7  -6  128.83  171.12
  -2  -7   6   87.56  105.36
  -2  -7  -6  189.45  234.23
   3   0 -10    0.70    6.71
   3   0  10    5.17   16.86
  -3   0  10    1.19    5.48
   3   0 -10    1.66    9.84
   3   0  10    0.81    3.33
  -3   0 -10   28.80   16.57
  -3   0  10    0.34    8.84
  -3   0 -10    3.12    5.59
   3   0 -10    0.62    5.12
  -3   0 -10    1.07    5.20
   3   0  10    8.98   11.50
   3   0  10    1.00    6.07
   3   0 -10    1.81    5.20
   3   0 -10    0.56    2.83
   3   0  10    0.40    4.32
  -3   0  10    0.44    8.55
   4   5   5    1.12    3.93
   4  -5  -5    0.11    6.95
  -4  -5  -5    1.25    6.65
  -4  -5  -5    1.51    9.02
  -4   5   5    0.71    5.94
   4  -5   5    1.40    4.74
  -4  -5  -5    0.22    5.80
   4   5  -5    1.57    5.16
   4  -5   5    0.03    5.41
   4   5  -5    0.77    1.94
   4  -5  -5    0.93    3.78
  -4   5  -5    1.95    6.60
   4  -5  -5    1.27    4.95
  -4   5  -5    3.09   15.54
   4   5   5    0.79    8.79
  -4  -5  -5   -0.29   13.56
   4  -5   5    0.40    8.27
   4  -5   5    1.18    3.08
   4   5   5    1.07    2.94
   4   5  -5    1.02    4.38
  -4  -5   5    2.28   22.09
  -4   5  -5    1.11    4.98
   4  -5  -5    0.96    3.97
   4   5  -5    0.86    6.03
  -5   4  -1    1.79    7.35
   5  -4  -1    1.30    5.74
  -5  -4   1    1.85    3.18
  -5   4   1    1.98    3.61
   5   4  -1    0.73    2.17
   5   4  -1    2.61    4.57
  -5  -4  -1    1.15   21.61
   5   4  -1    1.38    5.74
  -5   4  -1    1.09    6.02
  -5  -4   1   -0.43   22.43
   5   4   1    1.08    3.08
   5  -4  -1    1.45    2.88
   5  -4  -1    1.62    5.74
   5   4   1    1.75    3.66
   5  -4   1    1.30    5.34
  -5  -4  -1    2.40    4.96
   5   4   1    1.72    6.06
  -2   1  11    0.41    3.19
  -2   1 -11    0.01   14.22
  -2   1 -11    0.19    3.00
  -2  -1  11    0.49    3.58
   2  -1 -11    0.72    3.78
   2   1 -11    3.02    3.41
   2  -1  11    1.10   10.17
   2  -1  11    0.37   11.71
  -2   1  11    0.34    4.00
   2  -1  11    0.56    3.53
  -2  -1 -11    0.18    2.38
  -2   1 -11    0.32    4.63
   2   1  11    5.78   11.51
   2  -1 -11    1.85    4.38
  -2  -1  11    0.48    4.42
   2   1  11    0.54    4.61
   2   1  11   -1.41    9.63
   2  -1 -11    3.95    4.69
   2  -1 -11   -0.19    6.58
   2   1  11    0.16    3.22
   2  -1  11    0.48    2.68
  -2   1  11    3.55    9.32
   2   1 -11    0.34    4.28
   2   1 -11    0.21    5.10
  -2   1  11   -0.22    4.25
   2  -1  11    1.01    4.75
   2   1 -11    3.44    9.98
   2   1 -11    0.36    3.13
  -2  -1  11    0.30    7.07
  -2  -1 -11   -0.56    9.69
  -1   3  11   93.62   87.24
   1  -3 -11  306.99   91.02
   1  -3  11  280.92   79.50
  -1  -3 -11  307.91  107.48
   1   3  11  316.07  105.28
   1  -3 -11  593.04  199.70
   1   3  11  297.30   89.57
  -1  -3  11  304.89  118.90
  -1  -3 -11  273.15   81.80
  -1   3 -11  338.72  139.43
   1  -3 -11  310.69  119.20
  -1  -3  11  115.25  146.35
  -1   3 -11  203.33  297.77
   1  -3 -11  301.08  101.17
   1   3  11  806.98  261.36
   1   3 -11  212.99  273.84
   1   3  11  913.84  320.10
  -1   3 -11  254.49   71.88
  -1  -3  11  267.14   87.46
  -1   3 -11  324.51  125.50
   1  -3  11  311.75  115.20
   1   3 -11  308.63  114.93
  -1   3  11  941.68  313.35
   1   3 -11  304.32  112.66
  -1  -3 -11  283.54   86.01
   1   3 -11  325.01  103.21
   1  -3 -11  310.59  119.14
   1   3  11  321.50  106.35
  -1   3  11  308.15  102.05
   1  -3  11  323.57  119.31
  -1  -3 -11  760.43  260.95
   1   3 -11  338.67  130.59
  -1   3  11  320.71  113.88
   1  -3  11  118.49  175.92
   1  -8  -5 1908.51  550.77
  -1  -8   5 1836.63  522.91
  -1   8  -5 1703.22  529.55
   1  -8   5 1010.57  865.27
   1  -8   5 1659.60  446.74
  -1  -8  -5  575.07  501.41
  -1  -8   5 1038.56  852.49
   1  -8  -5 1084.62  926.43
   1  -8  -5 1608.21  472.10
   1   8  -5 1691.76  457.89
   1   8   5 1825.61  551.19
  -1  -8   5 1232.02  729.08
   1  -8  -5 1211.67 1001.15
  -1   8  -5 1831.67  552.58
  -1  -8  -5 1709.80  518.54
   1   8  -5 1728.03  520.52
   1   8  -5 1773.37  512.89
   1  -8   5 1755.67  503.92
  -1  -8  -5 1924.35  590.31
   1   8   5 1513.87  384.76
  -1  -8   5 1673.58  408.69
  -1  -8   5 1474.04  354.73
   1   8  -5 1589.84 1184.30
   1   8   5 1697.77  504.33
  -1   8  -5 1806.69  497.96
   1  -8  -5 1444.55  391.30
  -1   8  -5 1621.43  445.01
   1  -8   5 1751.56  490.56
  -1   8   5 1941.13  610.80
  -1  -8  -5 1170.51  982.31
  -1   8  -5 1646.49 1329.60
   1   8  -5 1812.92  537.26
  -1  -8  -5 1058.87  906.73
  -1   8   5 1734.41  463.95
   1  -8  -5 1945.63  599.06
   1  -8   5 1603.11  455.15
   3   1  10    5.19   10.84
  -3   1  10    3.46   10.63
   3  -1  10   11.27    7.39
   3  -1  10    4.11   10.96
   3   1 -10    2.45   17.96
   3   1 -10    4.52    9.69
  -3  -1 -10    5.79    8.46
   3   1  10   20.33   29.80
   3   1 -10    4.13    6.60
  -3  -1 -10    4.48   30.92
  -3  -1 -10    4.33   11.04
   3   1 -10    4.07    9.80
  -3   1 -10    4.66   11.17
  -3   1 -10    4.57   32.17
   3  -1 -10    7.92   12.17
   3   1  10    3.89   29.83
  -3  -1  10    3.51   17.12
   3   1  10    7.36    8.33
  -3  -1  10    5.47   14.02
   3  -1 -10    8.00   12.46
   3  -1 -10    3.80    9.38
  -3  -1  10    4.26    9.69
  -3   1 -10    3.61    9.02
   3  -1 -10    4.25    9.87
   3  -1  10    4.49    7.82
   3  -1  10   10.50   34.34
   3  -1  10   13.10   23.10
  -3   1  10    1.67   16.45
  -3  -1 -10    4.66    4.51
   3   7   4    0.35    3.93
   3  -7   4    0.27    2.72
  -3   7  -4    2.60    6.67
   3  -7  -4    0.00   13.43
  -3  -7   4   14.57   16.10
   3   7   4    0.27    3.16
   3  -7  -4    0.49    3.99
   3  -7  -4    5.17    5.68
  -3   7   4    0.22    6.71
   3  -7   4   -0.11    4.68
  -3  -7  -4    0.49    9.06
  -3  -7  -4    0.88    6.95
  -3   7   4    0.40    5.64
   3   7  -4    0.40    4.25
   3   7  -4    0.83    5.36
   3   7   4    0.58    4.62
  -3   7  -4    1.87   21.70
  -3  -7   4   -0.20    7.76
   3  -7  -4    7.10    4.94
   3  -7   4    0.12    4.58
  -3  -7  -4    2.04   14.26
   3   7  -4   -0.33    9.98
  -3  -7  -4    0.67   17.56
   3  -7   4    0.15    4.74
   3  -7   4   -1.18   16.41
   3   7  -4   -0.57    7.37
   0  -9   0    3.87    4.29
   0   9   0    0.18    2.85
   0  -9   0   -1.11   10.40
   0   9   0    0.44    6.35
   0  -9   0    0.22    4.72
   0  -9   0    0.08    5.65
   0  -9   0    0.42    2.70
   0   9   0    2.45    3.67
   4   2   8   13.49   37.74
  -4  -2   8   26.22   22.14
  -4  -2  -8   21.27   69.44
  -4   2  -8   20.51   72.57
   4   2   8   73.52   80.09
   4  -2  -8   25.13   28.42
  -4   2  -8   26.93   24.78
   4  -2   8   26.53   16.31
   4  -2  -8    5.05   19.60
   4   2  -8   23.12   15.84
  -4  -2  -8   27.38   27.67
   4  -2   8   26.76   21.05
   4   2  -8   25.02   14.97
   4   2   8   24.10   22.70
  -4   2  -8   23.99   22.13
  -4  -2   8   17.64   43.16
   4  -2  -8   30.45   26.84
   4   2   8   26.41   19.67
  -4   2   8   25.03   23.54
   4  -2   8    8.66   32.24
   4   2  -8   33.57   26.17
   4  -2   8   27.21   21.06
  -2   5  -9  148.28   77.32
   2   5   9  136.40   54.45
   2  -5  -9  127.95   57.33
  -2  -5   9   41.13   65.02
  -2   5  -9  118.20   44.16
   2   5   9  103.13  114.90
   2  -5  -9  128.49   47.87
  -2  -5   9  133.28   69.41
  -2   5  -9  135.44   69.02
  -2  -5  -9  429.95  174.58
   2   5  -9  123.81   51.44
  -2   5   9  130.96   55.28
  -2  -5  -9  127.93   46.70
   2  -5   9  137.94   51.58
  -2  -5  -9  177.38  120.59
   2   5  -9  137.09   64.90
   2  -5   9  128.43   57.10
   2  -5  -9  123.77   63.13
   2   5   9  132.68   46.10
  -2  -5  -9  153.05   77.59
   2   5  -9  148.35   61.80
   2  -5   9  132.66   61.38
   2   5  -9  122.40   50.49
  -2   5   9  164.87   83.09
   2  -5  -9   52.66   91.66
   2   5   9  135.61   58.86
  -5  -3   4  156.29  303.52
  -5   3  -4  336.45  125.93
   5  -3  -4  327.34   98.91
  -5   3  -4  251.68  244.16
   5  -3   4  296.62   96.20
   5   3  -4  271.54   67.31
  -5  -3  -4  129.47  228.61
   5   3  -4  310.54  104.90
   5  -3   4  272.37   82.12
  -5  -3  -4  336.31  130.44
   5  -3  -4  296.30   92.90
  -5   3  -4  347.84  135.16
   5  -3   4  340.58  129.99
  -5   3   4  308.30  107.99
  -5  -3   4  326.31  113.15
   5   3   4  292.34   97.82
   0   9  -1    0.08    2.34
   0   9   1    0.04    2.16
   0  -9  -1    0.09    3.79
   0  -9  -1   -0.36    7.83
   0  -9  -1    1.63    4.05
   0  -9   1    0.48    2.11
   0   9   1    0.19    1.87
   0  -9  -1    0.19    3.27
   0   9  -1    3.98    4.27
   0  -9   1   -0.17    5.35
   0   9   1    0.72    4.44
   0   9  -1    0.02    2.74
   0  -9  -1    0.62    1.80
   0  -9   1    0.42    2.82
   0   9  -1   -0.00    3.21
  -5  -2  -5  929.90  320.37
   5  -2   5  809.75  233.62
   5   2  -5  859.08  246.13
  -5  -2  -5 1855.60  678.55
   5   2  -5  749.74  194.49
   5  -2   5  951.05  315.44
   5  -2   5  808.69  220.71
  -5  -2   5  890.00  278.01
  -5   2  -5  941.13  327.98
  -5   2  -5  922.54  308.94
  -5   2  -5  518.59  419.62
   5   2   5  856.14  264.07
  -5  -2   5  430.06  544.94
   5  -2  -5  811.25  216.07
  -5   2   5  909.12  279.22
   5  -2  -5  834.84  262.10
  -5   2   5  855.84  273.79
   5  -4  -2  543.50  168.53
   5   4   2  468.97  128.24
  -5   4   2  555.71  195.61
  -5  -4   2  209.27  368.55
  -5   4  -2  523.50  177.53
  -5  -4  -2  523.56  178.02
  -5   4  -2  211.26  248.05
   5  -4   2  477.70  155.92
   5  -4  -2  491.09  170.13
   5   4   2  429.78  123.83
  -5   4   2  479.47  146.92
   5  -4   2  399.78   99.09
  -5   4  -2  557.95  202.68
   5   4  -2  534.80  159.77
  -5  -4  -2  229.08  360.15
   5  -4  -2  451.51  123.90
   5   4  -2  463.70  157.80
   4  -6   3    7.03   21.93
  -4  -6  -3    1.93    9.87
  -4  -6  -3    1.12   12.08
   4  -6   3    1.93    8.81
   4   6   3    2.05    6.44
   4   6   3    4.37    7.66
   4  -6  -3    0.57   17.16
   4  -6  -3    1.89    5.35
   4   6   3    7.71    6.26
  -4   6  -3    2.51   27.62
   4  -6   3    1.94    7.71
   4  -6  -3    1.84    7.36
   4  -6  -3    3.20    7.58
   4  -6   3    2.92    4.80
   4   6  -3    2.19    6.99
   4  -6   3    1.93    8.45
  -4  -6  -3    1.53   26.91
   4   6  -3    2.73    7.59
  -4  -6  -3    1.25    8.71
  -4   6   3    2.66    8.84
  -4   6   3    2.08    9.96
  -4   6  -3    3.18   10.88
   0   5  10    1.84    4.44
   0  -5 -10   17.00   14.77
   0  -5  10    2.44    4.80
   0  -5 -10    0.17    2.85
   0  -5  10    0.81    4.19
   0  -5  10    0.50    7.85
   0   5 -10   -1.43   18.69
   0  -5 -10    0.06    2.03
   0   5 -10    0.74    4.82
   0  -5 -10   -0.02    3.28
   0   5 -10    2.00    5.08
   0   5 -10    1.32    2.53
   0   5  10    0.78    4.53
   0   5  10    0.21    3.58
   0  -5 -10    0.13    9.41
   0  -5 -10   -0.17    4.42
   0   5 -10    0.50    2.44
   0   0  12  355.21  101.94
   0   0  12  368.79   99.44
   0   0  12  408.80  133.34
   0   0 -12  422.89  139.76
   0   0  12  148.03  175.54
   0   0 -12  315.85   82.12
   0   0  12  176.18  211.23
   0   0 -12  239.95  357.14
   0   0 -12  428.50  140.90
   0   0 -12  389.76  109.54
   0   6  -9 1897.37  558.03
   0   6   9 1899.39  558.38
   0  -6  -9 1859.85  527.59
   0   6  -9 2056.06  543.32
   0  -6  -9  821.87  664.21
   0  -6  -9 1952.17  479.98
   0   6  -9 1785.08  468.09
   0   6   9 2108.63  610.23
   0   6  -9 1392.32 1085.71
   0  -6  -9 2093.08  597.54
   0  -6   9  758.10  627.40
   0   6  -9 1984.94  617.13
   0  -6   9 1983.41  587.67
   0  -6  -9 1177.42  947.95
   0  -6  -9 1637.05  416.76
   2  -6  -8  191.31   76.37
  -2  -6  -8  125.47  162.37
  -2   6  -8  223.75  100.98
   2   6   8  204.22   81.32
   2   6  -8  197.40   81.00
   2  -6  -8  220.13   76.57
  -2   6   8  206.27   75.30
   2  -6   8  199.85   74.86
   2   6   8  109.54   87.93
  -2  -6  -8  205.07   71.98
   2  -6  -8   97.57  141.34
  -2  -6  -8   90.48  130.87
   2  -6   8  211.07   83.04
  -2   6   8  260.45  113.90
   2   6  -8  197.26   73.94
  -2   6  -8  188.07   63.86
  -2   6  -8  215.92   96.51
   2   6   8  218.93   76.41
   2  -6  -8  184.76   67.59
  -2  -6   8   64.03   95.38
  -2  -6   8  211.36   96.57
  -2   6  -8  147.88  251.98
   2  -6   8  212.48   74.37
   2   6  -8  212.55   81.58
   2   6  -8  220.83   88.39
  -2  -6  -8  241.80  108.76
   0   1  12    0.35    2.47
   0  -1 -12    0.17    4.25
   0   1 -12    1.14    5.01
   0  -1  12    0.05    8.81
   0  -1  12    0.84    6.10
   0   1  12    0.34    2.30
   0  -1 -12    0.83    3.88
   0   1 -12    0.17    2.43
   0  -1  12    0.74    2.39
   0   1  12    0.82    7.25
   0   1  12   -0.36   13.55
   0  -1 -12    0.55    2.37
   0   1 -12   -0.06    4.38
   0  -1 -12    1.39    2.62
   0   1  12    4.24    3.76
   0  -1 -12   -0.87    9.70
   2  -2  11   41.70  129.65
   2  -2  11  100.73   48.17
   2   2 -11   51.60  102.63
  -2  -2 -11  101.01   50.76
   2   2 -11  101.81   46.25
  -2   2  11  307.20  123.72
  -2  -2  11   85.02   40.47
   2  -2 -11   99.28   48.47
  -2   2 -11   78.98   33.86
   2   2  11  102.29   50.78
  -2   2 -11  100.68   55.93
   2   2  11  268.78  130.12
   2  -2 -11   98.26   46.74
   2   2  11  104.18  141.92
  -2  -2  11   39.69   73.54
   2  -2 -11  214.04   87.19
  -2   2 -11   56.55  145.24
   2  -2  11  109.64  136.44
   2   2 -11   94.39   47.18
  -2   2  11   95.92   49.56
  -2  -2 -11   95.32   42.02
   2  -2  11   93.52   37.64
  -2  -2 -11   91.35   36.06
   2  -2  11  100.17   53.83
  -2  -2 -11  212.55  112.56
   2   2  11   96.93   43.42
  -2  -2  11   97.38   55.07
   2   2 -11  109.02   77.92
  -2   4  10    4.38   10.24
   2   4 -10    1.96    6.84
  -2  -4 -10    4.62   14.86
  -2  -4  10    1.84    8.55
   2  -4  10    2.01    4.73
   2  -4  10    2.25    7.57
   2  -4  10    0.79   23.12
  -2  -4 -10    1.57    4.23
   2  -4 -10    0.93   12.94
   2   4 -10   10.48    8.06
   2  -4  10    2.44    7.70
   2   4 -10    2.01   22.27
   2   4  10    1.98    6.60
   2   4  10    8.36   19.72
  -2  -4  10    1.26    5.74
   2  -4 -10    2.02    7.02
  -2  -4  10    7.51   11.77
   2  -4 -10    1.71    6.34
   2   4  10    2.17    4.14
   2   4 -10    2.09    7.01
  -2   4 -10    6.94    6.83
   2  -4 -10    1.94    4.52
  -2   4 -10    2.05    9.13
   2  -4 -10    2.12    6.61
   2   4  10    5.56   17.83
  -2   8  -4  274.39   80.13
   2   8  -4  301.31  109.63
   2  -8   4  294.72  110.17
  -2  -8  -4  332.07  139.74
   2  -8   4  303.06  107.43
   2  -8   4  296.61   92.66
  -2  -8  -4  172.76  212.13
  -2  -8  -4  122.35  201.08
   2   8  -4  272.81  301.45
   2   8  -4  293.76   82.92
   2   8  -4  318.33  119.45
  -2   8  -4  307.37  118.00
  -2  -8   4  215.77  218.43
  -2  -8   4  158.08  200.64
  -2   8  -4  355.33  121.91
   2  -8  -4  256.90   89.34
   2  -8  -4  193.27  271.01
  -2   8  -4  278.76  399.10
   2  -8   4  200.17  288.84
  -2  -8   4  316.73  106.32
   2  -8  -4  279.55  102.06
   2  -8  -4  324.11  121.25
  -2  -8  -4  331.80  127.02
  -2  -8  -4  188.82  315.35
   2   8  -4  309.96  121.39
  -2   8   4  341.26  121.06
   2  -8  -4  348.31  142.30
   2   8   4  281.94  102.98
   2   8   4  328.44  140.88
  -2   8  -4  333.24  133.01
   2   8   4  268.62   86.87
  -2   8   4  355.43  147.69
   2  -8   4  308.62  112.06
   0   9  -2    0.29    2.89
   0   9  -2    0.19    2.67
   0  -9   2    1.54    2.58
   0   9  -2    0.04    4.20
   0  -9  -2    1.34    3.88
   0   9   2    0.04    4.71
   0  -9  -2    0.03    1.69
   0  -9   2    0.50    3.23
   0  -9  -2   -1.38    8.93
   0  -9  -2    1.04    4.05
   0  -9   2   -0.12    6.02
   0  -9  -2    1.78   12.30
   0   9   2    0.19    3.14
   0   9  -2    0.40    3.17
   0  -9  -2    0.70    3.46
   1  -9   0    1.91    4.83
   1   9   0    0.31    3.74
   1   9   0    0.21    3.36
   1  -9   0    0.21    2.34
  -1   9   0    0.45    3.29
  -1  -9   0   -0.04    2.52
   1  -9   0    1.12    5.18
   1   9   0    0.54    4.52
  -1   9   0    0.05    1.89
  -1   9   0    1.57    4.24
   1  -9   0    0.72    3.50
  -1  -9   0    0.99    4.53
   3   2  10   47.90   44.58
   3  -2  10   48.93   27.47
   3  -2  10  143.74  106.69
   3  -2 -10   50.43   36.54
  -3  -2 -10   78.21   69.06
   3  -2  10   50.29   33.43
   3   2 -10   47.11   25.71
   3  -2  10   19.32   81.56
   3   2 -10   46.07   28.72
   3   2  10   31.65   82.82
   3  -2  10   53.10   29.45
  -3  -2  10   18.23   37.54
   3  -2 -10   48.75   31.76
  -3   2 -10   68.55   42.31
  -3  -2  10   45.65   49.30
   3  -2 -10   47.17   31.58
  -3   2  10   46.70   36.06
  -3  -2  10   45.31   30.88
  -3   2 -10   42.56   27.20
  -3   2 -10   36.15  105.19
   3   2  10  130.13   89.82
   3  -2 -10  102.04   47.24
   3   2 -10   34.46   64.93
   5   0   6  422.43  145.52
   5   0  -6  423.37  151.84
   5   0  -6  385.65  118.96
  -5   0   6  132.94  168.51
  -5   0  -6  422.46  184.12
  -5   0   6  410.14  146.42
   5   0   6  442.70  161.21
   1   9  -1  329.93  109.33
   1   9   1  321.43  101.08
   1  -9  -1  367.84  133.17
   1   9   1  349.55  135.26
   1  -9   1  325.31  110.32
  -1  -9  -1  355.82  128.02
  -1   9  -1  364.48  128.36
  -1  -9   1  348.40  119.02
  -1   9  -1  358.20  135.67
  -1  -9   1  324.74  104.50
   1  -9  -1  361.08  137.73
   1   9  -1  361.06  141.78
  -1   9  -1  336.77  105.64
   1  -9  -1  337.97  124.09
   1   9   1  360.62  143.42
   1  -9   1  370.48  129.38
  -1   9   1  370.12  147.83
   1   9  -1  338.55  133.38
   1  -9   1  209.88  136.54
  -1   9   1  380.58  127.97
   1  -9  -1  327.93  106.63
  -1  -9   1  122.21  233.33
  -1  -9   1  325.98   94.58
   1   9  -1  319.74   91.09
   1  -9   1  347.25  123.77
   1  -9   1  345.75  128.01
  -1  -9  -1  328.48  112.60
  -1  -9  -1  127.87  223.25
   3  -5  -8    4.62    6.91
   3  -5   8    5.11    8.56
   3  -5   8   28.42   24.64
   3   5  -8    5.71   10.70
   3   5  -8    5.34    9.92
  -3   5   8    4.40   10.14
  -3  -5   8    5.98   27.93
   3  -5  -8    5.56    9.16
   3   5   8    5.37    5.48
   3   5   8    5.25   10.33
  -3   5  -8    5.06    8.20
   3  -5  -8    2.26   17.45
  -3  -5  -8    7.37    7.56
  -3  -5   8    1.11    9.94
   3  -5  -8    5.86    9.93
  -3   5  -8    1.74   40.16
  -3   5  -8    5.40   12.98
   3  -5   8    5.10    7.90
   3   5  -8    4.43    6.64
  -3   5   8    6.02   14.55
   3  -5   8    5.68    9.93
  -3  -5  -8    3.25   19.13
  -3  -5  -8   12.10   22.04
   3   5  -8    0.16    8.93
  -4   4  -7   41.70   38.86
   4  -4  -7   16.75   31.64
   4  -4   7   40.97   24.15
   4  -4  -7   36.97   23.28
   4   4   7   37.88   26.99
   4  -4   7   42.50   27.60
   4  -4  -7   43.91   32.08
   4   4  -7   49.16   38.78
  -4  -4  -7   97.89   48.55
  -4   4   7   42.03   32.02
   4  -4  -7   36.69   25.79
  -4  -4  -7   45.99   72.14
  -4  -4  -7  133.84   56.32
  -4   4  -7   43.89   36.99
  -4  -4   7   42.50   30.48
  -4   4   7   44.68   35.66
   4  -4   7   48.77   29.51
  -4  -4  -7   46.04   39.64
   4   4  -7   34.75   16.50
   4   4  -7   38.10   24.75
  -4  -4   7  212.10   95.34
   4   4   7   16.36   81.55
   1   5 -10    0.10   22.22
   1   5 -10    1.04    4.58
   1  -5  10    1.04    2.58
   1   5 -10    1.34    4.00
  -1  -5 -10    1.79    3.68
   1   5 -10    1.60    5.51
  -1   5  10    1.92    7.08
   1  -5  10    8.29    6.51
  -1  -5 -10    2.64   15.87
  -1  -5 -10    0.66    2.92
  -1  -5 -10    1.73    6.78
   1  -5 -10    1.14    4.51
  -1  -5  10    1.66    6.27
  -1  -5  10    0.77    6.13
  -1  -5  10    0.33    9.01
   1  -5 -10    0.90    3.50
  -1  -5 -10    0.94    2.19
  -1   5 -10    0.94    6.88
   1   5  10    2.55    3.90
  -1   5 -10    1.93    7.14
   1  -5 -10    1.52    4.66
  -1   5 -10   -0.25   25.20
   1  -5 -10    0.49   11.38
  -1   5 -10    1.23    2.62
   1   5  10    0.71    8.25
  -1  -5 -10    3.33   12.99
  -1   5  10    1.16    4.84
   1  -5  10    0.40   12.35
   1  -5 -10    1.41    5.01
   1   5  10    1.16    5.01
   1   5 -10    0.95    6.62
   0   8   6   27.08   38.47
   0  -8  -6   19.97    9.69
   0  -8  -6   23.06   19.54
   0   8  -6   25.08   18.22
   0   8   6   25.41   12.07
   0  -8  -6   18.45   83.04
   0  -8  -6   18.59   51.17
   0   8   6   24.97   22.78
   0  -8   6   21.84   12.22
   0  -8  -6   27.19   24.65
   0  -8   6   27.09   17.94
   0   8  -6   26.04   20.61
   0  -8   6   24.59   22.23
   0  -8   6   20.13   11.10
   0   8  -6   23.37   15.81
   0   8  -6   25.38   21.13
   0   8  -6   21.64   96.49
   0  -8   6   16.42   65.09
   5  -4   3  161.78   64.66
  -5  -4  -3  178.65   77.98
   5  -4   3  185.62   89.00
   5  -4  -3  170.67   75.38
   5  -4   3   59.87   72.29
   5  -4  -3  147.53   49.66
  -5   4  -3   98.50  145.26
   5   4   3  154.08   46.83
   5   4  -3  182.52   68.45
   5   4   3  148.30   53.81
  -5   4  -3  178.28   78.27
  -5  -4   3   79.74  236.87
  -5   4  -3  191.17   88.11
  -5   4   3  162.88   61.64
  -5   4   3  190.32   84.52
   5   4  -3  164.15   66.98
   5  -4   3  132.79   40.50
   5  -4  -3  183.80   66.56
   1   0 -12  493.13  151.27
   1   0  12  477.43  310.98
  -1   0 -12  306.50  363.74
  -1   0  12  541.89  177.98
  -1   0 -12  438.65  128.85
  -1   0  12  169.05  179.85
  -1   0  12  421.21  133.03
   1   0 -12  503.27  443.13
  -1   0  12  635.84  364.01
  -1   0 -12  512.67  170.78
   1   0  12  521.23  171.30
   1   0 -12  501.94  164.90
  -1   0 -12  510.09  159.66
   1   0  12  232.77  264.74
   1   0  12  464.14  135.59
  -1   6  -9  513.12  181.55
   1   6  -9  468.43  141.19
   1   6  -9  360.40  380.18
  -1  -6  -9  311.61  305.27
  -1   6  -9  526.66  193.61
  -1  -6  -9  458.77  144.25
   1  -6   9  206.19  249.14
   1  -6   9  433.89  118.86
  -1   6  -9  338.96  394.69
   1  -6   9  480.19  132.15
  -1   6  -9  458.13  122.74
  -1  -6   9  531.82  181.95
   1  -6  -9  529.48  166.00
  -1   6  -9  490.36  126.38
   1  -6  -9  415.16  126.22
   1  -6  -9  476.58  156.33
   1   6   9  489.80  162.15
   1  -6  -9  208.36  237.71
   1  -6  -9  507.16  149.06
  -1  -6   9  174.57  203.03
  -1  -6   9  491.62  177.67
   1   6   9  269.72  156.04
   1   6   9  536.43  166.50
   1   6   9  498.69  139.21
   1  -6   9  490.33  166.04
  -1  -6  -9  584.54  203.14
   1   6  -9  522.94  182.79
  -1  -6  -9  203.50  238.87
  -1   6   9  604.36  211.38
   1   6  -9  495.10  159.50
  -1   6   9  525.00  180.17
   1   6  -9  531.19  166.50
  -5  -1  -6 2322.51  756.38
   5   1  -6 2294.45  592.00
   5  -1   6 2280.86  660.46
  -5   1  -6 3003.46 1535.38
  -5   1   6 2242.98  644.88
  -5   1  -6 2357.76  749.77
  -5   1  -6 2530.58  759.20
   5  -1  -6 2281.82  677.94
  -5   1   6 2315.87  711.37
   5   1   6 2345.02  700.08
   5  -1   6 2293.66  564.52
   5   1   6 2406.78  730.20
   5   1  -6 2097.32  560.56
   5  -1   6 2578.21  787.02
  -5  -1   6 1112.31 1043.40
   0   4 -11 1599.31  430.81
   0   4 -11 1475.25  502.55
   0  -4  11 1509.80  486.56
   0   4  11 1652.41  496.39
   0  -4  11 1591.71  515.34
   0  -4 -11 1567.40  440.71
   0  -4 -11 3073.98  940.21
   0  -4 -11 1386.09  403.08
   0   4  11 1488.67  457.15
   0   4 -11 1405.29  369.66
   0   4  11 1602.77  429.67
   0   4 -11 1591.00  530.79
   0   4  11 3653.98  993.60
   0  -4 -11 5688.62 1687.06
   0  -4 -11 1641.57  484.15
   0  -4  11  552.32  524.25
   0   4 -11 1043.84  930.03
   0  -4 -11 1487.00  443.37
  -3   4   9  203.61   93.46
   3  -4  -9   66.41   84.12
   3   4   9  175.51   73.78
  -3  -4   9  156.53   64.64
  -3   4  -9  174.91   85.53
   3  -4  -9  168.64   71.70
  -3   4  -9  142.08   56.01
   3  -4   9   72.44  118.59
   3   4  -9  159.69   57.84
   3   4   9  289.14  186.59
  -3  -4  -9  196.83   94.60
   3  -4   9  175.21   70.34
   3  -4   9  189.78   73.70
  -3  -4  -9  441.97  160.63
  -3  -4   9  113.13  147.30
   3   4   9  172.89   69.16
  -3  -4  -9  622.69  205.77
   3  -4   9  164.21   67.39
   3  -4  -9  166.74   68.11
   3  -4  -9  164.58   51.05
  -3   4   9  159.52   66.06
  -3  -4   9   58.00   74.85
  -3   4  -9  264.24  260.94
   3   4  -9  178.17   70.92
   0   7  -8   -0.71   18.25
   0   7   8    0.06    5.28
   0  -7  -8    1.11    1.85
   0   7   8    0.13    4.32
   0  -7  -8   -3.08   12.34
   0   7  -8    0.23    3.01
   0  -7   8    0.23    4.98
   0   7  -8    0.02    4.81
   0  -7   8    1.21    4.05
   0  -7  -8    2.20    3.70
   0  -7   8   -1.82    9.71
   0   7  -8    0.07    2.75
   0  -7  -8    1.07   17.25
   0  -7  -8    0.94    2.45
   0   7  -8    1.37    4.80
   0  -7  -8    0.22    5.22
  -1  -1  12  603.40  183.90
  -1   1  12  227.86  218.41
   1  -1  12  701.40  235.19
   1  -1 -12  763.16  252.93
   1   1 -12  789.64  268.52
   1  -1  12  353.35  355.56
   1   1 -12  415.70  419.20
   1  -1  12 1358.79  556.71
  -1   1  12 1479.77  630.63
   1   1  12  509.97  494.16
   1   1 -12  699.32  206.71
  -1  -1 -12  652.19  195.45
  -1   1 -12  541.55  151.98
  -1   1 -12  738.87  243.15
   1   1  12 1402.48  605.95
  -1  -1 -12  726.90  229.48
  -1   1  12  626.57  197.57
   1   1 -12  721.39  229.63
   1   1  12  590.73  164.05
  -1  -1 -12  716.07  215.93
  -1   1  12  757.39  239.20
   1  -1 -12  731.46  230.59
   1  -1  12  661.69  184.97
   1  -1 -12  710.83  215.06
   1  -1 -12 1352.98  436.93
  -1   1 -12  740.88  231.60
   1   1  12  762.22  239.01
  -1  -1  12  744.05  248.86
   1   1  12  684.81  201.22
  -1   1 -12 1805.69  717.52
  -1  -1  12  298.92  313.57
  -1  -1 -12  656.75  173.36
  -1  -1 -12  785.74  416.28
  -4   6  -4   78.68  157.67
  -4  -6  -4   53.60   91.22
   4  -6  -4   79.46   35.91
   4   6   4   97.53   39.37
   4  -6  -4   54.11   94.32
  -4  -6  -4   99.64   62.74
   4   6   4   80.90   35.96
  -4   6   4  110.70   59.86
   4  -6   4   90.12   47.18
   4  -6  -4   97.59   44.72
  -4  -6  -4   36.03   51.18
  -4  -6   4   41.24  181.03
   4  -6   4   98.43   53.90
   4  -6   4   86.63   29.60
   4   6  -4   83.23   42.14
  -4   6   4  104.85   57.61
   4   6  -4   95.89   47.27
  -4   6  -4   89.26   46.18
   4  -6  -4   91.39   46.40
  -4   6  -4  104.80   62.96
  -1  -9   2   28.30   15.79
  -1   9  -2   31.41   18.57
   1  -9  -2   28.35   16.89
  -1  -9   2   21.00   47.83
  -1  -9   2   30.72   20.00
   1  -9  -2   34.17   28.36
   1  -9  -2   17.99   92.98
  -1   9  -2   32.40   25.76
  -1  -9   2   30.57   15.66
   1   9   2   32.95   32.79
  -1  -9  -2   32.73   26.48
   1   9   2   32.91   25.73
  -1   9   2   34.47   23.17
   1   9  -2   30.35   25.38
  -1   9  -2   33.10   25.14
  -1   9  -2   28.69   18.97
   1  -9   2   32.83   23.83
   1  -9   2   29.94   20.32
   1  -9   2   30.87   21.61
   1  -9   2   19.24   32.39
   1   9  -2   34.91   30.36
   1   9  -2   31.80   16.67
   1   9  -2   30.84   20.49
   1   9   2   31.46   15.83
   1  -9  -2   40.33   28.82
  -1  -9  -2   33.97   28.93
  -1   9   2   35.48   32.46
   1  -9  -2   30.52   25.39
  -1  -9  -2   11.38   54.67
   0   2 -12  443.62  161.03
   0   2  12  404.80  126.41
   0  -2 -12  400.96  121.70
   0  -2 -12  433.23  143.86
   0   2 -12  445.27  167.27
   0   2  12  481.74  267.35
   0   2 -12  405.24  117.10
   0  -2  12  353.98  107.07
   0  -2  12  421.54  153.37
   0   2  12 1367.54  478.51
   0  -2 -12  420.44  130.15
   0  -2  12  181.50  235.28
   0  -2 -12  423.37  141.94
   0  -2 -12  934.35  323.36
   0   2 -12  451.76  163.08
   0   2  12  432.25  138.43
   0   2  12  374.95  120.66
   0   2 -12  229.63  293.96
   4   3   8  334.18  208.68
   4  -3  -8  111.34   96.89
   4  -3  -8  345.96  121.23
  -4   3   8  371.33  139.69
   4  -3  -8  406.49  151.51
   4  -3   8  377.33  117.46
   4   3   8  360.02  129.97
   4  -3  -8  296.21   77.95
  -4  -3   8  351.69  127.55
  -4   3  -8  384.16  160.77
  -4   3  -8  346.16  123.98
   4   3  -8  436.89  159.73
  -4  -3  -8  845.64  257.84
  -4   3   8  371.01  128.95
   4   3  -8  350.93  108.92
   4   3  -8  315.63   93.84
   4  -3   8  346.33  115.66
  -4   3  -8  301.65  360.61
   4  -3   8  386.68  136.76
  -4  -3   8  244.13  241.88
   4   3   8  721.86  387.99
  -3  -7  -5  461.25  190.03
  -3  -7  -5  189.89  194.92
   3  -7  -5  460.39  147.92
  -3   7   5  465.95  159.69
  -3  -7   5  317.24  292.99
   3  -7  -5  259.90  280.90
   3   7  -5  346.81  360.97
   3  -7  -5  369.57  124.09
   3  -7   5  404.55  115.82
   3   7  -5  418.24  141.12
   3   7  -5  396.06  136.96
   3  -7  -5  373.01  128.61
  -3   7  -5  453.00  175.97
  -3   7  -5  376.76  451.96
   3   7   5  322.96  108.32
   3   7   5  378.10  124.63
   3  -7   5  407.56  141.81
   3  -7   5  275.56  325.78
  -3  -7  -5  283.82  272.99
   3  -7   5  425.34  151.00
   3   7  -5  427.41  158.31
   3   7   5  423.28  148.17
  -3  -7   5  109.24  116.92
   3  -7   5  419.26  141.40
  -3   7   5  527.65  205.03
   3   7  -5  383.51   98.56
  -4   5   6    5.46   12.20
   4  -5  -6    4.45    7.51
  -4   5  -6    5.44   13.33
   4  -5   6    6.53   10.07
   4  -5  -6    5.15   10.42
   4   5  -6    4.87   10.39
   4   5  -6    4.80   12.20
  -4  -5  -6    3.95   12.94
  -4  -5  -6    6.10   14.36
   4  -5  -6    3.21   14.54
   4   5   6    4.14    8.72
  -4  -5   6    3.71   42.76
  -4   5  -6    4.56    9.84
   4  -5   6    4.14    6.98
   4   5   6    6.00    5.44
   4  -5   6    7.47   10.75
   4   5  -6    4.21    4.42
  -4  -5  -6    3.31   19.32
   4   5  -6    8.45   12.61
   4  -5  -6    5.07    8.88
  -4   5   6    5.56   13.36
   0   9  -3    0.40    4.34
   0  -9   3    0.17    9.29
   0  -9  -3    0.65    5.29
   0  -9   3    1.40    3.53
   0  -9   3    1.45    3.31
   0  -9   3   -1.27   27.25
   0  -9  -3    1.94    2.40
   0  -9  -3    1.27   18.07
   0   9  -3    1.83    5.80
   0   9  -3   -0.63   26.12
   0  -9  -3    0.87    5.59
   0   9  -3    1.03    4.35
   0   9   3    0.91    6.94
   0   9  -3    0.15    5.88
   0  -9   3    0.55    3.94
   0   9   3    0.62    2.96
   0  -9  -3    0.28    6.24
   0  -9  -3    1.42   18.34
  -5  -3   5   31.62  127.30
  -5   3  -5   75.37   46.11
   5  -3  -5   62.50   25.89
   5  -3   5   20.22   38.14
   5   3  -5   57.00   19.77
   5  -3   5   70.26   42.26
  -5   3   5   62.84   35.19
  -5   3  -5   67.78   45.54
  -5   3   5   70.23   40.70
   5   3   5   65.43   33.63
   5  -3   5   62.31   29.54
   5  -3   5   57.95   26.46
  -5  -3  -5   68.40   45.34
   5  -3  -5   61.20   30.66
   5   3  -5   64.77   31.58
   4   0   9   -0.17    4.32
  -4   0  -9    0.43    3.12
  -4   0  -9    0.43    4.27
  -4   0   9    0.02    4.01
   4   0   9    0.66    1.85
   4   0   9    0.45    3.50
   4   0  -9    0.73    4.05
   4   0  -9    0.95    3.16
   4   0   9   -0.44    6.54
   4   0   9    0.71   12.79
   3  -6   7   72.15  122.30
  -3   6  -7  134.71  226.33
   3   6  -7  188.91  184.79
   3   6   7   99.86   90.43
  -3  -6  -7  115.81  151.59
   3  -6  -7  161.54   67.73
  -3  -6  -7   75.48  104.85
   3  -6  -7   82.16  110.84
  -3   6  -7  165.67   64.63
   3  -6   7  181.17   87.98
  -3   6  -7  189.80   93.33
   3   6  -7  191.86   79.78
  -3   6   7  222.60  104.98
   3   6   7  187.26   61.66
  -3  -6   7   75.70   93.00
   3  -6   7  170.44   71.96
   3   6  -7  174.80   72.19
   3   6  -7  176.53   69.46
  -3   6   7  191.40   77.11
   3  -6  -7  165.33   67.12
   3   6   7  176.67   70.55
   3  -6   7  174.53   70.83
  -3  -6  -7  206.82  100.77
  -3  -6   7  125.25  166.13
   3   6  -7  156.37   50.22
   3  -6  -7  186.57   66.27
   3  -8   0    0.28    2.77
  -3   8   0   -0.10    4.20
   3  -8   0    0.89    4.02
   3   8   0   -0.12    1.92
   3  -8   0    0.27    2.08
  -3  -8   0   -0.35    8.12
  -3  -8   0    0.83    7.33
   3  -8   0    0.51    3.66
  -3   8   0    1.01    4.22
   3   8   0    0.72    2.69
   3   8   0    0.59    3.62
  -3  -8   0   -1.04   13.63
  -3  -8   0    0.30    3.56
  -1   8  -6    9.65   12.36
  -1   8  -6    8.87   14.82
  -1  -8   6    8.86    9.95
  -1   8  -6    6.88   65.08
   1  -8   6    7.40    8.41
  -1   8   6    9.04   17.14
   1  -8  -6    7.36   11.76
   1   8   6    7.93   12.52
  -1   8  -6    8.18    7.13
  -1  -8   6    7.56   20.87
   1   8  -6    8.15   12.30
   1  -8   6    5.72   42.22
   1   8  -6    8.59   10.11
   1  -8  -6    6.66   44.98
  -1  -8  -6    8.54   16.51
   1   8  -6    8.51   10.63
  -1   8   6    7.18    9.03
   1   8  -6    9.96   13.15
   1  -8   6    7.56    7.72
   1  -8   6    9.78   11.35
  -1  -8  -6    5.65   42.91
  -1  -8  -6    8.41   11.21
  -1  -8  -6    2.94   17.53
   1  -8   6    8.29   11.29
  -1  -8  -6    6.78   31.16
   1   8  -6    6.09   53.96
  -1   8  -6    9.09    9.64
   1  -8  -6    6.57    6.65
   1  -8  -6    8.53   59.10
   1  -8  -6    8.04   15.78
   1  -8  -6    9.18   14.70
  -1  -8   6   16.75   44.27
   1   8   6    6.96    5.62
   1   8   6    8.28   15.49
  -1  -8   6    2.68   34.10
   2   7  -7  145.12   49.62
   2  -7  -7   68.39  114.61
  -2  -7   7    6.06   43.93
  -2  -7   7  107.39  137.90
  -2  -7   7   47.45   71.88
  -2   7  -7  115.74  204.24
   2  -7  -7  126.18   47.13
   2  -7  -7  140.36   57.62
  -2   7  -7  162.11   73.01
  -2  -7  -7  176.36   85.83
   2  -7  -7  160.77   62.92
   2   7  -7  147.51   58.56
   2  -7   7   58.20  106.15
  -2  -7  -7   70.58  116.34
  -2   7   7  173.75   83.58
   2  -7   7  154.58   56.65
  -2  -7  -7   54.19   99.21
  -2  -7  -7  154.50   57.91
   2   7  -7  140.62  194.07
  -2   7   7  147.72   55.42
   2  -7   7  144.21   53.75
   2   7  -7  156.47   62.37
  -2   7  -7  160.61   75.83
   2   7  -7  154.30   65.80
  -2  -7  -7  100.38  153.36
   2   7   7   83.12   65.40
   2   7   7  143.42   58.68
   2   7   7  164.59   62.37
   2  -7   7  145.16   53.59
   3  -8   1   41.18   26.83
   3  -8  -1   43.93   37.43
  -3  -8  -1   19.26   65.13
  -3  -8  -1  102.68  100.28
  -3  -8  -1   45.02   36.84
   3  -8   1   42.44   34.03
  -3   8   1   45.69   37.44
   3   8  -1   47.15   37.81
   3   8   1   39.01   20.48
  -3   8  -1   45.74   37.43
   3   8   1   37.20   31.66
   3   8  -1   39.24   26.16
   3   8  -1   39.05   17.36
   3  -8   1   38.72   18.94
   3  -8  -1   43.42   32.58
   3  -8   1   45.15   41.47
   3  -8  -1   37.85   21.67
   3   8  -1   45.00   32.25
  -3  -8  -1   24.62   68.59
  -3  -8   1   43.97   29.49
  -3  -8   1   29.45   62.59
  -3  -8   1   25.02   66.79
   3   8   1   44.55   32.50
  -3   8  -1   49.78   34.89
  -3  -8   1   23.20  115.89
  -3   8   1   52.67   39.86
   3  -8  -1   36.10   25.00
   1  -4  11  221.32  273.54
   1   4 -11  411.25  445.94
  -1  -4 -11 1244.38  410.46
   1   4  11  596.35  181.86
  -1   4 -11  605.48  217.21
  -1  -4 -11  473.21  134.94
   1   4  11  585.35  194.32
   1   4  11  598.47  179.40
   1  -4 -11  547.18  179.33
  -1   4  11  597.84  198.82
   1   4 -11  586.11  232.36
  -1   4  11  660.07  226.01
   1   4  11 1399.91  494.79
   1  -4  11  604.94  209.07
   1   4  11 1687.52  533.08
  -1  -4  11  565.67  232.30
  -1  -4 -11  638.38  215.20
  -1   4 -11  638.62  242.63
   1  -4 -11  586.87  184.62
   1   4 -11  566.49  191.78
   1   4 -11  631.85  229.66
  -1  -4 -11  568.22  164.81
   1  -4 -11  570.10  188.86
  -1  -4  11  202.42  231.56
   1   4 -11  624.60  191.37
   1  -4  11  506.03  141.22
  -1  -4 -11  540.54  164.45
   1  -4  11  571.10  197.80
  -1   4 -11  387.46  468.23
   1  -4 -11  748.35  326.81
   1  -4 -11  597.07  180.45
   4   1   9   25.63   20.59
   4  -1   9    9.40   38.47
   4   1  -9   23.46   12.95
   4  -1   9   24.57   22.46
   4  -1  -9   22.98   19.54
   4   1   9   65.36   90.95
  -4   1   9   24.78   23.82
   4  -1   9   24.82   14.43
  -4   1  -9   20.52   67.59
   4  -1   9   30.61   22.92
   4   1  -9   22.31   17.09
   4  -1  -9   25.41   22.72
  -4  -1  -9   15.11   54.84
  -4  -1   9   23.30   22.57
   4  -1   9   70.77   76.13
   4   1  -9   25.75   24.14
   4   1   9   13.57   46.80
  -4  -1  -9   25.01   26.99
  -4   1  -9   22.58   31.98
  -4   1  -9   24.93   23.07
   4   1   9   24.10   23.64
  -4  -1   9   17.17   35.44
  -5  -2   6   61.61   36.56
   5  -2   6   66.39   28.18
   5  -2   6   63.32   42.14
  -5   2   6   57.97   37.98
  -5  -2  -6   65.87   47.13
   5  -2   6   55.21   30.91
  -5   2   6   60.80   36.20
   5  -2   6   19.13   46.51
   5   2  -6   51.61   22.62
   5   2   6   43.41  124.89
   5   2  -6   62.26   27.51
   5  -2  -6   60.54   46.22
  -5   2  -6   60.84   43.32
  -5  -2   6   26.41  104.09
  -5   2  -6   66.73   39.29
   5   2   6   67.69   43.77
   5   2   6   60.09   37.58
  -1  -7   8    8.06   14.71
   1  -7  -8    7.72   12.80
  -1  -7  -8    4.80   38.32
   1   7   8    9.08   12.82
  -1   7  -8    6.49    9.84
   1   7  -8    8.25   11.23
  -1  -7  -8    7.17    9.72
   1  -7   8    8.59   11.32
  -1   7   8    7.52    8.75
  -1  -7  -8    8.70   15.93
   1  -7   8    7.35   12.28
   1  -7   8    7.25    6.78
   1   7  -8    4.83   42.99
  -1   7  -8    3.43   50.16
   1  -7   8    3.88   27.93
  -1   7  -8    7.20    5.51
   1  -7  -8    6.84   10.80
   1   7   8    3.56   10.24
  -1  -7   8    2.71   20.78
   1   7   8    8.49    7.41
   1  -7  -8    3.95   30.52
   1   7  -8    7.64    9.54
   1  -7  -8    6.51    6.57
  -1  -7  -8    6.27   30.38
   1  -7   8    5.62    6.55
  -1   7  -8    8.57   14.51
  -1   7  -8    8.20   13.02
  -1  -7   8    9.92   11.24
   1   7   8    7.79   11.73
   1   7  -8    7.33   13.51
   1   7  -8    7.16   13.66
  -1   7   8    7.57   13.32
  -1   7   8   10.41   16.33
   2   3  11   13.42   30.38
  -2  -3  11    2.27   16.51
   2   3 -11    5.11    9.42
  -2   3  11    4.67   11.22
   2   3 -11    2.76   28.50
  -2  -3 -11    5.45    3.83
  -2  -3  11    3.29    7.18
  -2  -3 -11    4.54    6.52
   2  -3 -11    3.95    9.42
  -2  -3 -11    4.88   11.11
   2   3 -11    5.45    9.99
   2   3 -11    6.16    9.01
   2  -3  11    4.38    9.59
  -2   3 -11    3.33   40.47
   2   3  11    5.56    8.35
   2   3  11    4.07    9.48
   2  -3 -11    2.31   21.88
  -2  -3 -11   13.89   22.89
   2  -3  11    3.92   29.67
   2  -3  11    3.48   21.10
  -2   3 -11    5.07   11.76
   2  -3 -11    4.39    8.65
   2  -3 -11    5.12    9.33
   2  -3  11    4.76    5.75
  -2  -3  11    4.12   10.96
  -2   3 -11    3.52    5.96
   2  -3 -11    4.20    5.00
   2  -3  11    4.25   10.77
   2   8   5   45.91   21.40
   2   8  -5   51.84   21.66
  -2  -8  -5   22.89   69.81
   2  -8  -5   47.78   31.62
   2  -8  -5   33.86  105.33
   2   8   5   56.21   35.33
  -2   8  -5   50.89  155.96
  -2  -8  -5   37.00   96.38
   2  -8   5   31.46  110.04
   2  -8   5   53.67   32.53
  -2  -8   5   57.94   28.93
  -2   8  -5   47.14   18.51
  -2  -8   5   39.08   82.52
  -2   8   5   59.95   47.17
  -2  -8  -5   20.00   72.43
  -2   8  -5   55.73   33.33
   2   8  -5   65.10   36.28
   2  -8  -5   42.78   23.21
  -2  -8  -5   56.88   58.76
  -2   8  -5   60.14   30.09
   2   8  -5   65.95   35.33
   2  -8   5   48.21   28.75
   2  -8   5   51.29   29.37
   2   8  -5   53.68   32.56
  -2   8   5   57.75   33.67
   2   8  -5   40.24  115.19
   2  -8  -5   57.74   36.43
  -2   8  -5   56.74   41.85
   2   8   5   49.11   43.60
   2  -8   5   51.48   25.73
  -2  -8  -5   56.01   34.07
  -2  -8   5   24.14   72.77
  -5   5   0    1.45    8.92
   5  -5   0    0.18    6.76
   5  -5   0    0.42    7.20
   5   5   0    0.11    5.04
   5   5   0    0.13    6.51
  -5  -5   0    0.43    4.61
  -5  -5   0  266.25   32.80
   5  -4   4    0.02   13.51
   5  -4   4    1.62    6.20
   5   4  -4    2.42    7.68
  -5  -4  -4    0.66   24.10
  -5   4  -4    3.20    9.94
   5   4   4    3.56   16.59
   5   4  -4    1.97    7.06
  -5  -4  -4    2.59    9.12
   5   4   4    3.33    6.25
   5  -4  -4    3.54    5.38
  -5   4  -4    1.35   19.66
   5  -4   4    5.99    9.55
  -5  -4   4   -1.16   34.71
   5  -4  -4    2.16    5.79
   5  -4   4    3.30    4.01
  -5   4   4    1.51    6.73
  -5   4  -4    1.77    9.02
  -1   2  12  229.93   80.94
   1  -2  12  228.31   93.52
  -1  -2 -12  490.58  203.75
   1   2 -12  245.23  102.99
   1  -2  12  195.88   64.86
   1  -2  12  159.25  194.09
   1   2 -12  221.58   87.25
  -1   2  12  736.54  274.10
  -1   2  12  208.89   70.18
   1   2 -12  226.30   93.31
  -1  -2 -12  203.71   63.48
  -1  -2  12  230.96   94.56
   1   2  12  359.52  242.84
  -1   2 -12  225.09  115.97
  -1   2 -12  231.08   87.45
   1   2  12  196.76   61.72
   1   2  12  234.73   87.88
   1   2  12  600.67  229.58
  -1  -2 -12  212.20   78.32
   1  -2 -12  227.10   88.46
  -1   2 -12  183.77  249.30
  -1  -2  12  118.61  156.06
   1   2  12  219.89   86.46
  -1   2 -12  175.41   54.57
   1  -2 -12  194.21   58.80
   1  -2 -12  216.36   78.35
   1  -2 -12  467.05  173.70
   1  -2 -12  220.40   86.37
  -1  -2 -12  215.26   72.28
  -1  -2 -12  224.17   81.45
  -1   2  12   65.17   83.51
   1   2 -12  215.93   73.95
  -1   2  12  206.43   77.66
   1   2 -12  131.72  204.66
   1  -2  12   91.00  163.87
   1  -9   3   60.72   32.76
   1  -9  -3   54.51   25.08
   1  -9  -3   65.85   41.26
   1   9   3   62.54   38.67
   1   9   3   64.20   43.69
  -1   9   3   67.84   48.86
   1  -9   3   39.07   48.82
  -1   9   3   65.64   32.61
  -1  -9   3   59.16   26.71
  -1  -9  -3   65.87   40.59
  -1  -9   3   33.93   96.05
   1  -9  -3   41.31  128.18
   1  -9  -3   37.23  119.76
  -1  -9   3   41.65   70.09
  -1  -9   3   53.32   22.87
  -1   9  -3   65.87   38.23
  -1  -9   3   62.07   26.32
  -1   9  -3   62.79   37.95
  -1   9  -3   55.94   27.32
   1  -9  -3   73.43   42.86
   1   9   3   55.72   23.02
   1   9  -3   58.54   35.98
  -1   9  -3   60.12   29.96
  -1  -9  -3   20.23   67.82
   1  -9   3   34.21  111.03
   1  -9  -3   59.93   36.75
  -1  -9  -3   33.74  110.33
   1  -9   3   57.44   31.19
  -1   9  -3   66.38  172.11
   1  -9   3   59.57   31.59
   1   9  -3   63.84   42.96
  -1  -9  -3   68.16   41.89
   1   9  -3   38.87  115.83
   1   9  -3   63.35   31.94
  -1  -9  -3   31.90   96.13
   1   9  -3   61.33   26.51
  -3  -3 -10  195.75   91.77
   3  -3  10  184.12   84.84
   3  -3  10  193.85   74.57
   3  -3  10   66.40  115.88
   3  -3  10  330.26  237.59
   3  -3 -10  176.98   74.98
   3   3 -10  202.87   85.01
   3   3 -10  126.90  150.03
  -3   3 -10  180.45   89.70
   3   3 -10  163.62   63.17
   3  -3  10  175.68   74.65
  -3  -3 -10  425.73  169.37
   3   3 -10  172.22   68.32
  -3   3  10  189.04   89.61
   3   3  10  177.11   72.24
   3  -3 -10  103.72   87.67
   3  -3 -10  167.78   71.90
  -3  -3  10   61.57   82.97
  -3  -3  10  159.22   67.95
   3   3  10  543.86  252.89
   3  -3 -10  183.75   81.30
  -3   3 -10  131.15  225.90
  -3  -3  10  131.68  199.65
  -3   3 -10  150.14   61.47
   3   3  10  367.73  190.74
   3   3  10  175.78   75.21
   5   5  -1  101.20   44.37
   5   5   1   94.45   49.89
  -5  -5  -1   74.13  175.52
  -5  -5  -1  103.35   46.71
   5  -5   1   95.86   50.75
  -5   5   1   98.16   39.06
   5   5  -1   93.60   49.64
   5  -5  -1   90.51   31.17
   5   5   1   80.51   29.96
   5   5   1  104.00   40.06
   5  -5  -1  113.60   53.99
  -5  -5   1   51.81  167.03
  -5   5  -1   41.86   84.39
  -5   5  -1  114.68   66.56
   5  -5   1  113.48   58.41
   3  -8   2   34.99   16.83
  -3  -8  -2   19.03   64.33
   3   8   2   33.02   21.18
  -3  -8  -2   38.78   37.43
   3   8  -2   35.07   23.96
   3   8  -2   29.21   66.76
   3  -8  -2   33.71   20.74
   3   8   2   39.01   29.98
   3  -8   2   27.75   94.92
  -3  -8  -2   14.04   80.02
   3  -8  -2   -0.37   72.53
  -3   8  -2   43.81   29.18
  -3  -8   2  136.77  119.25
   3  -8  -2   41.00   36.41
   3  -8  -2   31.33   22.55
   3  -8   2   40.60   28.63
  -3   8   2   46.01   38.76
  -3   8  -2   41.00   49.75
   3   8  -2   39.08   30.86
  -3  -8   2   17.37   50.25
   3   8  -2   39.57   34.46
  -3  -8  -2   19.50   57.30
  -3   8   2   42.09   34.43
   3  -8   2   36.44   29.84
   3  -8   2   36.69   25.81
   3  -8  -2   39.61   30.29
  -4   7   0   21.02   73.70
   4   7   0   30.79   22.76
   4  -7   0   32.75   26.01
   4  -7   0   34.69   15.46
  -4  -7   0   38.12   25.49
  -4  -7   0  217.38  114.10
   4   7   0   39.58   27.82
   4  -7   0   36.98   29.98
   4  -7   0   41.32   35.40
   4   7   0   32.09   15.45
  -4   7   0   40.36   27.16
  -4   7   0   41.02   38.02
   0   9  -4    0.57   17.28
   0  -9  -4    0.47    4.47
   0  -9  -4    0.30   12.79
   0  -9  -4    0.11    3.61
   0   9  -4    1.38    3.02
   0  -9   4    0.48    1.98
   0   9  -4    0.25    2.73
   0  -9   4    1.05    6.72
   0  -9  -4    0.15    1.48
   0   9  -4    0.66    3.74
   0   9  -4    0.22    3.12
   0   9   4    0.61    4.79
   0  -9  -4   -0.09   12.39
   0  -9   4    0.55    2.28
   0   9   4   -0.29    4.30
   0  -9   4   12.01   11.78
   0  -9   4   -0.04    2.45
   4  -7   1   76.84   44.62
   4  -7   1   75.96   50.47
  -4   7   1   84.94   56.10
   4   7  -1   90.99   44.04
   4   7   1   62.65   34.83
  -4   7  -1   43.15  108.37
  -4   7   1   83.73   47.44
  -4   7   1   46.69  105.64
   4   7   1   78.36   40.32
  -4  -7  -1  197.13  153.25
  -4  -7  -1   80.33   46.11
   4  -7  -1   69.27   39.92
   4   7  -1   63.80   35.84
   4  -7  -1   76.02   43.61
  -4   7  -1   75.24   36.53
   4  -7   1   63.73   37.82
   4  -7  -1   64.13   26.36
   4  -7   1   52.78  114.30
  -4   7  -1   83.57   56.21
   4  -7  -1   83.11   55.36
   4   7   1   65.02   27.37
   4  -7   1   61.03   21.43
  -4  -7   1   70.74   31.83
  -4  -7   1   37.27  176.09
   5  -5   2   20.02   24.45
   5  -5  -2   17.47   20.30
  -5   5  -2   20.08   25.96
  -5   5   2   20.84   24.90
   5   5  -2   17.12   18.85
   5  -5   2   18.56   18.79
  -5  -5  -2   19.66   19.38
   5   5   2   15.32   11.24
  -5   5  -2    4.59   35.09
   5  -5  -2   16.46   11.55
   5   5   2   17.19   12.58
   5  -5  -2   19.00   19.06
  -5  -5   2  258.38   90.56
  -5   5  -2   19.01   21.39
   5   5   2   16.82   18.78
  -5   5   2   19.29   14.68
  -5  -5  -2   13.36   71.06
   5   5  -2   20.41   16.92
   5  -5   2    5.45   22.08
  -4  -2  -9   13.52   37.33
  -4  -2   9    9.09   31.47
   4  -2  -9   10.25   15.79
   4  -2  -9   14.72   18.69
  -4   2   9   11.45   17.27
   4  -2   9   11.53   15.18
  -4   2  -9   10.26   17.38
   4  -2   9    7.17   27.95
   4   2   9   10.40   14.00
   4   2   9   31.65   55.04
   4   2   9    8.67   30.66
   4   2  -9   10.51   11.73
   4  -2   9   10.99   14.10
   4   2   9   18.22   16.69
  -4  -2  -9   11.57   20.23
   4   2  -9   11.22   14.47
   4  -2   9   10.38   11.11
   4  -2  -9   11.66   14.88
  -4   2  -9    9.39   52.15
  -4   2  -9    9.54   15.35
   4   6   5   11.82   11.30
  -4   6   5   13.86   18.41
   4  -6  -5    8.18   10.79
   4  -6   5    8.04    8.07
   4  -6   5   10.75   13.38
   4   6   5   10.30    9.58
  -4   6  -5    7.81   13.13
   4   6  -5    9.80   13.55
   4  -6   5    5.52   23.93
  -4  -6  -5    5.41   26.60
   4   6  -5   10.53   16.47
   4   6  -5    8.10   12.53
  -4  -6  -5    4.97   16.71
  -4   6  -5    7.24   56.02
  -4  -6   5    6.57   62.13
  -4  -6  -5    5.52   37.14
  -4  -6  -5   12.62   19.81
   4  -6   5    9.26   13.70
  -4   6  -5   10.25   18.70
   4  -6  -5    9.37   11.94
   4  -6  -5    3.69   21.35
   4   6   5    2.68   22.33
   0   3  12    1.06    3.15
   0  -3 -12    0.21    2.79
   0   3  12    1.65   11.62
   0   3  12    1.10    5.91
   0  -3 -12    3.40    3.18
   0   3 -12    0.23    4.69
   0   3 -12    0.67    4.45
   0   3  12    0.16    2.80
   0  -3  12   -0.96   11.94
   0  -3  12    0.37    2.04
   0   3 -12    0.30    2.06
   0  -3  12    0.43    4.55
   0   3 -12    0.05    5.30
   0   3  12    0.16    2.72
   0  -3 -12    0.95    9.39
   0  -3 -12    0.53    2.93
   0  -3 -12    0.20    3.45
   0   3 -12   -0.56   15.08
   2  -9   0  145.02   72.86
  -2  -9   0  145.59   67.61
  -2  -9   0   77.00  174.38
   2  -9   0  144.62   68.11
  -2   9   0  161.08   80.64
   2   9   0  137.02   52.62
   2   9   0  128.91   53.35
   2  -9   0  129.18   56.80
  -2  -9   0   70.82  142.08
   2  -9   0  133.09   55.72
  -2   9   0  151.14   72.09
   2   9   0  141.89   75.44
   2   9   0  149.48   75.92
  -2  -9   0   90.12  166.29
   6   0   0  352.44  113.52
   6   0   0  318.47   92.79
  -6   0   0  373.60  122.14
  -6   0   0  333.38   92.50
  -6   0   0  120.81  159.32
  -5   0   7    0.08    7.54
   5   0   7    1.78    8.03
  -5   0  -7    0.20    8.82
   5   0   7    0.44   11.42
   5   0  -7    6.72    5.99
  -5   0  -7    1.10   17.80
   5   0  -7    0.43    8.09
  -2   9  -1    8.48   15.09
   2   9   1    7.72   15.92
  -2   9   1    7.43   14.36
  -2  -9  -1    5.09   39.09
  -2  -9  -1    8.72   13.91
   2  -9   1    7.76   13.52
   2   9   1    7.40   15.61
   2  -9  -1    5.90    9.74
  -2  -9   1    7.05   11.43
   2  -9  -1    7.72   14.84
   2  -9   1    6.76   10.10
  -2  -9  -1    5.19   43.10
   2  -9   1    7.82   10.06
  -2  -9  -1    4.76   37.33
   2   9  -1    5.83   41.69
   2  -9  -1    7.31   10.82
   2  -9   1    6.36   13.37
  -2   9  -1    7.94   14.48
   2   9  -1   12.55   10.01
   2   9  -1    8.79   16.23
   2   9   1    7.26    9.09
   2   9  -1   12.28   15.09
  -2  -9   1    8.04    7.17
  -2  -9   1   19.86   40.74
   2  -9  -1    7.35   15.07
  -3   0  11    0.33    7.10
  -3   0  11    0.77    5.59
   3   0 -11   -0.10    5.93
  -3   0 -11    0.27    2.93
  -3   0 -11    0.96    3.08
   3   0  11    1.82   10.13
   3   0 -11    0.15    1.52
   3   0  11   -0.12    3.50
  -3   0  11    0.19    3.10
   3   0  11    0.78    2.38
   3   0  11    0.03    2.04
   3   0 -11    0.13    3.29
   3   0 -11    0.15    4.02
   3   0 -11    0.27    2.94
   4   7   2   65.75   36.03
  -4   7  -2   86.77   58.25
  -4  -7  -2   84.13   54.23
  -4   7   2   92.75   54.00
   4  -7  -2   81.92   44.83
   4  -7   2   71.95   41.92
   4   7   2   66.60   29.81
   4  -7   2   85.15   54.44
   4  -7   2   78.54   47.09
   4   7  -2   66.49   37.37
  -4  -7  -2   34.87  138.07
   4  -7   2   52.82  117.54
  -4   7  -2  226.76  172.84
   4   7   2   83.54   41.98
   4  -7  -2   66.54   29.22
   4  -7  -2   42.53   90.37
  -4  -7   2  272.72  208.84
   4   7  -2   82.50   44.93
  -6   0   1    2.04    2.38
   6   0  -1    0.24    2.09
  -6   0  -1    0.73    3.17
   6   0  -1    0.04    1.82
  -6   0   1    0.06    1.82
  -6   0   1    0.08    1.80
  -6   0   1    1.45    5.45
   6   0  -1    0.21    2.00
   6   0   1    0.60    2.80
   6   0  -1    0.14    1.62
  -6   0  -1    0.20    2.29
   0  -8  -7  192.98  256.47
   0   8  -7  451.73  145.76
   0  -8   7  494.33  174.43
   0  -8  -7  339.65  430.92
   0  -8  -7  503.76  182.94
   0  -8   7  466.02  162.78
   0  -8  -7  424.57  149.57
   0  -8  -7  365.02  102.92
   0   8  -7  449.79  146.42
   0   8  -7  474.26  175.87
   0   8   7  495.98  175.08
   0   8   7  546.89  193.67
   0   8  -7  462.51  161.50
   3  -8  -3    1.29   24.87
   3   8   3    1.31    6.50
   3  -8  -3    2.49   11.76
  -3  -8  -3    0.45   15.76
   3   8   3    1.81    6.08
   3  -8  -3    1.44    6.79
   3   8   3    2.02    8.92
   3  -8   3    6.44   31.24
   3  -8   3    1.11    8.65
   3   8  -3    1.93   19.62
  -3  -8  -3    2.20   12.34
   3   8  -3    1.81   10.18
  -3   8  -3    1.98    7.73
  -3   8  -3   -0.07   39.49
  -3   8  -3    2.38   11.66
  -3   8  -3    4.68    3.47
   3  -8   3    4.25    7.87
   3   8  -3    9.63   10.03
  -3  -8  -3    2.01   25.95
   3  -8   3    1.92    8.61
  -3  -8  -3    1.21   18.13
  -3  -8   3   -3.18   38.21
   3  -8  -3    1.33    9.26
   3   8  -3    9.74    7.69
  -3  -8   3    0.31   15.25
  -2  -5  10  132.78   72.57
   2  -5 -10   51.26   95.91
   2  -5 -10  134.81   49.98
  -2   5 -10  137.19   95.39
   2   5 -10  129.55   55.82
  -2   5 -10  117.93   44.70
   2   5  10  142.01   63.25
   2   5  10  129.59   46.80
   2  -5  10  151.96   67.49
  -2  -5 -10  479.55  196.28
   2  -5  10  140.70   53.49
   2   5  10  131.86  124.93
   2  -5 -10  134.58   62.19
   2  -5 -10  124.26   64.57
  -2   5 -10  155.15   86.46
   2  -5 -10  134.80   58.20
  -2   5 -10  108.26  232.55
   2   5 -10  143.72   70.08
  -2   5  10  173.08   88.73
   2   5  10  140.50   57.03
  -2  -5 -10  274.99  141.15
   2   5 -10  125.19   53.85
  -2  -5 -10  165.26   83.12
  -2  -5 -10  130.48   48.82
   2  -5  10   57.31  114.44
   2   5 -10  160.98   67.22
   2  -5  10  130.42   75.90
   2   0  12   97.58  162.30
   2   0 -12  233.75   76.39
  -2   0  12  242.68   99.67
   2   0 -12  231.81   93.60
   2   0 -12  231.43   86.84
  -2   0 -12  210.14  246.70
   2   0 -12  255.64  112.16
  -2   0 -12  235.06   79.82
  -2   0 -12  240.32   98.10
   2   0 -12  126.91  178.63
   2   0  12  247.67  100.45
  -2   0  12  153.79  195.28
   2   0  12  226.91   80.71
   2   0  12  143.07  208.26
  -2   0  12  207.55   83.03
  -2   0 -12  216.57   81.23
   2  -6  -9   39.83   28.71
  -2   6   9   44.38   26.75
  -2  -6  -9   41.66   22.05
   2   6  -9   40.01   26.08
   2  -6   9   43.84   29.90
   2  -6   9   41.31   28.24
   2   6  -9   40.49   33.20
  -2   6   9   53.61   43.67
   2  -6   9   43.42   23.24
  -2  -6   9   41.76   36.70
  -2  -6  -9   16.87   58.48
  -2   6  -9   37.47   19.85
  -2   6  -9   43.40   36.99
  -2   6  -9   51.57   39.02
   2   6   9   47.48   25.32
   2  -6  -9   44.11   24.98
   2  -6  -9   37.98   22.74
   2   6   9   21.56   32.40
  -2   6  -9   29.87  114.14
   2   6  -9   43.99   28.07
   2   6   9   43.71   23.66
   2  -6  -9   19.26   59.53
  -2  -6  -9   39.05   74.44
   2   6   9   44.13   29.19
   2   6  -9   43.54   33.64
   2  -6   9   15.73   61.69
  -2  -6  -9   50.34   41.31
  -6   1   0   46.82   23.41
  -6   1   0   45.59   28.01
   6  -1   0   45.61   28.14
   6   1   0   43.17   21.56
   6   1   0   45.08   28.14
  -6  -1   0   17.40   62.39
   6  -1   0   42.10   22.61
   6  -1   0   44.07   20.75
  -6  -1   0   45.93   25.97
   5  -1   7    2.02    5.63
   5   1  -7   -0.03    6.09
   5  -1  -7    1.66    5.35
   5  -1   7    0.31    5.13
   5  -1  -7    0.39    4.70
  -5  -1   7   -0.76   13.27
   5  -1   7    0.94    2.83
   5  -1   7   -0.16    6.30
   5   1   7    0.55    5.10
  -5  -1  -7    1.95    6.45
  -5   1  -7    3.90    4.23
   5   1   7    0.64    6.06
  -5   1   7    0.34    5.51
  -5   1  -7   -0.60   13.48
   5   1  -7    0.55    3.64
  -5   1  -7    0.42    6.23
   5   1  -7    1.09    2.94
   3   7   6  196.75   76.25
   3  -7  -6  199.13   77.09
   3   7   6  115.82   95.63
   3   7   6  225.81   78.00
   3   7  -6  227.90   93.01
  -3  -7   6   53.66   74.91
   3  -7  -6   94.15  129.50
   3  -7   6   88.38  139.97
  -3  -7  -6   96.48  126.51
   3   7  -6  176.24  191.87
  -3  -7  -6  242.87  116.26
   3  -7   6  213.85   81.25
   3  -7   6  211.81   96.53
   3  -7   6  216.97   86.66
  -3   7   6  276.82  124.45
   3  -7  -6  224.46   82.09
   3   7  -6  195.51   57.71
  -3  -7  -6  141.14  171.95
  -3  -7   6  160.40  187.26
  -3   7  -6  234.02  106.63
   3   7  -6  217.78   83.55
   3  -7   6  206.52   67.80
  -3  -7  -6   74.34  148.27
   3   7  -6  213.08   82.97
   1   9  -4    2.45    6.76
  -1  -9   4    2.40    4.08
   1  -9  -4    1.60    3.90
  -1   9  -4    0.96   38.14
  -1   9  -4    2.73    4.60
  -1  -9   4    2.43   15.89
   1  -9   4    0.49   23.72
   1  -9   4    0.55    8.41
   1   9   4    2.26    3.44
  -1  -9  -4    2.11    7.46
   1   9   4    2.58    8.84
  -1  -9   4    1.94    3.15
   1   9  -4    1.28   30.73
  -1   9   4    2.51    5.16
   1   9  -4    2.10    5.17
   1   9  -4    5.28   11.43
   1  -9   4    2.80    5.15
   1  -9  -4    1.42   27.83
   1   9  -4    2.16    6.26
  -1  -9   4    2.24   20.74
  -1   9  -4    2.63    6.96
  -1   9  -4    3.01    5.86
   1  -9  -4    2.81    8.74
  -1  -9  -4    1.01   25.52
  -1   9  -4    2.21    7.68
   1  -9  -4    2.69    8.79
  -1  -9   4    0.35    6.45
   1   9   4    2.54    7.88
   1  -9  -4    1.46   28.46
  -1  -9  -4    1.04   13.58
   1  -9   4    2.45    5.68
  -1  -9  -4    3.63    8.69
   1  -9   4    1.92    5.35
  -1  -9  -4    3.26   21.52
  -3  -1 -11   51.83   19.94
  -3   1  11    1.40   51.62
  -3  -1 -11   46.62   30.62
   3  -1  11   54.65   27.82
  -3  -1 -11   38.33   98.98
   3   1 -11   26.91   61.14
   3   1 -11   57.17   34.46
  -3  -1  11   51.36   33.91
  -3   1 -11   48.35   30.66
   3   1  11   55.39   38.61
   3   1  11   53.77   29.73
   3   1  11  161.91  107.20
  -3   1 -11   36.34  105.15
   3  -1 -11   95.09   51.26
  -3  -1  11   26.46   59.24
   3  -1 -11   52.84   34.51
   3  -1 -11   61.25   42.69
  -3  -1  11   50.48   46.96
   3  -1 -11   53.78   32.55
  -3   1 -11   55.60   38.42
   3  -1  11  166.22  122.87
   3  -1  11   24.66   73.10
  -3  -1 -11   57.21   37.67
  -3   1  11   52.24   36.30
   3   1  11   34.38   94.23
   3   1 -11   61.52   31.98
   3  -1  11   54.25   38.18
   3  -1  11   53.63   29.07
   3   1 -11   53.79   34.26
   6  -1   1   34.04   25.93
  -6   1   1   30.33   15.23
  -6  -1   1   30.44   18.01
  -6   1  -1   32.27   24.98
   6  -1   1   29.87   16.79
   6  -1  -1   32.68   20.97
   6  -1   1   30.87   17.73
  -6  -1  -1   32.46   23.52
   6   1  -1   30.83   20.20
  -6   1  -1   32.94   18.49
  -6  -1  -1   10.81   57.47
   6   1  -1   30.99   20.02
   6   1   1   31.36   25.63
   6   1  -1   28.89   15.59
   6  -1  -1   30.02   18.38
  -6   1   1   31.53   18.82
  -6   1   1   31.05   20.41
   6  -1  -1   28.48   15.35
   5   3   6  288.26  174.15
  -5  -3   6   79.74  212.34
  -5   3  -6  109.18  166.15
   5  -3   6  179.07   66.56
   5   3  -6  147.91   47.23
  -5   3   6  169.65   76.49
   5  -3   6  155.59   59.56
   5  -3   6  188.22   87.63
  -5   3  -6  180.62   84.99
  -5   3   6  188.52   81.16
   5  -3  -6  166.45   68.11
  -5  -3  -6  396.47  210.81
  -5  -3  -6  192.71   96.31
   5  -3  -6  164.97   54.54
   5   3   6  167.85   72.29
  -5   3  -6  201.77   97.68
   5   3  -6  172.97   64.97
   0   6  10  206.87   83.15
   0   6 -10  195.89   71.68
   0   6 -10  216.53   77.50
   0  -6 -10  131.33  218.23
   0  -6 -10  201.36   76.58
   0   6 -10  210.57   90.38
   0  -6 -10  213.43   67.56
   0  -6 -10  178.04   57.45
   0  -6 -10   80.47  140.41
   0  -6  10  216.50   91.66
   0   6  10  245.31  101.10
   0  -6  10  211.28   95.12
   0  -6 -10  221.34  109.15
   0   6 -10  220.41   99.83
   4  -4   8  112.87   50.20
   4   4   8  108.44   56.53
  -4  -4  -8  368.71  126.97
  -4  -4  -8  267.86   99.31
   4   4   8  105.51   50.47
   4  -4  -8   93.32   33.18
   4   4  -8  101.83   45.28
   4  -4   8  102.97   46.73
   4  -4  -8   94.13   47.39
  -4   4   8  117.90   65.39
   4   4  -8   89.54   34.57
   4  -4  -8  112.42   59.08
   4  -4  -8   38.81   53.56
   4   4   8   55.23  133.65
  -4   4  -8  102.84   65.41
   4  -4   8  115.77   56.53
  -4  -4   8   78.10  131.04
  -4  -4  -8  121.11   73.24
   4  -4   8   36.21   81.11
  -4   4   8  113.01   56.97
   2   1 -12  621.01   97.63
   2  -1 -12   24.07   21.72
   2   1  12   22.47   18.14
   2   1  12   25.00   25.81
  -2   1 -12   20.09   17.17
  -2  -1  12   24.74   25.35
  -2  -1  12   21.70   20.37
   2   1  12  413.26  106.56
  -2  -1 -12   25.64   22.11
   2   1 -12   23.33   20.61
  -2   1 -12   25.58   18.15
   2  -1 -12   25.81   27.23
   2  -1  12   40.51   69.82
  -2   1  12    6.05   23.69
   2   1 -12   26.89   29.18
  -2   1  12   42.31   60.04
  -2  -1 -12   22.15   21.40
   2  -1  12   24.44   27.14
   2  -1  12  474.61   90.66
  -2   1  12   21.72   29.88
   2   1 -12   24.28   25.18
  -2   1 -12   23.61   25.91
  -2  -1 -12   28.32   56.73
  -2   1  12   23.43   19.18
  -2  -1  12  530.04   84.12
   2  -1 -12   21.42   41.52
  -2   1 -12  671.50  124.80
   2  -1  12   22.16   16.01
   2  -1 -12   23.08   24.36
   2   1 -12   23.08   18.78
   2   1  12   67.28   66.21
  -2  -1 -12   22.86   15.11
   2  -9   2   23.08   21.09
  -2   9  -2   25.60   24.78
  -2  -9   2   33.41   75.52
   2   9  -2   25.87   35.01
   2  -9  -2   30.81   25.70
  -2  -9  -2   24.86   23.96
  -2   9  -2   27.12   23.20
  -2  -9  -2   17.73   58.65
   2   9   2   24.22   18.03
  -2  -9   2   15.32   61.76
   2   9   2   22.19   14.52
   2  -9   2   21.82   17.90
   2  -9   2    0.22   13.94
  -2   9   2   25.69   22.57
   2  -9  -2   22.74   18.71
   2  -9  -2    0.18   73.47
   2   9  -2   13.81   62.75
   2   9  -2   20.60   23.58
   2  -9  -2   19.67   15.19
  -2  -9   2   23.12   17.00
  -2  -9  -2   13.82   54.63
   2   9   2   26.04   25.86
  -2   9   2   29.11   28.60
   2   9  -2   23.90   32.22
  -2  -9  -2   19.07   56.82
   2  -9   2   23.17   21.34
   2  -9  -2   25.54   23.64
  -2  -9   2   19.89   10.70
   4  -5  -7    7.65   11.78
  -4  -5  -7    4.17   31.88
  -4   5   7    8.81   16.00
   4   5  -7   10.52   17.05
   4   5  -7    8.75   12.32
   4  -5  -7    4.30   19.38
   4   5   7    8.93   12.51
   4  -5  -7    9.24    9.03
  -4   5  -7    9.34   13.06
   4   5   7    8.45   24.25
  -4  -5   7   34.97   44.71
   4  -5  -7    9.86   14.18
  -4   5  -7    9.68   18.19
  -4   5   7   11.71   18.34
   4   5  -7   11.79   14.58
  -4  -5  -7    7.03   30.16
   4  -5   7    5.60   25.04
  -4  -5  -7   10.76   19.69
  -4  -5  -7   15.25   24.26
   4  -5   7   10.69   13.80
   4  -5   7    9.17   13.08
   4  -5   7    8.80   10.30
   4   5  -7    7.67    6.71
  -5   5  -3   97.27   61.81
   5  -5  -3   89.63   44.25
  -5   5  -3   52.42  109.90
  -5  -5   3   42.47  186.80
  -5   5  -3   87.18   49.89
   5   5  -3   90.16   44.38
  -5   5   3   94.94   56.03
   5   5  -3   85.35   45.52
   5  -5   3   30.24   52.44
   5  -5   3   92.30   56.54
   5  -5   3   81.85   43.46
   5  -5  -3   75.87   32.12
   5   5   3   75.79   30.81
   5   5   3   69.01   31.17
   5  -5  -3   82.98   48.15
  -5   5   3   82.28   40.87
  -1  -3  12    0.51   12.36
   1   3  12    1.21    4.96
   1  -3  12   -2.95   17.06
   1  -3 -12    2.26    7.30
  -1   3 -12    1.85    7.73
   1   3 -12    1.31    6.70
  -1  -3 -12    1.00    5.64
   1  -3  12    0.94   10.10
  -1   3  12    3.85    4.09
   1  -3  12    0.91    6.91
  -1   3  12    4.44   16.29
   1   3 -12    0.81    3.95
   1   3 -12    0.54   21.70
  -1  -3  12    0.81    7.03
   1  -3 -12    1.36    5.74
   1  -3 -12    1.97    5.28
   1  -3 -12    2.06   12.66
  -1   3 -12   -0.40   25.40
  -1  -3 -12    8.41   15.42
  -1   3  12    1.32    5.96
  -1  -3 -12    0.72    4.88
   1   3 -12    2.42    7.71
   1   3  12    0.88    5.30
   1  -3  12   -0.18   14.24
   1  -3 -12    3.49    3.74
  -1  -3 -12    1.00    4.70
   1   3  12    5.14   18.65
  -1  -3 -12    1.32    3.36
   1   3 -12    2.48    7.06
  -1  -3  12    0.72    4.09
   1   3  12    4.01   11.41
   1   3  12    1.16    3.50
   6   0  -2  737.87  210.61
   6   0   2  805.23  257.32
   6   0  -2  689.64  196.51
  -6   0   2  248.98  252.58
   6   0   2  825.03  252.69
  -6   0   2  779.56  224.09
  -6   0  -2  826.80  276.66
  -6   0   2  727.40  210.69
   6   0  -2  730.26  210.10
   6   0  -2  760.24  222.22
  -6   0   2  709.20  197.75
  -5   4  -5   81.44  146.20
   5  -4  -5  108.74   42.90
  -5   4  -5  121.71   72.30
  -5   4   5  114.04   60.87
   5   4  -5  103.47   48.07
   5  -4   5   86.46   34.14
   5  -4   5   97.84   44.77
   5   4  -5  114.17   56.20
   5  -4   5  110.57   61.57
   5  -4  -5   93.60   41.63
   5   4   5   97.93   46.14
  -5  -4  -5  113.67   66.62
  -5  -4   5   43.96  186.66
  -5   4   5   99.24   50.35
  -5   4  -5  107.39   59.31
   0   5 -11    0.21    2.29
   0  -5  11    0.64    4.83
   0   5 -11    0.54    2.23
   0  -5 -11    0.12    2.78
   0  -5 -11    1.24    9.13
   0  -5 -11    0.40    3.28
   0   5 -11   -0.72   16.62
   0   5  11    0.09    4.20
   0   5 -11    0.20    4.91
   0  -5 -11   -0.52   13.85
   0  -5 -11    1.14    2.06
   0  -5 -11    0.19    4.12
   0   5 -11    2.15    5.11
   0  -5  11    0.44    4.36
  -3   5   9   77.96   52.57
   3   5   9   56.46   20.69
  -3  -5  -9  101.90   70.11
   3   5  -9   -0.01   25.93
  -3   5  -9   54.15   28.39
   3   5  -9   63.28   36.86
   3  -5  -9   59.07   33.59
   3  -5   9   58.76   32.20
   3  -5  -9   60.08   25.68
   3  -5  -9   59.61   35.64
   3  -5  -9   26.07   53.08
  -3  -5   9   41.86   86.65
   3  -5   9   64.15   36.55
  -3   5   9   61.62   35.28
   3   5   9   62.77   36.37
  -3   5  -9   65.95   45.06
   3   5  -9   70.24   39.80
   3   5  -9   53.71   26.63
  -3  -5  -9  208.96   93.06
   3   5  -9   40.17   76.49
   3   5   9   22.57   76.20
  -3  -5  -9   60.98   29.57
   3  -5   9   60.91   31.50
   1  -8  -7   26.74   21.52
   1  -8  -7   24.82  101.30
   1  -8   7   24.01   14.73
   1   8  -7   27.53   19.32
  -1   8   7   27.85   17.19
  -1  -8  -7   26.02   19.51
  -1  -8  -7   13.23   56.78
   1  -8   7   27.18   21.92
  -1  -8  -7   19.00   75.35
   1   8  -7   21.54   95.33
  -1  -8  -7   29.98   30.77
   1   8   7   31.16   27.55
  -1  -8   7    9.28   39.03
   1   8   7   22.76   10.73
  -1   8  -7   29.16   27.46
  -1   8  -7   26.00   16.69
  -1   8  -7   26.11   13.63
  -1   8   7   29.92   30.80
   1   8  -7   26.08   21.23
   1   8  -7   27.33   24.77
   1   8   7   44.55   24.76
  -1  -8   7   28.13   27.54
   1  -8  -7   29.18   34.29
   1  -8   7   27.04   22.57
  -1  -8   7   28.69   20.03
   1  -8  -7   21.84   13.10
   1  -8   7   24.39   14.97
   1  -8  -7   14.69   56.84
   6  -1   2   29.29   16.11
   6  -1  -2   29.54   15.91
  -6   1   2   30.28   17.61
   6   1  -2   24.15   15.36
   6   1  -2   32.43   19.01
  -6   1  -2   32.37   18.00
   6  -1  -2   29.81   19.67
   6   1   2   28.71   26.89
  -6   1   2   33.60   19.69
  -6  -1   2   31.28   18.45
  -6   1  -2   33.59   27.86
   6  -1  -2   29.48   17.47
   6   1  -2   30.49   17.60
   6  -1   2   32.63   26.14
  -6  -1  -2   33.27   25.95
   6  -1   2   36.51   19.54
  -6   1   2   34.50   18.27
  -6  -1   2    8.94   50.46
  -6  -1   2   28.30   15.29
  -2  -8  -6   19.19   65.80
  -2  -8  -6   14.66   53.51
  -2   8  -6   39.22  147.44
   2  -8   6   29.44   99.58
   2  -8  -6   34.51   20.08
  -2   8  -6   42.73   31.63
   2  -8   6   41.01   28.18
  -2  -8  -6   42.05   28.46
  -2   8  -6   46.27   53.26
  -2  -8   6   30.11   76.17
  -2  -8  -6   26.76   87.29
   2   8  -6   38.33   26.33
   2   8   6   81.68   34.55
   2  -8  -6   23.13   97.39
   2  -8  -6   44.19   31.96
   2   8   6   35.51   18.02
   2   8   6   39.16   29.26
   2   8  -6   41.51   29.83
   2   8  -6   40.37   30.15
  -2  -8   6   47.56   27.82
   2  -8   6   39.99   31.72
  -2  -8  -6   90.23   45.78
   2   8  -6   41.64   29.54
   2  -8   6   38.91   25.30
   2  -8   6   40.84   24.59
   4   7  -3   13.42   16.41
   4  -7  -3   18.08   19.20
  -4  -7  -3   10.60   63.78
   4  -7   3   12.92   55.18
   4   7  -3   18.20   20.09
   4   7   3   14.18   14.97
   4  -7   3   15.72   24.69
  -4   7   3   21.38   25.36
   4  -7   3   18.11   22.18
   4   7   3   14.47   13.21
  -4   7  -3    8.99   70.24
   4  -7   3   17.39   20.12
   4   7   3   18.50   17.04
   4  -7  -3   21.84   13.49
  -4  -7   3   66.53   94.13
   4  -7  -3    8.05   43.30
  -4   7  -3   19.03   36.73
   2   4 -11  171.06   71.41
   2  -4  11   65.50  164.82
   2  -4  11  155.01   71.58
   2  -4  11  151.49   56.06
   2   4 -11  141.68   64.84
  -2   4 -11  150.97   80.30
  -2  -4  11  444.41  165.13
  -2   4  11  171.18   84.26
  -2   4 -11  104.08  224.70
  -2  -4  11  146.88   76.74
   2  -4 -11   77.69  104.68
   2  -4 -11  136.19   47.29
   2   4  11  431.91  193.75
   2   4  11  155.45   65.37
   2   4 -11  110.51  168.13
  -2  -4 -11  141.47   50.49
   2  -4 -11  147.38   63.84
  -2  -4 -11  371.60  162.65
   2  -4  11   55.35  115.96
   2  -4 -11  149.23   81.97
   2   4 -11  148.02   70.75
   2   4  11  383.24  187.23
   2  -4  11  146.08   69.86
  -2   4 -11  125.23   47.27
   2  -4 -11  145.63   64.49
   0  -7  -9    0.39    1.97
   0   7   9    0.43    3.38
   0  -7   9    0.08    4.07
   0   7  -9    0.93    4.17
   0  -7   9    0.06    3.70
   0   7  -9    1.49    2.36
   0   7   9    0.17    4.24
   0  -7  -9    0.60    4.21
   0  -7  -9    0.11    9.00
   0  -7  -9    0.70    3.05
   0  -7  -9    0.04    1.49
   0   7  -9    0.08    2.28
   0  -7  -9    0.59   14.26
   0   7  -9    0.43    3.99
   0  -9   5    0.52   11.14
   0  -9  -5    0.15    3.22
   0   9  -5    0.35    3.09
   0   9   5    0.62    4.77
   0  -9   5    0.31    2.34
   0  -9  -5    0.18   12.22
   0  -9  -5    0.99   12.46
   0  -9   5    0.05    2.49
   0  -9  -5    1.16    4.06
   0   9  -5    0.43    3.26
   0   9   5    0.23    3.92
   0  -9   5    1.31    6.79
   0   9  -5    0.22    2.49
   0   9  -5   -0.79   16.78
   3   6  -8   18.75   17.40
  -3  -6  -8    9.37   34.29
  -3   6   8   21.26   19.56
   3   6  -8   24.80   20.33
   3  -6  -8   19.17   16.31
  -3   6  -8   30.71   26.33
   3  -6  -8   10.07   35.80
   3   6   8   19.52   18.33
  -3   6   8   26.23   29.49
   3  -6   8   18.47   15.19
   3  -6   8   10.50   40.90
   3   6  -8   15.54   50.15
   3  -6  -8   18.19   18.55
  -3  -6  -8    0.83   14.57
   3   6   8   32.46   28.94
  -3   6  -8   18.91   15.22
   3   6  -8   17.30   12.27
  -3  -6  -8   12.92   39.16
  -3  -6   8   12.18   51.86
   3  -6  -8   20.86   15.11
   3   6   8    1.22   18.48
   3   6   8   20.68   17.94
   3  -6   8   21.81   19.73
  -3  -6  -8   21.55   28.35
   3  -6   8   18.09   21.05
   3   6  -8   20.61   20.39
  -6   2   0   42.30   27.12
   6   2   0   35.02   17.69
   6   2   0   39.82   17.98
   6  -2   0   40.25   24.07
  -6  -2   0   42.34   23.71
  -6   2   0   45.53   27.71
   6   2   0   40.40   28.46
  -5   2  -7   16.72   19.84
   5   2   7   18.72   75.11
  -5  -2   7    5.10   56.23
   5   2   7   14.66   17.76
   5   2  -7   27.29   16.84
   5  -2   7   15.80   12.15
   5  -2   7   16.52   20.64
  -5   2  -7   14.80   22.33
   5  -2  -7   17.98   18.78
  -5  -2  -7   16.28   24.49
   5   2  -7   16.36   12.55
  -5   2   7   16.44   17.89
  -5   2   7   15.68   19.07
  -5   2  -7    6.09   46.36
   5  -2   7    6.76   23.83
   5   2   7   15.64   21.93
   5  -2   7   14.86   16.58
  -5  -2   7   16.09   18.97
   1  -6  10  768.65  256.78
  -1  -6  10  757.49  270.01
  -1  -6 -10  754.83  516.15
  -1   6  10  934.55  322.08
  -1   6 -10  846.44  305.20
   1  -6 -10  746.29  243.46
   1  -6 -10  632.91  197.02
   1   6  10  396.89  229.92
  -1  -6 -10  716.12  224.52
  -1  -6 -10  328.26  342.87
   1   6 -10  806.10  259.66
   1   6  10  757.50  212.38
   1  -6 -10  804.01  248.72
  -1  -6 -10  902.04  307.47
  -1   6 -10  777.05  273.04
   1   6 -10  752.98  243.90
   1  -6  10  803.37  266.65
   1   6 -10  706.93  212.21
   1   6 -10  811.72  281.71
   1   6  10  763.29  252.26
   1  -6 -10  292.64  316.14
  -1  -6  10  822.99  284.37
   1  -6 -10  769.46  229.01
   2   7   8   19.65   19.36
   2  -7   8   19.83   17.97
   2   7  -8   18.95   15.41
   2   7  -8   18.87   22.16
   2   7  -8   18.85   17.91
   2   7   8   25.77   16.90
  -2  -7  -8   15.23   59.61
  -2  -7  -8   21.86   15.76
   2  -7  -8   16.78   13.35
   2  -7  -8   11.58   45.48
  -2   7  -8   21.99   26.24
   2  -7   8   17.94   13.22
  -2   7   8   19.76   17.54
   2   7  -8   19.60   18.58
  -2   7   8   26.46   30.45
   2  -7   8   10.58   42.91
  -2  -7  -8   24.88   28.70
   2  -7   8   20.76   19.82
  -2  -7  -8   13.78   60.44
   2  -7  -8   22.32   19.58
  -2   7  -8   14.27   82.43
   2  -7   8   19.90   14.93
   2   7   8   10.58   20.86
   2  -7  -8   19.93   19.57
  -2  -7   8   17.14   52.55
   4  -3   9   71.58  119.63
   4  -3  -9  176.01   78.34
   4   3  -9  218.38   95.78
  -4   3   9  189.89   91.21
  -4  -3   9  170.18   78.87
   4   3   9  182.38   83.24
  -4   3  -9  167.59   75.99
  -4   3  -9  131.36  242.54
  -4  -3   9  112.80  166.21
   4  -3   9  173.82   73.79
   4   3   9  418.08  257.18
   4   3   9  163.85  146.59
   4  -3  -9  176.93   78.94
   4   3  -9  158.23   58.84
   4  -3   9  186.96   72.16
   4  -3   9  192.11   83.41
  -4  -3  -9  402.96  158.50
   4   3  -9  177.63   67.18
   4  -3  -9  195.23  111.81
   3   2  11    0.58    4.02
  -3   2 -11    0.47    2.97
   3   2 -11    0.34    3.56
  -3   2  11   -0.03    4.23
   3  -2  11   -1.94    8.77
  -3  -2  11    0.84    6.21
   3  -2  11    0.09    2.67
   3  -2  11    0.51    4.15
   3   2 -11    0.91    2.76
   3   2 -11    0.39    3.47
  -3  -2  11    0.01    9.83
   3   2  11   -0.08   10.84
   3   2  11    0.22   10.54
   3  -2 -11    1.50    4.98
   3  -2  11    2.00   12.03
  -3  -2 -11   -0.35    7.81
   3   2 -11    0.93    8.04
   3  -2 -11    0.21    4.21
   3  -2  11    0.43    2.91
   3  -2 -11    0.28    3.63
  -3   2 -11   -0.08   14.19
   3  -2 -11    0.19    3.69
   3  -4 -10   46.29   31.29
   3   4  10   50.16   29.84
   3   4 -10   45.68   30.16
   3  -4  10   43.60   30.14
   3   4  10  101.32   90.14
   3   4  10   47.10   32.22
  -3   4 -10   37.00   23.22
  -3  -4 -10  119.27   68.95
  -3   4  10   53.54   43.11
  -3   4 -10   48.23   39.26
   3  -4  10   46.54   31.02
   3  -4 -10   43.53   30.43
  -3  -4  10   13.72   38.55
   3  -4 -10   44.51   31.71
   3  -4  10   48.35   28.35
  -3  -4  10   27.74   77.13
   3  -4 -10   40.49   17.87
   3   4 -10   26.52   89.40
  -3   4 -10   30.88  120.15
   3  -4 -10   17.81   42.04
  -3  -4 -10  164.82   84.86
  -3  -4 -10   54.99   42.87
   3   4 -10   42.56   25.83
   3   4 -10   52.09   34.59
  -6   2  -1  498.34  167.00
  -6  -2   1  436.35  136.73
   6   2  -1  351.30  102.06
   6  -2  -1  434.11  147.79
   6   2  -1  451.75  137.49
   6  -2   1  432.82  140.37
   6   2  -1  433.59  152.21
  -6   2   1  482.84  162.88
  -6  -2   1  188.83  286.90
  -6   2  -1  475.50  168.46
   6   2   1  392.99  124.18
   6  -2   1  397.79  114.30
  -6   2   1  443.16  148.76
  -6  -2  -1  470.65  161.37
   3   8  -4   33.87   33.77
   3  -8   4   37.33   28.42
   3   8  -4   38.75   31.69
   3  -8   4   26.02   91.23
   3  -8  -4   29.38   20.14
  -3  -8   4   18.81  110.33
  -3   8   4   46.80   42.35
   3  -8  -4   33.28   23.51
  -3   8  -4   40.23   38.55
   3   8  -4   36.88   30.11
   3  -8  -4   20.36   77.08
  -3  -8   4   14.91   44.92
   3   8   4   31.26   19.11
  -3   8  -4   30.49  120.79
   3  -8  -4   47.02   30.37
  -3  -8  -4   20.38   57.32
  -3  -8  -4   14.23   49.52
  -3  -8  -4   14.77   71.77
  -3   8   4   39.90   31.45
   3   8   4   40.76   28.69
  -3  -8  -4   40.22   39.00
   3   8  -4   20.17   59.36
   3   8   4   32.79   22.95
   3  -8   4   34.79   25.72
   3  -8   4   36.71   27.39
   3  -8   4   36.84   17.67
  -2  -2  12  193.66  215.89
  -2   2  12  462.36  169.09
   2  -2  12  199.33  265.63
  -2  -2 -12  946.15  375.05
   2   2 -12  266.44  297.06
  -2   2 -12  299.83  399.50
  -2  -2  12  500.40  200.46
   2   2  12  473.28  161.80
   2  -2 -12  512.44  215.40
   2   2 -12  553.02  215.33
   2  -2  12  494.72  179.31
   2   2  12  498.51  176.39
   2   2 -12  463.15  159.58
  -2  -2 -12  483.10  172.47
   2  -2 -12 1024.34  332.43
  -2  -2 -12  466.16  171.72
  -2   2  12  623.57  356.88
   2  -2  12  503.23  173.22
   2   2 -12  459.34  162.98
   2  -2  12  380.83  370.07
   2   2  12  362.29  384.42
  -2   2 -12  498.72  192.93
   2  -2 -12  483.92  168.99
   2  -2 -12  484.25  169.11
   2   2  12 1328.75  485.46
  -2   2 -12  378.73  124.02
   2   2 -12  461.35  158.96
  -2  -2 -12  452.24  133.88
   2  -2  12  447.98  141.60
  -2   9  -3  300.76  432.06
  -2   9  -3  340.90  124.25
   2  -9  -3  201.02  301.51
   2  -9  -3  371.68  153.72
   2   9   3  352.67  139.79
  -2   9  -3  370.08  148.76
   2   9   3  306.17  101.16
   2  -9  -3  354.11  135.17
  -2  -9   3  168.40  228.44
   2  -9  -3  308.41  113.61
  -2  -9   3  241.55  409.58
  -2  -9  -3  365.01  152.56
   2   9  -3  353.66  138.55
   2   9  -3  323.00  118.03
   2  -9   3  299.58   95.26
   2   9  -3  242.89  282.97
  -2   9  -3  403.41  146.48
   2   9  -3  343.45  139.32
  -2   9  -3  303.12   96.06
   2   9   3  321.66  115.55
  -2   9   3  387.33  162.52
  -2  -9  -3  115.36  206.50
   2  -9   3  324.07  142.07
  -2  -9  -3  188.01  270.64
   2  -9   3  220.42  320.37
  -2  -9  -3  185.17  242.17
   2  -9   3  338.93  124.87
   2  -9   3  331.22  120.08
   2  -9  -3  286.97  101.37
   0   0  13    0.29    9.22
   0   0 -13    0.91    3.85
   0   0  13   -0.52    7.57
   0   0 -13    0.35    2.32
   0   0  13    0.57    2.28
   0   0  13    1.84    5.48
   0   0 -13    0.47    4.53
   0   0 -13   -0.04   12.62
   6   0  -3    0.09    2.46
  -6   0   3    0.25    2.77
   6   0   3    0.65    3.47
   6   0  -3    1.03    2.65
  -6   0   3    0.11    5.62
  -6   0   3    0.82    2.24
   6   0   3    0.08    3.70
   6   0  -3    0.17    2.84
  -6   0  -3    0.18    4.21
   1  -5 -11   86.36   39.34
  -1  -5 -11  334.86  166.48
  -1   5 -11  101.29   61.81
   1   5 -11  105.84   60.57
   1  -5 -11   40.60   92.13
  -1   5 -11  106.63   68.55
   1   5 -11  115.71   48.65
   1   5 -11   94.71   51.36
  -1  -5 -11  186.85  119.42
  -1   5 -11   66.97  175.40
   1   5  11  144.36   84.99
   1   5  11  102.06   40.90
   1   5  11  100.26   48.53
   1  -5  11  102.13   56.39
   1  -5 -11  100.92   44.77
   1  -5 -11   99.30   48.71
  -1  -5  11   98.01   56.50
   1   5  11  106.37   46.80
  -1  -5 -11  110.32   61.80
   1  -5  11   37.09   95.23
  -1   5  11  119.05   64.34
  -1   5  11  105.98   49.89
   1  -5  11   97.62   56.08
   1   5 -11   91.59   39.17
  -1  -5 -11   93.68   40.02
   1   5 -11   71.66  161.98
   4  -6  -6   53.87   30.22
   4  -6   6   53.28   35.14
  -4  -6  -6   58.60   48.13
   4  -6   6   19.38   57.63
  -4  -6  -6   19.74   42.48
   4   6  -6   53.15   34.64
   4  -6  -6   46.26   29.03
   4   6  -6   49.59   31.73
   4  -6   6   48.90   23.39
  -4   6  -6   47.66   31.22
   4  -6  -6   20.21   49.92
   4   6   6   52.74   23.39
  -4  -6   6   25.85  138.42
   4   6   6   56.97   32.37
   4  -6   6   53.31   34.68
  -4   6   6   66.09   48.08
  -4  -6  -6   34.72   65.57
   4   6   6   29.99   50.56
  -4   6  -6   55.26   45.29
  -4   6  -6   39.21  109.46
   0   1  13    0.59    2.66
   0   1 -13    1.56    5.31
   0  -1 -13    0.10    4.71
   0  -1  13    0.49    2.39
   0   1  13    0.48    3.93
   0   1 -13    0.99    4.68
   0  -1  13    0.21    8.97
   0  -1 -13   -0.76   10.53
   0  -1  13    4.10    4.50
   0   1  13    0.35    2.26
   0  -1 -13    0.09    2.68
   0   1  13    1.10    7.75
   0   1  13   -0.41   14.72
   0   1 -13    0.37   14.36
   0   1 -13    0.47    2.51
   0  -1  13    0.73   10.86
   0  -1 -13    2.52    3.96
   6  -1  -3    5.17    9.25
  -6  -1   3    5.49    8.17
   6  -1   3    4.58    5.83
  -6   1  -3    6.86   12.51
   6   1  -3    5.26    8.06
   6  -1   3    5.49   11.81
  -6   1   3    5.31    8.17
  -6   1   3    8.59   11.08
   6   1  -3    4.61    4.88
   6   1  -3    5.65    6.74
  -6   1  -3    5.38    7.08
   6   1   3    4.99    9.12
  -6  -1   3    3.12   33.87
   6  -1  -3    5.16    6.12
  -6  -1  -3    5.69   11.88
   6   1  -3    6.02    9.44
   6  -1  -3    5.47    6.43
   6  -1  -3    5.56    6.33
   6  -1   3    5.46    8.39
   5   5  -4  892.74  276.78
  -5  -5   4  394.81  673.42
   5  -5  -4  773.99  221.46
  -5   5  -4  862.52  282.73
   5   5  -4  827.65  266.08
   5  -5   4  680.75  179.41
   5   5   4  741.35  201.05
  -5   5  -4  532.60  526.49
  -5   5  -4  972.34  357.38
   5  -5  -4  892.66  266.72
   5   5   4  715.28  215.13
   5  -5   4  312.96  267.66
   5  -5   4  781.90  247.03
  -5   5   4  819.66  278.11
  -4   0 -10 1897.58  278.90
  -4   0  10   83.50   52.37
  -4   0 -10   87.34   52.00
  -4   0 -10   84.06   44.21
   4   0  10   82.50   31.52
   4   0 -10   80.80   41.51
   4   0  10   36.24   77.51
   4   0  10   84.37   51.63
   4   0  10   89.66   47.94
  -6   2  -2  118.77   53.84
   6   2   2  100.61   44.08
  -6  -2   2   49.30  130.58
   6  -2  -2  102.88   37.46
   6  -2  -2  113.61   48.11
  -6   2   2  112.94   43.57
   6   2  -2  117.63   47.40
  -6   2   2  118.90   67.00
   6  -2   2  106.19   44.97
   6   2  -2  103.52   48.38
  -6   2  -2  118.02   60.53
   6  -2   2  121.25   62.96
  -6  -2  -2  114.57   56.17
   6  -2   2   97.71   37.54
   6  -2  -2  106.38   52.46
  -1   7  -9  216.11   98.97
   1  -7  -9  215.68   74.51
  -1  -7   9  224.41   93.69
   1  -7   9  213.91   89.88
  -1   7   9  221.32   96.02
   1   7  -9  204.56   82.36
  -1   7   9  238.19  130.76
   1  -7  -9  172.08   60.71
   1   7   9  226.20   90.13
   1  -7  -9   87.85  158.12
  -1  -7   9  213.60   98.97
   1  -7  -9  201.58   82.53
  -1  -7   9   69.49  121.32
  -1   7  -9  219.15  100.13
  -1  -7  -9  247.83  112.15
  -1  -7  -9  196.12   75.23
  -1  -7  -9  136.82  215.19
   1  -7   9  193.65   65.39
   1  -7  -9  224.88   89.47
   1   7  -9  197.59   85.24
   1   7  -9  218.47   81.57
  -1  -7  -9   92.62  224.12
  -1   9  -5    2.46    3.39
   1  -9  -5    0.65    4.67
   1   9  -5    0.21    4.11
  -1  -9   5    0.47    2.51
  -1  -9   5    0.13   10.67
   1   9  -5   -0.39   16.87
  -1   9  -5    0.33   20.65
   1   9   5    0.66    4.79
  -1   9  -5    0.24    4.17
  -1  -9  -5    0.31   11.27
   1  -9  -5   -0.37   15.37
  -1   9   5    0.59    2.66
   1   9   5    0.21    1.69
  -1   9  -5    0.39    3.33
   1   9  -5    0.39    2.71
  -1   9   5    0.01    5.40
   1  -9   5    0.30    2.38
   1   9   5    0.46    4.18
  -1  -9   5    0.73    8.82
  -1  -9  -5   -0.11    5.01
  -1  -9  -5    2.26   19.55
  -1  -9  -5    0.38    3.84
   1  -9   5    1.12    3.14
   1   9  -5    0.18    3.43
   1  -9   5    0.29    3.20
   1   9  -5    0.58    3.66
   1  -9  -5    0.31    1.96
   1  -9   5    0.42    2.71
   0   4  12  391.80  135.69
   0   4 -12  278.66  370.35
   0  -4 -12  417.02  134.30
   0   4  12  429.49  148.28
   0  -4 -12  812.52  297.57
   0  -4  12  146.02  207.08
   0   4 -12  428.81  173.36
   0  -4  12  395.71  155.84
   0  -4 -12  394.08  133.15
   0   4 -12  378.54  113.20
   0   4 -12  416.32  188.50
   0  -4 -12  372.11  122.57
   0   4 -12  364.42  107.72
  -4   1 -10  584.56  231.84
   4   1  10  596.17  210.91
  -4   1 -10  577.93  238.05
  -4  -1  10  586.81  209.81
   4  -1  10  618.58  178.98
   4  -1 -10  575.20  188.22
   4   1  10  370.63  377.91
   4  -1  10  349.56  298.96
  -4  -1  10  408.09  295.23
  -4   1 -10  466.86  478.60
   4  -1  10  603.98  208.38
  -4   1  10  599.30  218.75
  -4  -1 -10  656.86  243.73
   4   1 -10  579.36  163.76
   4  -1  10  638.45  218.58
  -4  -1 -10  433.03  436.79
  -4   7  -4   44.82   40.22
   4  -7  -4   34.86   22.10
   4  -7  -4   40.46   28.39
  -4  -7  -4   14.19   35.74
   4  -7   4   30.13   82.13
   4   7   4   42.82   25.20
   4   7   4   35.32   22.06
  -4   7   4   50.51   41.37
  -4   7   4   43.86   35.75
  -4  -7  -4   21.74   48.78
   4  -7   4   40.27   30.64
  -4   7  -4   30.14  108.01
   4   7   4   33.46   22.30
   4   7  -4   40.50   40.83
   4  -7  -4   21.31   65.28
  -4  -7   4   24.65  126.41
  -1   0 -13    1.74    2.65
   1   0  13   -0.64    9.81
  -1   0  13    0.33    3.07
  -1   0  13    0.52    6.74
   1   0  13   -0.12    4.57
  -1   0 -13   -0.31   16.24
   1   0 -13    0.76    3.11
  -1   0 -13    0.89    3.62
  -1   0  13    0.42    4.17
  -1   0 -13   -0.13    4.61
   1   0 -13   -0.62   13.11
   1   0  13    0.58    2.37
   5  -6   0    0.83   11.70
   5  -6   0   -0.87   22.15
  -5  -6   0  427.28   55.57
   5   6   0    0.26    8.49
  -5   6   0   -1.09   21.70
  -5   6   0   -0.27   14.72
   3  -7  -7   30.66   22.53
  -3   7  -7   39.49   36.00
  -3  -7   7   25.73   71.15
   3   7   7   19.21   33.30
   3  -7   7   35.73   24.25
   3  -7  -7   16.70   51.76
   3   7   7   37.65   22.54
  -3   7  -7   23.30  101.07
  -3  -7  -7   21.78   65.69
  -3  -7   7    8.02   27.50
   3  -7  -7   38.71   24.40
  -3   7   7   37.66   27.99
  -3  -7  -7   40.10   39.87
   3   7  -7   31.56   16.29
   3   7  -7   22.56   66.79
  -3   7   7   44.57   41.73
   3   7  -7   35.38   25.97
  -3  -7  -7   14.07   46.72
   3  -7   7   34.51   23.34
   3  -7   7   33.99   20.66
   1  -1  13   69.26   42.05
   1   1  13   70.08   38.27
   1   1 -13   70.20   44.38
  -1   1  13   21.01   48.44
  -1   1 -13   67.21   35.80
   1  -1 -13  109.53   80.05
   1  -1  13   58.81   24.55
  -1  -1 -13   54.38   93.25
  -1  -1 -13   61.83   29.08
  -1   1  13   78.82  110.73
  -1   1  13   58.52   30.79
   1   1 -13   68.70   39.39
  -1   1  13   72.17   36.57
  -1  -1 -13   67.09   32.34
  -1   1 -13   70.06   43.90
   1   1 -13   37.43  102.11
   1   1 -13   65.77   29.59
  -1   1 -13   36.62  124.10
   1  -1  13   28.81   82.91
  -1  -1  13   24.55   74.63
   1  -1 -13   65.13   31.25
  -1  -1  13   57.34   28.69
  -1  -1 -13   67.07   37.82
   1  -1 -13   71.08   41.60
   1  -1 -13   67.75   39.77
  -1   1 -13   50.30   21.63
  -1  -1  13   70.91   41.43
   1   1  13   64.05   28.16
  -5   0  -8  285.64  135.40
   5   0  -8  260.91  101.50
  -5   0   8  276.35  123.83
   5   0   8  914.91  306.09
   5   0   8  276.71  120.78
  -5   0  -8 1348.72  459.37
  -5   4  -6  204.62   94.16
  -5   4  -6  245.04  121.51
   5  -4  -6  206.47   70.87
  -5  -4  -6  227.04  114.14
   5  -4  -6  194.98   74.76
  -5   4   6  207.51   89.49
   5   4   6  200.03   83.28
   5   4  -6  167.24   51.19
   5  -4   6  185.16   64.43
  -5   4   6  230.35  100.40
  -5  -4   6  218.15   90.88
   5   4  -6  206.46   79.27
   5  -4   6  212.59   80.46
  -5  -4   6   84.13  266.22
  -5  -6  -1  499.78  281.10
   5  -6   1  172.05   80.76
  -5   6   1  150.83   60.75
   5  -6  -1  168.30   75.95
  -5  -6  -1  152.15   80.16
   5  -6   1  100.70  143.77
   5   6   1  122.28   43.62
  -5   6  -1   72.69  133.99
   5   6   1  148.76   59.67
   5  -6  -1  139.28   45.53
  -5  -6   1   69.44  227.78
  -5   6  -1  175.15   94.56
   5   6  -1  155.51   64.58
   0  10   0    6.23   14.96
   0  10   0    7.05    8.49
   0 -10   0    6.51   11.57
   0 -10   0    0.28   24.01
   0 -10   0    5.94   10.11
   0 -10   0    5.14    6.25
   0  10   0    6.39    6.87
  -2   9   4    5.01   10.65
   2  -9  -4    2.21    8.75
   2   9  -4    1.91   22.45
  -2  -9  -4    2.52   24.80
  -2   9  -4    2.00   39.39
  -2  -9   4    1.58   18.42
   2  -9   4    1.58    4.66
  -2  -9  -4    0.49   19.15
  -2  -9  -4    2.92   10.14
   2   9  -4    3.72    8.87
  -2   9  -4    4.62    7.28
   2   9   4    2.57    8.77
   2  -9  -4    1.21   27.45
   2   9   4    1.96    6.20
   2  -9   4    1.93    6.15
  -2  -9   4    1.85   19.95
  -2   9  -4    1.73    3.84
  -2   9  -4    2.07    6.17
  -2   9   4    2.47    7.58
   2  -9   4    3.82    7.00
  -2   9  -4    3.39    9.52
   2  -9  -4    2.94    4.93
  -2  -9  -4    1.44   20.05
   2   9   4    2.16    7.12
   0  -2 -13  248.71   78.85
   0  -2 -13  248.71   88.23
   0  -2 -13  542.44  212.74
   0   2  13  260.72   86.57
   0   2  13  212.21   71.70
   0   2  13  127.72  139.93
   0   2  13  238.35   75.46
   0  -2  13  257.70   99.25
   0   2 -13  253.12   79.86
   0  -2  13  198.62   64.77
   0   2 -13  144.52  217.72
   0  -2 -13  225.19   71.71
   0   2 -13    0.12   68.32
   0   2 -13  262.71  104.66
   6   3   0  123.21   61.03
  -6   3   0  125.57   59.03
  -6  -3   0  121.29   49.38
   6  -3   0  122.07   54.91
  -6   3   0  140.03   66.04
   6   3   0  118.33   44.17
   6   3   0   99.49   35.36
   5  -3  -7  314.37  117.91
   5  -3   7  317.72  108.25
   5   3  -7  317.50  110.46
  -5   3   7  344.25  131.60
  -5   3   7  315.36  129.61
   5  -3   7  285.49  102.63
  -5  -3  -7  353.62  157.36
  -5  -3   7  129.07  296.28
  -5   3  -7  322.36  134.43
  -5   3  -7  371.14  167.53
   5   3   7  339.17  141.67
   5   3  -7  274.90   85.04
   6   0  -4  107.46   48.56
  -6   0   4  102.12   40.97
  -6   0  -4  118.10   65.64
   6   0   4  109.09   55.22
   6   0   4  117.68   61.72
   6  -2  -3   36.84   19.75
   6  -2   3   36.09   19.93
  -6  -2   3   19.07   77.09
  -6  -2  -3   39.52   30.72
  -6   2   3   41.41   23.11
   6  -2  -3   36.59   20.75
  -6   2   3   39.98   27.36
   6   2  -3   37.09   30.55
  -6   2  -3   43.52   35.44
  -6   2  -3   40.97   34.26
   6  -2  -3   38.80   28.63
   6  -2   3   36.21   26.02
   6   2   3   36.42   23.85
   0  -8  -8  407.22  452.89
   0   8  -8  693.26  709.57
   0  -8   8  986.10  341.70
   0   8  -8  964.41  301.01
   0  -8   8  978.01  332.04
   0   8   8 1073.85  370.20
   0   8  -8  947.13  288.41
   0  -8  -8 1074.43  366.42
   0   8  -8  975.72  329.09
   1   4 -12   32.26   28.52
  -1  -4 -12   31.70   17.30
  -1  -4 -12   32.41   19.02
  -1   4  12   33.03   20.91
   1  -4 -12   30.53   23.68
   1   4  12   31.06   18.79
   1   4 -12   34.04   20.13
   1  -4  12   32.76   29.74
  -1  -4 -12   26.96   13.91
  -1   4  12   37.08   28.72
   1   4  12   97.25   55.30
  -1  -4 -12   79.98   65.58
  -1  -4  12   31.42   28.65
   1   4  12   32.33   22.96
   1   4 -12   19.32   88.40
  -1  -4  12   10.13   45.06
   1  -4 -12   31.74   19.49
  -1   4 -12   20.96   99.82
  -1   4 -12   33.99   33.01
   1  -4 -12   30.64   20.99
   1   4  12   35.12   21.13
   1  -4 -12   52.26   52.08
  -1  -4 -12   33.91   36.54
   0  10  -1   39.37   36.50
   0 -10  -1   39.68   31.11
   0 -10   1   10.28   60.96
   0 -10   1   32.52   22.33
   0  10  -1   39.43   21.11
   0 -10  -1   36.58   26.87
   0  10  -1   38.53   22.82
   0  10   1   43.39   37.61
   0 -10   1   33.92   30.21
   0 -10  -1   32.61   16.61
   0  10   1   36.45   19.39
   0 -10   1   37.08   26.10
   3   3  11  600.95  212.61
   3  -3 -11  571.38  197.62
  -3   3 -11  504.13  171.00
   3   3 -11  406.62  371.98
  -3   3  11  621.53  234.13
   3  -3 -11  732.39  319.48
  -3  -3 -11  650.46  249.26
   3  -3  11  625.22  210.50
  -3  -3  11  533.36  189.54
   3  -3  11  605.69  203.56
   3   3  11 1826.24  712.00
   3  -3  11  587.36  207.74
   3   3  11  923.44  489.53
  -3   3 -11  432.72  513.34
   3   3 -11  577.54  193.53
  -3  -3  11  209.81  217.32
  -3  -3 -11 1413.94  482.28
   5  -1  -8  357.33  125.48
   5  -1   8  347.83  102.19
  -5   1  -8 1021.94  437.91
   5   1  -8  329.76  108.62
  -5  -1  -8  363.68  152.96
   5   1   8  363.29  140.37
  -5   1  -8  362.46  140.85
  -5   1  -8  357.54  146.27
  -5  -1   8  142.06  240.81
  -5   1   8  356.47  140.41
   5  -1   8  321.97  119.65
  -5  -1  -8  220.65  273.17
   5  -1   8  204.66  167.17
   6  -3   1  103.33   49.13
   6   3  -1  104.57   53.54
  -6  -3   1   49.06  153.82
  -6   3   1  120.61   60.36
   6  -3  -1  115.53   55.92
   6   3  -1  107.36   44.52
   6   3   1   89.14   36.33
  -6  -3  -1  108.55   49.55
   6  -3  -1  107.18   52.79
  -6   3  -1  111.34   58.42
   6   3   1  108.49   59.36
  -6   3  -1  120.42   61.18
   3  -8  -5   12.14   54.71
   3  -8  -5   18.02   19.50
   3   8   5   15.08   11.85
  -3  -8   5   23.82   60.21
   3  -8   5   15.45   11.70
   3   8   5   17.23   17.90
   3  -8  -5   17.90   14.57
   3   8   5   17.41   16.27
  -3  -8  -5   11.66   39.65
  -3   8   5   21.98   29.55
  -3   8  -5   18.42   26.24
   3   8  -5    9.90   39.56
   3  -8   5   16.08   17.57
   3   8  -5   17.19   20.07
  -3  -8  -5    9.72   36.24
  -3   8   5   18.27   21.01
   3  -8   5   16.58   17.50
  -3  -8  -5   20.71   27.65
  -3   8  -5   12.74   87.16
  -3  -8   5    3.48   19.52
   2   3  12   74.44   41.13
  -2  -3  12   71.31   47.89
  -2   3 -12   57.64   26.81
  -2  -3  12   59.76   32.21
  -2  -3  12   26.51   64.97
   2  -3 -12  156.57   82.12
  -2   3 -12   75.19   48.91
   2   3  12   69.82   37.47
  -2   3 -12   47.90  151.25
   2   3 -12   73.49   38.28
   2  -3  12   64.61   28.63
  -2  -3 -12  167.01   98.09
   2  -3  12   70.21   44.49
   2   3 -12   50.17  108.54
  -2   3  12   75.55   45.69
   2  -3  12   72.36   41.59
  -2  -3 -12   76.99   44.39
   2  -3 -12   69.41   39.81
   2   3 -12   68.87   42.62
  -6  -1   4   69.42  136.40
   6   1  -4  153.66   51.54
   6   1  -4  172.07   61.84
  -6  -1   4  181.98   73.90
   6  -1   4  172.57   69.18
  -6   1   4  177.45   68.29
   6  -1  -4  171.02   64.77
  -6   1   4  188.93   75.42
   6   1   4  196.39   88.36
   6  -1  -4  187.75   94.88
   6   1  -4  183.04   75.58
  -6   1  -4  195.35   92.91
   6   1   4  177.70   77.18
  -6  -1  -4  188.42   89.38
   0  -9   6    0.22    5.13
   0  -9  -6    0.54    8.19
   0  -9   6    0.96    6.55
   0   9  -6    7.29    6.57
   0   9  -6    2.52    5.91
   0   9  -6    1.51   32.34
   0   9  -6    0.35    4.57
  -4   2 -10 1350.73  523.57
   4   2  10 1357.31  432.44
  -4   2 -10 1276.07  409.95
  -4  -2  10  849.41  641.69
   4   2  10  765.17  623.25
   4  -2 -10 1288.44  396.95
  -4   2  10 1364.82  492.43
  -4   2 -10 1004.07  920.70
   4   2 -10 1286.50  363.81
   4   2 -10 1262.86  367.45
   4  -2  10 1378.16  393.54
   4  -2  10  592.17  523.68
   4  -2  10 1326.38  410.66
  -4  -2 -10 1499.43  511.34
  -4  -2 -10  961.16  775.35
   5   6   2  149.03   60.35
   5  -6   2   72.93   99.95
  -5  -6  -2   79.64  232.73
  -5   6  -2   85.62  148.04
   5  -6   2  207.54   93.28
  -5   6  -2  224.52  112.99
   5   6  -2  195.92   79.22
  -5  -6   2  499.09  321.84
   5  -6  -2  208.83   86.69
   5   6   2  182.93   67.52
   5  -6  -2  175.05   58.27
  -5   6   2  187.51   78.12
  -5  -6  -2  200.57   90.81
  -4  -5  -8  520.75  221.95
   4   5   8  468.57  173.64
  -4   5  -8  498.49  211.77
   4  -5  -8  413.14  126.69
   4  -5  -8  174.76  163.41
  -4   5   8  546.96  216.22
  -4   5  -8  413.40  147.89
   4   5  -8  376.62  111.68
  -4  -5   8  331.69  349.91
  -4  -5  -8 1399.58  433.81
   4   5  -8  468.21  167.51
   4  -5   8  436.94  142.23
  -4   5   8  491.38  178.30
   4   5  -8  433.42  150.93
  -4  -5  -8  444.70  258.09
   2  -8  -7  859.64  265.78
  -2  -8   7  560.53  425.43
   2  -8  -7  364.11  369.77
  -2   8   7  904.99  325.14
  -2  -8   7  227.97  235.94
   2   8  -7  679.35  596.62
   2  -8  -7  624.44  197.24
   2   8   7  656.19  189.70
   2   8   7  880.50  272.93
  -2   8  -7  879.77  306.40
   2  -8   7  738.76  219.94
  -2  -8  -7  517.42  502.58
  -2  -8  -7  352.36  362.63
  -2  -8  -7  772.43  257.14
  -2  -8  -7  255.50  278.97
  -2  -8  -7  945.85  337.36
   2   8  -7  731.91  211.15
  -2   8   7  788.33  236.40
   2   8  -7  770.61  243.63
   2  -8   7  787.38  241.18
   2  -8   7  735.84  232.36
   0 -10   2   71.15   83.02
   0  10  -2  109.87   46.05
   0  10  -2  122.63   50.69
   0 -10  -2   51.48  165.49
   0 -10  -2  121.77   64.53
   0 -10   2  105.30   47.77
   0 -10   2  104.23   42.48
   0  10  -2  118.77   67.77
   0  10   2  122.44   73.43
   0 -10   2  110.90   50.39
  -1  10   0    1.88    4.46
   1  10   0    0.13    4.85
   1 -10   0    0.25    2.31
  -1  10   0    0.41    3.38
  -1 -10   0    0.17    3.10
  -1 -10   0    0.22    2.48
   1 -10   0    0.00    3.77
  -6   3   2  156.00   73.72
   6  -3  -2  125.68   43.65
   6   3  -2  144.00   58.13
  -6  -3  -2  143.10   79.32
  -6   3  -2  158.41   89.52
   6   3   2  118.45   48.32
  -6  -3   2  132.32  195.61
  -6   3   2  139.01   53.50
   6  -3   2  136.61   59.08
   6  -3  -2  142.48   60.78
   6   3  -2  135.08   62.71
  -6   3  -2  154.05   74.63
   6  -3  -2  140.26   67.21
  -5   5  -5  211.15   94.10
   5  -5   5  170.24   55.41
   5  -5  -5  225.12   81.04
  -5   5   5  207.91   91.11
  -5   5  -5  242.35  119.73
   5   5  -5  223.70   90.71
  -5  -5   5   90.67  297.76
   5   5   5  186.84   71.74
   5  -5   5   75.18  111.24
   5  -5  -5  194.14   70.97
  -5   5  -5  132.31  230.90
   4  -4   9  244.28   95.02
   4  -4  -9   83.92   92.14
  -4  -4  -9  811.25  270.49
  -4   4   9  255.57  121.37
   4   4   9  235.74  102.59
  -4   4  -9  215.07  109.02
  -4  -4   9  152.47  212.60
   4   4  -9  225.54   87.14
  -4   4   9  236.10  101.66
   4  -4   9  227.47   88.80
  -4  -4  -9  575.39  201.16
   1  -2  13  558.63  210.33
   1   2 -13  534.12  174.60
   1   2  13  578.58  199.37
  -1   2 -13  595.02  227.40
   1   2  13  546.47  183.92
  -1  -2 -13  535.37  178.58
   1   2  13 1401.11  533.10
   1   2 -13  319.08  388.58
  -1  -2  13  221.58  296.90
  -1  -2 -13  554.86  191.71
   1  -2 -13  552.31  195.69
  -1  -2 -13 1159.38  447.12
   1  -2 -13 1136.44  399.08
  -1   2 -13  329.28  458.02
   1  -2 -13  515.65  177.82
   1   2 -13  556.63  207.99
  -1  -2 -13  515.18  177.16
  -1   2  13  498.79  178.93
  -1  -2  13  569.80  221.82
   1  -8  -8    4.80    5.70
  -1  -8   8    7.48    9.79
  -1   8  -8    5.44   13.33
  -1   8   8    5.73    7.68
   1  -8   8    4.21    5.85
   1  -8   8    4.64    5.96
  -1  -8  -8    6.77   15.09
   1   8  -8    7.55    8.62
   1  -8   8    5.28   10.97
  -1   8  -8    5.29    5.64
   1  -8  -8    3.12   29.59
   1   8  -8    6.07    9.50
   1  -8  -8    7.55   12.59
  -1   8  -8    5.32    7.11
  -1   8  -8    2.56   46.21
  -1  -8  -8    4.07   29.06
   1   8   8   11.95   12.63
  -1  -8   8    6.58   14.00
  -1  -8   8    2.48   18.75
   1  10   1  662.38  205.49
  -1  10   1  797.96  260.33
  -1 -10   1  247.73  399.48
   1  10  -1  759.00  279.66
  -1 -10  -1  652.69  223.36
   1 -10   1  657.49  215.89
  -1  10   1  783.85  292.45
   1 -10  -1  638.43  203.69
   1 -10   1  723.73  248.63
  -1 -10   1  657.03  214.61
  -1 -10   1  681.30  226.92
  -1  10  -1  622.06  218.34
   1  10  -1  675.55  219.91
   1  10   1  769.79  285.85
  -1  10  -1  755.79  254.91
  -1  10  -1  746.90  274.28
   1 -10  -1  747.51  259.19
   1 -10   1  686.46  252.69
  -1 -10  -1  716.34  249.63
  -1 -10  -1  256.90  387.60
   2  -6  10    3.38    5.52
   2  -6 -10    3.40    6.35
  -2  -6 -10    2.24   19.36
  -2   6 -10    3.33    5.02
   2  -6  10    3.75    8.96
  -2  -6 -10    4.07    5.66
  -2  -6 -10    5.53   12.75
   2  -6 -10    4.34    6.95
  -2  -6  10    3.00   10.98
   2   6 -10    2.96   11.60
  -2   6  10    3.56   13.26
   2   6  10    4.45    7.07
  -2   6 -10    3.59   11.15
   2   6 -10    3.54    7.26
   2  -6 -10    0.25   19.05
   2   6  10    3.01    6.19
   2   6 -10    2.98   11.08
   2   6  10    1.38    9.79
   2  -6 -10    3.97    7.71
  -4  -7  -5   46.16   77.68
  -4   7   5  102.91   59.53
   4   7  -5   87.14   46.26
  -4  -7  -5   32.55   59.27
  -4   7   5  115.20   72.31
  -4   7  -5   71.93  178.34
  -4  -7   5   37.28  190.82
   4  -7  -5   37.07   74.83
   4  -7  -5   77.45   39.05
   4   7   5   94.24   41.56
   4  -7   5   79.28   30.68
   4  -7  -5   93.34   46.85
  -4   7  -5  101.35   66.90
   4  -7   5   89.11   50.09
   3   9   0    0.19    6.46
   3  -9   0   -0.21    3.50
  -3  -9   0   18.09   16.12
  -3   9   0    5.89    6.92
   3   9   0   -0.02    3.19
   3  -9   0    0.09    6.08
  -3   9   0    2.32    6.56
  -3  -9   0   -0.09    5.50
  -3  -9   0   17.39   14.30
  -3  -9   0    0.37   22.45
   5  -2  -8   74.21   42.57
  -5   2  -8   72.31   48.20
  -5   2  -8   49.02  121.03
  -5  -2  -8   79.45   56.51
  -5   2   8   73.63   46.69
  -5  -2   8   32.26  115.67
   5   2  -8   74.52   32.21
  -5   2  -8   80.22   50.30
  -5  -2   8   72.27   46.36
   5  -2   8   73.12   32.49
   5  -2   8   25.60   58.81
   5  -2   8   65.83   38.60
   5   2   8   73.79   48.85
   1   9   6  352.43  143.11
  -1   9  -6  300.03   99.23
   1  -9  -6  212.41  441.81
   1   9  -6  306.20  108.82
   1  -9  -6  260.09   86.54
  -1   9   6  350.27  155.30
  -1   9  -6  278.16  439.15
   1  -9   6  317.96  118.32
  -1  -9   6  228.41  216.92
   1   9  -6  315.39  121.27
  -1   9  -6  341.97  142.26
  -1  -9  -6  358.49  151.84
  -1   9   6  316.18  104.51
   1  -9   6  294.35  100.62
   1  -9   6  290.13  103.54
  -1  -9  -6  139.44  221.87
  -1  -9   6  331.57  119.92
   1  -9  -6  357.54  140.47
  -1  -9   6  171.18  261.78
  -1   9  -6  325.81  115.89
   2   5 -11   75.27   41.24
   2   5  11   93.69   95.26
   2  -5 -11   74.04   32.67
  -2   5 -11   64.11   28.57
   2  -5  11   77.21   33.64
   2  -5  11   77.07   45.47
  -2  -5 -11   92.78   75.61
   2   5  11   77.57   32.04
   2  -5 -11   30.41   71.51
  -2  -5 -11  168.27  101.54
   2   5  11   83.37   39.54
  -2  -5  11   76.66   51.72
   2   5 -11   70.43   36.77
  -2   5 -11   52.20  170.70
   2  -5 -11   83.74   41.70
  -2   5  11   95.49   61.49
   2   5 -11   88.85   44.52
   3  -9   1  430.31  121.24
   3  -9  -1  431.82  124.94
   3  -9  -1  504.87  164.29
   3   9  -1  501.35  190.12
  -3  -9  -1  274.75  290.58
  -3   9   1  576.27  208.52
  -3  -9  -1  242.63  270.94
   3   9  -1   93.49   63.24
  -3   9   1  528.05  180.11
   3  -9   1  494.53  160.71
  -3   9  -1  528.72  185.07
  -3  -9   1  510.26  174.65
  -3  -9   1  229.54  246.03
  -3  -9   1  306.24  304.40
  -3  -9   1  198.67  369.11
   3   9   1  492.47  163.63
  -3   9  -1  556.78  195.16
  -3  -9  -1  504.16  190.94
   3   9   1  431.82  122.85
  -3  -9  -1  283.82  327.19
   6   2  -4  123.17   51.55
  -6   2   4  137.25   61.62
  -6   2  -4  141.41   94.20
   6  -2   4  122.02   47.22
  -6   2  -4  143.06   63.71
  -6  -2   4   53.33  137.95
   6  -2  -4  136.22   68.25
  -6   2   4  134.49   58.01
  -6  -2  -4  137.74   88.70
   6  -2  -4  122.05   49.79
   6  -2  -4  115.58   43.89
   6  -2   4  120.06   49.26
   4  -6   7   54.39   26.61
  -4   6   7   63.70   42.28
   4   6  -7   58.31   37.67
  -4  -6  -7   21.79   46.74
  -4  -6  -7   67.04   52.95
  -4  -6  -7   34.72   70.73
  -4   6   7   73.76   53.53
   4   6  -7   45.68   18.40
  -4   6  -7   64.13   49.73
  -4   6  -7   52.72   32.32
   4  -6  -7   24.90   53.29
   4   6   7   57.54   23.88
   4  -6  -7   56.68   28.47
  -4  -6   7   50.41  107.44
  -5   6  -3   24.39  133.93
  -5   6  -3   64.39   51.25
   5  -6  -3   50.11   25.29
   5  -6  -3   62.09   37.80
   5  -6   3   23.65   55.38
  -5  -6  -3   63.80   44.57
  -5   6   3   66.67   48.54
   5   6   3   46.34   24.47
   5   6  -3   59.54   35.69
  -5   6   3   55.75   36.08
  -5  -6   3   25.72  167.87
   5   6   3   50.96   26.17
  -4   8   0   -0.99   20.92
   4  -8   0   -0.21   32.48
  -4   8   0    1.04    9.88
   4   8   0    0.75    7.31
  -4  -8   0    0.69    6.38
  -4   8   0    0.83    7.35
  -4  -8   0    4.25   27.44
   4   8   0    2.82    3.60
  -3   5 -10  207.73   79.02
   3  -5  10  231.04   91.93
   3  -5 -10   94.01  119.87
   3  -5 -10  226.71   89.97
   3   5  10  105.89  176.76
  -3  -5  10  154.51  194.55
   3  -5 -10  210.70   71.83
   3   5 -10  217.25   80.02
  -3   5 -10  253.21  119.28
  -3  -5 -10  608.83  239.67
   3  -5  10  254.34   96.59
  -3  -5 -10  818.12  287.22
   3   5  10  249.14   97.11
  -3   5  10  295.84  136.11
  -1  10  -2  841.44  266.41
   1 -10   2  875.51  303.51
  -1 -10  -2  897.31  309.43
   1  10   2  789.00  242.79
   1 -10   2  459.49  299.63
   1 -10   2  788.65  283.93
   1  10  -2  832.41  271.32
   1 -10  -2  762.02  245.53
   1 -10  -2  512.07  606.43
  -1  10  -2  901.29  304.29
  -1  10   2  930.69  309.90
   1 -10  -2  924.81  312.16
  -1  10   2  959.30  352.50
   1  10   2  918.01  327.91
  -1 -10   2  800.97  254.15
  -1 -10   2  756.46  247.62
  -1 -10   2  972.00  670.47
  -1  10  -2  908.06  315.07
   1  10  -2  928.77  326.82
   1 -10   2  809.91  264.04
  -1 -10  -2  271.92  378.59
  -1  10  -2  767.53  258.13
  -3   0 -12   75.91   47.98
   3   0 -12   79.00   48.78
   3   0 -12   45.33   90.20
  -3   0  12   43.19   83.22
  -3   0 -12   72.43   44.86
  -3   0  12   76.15   50.74
   3   0  12   83.61   53.61
  -3   0 -12 4627.73  428.51
   0  -6 -11  100.94   38.89
   0  -6 -11  110.86   56.51
   0   6  11  115.74   58.68
   0   6 -11  101.57   38.42
   0  -6 -11   36.37   96.06
   0   6 -11   98.54   56.30
   0  -6 -11   83.93   31.97
   0  -6 -11   93.86   44.58
   0  -6  11  100.27   75.32
   0   6 -11   90.22   41.27
   3   6  -9  131.18   50.12
   3  -6   9  142.67   59.73
   3  -6   9  143.08   58.84
  -3  -6   9  104.96  149.65
   3   6   9  144.78   49.77
  -3  -6  -9  137.56  139.42
   3  -6  -9   64.43  100.73
   3  -6  -9  151.37   56.72
  -3   6  -9  132.73   56.14
   3   6   9   86.84   84.43
  -3   6   9  155.05   66.92
  -3   6   9  195.38  101.47
  -3  -6  -9   62.51  105.43
   3   6  -9  136.22   60.14
   3   6   9  159.31   68.38
   0  10  -3   51.67   37.94
   0 -10   3   46.85   27.02
   0 -10  -3   24.04  109.77
   0 -10   3   42.64   23.98
   0 -10  -3   53.39   40.62
   0  10  -3   49.55   28.50
   0  10  -3   45.51   25.37
   0 -10   3   45.92   23.58
   0  10   3   52.29   44.99
   0  10  -3   25.28  124.78
   0 -10   3   30.21   52.34
   4  -8   1    4.53   31.21
   4  -8  -1    3.71    5.41
  -4  -8   1    2.30   46.21
   4   8   1    3.09   10.25
  -4   8  -1   11.12   14.00
  -4   8  -1    0.13   28.66
   4  -8  -1    3.30   10.60
  -4   8   1    4.71   11.79
   4   8  -1    3.09   10.25
  -4   8   1    3.35   12.97
   4  -8   1    3.41   10.47
  -4   8   1    2.56   28.92
   4   8   1    2.55    7.52
  -4  -8  -1    4.29   10.62
   0  -3 -13    0.73    2.26
   0   3  13    0.22    2.49
   0   3 -13    0.30   14.07
   0  -3 -13   -0.08    2.58
   0  -3  13    0.23    4.16
   0   3  13    0.81    5.49
   0  -3 -13    0.36    2.59
   0   3 -13    0.08    4.56
   0   3  13    0.80    2.30
   0   3  13    0.20    2.65
   0  -3 -13    3.10    8.75
   0  -3 -13    0.25    3.15
   2   7  -9   38.09   25.43
  -2  -7  -9   48.31   41.53
   2  -7  -9   17.44   64.67
  -2   7  -9   43.75   37.73
   2   7  -9   39.08   24.45
   2   7   9   43.05   25.82
   2   7   9   20.24   28.80
   2  -7  -9   34.07   20.32
   2  -7  -9   41.51   26.95
  -2  -7   9   32.23   50.49
   2  -7   9   35.56   20.66
   2  -7   9   41.76   28.25
  -2   7   9   57.80   44.99
  -2   7   9   40.36   26.22
   2   7   9   42.19   23.61
  -2  -7  -9   39.22   22.48
  -2  -7  -9   18.76   58.90
   2  -7   9   38.73   22.04
  -2   9  -5   54.74   30.07
  -2  -9   5   49.03   25.91
  -2   9  -5   34.69  157.70
  -2  -9  -5   15.17   70.94
   2  -9   5   41.90   26.24
   2   9   5   36.63   19.23
   2  -9  -5   51.02   36.71
   2  -9  -5   28.71  106.13
  -2   9  -5   40.38   22.56
  -2   9  -5   47.81   28.72
   2  -9  -5   41.06   22.41
  -2  -9   5   35.05   80.01
  -2  -9  -5   14.23   60.27
   2   9   5   50.77   36.12
  -2   9   5   65.67   46.57
   2   9  -5   26.33  121.19
  -2   9   5   54.07   31.49
   2  -9   5   45.32   27.70
   2  -9   5   44.51   23.93
  -2   9  -5   50.56   40.62
   2   9  -5   49.38   35.52
  -2  -9   5   20.93   69.80
  -6   3  -3   17.71   20.35
   6   3  -3   14.71   14.69
  -6  -3  -3   24.78   18.52
   6  -3   3   12.72   18.29
  -6   3   3   12.21   12.88
  -6   3  -3   15.62   18.84
  -6  -3   3   32.60   61.70
   6   3   3   13.30   12.32
   6  -3  -3   12.89   12.49
   6  -3  -3   11.78   10.32
   6   3  -3   12.57   14.95
   6  -3   3   11.16    9.62
  -6   0  -5    0.35    3.44
   6   0  -5    0.36    2.47
   6   0   5    0.02    2.79
   6   0  -5    0.08    1.84
  -3   1  12 1449.18  489.89
  -3   1 -12 1544.49  561.56
   3  -1  12 1536.38  461.08
  -3  -1 -12 1456.19  402.98
   3  -1  12 1606.38  547.89
   3  -1  12 1418.97  453.81
  -3  -1  12 1211.34  535.97
   3   1  12 1603.13  514.02
  -3   1 -12 1391.04  449.48
   3   1 -12 1465.39  421.39
  -3  -1  12 1025.14  747.43
  -3  -1  12 1384.53  461.11
  -3  -1 -12 1349.89  494.17
   3   1 -12 1506.94  470.37
   3   1 -12  865.04  688.35
   3  -1 -12 3693.27 1270.38
  -3  -1 -12 1045.06  947.26
  -3   1 -12 1262.86 1073.64
  -3  -1 -12 1563.03  518.04
   0  -7 -10   62.78   16.94
   0   7 -10    1.12    3.73
   0  -7  10    0.20    7.08
   0   7 -10    0.11    6.74
   0   7 -10    0.32    3.40
   0  -7 -10    1.01    7.25
   0   7  10   -0.10    7.27
   3  -9  -2   59.01   44.24
  -3  -9  -2   40.67  122.79
  -3  -9  -2   24.73  128.31
   3  -9  -2   23.05  111.16
   3  -9  -2   49.75   30.21
   3  -9   2   54.16   41.84
   3   9  -2   55.45   43.67
  -3  -9   2 1280.68  244.69
  -3   9  -2   64.40   43.50
  -3  -9  -2   59.65   50.60
  -3   9   2   66.51   54.92
  -3  -9  -2   38.93  113.64
   3   9   2   57.34   44.01
  -3   9  -2   60.17   50.42
  -3  -9   2  695.49  147.02
  -3  -9   2   25.36   72.78
  -3   9   2   63.16   62.46
   3   9   2   50.09   29.49
   2   0 -13   -0.24   16.34
  -2   0 -13   -0.10    4.75
  -2   0 -13    0.73    6.74
   2   0 -13    0.25    7.02
   2   0  13    0.13    7.17
  -2   0 -13  133.35   26.86
  -2   0 -13    0.18    4.14
  -2   0  13    3.52    6.27
  -2   0  13    0.91    5.47
  -2   0  13   68.00   20.18
  -2   0  13   -0.32    7.75
   2   0  13    0.20    3.73
   6   1  -5    9.00    7.99
  -6   1   5   11.82   11.62
  -6  -1   5    8.96   12.93
  -6  -1   5    2.87   28.92
   6  -1  -5   10.01   11.80
  -6   1   5    9.22   12.60
  -6   1  -5    8.47   17.93
   6   1   5   10.07   16.52
   6   1  -5    8.47    7.86
   6  -1   5    7.90   12.59
  -6  -1  -5    8.47   17.29
   4  -3  10   18.97   19.18
   4  -3  10   18.63   16.18
   4   3  10   19.14   21.13
  -4   3 -10   16.12   18.45
   4   3  10   10.76   40.84
  -4  -3  10   12.14   50.14
  -4  -3 -10   18.84   36.44
   4  -3  10    9.61   35.46
   4   3 -10   16.91   14.76
   4   3 -10   15.24   14.83
  -4  -3  10   16.02   20.06
  -4   3 -10   11.28   73.25
   4  -3 -10   19.31   20.48
  -4   3  10   19.47   24.01
   4   8   2   81.09   35.85
   4  -8   2   96.93   56.69
  -4   8   2  107.37   69.18
   4  -8   2   64.19  145.61
   4  -8  -2   99.96   56.46
   4   8  -2  100.22   55.34
  -4  -8  -2  149.55  174.26
   4  -8  -2   82.16   35.59
   4   8   2  102.21   53.79
   4  -8  -2   47.82  119.63
  -4   8  -2   55.44  149.90
  -4   8  -2  106.92   72.24
  -4  -8  -2  100.75   67.13
  -4  -8   2   50.97  214.20
  -4   8   2  122.29   74.99
   0   5  12    0.10    3.14
   0  -5 -12    0.14    3.04
   0   5 -12   -0.66   12.53
   0   5 -12    0.41    3.74
   0  -5 -12    0.46    2.16
   0  -5  12    0.02    3.56
   0  -5 -12   -0.14    6.59
   0  -5 -12    0.29    2.96
  -6  -4   0 1271.13  402.06
   6   4   0 1287.78  381.33
   6  -4   0 1493.66  481.42
  -6  -4   0  639.58  819.65
   5   4  -7   26.73   21.20
  -5  -4  -7   31.91   34.97
  -5  -4   7   10.13   96.85
  -5   4  -7   26.30   26.20
  -5   4   7   29.87   27.86
   5  -4  -7   25.95   15.35
  -5   4  -7   31.79   34.24
  -5  -4   7   27.90   26.75
   5   4   7   29.25   30.68
  -5   4   7   27.74   26.11
   5   4  -7   22.70   12.42
   5  -4   7   23.48   25.04
   3  -8  -6   11.50   45.58
  -3  -8   6   16.16   63.25
   3   8   6   16.77   12.75
  -3   8  -6   26.77   30.76
   3   8  -6   10.87   62.39
  -3   8   6   31.10   34.65
   3  -8   6   22.57   14.95
  -3  -8  -6   17.35   51.06
  -3  -8  -6    9.65   41.53
  -3  -8   6    5.53   22.78
   3  -8   6   24.88   19.65
   3   8  -6   22.07   22.38
  -3   8  -6   22.04  104.86
   3  -8  -6   25.56   22.03
   3   8   6   28.97   20.65
  -2  -1 -13   18.73   16.79
  -2  -1  13   44.66   25.14
   2  -1 -13   46.56   30.90
  -2  -1  13   31.68   67.61
   2  -1  13   22.83   16.40
  -2   1  13   26.87   67.05
  -2  -1 -13   49.22   28.39
  -2   1  13   43.62   27.59
   2   1 -13   45.80   24.27
  -2  -1 -13   27.75  101.83
  -2  -1 -13   45.54   26.37
  -2   1 -13   51.48   33.19
   2  -1  13   49.58   33.45
   2   1 -13   25.27   69.69
   2  -1 -13   26.01   51.54
  -2   1 -13   41.64   22.91
  -2   1 -13   39.79   21.30
   2   1  13   50.31   31.99
  -2  -1  13   51.56   33.17
  -2   1 -13   28.15  102.53
   2   1  13   31.85   20.38
   1  -6 -11    1.79    4.84
  -1  -6 -11    2.05    6.84
  -1  -6 -11    0.79   12.77
  -1   6 -11    0.86    6.90
  -1   6  11    1.38    7.28
   1  -6 -11    1.20    4.11
   1   6  11    0.99    4.97
  -1  -6  11    1.26    6.52
   1  -6 -11    3.64   11.69
   1   6 -11    0.71    5.76
  -1  -6 -11    0.45    3.28
   1  -6 -11    0.94    2.87
   1  -6  11    0.54    6.14
   1   6 -11    1.35    3.80
   1   6 -11    1.11    3.79
   1 -10  -3    8.19    9.03
  -1  10   3   17.08   13.69
  -1 -10   3   15.08   10.00
   1  10   3   19.24   24.20
   1 -10  -3   27.29   80.22
   1  10   3   19.36    9.55
   1  10  -3   18.16   22.61
   1 -10   3   15.39   14.09
  -1  10  -3   18.19   18.93
  -1 -10   3   16.12   11.91
   1 -10   3    8.56   25.23
  -1  10  -3   12.41   12.33
  -1  10  -3   18.66   18.60
   1 -10  -3   19.43   21.76
  -1  10  -3    8.49   89.09
  -1  10  -3    9.65   11.21
   1 -10   3   17.74   16.10
  -1  10   3   18.93   26.08
  -1 -10  -3    4.86   33.98
   1  10  -3    9.25   70.69
  -1 -10  -3   19.84   20.86
   1 -10   3   17.22   13.88
  -1 -10  -3   14.99   64.86
  -1 -10   3   10.47   35.96
  -3   4 -11    0.58    5.73
  -3   4 -11   -1.78   20.53
   3  -4 -11    1.08    6.50
   3  -4 -11    0.54    4.26
   3   4 -11   -0.04    3.84
  -3  -4 -11    0.62    5.94
   3  -4  11    0.72    3.03
   3  -4  11    2.83    4.40
  -3  -4  11    0.08    5.88
  -3   4 -11   -1.09    4.25
  -3  -4 -11    2.41    9.64
  -3  -4  11   -0.19   11.88
   3   4  11    1.44    6.30
  -3   4  11    0.61    6.04
   1  -3  13   86.59   46.72
  -1   3  13   83.11   32.65
  -1  -3  13   73.62   31.23
   1   3  13   89.65   38.25
   1   3 -13   25.07   22.84
  -1  -3 -13   84.45   35.67
  -1   3 -13   60.30  148.81
   1   3 -13   86.20   47.66
  -1  -3 -13   31.32   22.56
   1  -3 -13   85.14   40.61
   1   3 -13   55.31  130.14
  -1  -3 -13   80.79   37.75
  -1  -3 -13   77.92   27.91
  -1  -3 -13  197.02  103.01
  -1   3  13   82.85   39.20
  -1   3 -13   89.66   52.08
   1   3  13   77.81   70.52
   1  -3 -13  184.90   88.16
   1   3  13   43.92   28.63
  -1  -3  13   90.83   47.79
  -6   4  -1  251.43  115.84
  -6  -4   1  102.22  261.86
   6   4  -1  221.03   80.94
   6  -4  -1  235.81   96.40
  -6   4  -1  224.25   96.25
  -6   4   1  242.15  112.25
   6   4   1  195.93   70.28
  -6  -4  -1  213.76   96.65
   6   4   1  176.70   62.15
   2  -4  12  136.86   66.34
   2   4 -12  129.22   61.17
  -2   4 -12  106.10   40.59
   2  -4 -12  138.64   59.36
  -2   4 -12   93.07  211.95
   2  -4 -12   97.51  126.73
  -2  -4 -12  149.94   71.38
  -2   4  12  153.57   75.42
   2  -4  12   83.23   37.34
  -2  -4  12  136.75   72.26
  -2   4 -12  141.80   74.53
   2   4  12  218.29  143.41
  -2  -4  12   40.26   82.45
  -2  -4 -12  342.42  150.62
   2   4  12  141.35   58.67
   2   4 -12   91.83  154.60
  -3  -7  -8    1.13   11.13
   3  -7  -8   -0.06    9.35
  -3  -7   8    0.50    4.50
  -3   7   8    1.88    7.39
  -3  -7  -8   -0.05    8.65
   3   7  -8    0.01    2.71
  -3   7  -8    0.38    6.34
   3  -7   8    2.87    3.49
  -3  -7   8    0.98   13.13
   3   7   8    0.59    3.46
  -3   7  -8   -1.24   19.22
   3  -7   8    0.22    3.64
  -3  -7  -8    0.92    7.00
  -3   7   8    0.05    4.58
   3   7  -8    0.21    4.28
   3  -7  -8    0.54    3.88
   1  -7 -10    4.58    5.91
   1  -7 -10    0.36    3.72
   1  -7 -10   37.56   28.82
  -1  -7 -10    2.84   19.83
  -1   7  10    6.08   11.37
   1   7 -10    4.10    7.97
   1   7 -10    4.36    8.58
   1  -7  10    3.94    9.02
  -1  -7  10    4.25   10.23
   1   7 -10    1.06    5.61
   1  -7 -10    4.40    8.18
  -1  -7 -10    5.57   10.89
  -5   6   4   46.27   34.78
  -5  -6  -4   48.06   42.41
   5   6  -4   44.94   32.43
   5  -6   4   17.96   44.95
  -5   6  -4   50.40   45.69
  -5   6  -4   22.30   90.81
   5  -6  -4   38.79   23.13
  -5   6  -4   43.23   34.98
  -5   6   4   47.88   41.48
  -5  -6   4   26.49  150.17
   5  -6  -4   46.90   30.60
   5   6   4   38.57   20.64
   3   2 -12   13.67   13.60
   3  -2 -12   14.57   17.90
   3  -2  12   15.22   20.71
  -3  -2  12    2.18   39.57
  -3   2  12   14.51   20.40
  -3  -2 -12   16.50   21.01
  -3  -2 -12   10.22   54.90
   3   2  12   14.94   20.22
  -3   2 -12   14.21   14.69
   3  -2 -12   30.87   27.01
   3   2 -12    9.68   40.40
  -3  -2  12   15.29   28.93
  -3   2 -12    9.46   70.81
  -5   3   8   36.73   32.19
  -5   3   8   36.11   31.37
   5  -3   8   34.62   22.96
  -5   3  -8   41.24   39.03
   5  -3   8   32.65   24.58
  -5  -3  -8   39.90   40.69
   5   3   8   36.92   34.28
  -5   3  -8   34.90   31.72
  -5  -3   8   11.84   98.25
   5   3  -8   40.83   23.22
   5   3  -8   32.06   18.06
  -5   5  -6    5.30   20.12
  -5   5  -6    0.34    6.67
  -5  -5   6    1.12   27.21
   5  -5   6    0.77    3.34
  -5   5   6    0.51    7.24
   5   5  -6    1.31    6.28
  -5   5   6    0.59    6.36
   5  -5  -6    2.56    4.33
  -5   5  -6    0.88    8.60
   0   9  -7   -0.33   23.12
   0   9  -7    0.90    3.92
   0  -9  -7    0.93    5.80
   0   9  -7    0.37    4.57
   0  -9  -7    0.01   12.89
   0   9   7    6.81    6.58
   0   9  -7   -0.29    2.68
   0  -9   7    0.65    4.98
  -3  -9   3   29.75   77.75
   3  -9   3  102.86   53.41
   3   9  -3  103.54   57.09
  -3  -9  -3   39.53   84.84
  -3  -9  -3   34.01  122.98
  -3   9  -3   70.38  275.43
   3  -9  -3   50.91  135.56
  -3  -9  -3  108.31   69.08
   3   9  -3   61.60  111.44
  -3  -9   3   57.59  179.33
   3  -9  -3  108.75   55.89
  -3   9  -3  112.08   65.86
   3   9   3  104.34   55.24
  -3  -9  -3    5.40   78.56
   0  10  -4   35.43  157.90
   0 -10   4   36.33   53.96
   0 -10  -4   32.59  105.73
   0  10  -4   58.71   28.14
   0  10   4   61.57   43.95
   0  10  -4    7.57   18.72
   0 -10   4   51.13   22.92
   0  10  -4   56.72   33.94
   0 -10  -4   60.88   36.39
  -6  -3  -4    8.13   14.08
   6  -3  -4    6.35    8.45
   6  -3  -4    5.64    7.74
   6  -3   4    6.12    7.73
   6   3  -4    7.01   10.36
  -6   3  -4    6.66   15.58
  -6   3  -4    8.04   13.76
  -6   3   4    6.06   13.44
  -6  -3   4    5.24   40.64
  -6   3   4    9.35   10.45
   6  -3   4    7.54    8.86
   6   3  -4    6.86   11.90
   4   0  11    0.26    5.81
  -4   0 -11    0.21    5.46
  -4   0  11    0.11    5.55
  -4   0 -11   16.91   16.21
   6   2  -5   27.03   13.71
   6   2   5   39.47   35.36
   6  -2   5   33.26   22.56
   6   2  -5   34.05   20.21
  -6   2   5   36.46   26.44
   6  -2  -5   34.12   23.61
   6  -2   5   32.59   18.53
  -6   2  -5   38.39   26.12
  -6  -2   5   62.97   30.88
  -6  -2  -5   35.77   33.89
  -6   2  -5   37.58   35.87
  -6  -2   5   14.22   70.72
  -6   2   5   33.77   25.13
  -5   0  -9    0.16   21.83
   5   0  -9    0.45   10.22
   5   0   9   88.48   32.37
  -5   0   9    0.45   13.58
   5   0   9   -0.06   12.78
  -5   0  -9  158.20   45.53
   1   5  12   85.33   73.12
  -1   5  12  113.51   63.13
   1  -5 -12   96.70   55.39
   1  -5 -12  101.58   47.60
   1   5 -12   88.44   39.04
  -1   5 -12   98.53   62.84
   1   5 -12   94.76   69.74
  -1   5 -12   74.68  191.45
  -1  -5  12   93.82   57.76
   1   5  12   99.52   45.43
   1   5  12   98.15   40.87
   1  -5 -12   44.10   92.65
  -1  -5 -12  193.94  120.59
  -1  -5 -12  105.41   60.15
   1   5 -12   59.81  171.81
   1  -5  12  106.38   59.24
  -6   4  -2   92.60   59.86
  -6  -4  -2   79.84   45.92
  -6   4   2   87.88   56.82
   6  -4  -2   82.89   43.92
   6   4  -2   83.42   41.38
   6   4   2   65.61   32.25
  -6   4  -2   84.88   52.76
  -6  -4   2  599.69  220.72
   4   8   3  344.14  121.99
  -4   8   3  524.71  237.53
   4   8  -3  416.99  161.68
   4   8   3  440.80  159.84
   4  -8   3  413.12  162.21
  -4  -8  -3  409.82  205.75
  -4  -8   3  226.68  476.67
  -4   8  -3  458.52  204.09
  -4  -8  -3  162.24  333.21
  -4   8  -3  317.40  553.04
   4  -8  -3  223.46  292.08
   4  -8  -3  431.93  165.79
  -4   7  -6   20.80   42.28
  -4  -7   6   -1.29   43.77
   4   7   6    3.91    6.33
  -4  -7  -6    1.48   12.70
  -4  -7  -6    2.53   25.46
   4  -7   6    2.80    8.95
  -4   7  -6    3.63   13.11
   4  -7  -6    2.15   11.35
   4   7  -6    3.23    9.22
  -4   7   6    5.65   14.24
  -4  -7  -6   -0.50   16.95
   4  -7  -6    1.04   15.90
   4  -7   6    3.52    5.30
   0  -8  -9    4.03    8.03
   0   8  -9   -0.00    3.33
   0  -8  -9    0.35   17.29
   0   8  -9    3.21    4.53
   0  -8   9    3.43    7.75
   0   8  -9    6.54   26.75
  -2 -10   0  254.77  463.15
  -2  10   0  722.63  285.41
   2 -10   0  696.48  251.32
  -2  10   0  693.35  256.87
  -2 -10   0  310.91  402.25
  -2 -10   0  634.25  238.01
   2  10   0  684.56  262.78
   2  -2 -13  356.22  131.42
  -2  -2  13    2.59  112.60
  -2  -2  13  394.29  159.40
   2  -2 -13  737.68  262.69
  -2   2  13  344.56  132.02
   2   2 -13  346.19  124.23
   2   2 -13  363.86  137.95
  -2  -2 -13  366.63  129.33
   2  -2  13  363.13  141.36
   2   2 -13  198.59  248.34
  -2   2 -13  220.02  349.99
  -2   2 -13  272.05   91.85
  -2   2 -13  381.02  152.11
  -2  -2 -13  578.83  286.47
  -2  -2 -13  349.74  129.31
   2   2  13  373.50  136.62
   4  -1  11    5.26   12.43
   4   1  11    5.00   12.35
  -4   1 -11    2.45   39.25
  -4  -1 -11    1.66   34.21
  -4  -1 -11    5.16   12.82
  -4   1 -11    4.57   11.27
   4  -1  11    5.42    6.98
   4  -1 -11    4.73   10.21
  -4  -1  11    5.18   11.52
   4   1 -11    5.83    9.44
  -4   1  11    5.11   12.55
  -4   1 -11    4.60   11.47
   5   1   9   53.02   37.47
  -5   1  -9   52.33   40.26
  -5  -1  -9   33.56   72.72
   5  -1   9   19.70   49.05
   5  -1   9   48.92   34.29
  -5   1  -9   40.35   96.00
  -5  -1  -9   54.06   43.26
   5   1   9   27.71   53.77
  -5   1   9   51.56   37.57
   5   1  -9   48.91   35.78
   5  -1  -9   52.24   32.45
  -2  -8   8   -0.21    8.79
  -2   8   8    7.42   12.16
  -2  -8  -8    8.35   11.69
   2   8  -8    4.65    7.32
  -2   8  -8    2.86   33.14
   2   8  -8    2.77   28.43
   2  -8  -8    2.07   19.48
   2  -8  -8    5.18    8.21
  -2  -8   8    3.75   21.08
   2  -8   8    4.01    5.00
   2  -8   8    0.02    3.75
  -2  -8  -8    2.56   18.79
   2   8  -8    4.44    5.58
  -2   8   8    4.78    6.27
   2   8   8    4.70    5.78
   2   8   8   -0.09    3.09
   2  -8   8    3.25    6.91
   2  10   1    1.20    5.46
   2 -10   1    1.38    4.50
  -2  10   1    2.62    4.54
  -2 -10  -1   -0.14    2.19
  -2  10  -1    1.15    5.03
  -2 -10  -1   -6.32   14.68
   2  10  -1    1.08    5.57
  -2 -10   1    1.27    3.39
  -2  10  -1    0.80    4.83
  -2 -10   1   -0.02    1.85
  -2 -10  -1    0.84    4.21
   2 -10  -1    0.76    6.79
  -1  -9  -7   60.36  146.57
   1  -9   7   98.05   42.25
   1   9  -7  108.95   50.49
  -1  -9   7   81.81  121.71
   1   9  -7  112.04   55.82
  -1   9  -7  113.63   49.94
   1  -9  -7  121.36   66.20
  -1   9   7  123.93   78.16
   1  -9  -7  714.02  215.71
  -1   9  -7  129.65  275.06
  -1  -9  -7  125.54   75.16
   1   9  -7   98.26  222.44
  -1   9   7  108.85   44.75
   1  -9   7  112.43   56.55
  -1 -10   4  299.46  263.22
   1 -10  -4  275.88  424.33
  -1 -10  -4  525.01  197.64
   1  10   4  473.02  195.38
  -1 -10  -4  260.50  388.98
  -1  10  -4  464.18  178.05
   1 -10  -4  473.00  184.77
  -1  10  -4  451.03  166.35
   1 -10   4  439.29  153.42
  -1  10  -4  397.94  567.53
   1  10  -4  452.34  179.92
   1  10  -4  410.92  140.00
   1  10  -4  314.81  401.98
  -1  10   4  419.05  142.89
   1 -10   4  272.27  209.50
  -2  -9  -6   37.89   34.92
   2   9  -6   25.60   83.82
   2  -9   6   28.59   20.12
  -2   9   6   33.32   29.28
  -2  -9  -6    8.84   40.26
   2   9   6   35.60   27.05
   2  -9  -6   23.38  118.13
   2   9  -6   33.10   15.51
  -2  -9   6   25.21   62.49
   2   9  -6   31.17   25.43
  -2   9  -6   -0.14   16.08
  -2   9  -6   38.17   31.08
   2  -9   6   32.47   18.33
  -2  -9  -6   13.82   53.45
  -2  -9   6    0.05   24.40
  -2   9  -6   28.31  119.71
   2  -9  -6   35.55   26.44
   0   0 -14 1650.46  301.63
   0   0 -14  184.80   91.84
   0   0  14 1616.74  295.08
   0   0 -14  901.61  462.66
  -4  -5   9    5.18   27.75
  -4  -5  -9   -0.41   13.08
  -4   5   9    2.94   12.67
  -4  -5  -9    3.36   13.22
  -4   5  -9   10.24   17.82
   4  -5  -9    1.29   11.47
   4  -5   9    2.51    7.51
  -4   5   9    3.49   10.16
   4   5  -9    2.55    5.12
  -4  -5  -9    1.79   15.69
  -4   5  -9    2.08    7.56
   4  -5  -9    2.54    4.89
   4   5   9   14.19   10.06
   4   5  -9    2.45    9.35
  -6   0  -6  766.73  303.88
  -6   0   6  742.99  274.52
   6   0  -6  698.77  226.09
   6   0   6  760.01  268.45
   0  -4 -13   47.98   28.69
   0  -4 -13   49.73   30.97
   0   4 -13   30.71  120.21
   0  -4 -13  106.50   81.76
   0  -4  13   47.50   40.05
   0   4 -13   48.64   42.76
   0   4  13   47.70   29.92
   5   7   0    0.70    8.38
  -5  -7   0  214.95   46.60
   5  -7   0    0.25   10.61
  -5   7   0   -0.21   22.13
  -5   7   0    0.82   13.88
   5  -7   0   -0.64   23.15
   6  -4  -3  189.49   78.67
  -6   4   3  218.58  104.40
  -6  -4   3  132.61  259.76
   6   4  -3  200.96   84.32
   6  -4  -3  179.15   65.42
  -6  -4  -3  193.13   92.64
  -6   4  -3  199.77   99.54
  -6   4   3  187.60   77.64
  -6   4  -3  223.58  114.32
  -2 -10  -2   90.40  198.54
   2 -10   2  182.36   85.55
  -2 -10  -2  187.37   90.98
   2  10  -2  181.18   96.92
  -2  10   2  191.34  103.46
   2  10  -2  128.42  221.92
  -2 -10   2  176.43   73.31
  -2 -10   2   66.72  216.33
  -2  10  -2  190.48   92.31
   2  10   2  188.86   97.65
   2 -10  -2  185.10   89.66
  -2  10  -2  207.63   96.05
   2 -10  -2   92.29  228.20
  -2 -10  -2   59.02  165.02
   0   1  14   -0.55   83.83
   0  -1 -14   -0.86  131.42
   0   1 -14 4136.15  431.45
   1  -8   9 1217.91  410.57
  -1  -8  -9 1480.76  519.57
  -1   8   9 1375.93  492.48
  -1  -8  -9  533.90  555.63
   1   8  -9  864.49  830.81
   1   8  -9 1176.10  380.32
  -1   8  -9 1284.77  445.25
   1  -8  -9 1220.22  362.99
  -1   8  -9  818.56  815.75
   1  -8  -9 1328.59  433.33
   1  -8  -9  539.53  554.79
  -1  -8   9 1243.26  450.95
   1   8  -9 1120.36  359.77
   1   8   9 1349.20  443.99
   6  -1  -6  103.92   49.78
  -6   1  -6  109.29   68.26
  -6   1   6  103.78   55.32
   6  -1   6  104.39   66.69
   6   1   6  110.72   62.43
  -6  -1  -6  107.75   67.51
   6   1  -6   92.70   38.24
   3  -9   4  114.73   72.64
   3   9  -4  117.32   63.57
   3  -9  -4   64.73  151.33
  -3   9  -4   97.50  237.72
   3   9   4  129.18   78.50
  -3  -9  -4    0.03   77.90
  -3  -9  -4  132.70   80.11
  -3   9  -4  132.98   77.88
   3   9  -4   70.54  122.20
  -3   9   4  127.68   63.78
  -3  -9  -4   43.24  129.67
   3  -9  -4  122.14   61.87
  -3  -9  -4   46.20   96.65
  -3  -9   4   42.78  196.64
  -5   7  -1   88.53   63.22
   5  -7  -1   82.18   50.44
   5   7  -1   78.65   42.85
   5  -7   1   41.12  100.28
   5   7   1   73.37   39.52
  -5   7   1   86.09   60.85
  -5  -7  -1   79.83   43.47
  -5   7  -1   32.06   95.61
   5   7   1   58.03   25.43
  -5  -7   1   35.78  169.89
   5  -7  -1   31.34   78.36
   5  -7  -1   42.45  102.89
  -5  -7  -1  705.12  226.95
   5  -7   1   82.25   52.83
   4   6   8  136.70   70.79
  -4   6  -8  163.87   89.24
  -4  -6  -8  179.05   95.91
  -4  -6   8  101.92  166.74
   4  -6  -8  140.87   52.70
   4  -6   8  137.23   53.51
   4  -6  -8   54.71  108.27
  -4   6   8  166.69   75.31
   4   6  -8  145.23   67.57
  -4   6   8  188.66   97.91
  -4  -6  -8   -0.01   83.66
  -4  -6  -8   58.08  109.36
   4   6  -8  111.05   38.56
  -4   6  -8  125.07   56.28
  -4  -2 -11   54.20  121.53
   4   2 -11   72.06   40.07
   4  -2  11   80.78   38.95
  -4   2  11   81.96   55.05
   4  -2  11   78.66   49.11
  -4   2 -11   73.49   44.72
   4   2 -11   80.90   37.08
   4   2  11   79.00   50.88
  -4   2 -11   77.86   56.68
  -4   2 -11   59.13  150.12
  -4  -2  11   50.48   92.56
   4  -2 -11   75.60   45.13
  -4  -2 -11   86.96   59.49
   5  -2   9    6.57   11.91
   5   2   9    6.65   14.29
  -5  -2   9    2.08   36.29
   5  -2  -9    6.24   12.61
  -5   2  -9    6.61   14.26
   5  -2   9    7.53    8.17
  -5   2  -9    5.44   13.98
  -5  -2  -9    6.40   16.57
  -5   2   9    6.88   13.93
   5   2  -9    7.15    8.15
   5  -2   9    3.73   19.58
  -5   2  -9    1.74   38.28
   5   2  -9    5.67    8.93
  -4  -4 -10  217.07   96.78
  -4  -4 -10    0.22   60.70
   4  -4 -10   86.13   49.72
   4   4  10   86.04   49.88
   4  -4  10   84.63   45.20
  -4   4  10   96.17   60.79
   4   4 -10   75.93   35.03
  -4  -4  10   56.68  120.84
  -4   4 -10   77.75   53.80
  -5   6  -5  145.70  245.08
  -5   6   5  239.30  110.82
   5  -6  -5  234.98   91.23
  -5  -6   5   97.32  339.01
  -5   6  -5  216.64   94.92
   5  -6   5   81.88  120.21
  -5  -6  -5  238.67  127.54
   5   6  -5  233.35   95.80
   5  -6   5  166.82   55.72
  -5   6  -5  251.28  154.39
   4   8  -4   44.22   35.88
  -4   8   4   58.00   55.44
   4  -8  -4   58.66   39.12
  -4   8  -4   50.67   51.22
  -4  -8   4   25.12  155.63
   4   8   4   45.06   32.59
   4  -8  -4   21.91   82.26
   4  -8   4   41.36   35.42
  -4   8   4   46.30   42.92
  -4   8  -4   29.91  135.49
  -4  -8  -4   23.89  147.21
  -4  -8  -4   45.78   49.53
   3  -3  12    2.59    8.31
   3  -3 -12    1.78    7.18
   3   3  12    2.12    7.89
  -3   3 -12    1.98    5.44
  -3   3  12    4.48    9.34
   3   3 -12    1.72    7.29
   3  -3 -12    1.19   11.67
  -3  -3  12    2.33   26.90
  -3  -3  12    1.90    6.52
  -3  -3 -12    2.64   17.18
   3   3 -12    1.59   16.85
  -3  -3 -12    2.25    9.66
  -3   3 -12    0.32   31.51
   1   0 -14  207.02   83.52
  -1   0 -14  203.66   82.12
   1   0 -14  117.05  186.57
  -1   0  14  163.19   59.38
   1   0  14  206.92   81.48
  -1   0 -14  214.89  233.26
  -1   0  14  218.31   83.12
  -1   0  14    0.31   63.21
   0  10  -5  539.98  197.63
   0 -10  -5  581.68  220.60
   0  10  -5  458.61  600.27
   0 -10  -5  302.44  438.51
   0 -10   5  455.15  148.11
   0  10   5  592.89  240.93
   0  10  -5  530.51  189.06
   0 -10   5  350.15  272.74
  -6  -3  -5  318.51  147.53
   6  -3   5  294.71  102.50
  -6   3   5  310.08  126.66
  -6   3   5  342.32  140.45
   6  -3   5  301.08  109.03
  -6   3  -5  375.22  161.40
  -6   3  -5  333.28  151.70
  -6  -3   5  131.68  279.48
  -5   7  -2  323.68  157.58
   5  -7   2  202.58  253.05
   5   7  -2  291.51  114.89
   5  -7   2  307.71  131.44
   5  -7  -2  259.05   85.31
   5   7   2  223.53   78.56
  -5   7  -2  135.43  220.95
  -5  -7  -2  297.58  136.83
  -5   7   2  287.72  126.54
  -5  -7  -2  117.68  300.53
   5  -7  -2  309.36  128.32
   5   7   2  274.96  104.35
  -5  -7   2  328.31  383.26
  -3  -8  -7   -0.31    9.89
  -3   8  -7    0.54   27.88
   3  -8  -7    0.74   11.77
   3  -8  -7    0.62    5.05
   3   8   7    1.40    4.82
  -3  -8   7    2.43   15.82
  -3  -8  -7    0.23   11.19
  -3  -8  -7    1.40    8.11
  -3   8   7    1.17    5.46
   3  -8   7    0.65    3.68
   3   8  -7    0.86    5.31
   3  -8   7    0.60    4.20
  -3   8   7    2.09    8.30
  -3   8  -7    0.57    7.56
   1  -4 -13   94.07   40.57
   1  -4 -13  103.05   49.88
  -1  -4  13  101.30   61.54
  -1   4 -13   65.64  187.99
   1   4  13   90.94   38.77
   1   4  13   -0.06   65.83
   1  -4 -13  232.05  123.55
  -1   4 -13  109.08   65.81
   1   4 -13  101.69   59.72
  -1  -4 -13  253.57  132.91
  -1   4  13  109.00   56.15
  -1  -4 -13  105.04   53.89
   1  -4  13  103.78   60.24
   1   4 -13   73.80  165.49
  -1  -4 -13  104.71   42.85
  -2   6 -11   96.52   45.75
  -2  -6 -11   55.22   44.62
   2  -6 -11   47.34   26.04
   2   6  11   47.48   25.00
  -2  -6 -11   29.68   70.65
   2  -6  11   45.92   33.86
  -2   6  11   61.30   48.81
   2  -6 -11   18.76   61.21
   2  -6 -11   47.79   28.75
   2   6 -11   51.44   27.17
   2   6  11   48.74   26.62
   2   6 -11   44.53   29.92
   2   6  11    0.08   26.37
  -2  -6  11   52.67   39.16
  -1   1  14   -0.16   28.38
  -1  -1 -14   22.45   99.23
   1   1 -14  552.43  114.25
  -1   1  14   34.48   23.90
  -1  -1 -14   31.43   26.21
   1   1 -14   30.69   30.85
  -1  -1  14   26.12   19.04
   1   1  14   31.91   25.55
  -1  -1 -14   27.08   18.35
   1  -1 -14   29.23  112.78
   1  -1  14   31.34   28.66
  -1   1 -14  599.78  137.00
  -1   1  14   25.74   20.00
  -1   1 -14   32.92   30.42
  -1  -1  14   33.00   29.09
  -2 -10  -3   30.33  105.04
  -2 -10   3   82.21  175.12
   2 -10  -3   55.10  180.83
   2  10  -3   66.28  156.87
  -2  10   3  107.50   55.56
  -2  10  -3   58.88  205.12
   2 -10  -3  104.82   62.65
  -2  10  -3  115.75   60.53
  -2  10  -3  108.59   65.34
   2  10   3  104.39   65.81
   2 -10   3  100.30   55.16
  -2  10   3  114.70   73.54
   2  10  -3  101.79   66.64
  -2 -10  -3  106.70   65.86
  -2 -10  -3   50.21  153.37
   2   3 -13   14.34   63.75
  -2   3  13   23.64   23.73
   2  -3  13   23.27   25.77
  -2   3 -13   23.15   27.47
  -2  -3  13   23.91   25.98
  -2  -3 -13   49.29   53.92
  -2   3 -13   17.26   12.61
  -2  -3  13   18.81   16.86
   2  -3 -13   51.97   42.73
   2   3  13   23.51   21.51
   2   3 -13   21.68   24.04
  -2  -3 -13   23.19   22.97
  -2   3 -13   15.18   93.91
   0  -2 -14  148.29   94.76
   0   2  14   56.01   32.43
   0  -2  14   76.44   44.90
   0   2  14    0.29   47.98
   0   2 -14   76.70   47.78
   0  -2 -14   76.05   40.48
   0   2 -14   40.64  125.53
  -3   6  10   70.37   55.59
   3  -6  10   50.38   31.95
   3  -6 -10   51.45   25.38
  -3  -6 -10   26.89   67.16
   3   6 -10   47.30   30.71
  -3   6 -10   47.59   26.43
   3   6 -10   46.57   26.23
   3   6  10   57.39   33.13
   3  -6 -10   56.23   33.68
   3  -6 -10   23.31   57.13
  -3  -6  10   34.84   86.55
   6   2   6    4.37   12.17
  -6   2   6    5.79    9.33
   6  -2   6    3.64    8.39
   6   2  -6    2.62    8.71
  -6  -2   6    3.45    9.61
  -6  -2  -6    4.53   12.35
  -6   2  -6    3.75    8.39
  -6   2   6    4.22    9.48
   6  -2   6    1.59    7.37
   6   2  -6    5.88    6.87
  -6  -2   6    0.32   24.78
  -6   2  -6    3.62   12.46
   5   4   8  235.01  109.06
  -5   4   8  240.11  108.11
   5  -4   8  209.60   80.18
  -5   4  -8  217.18  102.08
  -5  -4  -8  257.46  134.92
  -5   4   8  229.62  110.35
   5   4  -8  186.00   63.53
  -5   4  -8  249.58  136.40
  -5  -4   8   76.08  286.01
  -2  -7 -10   50.10   44.00
   2  -7  10   31.15   17.64
   2   7 -10   35.23   24.08
   2  -7 -10   38.48   24.07
   2   7  10   39.06   23.38
   2  -7 -10   38.59   24.80
   2   7 -10   35.08   23.50
   2  -7  10   35.70   26.82
  -2  -7  10   40.17   47.04
   2   7  10    0.01   20.49
  -2   7  10   48.70   42.57
   2  -7 -10   96.81   71.68
   2   7  10   37.88   21.08
  -2   7 -10   38.10   36.11
  -2  -7 -10   15.57   57.98
   6   5   0  175.50   72.22
  -6  -5   0   85.93  259.25
  -6   5   0  207.32  112.12
   6  -5   0  200.50   94.75
  -5  -5   7   97.71  349.47
   5   5  -7  271.08  116.79
  -5   5   7  266.19  125.58
  -5   5  -7  294.01  157.36
  -5   5  -7  252.14  115.55
   5  -5  -7  256.82  102.49
  -5   5   7  285.30  127.23
   5  -5   7  230.05   83.00
  -6   4  -4  257.29  123.78
  -6   4   4  271.54  122.48
   6  -4   4  198.81   69.16
  -6  -4   4   98.24  274.28
  -6   4  -4  290.75  138.94
  -6   4   4  232.84   96.99
  -6  -4  -4  244.73  117.83
   6   4  -4  260.32  105.19
   6  -4  -4  232.19   99.72
  -3   5 -11    2.41    9.70
   3   5 -11    0.84    6.53
  -3  -5 -11    5.92   16.75
   3  -5 -11    1.30    3.79
  -3   5  11    3.18   11.21
  -3  -5 -11    8.41   10.64
   3  -5 -11    1.43   11.86
   3  -5 -11    1.46    6.86
  -3   5 -11    2.15    5.15
   3   5  11    2.82    6.96
   3  -5  11    2.14    7.37
  -3  -5  11    3.47   20.19
   3   5 -11    2.12    6.12
   1  10  -5  142.42   58.85
   1  10  -5  155.55   78.04
  -1 -10  -5   63.52  149.99
  -1  10  -5  162.91   79.84
  -1  10  -5  136.85  304.68
   1 -10  -5  170.25   84.90
   1 -10  -5   96.92  232.22
   1 -10   5  150.78   63.02
   1  10   5  169.12   89.65
   1  10  -5  104.96  280.94
  -1 -10  -5  176.92   90.12
   1 -10   5   98.97  105.63
  -1 -10   5  104.70  139.29
  -1  10   5  141.82   66.69
   6   5   1  272.17   92.45
   6  -5   1  407.31  164.39
  -6   5   1  414.39  179.29
  -6  -5  -1  172.35  506.98
   6   5  -1  360.24  130.09
  -6  -5  -1  343.48  134.02
   6   5   1  331.03  117.32
  -6  -5   1  690.92  474.90
  -6   5  -1  415.24  184.29
   6  -5  -1  392.27  152.42
   2  -5  12   56.74   39.59
  -2  -5 -12   60.84   45.45
   2   5 -12   51.63   35.70
  -2   5  12   66.08   49.29
   2  -5 -12   55.77   33.78
   2  -5 -12   21.83   61.56
   2   5 -12   50.52   29.70
  -2  -5 -12  139.56   93.60
  -2   5 -12   37.10  145.58
   2   5  12   59.04   32.36
  -2  -5  12   55.37   46.58
   2  -5 -12   51.20   26.65
   0  -9   8    0.05    5.50
   0   9  -8    0.31    5.04
   0   9   8    0.47    6.31
   0  -9  -8    0.57    6.22
   0  -9  -8    2.32   13.58
   0   9  -8   40.43   30.17
   4  -7  -7   83.26  121.06
   4   7  -7  197.64   85.01
  -4   7   7  224.84   98.59
   4  -7   7  192.28   82.70
   4  -7   7  186.81   65.90
  -4  -7  -7   77.12  103.53
   4  -7  -7  207.85   78.43
   4   7   7  203.54   71.24
  -4  -7   7   70.04  282.52
  -4   7  -7  228.62  117.24
  -4   7   7  268.04  133.92
  -4  -7  -7   -0.28  103.42
   5   7   3   97.72   45.98
   5   7  -3  105.38   57.45
   5  -7   3  108.70   65.02
  -5   7   3  115.39   72.76
  -5   7  -3   49.71  126.03
  -5  -7   3   51.29  246.00
  -5   7  -3  120.67   82.30
   5  -7  -3  115.60   66.92
  -5   7   3  111.04   66.01
  -5  -7  -3  111.43   73.35
   5  -7   3   37.13   78.67
  -5  -7  -3   59.49  265.75
   0   7 -11    2.57    4.93
   0  -7 -11   20.08   22.03
   0   7  11    0.75    9.88
   0   7 -11    0.60    9.42
   0  -7  11    5.51   10.08
   3   7   9  258.05   90.10
  -3   7   9  273.49  108.85
  -3  -7  -9  297.84  148.83
   3  -7   9  246.98   95.31
   3  -7  -9  264.95   99.72
   3   7   9  272.82  106.23
  -3   7  -9  285.84  139.34
   3  -7   9  234.98   91.92
  -3  -7  -9  101.33  154.39
   3   7  -9  231.43   95.48
  -3   7   9  331.54  160.75
   3   7  -9  225.20   80.81
  -3  -7   9  174.86  221.80
   3  -7  -9  112.41  162.38
   0   6  12  335.92  136.07
   0   6 -12  290.92  130.25
   0  -6 -12  108.78  183.97
   0  -6 -12  315.49  128.59
   0  -6 -12  296.36   99.74
  -3  -9  -5   13.83   69.75
  -3  -9   5   24.50  138.38
   3  -9  -5   28.85  103.04
   3   9  -5   48.75   38.54
  -3   9  -5   56.56   50.21
   3   9   5   56.86   37.55
   3  -9  -5   53.39   37.72
  -3   9   5   55.20   39.63
  -3   9   5   72.60   77.22
  -3  -9  -5   21.00   65.53
  -3   9  -5   41.16  158.78
   3  -9   5   47.49   33.75
   3   9  -5   28.72   74.80
  -1   2 -14  184.49   94.01
   1  -2 -14  356.17  167.25
  -1   2 -14  102.04  241.59
  -1  -2  14  139.91   60.75
  -1  -2 -14  155.61   65.84
   1  -2  14  174.22   85.78
  -1  -2 -14  173.90   74.53
  -1   2  14  156.04   80.03
   1   2 -14  172.37   87.07
  -1  -2 -14  252.68  181.64
   1   2 -14   95.30  190.43
  -1  -2  14  184.28   90.62
   1  -2 -14  169.15   78.72
   1   2  14  174.65   75.66
  -4  -3 -11   53.77   48.46
   4   3 -11   60.36   30.67
  -4   3  11   49.75   44.47
   4  -3  11   47.46   35.95
  -4  -3  11   43.18   35.24
   4   3  11   44.47   50.50
  -4   3 -11   44.62   31.66
  -4  -3  11   27.11   88.78
   4  -3 -11   48.59   35.99
  -4   3 -11   38.11  126.48
  -4   3 -11   50.10   46.18
  -4  -3 -11   86.85  149.77
  -5   3   9  101.43   81.72
   5   3   9  100.75   62.13
  -5  -3   9  111.09   60.78
   5   3  -9   88.85   39.42
   5  -3   9   94.63   49.89
  -5  -3  -9  120.28   79.29
  -5   3  -9  116.18   76.16
   5  -3  -9  106.31   59.60
  -5  -3   9   33.45  169.94
  -5   3  -9   99.98   59.42
  -6  -5   2  996.75   77.75
   6   5  -2    1.68    9.53
  -6   5   2    1.51   15.10
  -6   5  -2    1.83   16.33
   6  -5   2    0.83   13.89
  -6  -5  -2    1.23   10.05
   6  -5  -2    1.94   10.57
  -4   8  -5 1159.71  453.57
  -4  -8   5  383.18  773.51
   4   8  -5  982.19  334.71
   4   8   5 1058.67  336.23
  -4   8   5 1358.48  546.50
   4  -8   5  986.99  336.74
  -4  -8  -5 1083.30  469.26
  -4   8   5 1117.87  393.15
  -4  -8  -5  341.40  331.48
   4  -8  -5  418.98  483.72
   4  -8  -5 1092.40  357.71
   2   9  -7   42.42   32.09
   2  -9   7   42.24   27.02
   2  -9   7   40.31   25.17
   2   9  -7   35.61  113.56
  -2   9   7   46.11   27.53
  -2  -9  -7   19.50   73.32
   2  -9  -7   49.22   36.54
  -2  -9   7   32.86   84.29
   2   9   7   49.68   36.07
  -2   9  -7   48.98   41.40
  -2  -9  -7   10.94   46.80
  -2  -9  -7   53.46   46.80
   2   9  -7   39.07   22.03
  -2   9  -7   37.02  165.79
   2  -9  -7  125.80   91.99
   3   0 -13    0.20   26.21
  -3   0 -13    0.78   10.69
  -3   0 -13 1015.51   75.55
   3   0  13    1.19   19.90
  -3   0  13   -0.05   12.03
  -3   0 -13    1.90   11.31
   3   0 -13    0.35   13.04
  -6   0   7    1.32    5.02
  -6   0  -7    0.19    6.31
   6   0   7    1.53    5.36
   6   0  -7    0.29    3.59
  -2  10  -4   60.73   37.83
   2 -10   4   51.12   34.61
  -2 -10  -4   19.07   78.31
  -2  10  -4   57.96   46.07
   2 -10  -4   57.90   42.89
   2  10   4   56.57   44.16
  -2  10  -4   37.26  178.03
  -2 -10   4   25.08  124.60
  -2  10   4   58.99   36.81
   2  10  -4   55.84   59.34
  -2 -10  -4   16.64   78.97
  -2  10   4   66.84   51.12
   2  10  -4   33.75  109.72
   2 -10  -4   30.52  126.43
   5  -6   6   58.97   26.77
  -5   6   6   83.79   56.18
   5  -6  -6   80.45   41.19
  -5  -6   6   38.15  204.83
  -5   6  -6   69.89   48.25
  -5   6  -6   48.60  147.41
   5   6  -6   77.44   48.95
  -5  -6  -6   82.94   66.19
  -5   6   6   83.82   57.48
  -5   6  -6   85.27   64.80
   1  -9  -8   22.11   85.86
  -1  -9  -8   50.45   44.81
   1   9  -8   41.19   28.36
   1  -9   8   43.75   31.39
  -1   9   8   40.03   22.14
   1   9  -8   41.67   28.53
  -1  -9  -8   18.37   82.20
   1   9  -8   26.70  135.50
  -1   9  -8   32.33  161.02
  -1  -9   8   32.45   75.29
   1  -9  -8   48.36   37.10
   3  -1  13  351.99  144.52
  -3  -1 -13  345.13  138.91
  -3   1  13  326.30  136.31
   3  -1 -13  355.34  266.58
  -3   1 -13  234.28  359.01
  -3  -1  13  199.17  258.60
  -3   1 -13  300.27  117.68
   3   1  13  355.72  142.33
  -3  -1  13  307.79  127.49
   3   1 -13  181.92  226.18
  -3  -1 -13  255.79  346.67
   3   1 -13  332.16  132.34
  -3   1 -13  342.85  168.06
   6   1   7    4.46   11.90
   6  -1  -7    4.12    9.02
  -6   1   7    5.77   10.51
  -6   1  -7    4.47   12.74
   6  -1   7    3.99   10.21
  -6  -1  -7    3.63   13.15
   6   1  -7    3.70    6.55
   2   8  -9   76.95   37.68
  -2  -8  -9   96.51   68.46
   2  -8   9   69.97   33.35
  -2   8   9  104.82   72.15
   2  -8   9   83.82   44.85
   2   8  -9   72.71  158.64
   2   8   9   88.01   45.48
  -2   8   9   86.17   41.49
   2  -8  -9   35.80  102.56
   2   8  -9   76.07   43.31
  -2   8  -9   50.81  175.14
  -2  -8  -9   33.88   92.16
   2   8   9   84.83   37.59
  -2  -8   9   56.98  115.31
   2  -8  -9   86.07   46.99
  -5   0  10  179.99   92.33
   5   0  10  169.51   84.66
  -5   0 -10  444.14  289.36
   5   0 -10  169.57   75.37
  -5   0 -10  182.13  119.36
   1  -7 -11    2.10   19.78
  -1  -7 -11    1.67   19.49
   1  -7 -11    1.76    5.56
   1  -7 -11    2.35    7.80
   1   7  11    3.37    8.30
   1   7 -11    1.86    8.07
  -1  -7 -11    2.97   10.65
   1  -7  11    5.16    9.08
   1   7 -11    2.46    7.91
  -1   7  11    3.04   11.14
   0 -10   6 1598.82  984.96
   0 -10  -6 1012.02  922.49
   0 -10  -6 2608.71  838.55
   0  10  -6 2092.09 1789.93
   0  10  -6 2392.83  742.85
   0  10  -6 2388.11  746.58
   1   6 -12   10.83   16.88
  -1   6  12   15.38   20.19
   1  -6 -12    6.75   32.00
   1  -6 -12   10.51   11.85
   1   6  12   11.51   13.69
  -1  -6  12   10.80   18.28
  -1   6 -12    9.39   19.49
  -1  -6 -12    7.10   36.14
   1   6 -12   10.16   10.38
   1  -6  12   10.44   17.99
   0  -3  14    0.29    3.99
   0   3 -14    0.27    4.37
   0   3 -14   -0.47   13.35
   0  -3 -14    0.43    2.22
   0  -3 -14    0.13    4.17
   0  -3 -14    1.03    8.24
   0   3  14    0.22    2.30
  -6   3  -6  208.19  108.44
  -6  -3   6   80.63  219.74
  -6   3   6  192.20   89.98
   6  -3   6  191.57   75.81
  -6   3   6  218.76  100.61
   6   3   6  227.91  116.12
  -6   3  -6  242.61  121.33
  -6  -3  -6  206.61  111.88
   3   4  12   29.41   25.72
  -3   4 -12   17.42  104.87
  -3  -4 -12   31.68   33.39
  -3  -4 -12   72.38   57.32
  -3  -4  12   18.49   65.62
  -3   4 -12   23.17   16.81
  -3   4  12   31.55   33.15
   3   4 -12   26.82   23.59
   3  -4 -12   26.93   24.05
   3  -4 -12   12.19   41.85
   3  -4  12   29.29   26.79
   0  -8 -10   80.23  217.42
   0   8 -10  165.00  304.86
   0  -8  10  221.04  104.28
   0   8 -10  206.39   76.61
   0  -8 -10  244.58  110.51
   0  11   0   -0.07    3.82
   0 -11   0    0.29    2.84
   0   5 -13   -0.78   10.32
   0  -5  13    0.28    3.11
   0   5 -13    0.13    3.10
   0   5  13    0.10    2.44
   0  -5 -13   -0.21    7.55
   0  -5 -13    0.13    1.77
  -5  -1 -10  108.04   70.54
  -5  -1 -10   69.10  126.68
   5   1 -10  103.49   50.06
   5  -1 -10  100.49   54.00
  -5   1 -10  167.28  181.69
  -5  -1  10  102.21   62.73
  -5   1  10  105.02   64.68
  -5   1 -10  102.69   64.98
   5   1  10   97.71   58.07
   5  -1  10   99.90   56.37
  -6   5   3  752.15  298.32
  -6   5  -3  804.32  343.10
  -6   5  -3  682.28  269.40
  -6  -5   3  284.95  562.67
   6   5  -3  688.45  244.24
   6  -5  -3  603.45  193.84
  -6  -5  -3  654.09  272.36
   6  -5  -3  662.64  235.93
  -6   5   3  616.65  230.72
   5  -7  -4    6.49   11.61
  -5  -7  -4    5.07   15.76
   5   7   4    5.02    7.74
  -5  -7   4    7.66   63.08
  -5   7  -4    4.72   16.95
  -5   7   4    4.98   15.45
  -5   7  -4    2.75   38.97
  -5   7   4    5.48   13.80
   5  -7   4    3.50   12.87
   5   7  -4    4.64   11.82
   6  -4   5   18.30   13.54
  -6  -4  -5   22.40   27.38
   6   4  -5   22.64   23.20
  -6   4  -5   29.14   31.27
  -6   4   5   20.50   19.88
  -6  -4   5    8.97   80.39
   6  -4  -5   20.10   15.22
  -6   4  -5   27.75   30.21
  -6   4   5   24.65   26.67
   0 -11   1    0.16    3.50
   0  11  -1    1.53    5.02
   0 -11  -1    0.00    4.25
   0  11   1    0.34    5.37
  -4  -9   0  127.75  117.37
   4  -9   0   31.97   17.31
   4   9   0   39.74   35.09
  -4   9   0   23.81   98.51
  -4   9   0   43.06   38.37
   4  -9   0   39.33   34.21
  -4   9   0   42.94   42.71
  -2   0 -14  119.37   55.64
   2   0  14  146.18   76.17
   2   0 -14  425.48  214.84
  -2   0  14  123.96   64.16
  -2   0 -14 1048.71  337.08
  -2   0 -14  143.29   73.82
   4  -9  -1   18.70   87.17
   4   9  -1   43.38   38.68
  -4   9   1   48.66   45.07
   4  -9   1   41.11   37.89
  -4   9  -1   48.31   46.16
   4   9   1   44.88   37.96
  -4   9   1   51.19   46.92
  -4  -9  -1   42.67   39.39
  -4  -9   1  128.23  176.30
   4  -9  -1   42.39   38.56
  -4   9  -1   25.08  109.24
  -4  -9  -1   64.57  123.77
   2  -4 -13    0.80    8.30
   2   4 -13    0.40    4.25
   2  -4 -13    0.43    3.96
   2   4  13    0.31    3.53
  -2  -4 -13    0.59    4.69
   2   4 -13   -0.51   13.26
  -2  -4  13   -0.24    3.32
  -2   4  13    1.17    4.78
  -2   4 -13    2.33    5.41
  -2  -4 -13    2.78   10.18
  -2   4 -13   -0.96   18.71
   2  -4  13   -0.07    4.70
  -4   5 -10  309.57  119.90
   4   5 -10  353.94  140.61
   4  -5 -10  125.15  136.50
   4  -5  10  348.56  127.00
  -4  -5  10  243.09  298.97
  -4  -5 -10  903.74  315.01
  -4  -5 -10  416.79  192.69
   4   5 -10  297.93  101.12
   4  -5 -10  380.22  145.88
  -4   5  10  432.33  188.96
   4   5  10  367.81  145.28
  -4   0 -12    7.03   14.93
   4   0  12    6.58   16.49
  -4   0 -12    7.21   46.76
  -4   0  12   11.24   15.50
   4  -6  -9   48.12   83.17
  -4   6  -9  110.74   54.96
   4   6   9  134.66   69.52
  -4   6  -9  145.79   88.19
  -4  -6  -9  150.15   93.16
  -4  -6  -9   59.66  100.25
   4   6  -9  129.96   64.93
  -4   6   9  141.51   71.22
   4   6  -9  106.54   41.81
   4  -6   9  123.96   54.83
  -4  -6   9   91.94  159.96
   4  -6  -9  125.68   50.43
  -4   6   9  162.25   94.57
  -2  -1 -14  325.94  132.17
   2   1 -14  523.74  330.12
  -2   1  14  295.30  122.48
   2  -1 -14  318.90  131.35
   2   1  14  345.73  138.96
  -2   1 -14  331.11  143.07
   2  -1  14  334.98  140.74
  -2  -1 -14  305.48  118.68
  -2  -1 -14  264.95  374.59
   2  -1 -14  214.58  274.61
  -2   1 -14  629.13  466.48
  -2  -1  14  352.54  152.93
  -2  -1  14  280.15  112.72
  -2   1 -14  252.52   95.74
  -3 -10   0    0.04   10.55
   3 -10   0   -0.46   12.48
  -3  10   0   -0.03   13.06
  -3 -10   0  374.49   48.55
  -3 -10   0    0.07   28.64
  -3  10   0    0.20   13.70
   3  10   0    0.77   13.89
  -1 -10   6  148.00  180.93
  -1  10  -6  217.87   89.92
   1 -10   6  193.38   75.88
  -1  10  -6  223.90  104.27
   1 -10  -6   99.89  210.35
  -1 -10  -6   92.37  196.29
   1  10  -6  183.26  330.11
   1 -10  -6  226.77  107.42
  -1  10   6  230.15  122.17
   1  10   6  232.64  112.52
   1 -10   6  207.14   88.75
   1  10  -6  211.38   97.27
  -1  10  -6  171.42  358.29
  -1 -10  -6  235.91  120.26
   1  10  -6  196.19   80.52
  -3   2  13   62.79   47.72
  -3   2 -13   60.77   33.99
   3   2  13   64.79   45.20
   3   2 -13   39.43   90.24
   3  -2 -13  128.13   68.54
  -3   2 -13   63.23   48.23
  -3  -2 -13   66.76   46.23
  -3   2 -13   43.28  156.69
  -3  -2 -13   45.11  137.67
   3  -2  13   62.33   47.19
  -3  -2  13   40.48  125.76
   1   3 -14  175.66   91.05
   1  -3 -14  178.43   80.08
   1  -3 -14  390.29  174.44
   1   3  14  183.82   75.37
  -1  -3 -14  168.31   74.69
  -1   3 -14  188.52  100.09
  -1   3 -14  123.54  261.28
  -1  -3  14  144.68   63.80
   1  -3  14  183.52   91.27
  -1  -3 -14  177.16   73.43
   1   3 -14  115.66  227.87
  -1   3  14  164.00   76.26
  -1  -3 -14  400.21  203.68
   6  -2  -7  374.48  153.33
  -6   2   7  398.03  161.42
   6  -2   7  406.08  147.66
  -6  -2   7  417.87  164.80
   6   2  -7  344.87  113.36
  -6  -2   7  139.53  274.08
   6   2   7  433.90  176.58
  -6  -2  -7  415.79  187.78
  -6   2  -7  419.36  181.72
   0 -11  -2   -0.22   10.23
   0 -11   2    4.31    5.34
   0  11   2    0.58    9.33
   0 -11   2    0.38   15.04
   0  11  -2    0.05    4.62
   0  11  -2    0.37   11.09
  -3   8   8    1.77   10.73
  -3   8  -8    1.33    9.25
  -3  -8   8    0.35   19.06
   3  -8   8    0.93    4.93
  -3   8   8    0.99    6.51
  -3  -8  -8    2.69    9.91
   3   8  -8    0.89    3.42
   3  -8   8    0.85    4.81
  -3  -8  -8    2.97   12.23
   3  -8  -8    2.46    5.90
   3  -8  -8   -0.02   14.51
   3   8  -8    2.02    8.60
   3   8   8    3.32    7.60
  -3 -10   1   64.34  144.41
  -3 -10   1   64.04  235.08
   3  10   1  156.33   86.31
   3 -10  -1  159.74   85.15
  -3  10  -1  182.27   94.78
  -3 -10  -1   52.04  182.23
  -3  10  -1  170.83   94.60
   3 -10   1  157.39   82.11
  -3  10   1  177.08   98.28
  -3 -10  -1  162.92   87.35
   3  10  -1  157.52   87.40
  -3 -10  -1   69.85  158.54
  -3  10   1  170.94   89.64
   1   8  10   22.51   25.13
  -1   8 -10   21.75   28.11
   1   8 -10   13.33   80.70
  -1   8 -10   17.28   88.16
  -1  -8 -10   13.52   54.85
  -1  -8 -10   26.86   33.47
   1  -8 -10   21.61   16.42
  -1  -8  10   21.27   29.47
   1  -8 -10   22.38   24.93
   1   8 -10   20.48   22.12
  -1   8  10   26.30   33.83
   1  -8  10   22.08   24.59
   1  -8 -10   14.67   58.88
   1   8 -10   40.00   19.19
  -1  11   0    0.64    4.76
  -1 -11   0    0.14    3.17
  -1  11   0    0.18    3.30
   1  11   0   -0.03    5.21
  -1 -11   0   -0.42    9.86
   1 -11   0    1.05    3.96
  -4   1 -12    1.40    8.25
  -4  -1  12    1.81    8.63
  -4   1 -12    2.01    8.07
   4   1 -12    1.70    6.92
  -4  -1 -12   -3.37   27.69
  -4  -1 -12    1.97    9.20
   4   1  12    2.51    9.54
  -4   1 -12    1.02   30.84
   4  -1  12    7.12    9.17
  -4   1  12    2.03    9.28
  -1  -5 -13   16.83   20.41
   1   5 -13   15.47   22.40
  -1   5  13   17.61   21.59
   1  -5 -13   10.88   38.47
   1   5  13   14.68   14.33
  -1  -5  13   15.81   22.59
  -1   5 -13   63.05   88.96
   1  -5 -13   15.36   14.34
  -1   5 -13   21.24   25.03
  -1  -5 -13   34.37   49.30
   1   5 -13   14.53   12.82
   1  -5 -13   16.18   16.03
   1   5 -13   64.37   83.49
   1  -5  13   15.09   23.02
   4   9   2   29.42   28.49
   4  -9  -2   12.82   70.42
  -4   9  -2   28.77   38.33
  -4  -9   2   15.41  120.37
  -4  -9  -2   26.20   32.47
  -4  -9  -2   10.36   88.43
   4   9  -2   27.61   29.45
   4  -9   2   25.37   28.79
  -4   9  -2   10.23   87.30
  -4   9   2   34.07   38.71
   4  -9  -2   27.57   29.17
  -4   9   2   27.52   33.65
  -1 -11  -1  136.07   70.35
  -1 -11  -1  265.52  179.98
   1 -11  -1  143.04   76.01
  -1  11   1  152.51   90.78
  -1 -11   1   47.00  156.51
   1  11   1  142.29   88.14
  -1  11  -1  146.08   70.51
  -1  11  -1  147.34   84.06
  -1 -11   1  129.16   61.15
   1 -11   1  139.01   72.28
  -1  11   1  148.82   69.21
   1  11  -1  112.27  240.16
   1  11  -1  146.12   88.30
   7   0   0    0.05    2.04
  -7   0   0    0.32    2.25
  -3  -9   6  249.64  300.47
  -3   9  -6  404.92  186.16
  -3   9   6  452.72  215.01
   3  -9   6  333.66  130.82
   3   9  -6  338.99  140.02
   3   9   6  384.20  147.60
  -3   9   6  392.05  175.20
   3  -9   6  303.44  110.77
  -3  -9  -6  148.69  207.94
   3  -9  -6  377.62  148.01
   3  -9  -6  146.68  223.50
  -5  -2 -10   21.41   63.19
  -5   2 -10   30.78   30.99
   5   2  10   28.36   28.49
   5   2 -10   26.90   20.64
  -5  -2 -10   37.06   36.28
   5  -2  10   26.97   27.22
  -5   2  10   29.81   32.38
   5  -2 -10   29.06   27.17
  -5   2 -10   19.57   84.33
  -5   2 -10   29.07   29.70
  -2  10   5    9.18   13.53
   2 -10   5    8.19   12.07
  -2  10  -5    5.78   80.36
  -2 -10   5    9.97   39.57
  -2  10  -5   10.53   19.14
  -2 -10  -5    2.88   26.84
  -2 -10  -5    4.61   35.12
   2  10  -5    7.35   16.78
  -2  10   5   11.01   20.99
   2  10   5    8.07   17.88
   2 -10  -5    8.19   17.35
   2 -10   5   13.11   10.90
   2  10  -5    5.52   44.80
   2 -10  -5    6.41   56.33
   7   0   1    0.07    4.53
  -7   0   1    2.45    3.85
  -7   0  -1    0.08    5.16
   5   5   8  221.75  107.36
  -5  -5   8   64.75  325.78
   5   5  -8  217.50  101.55
  -5   5   8  222.70  108.91
   5  -5   8  185.52   73.98
  -5   5  -8  193.55   94.49
  -5   5  -8  238.71  137.75
  -5   5   8  225.01  115.20
  -4   8  -6   76.22   60.82
  -4  -8  -6   70.02   61.73
   4  -8   6   53.06   26.30
  -4  -8   6   22.26  176.04
   4   8   6   69.80   36.07
   4  -8  -6   68.78   40.15
   4  -8   6   63.33   41.15
  -4  -8  -6   22.75   55.98
   4   8  -6   59.25   41.23
   4  -8  -6   29.85   73.05
  -4   8   6   86.54   69.45
  -3  10  -2    3.08   13.01
  -3 -10  -2    3.20   11.30
   3 -10  -2    2.99   11.64
   3 -10   2    4.73   10.18
  -3 -10  -2   -3.82   31.08
  -3  10  -2    6.66   10.44
   3  10  -2    6.41   11.96
  -3  10   2    2.61   11.17
  -3 -10  -2    1.08   25.90
  -3  10   2    4.69   13.20
   3  10   2    2.49   11.72
  -3 -10   2  -11.62   25.02
  -7  -1   0    3.29    5.05
  -7   1   0    0.08    5.72
  -7  -1   0   -0.91   13.72
   6  -5  -4   98.21   51.04
  -6   5   4   98.72   64.85
  -6  -5   4   42.16  204.95
  -6  -5  -4  113.82   74.48
  -6   5  -4  105.25   66.83
   6   5  -4  105.61   56.84
  -6   5  -4  127.29   86.39
   4  -4 -11   50.83   38.43
  -4   4  11   58.70   49.40
   4   4 -11   45.56   28.60
  -4  -4 -11  126.65   76.88
  -4  -4  11   31.86  101.38
   4  -4  11   50.02   35.83
  -4   4 -11   35.61  140.77
   4   4  11   52.62   39.71
  -4   4 -11   45.78   32.47
   5   4   9    4.39   12.31
  -5   4  -9    3.95   11.27
  -5   4  -9    9.70   15.38
   5   4  -9    2.70    8.80
   5  -4   9    3.95    8.54
  -5  -4   9    0.35   47.12
  -5  -4  -9    5.48   16.66
  -5   4   9    4.26   13.04
   2  -2  14   94.74   59.20
  -2   2  14   86.26   51.09
  -2  -2 -14   90.71   46.75
  -2   2 -14   96.71   60.74
  -2  -2 -14   89.41   49.36
   2   2 -14   89.92   58.46
  -2   2 -14   54.10  286.90
   2   2 -14   59.13  136.37
  -2  -2 -14  102.62  245.51
   2  -2 -14  191.53  101.10
   2  -2 -14   88.92   52.57
  -2  -2  14  103.63   62.33
   2   2  14   94.16   53.77
  -2  -2  14   74.55   41.10
  -1  11   2  162.62   95.99
  -1 -11  -2  149.95   77.35
   1  11  -2  149.64   88.59
   1 -11  -2  150.00   80.15
  -1  11   2  131.10   59.06
   1  11  -2  103.03  253.08
  -1 -11   2  283.49  215.02
   1 -11   2  141.85   71.44
  -1  11  -2  154.08   73.79
  -1 -11   2  127.78   58.12
  -1  11  -2  153.72   81.46
   1  11   2  153.58   92.50
  -7  -1  -1   15.19   15.34
  -7  -1   1    4.54   33.55
  -7   1  -1   15.55   18.73
  -7  -1  -1    4.99   35.29
  -7   1   1   13.57   11.43
  -7   1   1   13.63   12.94
   7  -1   1   12.08   10.60
   4  -7  -8   70.06   34.34
   4   7  -8   70.24   41.73
  -4  -7   8   50.68  112.17
  -4   7  -8   81.94   59.06
   4   7   8   -0.07   37.96
  -4   7   8   96.97   67.01
  -4  -7  -8   25.73   56.81
   4  -7   8   65.02   38.71
  -4   7   8   81.84   46.63
   4  -7  -8   31.55   64.80
   4  -7   8   65.85   30.78
   0  11   3    0.47    4.49
   0  11  -3    0.86    3.89
   0 -11  -3   -1.39   12.31
   0 -11   3    0.09    2.21
   0  11  -3    0.23    2.46
   0 -11   3    0.44    5.09
   0 -11  -3   -0.24    3.61
  -7   0  -2  860.40  334.42
   7   0   2  848.03  299.98
   4   2 -12  102.11   51.50
  -4   2 -12  112.10   58.32
  -4   2 -12   86.65  200.72
   4   2  12  120.60   68.47
  -4  -2 -12   85.53  164.88
  -4   2  12  124.00   73.82
  -4   2 -12  114.61   74.82
  -4  -2  12   75.36  121.53
  -4  -2 -12  133.98   79.16
   4  -2  12  123.55   65.93
   4  -2 -12  111.69   59.39
   5  -7  -5  380.40  151.18
  -5   7  -5  380.43  193.50
  -5  -7  -5  364.98  200.09
   5  -7   5  344.99  151.86
  -5  -7   5  139.93  479.70
  -5   7  -5  221.76  379.27
  -5   7   5  378.66  175.32
   5   7  -5  341.17  145.44
   5   7   5  275.85  115.84
  -5   7   5  396.56  193.88
  -4  -9   3   -5.33   78.43
   4  -9  -3   12.47   18.08
  -4   9   3    9.91   24.39
  -4   9  -3    9.22   21.49
  -4  -9  -3    8.31   20.11
   4   9  -3    8.96   16.73
   4  -9  -3    3.99   40.91
  -4  -9  -3    4.71   49.67
  -4   9  -3    2.70   50.94
   4   9   3    7.64   15.75
   4  -9   3    8.27   15.60
   0   9   9    0.12    4.13
   0  -9  -9   -0.80    8.86
   0   9  -9    0.26    3.30
   0  -9  -9    0.87    4.03
   0  -9   9    0.41    3.57
   0   9  -9    0.03    2.27
   6   6   0    1.59    6.21
  -6   6   0    2.10   11.81
   6  -6   0    4.52    9.20
  -6  -6   0   -0.71   35.36
  -5   6   7   72.15   57.13
  -5  -6  -7   71.86   64.58
  -5   6  -7   71.03   64.31
  -5  -6   7   31.09  193.78
  -5   6  -7  117.73  167.49
   5  -6  -7   62.21   34.93
  -5   6  -7   56.93   44.69
  -5   6   7   67.24   53.56
   5   6  -7   65.24   46.67
   5  -8   0    0.43   27.21
   5   8   0    1.90   15.91
  -5   8   0    0.36   25.83
  -5  -8   0  851.18  108.01
  -7  -1   2   15.42   62.99
   7   1   2   62.29   40.01
  -7   1   2   53.01   27.32
  -7   1  -2   57.84   40.67
   7  -1   2   50.61   27.22
  -7  -1  -2   57.48   38.34
   2   9  -8  541.96  198.09
  -2  -9  -8  247.67  315.65
   2  -9  -8  610.65  243.07
   2   9  -8  499.87  172.56
  -2  -9   8  416.01  380.81
  -2   9   8  710.39  295.41
  -2   9  -8  612.78  281.47
   2  -9  -8  265.56  353.81
   2  -9   8  498.66  171.56
  -2   9   8  579.13  196.24
  -2  -9  -8  708.54  288.83
  -2   9  -8  486.65  735.98
   2   9   8  636.24  226.13
   2   9  -8  431.83  520.42
   0   4 -14   82.05   59.35
   0  -4 -14   80.25   40.69
   0  -4 -14  177.56  111.11
   0  -4 -14   73.97   38.98
   0   4 -14   53.89  164.52
   0  -4  14   84.14   57.06
   0   4  14   73.29   39.81
   6   0  -8  212.12   85.27
  -6   0  -8  225.23  119.65
   6   0   8  232.99  107.54
  -6   0   8  216.63  103.39
   3  -6 -11   77.87  117.80
  -3   6 -11  203.81  108.20
   3  -6 -11  188.16   78.76
   3  -6  11  185.73   79.37
   3   6 -11  168.81   72.47
  -3  -6 -11  171.95  171.25
  -3   6 -11  162.55   64.36
  -3  -6  11  121.71  177.11
   3  -6 -11  172.81   64.20
   3   6  11  201.33   82.25
   3   6 -11  171.83   68.97
  -3   6  11  243.71  123.77
  -6   4   6    3.87    9.85
  -6   4   6    4.39   12.41
  -6   4  -6    3.78   13.85
   6   4   6    2.93   15.03
   6   4  -6    4.23   11.17
  -6  -4   6    1.75   38.61
  -6   4  -6    5.04   14.95
  -6  -4  -6    4.86   13.80
   6   6   1  217.48   89.41
   6   6  -1  232.24   97.04
  -6  -6  -1  104.99  312.38
  -6  -6   1  109.83  315.24
  -6   6  -1  268.52  143.05
   6  -6  -1  246.89  113.76
   6  -6   1  252.33  120.07
   0  10  -7  568.88  199.75
   0 -10  -7  237.56  337.94
   0 -10  -7  636.96  244.51
   0 -10   7  384.37  313.34
  -3 -10  -3   21.10  101.38
   3 -10   3   58.27   42.13
  -3  10  -3   66.43   53.36
  -3  10   3   65.49   45.27
  -3 -10  -3   21.30   73.81
  -3 -10  -3   66.86   52.53
   3  10  -3   58.84   66.44
  -3  10   3   71.17   58.88
   3  10   3   64.79   47.49
  -3  10  -3   29.39  144.77
   3 -10  -3   63.25   45.51
   3 -10  -3   30.21  118.03
  -3 -10   3   22.95  151.29
  -5   8  -1  341.84  173.28
   5  -8   1  316.52  140.93
   5  -8  -1  312.42  140.50
   5   8  -1  303.03  126.79
  -5  -8  -1  141.64  357.74
  -5   8  -1  144.34  257.57
   5   8   1  327.67  132.43
  -5  -8   1  121.96  355.02
   5  -8  -1  134.09  207.12
  -5   8   1  332.58  164.48
  -2  -7 -11  341.53  162.94
   2   7 -11  278.64  111.12
  -2   7  11  369.11  175.44
  -2  -7 -11  116.65  193.21
  -2  -7  11  296.66  143.55
   2  -7  11  290.66  122.25
   2   7 -11  268.41  104.20
   2  -7 -11  238.89  218.53
  -2   7 -11  301.22  143.25
   2   7  11  294.75  109.60
   2  -7 -11  297.27  113.07
   2  -7 -11  304.42  113.76
   2   7  11  298.65  115.50
  -3  -3  13   10.45   14.66
  -3   3 -13    7.56   70.04
   3  -3 -13   10.38   24.14
   3  -3 -13   24.87   27.37
   3   3 -13   10.48   16.92
  -3  -3 -13   13.91   28.47
  -3  -3 -13   21.18   40.24
   3  -3  13   13.33   18.85
  -3   3 -13    9.92   11.15
   3   3  13   11.79   17.63
  -3  -3  13    8.87   41.33
   0   0 -15    5.07   26.82
   0   0 -15    1.24    8.98
   0   0  15    2.96    7.41
   2   6 -12  164.57   75.23
  -2  -6 -12  193.51  101.03
   2  -6  12  167.43   79.54
   2  -6 -12  173.96   71.43
  -2  -6 -12   68.18  132.09
   2   6 -12  156.07   65.01
  -2  -6  12  169.86   92.36
   2  -6 -12   67.90  119.13
   2  -6 -12  162.58   63.97
   2   6  12  173.97   67.90
  -6  -3   7   18.43  109.73
  -6   3   7   60.13   42.15
   6   3   7   60.72   50.64
   6  -3   7   52.28   32.45
  -6   3  -7   65.79   48.68
  -6   3   7   52.32   39.66
  -6  -3  -7   56.17   51.14
  -6   3  -7   55.70   46.37
  -7   2   0    0.13    6.03
  -7  -2   0   30.25   20.32
  -7   2   0    0.87    5.23
   1 -11   3   98.71   51.04
  -1  11  -3  105.43   59.38
   1 -11  -3  104.78   64.22
  -1  11  -3  106.55   72.73
  -1 -11   3   43.41  146.34
   1 -11  -3   53.64  203.26
   1  11  -3  105.49   65.95
  -1  11   3  106.89   95.13
  -1  11   3   84.72   42.19
   1  11   3  107.82   73.44
  -1 -11  -3   50.42  175.20
  -1  11  -3   68.05  220.73
  -1 -11  -3  105.80   62.82
   1  11  -3   63.13  185.66
   6   1  -8  113.31   48.55
   6  -1  -8  124.01   60.11
  -6  -1  -8  126.34   80.86
   6  -1   8  124.23   67.08
  -6   1  -8  124.68   77.50
  -6   1   8  120.73   68.45
   6   1   8  123.57   72.36
   3  -7 -10   74.54   34.61
  -3  -7  10   48.42  104.88
   3  -7  10   65.27   33.86
  -3  -7 -10   31.60   74.03
   3   7 -10   66.58   37.81
   3   7 -10   67.40   31.60
   3  -7 -10    0.05   32.71
   3  -7  10   70.88   38.56
  -3  -7 -10   86.67   61.53
  -3   7  10   96.41   68.26
   3  -7 -10  252.61  104.03
   3   7  10   80.02   39.51
  -7   2  -1   22.93   22.89
  -7  -2   1    7.55   53.56
  -7  -2  -1   24.84   19.85
  -7   2   1   22.75   18.91
   7  -2  -1   20.94   19.89
  -7  -2  -1   13.78   55.33
  -7   2  -1   22.55   18.17
   0   1 -15   -2.55   16.10
   0  -1  15    0.71    4.71
   0   1 -15    1.17    5.61
   0   1  15    0.89    3.88
   0  -1 -15   -0.14   15.63
   0  -1 -15    0.15    4.85
   5   3  10    0.78    6.22
   5  -3  10    1.55    5.27
  -5   3 -10    0.04    5.88
   5   3 -10    0.69    3.85
  -5   3 -10    0.45    7.34
   5  -3 -10    3.15    6.10
  -5  -3  10    0.65    5.82
  -5   3  10    0.73    6.91
  -5  -3 -10    0.57    8.60
  -5   3 -10   -0.16   17.54
  -5  -3  10   -0.91   20.92
   7   0   3    0.51    3.00
  -7   0   3    0.07    2.23
  -7   0  -3    0.42    3.68
  -6  -6  -2  123.37   68.16
   6   6  -2  134.72   66.29
   6  -6  -2  144.47   73.33
   6   6   2  115.91   55.93
  -6  -6  -2  158.13  240.36
  -6   6   2  151.23   93.66
  -6  -6   2  701.99  341.73
  -6   6  -2  161.67  103.12
   6  -6   2  144.89   83.02
  -5   8   2   10.83   28.48
   5   8   2    8.63   15.47
  -5  -8   2  783.95  119.63
  -5   8  -2   -1.19   50.82
  -5   8  -2   10.74   28.14
   5   8  -2    7.19   17.73
  -5  -8  -2    7.60   69.53
  -5   8   2   28.69   28.37
  -5  -8  -2    8.36   19.45
   5  -8  -2    3.81   39.42
   5  -8   2    9.28   20.03
   5  -8  -2   12.38   21.11
  -1  -9  -9   35.00  117.26
  -1  -9   9   52.94  108.34
   1  -9  -9   39.00  118.95
   1   9   9   88.46   54.67
   1  -9  -9   94.69   55.77
   1  -9  -9   80.10   36.18
  -1   9  -9   89.38   59.06
   1  -9   9   80.53   49.77
   1   9  -9   91.42   43.45
   3   5  12   17.15   18.56
   3  -5 -12    8.53   31.29
   3  -5 -12   16.62   18.90
  -3  -5  12   13.15   51.51
  -3   5 -12   13.69   12.96
  -3   5 -12   16.86   25.84
  -3   5  12   20.10   27.90
   3   5 -12   16.53   17.27
  -3  -5 -12   42.22   46.04
   3   5 -12   19.89   16.97
   3  -5  12   14.08   28.47
  -3  -5 -12   16.71   26.42
   0  11  -4    1.08   14.86
   0  11  -4    0.12    2.89
   0 -11  -4    1.19   14.06
   0 -11  -4    1.86    4.23
   0 -11   4   -0.32    6.44
   0 -11   4    0.01    2.20
   0  11   4    0.28    5.24
   1  -4 -14 1929.50  697.37
  -1   4 -14  583.77  755.35
   1   4  14  887.43  300.18
   1  -4 -14  872.94  307.66
  -1  -4 -14 2045.85  749.24
  -1   4  14  868.70  326.64
   1   4 -14  605.55  690.05
  -1  -4 -14  860.06  318.76
   1   4 -14  869.14  332.53
   1  -4  14  909.53  352.91
   1   4 -14  776.41  263.41
  -1   4 -14  928.60  370.75
  -7  -1  -3   19.77   24.02
   7  -1   3   18.40   16.49
  -7   1   3   21.77   15.94
  -7   1  -3   24.62   26.39
   7   1   3   20.31   23.88
  -1 -10  -7    3.20   16.05
  -1  10   7    3.06   16.35
   1  10   7    2.38   13.88
  -1  10  -7    2.32   12.53
   1  10  -7    1.70    8.65
   1 -10  -7  187.91   41.83
  -1 -10   7    2.22   28.63
  -1 -10  -7   86.97   36.09
  -1  10  -7    1.32    8.26
   1 -10  -7    2.34   13.91
  -6   5   5  381.93  172.49
   6  -5  -5  322.03  125.97
  -6   5   5  321.52  163.77
  -6   5  -5  422.68  218.54
  -6   5  -5  342.95  159.38
  -6  -5   5  132.89  384.24
   6   5  -5  355.59  148.33
  -6  -5  -5  381.23  196.50
  -7   2  -2  352.04  150.40
   7  -2  -2  285.99  113.10
   7   2  -2  291.92  110.95
  -7   2   2  340.14  128.13
  -7   2  -2  318.10  122.85
  -7  -2  -2  328.70  138.41
  -7  -2   2  147.07  237.80
  -2  10  -6  206.05  438.67
   2 -10  -6  289.16  123.59
  -2 -10  -6  112.93  196.07
   2  10  -6  160.09  256.44
  -2  10   6  256.52   99.50
   2  10  -6  259.16  114.09
   2  10   6  287.03  126.50
   2 -10   6  244.81   96.93
   2 -10   6  231.78   96.55
   2 -10  -6  187.78  244.70
  -2 -10   6  192.97  223.41
  -2  10  -6  295.08  137.96
   4   9   4  172.02   83.44
   4  -9  -4   73.69  169.31
  -4  -9   4   60.13  282.29
  -4   9  -4  161.38  102.09
  -4   9  -4   70.85  288.73
   4   9  -4  139.64   78.47
  -4  -9  -4  142.76  104.06
  -4  -9  -4   51.09  176.71
  -4   9   4  189.18  122.86
   4  -9  -4  143.26   79.10
   4  -9   4  136.99   76.60
  -4   9   4  148.60   86.35
  -1   0 -15   33.26   31.36
  -1   0  15    0.89    5.00
  -1   0 -15    2.23    8.08
   1   0 -15    0.46    8.83
  -1   0  15    0.64    6.91
   1   0  15    2.68    7.77
   1   0 -15   31.70   24.80
   2   3 -14   75.86  164.95
  -2  -3 -14  117.82   64.75
   2  -3 -14  265.79  128.74
  -2   3 -14  120.52   76.69
  -2  -3  14  127.49   76.30
   2  -3 -14  117.56   62.33
   2   3 -14  116.76   69.42
  -2  -3  14  100.51   52.06
  -2   3 -14   82.97  228.39
  -2  -3 -14  261.14  162.30
  -2   3  14  118.81   67.01
   2  -3  14  121.79   72.05
   0   7  12    0.88    9.83
   0  -7  12    0.19   10.02
   0   7 -12    0.97    9.90
   0  -7 -12   44.62   23.99
   0  -7 -12    1.59    9.55
  -2   8 -10   51.19  170.14
   2  -8 -10   70.92   41.91
  -2  -8  10   42.72  102.84
   2  -8 -10   70.66   37.24
  -2  -8 -10   32.87   92.80
  -2   8  10   87.83   65.20
   2   8 -10   46.76  141.97
   2  -8 -10   38.92  135.23
   2   8 -10   60.36   37.14
   2   8  10   71.44   39.82
   2   8 -10   61.31   34.76
   2  -8  10   67.54   41.82
  -2  11   0    3.77   14.15
  -2 -11   0    3.12   36.88
   2  11   0    3.39   16.57
  -2  11   0    3.79   13.10
  -2 -11   0  380.69   69.19
   2 -11   0    3.11   13.50
  -2 -11   0    3.02   10.31
  -2  -5 -13  221.95  130.06
  -2   5  13  105.85   66.53
   2  -5 -13   89.88   48.16
  -2   5 -13   66.86  198.60
  -2   5 -13   96.87   65.80
   2  -5  13   90.42   57.49
   2   5 -13   80.65   42.90
   2   5 -13   85.50   52.36
   2   5  13   94.04   46.27
  -2  -5 -13   98.69   61.92
   2   5 -13   55.14  187.55
   2  -5 -13   37.35  132.88
  -4  -3 -12   12.21   22.21
  -4  -3  12    9.79   16.04
   4  -3 -12    9.68   16.49
  -4   3 -12    7.14   63.31
  -4   3 -12   10.56   14.40
  -4   3 -12   13.06   20.88
   4   3  12   11.19   17.83
  -4   3  12   13.27   31.03
   4  -3  12    9.92   17.31
  -4  -3 -12   12.51   52.71
  -4  -3  12    6.61   42.39
   1   1 -15    7.86   52.16
  -1   1 -15   12.84   64.73
   1  -1 -15   13.20   54.26
  -1  -1  15    9.02   10.78
  -1   1  15    9.59   11.22
  -1  -1  15   12.64   16.74
  -1  -1 -15   12.21   16.14
  -1  -1 -15   52.08   70.53
   1  -1 -15   12.80   18.34
   1  -1  15   11.99   18.20
   1   1 -15   12.46   19.40
  -1   1 -15   13.07   19.13
  -2  11  -1  134.73   72.38
  -2 -11   1   45.95  178.46
   2 -11  -1  124.89   70.70
  -2 -11   1  113.41   56.13
  -2  11   1  135.65   79.57
  -2 -11  -1   64.96  146.33
  -2 -11  -1   53.50  164.84
   2  11   1  130.50   82.99
  -2 -11  -1  120.72   64.41
   2 -11   1  123.05   84.89
   2  11  -1  127.11   80.53
  -2  11  -1  142.65   95.11
  -2 -11   1   55.39  156.01
  -2  11   1  138.75   71.49
  -3  -9  -7  105.21  169.55
  -3   9   7  304.53  123.48
  -3  -9  -7   86.24  167.80
  -3   9   7  344.83  175.64
   3  -9  -7  289.34  119.12
   3   9  -7  255.60  111.38
   3  -9   7  245.47  101.14
   3  -9  -7  247.26  231.26
  -3  -9   7  202.63  251.21
  -3   9  -7  312.43  150.77
   3   9   7  303.15  120.58
   3  -9   7  236.75   95.40
  -3   9  -7  214.36  410.91
  -6  -2   8  234.44  109.90
  -6   2   8  224.31  108.66
   6  -2   8  238.99  101.76
   6   2   8  247.10  119.11
   6   2  -8  202.01   75.77
   6  -2  -8  239.94  105.20
  -6  -2  -8  247.55  131.63
  -6   2  -8  236.90  120.50
   3 -10  -4    3.77   39.27
  -3 -10   4    0.72   49.81
  -3 -10  -4    3.30   23.88
  -3  10  -4    3.90   47.72
  -3  10   4    4.47   12.90
  -3 -10  -4    7.35   16.25
   3  10   4    5.54   13.26
  -3 -10  -4    1.91   43.99
  -3  10  -4    7.03   23.38
   3 -10  -4    6.91   13.50
   3 -10   4    4.34   11.11
   0  -2  15 1126.89  433.85
   0  -2 -15 1100.56  396.12
   0   2 -15 1114.18  425.61
   0   2  15 1087.64  377.56
   0  -2 -15 1555.50  692.69
   0   2 -15  599.65  696.92
   0   6 -13 2084.29  681.14
   0   6  13 2395.83  746.72
   0  -6 -13  821.64  697.10
  -5   0 -11  151.27   48.12
   5   0  11    0.54   12.47
  -5   0 -11    0.24   13.86
   5   0 -11    6.91   10.62
  -5   0  11    0.22   12.63
   6   6  -3    3.02    9.46
   6  -6   3    3.41   12.07
  -6   6   3    3.82   13.83
  -6  -6   3  119.04   52.18
  -6   6  -3    4.30   15.82
  -6  -6  -3    2.97   11.55
   6  -6  -3    2.86    9.23
  -6   6   3    2.09    7.78
  -4  -8   7   14.55  118.15
  -4   8   7   44.01   45.88
  -4  -8  -7    9.59   37.56
  -4   8  -7   18.65  125.12
  -4   8   7   32.27   30.66
   4  -8  -7   12.53   47.19
  -4   8  -7   32.49   39.71
   4   8   7   28.42   20.85
   4  -8   7   23.57   16.76
   4  -8  -7   32.00   24.02
   4  -8   7   28.00   24.46
  -4  -8  -7   31.53   39.24
  -4  -8  -7   11.02   57.80
   5   8  -3  244.58  113.59
   5  -8   3  243.14  120.91
  -5  -8  -3  279.66  430.22
  -5   8   3  285.83  178.70
   5  -8  -3  267.74  125.23
  -5   8  -3  288.85  160.47
  -5  -8   3  108.79  592.83
   5   8   3  238.21  101.50
  -5   8  -3  122.37  244.38
  -5  -8  -3  254.99  146.78
  -5   8   3  271.49  142.53
   1 -11   4    7.41   27.88
  -1  11  -4   16.16   18.75
   1  11   4   19.04   27.79
   1  11  -4   17.37   23.24
  -1 -11   4    8.92   57.47
  -1 -11  -4   10.13   72.48
  -1 -11  -4   17.93   24.22
  -1  11  -4   17.04   86.55
   1 -11  -4   10.39   84.95
   1 -11  -4   16.88   24.19
  -1  11  -4   18.43   20.59
   1  11  -4   13.48   74.36
   1 -11   4   15.02   15.94
  -5  -7  -6  102.15   85.01
  -5  -7   6   36.48  257.91
  -5  -7  -6   28.87  142.27
  -5   7   6  111.32   72.64
  -5   7  -6   56.98  180.80
   5   7  -6   98.17   59.95
  -5   7   6  115.95   83.96
   5  -7   6   93.34   61.85
  -5   7  -6  113.71   85.26
   5  -7  -6  103.08   56.95
   0  -8 -11   24.09   85.00
   0   8  11   71.23   50.50
   0  -8  11   61.03   45.44
   0   8 -11   59.51   43.87
   3  -8  -9   26.11   81.29
   3  -8  -9   70.81   50.62
   3   8   9   66.99   34.93
  -3   8   9   83.13   68.18
  -3   8  -9   41.88  153.92
  -3  -8  -9   26.40   74.06
   3  -8   9   59.08   33.70
  -3   8  -9   70.33   57.00
   3  -8   9   61.75   35.44
   3   8  -9   50.90   26.29
   3   8   9   69.34   38.27
  -3   8   9   70.14   42.30
  -3  -8  -9   77.06   62.51
   3   8  -9   58.25   50.07
  -3  -8   9   44.19  108.37
   7  -3   0    0.19    2.41
  -7   3   0    0.00    2.27
   5   1  11   45.09   39.63
   5  -1 -11   47.09   35.01
  -5  -1 -11   52.04   46.64
  -5   1 -11   35.58  113.24
  -5   1 -11   47.41   41.20
  -5   1  11   50.40   41.94
   5  -1  11   47.02   38.73
  -5  -1 -11   34.90  132.41
  -5  -1  11   48.34   38.86
  -7   0  -4  476.60  201.34
  -7   0   4  446.96  163.99
   7   0  -4  335.72  121.11
   7   0   4  455.47  167.95
  -7   2  -3  253.39  124.64
   7  -2   3  200.13   78.20
  -7  -2   3  129.10  203.92
   7   2   3  282.93  127.90
   7   2  -3  234.53   95.86
  -7   2   3  250.23  101.41
  -7  -2  -3  249.67  116.82
   2  11  -2   26.37   34.04
  -2  11  -2   25.87   29.26
   2  11   2   22.86   33.33
  -2 -11   2  296.72  111.96
  -2  11  -2   28.10   28.73
   2 -11  -2   26.18   29.43
   2 -11   2   23.01   25.89
  -2 -11  -2   15.25   61.54
  -2  11   2   24.18   25.11
  -2 -11  -2   22.84   26.66
  -2 -11  -2   12.19   81.29
   4   6 -10    6.78   13.09
   4   6  10    7.80   12.69
  -4  -6  10    8.94   36.71
   4  -6 -10    1.91   17.54
  -4   6  10    9.80   19.23
  -4  -6 -10    4.05   23.14
   4  -6  10    9.17   14.69
   4   6 -10    4.96    7.39
  -4  -6 -10    7.66   19.30
   4  -6 -10    0.44   13.01
  -4   6 -10    6.00    9.10
   4  -6 -10    6.43    7.28
  -4   6 -10    7.20   17.63
   1   7 -12    5.38   12.68
   1  -7 -12    6.22    8.39
   1  -7 -12    3.05   27.02
  -1  -7 -12    3.26   29.22
   1  -7  12    5.82   14.09
   1   7 -12    7.23   11.27
  -1   7  12    6.07   16.53
   1   7  12    6.61   11.89
   7  -3  -1  202.17   91.59
  -7  -3  -1  186.89   86.14
  -7  -3  -1  198.02  232.78
  -7   3  -1  199.88   98.11
  -7   3  -1  214.42   98.63
  -7  -3   1   78.55  195.35
  -7   3   1  220.59  115.59
  -7   1   4  199.10   85.40
   7   1   4  218.43  102.17
  -7   1  -4  209.06  111.55
  -7   1   4  196.06   79.67
  -7  -1  -4  208.75  107.89
   7  -1   4  193.59   82.24
  -7  -1   4  199.59   87.24
   3   0 -14   63.46  124.56
  -3   0 -14  111.92   76.03
   3   0 -14  115.78   65.26
   3   0  14  130.35   71.92
  -3   0 -14  113.86   57.79
  -3   0 -14  343.48  236.54
  -3   0  14  109.99   61.62
  -4  -5  11   13.65   54.82
  -4   5  11   16.38   26.58
  -4  -5 -11   36.37   36.98
   4   5 -11   14.18   19.14
   4  -5 -11   14.96   20.17
  -4  -5 -11   18.31   27.45
  -4   5 -11   11.64   14.97
   4  -5  11   13.30   17.51
   4   5 -11   11.87   12.82
   4   5  11   15.04   19.66
   5   5  -9   75.29   51.40
  -5   5   9   80.74   54.71
  -5  -5  -9   90.97   72.19
   5  -5   9   68.32   36.47
  -5   5   9   86.10   60.43
  -5  -5   9   35.61  197.26
  -5   5  -9   88.51   70.28
  -5   5  -9   66.91   46.57
   5   5   9   77.61   51.97
   5   5  -9   59.84   28.12
   1  -2  15  115.90   65.38
  -1   2 -15  118.89   69.89
   1  -2 -15  200.25  127.05
   1  -2 -15  107.93   60.78
  -1   2 -15   65.35  270.05
   1   2  15  111.01   54.31
  -1  -2  15   86.09   44.03
   1   2 -15   68.94  240.51
  -1  -2 -15  110.56   54.77
  -1  -2 -15  177.33  284.07
  -1  -2 -15   94.93   45.70
  -1   2  15   96.77   48.80
  -1  -2  15  118.66   81.60
   1   2 -15   62.81  215.76
   1   2 -15  110.88   68.87
  -1  -6  13    1.77    9.02
   1  -6 -13   -0.55   15.60
  -1  -6 -13    1.13   16.96
   1   6 -13    0.75    4.62
   1   6 -13    1.64    8.44
   1  -6  13    1.95    8.95
   1   6  13    4.99    6.12
  -1  -6 -13    1.92    8.63
   1  -6 -13    2.12    5.81
  -1   6 -13    1.74    9.99
  -1   6  13    1.64    9.25
  -3  -4  13   12.37   60.59
  -3  -4  13   20.15   19.91
  -3   4 -13   15.35   97.63
   3  -4  13   24.40   25.78
  -3  -4 -13   56.99   53.93
   3  -4 -13   23.07   22.63
  -3   4  13   27.12   29.60
   3   4  13   24.12   23.46
   3  -4 -13    9.57   38.54
   3   4 -13   24.50   22.84
  -3  -4 -13   25.49   29.74
  -3   4 -13   18.89   15.05
  -6  -4   7   93.19  398.49
   6   4   7  295.47  147.04
  -6   4   7  279.57  132.06
  -6   4  -7  258.03  138.18
  -6   4   7  242.61  120.86
  -6  -4  -7  260.04  146.29
   6   4  -7  265.17  125.56
  -6   4  -7  313.94  175.23
   0  11  -5    0.96    3.33
   0 -11  -5    0.51    4.89
   0 -11   5   -0.59    7.37
   0  11  -5   -1.53   16.27
   0  11   5   -0.06    7.87
   0 -11  -5   -0.12   16.23
   0  11  -5    0.03    3.96
  -1  -8  11   10.50   19.94
   1  -8 -11    6.67   39.99
  -1  -8 -11   11.75   21.60
  -1   8  11   12.26   22.35
   1   8 -11    9.96   11.15
   1   8 -11   10.15   15.01
   1  -8 -11   10.98   16.52
   1  -8 -11   10.42   10.29
  -1  -8 -11    5.05   40.90
  -3   1 -14   86.23   69.69
   3   1 -14  280.30  169.06
  -3   1  14   80.48   53.56
  -3  -1 -14   58.23  172.38
   3  -1  14   90.70   59.32
  -3   1 -14  400.23  239.59
  -3   1 -14   79.15   44.16
   3  -1 -14   86.17   54.49
  -3  -1  14   78.39   62.02
  -3  -1 -14   83.56   50.31
   3   1  14   98.37   62.37
   3  -1 -14   70.20  115.62
  -7   3   2  155.84   77.27
  -7  -3   2  498.10  241.16
  -7  -3  -2   51.10  172.57
  -7   3  -2  146.27   84.07
  -7   3  -2  152.94   76.76
   7  -3  -2  133.69   64.13
   7   3  -2  132.79   60.28
  -7  -3  -2  137.80   71.91
   4  -7   9   61.08   39.42
  -4   7  -9   86.89   64.75
   4  -7  -9   73.07   37.95
   4  -7  -9   23.23   65.39
  -4  -7   9   51.12  122.83
  -4  -7  -9   29.63   97.55
   4   7  -9   65.74   44.95
   4  -7   9   65.71   35.14
  -4   7   9   76.46   50.18
   4   7   9   75.10   47.29
  -4  -7  -9   80.93   66.87
  -4  -9   5   62.93  298.27
   4  -9  -5   65.01  132.21
  -4   9   5  229.62  140.70
  -4   9  -5  113.70  292.42
  -4  -9  -5  176.62  117.54
   4   9   5  178.58   81.49
  -4  -9  -5   52.62  164.05
  -4   9   5  180.20   95.39
   4   9  -5  159.98   84.57
   4  -9   5  158.33   81.44
   4  -9  -5  171.60   85.54
  -4   9  -5  196.89  116.38
  -5   6  -8   92.36  237.43
  -5  -6   8   47.26  287.72
  -5   6   8  157.09   87.33
  -5   6   8  163.50  100.78
   5   6   8  149.23   84.98
  -5   6  -8  164.72  108.69
  -5   6  -8  124.56   71.44
  -5  -6  -8  161.54  109.02
   5  -6  -8  132.71   58.95
   5   6  -8  146.52   79.90
  -2  11   3  319.64  157.30
   2 -11   3  292.81  125.85
   2  11  -3  300.12  144.23
  -2 -11  -3  153.06  299.00
  -2 -11  -3  337.72  177.29
  -2  11  -3  180.71  381.04
  -2 -11   3  107.91  301.28
   2 -11  -3  308.55  140.28
  -2  11  -3  327.10  143.33
  -2  11   3  315.69  131.52
   2  11   3  307.44  148.12
   2  11  -3  196.34  314.98
  -2 -11  -3   89.56  211.32
  -2  11  -3  317.65  145.37
   5  -2  11  337.12  139.31
   5   2  11  337.45  144.27
  -5  -2 -11  379.04  179.87
  -5   2 -11  340.60  150.48
   5   2 -11  329.72  122.97
  -5   2 -11  238.72  348.38
  -5  -2 -11  248.28  302.13
  -5   2  11  365.17  168.21
  -5   2 -11  339.97  177.02
   5  -2 -11  356.46  144.41
   5  -4 -10   57.53   43.19
  -5   4 -10   48.69   38.08
  -5  -4  10   17.63  152.01
   5  -4  10   51.53   33.38
  -5   4 -10   61.11   57.31
  -5  -4 -10   63.98   60.37
   5   4 -10   47.40   26.02
   5   4  10   54.40   41.34
  -6   6   4    0.15    4.34
   6  -6  -4    0.09    4.22
   6  -6   4    0.87    6.19
  -6  -6   4   -2.52   22.28
  -6   6  -4    0.78    7.63
  -6   6   4    0.60    6.70
   6   6  -4    0.28    4.69
  -6  -6  -4    3.64    6.54
   0  10  -8 1818.64  617.59
   0 -10  -8  769.06  795.70
   0  10  -8 1743.54  566.53
   0  10   8 2004.49  708.83
   0 -10   8 1213.76  833.45
   0 -10  -8 2061.61  706.56
  -5   8  -4  187.29  117.73
   5   8  -4  159.35   85.87
  -5   8   4  196.19  145.25
  -5  -8   4   75.38  334.71
   5   8   4  152.66   70.05
   5  -8  -4  177.14   91.73
  -5  -8  -4   53.13  206.98
   5  -8   4  161.08   88.96
  -5   8   4  182.97  104.99
  -5   8  -4   75.20  186.35
  -5  -8  -4  169.34  114.34
   0   5 -14    0.35    5.61
   0  -5 -14   -0.24   10.74
   0   5 -14   -1.02   18.42
   0  -5  14    0.67    5.40
   0  -5 -14    0.82    3.01
   0  -5 -14    0.44    3.61
   0   5  14    0.30    3.69
  -6  -3   8  155.73  370.35
  -6   3  -8  449.58  197.53
   6  -3  -8  474.79  189.95
   6   3  -8  348.83  120.15
   6  -3   8  439.70  160.28
   6   3   8  481.16  201.73
  -6   3  -8  510.23  236.70
  -6  -3  -8  469.78  220.42
  -6   3   8  422.34  184.95
  -6  -5  -6    9.92   23.98
   6  -5  -6    7.88   10.32
  -6   5  -6   11.62   25.57
   6   5  -6   15.36   17.26
  -6   5   6    9.68   19.97
   6  -5   6    8.76    8.99
  -6   5  -6   11.28   20.37
  -6   5   6   10.28   22.25
  -6  -5   6    5.28   67.07
  -4   0  13    0.31    3.66
   4   0 -13    0.09    3.20
   4   0  13    0.54    3.96
  -4   0 -13    0.02    4.89
  -4   0 -13   -0.21   11.60
  -3 -10  -5   12.71   72.88
  -3 -10  -5   14.78   65.01
   3  10  -5   42.35   37.48
  -3  10   5   56.93   53.58
  -3 -10  -5   49.58   49.71
   3 -10  -5   46.23   38.79
   3 -10  -5   23.27  107.13
  -3  10  -5   49.60   48.20
  -3  10  -5   26.96  160.96
   3 -10   5   42.07   34.10
  -3 -10   5   20.97  139.47
  -3  10   5   48.27   37.15
   3  10   5   46.61   37.51
   0   3  15    0.13    2.06
   0   3 -15    0.58    4.57
   0   3 -15    3.35   13.92
   0  -3 -15    0.18    3.04
   0  -3 -15    1.29    7.47
   0  -3  15    0.09    4.03
   2   9  -9   65.28  162.65
  -2  -9   9   67.92  121.30
   2  -9  -9   41.36  112.30
   2  -9  -9   96.21   52.68
  -2   9   9  112.39   76.75
   2   9  -9   78.66   38.27
   2  -9   9   70.39   34.00
   2   9  -9   84.97   46.40
  -2  -9  -9   37.01   97.87
  -2   9   9   92.21   42.33
   7  -2   4  196.10   80.04
  -7   2   4  217.09   91.55
   7   2  -4  238.26  100.78
  -7  -2  -4  228.66  114.75
  -7   2   4  238.95   99.11
   7   2   4  255.30  120.89
  -7   2  -4  242.38  121.69
  -7  -2   4   70.10  171.53
   6   0   9    0.57    9.24
  -6   0  -9    0.59   10.55
   6   0  -9    4.40    6.45
  -6   0   9    0.19    9.23
   1 -11   5   56.77   78.98
   1  11  -5  101.90   61.77
  -1  11  -5  103.41   52.64
   1 -11  -5   62.45  204.74
   1  11  -5   69.62  182.28
   1  11   5  112.16   73.27
  -1  11  -5   64.12  204.86
  -1  11  -5  108.05   61.20
   1 -11  -5  108.94   82.53
  -1 -11  -5  112.52   69.39
   1 -11   5   92.40   45.13
  -1 -11  -5   40.67  126.26
  -1 -11   5   68.76  108.82
  -2  -4 -14  161.65  110.90
   2  -4  14   70.43   50.54
   2   4 -14   67.09   47.97
  -2   4  14   70.79   49.59
   2   4  14   70.40   40.07
   2  -4 -14  116.63   94.12
  -2   4 -14   42.23  181.58
   2  -4 -14   67.92   43.95
  -2   4 -14   71.05   56.59
  -2  -4  14   58.44   37.00
   2   4 -14   41.47  128.47
  -2  -4 -14   70.33   49.14
  -4   1 -13    1.46   25.21
   4   1 -13    0.99    5.63
  -4  -1 -13    1.25    7.01
  -4   1  13    1.02    7.30
  -4  -1 -13   -2.05   22.59
   4   1  13    1.17    7.16
  -4   1 -13    1.77    6.04
   4  -1  13    1.91    7.30
  -4  -1  13    0.96    9.19
  -4   1 -13    0.93    6.18
   0  -9 -10    0.02    4.89
   0   9 -10    0.55    2.62
   0  -9 -10   -1.22   15.09
   2 -10   7    0.05    3.00
   2  10  -7   -0.36   17.19
  -2  10   7    1.53    3.11
  -2 -10  -7   -1.14   10.08
   2 -10   7    0.37    2.66
  -2  10  -7    0.07    5.23
  -2 -10   7    0.41   11.27
   2  10  -7   -0.19    4.12
   2 -10  -7    0.17    4.68
   2  10   7    0.42    4.59
   2   0 -15  427.20  528.30
  -2   0 -15 2000.12  996.89
  -7   3  -3   92.66   53.15
  -7  -3  -3   87.36   55.25
   7   3  -3   85.30   45.71
   7  -3  -3   72.82   39.29
  -7  -3   3  104.26  142.72
  -7   3  -3   96.19   64.89
  -7   3   3  100.15   55.40
   6   1  -9   32.43   23.63
  -6  -1  -9   37.34   40.56
   6  -1   9   35.80   33.54
  -6   1   9   34.98   34.02
  -6   1  -9   34.35   38.99
   6  -1  -9   33.23   28.06
   6   1   9   38.00   48.27
  -3  -2  14    1.49    7.63
   3  -2 -14    2.54   19.72
   3   2  14    3.01    8.91
  -3   2 -14    2.68    8.89
   3   2 -14    0.74   20.41
   3  -2  14    2.37    9.46
  -3  -2 -14    2.89   32.09
  -3   2 -14    1.87   36.32
  -3  -2 -14    3.46    8.90
  -3  -2  14    1.92   18.96
  -3   2  14    2.46    9.22
   3   2 -14    3.22    9.22
  -3   2 -14    1.98    5.92
   7   0   5    4.11    5.58
   7   0  -5    0.10    3.35
  -7   0  -5    0.31    7.03
  -7   0   5    0.96    4.84
  -4   4 -12  126.50   84.64
  -4  -4 -12  134.80   85.86
  -4   4 -12   81.35  209.06
   4  -4 -12  113.17   60.71
   4   4  12  119.65   65.18
   4  -4  12  112.03   60.67
  -4  -4 -12   56.28  103.20
  -4  -4  12   70.84  150.70
  -4   4 -12  102.00   52.50
   4   4 -12  100.84   48.33
  -1  10  -8  201.51  121.37
   1  10  -8  189.82  101.75
   1 -10  -8  213.86  105.34
  -1 -10   8  134.99  179.70
  -1 -10  -8   84.34  186.88
   1 -10  -8  660.02  297.28
   1  10  -8  182.29   80.25
  -1   5 -14  219.83  118.38
   1  -5 -14  185.74   78.15
   1  -5 -14  213.05   88.32
   1   5 -14  186.11   72.99
   1  -5 -14  231.49  195.52
  -1  -5 -14  495.28  243.02
  -1  -5 -14  220.77  100.29
   1  -5  14  216.29  110.59
   1   5 -14  168.06  294.79
   1   5 -14  214.03  110.75
  -1   5 -14  154.51  321.27
  -1   5  14  224.84  105.89
  -1  -5  14  211.32  113.73
   2   1 -15  402.28  442.95
   2   1 -15  664.69  256.73
   2  -1 -15  648.35  246.68
  -2  -1 -15  569.66  211.31
  -2  -1 -15  586.99  643.91
  -2   1  15  606.63  231.16
   2  -1  15  691.98  266.88
  -2   1 -15  685.32  272.33
   2  -1 -15  466.82  492.59
  -2   1 -15  513.54  652.02
   2   1  15  680.54  257.12
  -2  -1  15  720.24  291.69
  -2  -1 -15  670.48  254.24
  -2  -1  15  554.80  209.20
  -7  -1  -5   47.06   41.49
  -7  -1   5   44.51   30.87
  -7   1  -5   45.08   58.85
   7   1   5   48.33   38.25
   7  -1  -5   42.73   27.76
   7  -1   5   44.57   30.97
  -7   1   5   44.26   30.52
   1   3  15  121.72   55.33
   1  -3 -15  118.01   60.84
  -1  -3 -15  263.23  161.60
  -1  -3 -15  110.79   54.07
  -1   3 -15   85.39  229.41
  -1  -3  15   86.30   44.31
   1  -3 -15  264.24  138.69
  -1   3 -15  129.14   79.45
   1   3 -15   77.24  195.61
   1  -3  15  127.82   74.17
  -1  -3 -15  123.65   56.36
  -1   3  15  112.51   57.00
   1   3 -15  120.74   75.08
   7  -4   0    1.11   13.78
  -7  -4   0  160.25   50.24
  -7   4   0    0.49   14.75
  -2 -11   4    3.82   75.55
   2  11   4   17.20   26.19
  -2  11  -4   19.04   25.03
  -2  11  -4   17.94   18.92
  -2 -11  -4    7.64   46.69
   2 -11  -4   16.33   24.39
  -2  11   4   18.09   27.90
   2  11  -4   16.67   25.23
   2 -11   4   15.31   18.22
  -2  11   4   16.85   18.50
   2  11  -4   10.85   64.53
  -2 -11  -4   18.46   26.41
  -2  11  -4    7.73   89.75
   2 -11  -4   12.95   81.95
  -3  -9  -8    3.09   23.61
   3   9  -8    8.44   12.07
  -3  -9   8    5.72   37.96
   3  -9  -8    3.49   28.33
  -3   9  -8    3.28   62.13
   3   9   8    6.35   15.41
  -3   9   8    8.05   20.59
  -3   9   8    5.69   12.25
   3  -9  -8    6.73   12.44
   3  -9   8    4.58    8.71
   3  -9   8    3.74    8.75
  -3   9  -8    6.96   17.32
  -6   7   0  186.72  117.33
  -6  -7   0  145.16  300.09
   6   7   0  162.51   78.04
   6  -7   0  175.06   95.31
   5  -7  -7  321.11  125.24
   5   7  -7  303.17  133.11
  -5   7   7  331.71  153.06
  -5   7  -7  228.66  388.03
  -5  -7   7  112.17  428.68
  -5   7  -7  354.54  186.41
  -5   7   7  381.23  190.62
  -5  -7  -7  334.08  188.86
   5  -7   7  226.66   86.15
   5  -7   7  288.62  130.68
  -1  -9  10  343.04  296.96
   1   9  10  273.30  120.51
   1   9 -10  232.24   94.39
  -1   9  10  306.11  150.88
  -1  -9 -10  101.12  188.17
   1  -9  10  246.18  111.38
   1  -9 -10  272.26  119.21
  -1   9 -10  250.97  122.11
   1  -9 -10  108.87  212.88
   1   9 -10  228.24  102.36
  -4 -10   0   55.45   88.73
   4  10   0   18.80   26.99
   4 -10   0   16.33   25.85
  -4  10   0   19.80   31.43
  -4  10   0   20.85   27.74
   3  -7  11   25.10   22.56
  -3  -7 -11   30.28   36.58
  -3  -7 -11   10.35   47.14
   3   7 -11   23.33   21.05
   3  -7  11   20.18   16.71
   3   7 -11   23.14   18.29
   3  -7 -11   14.70   44.75
  -3  -7  11   18.58   64.11
   3  -7 -11   26.13   17.86
   3  -7 -11   25.19   21.43
   3   7  11   26.01   21.14
   7  -4  -1   71.82   46.24
  -7   4  -1   78.29   54.26
  -7  -4   1   29.60  129.23
   7  -4   1   76.40   56.11
  -7   4   1   77.71   54.22
   4  -2  13   65.92   45.32
  -4   2  13   66.82   50.97
   4   2  13   62.41   46.60
   4   2 -13   53.79   36.44
  -4  -2 -13   47.03  126.46
  -4   2 -13   57.38   38.90
   4  -2 -13   57.22   41.72
  -4   2 -13   45.67  151.69
  -4  -2 -13   69.95   52.75
  -4   2 -13   60.42   48.32
  -3   6 -12    0.66    7.79
   3   6 -12    0.74    4.75
   3  -6  12    0.80    5.76
   3   6 -12    2.63    6.71
  -3  -6 -12    0.59   13.48
  -3  -6 -12    1.18    8.25
  -3   6  12    0.51    8.81
   3  -6 -12    0.17   10.04
   3  -6 -12    0.68    5.10
  -3   6 -12    1.26    3.44
  -3  -6  12    1.20   15.58
   3   6  12    0.99    5.03
   6  -7  -1  349.06  157.88
  -6   7  -1  373.87  198.55
  -6  -7  -1  144.21  408.22
  -6  -7   1  615.13  528.09
   6   7   1  310.28  144.08
  -6   7   1  370.39  192.08
   6  -7   1  350.72  165.22
   6   7  -1  332.08  139.90
   4  -8  -8   79.15  141.33
  -4  -8  -8  235.08  136.99
  -4   8   8  288.15  157.32
  -4   8  -8  241.01  131.00
   4  -8   8  188.95   75.12
   4  -8   8  191.67   87.40
   4   8  -8  199.24  110.64
   4  -8  -8  218.10   89.65
  -4  -8  -8   80.72  119.25
  -4  -8   8   70.62  322.64
  -4   8   8  232.45  107.65
   4  10   1   27.04   31.30
  -4  10   1   33.38   38.31
   4 -10  -1   25.63   32.36
  -4 -10  -1  138.70  108.12
   4 -10   1   23.80   30.62
  -4 -10   1   42.02  107.47
   4  10  -1   25.49   33.07
  -4  10  -1   13.78   94.77
  -4  10  -1   29.18   38.76
  -4  10   1   28.38   35.57
   4 -10  -1   15.22   79.44
   2  -7  12  161.53   80.63
  -2   7  12  210.70  115.30
   2   7  12  165.26   70.59
  -2  -7 -12  194.46  130.70
   2   7 -12  148.16   65.25
  -2  -7 -12   65.51  139.48
   2  -7 -12   90.64  142.80
  -2  -7  12  167.43  119.26
   2  -7 -12  165.67   69.85
   2  -7 -12  168.60   71.48
   2   7 -12  154.97   72.93
   5   3  11  191.92  118.32
  -5   3 -11  189.84   94.89
  -5  -3 -11  240.88  133.52
  -5  -3  11   48.49  263.90
  -5   3  11  221.63  116.88
   5  -3  11  194.28   88.85
   5   3 -11  178.80   73.85
  -5  -3  11  190.47   97.04
  -5   3 -11  200.46  124.67
  -5  -3 -11  144.02  204.22
   5  -3 -11  203.55   97.55
  -5   3 -11  120.64  235.62
   6  -2   9 1205.97  423.50
  -6  -2  -9 1257.31  523.04
  -6   2   9 1148.75  454.72
   6   2  -9 1037.28  342.53
  -6  -2   9 1149.04  443.49
   6   2   9 1235.44  463.74
  -6   2  -9 1186.35  471.85
   6  -2  -9 1224.29  435.13
   0 -11  -6   -1.79    5.71
   0 -11  -6    0.42    2.38
   0  11  -6   -1.11   14.10
   0 -11   6   -0.61    3.72
   0  11  -6    0.02    1.64
   6   6  -5  136.19   66.82
  -6  -6  -5  149.67   93.18
  -6  -6   5   45.31  236.64
  -6   6  -5  163.26  101.29
   6  -6  -5  131.79   58.52
  -6   6   5  127.82   68.08
   6  -6   5    0.53   60.19
  -6  -6  -5   46.65  164.75
  -6   6   5  147.91   82.89
   5  -8   5  205.95  105.45
   5   8  -5  215.90  107.08
  -5  -8  -5  217.57  146.25
  -5  -8   5   93.54  406.52
   5   8   5  190.84   81.65
  -5   8   5  280.44  160.31
  -5   8  -5  140.82  305.68
  -5   8  -5  245.39  145.76
   5  -8  -5  241.91  113.18
  -5   8   5  236.40  126.13
  -4   9   6  211.74  109.21
  -4   9  -6  232.80  137.27
   4  -9   6  185.04   92.63
   4   9  -6  183.97   94.23
   4  -9  -6  489.64  234.35
   4   9   6  215.51   94.46
  -4   9   6  272.66  163.07
  -4  -9  -6  217.04  138.43
  -4  -9  -6   63.42  119.88
  -4  -9   6   81.03  335.46
   4  -9  -6  205.28   98.68
  -2  -2 -15  154.18   72.99
  -2  -2 -15  121.23  266.44
   2   2  15  167.35   80.30
   2  -2 -15  505.66  304.66
   2   2 -15  156.89   86.61
  -2  -2  15  174.59   94.29
   2  -2 -15  154.06   79.22
  -2   2 -15  113.88  279.69
   2  -2  15  166.78   88.63
  -2  -2  15  127.24   61.76
   2   2 -15  110.07  201.55
  -2   2 -15  161.88   88.75
  -2   2  15  148.24   76.49
  -7  -3  -4   76.91   55.81
  -7   3   4   81.74   51.85
  -7   3  -4   77.90   49.31
   7   3   4   84.94   64.99
  -7   3  -4   87.88   63.89
  -7  -3   4   28.52  130.90
   7   3  -4   77.52   45.79
   2  -6 -13   85.44   44.86
  -2  -6  13   84.95   63.90
  -2   6  13  124.05   71.71
   2   6  13   88.07   41.45
   2   6 -13   76.95   40.95
  -2  -6 -13  148.16  130.60
  -2  -6 -13   93.38   63.41
   2   6 -13   81.17   50.53
   2  -6 -13   31.58   87.49
   2  -6 -13   76.86   38.97
   2  -6  13   82.39   54.26
  -7   2   5  404.23  159.06
  -7   2  -5  407.57  193.08
   7   2   5  431.12  188.55
  -7  -2  -5  383.39  188.36
   7  -2   5  358.59  137.82
  -7   2   5  371.40  154.44
  -7  -4  -2  105.70   59.10
  -7  -4  -2   78.89  172.83
   7   4  -2  102.02   50.62
   7  -4  -2  104.99   56.03
  -7   4  -2  125.33   73.77
  -7  -4   2  195.01  245.43
  -7   4   2  120.32   70.41
  -7   4  -2  115.86   69.30
  -6  -7  -2  388.67  244.04
  -6   7   2  110.67   81.78
  -6  -7   2  860.45  358.17
  -6   7  -2  114.64   90.02
   6  -7  -2   98.66   65.07
   6  -7   2   99.67   70.52
   6   7  -2   96.63   57.51
   6   7   2   86.72   49.01
  -4 -10  -2   70.72  227.07
  -4  10   2  159.72   94.87
  -4  10   2  192.43  118.02
  -4 -10   2   62.19  287.49
  -4  10  -2   74.90  227.23
   4 -10  -2  159.94   90.14
  -4 -10  -2  155.84   93.65
   4 -10   2  151.65   85.14
  -4  10  -2  175.64  108.27
   4 -10  -2   67.65  188.07
   2  -8  11  118.34   64.98
   2  -8 -11  126.94   58.04
  -2  -8 -11   49.54  126.37
   2  -8 -11  128.79   63.07
   2  -8 -11  223.86  158.05
   2   8  11  129.44   59.97
   2   8 -11  112.79   55.92
  -2   8 -11  127.41   80.90
   2   8 -11   80.62  200.83
   2   8 -11  112.66   55.39
  -2  -8  11   79.02  143.91
  -2   8  11  156.12   97.87
  -3 -10  -6    0.43    7.79
   3 -10  -6    1.04    4.13
   3  10   6    0.00    3.97
   3  10  -6    0.40    4.02
  -3 -10   6   -0.99   16.92
   3 -10  -6   -1.69    9.24
  -3  10   6   -0.12    3.81
  -3  10   6    1.27    6.08
  -3  10  -6    0.69    5.37
  -3 -10  -6   -0.17    7.72
  -3  10  -6   -2.21   19.12
  -3  -3 -14  491.50  206.82
   3   3 -14  449.36  180.21
  -3  -3  14  403.37  162.56
  -3   3 -14  479.19  217.48
  -3  -3 -14  798.15  569.51
  -3  -3  14  295.96  332.01
   3   3  14  463.58  185.62
   3  -3 -14  439.68  178.22
   3  -3 -14  967.63  354.90
  -3   3 -14  348.77  133.30
  -3   3 -14  336.19  505.95
   3  -3  14  461.73  190.16
  -3   3  14  452.91  199.78
  -6   4   8  128.18   75.86
  -6  -4  -8  124.13   91.05
  -6   4  -8  117.44   79.70
  -6  -4   8   42.00  245.40
  -6   4  -8  142.64  101.43
   6   4   8  124.83   84.44
   6   4  -8  122.56   74.20
  -6   4   8  112.42   74.04
   3   8  10   11.25   13.50
  -3  -8  10   12.69   47.13
   3   8  10   10.61   11.85
   3   8 -10    8.37   10.43
  -3   8 -10   60.09   35.02
  -3  -8 -10   12.33   25.71
   3  -8  10   10.50   14.44
  -3   8  10   16.22   28.07
   3  -8  10    8.25   10.92
   3   8 -10   10.04   20.85
  -3  -8 -10    5.12   33.30
   3  -8 -10   11.24   13.85
   3  -8 -10    4.98   34.50
  -3 -11   0    0.93   14.18
   3 -11   0    0.57    6.54
  -3  11   0    0.10    6.83
  -3 -11   0   -0.83   18.27
  -3  11   0    2.53    6.55
   3  11   0    0.38    7.31
   0 -12   0  426.09  174.27
   0  12   0  477.07  220.60
   1 -11  -6   14.78   88.56
   1  11  -6   36.66   31.74
  -1  11  -6   27.90  149.11
   1 -11   6   30.78   20.41
   1  11  -6   22.20  109.01
  -1  11   6   40.95   43.20
  -1  11  -6   36.70   25.27
   1 -11  -6   41.57   36.93
   1  11   6   42.38   54.85
  -1  11  -6   39.14   33.31
  -1 -11   6   25.01   67.32
  -1 -11  -6   43.02   40.63
  -1 -11  -6   16.54   77.28
   1 -11   6   20.71   48.78
   3   5 -13    3.71    8.19
   3  -5  13    7.52   10.48
  -3  -5 -13    3.68   13.33
   3  -5 -13    2.15   18.33
   3  -5 -13    2.36    9.25
  -3   5  13    3.11   13.27
   3   5 -13    2.72    9.11
  -3   5 -13    1.94    5.83
   3   5  13    5.23    9.35
  -3  -5 -13    7.46   23.31
  -3  -5  13    2.31   28.45
  -3   5 -13    7.29   13.36
   0   4  15  398.06  155.33
   0   4 -15  312.84  485.00
   0  -4 -15  393.67  151.96
   0  -4 -15  948.16  379.18
   0   4 -15  490.61  214.38
   0  -4  15  502.20  214.42
   0  -4 -15  477.57  175.98
  -6   5  -7   14.06   25.03
   6  -5   7   12.81   12.12
   6   5   7   14.98   27.32
  -6   5   7   15.44   24.08
   6   5  -7   14.55   21.70
  -6   5   7   14.81   30.00
  -6  -5   7   10.20   98.53
  -6   5  -7   17.22   31.79
  -6  -5  -7   16.96   30.65
  -3  11   1    9.05   18.25
  -3 -11  -1   57.07   55.43
  -3  11   1    8.78   20.05
   3 -11   1   10.02   17.83
  -3 -11  -1    9.21   15.44
   3  11  -1    8.82   20.11
  -3 -11   1    1.56   74.22
   3 -11  -1    8.40   25.67
  -3  11  -1    9.10   20.10
  -3 -11   1    2.81   38.44
  -3 -11  -1    4.65   41.46
  -3  11  -1   10.93   17.54
   5  -9   0    7.99   14.74
  -5   9   0    0.35   23.37
   5  -9   0    0.67   26.97
  -5  -9   0    0.47   48.17
   0 -12   1  198.43  109.21
   0 -12  -1  201.14   98.80
   0  12   1  219.96  126.73
   0  12  -1  220.89  120.35
  -7   0   6  246.33  110.62
   7   0   6  256.64  112.99
   7   0  -6  214.69   86.00
  -7   0  -6  258.01  133.64
  -5   9  -1    0.42   15.77
   5  -9   1    0.68   11.63
   5   9   1    0.74    9.87
   5  -9  -1   -0.91   23.95
   5  -9  -1   -0.45   12.51
  -5  -9   1    0.14   43.85
  -5  -9  -1  389.70   58.28
  -5   9  -1    0.81   29.48
  -5   9   1    0.36   14.45
   0   7  13    0.84    4.33
   0  -7 -13    0.27    8.72
   0  -7 -13    0.16    4.26
   0  -7  13    0.11    5.01
   0   7 -13    0.23    4.56
   5   5 -10  152.51   60.66
   5   5  10  178.76   91.14
  -5   5  10  203.76  116.29
  -5   5 -10  219.89  133.70
  -5   5 -10  163.40   84.79
   5  -5 -10  197.68   98.45
   5  -5  10  167.81   74.38
  -5  -5 -10  209.91  130.09
  -5  -5  10   41.28  312.31
   5   5 -10  181.71   91.99
  -7  -4   3   48.17  176.87
  -7   4  -3  114.07   72.40
   7  -4  -3   96.94   50.45
  -7   4   3  119.23   70.49
  -7  -4  -3  106.00   63.43
  -7  -4  -3   40.93  159.05
   7   4  -3  107.89   54.92
  -7   4  -3  123.85   74.44
   2 -11  -5    6.67   61.81
   2  11  -5   11.21   19.86
  -2 -11  -5    4.94   37.18
   2 -11   5    7.68   12.42
  -2  11   5   11.87   22.34
   2 -11  -5   10.91   19.09
   2  11  -5    5.75   48.03
  -2  11  -5    4.78   67.84
  -2 -11   5    1.89   59.84
   2  11   5    9.79   20.03
  -2  11  -5   10.67   19.41
   6  -7   3  207.40  114.46
  -6  -7  -3  169.81  298.99
   6  -7  -3  203.87  103.15
   6   7  -3  195.74   97.94
  -6   7  -3  232.96  144.69
  -6  -7   3  154.61  389.01
  -6  -7  -3  207.66  121.51
  -6   7   3  220.45  128.62
  -5   0  12  305.12  145.45
   5   0 -12  290.98  123.21
   5   0  12  303.25  137.29
  -5   0 -12  308.87  149.77
  -5   0 -12  249.31  367.88
  -4   6 -11   31.62   23.35
  -4   6  11   51.43   47.94
   4  -6 -11   42.33   33.85
  -4  -6  11   26.76   88.51
   4   6  11   41.40   32.74
  -4   6 -11   43.82   44.52
  -4  -6 -11   45.98   48.21
   4   6 -11   36.77   31.53
   4   6 -11   33.59   21.43
   4  -6 -11   12.88   42.04
  -4  -6 -11   38.04   62.06
   4  -6  11   38.71   27.17
  -5   6   9  328.31  154.10
   5   6   9  311.51  145.47
  -5   6   9  353.72  180.91
   5   6  -9  305.80  139.72
  -5  -6  -9  342.98  194.06
  -5   6  -9  267.25  126.67
  -5   6  -9  360.90  205.73
  -5  -6   9   96.75  445.27
   4  10  -3  131.56   78.35
  -4  10  -3   63.79  221.59
  -4  10  -3  157.32  101.73
  -4 -10   3   56.95  273.76
  -4 -10  -3  136.38   90.84
  -4  10   3  140.41   84.93
  -4 -10  -3   48.71  186.70
   4 -10  -3   65.23  168.95
   4 -10  -3  142.37   81.91
  -4  10   3  172.01  112.10
   4 -10   3  128.69   75.27
   7  -1   6   39.56   30.82
  -7  -1  -6   41.78   41.44
  -7   1  -6   42.83   42.28
   7   1   6   41.57   37.35
   7  -1  -6   37.90   27.19
  -7   1   6   38.35   30.86
  -7  -1   6   40.72   31.64
   0   0 -16  281.19  417.69
   0   0 -16  499.07  207.05
   0   0  16  506.56  202.17
  -4   3 -13  104.45   55.27
  -4  -3  13   71.71  138.02
  -4   3 -13   79.20  214.62
  -4  -3 -13   88.08  179.74
   4  -3  13  111.91   65.10
  -4  -3 -13  125.99   79.42
   4   3 -13   98.37   52.85
  -4   3  13  123.67   78.86
   4  -3 -13  102.68   60.06
  -4   3 -13  117.37   78.42
  -4  -3  13   99.89   59.32
   4   3  13  115.88   66.78
   0  -8 -12  159.31  245.94
   0   8 -12  422.71  172.72
   0   8  12  538.68  210.51
  -3 -11  -2   27.33  128.04
  -3  11   2   75.70   52.53
   3  11   2   77.92   57.26
   3 -11   2   72.27   50.23
  -3  11  -2   80.65   60.15
  -3 -11  -2   21.54   81.69
   3 -11  -2   70.37   52.79
  -3  11   2   84.25   60.28
  -3 -11  -2   74.10   51.69
   3  11  -2   73.90   57.59
  -3 -11   2   27.92  166.84
  -3 -11   2   26.39   94.96
   0  10   9  314.03  149.46
   0  10  -9  282.51  125.05
   0  10  -9  236.93  432.20
   0  10  -9  269.74  108.08
   0 -10  -9  117.70  232.58
   0 -10   9  283.71  156.01
   0 -10  -9  319.62  150.01
   0 -12  -2  521.89  220.40
   0  12  -2  540.04  235.58
   0 -12   2  498.69  193.75
   0  12   2  576.62  265.57
  -5   1  12   34.99   37.07
   5   1 -12   30.94   26.74
  -5   1 -12   33.14   34.54
  -5  -1  12   31.94   33.73
   5  -1 -12   38.54   30.97
   5   1  12   32.83   34.16
  -5   1 -12   29.81  107.42
  -5  -1 -12   29.46   96.27
   5  -1  12   33.47   33.81
  -5  -1 -12   35.54   38.63
   6   3  -9  829.77  272.81
  -6   3   9  987.84  400.83
  -6   3  -9  979.37  390.11
  -6  -3  -9 1080.65  462.06
   6  -3   9 1001.33  345.09
  -6   3  -9 1092.21  492.50
   6  -3  -9 1046.24  387.38
  -6  -3   9  305.04  763.46
   6   3   9 1043.12  400.67
  -1 -12   0   -1.03   13.41
   1  12   0    0.38    5.30
  -1 -12   0    0.26    3.26
   1 -12   0    0.20    3.90
  -1  12   0    0.45    3.14
  -1  12   0    0.55    5.12
   4   7  10    3.79    8.61
  -4  -7  10    5.34   26.30
   4   7 -10    1.51    8.55
   4  -7  10    2.24    6.87
   4  -7  10    1.79    6.62
  -4  -7 -10    2.60   13.51
  -4   7  10    3.21   14.16
   4  -7 -10   31.28   16.84
   4   7 -10    1.25    4.83
  -4   7 -10    1.70   12.39
  -4  -7 -10    0.76   15.90
  -4   7  10    1.95    9.60
   4  -7 -10    1.54    5.66
   2  10  -8    2.54    9.55
   2 -10   8    2.84    6.15
   2 -10   8    4.72    8.11
   2  10  -8   37.28   40.68
  -2 -10   8    3.73   27.56
   2 -10  -8    3.06   11.15
  -2  10  -8    2.90   13.28
  -2 -10  -8    2.70   25.07
   2  10   8    3.01   10.82
  -2  10   8    4.13   15.97
  -2 -10  -8    6.25   15.93
   5  -9  -2   67.79   52.08
  -5   9   2   70.37   61.30
  -5   9  -2   31.27  122.10
   5  -9  -2   29.52   95.84
  -5  -9   2   25.15  181.28
  -5  -9  -2   26.05  155.80
  -5   9   2   72.46   59.62
   5   9   2   65.09   43.04
   5  -9   2   63.54   66.73
   5   9  -2   65.95   47.62
  -5  -9  -2   67.26   52.66
  -5   9  -2   78.07   68.52
   1   4 -15   68.71   73.59
   1   4 -15   45.93  158.59
  -1   4  15   67.68   43.85
  -1  -4 -15  159.48  117.99
  -1  -4 -15   68.02   41.51
   1  -4  15   72.13   56.89
   1  -4 -15   69.31   42.41
   1  -4 -15  153.66  105.41
  -1   4 -15   76.85   60.72
  -1   4 -15   42.04  182.84
  -2  -5 -14  459.78  223.90
  -2  -5 -14  202.22  102.65
   2   5 -14  179.89   91.36
   2   5 -14  115.13  216.63
   2  -5 -14  186.10   84.47
   2  -5 -14   85.88  154.64
  -2   5 -14  165.06  342.53
   2   5  14  195.18   81.17
  -2   5 -14  197.91  110.17
   2   5 -14  175.16   74.96
   2  -5  14  189.78   99.35
  -2   5  14  210.90  108.75
   0   1 -16 1264.77  121.05
   0  -1 -16  144.17   77.85
   0  -1  16    0.11   18.46
   0  -1 -16    0.38   19.17
   0   1 -16    0.07   21.97
   1  12  -1    0.55    6.14
   1 -12  -1    0.46    4.87
  -1 -12   1   -0.46   15.41
   1 -12   1    0.47    4.20
  -1  12  -1    0.24    5.32
  -1 -12   1   -0.30   12.24
  -1  12   1    0.31    6.24
  -1 -12  -1    0.06    4.17
  -1 -12  -1   -3.07   16.80
   1  12   1    0.10    6.39
  -1  12  -1    0.19    3.83
  -1 -12   1    1.48    3.30
  -2   3 -15  551.94  246.15
  -2  -3  15  461.83  184.93
  -2  -3  15  584.55  260.69
   2  -3 -15 1153.52  436.88
   2   3 -15  354.21  456.06
   2   3 -15  514.47  217.93
  -2   3  15  507.38  212.91
  -2  -3 -15  529.07  211.87
  -2  -3 -15  680.42  423.61
   2  -3 -15  514.04  205.52
  -2   3 -15  370.09  581.16
   2  -3  15  534.47  226.99
  -7   3   5  107.27   57.93
   7   3   5  125.39   80.75
   7   3  -5  119.65   63.77
  -7   3   5  120.10   66.89
   7  -3   5   98.31   45.61
  -7  -3  -5  112.84   75.40
  -7  -3   5   40.89  157.82
  -7   3  -5  125.06   89.12
   4  -5  12    1.78    7.86
   4   5  12    2.79    8.10
  -4   5  12    2.03   11.74
  -4  -5  12    1.15   24.40
  -4   5 -12    2.24    6.05
   4  -5 -12    1.28    8.44
   4   5 -12    1.48    5.87
  -4  -5 -12    6.14   15.96
  -4  -5 -12    2.77   12.08
   4   5 -12    2.39    8.04
   0   6  14  348.81  142.77
   0   6 -14  324.09  151.99
   0  -6 -14  184.98  239.18
  -6   6   6  421.17  197.48
  -6   6  -6  371.54  175.10
  -6   6  -6  463.66  252.28
   6  -6  -6  363.62  145.56
  -6   6   6  387.77  189.46
   6   6  -6  378.87  166.65
  -6  -6   6  131.27  628.80
  -6  -6  -6  421.11  237.31
  -1  -7 -13   47.13  122.32
  -1   7  13  142.90   82.87
   1   7 -13  111.91   65.09
   1   7  13  133.07   62.90
  -1   7 -13  121.41   75.25
   1   7 -13  104.52   46.34
   1  -7 -13  121.04   52.30
   1  -7 -13   42.41  113.82
  -5   8   6    0.01    4.32
  -5  -8  -6    1.39    9.75
   5  -8   6   -0.04    3.42
  -5   8   6    1.23    5.52
  -5  -8  -6    0.52    5.50
  -5   8  -6    1.50   13.54
  -5  -8   6    2.22   19.24
   5   8  -6   -0.13    3.92
  -5   8  -6    0.09    5.40
   5  -8  -6    0.16    3.18
   2   9 -10  409.96  157.24
   2  -9 -10  469.27  163.87
   2  -9 -10  198.53  287.89
   2   9  10  505.36  185.70
   2  -9 -10  496.64  184.64
   2   9 -10  311.69  439.68
  -2   9  10  573.05  251.79
   2   9 -10  399.02  146.81
  -2  -9 -10  181.60  265.99
  -2  -9  10  311.73  323.75
   6   0 -10   80.20   58.56
  -6   0 -10   87.05   71.43
   6   0  10   83.43   59.72
  -6   0  10   80.81   64.65
   5   4 -11   30.31   21.05
   5   4  11   32.67   32.02
  -5  -4 -11   40.21   47.21
  -5   4  11   35.96   40.89
  -5   4 -11   21.11   98.24
  -5  -4  11    5.18  124.60
  -5   4 -11   29.64   28.84
   5  -4  11   30.06   27.17
   5  -4 -11   33.56   33.43
  -5   4 -11   34.15   43.30
   1   0 -16  215.39  109.35
   1   0 -16  300.17  281.04
  -1   0 -16  329.67  326.37
  -1   0 -16  224.98  110.26
   1   0  16  215.56  101.41
  -1   0  16  177.07   90.67
  -1   0  16  220.44  115.68
   1   8  12  118.03   63.99
   1   8 -12   88.28   43.57
   1   8 -12   90.93   56.68
   1  -8 -12  112.91   64.77
  -1  -8 -12   77.24  129.58
  -1  -8  12   97.53   70.80
   1  -8 -12  229.68  149.67
  -1   8  12  117.42   79.28
   1  10  -9    7.03   12.19
   1 -10  -9    5.16   43.30
   1  10  -9    9.37   16.95
  -1 -10  -9    5.60   40.02
   1  10  -9    6.94   63.34
   1  10   9    9.44   17.18
  -1 -10   9    8.09   36.71
   1 -10  -9    9.63   17.77
  -7   2   6  291.78  132.16
  -7  -2  -6  316.05  164.61
  -7  -2   6  312.70  139.69
   7   2   6  331.69  156.80
   7  -2   6  299.34  121.20
   7  -2  -6  323.12  137.32
  -7   2  -6  328.31  167.35
   1 -12   2  154.23   77.41
  -1  12   2  173.22  130.33
  -1 -12  -2  160.18   84.12
  -1 -12   2  140.03   63.42
   1 -12  -2  167.12   89.17
  -1  12  -2  165.00   80.12
  -1 -12   2   43.79  176.22
  -1  12  -2  169.45   91.41
   1  12  -2  114.76  280.90
   1  12  -2  168.28   99.34
   1  12   2  170.55  105.78
  -1 -12  -2   92.30  269.99
  -5  -7  -8   12.21   29.13
  -5   7  -8    6.54   72.77
   5  -7   8   10.25   10.61
   5  -7   8   11.94   18.13
  -5   7   8   14.07   22.76
  -5   7   8   15.03   28.56
   5   7  -8   11.71   20.01
   5   7   8   14.58   21.63
   5  -7  -8   13.09   13.79
  -5  -7   8    6.60   93.15
  -5   7  -8   14.46   28.09
   0  11  -7   -3.93   56.10
   0  11  -7    0.71    9.63
   0 -11  -7  161.69   37.94
   0 -11  -7    0.99   14.35
   0 -11   7   -1.49   22.55
   0  11  -7    0.94    9.15
  -3 -11  -3  189.24  340.88
   3 -11  -3  587.82  233.48
  -3  11   3  639.92  279.58
   3 -11   3  565.63  218.35
  -3  11   3  613.45  238.01
  -3 -11   3  225.82  317.04
   3  11  -3  570.61  236.61
   3  11   3  590.64  236.16
  -3  11  -3  642.18  268.45
  -3  11  -3  333.35  543.66
  -3 -11   3  237.26  564.78
  -3 -11  -3  195.32  281.40
  -3 -11  -3  602.38  258.11
   0 -12  -3   61.99  246.26
   0  12   3  154.77  101.13
   0 -12  -3  145.35   79.76
   0 -12   3  124.86   59.35
   0  12  -3  141.62   80.39
  -7  -5   0  653.49  104.88
  -7   5   0    1.11   25.10
   7  -5   0    0.12   21.19
   6   1 -10 1264.55  431.62
  -6  -1 -10 1434.01  595.02
   6  -1  10 1402.31  511.46
  -6   1  10 1338.61  531.05
   6  -1 -10 1341.95  478.64
   6   1  10 1411.49  525.80
  -6   1 -10 1368.27  557.72
  -1   1 -16   70.40   52.79
   1   1 -16   65.74   54.49
  -1   1 -16  643.08  242.66
  -1  -1 -16  219.04  201.15
   1   1 -16  611.81  196.15
   1  -1 -16   37.41  152.62
   1  -1 -16   67.47   48.92
  -1   1  16   50.49   32.49
  -1  -1 -16   66.96   57.91
  -1  -1  16   70.05   46.95
   1  -1  16   68.72   49.87
  -7   4   4  763.91  305.20
  -7   4  -4  818.04  350.43
  -7   4  -4  750.10  314.56
  -7  -4   4  297.04  547.98
   7  -4  -4  551.84  211.98
  -7  -4  -4  703.68  313.90
   7   4  -4  728.70  271.07
   6   7  -4    8.96   15.13
  -6   7  -4    9.69   23.40
  -6  -7   4    2.15   74.19
   6  -7   4    6.65   17.63
  -6   7   4    7.72   14.05
  -6   7   4    7.68   20.98
  -6  -7  -4    6.58   19.84
   6  -7  -4    6.78   13.71
  -5   2 -12   34.58   33.21
  -5   2 -12   22.05  104.45
   5  -2  12   46.32   34.39
  -5  -2 -12   37.59   42.65
   5   2  12   32.46   34.92
  -5   2  12   36.85   39.13
  -5  -2 -12   26.06   85.78
   5   2 -12   32.15   26.38
   5  -2 -12   33.13   32.25
  -4   9   7    0.78    6.13
  -4  -9  -7    0.63    8.22
   4   9  -7    0.85    5.43
   4  -9  -7    1.23    5.27
   4   9   7    0.88    4.53
  -4  -9  -7   -0.45    8.34
   4  -9   7    0.90    4.75
  -4  -9   7    0.73   25.64
  -4   9  -7    0.50    8.54
  -4  -9  -7   -1.04   11.72
  -4   9   7    1.26    9.81
   5  -9  -3    6.66   15.45
  -5   9  -3    3.83   39.90
   5  -9  -3    3.58   31.49
  -5   9   3    6.84   18.27
   5  -9   3    4.74   14.75
   5   9   3    5.07   11.95
   5   9  -3    5.39   14.25
  -5  -9  -3    8.03   16.47
  -5   9   3    7.89   19.02
  -5   9  -3    7.69   21.34
  -5  -9   3   25.35   69.36
  -5  -9  -3    3.98   45.01
  -4  10  -4    0.58    7.87
   4 -10  -4   -0.45   15.30
  -4  10   4    0.52    6.01
   4 -10  -4    1.48    5.59
  -4  10   4    1.28    8.36
  -4  10  -4   -0.38   19.20
  -4 -10   4   -2.52   26.68
   4  10  -4    0.61    5.93
  -4 -10  -4   -0.32   13.67
   4  10   4    0.76    5.28
  -4 -10  -4    0.84    6.91
   4 -10   4    0.29    5.05
  -7  -5   1  105.10  292.68
  -7   5  -1  309.98  159.16
   7  -5   1  297.48  142.52
   7   5  -1  244.59  104.93
  -7  -5  -1  266.07  326.59
  -7   5   1  305.20  151.60
   7  -5  -1  282.69  126.84
   0  -2 -16 1054.41  691.49
   0   2 -16  444.55  623.52
   0  -2 -16  654.66  259.57
   0   2 -16  692.07  323.34
   0  -2  16  707.64  295.61
   0   9  11    0.43    4.50
   0  -9 -11   -0.45    9.26
   0   9 -11    0.00   16.76
   3  -9  -9    6.93   12.11
  -3  -9   9    5.24   41.57
   3  -9  -9    4.92   29.48
   3   9   9    7.71   10.83
   3   9   9    5.54   10.27
  -3  -9  -9    2.35   25.55
   3  -9   9    6.55    9.95
  -3  -9  -9   10.08   20.76
  -3   9   9    7.55   22.00
   3   9  -9    5.71   12.37
  -3   9   9    6.30   12.30
   3  -9   9    4.18    8.75
  -3   9  -9    6.05   18.63
  -1  -6 -14   39.51   76.01
  -1  -6  14   29.72   34.57
   1  -6 -14   31.05   22.36
   1   6 -14   29.24   33.02
   1   6  14   30.92   28.59
  -1   6  14   33.65   32.89
  -1  -6 -14   30.74   30.87
   1  -6 -14   30.42   22.76
   1  -6 -14   13.72   64.80
  -1   6 -14   29.66   36.68
   1  -6  14   30.99   34.30
  -3   4 -14  317.65  237.36
  -3   4 -14   91.43   64.45
  -3  -4  14   57.63  120.64
   3   4 -14   85.69   52.18
  -3   4 -14   65.24   33.70
   3   4  14   92.71   51.38
   3  -4  14   88.44   74.28
  -3   4  14   95.78   65.30
  -3  -4 -14  207.40  129.52
   3  -4 -14   41.32   83.00
  -3  -4 -14   96.11   81.32
   3  -4 -14   85.63   51.74
  -3  -4  14   77.45   45.28
   4   8   9  162.37   80.23
  -4  -8  -9  172.43  113.69
   4  -8  -9   53.94  107.12
  -4  -8   9   50.29  376.72
  -4   8  -9  170.22  107.04
  -4   8   9  169.39   85.54
   4  -8  -9  167.25   73.85
  -4   8   9  206.79  157.88
  -4  -8  -9   53.24  101.05
   4   8  -9  142.24   73.23
   4  -8   9  139.05   60.83
   4  -8   9  132.82   66.93
   3 -10   7  112.08   57.89
  -3 -10  -7   47.84  113.37
   3  10   7  148.79   74.12
  -3  10  -7  152.36   95.55
   3 -10  -7   66.60  137.33
  -3 -10   7   45.14  239.36
   3 -10  -7  140.69   73.00
  -3  10   7  147.62   71.05
   3  10  -7  124.54   69.24
  -3  10   7  168.25  106.82
  -3 -10  -7   36.85  103.59
   3   0 -15    0.20   20.29
  -3   0  15    0.43    8.16
  -3   0 -15    2.37    7.38
  -3   0 -15    0.21    6.94
   3   0  15    0.62    9.71
   3   0 -15    0.41    9.14
  -3   0 -15  239.61   43.02
  -1  11   7    2.96   14.43
   1  11  -7    3.82    9.69
  -1  11  -7    3.63   10.75
   1  11   7    2.99   12.82
  -1 -11   7    3.43   24.05
   1 -11  -7    6.35   12.41
  -1 -11  -7    1.23   28.86
  -1 -11  -7    4.53   13.86
   1 -11   7    1.89   17.39
   1  11  -7    2.13    6.97
   1  11  -7   23.96   38.83
   1 -11  -7   -0.12   30.89
  -7  -5   2   35.42  180.51
   7  -5   2   94.01   66.13
  -7   5   2   93.20   66.26
   7   5  -2   80.08   45.70
   7  -5  -2   83.78   50.26
  -7   5  -2   98.32   71.55
  -2  11   6   51.45   30.73
  -2  11  -6   31.20  190.63
   2 -11   6   48.33   31.17
   2  11  -6   30.01  107.53
  -2  11   6   59.88   55.80
  -2  11  -6   57.08   48.13
  -2 -11   6   13.07  191.96
   2 -11  -6   19.74   99.50
   2  11   6   57.21   46.56
  -2 -11  -6   18.66   85.09
   2 -11  -6   56.68   44.86
  -1 -12   3  284.52  551.71
   1 -12   3  823.03  300.34
   1  12   3  953.91  394.09
  -1 -12  -3  437.96  656.54
  -1 -12  -3  881.72  349.30
  -1  12   3  948.93  395.18
   1  12  -3  604.95  762.36
  -1  12  -3  901.94  353.84
   1 -12  -3  926.53  359.79
  -1  12  -3  891.04  340.86
   3  -1  15   79.73   54.04
  -3   1 -15   67.38   38.15
  -3   1 -15   57.97  188.41
   3  -1 -15   74.78   50.38
   3  -1 -15   48.05  110.12
   3   1 -15   49.45  110.29
  -3  -1  15   69.84   43.74
  -3   1 -15   74.93   48.72
   3   1  15   83.21   53.90
  -3  -1 -15   54.36  169.64
  -3   1  15   73.43   48.62
  -3  -1 -15   74.05   44.54
  -7   0   7   -0.50    1.90
   7   0   7    0.26    2.06
  -7   0  -7    0.31    2.40
   7   0  -7    0.10    1.25
  -4   0 -14   21.39   30.16
   4   0 -14   21.25   28.09
  -4   0 -14  917.41  207.98
  -4   0 -14 1043.69  236.82
  -4   0  14   21.91   32.07
   6  -2 -10    4.16   13.10
  -6   2 -10    4.37   15.22
   6   2  10    9.51   15.37
   6   2 -10    4.89    8.65
  -6  -2  10    4.65   14.56
  -6  -2 -10    5.85   18.33
  -6   2  10    4.57   15.57
   6  -2  10    6.41   13.20
  -1   2 -16  155.51  347.90
   1  -2  16  225.13  112.62
  -1  -2 -16  191.30  327.28
   1   2 -16  150.45  288.57
   1   2 -16  216.67  115.46
   1  -2 -16  518.85  329.74
  -1  -2 -16  214.15   95.82
  -1  -2  16  227.28  111.78
  -1   2 -16  231.46  119.10
   1  -2 -16  216.75  103.22
  -1   2  16  178.54   81.82
   1  -9  11    7.32   15.02
  -1  -9 -11    4.98   35.84
  -1  -9  11    7.48   26.05
   1   9 -11    7.82   13.00
  -1  -9 -11    7.95   21.21
   1   9 -11    5.50   59.90
   1   9 -11    7.83   10.10
  -1   9  11    9.88   20.10
   1  -9 -11    4.21   36.66
  -1   9 -11    7.09   17.36
   1   9  11    8.01   22.04
   1  -9 -11    7.60   15.61
  -6  -5   8  180.97  632.46
  -6  -5  -8  568.55  296.01
  -6   5   8  491.31  235.21
   6  -5   8  448.75  164.29
  -6   5   8  540.22  231.01
  -6   5  -8  468.11  211.43
  -6   5  -8  590.26  316.14
   6   5   8  527.95  236.69
   6   5  -8  495.45  214.23
  -4  -4 -13   55.72   53.74
  -4   4 -13   52.95   51.46
   4   4 -13   41.27   31.01
  -4   4 -13 1016.30  232.30
  -4   4 -13   43.85   30.72
   4  -4  13   49.70   40.57
  -4  -4  13   30.78  102.86
   4   4  13   49.42   41.20
  -4  -4  13   48.59   42.58
  -4  -4 -13  142.47  135.94
   4  -4 -13   49.83   39.84
  -3 -11  -4  104.99   70.37
   3  11   4  103.13   65.77
  -3 -11  -4   31.77   97.26
  -3  11  -4  109.28   72.62
  -3  11   4  106.59   76.13
  -3 -11   4   32.27  208.37
  -3  11   4  103.65   60.17
   3 -11   4   89.39   54.49
  -3 -11  -4   26.15  100.84
   3 -11  -4   46.10  166.49
  -3  11  -4   50.91  203.03
   3 -11  -4   97.19   63.30
   0  12  -4  290.01  474.23
   0 -12  -4  230.94  428.43
   0  12  -4  431.21  177.05
   0 -12  -4  456.17  190.37
   0  12   4  492.82  253.84
   0 -12   4  109.64  271.79
   7   1  -7   85.08   47.39
  -7   1   7   94.41   57.48
  -7  -1  -7  105.31   75.23
  -7  -1   7   99.65   58.91
   7  -1   7  102.12   58.68
   7  -1  -7   98.77   51.68
   7   1   7  105.87   66.34
  -7   1  -7  109.04   74.93
   0  -5  15   -0.29    7.81
   0  -5 -15    0.25   14.18
   0  -5 -15    0.28    4.56
   0  -5 -15    1.94    4.35
   0   5  15   -0.05    4.63
   0   5 -15   63.23   29.10
   0   5 -15    0.80    7.92
  -4   1  14  277.78  135.80
  -4  -1 -14  227.80  337.38
  -4  -1  14  261.49  123.64
   4  -1  14  293.03  133.62
   4   1  14  292.84  134.12
  -4   1 -14  272.06  121.43
  -4   1 -14  221.85  376.75
  -4  -1 -14  288.08  134.79
   4   1 -14  247.81  109.71
  -6  -4   9    9.10  111.29
   6  -4  -9   16.12   29.25
   6   4   9   16.51   31.96
  -6  -4  -9   16.91   38.36
  -6   4  -9   19.02   37.39
  -6   4  -9   18.33   33.83
  -6   4   9   15.86   30.51
   6   4  -9   17.28   28.55
   6  -4   9   52.15   24.91
   5   9  -4   85.18   60.61
  -5   9  -4   43.44  150.20
  -5   9   4   94.12   70.37
  -5  -9  -4  215.64  179.60
  -5  -9   4   42.13  262.29
  -5   9   4  109.48  113.10
   5   9   4   82.93   62.42
   5  -9  -4   95.65   63.66
  -5  -9  -4   83.48   76.70
   5  -9   4   82.66   58.85
  -5   9  -4  103.15   85.52
  -7   3   6   90.16   54.35
  -7  -3  -6   96.12   73.87
  -7   3   6  103.10   61.46
  -7   3  -6  103.93   76.84
   7   3  -6  103.87   61.14
   7   3   6  106.46   73.64
   7  -3   6   87.88   44.11
  -7  -3   6   31.66  144.39
   3  -7  12    1.12    4.95
   3   7  12    5.78    7.12
   3  -7 -12    3.90    5.46
   3  -7 -12    1.66    7.69
   3   7 -12    2.42    6.62
  -3  -7 -12    3.90   12.89
  -3  -7  12    3.96   24.13
   3  -7  12    1.72    8.48
   3   7 -12    1.98    7.38
  -3  -7 -12    0.64   20.27
  -3   7 -12    1.85   13.14
   3  -7 -12   -0.19   17.06
  -2  12   0  114.49   67.89
  -2 -12   0   71.47  178.74
   2 -12   0  109.18   69.01
  -2 -12   0  308.07  187.86
  -2 -12   0  101.96   57.23
   2  12   0  110.85  108.79
  -2  12   0  113.23   72.64
   2   4 -15    8.92   17.80
  -2   4 -15    5.82   75.81
  -2  -4 -15   19.40   41.20
  -2  -4  15   13.28   21.58
  -2   4 -15    8.35   20.66
   2  -4 -15    8.81   15.12
   2   4 -15    2.69   50.03
  -2  -4 -15    7.99   16.04
  -2   4  15    7.96   17.26
   2  -4  15    9.29   18.62
   2  -4 -15   18.68   33.78
  -7   5  -3   42.90   43.74
  -7  -5   3   19.90  119.39
  -7  -5  -3   34.65   31.96
  -7  -5  -3   18.02  105.01
   7   5  -3   36.39   37.58
   7  -5   3   41.44   41.32
  -7   5   3   39.47   40.90
   7  -5  -3   34.98   27.22
   5  -3  12  167.51   83.15
  -5  -3  12  162.89   87.87
  -5   3  12  190.06  108.12
  -5  -3 -12  188.62  113.37
  -5  -3 -12  128.74  200.93
   5  -3 -12  176.18   89.63
  -5   3 -12  108.62  229.64
  -5   3 -12  163.63   86.51
   5   3  12  171.20   91.12
  -5   3 -12  168.97  112.03
   5   3 -12  155.44   81.96
   7   4  -5  311.79  142.19
   7   4   5  345.61  178.55
  -7   4  -5  313.12  165.62
  -7   4   5  325.06  154.45
  -7   4   5  277.49  130.95
  -7  -4  -5  305.19  167.25
  -7  -4   5  262.81  402.10
  -7   4  -5  344.34  200.27
  -6   7   5  254.91  140.49
   6   7  -5  252.69  122.58
  -6  -7   5   90.80  389.57
  -6   7  -5  297.14  178.20
   6  -7   5  262.77  137.04
  -6  -7  -5  279.99  174.41
  -6  -7  -5   92.23  275.62
   6  -7  -5  263.19  117.83
  -6   7   5  279.46  149.81
  -2 -12  -1  324.61  142.34
  -2 -12  -1   72.68  224.19
  -2  12  -1  350.42  156.21
  -2  12   1  345.52  164.73
   2 -12  -1  329.29  151.99
  -2 -12  -1  143.27  300.66
   2 -12   1  317.08  141.37
  -2 -12   1  263.53  444.80
  -2  12  -1  352.40  155.24
   2  12   1  334.98  166.17
  -2  12   1  347.49  147.78
  -2 -12   1  153.15  297.12
  -4 -10  -5   34.34   42.90
  -4  10   5   44.32   51.50
  -4  10  -5   15.13  107.16
   4  10  -5   28.85   33.41
  -4 -10  -5   15.55   70.82
  -4  10   5   38.23   35.12
  -4 -10   5   14.63  141.64
   4 -10  -5   16.42   66.88
   4 -10  -5   34.06   32.09
   4  10   5   34.45   30.81
  -4  10  -5   36.80   44.36
   4 -10   5   29.34   30.01
   0  -3 -16   -0.10    2.26
   0   3 -16    0.29    3.33
   0   3 -16   -2.07   10.80
   0  -3 -16    0.02    5.73
   0  -3  16    0.50    3.09
  -3  -2 -15    4.28    8.97
   3  -2 -15    4.17   24.38
  -3   2 -15    3.10   43.65
  -3  -2  15    2.28    8.33
  -3   2  15    3.64   10.06
   3   2 -15    3.62   10.74
  -3   2 -15    2.73    6.44
  -3   2 -15    2.83    9.97
   3  -2 -15    3.01   10.03
  -3  -2 -15    2.31   37.22
   3  -6 -13   12.88   63.19
   3  -6 -13   19.59   21.47
  -3   6  13   25.36   34.22
   3   6 -13   18.97   20.88
   3  -6  13   20.13   24.07
  -3  -6 -13   24.23   32.78
  -3  -6 -13   44.00   57.96
  -3  -6  13   20.43   64.40
   3   6  13   21.00   20.42
  -3   6 -13   21.57   31.72
   3   6 -13   19.01   19.60
  -6  -6   7   97.36  457.14
   6   6   7  274.64  145.01
  -6   6  -7  293.41  179.81
   6   6  -7  245.70  122.46
  -6  -6  -7  272.07  172.33
  -6   6  -7  230.80  127.95
   6  -6  -7  208.26   89.39
  -6   6   7  270.00  138.76
  -6   6   7  251.31  138.63
   6   8   0  489.31  218.13
  -6  -8   0  228.58  561.00
  -6   8   0  564.92  281.21
   6  -8   0  515.74  256.21
  -5  -8  -7   35.51  139.75
   5  -8   7  102.13   63.29
   5   8  -7  110.43   69.66
  -5   8   7  123.95   78.98
  -5  -8  -7  119.25   98.66
   5  -8  -7  123.31   64.44
  -5   8  -7   64.05  212.62
  -5  -8   7   50.07  279.60
  -5   8   7  146.77  106.58
   2  -7 -13  181.59   76.77
  -2  -7 -13   87.81  179.50
  -2   7  13  218.75  119.87
   2   7 -13  166.92   81.46
  -2  -7  13  582.50  288.93
   2  -7 -13   66.49  137.61
   2   7 -13   89.56  218.49
  -2  -7 -13  201.91  110.77
   2   7 -13  160.73   70.69
   2  -7 -13  177.85   77.11
   2  -7  13  172.24   91.32
  -1  12  -4   48.86  212.09
  -1  12   4  106.56   78.93
  -1  12  -4   94.49   57.30
  -1 -12  -4   31.58  179.32
   1  12  -4  116.24   72.27
  -1  12  -4   97.22   57.20
   1 -12   4   84.66   47.08
  -1 -12  -4  101.45   66.88
   1 -12  -4   45.38  217.62
   1 -12  -4   97.44   64.33
  -1 -12   4   23.71  150.64
   1  12   4  105.47   78.63
   1  12  -4   57.51  192.77
  -1   5  15   60.43   43.15
   1  -5 -15   98.63  103.13
   1   5 -15   39.72  154.32
   1   5 -15   60.52   52.04
  -1  -5 -15   61.03   41.35
  -1   5 -15   63.88   56.24
  -1   5 -15   56.98  183.17
  -1  -5 -15  141.48  111.78
   1  -5  15   64.83   53.45
   1  -5 -15   61.48   37.48
   3  -8 -11  283.14  111.68
  -3  -8  11  191.70  240.91
   3   8  11  294.00  110.78
   3  -8 -11  291.57  110.10
   3  -8  11  226.17   92.09
  -3  -8 -11  110.25  174.80
  -3   8  11  369.84  184.12
  -3  -8 -11  340.54  165.77
   3   8 -11  257.70  123.43
   3  -8  11  278.18  113.35
   3  -8 -11  112.07  177.08
   3   8 -11  240.23   91.00
   6  -8  -1  842.29  339.73
  -6  -8  -1  352.02  723.12
  -6   8  -1  904.71  425.26
   6  -8   1  824.57  341.46
   6   8  -1  794.10  312.63
  -6  -8   1 1438.69 1082.84
  -6   8   1  904.35  409.80
   6   8   1  777.83  305.50
  -2   0 -16  172.71   96.01
  -2   0  16  150.58   82.43
  -2   0 -16 3251.03  669.62
   2   0 -16  171.43  102.97
   2   0 -16 1680.19  447.30
   7   2   7   50.27   44.74
  -7   2  -7   45.60   46.92
   7  -2  -7   46.49   35.17
  -7   2   7   42.18   44.97
   7  -2   7   44.40   31.82
  -7  -2  -7   46.16   48.97
  -7  -2   7   44.01   37.26
  -2   8 -12   46.10   48.03
   2  -8 -12   46.35   32.51
  -2  -8  12   28.17   90.75
   2  -8 -12   45.81   30.17
  -2   8  12   57.57   55.86
  -2  -8 -12   16.12   74.52
   2   8 -12   42.89   29.39
  -2  -8 -12   50.07   54.79
   2  -8  12   44.71   49.90
   2  -8 -12  330.63  109.48
   2   8  12   48.91   32.24
   2   8 -12   39.98   31.53
   4  -2  14   99.77   61.93
  -4  -2 -14   94.36   62.98
  -4  -2  14   87.42   57.79
  -4   2  14   95.37   65.12
   4  -2 -14   86.88   55.02
  -4   2 -14   55.96  205.42
  -4   2 -14   87.35   50.55
   4   2  14   97.38   60.84
  -4   2 -14   86.33   61.88
   4   2 -14   80.78   63.33
  -4  -2 -14   70.56  173.50
   2  10  -9  147.39   63.44
  -2 -10   9  126.57  189.81
   2 -10  -9  191.00   92.87
  -2 -10  -9   67.72  150.41
  -2  10   9  222.46  128.33
   2  10   9  198.28   92.53
  -2 -10  -9  216.52  129.06
   2 -10   9  166.30   77.83
   2  10  -9  161.56   78.98
  -2  10  -9  191.86  104.76
   2 -10  -9   79.74  181.68
   5  -6 -10  139.98   79.88
   5   6  10  126.29   73.64
   5  -6  10  117.62   58.16
  -5   6  10  151.41   98.52
  -5   6 -10  152.52  110.22
  -5  -6  10   32.13  281.46
  -5   6 -10  114.62   63.60
  -5  -6 -10  148.14  137.36
   5   6 -10  127.37   73.43
  -2 -12   2    4.25   46.59
   2 -12  -2    6.08   15.73
  -2  12  -2    6.21   13.17
  -2 -12   2   20.75   43.26
   2 -12   2    5.00   12.65
  -2  12   2    7.63   12.39
  -2  12  -2    6.17   14.45
  -2 -12  -2    0.18   44.49
  -2 -12  -2    6.58   13.23
   2  12   2    5.88   18.47
  -2 -12  -2    1.92   30.70
  -2  12   2    9.29   17.59
   0  10  10  127.40   73.72
   0  10 -10   77.97   53.14
   0 -10  10   82.96   59.90
   0 -10 -10   98.64   94.82
   0 -10 -10   29.95  159.98
   2   1 -16 1103.30  885.05
  -2  -1 -16  862.07  316.69
  -2   1  16  913.61  341.09
   2  -1  16 1061.12  398.07
  -2  -1 -16  716.77  845.86
   2   1  16 1050.91  386.76
   2   1 -16 1022.87  383.21
  -2  -1 -16 1007.22  381.11
  -2   1 -16 1522.00 1154.32
   2  -1 -16  658.56  688.20
   2  -1 -16 1033.48  410.65
  -2   1 -16 1030.53  407.86
  -2  -1  16  843.08  308.03
   6  -3 -10  359.31  155.07
   6   3  10  350.82  164.01
  -6   3 -10  330.54  160.28
  -6  -3  10  330.60  155.59
   6   3 -10  282.95  107.94
  -6  -3 -10  368.96  196.66
  -6   3  10  344.98  169.07
  -5  -5  11   -2.67   35.17
  -5   5 -11    1.43   10.69
   5   5  11    1.77    7.37
   5   5 -11    1.10    4.33
  -5   5 -11    1.30    6.52
  -5  -5 -11    2.23   11.63
   5  -5 -11    1.72    8.01
   5   5 -11    1.40    7.49
  -5   5  11    2.37   10.02
  -1  -3 -16   90.00   46.95
  -1  -3 -16  189.79  188.58
   1   3 -16   89.45   68.12
  -1  -3  16   96.48   64.20
   1  -3 -16   92.70   71.31
  -1   3 -16   64.06  224.17
   1  -3 -16  191.95  122.44
  -1   3 -16   99.07   69.80
  -1   3  16   81.76   47.15
   1   3 -16   64.54  182.21
   1  -3  16   99.65   65.98
   1   3  16   88.81   46.73
   0  11   8    0.63    6.45
   0 -11  -8   -0.72   13.32
   0  11  -8    0.00    4.27
   0 -11  -8    1.00    6.29
   0 -11   8    0.04   10.07
   0  11  -8    0.99    3.68
   6   8   2    1.00   10.76
  -6  -8   2 1034.00  111.02
   6  -8   2    3.07   16.77
  -6   8   2    1.64   21.26
  -6  -8  -2  167.07   67.71
   6   8  -2    4.01   13.51
   6  -8  -2    0.83   15.02
   2   6 -14  122.40   70.40
   2  -6 -14   52.38  126.77
   2  -6  14  128.66   76.47
  -2  -6 -14  282.06  179.97
   2  -6 -14  127.91   62.14
  -2   6  14  145.62   85.92
  -2  -6 -14  135.45   81.06
   2   6 -14  115.01   54.81
  -2   6 -14  133.87   87.29
   2   6 -14   53.10  175.77
   4   9   8  475.88  184.73
   4   9  -8  404.61  164.21
  -4   9   8  646.33  303.17
   4  -9   8  413.16  162.85
   4  -9   8  373.02  136.85
  -4   9   8  516.13  204.20
  -4  -9  -8  159.51  210.28
  -4  -9  -8  536.10  261.95
   4  -9  -8  489.16  182.80
   4   9   8  518.97  201.83
  -4   9  -8  545.61  252.37
  -4   9  -8  322.12  558.90
   4  -9  -8  184.31  248.57
  -4  -9   8  159.29  494.15
  -3  11   5   95.15   56.34
   3  11   5   94.48   61.99
   3 -11  -5   90.99   60.37
   3 -11  -5  122.36  243.36
   3 -11   5   80.18   50.42
  -3 -11  -5   95.52   71.11
  -3 -11  -5   31.15   98.73
  -3  11   5  106.74   80.04
  -3 -11  -5   22.89   97.23
  -3  11  -5   99.95   73.40
  -3  11  -5   41.98  193.52
  -3 -11   5   34.09  196.71
   0  12  -5   20.90  109.16
   0 -12  -5   28.99   34.55
   0  12  -5   27.17   22.86
   0  12   5   37.78   38.94
   0 -12  -5   13.53   77.66
   0 -12   5   24.10   49.38
  -7  -5   4  171.58  367.22
   7  -5  -4  231.33  102.32
  -7   5  -4  320.10  170.90
  -7  -5  -4  263.35  143.88
  -7  -5  -4   99.49  277.19
   7   5  -4  263.75  118.37
  -7   5   4  288.29  144.48
  -4   7 -11  118.44   85.58
   4   7 -11   96.14   43.79
   4  -7  11  104.67   53.69
  -4   7  11  139.86   94.09
   4  -7 -11   68.43   93.28
  -4  -7 -11   48.89  100.33
  -4  -7 -11  124.16   90.21
   4  -7  11   94.11   50.16
   4   7  11  115.01   61.84
  -4  -7  11   76.70  154.42
   4   7 -11  101.71   58.02
   4  -7 -11  120.89   66.81
  -5  -7  -9   24.40   38.24
  -5   7  -9   10.36   96.61
  -5  -7   9    7.79  117.01
  -5   7  -9   23.86   38.54
  -5   7   9   26.78   37.39
   5  -7   9   21.80   22.79
   5   7   9   20.29   26.67
   5  -7  -9   20.26   17.45
   5  -7   9   18.46   15.27
  -5   7   9   22.37   29.47
   5   7  -9   21.24   26.22
  -4  -6 -12  218.62  136.89
  -4   6 -12   92.92   47.43
   4   6 -12   97.42   46.67
  -4   6  12  133.11   89.57
   4   6  12  117.98   63.01
  -4   6 -12  122.15   84.92
  -4  -6  12   73.27  158.36
   4  -6 -12   42.17   85.76
  -4  -6 -12  132.45   91.44
   4   6 -12  105.56   59.04
   4  -6 -12  119.04   65.52
   4  -6  12  107.35   57.67
   5  -9  -5    9.27   16.96
  -5   9  -5   11.90   26.94
   5   9  -5    9.57   17.96
  -5   9   5   12.84   27.06
  -5   9   5    9.83   29.35
  -5  -9   5    7.34   94.68
  -5  -9  -5    9.51   24.51
  -5  -9  -5    3.21   48.62
  -5   9  -5    3.49   51.52
   5   9   5    9.60   12.27
   5  -9   5    8.28   16.37
   2 -11  -7  447.36  484.65
   2  11  -7  731.96  282.67
   2  11  -7  444.74  531.53
   2  11   7  851.78  313.52
  -2  11   7  754.39  252.41
  -2 -11   7  570.74  495.20
  -2 -11  -7  315.71  412.06
  -2  11  -7  859.89  336.36
   2 -11   7  649.89  227.85
   2 -11  -7  832.98  302.89
   2 -11   7  437.07  322.00
   2  12   3    0.00    5.70
   2  12  -3   -0.05    5.42
  -2  12   3    1.41    3.61
  -2 -12  -3   -0.02    9.99
  -2  12  -3    0.57    5.39
   2 -12   3    0.01    3.73
   2 -12  -3    0.31    5.00
  -2 -12   3    0.93   11.74
  -2  12  -3    0.65   19.73
  -2  12   3    0.35    5.65
  -2 -12   3   -1.21   15.39
  -2 -12  -3    0.70    4.54
  -2  12  -3   -0.23    4.68
   3 -10   8   42.34   28.12
   3 -10   8   40.50   29.50
  -3 -10  -8   15.09   70.09
   3 -10  -8   53.74   40.84
  -3  10   8   56.59   37.36
  -3  10   8   62.02   62.09
   3  10  -8   44.75   37.25
  -3 -10   8   32.49  150.89
   3  10   8   66.88   35.80
   3 -10  -8   21.38   85.59
   3  10   8   54.54   38.00
  -3  10  -8   55.75   55.25
  -3  -5  14  481.59  459.65
   3  -5 -14  265.15  290.71
  -3   5 -14  390.24  584.23
   3  -5 -14  583.99  246.34
  -3   5 -14  643.17  289.47
   3   5  14  641.86  234.37
  -3  -5 -14 1495.15  566.84
  -3  -5 -14  669.13  285.92
   3   5 -14  511.88  195.82
   3   5 -14  560.06  218.15
  -3   5  14  687.21  293.42
   3  -5  14  593.68  238.06
   1 -10 -10  171.62   89.39
  -1  10 -10  158.05   88.36
  -1 -10  10  107.61  160.93
   1  10  10  169.50   87.35
   1  10 -10  145.30   78.43
  -1  10  10  187.99  110.49
   1 -10 -10   67.71  177.42
   1  10 -10  140.19   68.72
  -1 -10 -10   58.68  151.27
  -5   0 -13   -0.47   20.74
   5   0  13    1.08    6.23
  -5   0  13    1.25    9.07
   5   0 -13    0.17    5.13
  -5   0 -13    1.20    6.36
  -2  -2 -16   14.08   15.17
  -2   2 -16   10.93   95.14
   2   2 -16   14.93   24.20
  -2  -2 -16   15.02   82.08
   2  -2  16   15.62   23.24
  -2  -2  16   16.44   21.37
  -2   2  16   14.12   18.12
   2   2 -16    8.59   64.52
   2  -2 -16   15.81   20.50
   2  -2 -16   33.71   67.69
  -2   2 -16   15.03   22.88
   2   2  16   15.52   18.77
  -2  -2  16   13.59   14.89
   1 -11  -8  119.74   76.78
  -1 -11  -8   40.75  143.32
   1 -11  -8  422.22  199.36
  -1  11   8  121.43   83.75
   1  11   8  128.65   77.67
   1 -11   8   69.99  101.64
  -1  11  -8  113.91   69.46
  -1 -11   8   74.04  132.90
   1  11  -8   97.48   50.68
  -3  -3 -15    6.84   15.14
   3   3 -15    8.39   14.92
   3  -3 -15    6.18   15.20
  -3   3 -15    5.78   15.86
  -3  -3  15    5.42   11.35
   3  -3  15    7.28   16.44
  -3  -3  15    6.14   32.83
  -3  -3 -15    3.29   55.73
   3  -3 -15   21.74   33.14
  -3   3  15    6.89   15.75
  -3   3 -15    3.89   63.36
  -2   9  11  202.67  119.41
   2  -9 -11   63.41  147.93
   2   9  11  175.54   77.60
  -2  -9 -11   61.92  143.93
   2  -9 -11  172.80   80.79
  -2  -9  11  106.36  171.47
   2  -9 -11  159.39   67.78
   2   9 -11  140.51   64.90
   2   9 -11  144.01   67.61
   2   9 -11  102.39  232.40
  -2   9 -11  253.43  376.69
   6   0  11    1.78    8.69
  -6   0  11   -0.14    8.74
  -6   0 -11    0.37    9.83
   6   0 -11    2.81    6.60
  -7   6   0    0.11    9.36
   7  -6   0    0.03    6.89
  -7  -6   0   26.97   25.77
   0  -8  13 1788.93  659.12
   0   8 -13 1764.62  624.54
   0   8  13 2176.88  755.15
   0  -8 -13 2058.02  712.68
   0  -8 -13  631.75  649.82
   6   8   3   66.99   39.81
   6  -8   3   80.70   61.33
  -6  -8  -3   82.14   63.20
   6  -8  -3   79.95   54.39
  -6  -8   3   29.66  221.92
  -6   8  -3   91.57   78.86
  -6   8   3   83.48   70.42
  -6  -8  -3   27.49  164.60
   6   8  -3   75.21   51.10
   0  -7 -14    4.74   16.62
   0   7 -14    0.33    6.25
   0   7  14    0.60    5.47
   5  -1 -13   16.05   21.92
  -5   1  13   19.35   27.31
  -5  -1 -13   18.87   38.41
  -5  -1  13   16.58   25.35
  -5   1 -13   12.40   78.82
  -5  -1 -13   10.84   76.87
   5   1 -13   17.32   19.92
  -5   1 -13   18.99   23.84
   5   1  13   17.44   25.01
  -7   0   8  305.04  146.21
   7   0  -8  304.45  121.49
   7   0   8  331.08  149.49
  -7   0  -8  331.96  175.80
   7   4   6    5.86   18.68
  -7  -4   6  -17.31   50.39
  -7   4  -6    6.03   16.43
  -7  -4  -6    4.31   18.00
  -7   4   6    9.44   15.58
  -7   4   6    5.17   11.63
   7   4  -6    7.34   13.52
  -7   4  -6    6.28   18.02
  -1  12  -5   23.85   23.05
  -1 -12  -5   31.89   75.61
  -1  12  -5   20.26  108.55
   1  12  -5   20.44   95.87
   1 -12   5   21.30   18.28
  -1 -12   5   14.56   79.81
  -1 -12  -5   26.52   32.91
   1 -12  -5   25.21   31.30
   1  12  -5   25.34   28.92
   1  12   5   28.89   36.78
   1 -12  -5  331.08  173.66
  -1  12  -5   27.18   26.67
   3  -9 -10   65.39  141.73
   3  -9 -10  180.27   83.49
   3  -9  10  132.10   61.64
   3   9  10  182.06   76.91
  -3   9 -10  187.39  110.70
  -3  -9 -10  198.10  152.13
   3  -9 -10  176.87   80.76
  -3  -9  10  120.56  198.78
  -3   9  10  224.05  131.73
   3  -9  10  161.52   72.56
  -3  -9 -10   64.69  131.58
   3   9 -10  151.91   76.16
   3   9  10  177.56   73.70
  -6  -7  -6    0.89   26.68
  -6   7   6    2.80   11.40
   6   7  -6    1.92   13.11
   6  -7   6    1.47    9.81
  -6   7   6    2.37   10.26
   6  -7  -6    1.38    9.58
  -6   7  -6    1.99   14.05
  -6  -7  -6    4.52   13.66
  -7  -6  -1  410.53  110.77
  -7  -6   1    4.46  115.93
  -7   6  -1   16.22   30.32
   7  -6  -1   14.02   21.66
   7   6  -1   13.01   16.10
  -7   6   1   16.23   29.87
   7  -6   1   15.27   24.37
  -4  10   6    3.25   12.26
   4  10   6    3.91   10.03
  -4  10  -6   -0.97   74.14
  -4 -10   6    0.95   51.42
  -4  10   6    4.88   18.63
  -4 -10  -6    3.68   15.11
   4  10  -6    3.56   11.18
  -4 -10  -6    1.05   23.56
   4 -10  -6    3.67   10.85
   4 -10   6    3.44    9.43
   7  -3   7   43.70   28.97
   7   3  -7   47.37   39.16
   7   3   7   48.36   47.18
  -7   3  -7   42.81   45.14
   7  -3  -7   48.51   39.37
  -7   3   7   41.05   35.31
  -7  -3  -7   45.78   50.20
   6   1  11    3.30   11.59
  -6  -1  11    2.98   12.10
   6   1 -11    3.12    8.00
  -6   1  11    2.53   11.62
   6  -1  11    4.49   11.33
   6  -1 -11    2.21    9.63
  -6   1 -11    3.33   12.78
  -6  -1 -11    2.47   13.93
  -4   3 -14  146.22   90.21
  -4  -3  14  124.93   70.42
   4   3 -14  121.54   64.97
  -4  -3 -14  105.07  210.07
  -4  -3 -14  158.53   93.06
   4   3  14  141.93   77.33
  -4   3  14  149.73   92.46
   4  -3 -14  130.78   71.97
  -4   3 -14   98.08  252.88
  -4  -3  14   85.22  151.98
  -4   3 -14  130.42   63.80
  -5   4 -12   41.36   46.70
  -5  -4  12    7.60  133.64
   5  -4  12   35.45   30.56
  -5  -4 -12   29.83   89.56
   5   4 -12   32.94   24.37
   5   4  12   37.18   35.75
  -5   4 -12   22.61  101.73
   5  -4 -12   37.27   35.80
  -5   4  12   42.85   45.97
  -5   4 -12   34.54   30.98
  -5  -4 -12   44.67   49.88
   4  -8  10    2.18    5.28
  -4  -8 -10    1.29   11.57
  -4  -8  10    2.01   31.21
  -4   8 -10    1.17   10.77
  -4   8 -10   -1.82   36.69
   4   8  10    1.25    7.53
   4  -8 -10    2.28    5.38
   4  -8  10    0.73    5.18
  -4   8  10    2.71    7.87
   4   8 -10    1.01    6.81
  -4  -8 -10    0.34   13.14
   4  -8 -10   -1.14   12.95
  -4   8  10    1.54   11.98
   4 -11   0  191.54  107.43
  -4  11   0  206.39  119.76
   4 -11   0  123.47  241.13
  -4 -11   0  121.40  272.78
   4  11   0  195.36  109.51
  -7   1   8  433.24  196.55
   7  -1  -8  462.39  181.02
  -7   1  -8  486.11  230.02
  -7  -1   8  451.46  199.55
   7  -1   8  496.25  197.17
  -7  -1  -8  492.55  239.82
   7   1  -8  410.81  151.70
   0  -4 -16   10.20   13.68
   0  -4 -16   20.39   38.44
   0   4 -16    7.40   70.26
   0  -4  16   11.16   29.91
   0   4 -16   10.38   23.25
   4   5 -13   54.77   34.34
  -4  -5 -13   37.08   80.99
   4   5 -13   57.72   42.24
   4  -5 -13   66.54   44.72
  -4   5 -13   53.28   31.98
  -4  -5  13   43.25  117.93
  -4  -5 -13   71.22   83.14
  -4   5 -13   33.82  151.75
   4  -5  13   62.66   56.56
  -4   5 -13   67.80   59.21
  -4   5  13   72.15   61.12
   4   5  13   65.06   44.15
   4 -11  -1  331.70  163.62
  -4 -11  -1  116.76  337.36
   4  11  -1  321.70  158.80
   4 -11   1  315.69  154.84
  -4 -11   1  176.80  378.67
   4 -11  -1  160.30  314.28
   4  11   1  332.37  162.91
  -4  11  -1  168.23  374.83
  -4  11   1  337.77  169.58
  -4  11  -1  360.55  185.04
  -4  11   1  396.06  204.21
  -6  -5   9   22.60  210.04
   6   5   9   59.42   53.27
  -6   5   9   62.79   55.03
   6  -5   9   58.53   33.97
   6   5  -9   56.72   47.63
  -6   5  -9   51.61   48.49
  -6   5  -9   68.27   69.28
  -6  -5  -9   66.37   70.19
   6  -5  -9   64.99   51.61
  -7  -6  -2  142.53  166.98
   7  -6  -2   56.98   43.56
  -7   6   2   64.88   58.44
   7   6  -2   54.38   38.02
  -7   6  -2   73.07   64.23
   7  -6   2   63.04   54.30
  -1  -8 -13   91.92  189.49
   1   8 -13  235.97  110.30
   1   8  13  298.57  125.08
   1  -8 -13  178.65  212.25
  -1   8  13  312.90  150.82
  -8   0  -1    0.25    2.79
   0   9  12    0.70   32.37
   0   9 -12    0.01   28.84
   0  -9 -12  713.52  107.33
   1  -7  14  108.31   64.88
  -1  -7 -14   31.24  116.52
   1   7 -14   70.44   52.70
   1  -7 -14   25.45   95.50
  -1   7 -14   74.73   59.17
  -1   7  14   85.54   60.19
   1  -7 -14   73.54   37.73
  -1  -7 -14   79.40   55.82
   1   7  14   79.13   44.72
   1  -7 -14   75.70   44.39
  -2 -12   4   17.57  120.72
   2  12  -4   25.69  114.71
   2 -12   4   42.96   33.24
  -2 -12  -4   53.53   45.14
  -2 -12  -4   14.32   83.36
   2  12  -4   48.66   46.05
   2 -12  -4   25.08  139.30
  -2  12  -4   22.40  154.19
  -2  12   4   50.92   32.71
   2 -12  -4   50.27   44.43
  -2  12  -4   50.56   43.26
   2  12   4   53.54   49.87
  -2  12   4   51.10   50.55
   8   1   0    4.24    9.31
  -2   5 -15  450.99  677.62
  -2  -5 -15 1522.49  595.21
  -2   5 -15  680.28  296.77
   2   5 -15  647.23  259.34
   2   5 -15  378.76  484.89
   2  -5 -15  624.74  234.95
   2  -5 -15  328.55  356.85
   2  -5  15  653.04  269.51
   2   5 -15  577.02  212.85
  -2  -5 -15  660.00  271.03
  -2   5  15  667.13  277.84
  -5  10   0    1.14   11.94
   5  10   0    0.53    8.83
   5 -10   0   -0.16    9.98
   5 -10   0    4.98   22.26
  -5 -10   0   74.45   40.98
  -7   5   5  125.80   83.08
  -7  -5  -5  118.28  113.49
  -7  -5   5  688.14  343.39
  -7   5   5  105.82   64.59
   7   5  -5  117.74   68.81
  -7   5  -5  114.56   81.54
  -7   5  -5  146.32  107.11
  -5   2  13   76.59   61.22
  -5  -2 -13   51.24  133.17
   5   2 -13   64.99   41.52
  -5   2 -13   68.99   49.94
  -5   2 -13   51.45  163.64
   5   2  13   70.20   53.18
   5  -2 -13   70.33   49.35
  -5  -2 -13   79.09   62.98
   5  -2  13   69.86   50.88
  -6   6   8  286.77  145.09
  -6   6  -8  244.50  127.38
  -6   6  -8  312.56  194.29
  -6  -6   8   93.72  491.15
   6   6   8  282.31  146.93
  -6  -6  -8  302.55  185.13
  -6   6   8  284.83  157.38
   6  -6   8  229.17   91.33
   6   6  -8  267.79  129.05
   4 -11   2   83.94   59.18
   4 -11  -2   40.84  150.19
  -4  11  -2   51.48  194.05
  -4  11  -2   96.38   76.51
  -4  11   2  109.95   78.29
  -4 -11  -2   81.49   56.72
  -4 -11  -2   32.70  150.45
   4  11  -2   81.39   64.94
  -4  11   2   86.95   64.12
   4 -11  -2   82.15   79.23
  -5  -8  -8  246.11  165.42
   5  -8   8  201.23  103.16
  -5  -8   8   80.81  387.96
  -5   8  -8  140.51  334.47
  -5   8   8  251.48  129.57
   5  -8  -8  242.36  106.43
  -5   8  -8  272.52  165.10
   5   8  -8  222.43  115.12
   5   8   8  240.90  123.22
  -5   8   8  297.77  179.35
  -8   1  -1  192.78   94.31
  -8  -1  -1  182.76   88.50
   8   1   1  217.82   96.78
   5 -10  -1  166.06   94.79
   5 -10   1   72.21  170.29
  -5 -10   1   60.65  267.67
  -5  10   1  172.92  107.66
   5 -10   1  162.13   98.65
   5  10   1  154.82   82.50
   5 -10  -1   78.78  168.43
   0   6 -15  733.67  307.35
   0  -6 -15  726.42  274.88
   0  -6 -15  625.78  460.24
   0   6  15  753.98  286.79
   6   2  11    3.60   10.71
  -6   2  11    2.59   11.09
  -6  -2  11    1.91    9.92
   6   2 -11    2.15    6.32
  -6  -2 -11    2.26   18.70
   6  -2 -11    2.49    9.13
  -6   2 -11    2.01   10.66
   6  -4  10    7.86   12.89
  -6   4  10    7.22   18.92
  -6   4 -10    7.09   16.66
  -6  -4  10    1.98   66.55
   6   4  10    6.88   17.59
  -6  -4 -10    8.20   22.42
   6  -4 -10    7.27   17.45
   6   4 -10    6.91   16.84
  -6   4 -10   10.11   28.84
  -3 -11  -6    7.62   18.70
   3 -11  -6    3.89   31.42
  -3  11   6    5.30   12.06
   3  11   6    6.20   14.04
  -3  11   6    7.64   19.76
  -3  11  -6    2.32   52.49
   3 -11  -6    5.76   14.54
   3  11  -6    4.23   19.57
  -3 -11  -6    2.26   26.22
  -3 -11  -6    1.85   23.39
   3 -11   6    4.21   10.06
  -3  11  -6    8.45   17.97
  -3 -11   6    1.97   55.62
  -1  -4 -16 1360.28  572.13
  -1   4  16  580.29  238.15
   1   4 -16  423.88  592.72
   1   4 -16  630.44  277.25
   1  -4  16  654.00  283.50
   1  -4 -16 1355.63  544.22
  -1   4 -16  419.21  667.88
  -1   4 -16  651.06  293.17
   1  -4 -16  598.30  232.32
  -1  -4 -16  560.33  226.82
  -6   8   4  279.20  154.20
   6   8  -4  292.37  140.37
  -6   8  -4  347.54  198.22
  -6  -8   4  108.93  433.37
   6  -8  -4  309.07  141.62
  -6  -8  -4  292.38  180.40
  -6   8   4  327.92  170.08
   6  -8   4  292.83  148.55
  -6  -8  -4  105.25  308.44
   0 -12   6    0.73    9.18
   0  12  -6    0.61    6.24
   0  12  -6    0.31    3.91
   0 -12  -6    0.95    6.10
   0  12  -6   -0.39   19.91
   0 -12  -6    0.14   14.21
   0  12   6    1.11    6.91
  -8   0  -2  362.62  163.67
   8   0   2  359.48  143.58
   0   0 -17    0.32    6.90
   0   0  17    1.58    5.59
   0   0 -17    2.39   22.70
   7  -2   8   22.64   23.49
  -7  -2  -8   22.60   35.64
   7   2   8   24.73   31.16
  -7  -2   8   22.35   26.06
  -7   2  -8   21.02   33.03
   7  -2  -8   23.30   24.41
  -7   2   8   20.13   33.72
  -5   9   6   70.31   69.32
   5  -9  -6   56.34   41.80
  -5   9   6   56.91   50.24
  -5  -9   6   36.55  206.07
  -5   9  -6   34.74  170.61
  -5  -9  -6   54.51   62.29
  -5   9  -6   61.79   61.65
   5  -9   6   45.26   39.09
  -5  -9  -6   18.76  101.75
   5   9  -6   52.25   44.05
   5   9   6   49.42   30.42
  -2  -3 -16   22.32   75.49
   2   3 -16    7.10   55.60
  -2   3  16   13.21   17.02
   2   3  16   11.79   15.23
  -2  -3  16    9.17   12.82
  -2  -3  16   13.09   20.51
   2  -3 -16   38.88   79.19
  -2  -3 -16   11.61   15.48
  -2   3 -16    7.73   84.82
   2   3 -16   10.47   20.90
   2  -3  16   12.48   21.06
   2  -3 -16   10.95   17.39
  -2   3 -16   11.96   21.68
  -7   6  -3  310.74  179.14
  -7  -6  -3  243.09  130.95
   7   6  -3  250.85  117.37
   7  -6  -3  241.89  114.01
  -7  -6   3  109.53  357.05
   7  -6   3  287.41  150.21
  -7   6   3  281.05  153.84
   1  -9 -12  166.51   92.20
   1  -9 -12  175.94  179.65
  -1  -9  12  363.52  254.33
  -1   9 -12  145.62   90.57
  -1   9  12  185.35  107.39
   1  -9  12  141.07   83.49
   1   9 -12  131.81   72.57
  -1  -9 -12  125.48  172.29
  -1  -9 -12  172.47  104.97
   1   9 -12  132.61   61.80
   1   9 -12  104.80  275.73
   1   9  12  175.82   91.21
  -8   1  -2   83.77   52.57
  -8  -1  -2   77.16   48.69
   0  -1 -17    0.64    6.46
   0  -1 -17   38.49   24.57
   0   1  17    0.32    4.93
   0   1 -17    1.51   22.55
   0   1 -17    0.76   10.42
   0  -1  17    0.54    6.23
  -5 -10   2   93.32  276.97
   5 -10  -2   56.57  153.12
   5  10   2  127.67   71.96
  -5  10   2  140.23   93.31
   5  10  -2  127.85   82.64
   5 -10   2  124.02   80.33
  -5  10  -2   58.44  188.10
  -5  10  -2  150.49  105.60
   5 -10  -2  138.10   83.95
   8  -2   0   37.48   29.55
  -4  11  -3    3.62   61.97
   4  11   3   11.48   17.97
   4 -11  -3    8.07   18.46
  -4  11   3   10.73   23.85
  -4 -11  -3    7.04   17.24
  -4 -11  -3    3.52   59.98
  -4  11   3   10.33   19.40
  -4  11  -3   11.40   23.86
   4 -11  -3    3.62   49.57
   4 -11   3    8.55   16.75
   1  -6  15  160.80   96.83
   1  -6 -15   70.63  159.72
   1   6 -15  152.65   90.13
   1   6 -15   93.26  230.81
  -1   6 -15  162.63  125.43
  -1  -6 -15  297.05  204.00
   1  -6 -15  159.53   68.87
  -1  -6  15  158.89   95.91
  -1  -6 -15  159.11   82.86
  -1   6  15  168.04   88.01
  -3  12   0    0.18    4.09
  -3  12   0    0.32    3.97
  -3 -12   0    1.96   11.66
   3 -12   0    0.13    4.10
  -3 -12   0    0.16    9.52
   8  -2  -1   79.84   41.03
  -8  -2   1   25.57   86.31
   3   4 -15   72.23   51.58
   3  -4  15   72.28   55.25
  -3   4  15   83.48   78.60
  -3   4 -15   75.12   59.17
   3  -4 -15   70.88   48.39
  -3  -4  15   51.58  117.12
  -3  -4 -15   79.16   57.90
  -3  -4 -15  274.13  201.52
   3   4  15   76.56   59.34
   3  -4 -15   51.01   84.14
  -3   4 -15  164.49  228.62
  -1  12   6   10.16   21.96
  -1  12  -6    7.76   64.21
   1  12  -6    7.88   16.23
  -1 -12  -6    9.16   20.79
  -1  12  -6    9.26   15.83
   1 -12  -6   26.68   55.38
   1 -12   6    4.53   23.86
  -1 -12  -6    3.88   42.47
  -1  12  -6    9.84   12.39
   1  12  -6    5.10   55.90
   1  12   6    8.59   20.40
   1 -12  -6    9.83   19.55
   2  10 -10  135.41   61.25
   2 -10  10  152.17   74.51
   2  10  10  177.05   84.68
  -2 -10 -10   62.20  144.92
  -2  10 -10  172.80   98.22
  -2  10  10  201.35  120.30
  -2 -10  10  110.03  177.69
   2  10 -10  145.12   71.32
   2 -10 -10  179.01   88.28
   2 -10 -10   69.49  231.15
   2  10 -10   91.45  232.03
   2 -10 -10  157.55   67.27
   0 -11  -9   -0.36    6.87
   0  11  -9    0.31    3.58
   0 -11   9    2.48   11.16
   0  11  -9    0.94    4.69
   0 -11  -9    0.61   14.33
   0  11   9    1.99    6.78
   1   0 -17  240.19   63.71
  -1   0 -17    0.15   16.02
   1   0 -17    0.98   17.40
  -1   0 -17  249.38   75.97
   1   0  17    0.34   14.68
  -3 -12  -1   21.84   21.71
   3  12   1   21.97   44.57
  -3  12   1   26.26   29.41
  -3  12   1   23.25   26.78
  -3 -12   1    8.21   59.03
  -3 -12  -1    6.57   44.30
   3 -12   1   22.12   26.22
   3  12  -1   21.74   31.23
  -3 -12   1   13.45   73.96
  -3  12  -1   25.84   32.07
  -3  12  -1   24.13   25.57
  -3 -12  -1   15.28   66.38
   3 -12  -1   22.69   28.22
  -8   0  -3   -0.24    2.48
   8   0   3    0.03    1.92
   2 -11   8    7.59   21.87
  -2  11   8    9.29   32.40
   2  11  -8    7.38   19.75
  -2  11  -8    9.43   25.75
   2  11  -8    5.34   60.74
  -2 -11  -8   94.30   76.35
   2  11   8   11.35   22.88
   2 -11  -8  398.73   76.49
  -2 -11   8    5.74   56.50
   2 -11  -8    9.12   23.64
   4  -9  -9    3.29   24.50
  -4  -9   9    3.35   64.23
  -4   9   9    9.95   24.25
   4   9   9    7.94   13.28
   4  -9   9    4.74   10.50
  -4  -9  -9    1.88   22.09
   4  -9   9    6.13   12.05
   4  -9  -9    9.09   18.32
  -4   9  -9   10.65   21.50
   4   9  -9    5.98   12.89
  -4  -9  -9    7.89   22.06
  -4   9   9    7.62   15.23
  -3  -7 -13  468.88  215.05
   3  -7 -13  153.07  206.75
  -3   7 -13  440.43  205.81
   3   7 -13  358.76  139.57
   3   7 -13  351.03  139.45
   3  -7  13  391.33  160.58
  -3  -7 -13  203.67  277.81
  -3   7  13  481.36  222.71
   3   7  13  415.09  151.40
  -3  -7  13  258.36  296.48
   3  -7 -13  396.84  153.60
   1   1 -17   53.00  227.36
  -1  -1 -17  677.94  273.53
   1  -1 -17   73.87  182.25
  -1   1 -17   60.38  207.69
   1  -1  17   88.38   58.49
  -1  -1  17   85.60   54.02
   1   1 -17   86.36   63.59
  -1  -1 -17   89.80   55.81
  -1   1 -17   89.39   62.72
   1  -1 -17   85.47   58.27
   1   1  17   86.52   50.92
  -7   4  -7    9.19   18.68
  -7  -4  -7    6.91   29.97
   7  -4   7    7.10    9.79
  -7   4   7    7.79   14.53
   7   4  -7    7.71   16.19
  -7  -4   7   -0.48   50.97
   7   4   7    6.77   20.82
  -7   4   7    9.44   17.45
  -7   4  -7    9.20   21.22
   6  -7  -7   50.30   33.33
  -6  -7   7   29.98  322.71
   6   7  -7   53.38   44.63
   6  -7   7   50.93   46.70
  -6   7   7   59.45   55.69
  -6  -7  -7   58.00   67.73
   6   7   7   59.50   54.68
  -6   7  -7   63.60   67.10
  -6   7   7   56.86   52.15
   4  -4  14    0.47    7.40
  -4  -4 -14    0.92   23.74
  -4  -4  14    0.12    6.53
   4   4  14    1.36    6.99
   4  -4 -14    0.93    7.09
  -4   4 -14    0.88    4.86
  -4   4 -14  108.49   38.81
  -4   4 -14    0.93    8.47
  -4  -4  14    0.54   18.76
   4   4 -14    0.94    5.70
  -4   4  14    1.76    9.12
  -4  -4 -14    1.88    9.33
  -5   6  11  115.60   86.43
  -5  -6 -11  114.22   91.90
   5  -6  11   88.49   47.59
  -5  -6  11   32.21  247.46
  -5   6 -11  116.48   91.69
   5  -6 -11  104.76   67.69
   5   6 -11   93.92   61.91
   5   6  11   92.92   58.68
   2 -12  -5  376.03  170.48
   2  12  -5  341.00  159.51
   2  12   5  399.40  180.47
  -2  12  -5  388.91  174.25
  -2 -12  -5  126.24  245.54
  -2 -12  -5  397.28  184.81
  -2 -12   5  120.80  362.67
  -2  12  -5  203.64  431.46
   2 -12  -5  147.58  388.62
   2  12  -5  207.14  351.77
   2 -12   5  313.35  129.18
  -2  12   5  387.52  189.74
  -8   1  -3    4.77   16.86
  -8  -1  -3   13.33   17.64
   4 -10   7  439.20  178.66
  -4  10   7  558.91  222.44
   4 -10  -7  533.94  208.27
  -4 -10  -7  567.65  279.12
  -4  10   7  663.86  323.30
  -4 -10  -7  144.37  256.18
  -4  10  -7  584.91  277.31
  -4 -10   7  179.43  547.64
   4 -10  -7  213.18  280.49
   4  10   7  568.05  213.13
   4  10  -7  445.82  186.74
   5 -10  -3   81.32   59.10
  -5  10  -3   83.89   76.74
   5 -10  -3   35.53  110.85
   5  10   3   71.16   46.59
  -5 -10  -3   72.44   58.19
   5  10  -3   69.30   53.83
  -5 -10   3   25.69  203.46
  -5  10   3   78.14   64.32
   5 -10   3   64.78   51.88
  -5  10  -3   26.60  144.17
  -5  10   3   88.85   72.98
  -5 -10  -3   22.01  138.51
   8   2   2  114.26   63.47
  -8   2  -2   96.88   59.12
  -8  -2  -2   89.71   52.10
  -8  -2   2   21.36   92.46
   0   2 -17   72.68   57.38
   0   2 -17   43.94  170.07
   0  -2 -17   69.86  155.83
   0  -2  17   72.06   51.30
   0  -2 -17   65.98   45.61
   3   0 -16   90.32   81.50
   3   0 -16   51.80  123.55
  -3   0 -16  226.73  230.12
  -3   0 -16   82.33   45.19
  -3   0  16   84.62   65.32
   3   0  16   90.81   61.43
  -5   3 -13  164.80  109.78
   5  -3 -13  167.35   88.43
  -5  -3  13  153.82   84.64
  -5   3  13  184.49  110.65
   5  -3  13  162.57   84.12
  -5   3 -13  104.66  235.12
  -5  -3 -13  122.75  208.65
   5   3 -13  158.45   74.03
   5   3  13  168.36   92.00
  -5  -3 -13  181.30  111.87
   4   0 -15    0.18    5.18
  -4   0 -15    2.12    5.21
  -4   0 -15    0.07   23.60
   4   0  15    0.08    6.52
  -4   0  15   -0.31    8.08
   3   8 -12   18.44   27.31
  -3   8  12   26.00   36.78
   3   8  12   21.65   17.56
   3  -8 -12   21.14   20.11
   3  -8 -12   20.76   17.15
   3  -8  12   19.73   22.54
  -3  -8 -12   26.08   34.69
  -3  -8 -12   11.54   54.12
  -3  -8  12   23.04   63.34
   3   8 -12   18.00   16.36
   0  10 -11    8.34   15.15
   0 -10  11    8.26   18.35
   0 -10 -11    9.24   21.20
   0 -10 -11    5.19   37.84
   0  10  11    8.62   20.36
  -3 -10  -9   42.69  109.63
   3  10  -9  107.50   61.32
  -3  10   9  151.32  104.26
   3 -10   9   93.29   48.07
  -3  10  -9  128.25   87.19
   3 -10  -9   45.75  127.01
  -3 -10   9   98.11  180.56
   3 -10   9  105.88   53.13
  -3  10   9  130.44   63.12
   3  10   9  131.97   64.29
   3 -10  -9  125.15   66.59
   0 -13   0    4.46    8.79
   0  13   0    0.24   13.40
   3 -12  -2    0.61    4.84
   3  12   2    0.50    5.50
  -3  12   2    0.43    4.43
  -3 -12  -2    0.13    8.27
  -3 -12  -2   -1.47   11.20
   3  12  -2    0.07    5.64
   3 -12   2    0.49    6.33
  -3 -12  -2    0.67    3.99
  -3  12   2    0.57    5.15
  -3  12  -2    0.00    5.44
  -3 -12   2    1.78   20.82
  -3 -12   2    0.54   10.29
  -6  -3  11   86.44   65.45
  -6   3 -11   89.41   64.17
   6  -3 -11   98.26   63.76
   6   3  11   94.39   67.84
  -6  -3 -11  105.54   84.71
  -6   3  11   99.35   72.76
   5  -7  10   21.64   24.89
  -5   7  10   32.70   41.92
  -5  -7  10    6.64  125.88
  -5  -7 -10   30.92   42.74
   5   7 -10   24.16   27.69
  -5   7 -10   33.41   42.59
  -5   7 -10   11.61  107.47
   5   7  10   25.78   27.31
   5  -7  10   22.37   18.42
   7  -6   4  619.33  275.22
  -7  -6  -4  562.56  284.82
   7  -6  -4  541.91  217.06
  -7  -6   4  367.85  645.34
  -7   6   4  631.27  285.54
  -7  -6  -4  221.29  458.73
   7   6  -4  580.02  235.95
  -7   6  -4  709.33  358.26
   6  -8  -5  137.88   74.80
  -6   8  -5  150.94  111.77
   6  -8   5  127.51   83.71
  -6   8   5  131.36   90.37
  -6  -8  -5  133.15  108.31
  -6  -8   5   42.67  300.64
   6   8  -5  129.94   76.96
  -6  -8  -5   44.32  191.61
  -6   8   5  141.17   94.36
   0  13  -1    0.68    8.76
   0 -13  -1    0.91    6.58
   0 -13   1    2.11    5.40
   0  13   1    0.25    9.66
   3  -1 -16   52.35   41.91
  -3   1 -16   42.65  172.00
  -3  -1  16   48.70   35.65
  -3   1  16   53.37   39.42
  -3   1 -16   46.26   29.54
   3   1 -16   52.86   45.07
  -3  -1 -16  103.00  157.81
  -3  -1 -16   52.23   35.05
   3  -1 -16   37.28   93.15
  -3   1 -16   49.55   38.04
   3   1  16   57.44   42.02
  -1 -11  -9    8.78   57.45
   1  11   9   21.44   25.99
   1  11  -9   15.74   16.74
   1 -11  -9   10.01   62.85
   1 -11  -9   19.00   25.99
  -1 -11   9   16.18   51.24
   1  11  -9   16.67   18.53
  -1  11  -9   18.06   23.97
  -7   3  -8   43.83   47.23
   7  -3  -8   49.67   41.66
   7   3  -8   47.15   40.14
  -7   3   8   41.86   37.70
  -7  -3  -8   48.67   53.82
   7  -3   8   43.94   40.06
   7   3   8   45.84   47.34
  -4   1 -15   32.91  132.81
   4   1 -15   30.87   30.08
   4  -1 -15   32.94   31.86
  -4  -1 -15   36.94   46.18
   4  -1  15   37.23   36.58
  -4  -1 -15  150.48  138.11
  -4  -1  15   33.77   32.61
  -4   1  15   37.35   36.58
  -4   1 -15   34.49   29.13
  -7  -5  -6  343.39  200.80
   7   5  -6  337.71  156.98
  -7   5   6  352.49  178.28
   7   5   6  358.60  190.72
  -7   5   6  304.31  153.79
  -7   5  -6  324.55  169.06
  -7  -5   6  125.54  413.41
  -7   5  -6  419.09  237.54
  -7   0  -9    1.07    6.75
   7   0   9    0.08    5.47
   7   0  -9    1.30    5.10
  -7   0   9   -0.14    4.97
   2  -8  13   95.46   60.77
   2   8 -13   87.31   45.95
  -2  -8 -13   38.37  149.64
  -2  -8  13   66.66  129.78
   2   8 -13   51.88  176.34
   2  -8 -13  270.63  143.42
  -2   8  13  118.16  111.15
  -2  -8 -13  111.34   77.83
   2  -8 -13  103.49   53.99
   2   8 -13   90.13   52.43
  -2   8 -13   98.85   72.91
   2  -8 -13   98.15   48.96
   5   5 -12  205.62  106.95
  -5  -5 -12  254.94  155.37
  -5   5  12  271.55  185.66
   5  -5 -12  224.75  114.30
  -5   5 -12  250.98  158.35
  -5  -5  12   30.61  345.11
  -5   5 -12  199.41   97.11
  -3  -6  14   65.71   86.17
  -3  -6 -14   77.11   75.45
   3   6 -14   33.44   28.72
   3  -6  14   32.80   32.99
   3  -6 -14   30.78   38.24
   3   6 -14   28.67   25.11
  -3  -6 -14   36.64   41.73
  -3   6  14   38.46   42.53
  -3   6 -14   35.12   41.52
   3  -6 -14   17.02   57.06
   3   6  14   34.01   25.62
   4  11  -4    2.41    8.17
  -4  11   4    1.08    9.57
  -4 -11   4   -1.25   32.79
   4 -11   4    0.56    6.39
  -4  11  -4    0.37   25.61
  -4  11   4    0.76    7.39
  -4  11  -4    0.64    9.92
   4 -11  -4    1.08   19.94
   4 -11  -4    1.81    7.47
   4  11   4    0.96    6.93
  -4 -11  -4    1.29    7.49
   2  -7 -14   68.22  198.98
   2   7 -14  145.53   75.79
   2  -7 -14  142.51   62.73
   2  -7  14  152.83   82.90
  -2  -7 -14  170.95   96.51
  -2   7  14  186.01  103.74
   2   7 -14   75.80  183.41
   2   7 -14  140.33   62.24
  -2  -7 -14   79.46  169.95
   2  -7 -14  159.79   69.64
   0  -5 -16   -0.12   17.32
   0   5  16    0.85    5.13
   0   5 -16    0.63    9.77
   0   5 -16   95.84   36.99
   0  -5  16    0.55    9.59
  -1  -2  17  487.43  212.47
   1   2 -17  324.59  484.30
  -1   2 -17  340.28  547.45
  -1  -2 -17  480.39  192.27
  -1   2  17  379.77  153.23
  -1  -2 -17  342.11  527.12
   1  -2  17  495.20  214.09
  -1   2 -17  501.16  220.98
   1   2  17  459.01  180.36
   1  -2 -17  738.49  553.45
   1   2 -17  481.49  211.21
   1  -2 -17  464.42  193.16
   0 -13  -2    0.28    8.94
   0  13   2    0.08   12.94
   0  13  -2    0.75   10.51
   0 -13   2    4.38    6.06
  -8  -3   0   15.86   74.06
   8  -3   0   35.55   29.30
  -8   3   0   34.68   26.89
  -7   1  -9    9.03   21.17
  -7  -1   9    8.06   16.51
   7  -1   9    8.02   16.83
  -7   1   9    9.60   16.35
   7  -1  -9    7.65   13.91
   7   1   9   10.49   19.61
  -7  -1  -9   10.79   22.62
   7   1  -9    8.20   10.81
  -8   0  -4  355.72  177.83
   8   0   4  373.05  155.35
  -8  -2  -3   13.95   21.38
  -8   2  -3   16.02   24.63
   8   2   3   17.95   24.91
  -8   2   3   22.18   17.74
   1  10 -11   49.42   34.57
  -1 -10 -11   21.54   90.35
  -1  10  11   70.40   58.46
   1  10 -11   50.07   38.89
  -1  10 -11   56.10   46.54
   1  10  11   66.64   63.60
  -1 -10  11   32.39   93.21
   1  10  11   61.60   59.25
   1 -10 -11   60.77   45.99
   1 -10 -11   21.38   95.41
  -1 -13   0    0.09    4.61
  -1 -13   0   25.11   21.96
   1 -13   0    0.12    5.74
  -1  13   0    0.11   10.41
   1  13   0    2.11    7.99
   4   7 -12   32.55   29.00
  -4  -7 -12   16.92   58.12
  -4  -7 -12   39.90   47.89
   4   7 -12   32.38   21.84
   4  -7 -12   38.46   32.32
   4  -7 -12   10.66   43.72
  -4  -7  12   26.14   87.61
  -4   7  12   45.33   48.29
   4   7  12   37.48   38.19
   4  -7  12   34.92   27.39
  -4   7 -12   39.39   44.11
   4  -7  12   29.67   23.07
  -3 -11  -7    9.71   17.60
   3 -11  -7   53.49   31.88
   3  11   7    3.56   12.52
  -3  11   7    3.65   10.29
  -3 -11   7   -0.51   49.69
  -3  11   7    4.08   17.79
   3 -11   7    2.33    8.22
   3  11  -7    2.99   11.98
  -3  11  -7    2.89   16.40
  -3 -11  -7    0.59   23.12
   3 -11  -7    3.22   12.91
  -8   3   1    1.21    6.33
  -8  -3   1   -0.01   19.64
   8  -3  -1    2.89    6.15
  -8  -3  -1    2.35   20.68
   8  -3   1    1.87    7.93
   0  12  -7  407.01  567.39
   0 -12  -7  261.14  396.03
   0  12  -7  620.38  231.69
   0 -12   7  408.74  342.27
   0 -12  -7  705.60  282.11
   0  12  -7  620.81  232.79
  -3 -12  -3   20.22   80.61
  -3  12   3   72.25   57.98
  -3  12   3   69.72   47.02
  -3 -12  -3   15.66   85.45
   3  12   3   70.21   56.33
   3 -12  -3   67.96   52.27
  -3 -12   3   24.65  168.05
  -3  12  -3   75.33   57.57
   3 -12   3   62.87   45.67
  -3  12  -3   35.20  180.03
  -3 -12  -3   68.17   48.54
   3  12  -3   66.23   54.82
  -2  -4  16   32.46   36.10
   2  -4 -16   28.56   27.55
   2   4 -16   16.26   88.63
   2  -4  16   30.70   35.05
   2  -4 -16   67.51   62.62
  -2   4 -16   32.48   36.42
   2   4 -16   28.06   34.25
  -2   4 -16   48.59  143.25
   2   4  16   30.62   22.99
  -2   4  16   31.64   29.40
  -2  -4 -16   71.98  102.08
   2   4 -16   26.80   21.29
   1 -13   1  188.08   94.05
   1  13   1  211.95  121.35
  -1 -13   1   85.28  234.40
   1 -13  -1  200.39  101.17
  -1 -13  -1   86.30  254.54
   1  13  -1  206.23  116.87
  -1  13  -1  207.66  109.86
  -1  13   1  211.94  115.20
  -1 -13   1  172.44   79.54
  -1 -13  -1  185.86   91.32
   6   9   0   21.00   24.43
  -6   9   0   27.26   38.82
   6  -9   0   22.10   29.68
   5  -9  -7   11.43   16.19
  -5  -9  -7   10.75   27.00
  -5   9   7   14.89   29.95
  -5   9  -7   11.70   27.60
  -5  -9   7    8.90   93.78
  -5  -9  -7    2.05   42.31
   5   9  -7    9.21   19.00
   5  -9   7    7.50   15.23
  -5   9   7   11.84   21.39
  -5   9  -7    2.71   75.04
   8  -1   4   46.34   30.23
  -8  -1  -4   46.53   42.56
   8   1   4   53.28   38.91
  -8   1  -4   49.12   43.78
   5 -10  -4  202.96  104.90
   5  10   4  186.77   87.85
   5  10  -4  184.35   99.04
  -5  10   4  239.30  177.41
  -5 -10  -4   86.73  215.53
  -5 -10  -4  181.96  116.49
  -5  10   4  202.57  114.15
  -5  10  -4   94.47  238.52
   5 -10  -4   63.47  133.84
  -5  10  -4  223.51  137.56
   5 -10   4  170.86   92.79
  -3   2  16   59.79   46.29
  -3   2 -16   44.20  187.67
   3  -2 -16  145.85  124.97
  -3  -2  16   53.44   37.41
   3   2 -16   58.31   48.32
  -3   2 -16   58.77   45.49
  -3  -2 -16   40.24  161.46
   3  -2  16   62.80   49.66
   3  -2 -16   57.00   44.91
  -4  -2 -15  211.57  352.52
  -4  -2 -15  300.00  141.59
  -4   2  15  309.25  150.40
   4  -2 -15  269.67  125.49
  -4  -2  15  273.17  128.23
  -4   2 -15  276.64  120.08
  -4   2 -15  279.74  146.46
   4   2 -15  265.56  119.63
  -4   2 -15  226.12  416.21
  -3   9 -11    0.05   22.32
   3  -9  11    0.07    3.67
   3  -9 -11    0.41    8.94
  -3  -9  11    1.65   12.56
   3  -9 -11    0.83    3.47
   3   9 -11    0.22    2.55
  -3   9  11    0.81    7.35
   3  -9 -11    0.45    3.61
  -3  -9 -11    0.70    6.69
  -3   9 -11    0.39    5.74
  -3  -9 -11   -0.14    8.63
   3   9 -11    0.47    3.68
   4  -6  13  233.98  108.52
  -4  -6  13  167.16  255.91
  -4   6  13  283.27  157.21
   4   6 -13  216.55  103.98
  -4   6 -13  196.76   85.33
   4   6  13  252.78  113.63
  -4  -6 -13  279.99  154.55
   4  -6 -13  251.76  116.32
  -4   6 -13  267.42  152.78
  -4  -6 -13  587.57  263.03
   4   6 -13  213.69  106.66
   6  -9  -1    3.96   18.07
  -6   9  -1    5.63   23.47
  -6   9   1    5.57   23.07
   6  -9   1    4.35   17.65
  -6  -9  -1    2.31   93.99
   6   9  -1    5.81   15.22
   6   9   1    5.74   13.62
  -6  -9   1  568.68   97.64
   2   9 -12    3.97   59.37
   2   9  12   11.33   15.28
   2  -9 -12    9.51   11.85
   2  -9 -12   10.12   15.71
   2   9 -12    9.43   13.04
   2   9 -12    9.03   12.72
  -2   9  12   12.41   26.70
  -2   9 -12    8.66   22.16
  -2  -9  12   10.14   45.27
   2  -9 -12   49.74   41.74
  -2  -9 -12    5.12   37.46
  -7  -7   0  562.53  107.27
   7  -7   0    0.14   20.45
  -7   7   0   -0.10   27.92
  -6  -5  10    3.57  108.05
   6   5  10   13.43   24.03
  -6   5 -10   10.91   21.37
  -6  -5 -10   15.44   29.17
  -6   5 -10   15.19   31.40
   6  -5  10   12.68   15.54
  -6   5  10   14.46   27.03
   6  -5 -10   15.63   23.74
   6   5 -10   13.80   21.34
   6   0  12  684.88  284.53
   6   0 -12  668.96  256.68
  -6   0  12  653.13  294.39
  -6   0 -12  709.88  325.25
   1  -5 -16  134.87   67.12
  -1   5  16  136.52   74.99
   1   5 -16  225.15  325.82
  -1  -5 -16  311.70  189.63
  -1  -5 -16  133.77   71.67
  -1   5 -16  795.65  379.10
   1   5 -16  138.69   90.02
  -1   5 -16  145.16   97.97
   1  -5 -16  277.57  180.60
   1  -5  16  143.42   91.80
  -6   6   9    4.48   13.15
   6   6  -9    2.71   11.36
   6   6   9    4.93   12.66
   6  -6   9    2.48    6.63
  -6   6  -9    2.34   11.00
  -6  -6  -9    7.69   17.35
  -6   6   9    3.44   20.68
  -6  -6   9   -2.58   64.65
  -6   6  -9    3.40   17.35
  -4  -8 -11   23.79   72.91
   4  -8 -11   61.31   44.10
  -4   8 -11   30.39  181.71
   4  -8 -11   56.89   33.77
   4  -8 -11   45.43   71.44
  -4  -8 -11   64.64   64.23
  -4   8 -11   62.38   58.62
   4   8  11   60.37   39.19
   4  -8  11   44.97   31.64
   4   8 -11   49.44   38.54
   4  -8  11   53.73   34.37
  -4   8  11  115.19   74.83
  -5   8  -9  220.21  426.18
  -5  -8   9  104.08  456.87
   5  -8   9  283.53  110.81
  -5   8   9  372.26  168.13
  -5   8   9  424.62  229.15
   5   8   9  338.82  154.42
  -5   8  -9  400.45  217.61
  -5  -8  -9  369.95  213.95
   5  -8   9  287.32  130.98
   5  -8  -9  347.17  138.94
  -8   3   2    9.18   12.67
  -8  -3   2    0.60   36.34
   0  -3 -17   -0.07   22.11
   0   3 -17    0.75   25.89
   0   3 -17    1.14    7.98
   0  -3  17    1.96   10.03
   0  -3 -17    0.88    5.11
  -1 -13   2   -2.62   37.04
   1 -13  -2    3.31   11.50
   1  13   2    4.16   15.76
   1  13  -2    3.50   13.58
  -1  13   2    3.31   13.98
  -1 -13  -2   -1.22   41.85
   1 -13   2    4.24    8.83
  -1 -13  -2    4.77   10.75
  -1  13  -2    3.87   11.60
  -7  -7   1  205.13  703.98
  -7   7  -1  524.16  268.69
   7   7  -1  426.79  178.46
   7  -7  -1  476.47  207.84
  -7  -7  -1  175.26  475.05
   7  -7   1  485.81  218.00
  -7   7   1  495.02  251.51
   0  13  -3    0.39    5.35
   0 -13   3    0.41    2.99
   0  13   3    0.02    9.75
   0 -13  -3    1.30    5.41
   2   6 -15    0.49    4.10
   2  -6  15    1.99    7.02
   2  -6 -15    1.07   13.10
  -2  -6 -15   -0.14   15.33
  -2   6 -15    1.15    7.88
   2   6 -15    1.25    6.47
  -2   6  15    1.25    7.12
   2  -6 -15    0.99    4.89
  -2  -6 -15    0.74    6.80
   2   6 -15    1.18   16.34
   6  -1 -12  181.45   91.65
  -6   1  12  183.58  136.18
   6   1  12  182.80  103.16
   6   1 -12  171.75   81.25
  -6  -1 -12  190.51  120.17
  -6  -1  12  166.41  102.05
  -6   1 -12  188.16  110.68
  -7  -2   9  379.13  178.42
   7  -2  -9  408.95  173.33
  -7  -2  -9  419.90  222.65
   7  -2   9  400.97  167.24
  -7   2   9  353.00  197.22
  -1  12   7   10.76   25.05
  -1 -12  -7    6.28   46.10
  -1 -12  -7   15.44   24.38
   1 -12  -7   10.40   21.06
   1  12  -7   10.11   16.10
   1  12   7   12.62   22.10
   1 -12   7    4.54   28.24
  -1 -12   7   10.67   39.13
   1 -12  -7    5.96   53.14
   1  12  -7    6.03   60.05
  -1  12  -7   11.56   17.30
  -1  12  -7    6.97   66.91
  -7  -6   5  213.54  383.74
   7   6  -5  222.26  111.81
  -7   6  -5  284.01  178.69
  -7  -6  -5  222.83  141.33
  -7  -6  -5   81.09  255.02
   7  -6   5  226.92  128.50
   7  -6  -5  198.45   91.39
  -7   6   5  241.76  132.64
  -6  -9   2   -2.56   38.89
   6  -9  -2    1.73    8.79
   6   9   2    1.98    6.22
  -6  -9  -2   -2.11   31.86
   6   9  -2    1.31    7.79
  -6   9  -2    2.81   12.17
   6  -9   2    1.00    8.96
  -6   9   2    1.98   11.39
  -2 -12  -6   13.55   69.59
   2  12  -6   19.18   90.86
   2  12  -6   26.57   32.94
  -2 -12   6    6.94  109.26
   2 -12  -6  545.82  129.15
   2 -12   6   24.43   21.85
  -2  12  -6   32.33   37.01
  -2  12  -6   16.72  125.49
  -2 -12  -6   32.69   42.18
   2 -12  -6   31.04   36.09
   2  12   6   34.38   39.38
  -2  12   6   35.16   43.26
   2   0 -17  450.04   97.94
   2   0 -17   -0.02   25.10
  -2   0 -17   -0.20   19.21
  -2   0 -17  557.65  128.38
   5   0 -14    9.99   16.33
  -5   0  14    8.43   19.40
  -5   0 -14    9.87   19.16
  -5   0 -14    3.88   69.28
   8  -2  -4    0.71    3.70
  -8   2  -4    0.38    5.90
  -8  -2  -4    0.66    5.45
  -7   7   2    6.91   19.68
   7  -7   2    7.22   16.63
  -7   7  -2    6.52   21.79
   7  -7  -2    6.92   13.80
   7   7  -2    5.27   11.69
  -7  -7  -2    1.68   53.16
   0   8 -14   57.40   47.08
   0  -8 -14   60.66   46.17
   0   8  14   68.26   48.77
   0  -8 -14   21.34   78.70
   0  -8  14   57.73   49.88
  -5  -4  13   -0.02   18.97
  -5   4 -13   -0.24    4.17
   5  -4 -13   -0.00    4.94
  -5   4 -13    0.37   15.26
   5   4  13    0.48    4.94
  -5   4 -13    1.40    5.88
   5   4 -13    0.29    3.44
  -5  -4 -13    0.18   12.67
  -5   4  13    0.74    6.48
  -5  -4 -13    2.30    6.95
  -2  -1  17  141.22   66.86
  -2   1 -17  135.22  313.90
   2  -1 -17  116.96  214.69
   2  -1 -17  180.41   93.23
   2   1 -17  130.20  234.60
  -2   1 -17  181.20   92.90
  -2   1  17  161.71   77.24
   2  -1  17  184.68   94.30
  -2  -1 -17  141.50  288.06
   2   1 -17  177.57   96.46
  -2  -1 -17  175.86   82.81
  -6  -8  -6  103.62   97.21
  -6   8   6  110.99   79.66
  -6  -8  -6   36.60  163.56
   6  -8  -6  103.93   58.06
   6  -8   6  100.35   69.81
  -6   8   6  113.19   84.66
  -6   8  -6  124.02   98.73
   6   8  -6  104.90   67.40
   4 -11  -5   14.40   23.24
   4 -11  -5   80.68   53.74
  -4 -11   5    5.40  101.45
   4  11   5   17.50   22.44
   4 -11   5   10.03   19.93
  -4 -11  -5    6.92   46.73
  -4 -11  -5   12.96   25.74
  -4  11   5   15.11   32.57
  -4  11  -5    7.79   79.53
  -4  11  -5   14.17   32.59
  -3 -12  -4    6.35   42.63
  -3 -12  -4    7.24   41.87
  -3  12   4   17.35   21.02
   3  12  -4   15.40   25.20
  -3 -12  -4   15.60   24.01
   3 -12  -4    9.87   76.15
   3 -12  -4   15.78   25.48
   3  12   4   20.76   27.09
   3 -12   4   14.66   19.97
  -3 -12   4    6.93   90.76
  -3  12  -4   18.65   27.95
  -3  12  -4    8.67   91.10
  -3  12   4   21.19   29.66
  -3   5  15    1.20    9.48
  -3   5 -15    1.21    9.47
   3   5 -15    0.98    7.51
  -3   5 -15    1.00   31.48
   3   5  15    1.96    6.10
   3   5 -15    1.00    5.70
  -3  -5 -15    4.57   18.06
   3  -5  15    1.10    8.02
   3  -5 -15    0.84   13.47
   3  -5 -15    1.24    6.91
  -3  -5  15   20.18   21.86
  -5  -1 -14  252.01  131.64
  -5  -1 -14  186.26  353.54
   5  -1 -14  231.63  111.32
  -5   1 -14  231.55  374.53
  -5   1 -14  245.00  121.31
  -5  -1  14  223.83  118.50
   5   1 -14  225.68  103.98
  -5   1  14  244.01  133.49
   1   3 -17   20.95  113.45
  -1  -3  17   36.46   33.84
  -1  -3 -17   92.10  133.88
   1  -3  17   34.25   36.87
  -1   3  17   27.95   23.10
   1  -3 -17  112.48  112.66
  -1   3 -17   22.83  138.81
  -1   3 -17   35.89   39.25
   1   3 -17   35.75   39.20
   1  -3 -17   32.76   29.52
  -6  -4 -11   61.74   62.67
  -6   4 -11   59.02   78.37
  -6   4 -11   55.57   45.76
   6  -4 -11   59.66   47.72
   6   4 -11   48.35   27.36
  -6   4  11   62.16   55.15
   6   4 -11   51.60   45.75
   6  -4  11   57.84   38.70
  -8  -3   3   15.45   89.68
  -8  -3  -3   55.06   41.39
   8   3   3   70.06   54.63
   8   0   5    0.87    5.31
   1  13   3    8.63   24.62
   1 -13  -3    9.22   18.53
  -1 -13   3    2.81   45.63
  -1 -13  -3    5.87   85.53
   1 -13   3    7.89   12.88
  -1  13  -3   14.91   14.24
  -1 -13  -3   10.10   17.73
  -1  13  -3    9.15   16.79
  -1  13   3    9.89   22.88
   1  13  -3    8.73   19.46
  -7  -4  -8   38.79   64.96
   7   4  -8   34.23   34.69
  -7  -4   8    9.46   99.33
   7  -4  -8   36.55   36.95
  -7   4  -8   31.60   38.99
  -7   4   8   31.30   33.27
   7   4   8   34.71   41.21
   7  -4   8   32.50   22.81
  -6  -7   8   28.96  264.03
   6   7   8   76.68   63.07
  -6   7   8   81.35   72.32
   6  -7   8   68.21   55.14
   6   7  -8   69.03   53.65
  -6   7   8   74.50   61.92
  -6  -7  -8   76.17   81.04
  -6   7  -8   84.50   84.05
  -4 -10  -8   43.51   50.18
  -4  10   8   53.61   57.54
  -4 -10   8   15.25  146.94
   4  10  -8   33.43   31.54
  -4 -10  -8    9.85   49.02
   4 -10  -8   15.54   65.10
   4 -10   8   33.27   28.54
   4 -10  -8   45.62   36.58
   4  10   8   41.74   28.45
  -4  10  -8   47.77   51.46
  -7   5  -7    2.65   14.82
  -7  -5   7    3.31   40.88
  -7   5   7    2.63    9.73
  -7   5   7    3.18   12.00
  -7  -5  -7    1.96   14.22
   7   5   7    3.68   13.52
   7   5  -7    2.86   10.17
   0  -7 -15    1.74    5.02
   0   7 -15    0.06    6.68
   0   7  15    0.25    5.02
   0  -7 -15    1.26   13.27
   4   5 -14   81.75   51.71
   4  -5  14   87.78   55.49
  -4  -5 -14  103.80   78.11
  -4  -5  14   61.66  146.35
   4   5  14   91.27   55.06
  -4   5 -14   96.14   73.14
  -4   5  14   95.91   76.80
   4  -5 -14   90.34   55.87
  -4   5 -14   47.32  187.17
   4   5 -14   79.35   45.88
  -4  -5 -14  349.98  198.45
  -4   5 -14   72.52   40.34
   0   9 -13    0.56   14.72
   0   9  13    0.22   16.49
   0  -9 -13   81.47   37.71
  -2  11  -9  380.30  181.55
  -2 -11  -9  138.97  254.12
   2  11  -9  311.22  137.19
   2 -11  -9  154.17  280.91
   2  11   9  389.08  164.80
   2 -11  -9  384.22  164.45
  -2  11   9  424.04  212.93
   2 -11   9  325.66  138.50
  -2 -11  -9  425.35  207.55
   2  11  -9  181.40  311.82
  -2 -11   9  245.29  288.03
  -6  -2 -12  145.14  102.94
  -6   2  12  136.24   89.15
  -6   2 -12  132.62   85.21
  -6  -2  12  122.34   79.20
   6   2  12  129.33   82.46
   6   2 -12  120.30   59.93
   6  -2 -12  135.87   76.19
   6  -9  -3  612.47  255.41
  -6   9   3  596.25  285.64
  -6   9  -3  650.34  325.40
  -6  -9   3  219.96  621.41
   6   9   3  539.87  215.03
  -6  -9  -3  419.78  525.33
   6   9  -3  557.29  237.63
   6  -9   3  540.78  244.04
   8  -1   5    6.03   10.39
   8   1  -5    4.93   10.26
  -8   1  -5    4.64   15.74
  -8  -1  -5    6.73   21.70
   8   1   5    7.30   13.39
   5  10  -5    9.71   18.93
  -5 -10  -5   10.68   22.30
  -5  10   5   13.28   26.90
  -5  10  -5   13.79   27.51
   5 -10   5    8.20   15.79
  -5  10  -5    4.71   55.03
   5 -10  -5   11.72   18.45
   5  10   5    9.14   13.43
  -5 -10   5    1.46   93.07
   5 -10  -5    3.84   28.83
  -5  10   5    9.18   21.11
  -5 -10  -5    3.98   46.09
   3  -3 -16 1490.53  563.44
  -3  -3  16  261.43  301.82
   3  -3  16  401.11  180.65
  -3   3 -16  304.67  531.18
  -3  -3 -16  340.54  491.56
   3   3 -16  389.24  173.69
   3  -3 -16  378.11  163.80
  -3   3 -16  407.19  196.05
  -3  -3  16  352.25  150.09
  -3  -3 -16  418.91  183.71
  -3   3  16  411.22  187.98
  -4  -3 -15  194.46  324.03
  -4   3 -15  195.00  389.38
   4  -3 -15  245.10  116.29
   4   3  15  270.10  124.49
   4   3 -15  236.11  108.12
  -4   3 -15  239.81  103.00
  -4   3  15  285.90  145.58
  -4  -3  15  239.67  115.04
  -4   3 -15  265.89  142.87
   0 -11  10   -1.12   10.95
   0 -11 -10    1.12   12.39
   0  11 -10    0.15    6.32
   0  11  10    0.67    8.86
   0 -11 -10    1.38    6.46
   0  13  -4   -0.16   19.81
   0 -13  -4   -2.39   18.78
   0  13  -4    0.37    4.74
   0 -13  -4   -0.16    5.53
   0  13   4    2.18    6.67
   1   8 -14   18.49   23.90
  -1   8  14   23.45   40.24
  -1   8 -14   16.65   27.82
   1   8  14   21.16   21.40
   1  -8 -14   10.24   52.08
   1  -8 -14   21.81   21.71
  -1  -8 -14   10.76   84.27
  -8  -4   0  356.86  437.36
   8  -4   0  580.01  236.39
   7  -7   3    2.41   13.55
  -7  -7   3  132.27   57.97
  -7   7  -3    3.08   17.42
  -7  -7  -3   -1.84   42.82
   7   7  -3    3.00    9.95
   7  -7  -3    2.09   10.18
   4  -9 -10   94.27  155.73
   4  -9  10  238.32   95.13
  -4  -9 -10  313.62  170.38
   4  -9 -10  290.05  116.62
  -4  -9 -10  109.44  166.67
   4  -9  10  223.03   94.64
   4   9 -10  237.84  106.54
  -4   9  10  346.55  183.03
  -4   9 -10  304.96  158.79
  -4  -9  10   87.95  349.85
  -2   2  17    8.77   13.00
   2  -2  17   10.69   17.91
  -2   2 -17    9.52   17.34
   2  -2 -17    8.38   17.00
   2   2 -17    7.51   18.65
  -2  -2 -17    9.58   64.82
   2   2 -17    3.99   52.07
  -2  -2  17    6.84   10.73
   2   2  17    9.98   13.73
  -2  -2  17    8.86   15.27
   2  -2 -17   17.52   50.78
  -2   2 -17    5.30   78.21
   8  -4   1   68.60   54.72
   8  -4  -1   63.62   45.15
  -8  -4  -1   20.59  126.30
  -8   4  -1   67.22   51.19
  -8  -4   1 1341.14  267.56
   5  -2 -14  327.81  150.01
  -5   2 -14  236.90  430.10
  -5  -2  14  315.83  154.56
   5   2  14  337.98  156.19
  -5  -2 -14  248.56  450.77
  -5   2 -14  336.33  152.14
   5   2 -14  324.31  159.24
  -5   2  14  358.83  180.71
   5  -2  14  325.26  148.15
  -5  -2 -14  368.85  182.44
   2 -10  11   30.11   27.04
  -2  10  11   38.98   44.71
  -2 -10 -11   14.53   61.15
  -2 -10  11   20.30   74.98
   2 -10 -11   35.13   30.58
   2 -10 -11   13.88   67.94
   2  10  11   34.13   28.20
  -2  10 -11   31.90   36.89
   2  10 -11   27.87   23.48
   2  10 -11   18.49   94.01
   2  10 -11   26.36   19.88
   2 -13   0    3.61   11.78
  -2  13   0    5.21   12.45
   2  13   0    5.43   15.42
  -2 -13   0    2.71   35.17
  -2  13   0    4.53   10.16
  -2 -13   0    0.81   25.80
   7  -3   9    8.39   13.48
   7  -3  -9    7.98   16.87
  -7  -3  -9    8.75   23.90
  -7   3   9    8.22   16.22
   7   3   9    8.57   19.85
  -7   3  -9    7.80   19.44
   7   3  -9    6.97   17.16
  -1   7 -15    0.91    9.04
   1  -7  15    1.67    8.54
  -1   7  15    1.64    7.90
  -1  -7 -15    1.29   18.68
   1   7 -15    1.41    8.01
   1  -7 -15    1.49    5.29
   1  -7 -15    2.28   17.29
  -1  -7 -15    1.56    7.35
   2 -13  -1   34.13   32.95
  -2  13  -1   32.66   31.27
  -2  13  -1   37.88   40.01
  -2 -13   1   13.51   69.76
  -2 -13   1   15.91   83.16
   2  13   1   34.36   40.53
  -2  13   1   33.15   26.80
  -2 -13  -1   29.86   26.12
  -2 -13  -1   17.21   88.27
   2  13  -1   32.12   38.78
  -2  13   1   31.69   35.01
   2 -13   1   30.88   30.61
   3 -10 -10   51.20   33.60
   3  10  10   56.15   35.72
   3  10 -10   45.62   35.35
   3 -10  10   45.18   32.40
   3 -10 -10   18.51   79.11
  -3  10 -10   54.70   53.27
  -3  10  10   64.43   64.06
  -3 -10 -10   17.45   71.90
   3 -10 -10   55.75   38.36
  -1   9  13  312.85  155.10
   1  -9 -13  125.26  206.38
   1   9  13  295.20  130.20
   1   9 -13  231.39  108.51
   1  -9 -13  283.72  128.86
  -1   9 -13  247.47  129.61
  -1  -9 -13   94.77  194.08
   3 -11  -8   44.18   36.61
   3 -11  -8   16.24   77.51
   3  11   8   46.80   34.76
   3 -11   8   31.74   24.41
  -3 -11   8   14.15  134.20
  -3  11   8   48.55   53.58
  -3  11  -8   46.40   47.22
  -3 -11  -8   12.38   60.27
   3  11  -8   35.87   32.89
  -8  -3  -4    2.30    9.01
   8   3  -4    1.93    6.20
   8   3   4    3.37   11.09
  -8  -3   4    1.62   18.55
   0  12  -8   21.83  108.98
   0  12  -8   31.66   25.47
   0  12   8   33.54   39.20
   0  12  -8   29.01   23.89
   0 -12   8   20.66   57.66
   0 -12  -8   37.41   38.64
   0 -12  -8   16.62   78.94
  -1  11 -10    3.95   13.17
  -1 -11 -10   -1.33   33.30
   1 -11 -10    2.16   52.75
  -1  11  10    7.11   18.35
   1 -11  10   31.85   26.40
  -1 -11  10    3.51   30.32
   1  11  10    4.51   14.06
   1  11 -10    3.61    9.15
   1  11 -10    3.98    9.26
   1 -11 -10    5.60   14.82
   8   2   5  332.71  157.38
  -8  -2  -5  297.96  164.79
   8  -2  -5  289.25  126.12
  -8   2  -5  310.76  165.09
   8   2  -5  295.67  133.27
  -8   4   2    2.95   10.63
  -8  -4  -2   -0.48   31.02
   8  -4  -2    1.62    7.71
  -8   4  -2    1.56   10.16
  -8  -4   2  122.99   40.69
   8  -4   2    3.59   12.00
   0  -4  17  263.93  139.27
   0   4 -17  176.57  359.14
   0   4 -17  260.57  142.97
   0  -4 -17  508.47  260.34
   0  -4 -17  245.24  106.99
  -1 -13   4   14.96   88.67
   1 -13  -4   43.54   38.49
   1 -13   4   34.24   24.96
  -1  13   4   42.60   46.76
  -1 -13  -4   16.71   83.62
  -1  13  -4   39.17   31.58
   1 -13  -4   27.43  137.05
  -1  13  -4   28.61  137.31
   1  13   4   43.84   47.39
   1  13  -4   20.73  119.84
  -1 -13  -4   40.96   38.48
  -1  13  -4   40.99   30.53
  -7   6   6    5.21   12.48
  -7   6  -6    6.34   21.86
   7  -6   6    4.68   16.59
   7   6  -6    5.17   12.88
  -7  -6  -6    4.95   18.30
   7   6   6    6.10   19.19
  -7  -6   6   -3.07   59.24
  -5   9  -8   22.94   15.29
   5  -9  -8    0.80    7.01
  -5  -9  -8    0.68   13.07
   5  -9   8    0.72    6.74
  -5   9   8    0.77    9.88
  -5  -9   8   -2.70   43.55
   5   9  -8    1.18    8.90
  -5   9   8    1.62   13.86
   5   9   8    0.99    9.15
   2  -5 -16  114.10  139.15
   2  -5  16  130.57   82.27
   2   5 -16   73.20  174.99
  -2   5 -16  137.87   87.85
  -2   5  16  138.30   77.65
   2   5 -16  128.94   80.13
  -2  -5 -16  306.28  175.58
   2  -5 -16  123.97   65.32
   2   5 -16  114.12   54.93
  -2   5 -16  106.14  373.23
  -2  -5 -16  132.02   72.83
   3 -12   5   76.96   49.93
  -3  12  -5   45.52  200.00
  -3 -12  -5   26.03   97.86
  -3 -12  -5   90.54   65.81
   3 -12  -5   89.98   62.55
   3 -12  -5  123.92  134.95
  -3 -12   5   28.64  196.76
  -3  12   5   99.33   76.65
  -3  12  -5   96.54   72.25
   3  12   5   95.27   65.33
   7   0 -10   75.47   44.69
  -7   0  10   72.77   56.81
  -7   0 -10   81.86   71.04
   7   0  10   85.14   60.28
  -5   7  11   85.31   73.53
   5   7  11   69.11   46.62
  -5   7 -11   87.99   74.12
  -5  -7  11   22.94  202.73
   5  -7 -11   78.77   55.43
   5  -7  11   64.46   36.80
   5  -7  11   61.62   42.71
   5   7 -11   67.73   48.90
  -6  -9  -4  136.42   99.92
   6  -9  -4  145.87   82.97
  -6   9  -4  151.59  114.49
   6   9  -4  132.73   79.32
  -6  -9   4   42.11  288.73
   6  -9   4  127.02   82.49
  -6  -9  -4   48.60  199.04
  -2 -13  -2   23.70   23.92
  -2 -13  -2    8.37   54.81
   2 -13   2   21.62   22.97
  -2 -13   2    8.35   63.63
  -2 -13   2    9.95   68.98
  -2  13   2   23.59   30.82
   2  13   2   24.43   34.26
   2 -13  -2   22.85   28.33
  -2  13  -2   22.42   23.53
  -2  13  -2   24.42   25.70
  -2  13   2   23.29   21.05
  -5  -6  12    1.60   92.76
  -5   6 -12   15.81   29.50
   5   6 -12   12.31   17.29
   5  -6 -12   14.90   22.13
  -5   6 -12   10.66   16.69
  -5   6  12   18.74   29.92
  -5  -6 -12   16.60   31.36
   5   6  12   13.82   21.40
   5  -6  12   13.49   15.79
   5   6 -12   12.80   20.26
  -5   6 -12    4.54   65.90
   0  -6 -16   68.20   38.63
   0   6 -16   69.64   56.56
   0   6 -16   44.05  153.21
   0   6  16   69.21   39.46
   0  -6 -16   94.80  107.73
   0  10  12    0.60    7.13
   0  10 -12    0.92    5.75
   0 -10 -12    0.95   13.15
   0  10 -12    0.77   25.60
   2  12   7  103.95   67.26
  -2  12   7  114.03   85.55
   2 -12  -7  101.87   65.97
  -2 -12  -7   34.70  119.10
   2  12  -7   46.45  148.44
   2 -12  -7   35.28  142.40
  -2 -12   7   33.33  179.42
  -2  12  -7   46.75  205.43
  -2  12  -7  104.17   68.68
  -4  11   6   71.18   50.25
   4 -11   6   57.71   42.69
   4 -11  -6   67.02   49.70
  -4 -11   6   25.68  206.16
  -4  11  -6   78.97   69.75
   4  11   6   73.88   48.44
  -4  11   6   82.43   73.61
   4 -11  -6   23.51   90.51
  -4  11  -6   34.56  161.58
  -4 -11  -6   68.41   60.82
  -4 -11  -6   17.00   84.54
   7  -1  10  147.06   81.75
  -7  -1 -10  145.16  103.96
   7   1 -10  127.97   60.30
   7  -1 -10  139.59   72.02
   7   1  10  148.54   89.36
  -7   1 -10  137.64   95.59
  -7   1  10  130.46   80.30
  -7  -1  10  131.26   78.97
  -6  -3  12   75.51   57.35
   6   3  12   80.79   61.28
   6  -3 -12   83.00   58.75
  -6   3  12   86.29   70.24
  -6  -3 -12   90.73   76.69
   7   7  -4   98.56   62.67
  -7  -7  -4   33.58  184.69
  -7   7   4  107.16   81.85
   7  -7   4  103.83   77.15
   7  -7  -4   96.68   58.21
  -7  -7  -4   96.38   74.45
  -7  -7   4  434.73  298.99
  -7   7  -4  120.54   99.40
   8   0   6 1201.89  445.63
  -8   0   6 1035.80  413.01
   1 -12  -8  117.51  260.43
  -1 -12   8  178.82  217.29
   1 -12  -8  289.23  138.19
   1  12  -8  142.76  301.15
  -1  12  -8  268.31  126.64
  -1  12   8  278.50  149.43
   1  12   8  286.70  139.77
   1 -12   8  157.62  167.76
  -1 -12  -8  106.91  230.90
   1  12  -8  245.79  109.81
  -1 -12  -8  314.18  156.68
  -3  -8  13   -0.23   12.29
  -3  -8 -13   -0.33   10.49
   3  -8 -13    0.48    3.27
  -3  -8 -13    0.88    6.66
  -3   8  13    1.58    6.93
   3  -8  13    0.46    4.47
   3  -8 -13   -0.54    8.89
  -3   8 -13    0.38    8.99
   3   8 -13    0.70    3.65
   3   8 -13    0.23    3.14
   3  -8 -13    0.35    3.69
  -1  -4 -17    1.72   40.28
   1  -4 -17    1.39    6.31
   1   4 -17    4.18    9.02
   1  -4  17    0.59    8.91
   1   4 -17   -0.05   27.95
  -1   4 -17   -0.76   33.99
   1  -4 -17   10.75   16.61
  -1   4 -17    0.41    9.38
  -1   4  17    0.51    5.38
   6   8   7  144.99   96.08
  -6   8   7  154.92  110.18
  -6  -8  -7  132.47  116.67
   6   8  -7  132.03   80.74
   6  -8   7  123.67   78.65
   6  -8  -7  128.66   66.74
  -6   8  -7  162.68  121.98
  -6  -8   7   38.34  410.66
   0 -13   5    0.07   18.52
   0 -13  -5    0.08    9.28
   0  13  -5    1.54   32.08
   0 -13  -5   15.86   23.18
   0  13  -5    2.31    7.10
   0  13   5    0.43   10.57
  -8  -4   3    7.64   70.05
  -8   4   3   26.78   28.02
   8  -4   3   26.84   32.17
   3  -7 -14   47.70  107.67
   3  -7  14  111.23   64.47
  -3  -7 -14   76.87  136.39
  -3   7  14  132.29   86.58
  -3   7 -14  121.82   83.33
   3   7 -14   97.72   50.84
   3  -7 -14  107.03   69.71
  -3  -7 -14  125.02   83.68
  -3  -7  14   70.49  141.98
   3   7 -14   99.35   53.95
   2  -3 -17   72.03   63.22
   2   3 -17   47.28  145.37
  -2  -3 -17   65.92   39.49
  -2  -3 -17  124.00  198.81
   2  -3  17   74.88   56.44
  -2   3  17   70.16   45.64
  -2   3 -17   54.30  211.22
   2   3 -17   72.37   56.72
   2   3  17   73.12   41.55
   2  -3 -17  269.08  165.44
  -2  -3  17   77.26   55.58
  -8   1  -6   12.47   24.03
   8  -1  -6   12.94   13.02
  -8   1   6   11.65   15.78
   8   1   6   14.20   29.52
  -8  -1  -6   12.82   24.21
   8  -1   6   13.81   16.77
  -5  10  -6   14.52  106.51
   5  10  -6   36.02   37.50
  -5  10   6   48.80   56.37
   5 -10  -6   42.03   36.47
   5  10   6   38.56   27.55
  -5 -10  -6   13.39   80.85
  -5 -10  -6   40.96   47.52
  -5  10  -6   43.45   52.51
  -5 -10   6   22.17  177.67
   5 -10   6   30.12   30.92
  -5  10   6   39.76   40.56
  -5   3  14   68.64   58.96
   5  -3 -14   61.88   48.96
   5  -3  14   58.96   44.60
  -5  -3 -14   67.44   59.21
  -5  -3  14   58.41   46.21
  -5   3 -14   57.36   51.48
   5   3  14   61.82   47.81
  -5   3 -14   39.20  142.50
  -5   3 -14   57.46   43.17
  -5  -3 -14   43.89  125.26
   5   3 -14   56.42   38.44
  -6  -6 -10    0.56    9.92
   6  -6 -10    0.53    7.30
  -6  -6  10    3.75   36.47
   6   6 -10    1.41    6.65
  -6   6  10    0.77    8.86
   6   6  10    0.36    7.09
  -6   6 -10    1.90    9.95
  -2  13   3   16.58   27.86
   2  13   3   16.66   29.56
  -2  13  -3   15.23   18.19
   2 -13  -3   15.78   25.41
  -2  13  -3   18.22   22.48
  -2 -13   3   10.00   70.78
  -2 -13   3    7.97   56.68
  -2 -13  -3   17.68   22.41
   2 -13   3   14.39   18.32
  -2 -13  -3    5.51   47.84
   2  13  -3   28.01   29.37
  -5   8 -10    3.72   70.27
   5  -8  10    8.60   10.54
  -5  -8 -10    9.89   27.22
   5  -8 -10   13.13   18.79
  -5   8 -10   12.08   26.45
   5  -8  10    6.81   13.47
   5   8  10   10.02   16.40
  -5   8  10   11.57   26.62
   5  -8 -10    9.38   10.99
  -5  -8  10    4.95   79.92
  -1  -6  16  101.12   71.75
  -1   6 -16   99.47   73.64
   1  -6 -16   94.51   46.41
  -1  -6 -16   98.83   56.70
   1  -6 -16   49.12  122.54
   1  -6  16   97.41   68.80
  -1   6 -16   59.36  186.80
  -1  -6 -16  210.41  150.95
  -1   6  16   97.77   58.10
   1   6 -16   95.25   65.91
   1   6 -16   57.34  170.43
   5 -11   0   11.04   16.06
   5  11   0    0.28    5.87
   5 -11   0    0.15    6.32
  -5  11   0    0.06    7.83
  -5 -11   0   -1.84   22.00
  -1  10  12  488.09  221.69
   1  10 -12  266.94  465.53
  -1  10 -12  393.79  181.76
  -1 -10  12  267.09  291.97
   1 -10  12  397.13  176.51
   1  10 -12  352.38  138.12
   1 -10 -12  161.77  271.05
  -1 -10 -12  483.54  218.47
  -1  10 -12  280.65  480.22
   1  10  12  488.66  200.06
   1  10 -12  368.70  154.35
   1 -10 -12  479.24  195.38
  -1 -10 -12  150.06  258.89
   0   0 -18  179.71  337.79
   0   0  18  301.45  132.36
   4  12   0  301.57  150.03
  -4 -12   0   94.15  298.06
   4 -12   0  284.08  138.99
  -4  12   0  319.99  160.17
   4 -12   0  142.72  303.07
  -3   4 -16    3.67   14.06
  -3  -4  16    1.38   29.40
   3  -4 -16    5.09   47.21
   3  -4 -16    5.08   11.62
   3   4  16    4.76   10.32
  -3  -4 -16    6.22   47.79
  -3   4 -16    0.91   56.16
   3   4 -16    5.06   12.94
  -3   4  16    4.65   14.00
   3  -4  16    4.64   13.60
  -3  -4 -16    5.70   12.93
  -5   5 -13   11.80   24.48
  -5   5  13   11.47   25.37
   5   5 -13    9.15   17.98
  -5   5 -13    9.95   14.62
  -5  -5  13    1.48   79.83
  -5   5 -13    5.51   58.40
   5   5  13    9.54   19.02
  -5  -5 -13   13.62   28.36
   5  -5 -13   11.07   19.51
  -4   4 -15  174.51   79.04
   4   4 -15  183.70   89.05
  -4  -4 -15  266.81  320.63
  -4  -4  15  140.54  215.12
   4  -4 -15  202.05  100.56
  -4   4 -15  135.73  311.22
  -4   4 -15  217.49  125.37
   4   4  15  212.98  101.14
  -4   4  15  232.94  126.14
  -4  -4 -15  235.23  127.24
  -5  11   1  253.87  143.11
   5 -11  -1  132.87  245.08
  -5 -11   1   86.07  327.43
  -5  11  -1  258.84  147.49
  -5 -11  -1   83.66  297.02
   5 -11  -1  235.67  125.47
   5 -11   1  102.65  241.29
   5  11   1  233.08  116.70
   5  11  -1  228.58  118.48
   5 -11   1  224.37  119.24
  -4 -12   1    4.65   72.91
  -4  12  -1   14.71   27.60
  -4  12   1   17.70   24.46
  -4  12   1   15.55   25.85
   4 -12  -1    6.31   72.03
   4 -12  -1   13.57   23.15
   4 -12   1   13.50   23.86
   4  12  -1   13.38   26.17
   4 -12   1   38.98   72.63
  -4 -12  -1    8.80   63.99
   6   5  11    2.27    9.72
   6  -5  11    2.13    7.09
  -6   5  11    1.87   11.93
  -6   5 -11    1.80    8.81
  -6  -5  11   -1.39   45.63
  -6   5 -11    2.31   17.86
  -6  -5 -11    2.00   13.40
   6  -5 -11    2.48    9.87
   6   5 -11    1.86    9.36
  -7   2  10  112.76   74.41
   7  -2 -10  126.62   71.20
   7  -2  10  129.17   69.23
  -7  -2  10  117.71   74.44
   7   2  10  133.17   84.05
  -7  -2 -10  133.02   98.41
   7   2 -10  108.04   49.80
  -8   3  -5   21.89   30.84
  -8  -3  -5   16.28   28.25
   8  -3  -5   17.67   21.69
   0  -1 -18  758.92   86.75
   0  -1  18    0.68   14.77
   0  -1 -18   -0.08   14.78
   0   1 -18    0.87   65.34
   0   1 -18    0.60   17.27
  -7  -5  -8    9.45   25.38
   7   5  -8    7.42   17.85
  -7   5   8    9.17   17.92
  -7   5  -8   10.13   24.48
  -7  -5   8    3.71   67.18
   7  -5  -8    9.52   20.12
   7   5   8    9.38   22.46
   1  13  -5   88.07  248.81
  -1 -13  -5  142.31  203.12
  -1  13  -5   97.03  285.41
   1  13  -5  154.15  106.70
   1 -13  -5  162.13   92.92
  -1  13  -5  157.13   80.67
  -1 -13   5   44.37  189.34
  -1  13  -5  149.97   78.01
   1  13   5  168.11  104.26
  -1 -13  -5  177.12  127.58
  -1  13   5  171.43  107.65
   1 -13  -5  261.98  243.67
  -2   8 -14   25.22   31.92
   2  -8 -14   11.35   50.36
  -2   8  14   24.59   33.21
   2   8 -14   18.32   16.72
   2  -8 -14   22.27   17.75
  -2  -8 -14   13.34   58.50
  -2  -8 -14   23.92   31.35
   2  -8 -14   20.54   18.35
   2   8 -14   19.81   21.48
   2  -8  14   20.22   25.68
   4   7  13  148.02   68.59
  -4  -7  13   95.87  174.44
  -4   7 -13  155.85   98.59
  -4  -7 -13   67.60  128.83
   4  -7 -13   50.15  102.09
  -4   7  13  162.56  105.06
  -4  -7 -13  163.11  106.67
   4  -7 -13  147.78   75.06
   4   7 -13  123.64   64.43
   4  -7  13  105.86   53.84
   4  -7  13  134.33   67.43
   4   7 -13  122.61   56.08
   3  -9 -12  677.50  238.36
   3  -9 -12  675.94  238.58
   3  -9  12  635.92  237.44
  -3   9 -12  727.71  310.07
  -3  -9  12  448.79  462.69
  -3  -9 -12  798.86  345.28
  -3   9  12  840.01  357.51
  -3   9 -12  455.96  734.18
   3   9 -12  594.60  222.05
  -3  -9 -12  290.88  368.29
   3   9 -12  572.61  202.91
   3  -9 -12  258.03  325.12
   7  -4  -9  545.65  238.46
  -7  -4  -9  541.71  292.13
  -7   4   9  491.01  240.32
  -7   4  -9  490.05  235.33
   7   4  -9  507.97  227.07
   7   4   9  538.57  248.49
  -4   0  16  340.06  157.77
   4   0  16  354.35  159.77
   4   0 -16  308.60  137.61
  -4   0 -16  370.88  532.65
  -4   0 -16  337.42  149.16
  -6  -7   9  173.98   84.79
  -6   7  -9    3.36   21.32
  -6   7   9    2.74   18.32
  -6   7   9    3.93   15.01
  -6  -7  -9    3.75   20.66
   6   7  -9    2.53   12.80
   6   7   9    9.99   16.13
   6  -7   9    2.20   12.29
  -6   9  -5   90.38   83.04
  -6  -9  -5  111.50   83.87
  -6   9   5   81.57   68.07
  -6  -9  -5   26.69  147.97
   6  -9  -5   79.24   53.97
  -6   9   5   75.85   68.53
   6   9  -5   82.44   57.76
   6  -9   5   75.38   58.44
   4   8  12   34.83   26.29
  -4  -8 -12   37.96   46.47
  -4   8 -12   36.93   43.34
  -4  -8 -12   14.23   55.30
   4   8 -12   28.60   37.66
   4  -8 -12   35.61   30.78
  -4   8  12   40.25   47.25
   4  -8  12   31.61   25.81
   4  -8  12   26.34   22.18
   4  -8 -12   11.41   44.55
  -5  11   2  586.93  253.26
   5  11   2  534.54  214.72
   5 -11   2  499.02  207.52
  -5 -11   2  194.72  518.87
   5 -11  -2  260.56  367.91
  -5 -11  -2  160.22  374.55
   5 -11   2  299.32  418.23
  -4  10   9  101.00   58.83
   4  10  -9   76.08   49.78
  -4  10   9  117.85   91.53
   4  10   9   94.76   52.81
  -4  10  -9  101.17   82.61
   4 -10  -9   99.47   57.41
   4 -10  -9   29.36   89.41
  -4 -10  -9   26.48   77.31
  -4 -10   9   28.82  211.16
  -4 -10  -9  105.69   82.67
   8  -2  -6  426.55  175.88
  -8   2   6  386.01  175.44
  -8  -2  -6  441.62  232.99
   8   2  -6  444.23  193.50
  -8   2  -6  446.66  221.97
   8   2   6  491.62  213.34
   8  -2   6  436.14  167.20
   4 -12  -2    1.78   10.57
  -4 -12   2    1.50   34.45
   4  12   2    2.80   10.78
  -4  12   2    1.99   10.79
   4  12  -2    2.72   11.29
   4 -12   2    3.98    9.91
  -4  12   2    2.69   11.79
  -4  12  -2    2.61   13.11
   4 -12  -2   -3.79   31.60
  -4 -12  -2    1.78   39.12
  -3  -6 -15   27.28   34.16
  -3  -6 -15   55.33   64.82
   3   6 -15   22.72   25.89
   3  -6 -15   22.16   24.28
   3   6  15   23.52   20.54
  -3  -6  15  180.98   87.00
  -3   6 -15   11.35  113.07
   3  -6 -15   11.68   49.06
  -3   6 -15   24.22   36.34
  -3   6  15   25.99   36.10
   3  -6  15   24.43   29.57
   1   0  18  512.04  224.36
   1   0 -18 1204.31  686.77
  -1   0 -18 1234.30  781.72
  -1   0 -18  509.94  230.26
   1   0 -18  491.35  224.91
   8  -5   0   84.85   56.62
  -8  -5   0   88.51  164.71
  -8   5   0   90.88   66.72
  -2  -7 -15    0.71    5.26
  -2   7  15    0.44    5.57
   2   7 -15    0.19    2.90
   2  -7 -15    0.58   10.20
  -2   7 -15    0.40    5.89
   2   7 -15   -0.23   11.93
   2  -7 -15    0.61    3.30
   2   7 -15    0.79    4.46
  -2  -7 -15   -0.29   11.13
  -3  12   6   73.39   45.44
  -3 -12   6   24.89  180.90
   3  12   6   77.57   56.51
   3  12  -6   62.12   53.63
  -3  12  -6   78.01   63.36
  -3  12  -6   26.93  174.37
  -3 -12  -6   20.36  118.91
  -3 -12  -6   74.78   61.61
   3 -12  -6   25.39  111.60
  -3  12   6   80.52   69.83
   4  -1  16  261.28  128.25
   4   1 -16  233.47  113.59
  -4  -1  16  244.70  121.70
  -4   1 -16  244.67  111.94
   4  -1 -16  225.93  112.03
  -4  -1 -16  255.45  121.94
  -4   1 -16  834.79  554.45
  -4  -1 -16  287.27  553.10
  -4   1  16  262.03  131.49
  -8  -4  -4   27.24   30.25
  -8  -4   4   10.11   72.45
   8   4   4   35.26   40.65
   8   4  -4   27.12   30.55
   2   9 -13  291.93  116.92
  -2   9 -13  332.40  165.35
   2  -9  13  315.95  142.17
   2  -9 -13  161.89  226.11
   2  -9 -13  319.74  130.97
   2  -9 -13  352.97  142.81
  -2  -9  13  214.12  269.60
   2   9  13  371.63  143.83
  -2   9  13  405.68  233.68
  -2  -9 -13  374.68  181.62
  -2  -9 -13  120.23  212.83
   2   9 -13  292.99  121.78
  -3   0 -17   -1.09   28.78
  -3   0 -17    1.81    3.91
  -3   0  17   -0.19    5.16
   3   0 -17    0.16    6.63
  -7   7  -5  474.42  308.74
  -7  -7  -5  357.68  216.25
  -7   7   5  411.03  203.46
  -7  -7   5  137.16  506.26
   7  -7   5  390.67  192.24
  -7  -7  -5  139.56  355.10
   7   7  -5  380.59  170.43
  -6   0  13    0.39    4.03
  -6   0 -13    0.21    4.48
   6   0 -13    0.06    3.21
  -8  -5   1   70.22  109.96
   8  -5  -1   32.43   29.57
   8  -5   1   35.74   35.86
  -8  -5  -1   17.58   97.02
  -8   5  -1   39.63   38.35
  -1  -1 -18  894.83  536.41
   1  -1 -18  289.24  138.77
   1  -1 -18  310.81  403.83
  -1  -1  18  299.55  136.88
   1   1  18  295.52  131.67
  -1   1 -18  227.92  468.05
  -1   1 -18  315.24  150.55
   1   1 -18  299.73  146.74
  -1  -1 -18  299.80  137.18
   1   1 -18  213.86  383.82
   1  -1  18  311.00  146.38
   2  11  10    5.78   12.27
   2  11 -10    4.08    9.84
  -2 -11 -10    2.51   26.05
   2 -11  10    3.02    9.86
   2  11 -10    0.98   32.15
  -2  11 -10    4.39   14.49
   2 -11 -10    2.24   41.47
  -2 -11 -10    7.25   18.52
  -2  11  10    7.64   18.38
   2 -11 -10    4.58   12.99
  -2 -11  10    3.62   33.61
  -7   6   7   74.85   62.20
   7   6   7   74.79   64.69
   7  -6   7   68.30   60.22
  -7  -6  -7   69.46   73.40
  -7   6   7   64.42   55.19
  -7  -6   7   23.86  205.43
  -7   6  -7   91.01   83.47
   7   6  -7   68.52   51.53
   4   6  14   71.20   43.67
  -4  -6  14   47.55  126.11
   4   6 -14   61.17   37.76
   4  -6 -14   68.12   46.71
  -4   6 -14   71.11   61.53
   4  -6  14   64.59   45.02
   4   6 -14   61.56   43.79
  -4  -6 -14   28.38   86.57
  -4   6  14   77.71   66.16
  -7   8   0    0.34    6.63
  -7  -8   0   -1.27   19.02
   7   8   0    0.43    3.32
   7  -8   0    0.55    5.06
   2 -13   4    7.12   11.68
  -2  13  -4    4.26   69.41
  -2  13  -4   10.17   15.90
   2 -13  -4   14.63   26.16
   2 -13  -4    3.02   63.42
  -2 -13   4    1.96   52.46
   2  13  -4    5.75   17.74
   2  13   4    8.55   20.83
  -2  13   4    9.70   20.40
  -2 -13  -4    2.02   35.38
  -2 -13  -4    8.00   16.83
  -2 -13   4    1.52   39.48
  -3  -1 -17    1.13   21.33
  -3  -1  17    0.34    4.01
   3  -1 -17    0.62   12.65
  -3   1 -17   -0.87   24.22
   3   1 -17    1.18    5.40
   3  -1 -17    1.06    5.35
  -3   1 -17    0.16    4.14
  -3   1  17    0.70    4.55
  -3  -1 -17    0.26    3.70
   3   1  17    0.79    4.93
  -6   1  13    0.91    7.38
   6  -1  13    1.34    6.69
   6   1 -13    0.40    5.09
   6   1  13    1.80    6.91
  -6   1 -13    0.48    7.08
   6  -1 -13    0.54    5.76
  -6  -1  13    0.45    6.82
  -6  -1 -13    1.01    8.16
   0  -2 -18  653.96  257.10
   0   2 -18  691.72  294.51
   0   2 -18  449.99  644.89
   0  -2 -18  487.08  606.91
   0  -2  18  675.06  305.51
   7  -8   1   18.91   39.29
   7   8  -1   19.06   20.74
   7  -8  -1   22.06   26.88
  -7   8  -1   22.44   37.71
  -7  -8  -1    9.63  102.22
  -7   8   1   24.26   35.19
  -6  -4 -12  238.52  146.29
   6   4  12  219.83  116.25
   6   4 -12  186.62   78.46
  -6   4 -12  202.02  108.07
  -6   4 -12  214.82  170.30
   6  -4 -12  225.34  113.39
   6   4 -12  206.63  111.01
   6  -4  12  222.26  102.86
  -6   4  12  239.80  136.18
  -4 -11   7    5.53   64.82
   4 -11  -7   22.26   31.20
  -4  11  -7    3.93   51.76
   4  11   7    6.52   17.75
   4 -11  -7    4.17   13.96
   4 -11   7    3.56   10.74
  -4  11   7    5.62   13.56
   4  11  -7    4.95   13.78
  -4 -11  -7   11.25   18.76
  -4  11   7    7.10   21.69
   0 -13   6   -0.22   43.10
   0  13  -6    0.03   14.31
   0  13   6    0.32   24.03
   0  13  -6    0.11   69.15
   0 -13  -6  627.47   77.82
   0 -13  -6   -0.01   21.16
   5 -11  -3   20.55  108.76
  -5  11  -3   31.01  143.10
  -5 -11   3   18.81  185.52
  -5  11   3   81.26   84.07
  -5 -11  -3   18.54  119.99
  -5  11   3   70.91   59.40
   5 -11   3   59.30   46.95
   5  11  -3   60.91   52.64
  -5  11  -3   77.59   71.73
   5 -11  -3   66.73   52.46
   5  11   3   65.95   44.99
  -8  -5   2   28.55   55.36
  -8   5  -2    6.03   17.69
  -8   5   2   12.67   19.49
  -8  -5  -2    1.89   47.29
   8  -5   2    4.20   17.12
   0   5 -17    0.46   26.42
   0   5 -17 1868.90  181.88
   0  -5  17    0.39   25.12
   0  -5 -17    4.82   47.97
   4 -12  -3  167.58   97.05
   4  12   3  181.09   97.77
  -4  12  -3  189.42  116.28
   4  12  -3  155.88   95.82
  -4 -12  -3  156.13   86.58
   4 -12   3  160.69   89.34
  -4  12  -3   87.68  272.29
  -4 -12   3   55.32  251.99
  -4  12   3  209.87  121.32
  -4  12   3  176.27   96.87
  -4 -12  -3   45.62  162.15
   4 -12  -3   84.47  222.83
   0  11 -11   32.56   27.20
   0 -11 -11   -0.33   47.07
   0 -11 -11   -0.16   26.12
   0  11  11   -0.04   25.70
   0 -11  11   66.37   48.13
   3 -11  -9   -0.28    6.94
   3 -11  -9   -0.14    3.06
   3  11   9    0.73    2.79
  -3 -11   9    1.17   12.86
   3 -11   9   -0.15    1.68
  -3  11  -9   -0.06    4.09
  -3  11   9    0.89    4.80
   3  11  -9    0.39    2.73
  -3 -11  -9   -0.22    5.68
   0 -12  -9  331.93  160.21
   0  12  -9  263.87  117.53
   0 -12   9  185.95  203.19
   0  12   9  306.04  152.73
   0 -12  -9  111.32  241.62
   8   0   7   -0.02    2.63
  -8   0   7    0.27    2.15
  -8   0  -7   -0.20    3.36
  -7  -3 -10    7.99   23.16
  -7   3  10    7.31   16.54
   7  -3  10    7.10   13.50
   7   3 -10    8.36   16.50
  -7   3 -10    6.54   18.90
   7  -3 -10    6.90   15.95
   4  -2 -16   83.34   55.94
  -4  -2 -16   64.26  185.26
   4   2 -16   83.91   53.34
  -4   2  16   94.02   65.11
  -4   2 -16   67.17  239.20
  -4  -2 -16   92.24   59.55
  -4  -2  16   84.63   54.73
  -4   2 -16   82.29   57.11
   4   2  16   94.18   58.99
  -4   2 -16   84.83   47.97
   4   9  11   16.54   17.45
   4  -9  11   11.98   13.34
  -4  -9 -11    6.92   38.55
   4  -9  11   14.68   15.24
   4   9 -11   15.03   19.21
  -4   9  11   21.45   35.08
  -4   9 -11    8.42   96.09
   4  -9 -11   17.08   17.55
  -4  -9 -11   18.34   32.92
   4  -9 -11    8.13   34.16
  -4  -9  11    7.59   90.14
  -4   9 -11   18.60   31.13
   4  -9 -11   18.27   21.07
   7  -8  -2   60.99   49.32
  -7   8  -2   70.66   70.37
   7   8  -2   60.09   42.16
  -7  -8  -2   87.70  185.23
  -7   8   2   68.16   62.89
   7  -8   2   62.46   55.24
  -5  -9   9   31.58  201.36
  -5   9  -9   33.58  166.75
  -5  -9  -9   68.99   69.95
  -5   9  -9   72.70   90.87
   5  -9  -9   66.40   40.86
  -5   9   9   78.40   75.15
   5   9   9   59.72   43.79
  -5   9   9   65.23   50.36
   5   9  -9   55.86   46.22
   5  -9   9   47.64   36.48
  -2 -12  -8   11.71   70.07
   2 -12  -8   39.89   37.70
   2  12  -8   31.79   30.75
  -2  12   8   42.24   48.81
   2  12  -8   16.99   87.93
   2 -12  -8   15.33   88.00
  -2  12  -8   40.55   38.35
  -2  12  -8   21.10  128.86
   2  12   8   38.98   36.79
  -2 -12   8   11.67  118.44
   2  -4 -17    9.35   44.12
  -2  -4  17    6.39   15.31
  -2   4 -17    2.94   65.34
   2  -4 -17    6.17   11.86
  -2  -4 -17    8.04   55.53
  -2   4  17    5.67   12.45
   2  -4  17    7.96   16.16
  -2  -4 -17    5.62   11.23
   2   4 -17    2.81   58.44
   2   4 -17    5.48   15.91
  -2   4 -17    4.84   15.90
  -5  -4 -14   20.63   73.45
   5  -4 -14   24.30   28.74
   5   4 -14   20.74   20.67
   5   4 -14   20.78   27.68
   5   4  14   23.16   27.21
  -5   4 -14   23.63   31.36
  -5   4 -14   21.21   22.51
  -5   4  14   25.67   36.21
  -5   4 -14    9.73   85.22
  -1  -2 -18  300.91  503.06
  -1  -2  18  440.90  196.03
   1   2 -18  303.54  482.53
  -1   2 -18  451.25  205.96
   1  -2 -18  432.42  483.06
  -1   2 -18  313.19  557.09
   1  -2 -18  426.66  181.71
   1  -2  18  461.30  203.35
  -1  -2 -18  439.18  179.39
   8   1   7   38.34   36.16
   8  -1  -7   34.63   23.86
  -8  -1  -7   36.31   41.69
  -8   1   7   31.68   28.91
   8  -1   7   37.09   30.49
   6  10   0  475.13  208.08
  -6  10   0  520.60  269.67
   6 -10   0  485.70  229.62
   5  10  -7    3.84   14.28
  -5  10   7    4.93   14.86
   5 -10  -7    5.17   12.69
  -5 -10   7    4.64   71.69
  -5  10  -7    5.95   20.00
  -5  10  -7   -0.73   43.54
  -5 -10  -7    7.62   18.95
  -5  10   7    7.56   21.58
   3   2 -17    7.32   14.17
  -3  -2 -17    5.24   51.63
   3  -2 -17    3.89   12.70
  -3   2 -17    4.76   60.83
  -3   2 -17    5.19   11.88
   3  -2 -17    4.15   33.91
   3   2  17    5.33   11.74
  -3   2  17    5.53   12.21
  -3  -2 -17    5.18   10.54
  -3  -2  17    4.11    9.85
   6   2  13  402.46  186.47
  -6   2 -13  398.78  191.29
  -6   2  13  425.94  211.20
  -6  -2 -13  440.66  227.66
  -6  -2  13  380.54  183.29
   6  -2 -13  410.30  178.14
   6   2 -13  368.15  147.65
  -5   0 -15   -0.45   11.67
  -5   0  15    0.52    3.41
   5   0 -15   -0.06    2.96
  -5   0 -15    0.05    3.20
  -6   8  -8    0.69   10.60
  -6   8   8    0.56    7.99
   6   8  -8    1.06    7.04
  -6  -8   8   -0.43   54.09
   6  -8   8    1.47    6.26
  -6  -8  -8    0.77   10.43
  -6   8   8    1.37    9.70
   6   8   8    0.91    7.72
   6  -8  -8    0.92    4.24
   3 -10 -11  113.74   59.03
  -3  10 -11  115.96   81.64
  -3  10  11  133.50   98.31
   3 -10  11   96.39   52.50
  -3 -10  11   72.90  161.33
   3 -10 -11   38.65  116.54
  -3 -10 -11  127.49   91.59
   3  10 -11   93.73   53.92
  -3 -10 -11   37.36  103.23
   3 -10 -11  107.65   53.78
  -8   3  -6  108.86   83.08
  -8  -3  -6   98.28   81.44
   8   3   6  109.42   78.75
   8  -3  -6  100.85   61.87
  -3  13   0    0.09    5.07
   3  13   0    0.40    6.59
   3 -13   0    1.39    5.62
  -3 -13   0    1.05    9.89
  -3  13   0    0.18    5.55
  -3 -13   0    4.16   14.58
  -6  10   1   25.70   39.03
   6  10   1   22.52   23.89
   6  10  -1   21.27   26.82
   6 -10  -1   22.17   30.44
  -6 -10  -1    8.37   94.19
   6 -10   1   20.86   29.90
  -6  10  -1   24.90   39.74
  -6 -10   1  127.33  140.72
   2   6 -16    1.51    7.44
  -2  -6  16    2.05   17.36
  -2  -6 -16    1.64    7.23
   2   6 -16   -0.12   18.43
  -2   6 -16    2.83    8.86
   2  -6 -16    0.75   14.61
   2  -6 -16    0.84    5.36
  -2   6 -16   -0.27   29.07
  -2   6  16    0.65    7.57
   2  -6  16    1.26    8.12
  -2  -6 -16    2.02   17.37
  -1  13  -6   14.49  107.55
  -1 -13  -6    9.36   69.83
   1 -13  -6  197.38   93.40
   1 -13  -6   24.62   32.79
  -1  13  -6   23.26   24.55
  -1 -13   6   12.20   78.27
   1  13  -6   10.14   93.84
   1  13  -6   19.86   26.26
  -1 -13  -6   26.43   35.71
   1  13   6   24.52   34.88
  -1  13   6   26.97   38.34
  -1  -5 -17   16.34   26.31
   1   5 -17   16.39   31.29
  -1   5 -17 1245.12  193.04
   1   5 -17    9.17   82.21
   1  -5 -17   35.53   58.44
  -1  -5 -17   38.74   64.27
  -1  -5  17   19.39   30.67
  -1   5  17   17.22   21.28
   0   8  15  175.08   84.89
   0   8 -15  145.27   86.51
   0  -8  15  149.38   91.33
   0  -8 -15   54.71  150.24
   0  -8 -15  157.06   98.68
  -2  10 -12    1.08   19.68
  -2  10  12    0.69    6.11
   2  10 -12    0.27    2.92
  -2 -10 -12    0.20    8.91
   2  10 -12    0.15    2.72
   2  10 -12    0.37   13.13
  -2 -10  12    0.40   11.15
   2 -10 -12   -0.16    9.72
  -2  10 -12    0.29    4.88
   2 -10 -12    1.13    5.41
  -3 -13   1   72.79  230.34
  -3  13  -1  254.10  118.38
  -3  13   1  274.48  129.83
  -3 -13   1   97.10  205.79
   3  13   1  261.24  133.12
  -3  13  -1  276.78  128.97
  -3 -13  -1   71.39  204.81
   3 -13  -1  256.37  122.21
   3 -13   1  247.47  117.85
  -3  13   1  275.22  123.67
  -3 -13  -1   67.28  153.53
  -8  -5   3   12.32  102.65
  -8   5  -3   43.51   43.28
  -8   5   3   40.00   41.99
   8  -5   3   43.21   43.44
  -1  11 -11  364.22  163.67
   1  11 -11  246.33  445.56
   1  11 -11  327.42  129.35
   1  11  11  440.18  188.87
   1  11 -11  325.11  134.06
   1 -11  11  327.69  270.18
  -1 -11  11  245.58  270.63
   1 -11 -11  144.91  273.70
   1 -11 -11  424.48  183.68
  -1 -11 -11  137.37  248.53
  -1  11  11  448.58  208.66
   8   4  -5  773.42  300.66
  -8  -4   5  204.27  464.81
   8   4   5  926.77  384.74
  -8  -4  -5  779.60  378.60
  -8   4   5  817.64  331.40
   5  -1 -15   10.03   18.27
  -5   1 -15    4.48   72.20
  -5   1 -15   11.20   17.69
  -5  -1 -15    7.69   65.16
  -5  -1 -15   10.83   20.09
  -5   1  15    9.77   29.02
   5   1 -15   10.40   16.69
  -5  -1  15    9.91   19.01
   5   1  15    8.94   19.82
   0   9 -14    1.46    5.40
   0  -9 -14    0.24    5.54
   0   9  14   -0.24    5.77
   0  -9 -14    1.65   11.14
   1  12  -9   36.18  161.75
   1 -12   9   46.98   88.56
  -1 -12  -9   89.83   75.25
  -1  12  -9   76.64   55.70
   1 -12  -9   30.62  144.48
  -1 -12  -9  783.84  221.17
   1 -12  -9   80.47   62.91
  -1 -12   9  292.77  153.14
   1  12   9   84.20   64.91
   1  12  -9   70.91   46.57
  -1  12   9   91.58   79.76
  -6   9   6   11.99   25.96
   6  -9   6   11.40   19.52
  -6   9  -6   12.89   30.62
   6   9  -6   10.97   20.52
  -6  -9  -6    3.85   53.36
  -6   9   6   11.58   23.59
   6  -9  -6   12.90   16.95
  -7   0  11    0.18    6.30
  -7   0 -11   -0.14    7.71
   7   0 -11    0.28    4.58
   7   0  11    2.57    6.42
  -7  -8  -3  149.39  425.95
   7  -8   3  448.70  213.30
  -7   8  -3  514.40  275.47
  -7  -8   3  216.84  560.71
   7  -8  -3  456.82  197.09
   7   8  -3  449.42  191.86
  -2  13  -5   54.64  220.94
  -2 -13   5   41.94  132.55
  -2 -13   5   30.46  185.92
   2 -13  -5   68.33  159.75
   2 -13   5   90.47   49.55
  -2 -13  -5   33.55  121.50
   2  13  -5  105.36   68.05
  -2  13   5  125.06   83.60
   2 -13  -5  114.25   70.24
  -2  13  -5  119.42   69.68
   2  13   5  124.42   79.08
  -2 -13  -5  122.78   75.46
   5 -11  -4   45.62   42.24
  -5  11   4   49.85   45.76
  -5 -11  -4   16.09   93.29
  -5  11  -4   52.87   58.34
   5 -11   4   38.41   37.40
   5  11   4   45.80   33.99
  -5  11  -4   18.46  119.15
   5 -11  -4   13.54   67.98
  -5  11   4   60.44   72.10
   5  11  -4   41.24   41.31
  -5 -11  -4   43.13   40.49
   6 -10  -2   63.51   51.29
   6 -10   2   60.28   53.30
  -6  10  -2   73.44   68.08
  -6 -10   2   28.01  189.63
   6  10   2   61.32   41.17
  -6  10   2   69.80   63.23
  -6 -10  -2   18.83  144.18
   6  10  -2   60.67   48.27
   0   3 -18    0.78    5.63
   0   3 -18   -0.15    1.66
   0  -3  18    0.05    1.41
   0  -3 -18    0.23    4.83
  -3   5  16   74.50   57.04
  -3  -5  16   46.57  107.37
   3   5  16   68.65   39.06
  -3   5 -16   70.52   57.14
   3  -5  16   66.11   50.65
  -3  -5 -16  260.28  177.43
   3   5 -16   61.88   37.04
   3  -5 -16   64.08   43.39
   3  -5 -16   30.85   75.63
  -3   5 -16   41.88  174.99
  -4  12  -4   26.13   37.75
  -4  12  -4   10.13  101.04
  -4 -12  -4    7.12   55.37
  -4  12   4   24.26   28.43
   4  12   4   23.32   29.57
   4 -12  -4   22.11   29.93
  -4 -12  -4   22.97   26.21
   4 -12  -4   10.04   57.06
  -4 -12   4    5.81  134.72
  -4  12   4   30.61   37.27
  -4  -5  15   16.24   72.83
   4   5  15   20.68   24.84
   4  -5  15   20.23   27.41
   4   5 -15   17.73   22.13
  -4   5 -15  155.06   55.55
  -4  -5 -15   24.75   35.94
  -4   5  15   21.98   36.24
   4  -5 -15   19.69   27.02
  -4   5 -15   10.02  100.44
  -4  -5 -15   70.91   92.89
   4   5 -15   17.23   23.77
   7  -7   6  101.47   74.85
   7   7  -6   97.20   63.61
  -7  -7   6   28.31  259.59
  -7   7  -6  118.40  100.85
  -7   7   6   95.03   68.76
  -3 -13   2    2.15   44.62
   3  13  -2    6.74   18.85
  -3 -13  -2    3.63   40.88
   3  13   2    9.24   18.89
  -3  13   2    9.06   14.09
  -3 -13  -2    5.46   11.83
   3 -13  -2    8.51   17.02
  -3 -13  -2    2.25   27.29
  -3  13  -2    9.25   16.83
   3 -13   2    6.34   13.72
   7   1 -11  372.04  148.91
   7  -1 -11  408.32  171.93
  -7   1  11  383.71  188.21
   7   1  11  428.74  194.11
  -7  -1  11  378.52  186.63
   7  -1  11  427.62  184.85
  -7  -1 -11  429.64  230.18
  -7   1 -11  412.19  214.88
  -8   2   7   12.45   16.94
  -8   2  -7   11.84   25.91
  -8  -2  -7   13.82   27.23
   8  -2   7   14.37   15.36
   8   2  -7   13.68   18.97
   8   2   7   15.23   23.95
   8  -2  -7   13.88   16.72
  -5   7  12    6.11   18.98
  -5  -7  12   -0.26   58.69
  -5  -7 -12    5.46   19.76
   5  -7  12    4.44    9.45
   5  -7  12    4.56    9.48
   5  -7 -12    3.63   13.48
   5   7 -12    5.25   12.05
   5   7  12    5.14   12.34
  -5   7 -12    4.68   18.59
   1  -8 -15    5.86   10.26
   1  -8 -15   -0.10   33.57
   1   8  15    4.21    9.50
  -1   8  15    6.13   14.26
  -1  -8 -15    2.58   32.15
  -1  -8 -15    5.87   13.63
   1   8 -15    1.29   40.56
  -1   8 -15    5.24   15.08
  -2   0 -18   96.46  108.83
   2   0 -18    9.96   19.29
  -2   0 -18  109.45  123.62
   2   0 -18    5.93   58.47
  -2   0 -18   10.43   14.98
   2   0  18   10.81   16.79
  -2   0  18    8.24   10.95
  -3  12  -7   36.18   41.46
  -3 -12  -7   35.57   43.44
  -3 -12  -7    9.70   56.37
   3  12  -7   29.85   32.41
   3 -12  -7   33.33   34.82
   3 -12   7   33.43   25.60
  -3  12  -7   13.54  120.81
  -3  12   7   35.85   27.30
   3  12   7   37.44   35.04
  -3  12   7   38.60   47.44
   3 -12  -7   16.13   75.72
  -3 -12   7   10.90  127.07
   0  -7 -16    0.10    2.89
   0  -7 -16    0.68    8.59
   0   7  16    0.39    2.91
   0   7 -16    0.04    6.11
   1   9  14   62.38   41.94
  -1   9 -14   51.33   48.04
   1   9 -14   48.13   38.92
   1   9 -14   20.75  172.12
  -1   9  14   63.64   71.23
  -1  -9  14   35.79  103.56
   1  -9 -14   55.80   42.00
   1  -9 -14   19.69   89.05
  -1  -9 -14   19.11  118.94
  -1  -9 -14  111.51   73.57
  -7   5  -9    0.47   10.61
  -7  -5   9   -2.77   31.48
  -7  -5  -9    0.90   11.92
  -7   5   9    0.55    9.01
   7   5   9    7.23    9.95
   7  -5  -9    0.48    9.12
   7   5  -9    0.65    8.03
  -4  -3 -16   59.06  159.15
  -4   3  16   80.10   58.67
  -4   3 -16   62.77   36.41
  -4   3 -16   50.29  199.33
   4   3 -16   64.91   45.29
   4  -3 -16   70.24   48.15
  -4   3 -16   67.79   52.59
  -4  -3  16   63.86   44.43
   4   3  16   76.31   49.46
  -5   2  15    0.64    7.52
  -5  -2 -15    0.85    6.98
  -5  -2  15    0.91    6.01
  -5  -2 -15    0.27   21.44
   5  -2  15    1.12    6.08
  -5   2 -15    0.61   23.42
   5  -2 -15    0.58    6.08
  -5   2 -15    0.93    5.50
   5   2 -15    0.75    5.52
   5   6  13  219.53  106.07
  -5  -6  13   32.29  348.17
  -5   6 -13  111.40  262.08
   5   6 -13  199.83   99.59
   5  -6  13  193.03   88.61
  -5  -6 -13  247.68  149.25
   5   6 -13  195.71   80.02
  -5   6  13  244.38  144.36
   5  -6 -13  233.38  111.68
  -5   6 -13  192.58   88.46
   2  -1  18   30.16   31.39
   2   1 -18   47.48  100.88
  -2  -1 -18   95.62  125.49
   2   1 -18   30.49   33.44
  -2   1 -18   28.77   29.10
  -2   1  18   26.33   21.35
  -2   1 -18   30.18  145.76
   2  -1 -18   22.11   90.86
  -2  -1  18   24.11   20.37
   2   1  18   31.10   27.02
   2  -1 -18   41.43   32.66
   0 -14   0  354.23  154.73
   0  14   0  410.83  199.01
   1   3 -18   29.53   38.82
  -1  -3  18   33.30   32.77
  -1   3 -18   32.54   37.93
   1   3 -18   14.92  114.19
  -1  -3 -18   63.20  128.87
  -1   3 -18   26.57  139.06
   1  -3 -18  101.57  116.71
   1  -3  18   32.24   35.92
   1  -3 -18   31.21   28.59
   6  -6  11   55.75   34.70
  -6   6  11   67.94   64.88
   6  -6 -11   62.29   51.57
   6   6 -11   56.14   46.54
   6   6  11   61.39   50.12
  -6  -6  11   11.31  238.95
  -6   6 -11   70.82   71.25
   0  10  13  126.48   75.76
   0  10 -13   91.80   57.54
   0 -10 -13   30.46  110.26
   0  10 -13   66.73  227.72
   5  -8  11   94.45   55.43
   5   8 -11  110.92   83.93
   5  -8 -11  129.16   74.93
   5  -8  11  106.86   51.79
  -5   8  11  141.80  100.14
   5   8  11  121.35   66.18
  -5  -8  11   29.21  257.92
  -5   8 -11  138.73  101.97
  -8  -5  -4   61.79   50.19
   8  -5   4   73.43   59.32
   8   5  -4   61.17   40.93
  -8  -5   4   16.92  129.58
  -8   5  -4   73.71   57.44
  -6 -10   3   10.40  122.02
   6  10   3   22.40   21.08
  -6 -10  -3    5.83   88.04
   6  10  -3   23.08   29.17
   6 -10  -3   25.36   29.89
  -6  10   3   25.65   36.64
   6 -10   3   22.37   29.74
  -6  10  -3   26.45   55.92
   3  -3 -17   39.51   35.65
   3   3 -17   41.24   39.66
   3  -3 -17  168.96  109.13
   3  -3  17   44.81   41.28
  -3  -3 -17   32.58  138.75
  -3   3  17   43.06   38.72
  -3  -3 -17   42.36   34.47
  -3   3 -17   43.32   39.71
   3   3  17   44.18   33.23
  -3   3 -17   32.12  165.58
   6  -3  13   43.34   38.17
  -6   3  13   44.69   48.66
  -6  -3 -13   47.44   73.26
  -6  -3  13   37.94   38.81
   6   3 -13   38.91   28.43
   6   3  13   42.02   40.61
   6  -3 -13   44.21   53.34
   0 -14  -1    3.42    8.86
   0  14  -1    2.52   12.15
   0  14   1    4.20   13.60
   0 -14   1    2.50    7.20
  -7   6   8   19.52   28.54
   7  -6   8   18.24   28.94
   7   6  -8   17.53   25.30
  -7  -6  -8   18.76   36.90
  -7   6  -8   25.33   39.66
  -7  -6   8    0.77  113.32
   0  13   7    0.47    6.16
   0 -13   7    1.27   17.00
   0  13  -7    0.43    3.48
   0  13  -7    0.16   17.89
   0 -13  -7    0.58    5.71
   0 -13  -7   -0.19   13.15
  -3  13  -3   58.92   46.60
  -3 -13  -3   48.82   36.86
  -3  13   3   55.78   38.18
   3  13  -3   50.49   47.78
   3 -13   3   46.11   37.77
  -3 -13   3   28.99  115.57
   3  13   3   58.03   50.73
  -3 -13  -3   13.78   68.50
   3 -13  -3   53.01   46.52
  -3  13  -3   24.94  163.67
  -7   2  11  253.28  139.59
   7   2  11  277.06  142.82
  -7  -2  11  252.53  135.28
   7  -2 -11  276.52  127.43
   7  -2  11  286.24  131.63
  -7  -2 -11  290.12  170.88
   7   4 -10  286.46  144.11
  -7   4  10  295.86  159.27
  -7  -4 -10  308.49  189.53
   7  -4  10  296.97  122.90
  -7   4 -10  277.78  150.96
   7  -4 -10  312.77  150.71
   7   4  10  307.12  191.96
   6  -7 -10   39.18   39.04
   6   7 -10   33.10   36.08
   6   7  10   36.28   39.35
  -6  -7 -10   41.86   56.35
  -6  -7  10   11.63  196.78
  -6   7 -10   45.34   56.37
  -6   7  10   44.75   69.90
   6  -7  10   33.38   34.06
   1   7 -16   27.16   30.77
  -1  -7 -16   19.35   73.69
   1  -7  16   27.10   33.45
   1   7 -16   11.91   86.89
  -1   7  16   30.12   28.44
   1  -7 -16   13.16   64.50
  -1   7 -16   27.25   35.10
  -1  -7 -16   29.55   27.64
  -1  -7  16   26.76   35.90
  -7  -8   4  356.11  321.13
  -7  -8  -4   31.90  181.01
   7  -8   4  100.16   74.14
  -7   8   4  107.78   87.55
   7   8  -4   96.66   63.43
  -7   8  -4  114.74   97.85
   4  10  10   73.32   42.80
  -4 -10 -10   23.20   77.44
  -4  10  10   91.79   74.32
   4 -10 -10   77.57   46.01
   4 -10 -10   22.68   74.87
  -4  10 -10   75.70   67.32
  -4  10 -10   41.82  207.25
  -4 -10  10   22.19  179.48
   4  10 -10   57.79   41.05
  -4 -10 -10   80.81   70.59
   4 -10 -10   75.56   47.55
   4 -10  10   51.35   35.40
   4  11   8   73.98   41.87
  -4  11   8   94.32   78.75
  -4 -11  -8   84.16   68.73
   4 -11  -8   29.82   93.84
  -4  11  -8   39.85  168.12
  -4 -11   8   30.72  203.39
  -4  11  -8   81.54   71.16
   4 -11   8   62.41   40.69
   4  11  -8   62.24   47.13
   4  11   8   80.67   48.00
   0  14  -2   21.92   26.72
   0 -14  -2   18.60   22.64
   0 -14   2   15.23   15.76
   0  14   2   21.45   30.67
  -8  -6   0  317.19  574.22
  -8   6   0  813.96  406.05
   8  -6   0  749.29  310.33
  -6  -5 -12    5.24   19.13
  -6   5 -12    4.80   12.54
   6   5 -12    4.68   13.77
  -6   5 -12    5.39   24.32
   6  -5 -12    4.24   14.63
   6  -5  12    5.72   11.16
  -6   5  12    4.99   18.39
  -6  -5  12    2.56   64.85
   3   8 -14    0.55    3.59
  -3  -8  14   -0.60   13.66
   3  -8 -14    0.20    5.63
  -3   8  14    0.72    7.25
  -3  -8 -14    1.40    7.38
   3   8 -14    0.83    3.90
  -3  -8 -14   -0.44   11.48
  -1  14   0    0.01    4.00
   1 -14   0    0.05    3.11
   1  14   0    0.41    4.78
  -1 -14   0    0.27    2.52
  -1 -14   0    2.36   11.99
  -5 -11  -5   15.28   79.71
  -5 -11   5   13.78  142.59
   5 -11  -5   39.86   38.01
  -5 -11  -5   36.52   39.17
  -5  11   5   48.36   49.96
  -5  11  -5   45.89   54.32
  -5  11  -5   18.82  110.78
   5  11   5   38.16   30.06
   5 -11   5   32.31   31.83
   5  11  -5   35.88   38.17
   2   2 -18   35.55  109.98
   2  -2 -18   42.04   36.31
   2   2 -18   41.91   40.83
  -2   2 -18   43.34   49.69
   2   2  18   41.75   29.82
  -2   2 -18   26.54  162.88
   2  -2 -18   32.51  109.95
  -2   2  18   38.70   28.85
   2  -2  18   43.59   39.36
  -2  -2 -18   22.93  137.14
  -8   0   8   36.66   32.65
  -8   0  -8   40.24   47.22
   8   0   8   44.38   37.06
  -8  -4  -6   85.34   73.74
   8  -4  -6   86.48   59.21
   8   4  -6   80.57   51.82
  -1  10 -13  134.53  339.90
   1 -10 -13  222.13  107.23
   1  10 -13  113.28  286.98
  -1 -10  13  130.55  189.65
   1  10  13  236.83  109.67
   1 -10 -13   83.57  180.49
  -1  10 -13  184.54  103.04
  -1  10  13  239.45  127.82
  -1 -10 -13   69.39  167.29
  -1 -10 -13  223.82  120.97
   1  10 -13  175.48   85.71
   1 -10  13  182.10   98.68
   4 -12  -5   37.83   39.47
  -4 -12   5   14.86  170.24
  -4  12  -5   17.41  134.37
  -4 -12  -5    9.29   66.25
   4  12  -5   33.86   38.26
   4  12   5   42.05   40.04
  -4 -12  -5   37.62   38.83
  -4  12  -5   42.38   51.61
   4 -12  -5  188.69   93.62
  -8  -6  -1   99.99  293.21
  -8  -6   1  124.74  321.90
   8  -6   1  256.84  130.43
  -8   6  -1  279.52  156.45
   1  14   1   29.07   38.45
  -1  14  -1   26.06   29.93
  -1 -14   1   11.80   85.35
  -1  14   1   28.67   33.75
  -1 -14  -1   24.06   23.50
   1 -14  -1   27.71   26.86
   1 -14   1   22.42   23.87
   1  14  -1   35.13   36.32
  -1 -14  -1   13.39   89.28
  -8   3  -7  175.90  112.46
  -8  -3  -7  180.43  122.18
   8  -3  -7  185.68   93.77
   8   3   7  196.96  111.47
  -8   3   7  155.85   87.04
  -1  13   7  110.87   80.69
   1  13  -7   54.97  172.98
  -1  13  -7   55.77  206.16
   1 -13  -7   36.46  153.60
  -1 -13  -7   36.14  136.14
   1  13   7  109.17   72.61
  -1 -13   7   31.83  154.23
  -1  13  -7   98.40   70.19
   1 -13  -7  107.22   70.09
  -1 -13  -7  114.14   78.21
   1  13  -7   90.57   54.99
   2 -13  -6  115.39   71.53
  -2 -13  -6   36.41  126.10
   2  13  -6  103.05   65.55
  -2  13  -6  120.67   71.28
   2  13  -6   59.13  167.22
  -2 -13  -6  122.83   79.86
   2 -13  -6  165.16  171.89
  -2 -13   6  158.79  213.39
  -2  13  -6   59.42  229.16
   2  13   6  121.90   76.60
  -2  13   6  144.93  121.25
   2 -13   6   84.96   46.19
  -8  -1  -8  140.95   99.82
   8   1   8  152.59   86.90
   8  -1   8  152.03   77.27
  -8   1   8  128.61   75.35
  -2   5 -17   26.05   33.88
  -2  -5  17   18.49   62.60
  -2   5 -17   18.65  112.43
   2  -5 -17   23.91   22.88
   2  -5 -17   27.61   58.69
  -2   5  17   26.94   27.39
  -2  -5 -17   94.29  107.00
   2  -5  17   25.36   32.01
   2   5 -17   13.76   70.91
   2   5 -17   24.41   31.02
  -2  -5 -17   24.58   25.51
  -5 -10  -8    0.67    9.47
  -5 -10   8    0.78   33.53
  -5  10  -8    0.21   10.71
   5 -10  -8    1.78    5.97
  -5  10  -8    0.41   21.20
  -5  10   8    1.35   10.37
   5  10  -8    0.38    6.89
  -3   7 -15   82.87   67.25
   3  -7 -15   32.35   87.52
   3   7 -15   70.54   44.31
  -3  -7  15   53.04  119.24
   3  -7 -15   76.20   43.70
   3   7 -15   69.23   39.00
   3  -7  15   78.38   52.75
  -3  -7 -15   81.42  116.51
  -3   7  15   90.84   66.68
  -3  -7 -15   86.53   65.41
   5   5 -14   29.52   30.40
  -5  -5  14    3.77  126.28
   5   5 -14   28.17   23.60
  -5   5 -14   35.37   40.05
  -5   5 -14   28.30   24.67
   5  -5 -14   32.89   45.12
  -5   5 -14   19.05  101.80
  -5   5  14   38.19   44.02
   5   5  14   31.90   31.15
  -5  -5 -14   69.70   97.61
   2  11 -11    8.65   12.77
   2 -11  11    8.08   13.75
   2  11 -11    8.16   41.60
  -2  11  11   10.98   24.99
  -2  11 -11    9.26   19.60
  -2 -11  11    5.39   46.07
   2 -11 -11    5.15   38.84
  -2 -11 -11    3.48   33.92
  -2 -11 -11   14.29   26.07
   3  -9 -13   39.19  104.27
   3  -9  13  106.87   58.76
  -3   9 -13  119.76   82.83
   3  -9 -13  114.00   54.94
  -3   9  13  135.62   91.76
  -3  -9  13   75.72  154.17
  -3  -9 -13   46.67  122.37
   3   9 -13   96.03   47.89
   3  -9 -13  125.15   60.34
   3   9 -13   99.14   52.97
  -3  -9 -13  129.54   89.77
   6  -9  -7  290.81  128.13
  -6  -9   7   91.13  409.40
  -6   9  -7  341.62  200.85
  -6   9   7  334.84  197.51
   6   9  -7  274.05  137.82
   6  -9   7  255.23  129.10
  -2  12  -9   54.70   49.60
   2 -12  -9   55.75   48.23
  -2 -12  -9   31.50   85.83
   2 -12   9   40.03   66.49
  -2 -12  -9   64.30   58.35
  -2  12   9   61.80   63.42
   2 -12  -9  183.98  128.50
  -2 -12   9   23.99  144.96
   2  12  -9   46.49   36.69
   2  12  -9   23.26  104.78
   2  12   9   57.01   45.84
   6  10  -4  282.82  160.30
  -6 -10  -4   84.55  273.98
  -6 -10   4   96.44  407.90
  -6  10  -4  331.19  187.91
   6 -10   4  265.81  132.31
   5   3 -15    5.22   12.18
  -5  -3  15    5.67   14.06
  -5   3  15    6.84   18.60
  -5  -3 -15    7.59   18.25
   5  -3 -15    5.55   14.81
  -5   3 -15    5.29   11.99
   5   3  15    7.40   14.69
   5  -3  15    8.77   14.50
  -5  -3 -15    1.60   44.28
  -5   3 -15    2.82   50.57
   0  -4 -18  585.44  320.47
   0  -4 -18  168.12   81.01
   0   4 -18  120.02  298.01
   0  -4  18  184.66  103.70
   0   4 -18  179.67  110.83
  -8   6  -2   56.76   53.96
  -8  -6  -2   17.17  116.45
   8  -6   2   49.41   44.57
  -8  -6   2   20.87  127.59
   8  -6  -2   44.65   35.41
   0  -6  17    6.79   24.87
   0   6 -17    1.62   70.26
   0  -6 -17   14.02   46.20
   0   6 -17   21.58   25.57
   3 -11 -10   -0.00   11.28
  -3  11 -10    0.89    6.79
   3  11 -10    0.95    4.50
  -3 -11  10    2.57   21.83
   3 -11 -10    0.10    3.45
   3  11  10    0.78    4.40
  -3 -11 -10    1.06    7.79
  -3 -11 -10    0.51    9.79
   3 -11 -10    0.45    5.02
  -3  11  10    0.88    8.12
   1 -14   2    6.46   12.48
  -1 -14   2    6.20   53.79
  -1 -14  -2    2.61   80.07
  -1  14  -2    9.43   16.15
  -1 -14  -2   10.17   21.07
   1 -14  -2   10.03   17.20
   1  14   2    9.53   23.20
  -1  14   2   11.73   21.06
   1  14  -2   10.16   20.02
  -4  -8 -13   91.00  155.36
   4   8 -13  189.91   89.07
  -4  -8  13   99.25  427.38
  -4  -8 -13  250.09  141.32
   4  -8  13  156.65   72.88
   4  -8  13  210.56   93.39
   4  -8 -13  232.83  104.11
  -4   8 -13  242.39  138.23
   4   8  13  224.58   93.62
  -4   8  13  254.94  142.74
  -3  13  -4  113.05   73.12
   3 -13   4   87.80   54.75
  -3  13   4  115.59   81.53
   3  13  -4   95.51   68.90
  -3 -13  -4   29.77   99.11
  -3  13  -4   51.71  226.90
  -3 -13  -4   99.95   62.70
  -3  13   4  107.77   57.08
   3 -13  -4  103.54   69.42
   3 -13  -4   68.10  154.83
   3  13   4  110.78   74.10
  -3 -13   4   31.63  276.31
   0 -12 -10    2.43   31.73
   0 -12  10    2.66   26.54
   0 -12 -10    6.28   16.92
   0  12 -10    4.83   10.68
   0  12  10    7.89   17.64
   0  14   3   19.88   31.42
   0  14  -3   16.15   24.51
   0 -14  -3   18.18   23.90
  -7   7  -7   77.07   78.37
  -7  -7   7   28.69  214.01
  -7   7   7   68.99   61.26
   7  -7   7   59.88   54.05
   7   7  -7   63.17   49.57
   7   7   7   65.76   62.32
  -7   7   7   59.98   55.42
   4   7 -14   47.26   30.07
  -4   7 -14   22.03  154.86
   4  -7 -14   55.03   40.40
  -4   7 -14   58.65   54.19
   4   7  14   54.62   34.88
  -4   7  14   59.80   56.80
  -4  -7 -14   31.82   78.86
   4   7 -14   45.62   34.40
   4  -7  14   50.35   38.04
  -4  -7  14   35.62  107.54
  -5   9 -10   11.36   98.44
  -5  -9  10   14.10  117.22
  -5   9  10   29.67   41.44
  -5   9 -10   26.05   39.67
   5  -9  10   16.81   18.80
   5  -9 -10   24.36   28.21
  -5  -9 -10   28.28   40.89
   5   9 -10   19.55   26.49
  -6   8  -9  234.68  158.06
  -6   8  -9   89.77  244.29
   6   8  -9  176.01   99.25
   6  -8   9  171.38   94.37
  -6  -8   9  109.70  467.98
  -6  -8  -9  208.79  147.73
  -6   8   9  233.28  149.16
  -8  -5   5   24.02  158.66
  -8   5  -5  106.04   76.82
   8   5   5  111.28   83.38
   8   5  -5   95.20   56.75
   8  -5   5  107.21   78.70
  -8  -5  -5   91.71   73.37
   7  -3 -11    8.94   16.46
   7   3  11    7.88   19.13
   7  -3  11    8.38   14.57
  -7   3  11    6.45   18.57
   7   3 -11    7.28   17.66
  -7   3 -11    7.29   18.91
  -7  -3 -11    8.99   23.79
   2   8 -15   54.23   39.17
   2  -8  15   55.20   45.35
   2  -8 -15   56.63   31.73
  -2  -8 -15   27.44   95.70
  -2  -8  15  131.68  112.94
   2  -8 -15   25.14   95.32
  -2  -8 -15   66.32   52.29
  -2   8 -15   59.80   52.70
  -2   8  15   69.13   53.86
   2   8 -15   49.68   29.07
  -4  -4 -16   86.16  198.57
  -4   4  16   99.08   72.57
   4  -4 -16   86.34   57.58
  -4   4 -16   95.27   66.56
   4  -4  16   86.31   59.53
  -4   4 -16   60.89  203.08
   4   4  16   97.66   56.57
   4   4 -16   82.72   51.96
   7  -8  -5  106.84   60.93
   7   8  -5  109.78   66.28
  -7   8   5  120.71   84.53
  -7  -8  -5   35.93  177.90
  -7  -8  -5  101.73   80.90
   7  -8   5  107.92   75.81
  -7  -8   5   34.01  271.33
  -7   8  -5  131.29  135.88
   8   2   8   18.70   26.80
  -8   2  -8   16.34   28.26
   8  -2  -8   17.57   19.33
  -8  -2  -8   16.96   31.45
  -8   2   8   15.36   19.79
   8  -2   8   16.78   17.90
   8   2  -8   15.95   22.45
   2  -9  14  148.71   81.90
  -2  -9 -14  180.72  102.38
   2  -9 -14   61.45  135.05
   2   9 -14  138.18   68.14
   2  -9 -14  161.20   72.83
  -2   9  14  192.34  107.93
  -2   9 -14  160.74   97.47
  -2  -9  14  103.49  171.34
   2   9 -14  138.25   61.75
  -2  -9 -14   67.87  163.73
  -6   0  14  107.56   76.87
   6   0 -14  106.25   63.42
  -6   0 -14  113.42   80.51
   6   0  14  110.77   72.34
   0 -11  12  100.52   34.79
   0  11  12    0.73   18.19
   0  11 -12    0.08   13.01
   0 -11 -12    0.77   18.93
   0 -11 -12   -0.43   33.08
  -1   4  18   41.36   27.65
  -1   4 -18   28.34  157.21
   1  -4 -18  155.39  136.90
  -1  -4  18   44.39   40.63
   1  -4 -18   43.87   31.72
  -1   4 -18   43.63   45.91
   1  -4  18   44.51   60.82
   1   4 -18   29.34  129.79
  -1  -4 -18  149.85  145.85
   1   4 -18   43.72   44.60
  -1  -6 -17  272.95  119.94
  -1   6  17  282.39  125.99
   1  -6 -17  313.71  260.01
  -1   6 -17  297.32  153.32
   1   6 -17  159.03  302.86
  -1   6 -17  169.07  337.43
   1  -6 -17  282.17  114.44
   1  -6  17  290.19  148.22
   1   6 -17  276.86  140.77
  -1  -6 -17  634.04  312.41
  -1  -6  17  299.23  155.05
   3  12  -8   49.10   41.20
  -3 -12  -8   12.12   70.75
   3 -12   8   43.86   29.12
  -3  12   8   60.82   36.18
  -3  12  -8    6.74  160.02
   3 -12  -8   61.61   46.45
  -3  12   8   88.04   67.62
  -3  12  -8   61.65   72.62
  -3 -12  -8   68.69   60.95
  -3 -12   8   40.01  171.95
   3  12   8   64.10   45.29
   3 -12  -8   20.59   96.41
  -8  -6  -3    2.47   49.00
   8  -6   3    7.99   18.42
  -8  -6   3    1.05   54.83
  -8   6   3    8.29   19.03
  -8   6  -3    9.33   22.46
   3   4  17   48.46   31.97
   3  -4 -17   44.84   36.49
   3   4 -17   46.69   40.30
   3  -4  17   48.05   42.55
  -3  -4  17   29.30   80.85
  -3  -4 -17   46.62   36.75
  -3   4  17   49.99   42.11
  -3  -4 -17   95.14  152.36
  -3   4 -17   37.68  173.49
  -3   4 -17   49.14   44.41
  -1  12  10   89.90   70.00
   1 -12 -10   81.99   58.80
   1 -12  10   43.40   85.04
  -1 -12 -10   47.85  112.53
  -1 -12 -10   88.99   71.88
   1  12 -10   66.39   40.02
   1  12  10   84.89   58.35
   1 -12 -10   58.70  123.04
  -1 -12  10   59.03  116.89
  -1  12 -10   74.73   51.74
   1  12 -10   36.66  137.87
   6   4  13  118.31   75.43
  -6  -4 -13  128.24   98.80
   6   4 -13  112.66   74.11
  -6   4  13  132.37   93.20
  -6   4 -13  114.31   73.35
   6  -4  13  123.13   70.24
   6  -4 -13  121.91   76.63
   4  -9  12   10.98   12.57
   4  -9  12   15.46   15.67
  -4  -9 -12    3.34   38.20
  -4  -9 -12   19.63   32.16
   4   9 -12   14.11   18.78
  -4   9 -12   18.83   30.23
   4   9  12   17.92   16.22
   4  -9 -12   19.57   20.33
  -4  -9  12   11.11   85.39
  -4   9  12   21.69   33.73
  -1 -14  -3  280.60  130.22
   1  14  -3  266.55  131.45
   1 -14   3  218.52   95.71
  -1 -14  -3   82.03  221.41
  -1  14   3  295.72  150.06
  -1  14  -3  268.10  142.20
   1  14   3  296.97  186.49
   1 -14  -3  267.09  127.16
  -1 -14   3  103.50  262.68
   2   3  18  118.91   68.86
  -2   3 -18  121.28   76.60
   2   3 -18   78.60  191.13
  -2  -3 -18   94.87  245.03
  -2   3  18  112.48   63.09
   2  -3  18  126.42   79.26
   2  -3 -18  117.41   68.10
   2  -3 -18  451.24  245.94
   2   3 -18  124.91  104.70
  -2   3 -18   87.50  274.22
  -6   1 -14   19.46   28.08
   6   1  14   18.29   26.88
  -6  -1  14   17.59   27.59
  -6   1  14   16.96   30.07
  -6  -1 -14   20.53   31.70
   6   1 -14   17.75   21.45
   6  -1 -14   18.70   24.21
   6  -1  14   20.53   26.54
   3  -6  16   11.47   20.55
  -3   6 -16    3.25   73.94
  -3  -6  16   11.37   47.11
   3   6 -16   11.78   18.11
   3  -6 -16   11.48   15.60
  -3   6  16   14.83   32.66
   3  -6 -16    6.66   32.98
  -3   6 -16   11.90   24.39
  -3  -6 -16   26.57   61.30
  -4   6 -15  230.99  138.86
  -4  -6 -15  850.07  387.09
   4   6 -15  196.95   91.26
   4   6  15  223.27   99.99
  -4   6  15  239.83  170.30
   4  -6 -15  216.03  105.84
  -4   6 -15  123.77  312.51
  -4  -6  15  151.60  238.43
   4  -6  15  205.11  104.61
   3 -10 -12    1.64   20.29
  -3  10 -12    0.95   48.81
   3 -10 -12    2.35    7.19
  -3 -10  12    4.07   28.64
   3 -10 -12    3.24    9.23
  -3 -10 -12    0.88   22.46
   3 -10  12    2.70    8.10
  -3  10 -12    3.75   13.88
  -3  10  12    5.24   15.92
  -3 -10 -12    4.43   15.61
   3  10 -12    3.90    8.18
  -5  11   6   47.90   49.85
  -5  11  -6   43.70   53.30
   5 -11   6   30.20   29.07
  -5  11   6   40.50   40.06
  -5 -11  -6    7.47   73.00
  -5 -11   6   -0.07  196.34
  -5  11  -6   12.23  109.93
   5 -11  -6   40.49   37.02
  -5 -11  -6   40.14   42.12
   5  11  -6   36.54   51.52
  -2  -7 -16   10.56   18.41
  -2  -7  16    7.97   43.35
  -2  -7 -16   14.33   44.25
  -2   7 -16    9.68   22.52
   2  -7 -16    6.46   36.61
   2   7 -16    4.15   42.66
  -2   7  16   12.33   19.33
   2   7 -16    8.81   17.26
   2  -7 -16    9.65   12.14
   2  -7  16    9.11   19.03
  -4 -12  -6   17.22   82.09
  -4  12  -6   94.91   78.20
  -4 -12  -6   82.67   62.48
   4 -12   6   67.31   48.18
  -4  12   6  118.21   61.55
  -4  12   6  101.49   79.49
  -4 -12   6   50.98  228.57
  -4  12  -6   43.29  184.57
   4 -12  -6   85.89   59.21
   4  12  -6   71.68   54.43
   4  12   6   91.81   59.02
   4 -12  -6   46.47  107.86
   0  14  -4    1.44    7.40
   0  14   4    1.93   10.76
   0 -14  -4    2.32    8.79
   0 -14  -4   -1.44   21.82
  -4   0  17    0.15    4.48
  -4   0 -17    0.26    3.65
   4   0  17    1.43    4.87
  -4   0 -17   -0.58   22.28
   4   0 -17    0.20    4.70
  -7  -9   0    3.23   16.32
  -7   9   0    0.63    5.98
   7  -9   0   -0.06    4.45
   0  13   8    2.35    6.37
   0  13  -8    0.19    3.32
   0 -13  -8    0.77    9.24
   0 -13  -8    0.61   14.05
   0  13  -8    0.75   18.17
   0 -13   8   -0.89    9.00
   6  10  -5   16.35   24.58
  -6 -10  -5   17.53   26.67
  -6  10  -5   16.76   36.71
  -6  10   5   16.66   26.99
  -6 -10  -5    8.04   62.91
  -6  10   5   19.14   30.58
   6 -10  -5   17.32   22.33
   6 -10   5   14.18   23.67
  -6 -10   5    9.79  104.03
   1  11 -12    6.95   75.13
  -1 -11 -12    7.27   48.45
  -1  11  12   16.74   28.74
  -1 -11 -12   17.25   27.90
  -1 -11  12   10.06   48.67
   1  11 -12   13.27   16.05
  -1  11 -12   12.46   22.02
   1  11  12   17.49   23.38
   1 -11  12   11.09   40.78
   1 -11 -12    7.93   51.02
   1 -11 -12   17.33   23.82
   0   0 -19   -2.97   23.67
   0   0 -19    0.42    4.17
  -7   9  -1    6.00   20.10
  -7  -9   1    5.64   55.27
  -7   9   1    7.23   19.01
   7  -9   1    5.29   15.09
  -7  -9  -1    2.13   51.22
   7   9  -1    5.61   11.08
   7  -9  -1    5.51   14.42
  -3 -13   5   28.81  151.89
  -3  13   5   55.92   36.91
  -3  13   5   63.74   57.24
  -3  13  -5   25.89  161.53
   3 -13   5   45.26   33.79
   3  13  -5   49.35   45.06
   3  13   5   63.54   51.32
   3 -13  -5   54.46  102.40
  -3 -13  -5   56.21   45.77
  -3  13  -5   59.93   50.31
  -3 -13  -5   13.19   74.04
  -2  14   0   31.21   30.44
   2  14   0   30.68   38.28
   2 -14   0   27.02   28.85
  -2 -14   0    8.98   83.44
  -4   1  17   31.95   32.39
  -4  -1  17   28.82   28.99
   4   1  17   31.37   31.73
   4   1 -17   27.22   29.85
  -4   1 -17  111.02  151.96
  -4   1 -17   28.08   24.12
  -4  -1 -17   59.36  139.92
   4  -1  17   30.95   33.67
  -4  -1 -17   31.51   27.63
   8  -4  -7    9.38   16.34
  -8   4   7    5.33   13.34
  -8  -4  -7    8.18   22.96
  -8   4  -7   14.51   20.87
   8   4   7   10.05   21.17
   8   4  -7    6.55   15.09
  -7   5 -10    1.41    8.43
  -7  -5 -10    2.03   16.41
   7   5 -10    1.08    7.88
  -7  -5  10    0.41   28.64
   7   5  10    1.49    9.14
   7  -5 -10    1.70    8.44
  -7   5  10    1.61    9.23
  -7   5 -10    0.99    9.74
  -7   0 -12    1.17    9.96
   7   0  12    1.54    8.09
  -7   0  12    1.11    8.26
   7   0 -12    1.26    5.91
  -7  -6  -9    5.38   17.79
   7  -6  -9    3.04   13.31
  -7  -6   9   -1.68   54.57
  -7   6  -9    4.39   18.13
   7  -6   9    5.35   13.11
   7   6   9    3.23   14.27
   7   6  -9    2.94   11.74
  -7   6   9    3.20   14.55
   2  10 -13    0.63   15.52
  -2 -10 -13    0.05    7.06
  -2  10  13   -0.24   10.39
  -2 -10  13   -1.25   13.53
   2  10  13    0.26    4.24
   2  10 -13    0.23    3.43
  -2  10 -13   -2.54   24.66
   2 -10  13    0.32    4.64
  -2  10 -13    1.88    6.27
   2 -10 -13   15.46   12.13
  -2 -10 -13    0.68   10.91
   2 -10 -13    0.82    4.73
   2  10 -13   -0.01    3.33
   0   1 -19   -0.21    6.26
   0   1 -19    0.08   23.79
   0  -1 -19    0.36    5.42
   0  -1 -19   -4.33   21.24
   0  -1  19    1.91    4.70
   2  14  -1  157.22   96.86
  -2  14  -1  154.04   81.61
   2 -14  -1  158.97   84.64
  -2 -14   1   65.63  182.82
   2  14   1  166.73  101.93
   2 -14   1  149.59   79.10
  -2  14   1  160.90   89.55
  -2  14  -1  154.98   75.14
  -2 -14  -1  142.11   69.61
  -2 -14  -1   45.07  136.83
   6   2  14   38.25   39.70
  -6   2  14   41.13   63.23
  -6  -2 -14   42.00   49.31
  -6  -2  14   39.46   39.16
   6  -2 -14   39.25   37.41
  -6   2 -14   37.28   38.96
  -2  13   7  145.59   99.25
  -2 -13  -7   40.18  133.50
  -2 -13  -7  140.98   90.73
   2  13  -7  113.60   66.76
   2  13  -7   60.01  171.00
  -2  13  -7   68.07  230.29
  -2 -13   7   30.85  199.21
   2  13   7  134.34   80.41
   2 -13  -7   49.28  166.03
  -2  13  -7  129.53   75.38
   2 -13  -7  129.49   78.02
   7  -1  12  314.95  147.13
   7   1 -12  276.39  115.33
  -7  -1  12  275.72  143.57
  -7   1  12  277.25  148.28
   7   1  12  297.03  148.94
  -7   1 -12  297.27  167.49
   7  -1 -12  295.89  132.03
  -7  -1 -12  310.48  179.66
   3   0 -18   29.05   35.42
  -3   0  18   26.84   28.78
  -3   0 -18 1437.20  261.67
  -5 -12   0   -0.54   14.98
   5 -12   0    1.12   11.86
   5  12   0    0.46    4.56
  -5  12   0    0.11    5.56
   5 -12   0    0.26    6.61
  -8   6   4   52.99   49.16
  -8  -6   4   13.21  131.70
   8  -6   4   48.81   49.62
  -8   6  -4   56.24   58.32
   7  -9   2   41.91   42.92
  -7   9   2   48.30   51.37
   7   9  -2   42.19   35.32
  -7  -9  -2   23.40  127.81
   7  -9  -2   45.59   40.24
  -7   9  -2   48.73   56.64
  -7  -9   2   23.15  179.86
  -5   4 -15    0.63   49.54
   5   4  15    6.77   14.74
  -5   4 -15    5.70   15.66
   5   4 -15    9.80   15.57
  -5   4  15    6.97   19.61
  -5  -4 -15    1.91   42.48
   5  -4 -15    6.22   15.60
  -5   4 -15    5.61   11.21
  -1  14  -4  342.70  163.09
   1  14  -4  344.54  157.28
  -1 -14  -4  115.99  262.20
  -1 -14  -4  386.85  171.70
  -1  14   4  399.38  189.98
   1 -14  -4  138.31  309.77
  -1  14  -4  201.02  427.47
   1 -14  -4  367.57  163.16
   1  14   4  390.25  186.62
  -1 -14   4  139.63  304.10
  -9   0  -2  436.47  185.23
   4 -11   9   49.22   33.52
  -4  11   9   93.88   51.18
  -4 -11  -9   17.33   61.22
   4  11  -9   52.67   40.59
  -4 -11  -9   71.99   63.58
   4  11   9   64.59   37.66
  -4  11  -9   71.11   86.95
  -4 -11   9   34.68  183.54
   4 -11  -9   21.65   76.32
  -4  11   9   82.46   95.34
   4 -11  -9   72.62   47.07
  -8   3   8    1.20    6.68
   8  -3  -8    1.57    7.11
  -8   3  -8    1.75    9.71
   8   3   8    2.24   13.31
  -8  -3  -8    1.60   11.19
  -8  -5  -6    3.80   14.22
   8   5  -6    3.36    9.60
  -8  -5   6    1.54   32.90
   8  -5   6    3.26   13.51
   5  12  -1    0.74    7.20
   5 -12   1    1.01   18.65
  -5 -12  -1    1.21   27.57
   5  12   1    1.51    9.49
  -5 -12   1    1.33   24.08
  -5  12   1    0.25    8.26
   5 -12   1    1.41    6.99
  -5  12  -1    1.03    8.88
   1 -13   8    0.41   13.58
  -1  13   8   36.84   20.61
  -1 -13  -8    2.85   12.42
  -1  13  -8    0.93    8.37
  -1 -13   8    2.84   29.02
   1  13  -8   -0.14   30.18
   1  13  -8    0.69    7.22
  -1  13  -8    4.58   35.88
   1  13   8    1.01   11.30
   1 -13  -8   -0.38   27.81
  -1 -13  -8    1.20   23.36
  -1   0 -19    1.51    5.18
   1   0 -19    0.52    5.90
   1   0  19    0.42    4.71
  -1   0 -19   -2.74   27.04
   1   0 -19    0.62   22.10
  -3  -1 -18  443.11  761.45
   3  -1  18  532.68  221.56
   3   1  18  524.74  215.31
  -3  -1  18  475.05  192.42
   3  -1 -18  495.97  209.59
  -3   1  18  500.17  206.94
  -3   1 -18 1825.94  990.18
  -3  -1 -18  511.44  853.54
  -2 -14  -2    6.09   10.81
   2 -14   2    4.61   11.01
  -2  14   2    6.21   14.96
   2  14   2    6.52   17.85
  -2  14  -2    5.90   10.79
  -2 -14   2   -1.21   36.80
   2  14  -2    6.02   16.16
  -2 -14   2    0.98   29.73
  -2  14  -2    6.28   11.08
  -2 -14  -2    0.43   28.16
  -8   0   9   -0.31    2.72
   8   0   9   -0.19    3.15
  -8   0  -9    0.35    4.04
   5  -7  13   27.81   24.27
  -5   7 -13   34.98   45.08
   5   7  13   31.38   28.95
  -5  -7 -13   31.75   47.11
   5  -7  13   23.07   23.47
   5  -7 -13   32.54   32.27
  -5  -7  13    6.91  131.15
  -5   7  13   34.92   45.14
   5   7 -13   26.49   28.40
   6   9  -8    5.46   14.79
  -6   9  -8    7.49   22.67
  -6   9  -8    1.96   37.06
  -6  -9   8    1.95   65.34
   6   9   8    5.96   16.19
   6  -9   8    4.77   12.98
  -6   9   8    9.49   21.53
  -6   9   8    6.38   17.77
   7  -8   6   51.03   45.58
   7   8  -6   49.36   41.06
  -7  -8  -6   44.33   54.96
  -7   8  -6   63.35   67.36
  -7  -8   6   24.23  186.71
   0   9 -15    0.25   14.38
   0  -9 -15    0.34   19.67
   0   9  15    0.98   13.50
   0  -9 -15  159.17   40.60
   0  -9  15   -0.31   16.78
   1  -1 -19  242.93  338.82
  -1   1 -19  176.58  392.04
   1   1 -19  178.05  332.17
   1   1 -19  246.64  151.69
   1  -1 -19  239.02  115.05
  -1  -1 -19  353.97  388.97
  -1   1 -19  243.09  121.60
   1   1  19  236.49  105.20
   1  -1  19  250.03  118.86
  -1  -1 -19  237.19  109.73
   7   4 -11   16.88   25.02
  -7   4  11   18.28   28.85
  -7  -4 -11   19.61   35.41
   7  -4 -11   18.03   25.44
   7   4  11   17.58   28.39
  -7   4 -11   15.33   26.77
   7  -4  11   17.59   19.47
  -4   2 -17   51.94  199.93
  -4   2 -17   61.52   35.43
  -4  -2  17   66.88   44.51
  -4   2  17   76.98   53.99
  -4  -2 -17   72.48   46.31
  -4  -2 -17   51.01  168.68
   4   2 -17   63.55   45.94
   4  -2 -17   67.59   48.14
   6  -7 -11    3.98   13.68
   6   7 -11    4.50   12.62
   6   7  11    4.84   13.19
  -6   7 -11    6.87   19.31
  -6  -7 -11    6.44   19.56
  -6  -7  11   -1.61   70.17
  -6   7  11    6.03   18.34
   6  -7  11    2.52   11.03
   5   0 -16   65.00   47.39
  -5   0 -16   53.26  176.97
  -5   0  16   71.17   53.89
  -5   0 -16   70.87   49.25
  -6  -6  12    7.17  231.19
   6  -6 -12   66.36   53.29
   6   6 -12   59.54   48.98
   6  -6  12   63.50   38.78
  -6   6  12   72.94   68.38
  -6   6 -12   75.64   68.98
   6   6  12   64.85   49.82
   5  -8 -12   14.89   20.69
  -5   8  12   14.71   29.72
  -5  -8  12    4.62   88.01
   5  -8  12    9.42   13.55
   5   8 -12   10.18   19.02
  -5   8 -12   13.73   28.62
   5   8  12   15.08   18.08
   5  -8  12   11.18   14.02
   8  -1   9   51.06   37.98
  -8  -1  -9   48.74   53.10
  -8   1   9   41.13   36.38
  -8   1  -9   44.47   50.86
   8   1   9   51.18   44.00
   4  10  11    0.82    5.39
  -4  10 -11    1.87   10.62
   4 -10 -11    1.42    6.27
   4 -10 -11    1.47    6.71
  -4 -10  11    0.12   32.15
   4 -10  11    1.45    4.24
  -4 -10 -11   -0.36   12.93
   4  10 -11    1.40    6.20
  -4 -10 -11    3.60   11.41
  -4  10  11    2.57   11.24
  -5  10   9  168.19  115.05
   5 -10  -9  140.96   71.88
  -5 -10  -9  145.80  106.64
  -5  10   9  142.25   80.50
   5  10  -9  121.44   74.59
   5  10   9  127.17   73.63
  -5  10  -9  147.12  107.94
  -5 -10   9   42.38  298.87
   5 -10   9   96.49   69.26
   0  -5  18    0.64    6.21
   0   5 -18   -1.60   18.87
   0   5 -18    0.61    6.55
   0  -5 -18    4.87   26.82
   4  13   0  242.70  123.89
  -4 -13   0   74.34  248.55
   4 -13   0  236.94  120.17
  -4  13   0  267.99  132.64
   4 -13   0  127.23  287.65
   0   2 -19    3.48   52.75
   0  -2 -19    4.46   47.36
   0  -2 -19    6.75   11.32
   0  -2  19    4.23   12.03
   0   2 -19    4.79   15.12
   5 -12  -2    1.99    7.48
   5  12   2    0.93    6.74
  -5 -12  -2   -1.53   19.63
  -5 -12   2    1.04   25.93
  -5  12  -2    1.74    9.74
   5  12  -2    0.82    7.85
   5 -12   2   -0.65   20.07
  -5  12   2    1.00    8.50
   5 -12   2    1.16    7.00
  -7   7   8   56.34   54.94
  -7  -7   8   10.81  204.16
   7   7  -8   51.14   44.86
  -7   7  -8   71.34   74.48
   7  -7   8   51.82   47.59
   0   8 -16   75.57  211.54
   0   8 -16  130.54   81.25
   0  -8 -16  144.28   70.86
   0  -8 -16   51.41  147.05
   0   8  16  150.34   72.90
   0  -8  16  138.10   87.41
  -4  13   1   48.33   42.68
   4 -13   1   45.50  127.65
   4 -13  -1   27.87  126.63
  -4 -13  -1   20.96  135.54
   4 -13  -1   43.57   40.66
   4  13   1   46.18   43.87
   4  13  -1   43.21   44.42
   4 -13   1   43.50   40.19
  -4  13  -1   47.97   46.23
  -4 -13   1   20.10  112.51
  -5  -1  16   10.34   17.94
  -5  -1 -16    1.94   63.56
  -5  -1 -16    8.42   17.91
  -5   1 -16    3.59   70.56
   5   1  16    8.30   18.36
   5  -1  16    8.84   17.00
   5  -1 -16    7.70   16.99
   5   1 -16   12.32   17.30
  -5   1 -16    8.80   15.81
  -5   1  16    8.79   19.46
   0  14  -5   22.20  137.44
   0  14   5   53.24   50.27
   0 -14  -5   17.49   96.37
   0  14  -5   45.54   34.77
   7  -2  12   99.32   61.71
   7  -2 -12   93.87   59.79
  -7  -2  12   84.81   64.31
  -7  -2 -12  101.79   82.15
   7   2  12   96.25   69.27
  -7   2 -12   90.06   72.67
  -7   2  12   91.94   68.43
  -7   9  -3   17.29   42.14
  -7  -9  -3    8.92   94.17
  -7  -9   3  467.97  168.80
   7   9  -3   14.12   36.14
  -9   0  -3    0.96    5.22
  -2  -4  18    2.06   20.16
   2  -4 -18   12.42   31.72
  -2   4 -18    1.13   47.09
   2  -4  18    3.53   11.66
   2   4 -18    0.89   27.55
  -2  -4 -18    5.40   39.19
  -2   4 -18    3.19   11.27
   2   4 -18    3.75   11.58
  -2  -4 -18    2.24    6.60
  -2   4  18    2.51    8.29
  -2   6 -17   82.62  251.25
  -2   6 -17  148.25   93.90
   2   6 -17  138.22   79.24
  -2  -6 -17  141.82   75.39
   2  -6  17  140.29  114.09
  -2   6  17  146.87   99.12
  -2  -6  17   90.80  152.70
   2   6 -17   65.43  164.60
  -2  -6 -17  321.59  185.57
   2  -6 -17  133.45   63.01
   2  -6 -17   56.61  133.97
   5  -6  14   64.75   42.41
  -5   6  14   81.43   69.92
   5   6 -14   65.31   48.01
   5   6  14   77.80   49.64
  -5  -6  14   12.21  201.53
  -5  -6 -14   80.34   73.89
   5  -6 -14   75.78   52.26
  -5   6 -14   41.65  151.06
  -2 -12  10    8.11  211.72
   2 -12  10   28.41   60.60
   2  12  10   66.29   45.23
  -2  12 -10   61.05   48.44
  -2 -12 -10   22.41   88.74
  -2 -12 -10   67.64   58.01
   2  12 -10   50.80   34.56
   2 -12 -10   34.47   96.15
  -2  12  10   69.83   62.38
   2  12 -10   27.80   99.80
  -2  14  -3   11.45   13.77
  -2 -14  -3    2.50   39.92
  -2 -14  -3   13.28   16.85
   2  14  -3   10.39   21.04
   2 -14  -3   12.67   19.68
  -2 -14   3    2.42   43.53
  -2  14  -3   12.98   16.21
   2  14   3   12.87   24.43
  -2  14   3   12.20   22.53
  -2 -14   3    4.56   46.73
   2 -14   3    8.73   13.94
  -8   7   0    4.21   22.64
  -8  -7   0    3.17   40.80
   3   2 -18   51.40   44.20
   3  -2  18   54.63   43.41
  -3  -2 -18   48.76   31.20
  -3  -2 -18   35.86  152.35
  -3   2  18   54.04   38.89
   3   2  18   55.35   37.45
  -3  -2  18   45.00   31.30
  -3   2 -18   28.29  195.16
  -3   2 -18   48.16   37.44
   3  -2 -18   51.33   42.02
   4   5  16  260.72  112.95
   4  -5  16  232.06  116.58
  -4   5 -16  147.66  340.45
  -4  -5  16  162.65  240.37
  -4  -5 -16  932.13  460.64
   4   5 -16  212.81  102.31
   4  -5 -16  239.77  114.07
   4   5 -16  226.07  104.51
  -4  -5 -16  272.88  143.28
  -4   5  16  277.04  146.41
  -9  -1  -3   71.48   46.47
  -9   1  -3   74.96   47.78
   0 -10 -14   26.68   96.94
   0  10 -14   73.76   51.89
   0 -10 -14   90.62   59.32
   0 -10  14   45.01  107.19
   0  10  14   97.73   61.54
  -1   9 -15   39.20   42.32
  -1  -9 -15   47.40   41.39
  -1  -9  15   26.66   82.61
   1   9 -15   37.82   34.74
   1  -9 -15   44.69   32.77
   1  -9 -15   29.12   88.75
  -1  -9 -15   18.02   84.47
   1   9  15   46.65   31.47
  -1   9  15   47.26   42.51
   1  -9  15   40.31   39.20
   1   9 -15   39.93  129.56
   6 -10  -6  264.44  122.31
  -6  10   6  265.01  137.72
  -6 -10  -6   71.19  233.82
  -6  10  -6   94.28  236.52
   6  10  -6  246.90  126.29
  -6  10  -6  302.63  176.40
  -6  10   6  276.77  161.91
  -6 -10   6   75.68  391.46
  -6 -10  -6  255.79  153.76
   4 -13   2    9.00   16.96
   4  13   2   10.13   20.43
  -4  13   2   11.29   19.16
   4 -13  -2    6.62   59.14
  -4 -13   2    5.54   56.91
   4  13  -2    9.04   20.89
  -4  13  -2   11.02   21.85
  -4  13   2   10.54   18.54
   4 -13  -2   10.90   19.27
   4 -13   2    0.02   63.00
  -4 -13  -2    2.48   38.87
   8  -7   1   48.06   58.92
  -8   7   1   56.89   55.59
  -8  -7  -1   20.03  132.71
  -8   7  -1   60.26   59.52
  -8  -7   1   24.55  138.40
  -6   3  14    4.42   15.60
   6  -3  14    3.88   12.29
   6   3 -14    3.94    8.75
   6   3  14    3.84   12.79
   6  -3 -14    3.84   12.34
  -6  -3 -14    5.87   16.64
   1   5 -18   83.37   64.74
   1  -5 -18   84.69   45.06
  -1   5 -18   87.50   67.28
  -1  -5  18   91.92   64.03
   1  -5 -18  295.29  260.15
  -1   5 -18   48.88  191.23
  -1  -5 -18  298.03  205.21
   1  -5  18   88.95   64.39
   1   5 -18   47.11  162.98
  -1   5  18   78.97   45.10
   1  -2 -19   85.87  207.36
  -1   2 -19   72.76  264.13
  -1  -2 -19  111.07   56.77
  -1  -2 -19   74.09  228.37
   1  -2  19  121.73   70.81
   1   2 -19   79.87  222.71
   1   2 -19  118.50   75.97
  -1  -2  19  112.02   63.66
  -1   2 -19  116.64   73.42
   6  -8 -10    4.61   13.50
  -6   8 -10    5.71   19.91
  -6  -8  10    3.68   68.73
   6   8  10    4.63   13.14
  -6  -8 -10    6.16   20.18
  -6   8  10    5.54   26.88
   6  -8  10    2.76   10.75
   6   8 -10    4.87   12.95
  -6   8 -10    3.57   39.48
   6  11   0    0.69   10.23
  -6  11   0    0.10   15.10
  -6 -11   0  138.98   59.85
   5  11   7   33.55   34.20
  -5  11   7   39.56   46.46
   5 -11  -7   34.77   32.54
   5 -11   7   24.24   24.93
  -5  11   7   34.97   36.41
  -5  11  -7   11.00  102.33
   5  11  -7   28.51   34.04
  -5 -11  -7   35.85   40.50
  -5  11  -7   38.05   49.29
  -5 -11   7   20.94  164.41
   3 -13   6    1.02    5.12
  -3 -13  -6    0.45   13.49
  -3 -13  -6    1.20    8.95
  -3  13   6    2.80   10.93
   3 -13  -6    1.90    8.79
  -3  13  -6    0.31   32.26
   3  13   6    2.09    8.89
   3  13  -6    1.93    7.98
  -3  13   6    1.52    5.69
  -3 -13   6    2.69   31.68
  -3  13  -6    2.20    9.28
   1  -8  16    7.00   15.60
   1   8 -16    3.30   41.38
  -1  -8 -16    3.27   33.93
   1   8 -16    8.43   14.04
  -1  -8 -16    5.57   13.68
  -1   8  16    6.33   13.87
   1  -8 -16    4.37    9.31
  -1   8 -16    6.42   16.35
  -1  -8  16    3.59   48.02
   1  -8 -16    9.19   33.70
   8  -2   9   97.68   55.03
   8   2   9   98.82   68.71
   8  -2  -9   91.02   52.67
  -8  -2  -9   95.66   80.53
  -8   2   9   81.23   56.34
  -8   2  -9   87.07   74.94
   3   5 -17    2.41    9.88
  -3   5  17    1.86   10.40
  -3  -5 -17    4.82   34.78
  -3   5 -17    1.62   38.95
  -3  -5  17    0.62   21.67
  -3   5 -17    5.26   11.26
   3  -5 -17    2.34    8.07
   3   5 -17    2.02    6.51
   3   5  17    3.16    6.33
   3  -5  17    2.10   10.65
  -4  12   7  392.11  159.75
   4  12  -7  303.11  143.99
   4 -12  -7  130.43  231.59
  -4 -12  -7  372.38  187.11
  -4  12  -7  178.99  392.13
  -4  12   7  429.77  218.59
   4  12   7  372.20  151.34
  -4  12  -7  416.57  210.61
   4 -12   7  302.20  132.87
  -4 -12   7  137.13  499.99
   4  12   7  362.04  149.14
  -5 -12  -3   88.23  264.79
  -5  12   3  356.41  172.18
   5 -12  -3  350.00  163.30
   5  12   3  350.62  151.30
  -5 -12   3  112.78  408.65
  -5  12  -3  398.26  246.66
   5  12  -3  331.36  161.19
   5 -12   3  158.17  302.36
  -8   6  -5  151.31  107.26
  -8  -6   5   29.35  218.69
  -8  -6  -5  119.61   87.14
   8   6  -5  126.92   69.87
   8  -6   5  136.02   89.17
  -6   5 -13   58.93   75.84
  -6  -5 -13   60.62   64.79
  -6   5  13   65.80   62.36
  -6   5 -13   53.20   40.25
   6   5  13   56.29   46.71
   6   5 -13   54.62   45.69
   6  -5 -13   57.85   48.34
   6  -5  13   56.81   52.89
  -6   5 -13   28.80  186.00
   3  11 -11  119.72   63.10
  -3 -11 -11   44.99  111.56
  -3 -11 -11  166.47  103.94
  -3 -11  11   43.95  246.85
   3 -11 -11  126.71   58.89
   3 -11 -11   46.20  123.73
  -3  11 -11  147.67   91.88
   3 -11 -11  145.75   71.88
  -3  11  11  173.39  111.73
  -1 -14  -5   10.75   66.54
  -1  14  -5   24.28   22.08
  -1  14  -5    8.04  109.03
  -1  14   5   29.73   37.49
  -1 -14   5   10.94   75.63
   1 -14  -5   12.90   80.57
  -1 -14  -5   27.51   32.39
   1 -14  -5   26.03   31.21
   1  14  -5   26.29   26.64
   1  14   5   29.50   36.43
  -1 -14   5    6.88   71.43
   6 -11  -1    7.94   17.75
  -6 -11  -1    4.59   54.06
  -6 -11   1    3.64   68.27
   6  11   1    8.19   14.28
   6  11  -1    6.22   15.25
  -6  11  -1    9.23   23.16
  -6  11   1    7.76   22.12
   0 -12  11  130.44  181.75
   0 -12 -11  256.99  129.58
   0 -12 -11   76.15  187.78
   0  12 -11  205.92   97.13
   0  12  11  265.70  133.22
  -3 -12   9  191.17  286.04
   3 -12  -9  125.84   61.42
  -3  12  -9   71.14  240.40
   3  12   9  162.20   80.30
  -3 -12  -9   89.67  134.03
  -3  12   9  175.52  116.20
   3 -12  -9  152.56   83.60
  -3  12  -9  157.62   97.40
   3 -12  -9   52.81  150.30
   3  12  -9  123.64   69.70
  -3 -12  -9  162.70  103.77
   2 -11 -12   11.32   21.50
   2  11 -12    8.10   14.56
   2 -11  12    9.43   17.05
   2 -11 -12    5.26   46.08
  -2 -11  12  104.05   60.69
  -2  11  12   10.06   30.31
  -2 -11 -12  129.23   46.73
  -2 -11 -12    3.43   42.12
   2  11 -12    0.36   69.85
  -2  11 -12    9.94   23.95
  -5  -2 -16    1.22    6.94
  -5   2  16    0.57    7.70
   5  -2  16    1.13    6.42
   5   2 -16    0.72    5.82
   5   2  16    1.05    6.29
  -5   2 -16    1.13    5.40
   5  -2 -16    0.97    6.54
  -5   2 -16   -1.05   35.32
  -5  -2 -16    0.18   23.12
  -5  -2  16    0.65    6.19
   5   9 -11  242.97  118.59
   5  -9  11  201.56   93.68
   5   9  11  281.33  123.07
   5  -9 -11  285.98  131.15
  -5  -9  11   64.96  394.11
  -5  -9 -11  307.43  177.74
  -5   9  11  315.22  176.64
  -5   9 -11  148.83  366.61
  -5   9 -11  309.54  173.39
  -8  -7   2   22.44  170.19
   8  -7   2   84.88   62.38
  -8   7  -2   96.69   78.78
   8  -7  -2   79.48   52.41
  -8  -7  -2   21.04  154.39
   0   7 -17   -4.16   18.72
   0   7 -17    0.91    5.92
   0  -7 -17   -0.23   12.21
   0   7  17    0.53    3.51
   0  -7 -17    0.80    3.51
  -1 -10 -14   48.01  140.88
  -1 -10 -14   85.70   60.58
   1 -10 -14   29.72  101.09
   1 -10 -14   82.58   52.38
  -1  10 -14   72.42   55.64
   1  10 -14   34.32  170.39
   1 -10  14   72.53   52.68
  -1 -10  14   55.85  114.82
  -1  10  14   86.14   82.81
   1  10 -14   66.52   43.16
  -4   3 -17  164.25  110.39
   4  -3  17  170.06   95.66
   4  -3 -17  162.15   85.08
  -4   3 -17  135.93  425.41
  -4  -3 -17  129.31  261.14
  -4   3  17  186.60  103.48
   4   3  17  179.20   87.54
   4   3 -17  157.82   83.57
  -7  -9  -4   42.11  202.91
  -7  -9   4   50.29  301.14
  -7   9  -4  168.79  115.01
   7   9  -4  144.14   80.10
  -9   0  -4   43.22   36.94
   9  -2   3   23.27   26.20
  -6 -11   2    7.07   92.01
   6  11   2   14.54   17.75
  -6  11  -2   17.89   32.02
   6  11  -2   13.12   21.98
   6 -11  -2   13.72   32.77
   6 -11   2   13.92   23.29
  -6  11   2   16.44   28.38
  -6 -11  -2    5.18   66.00
   0  -3 -19   14.06   13.51
   0  -3  19    0.32   11.85
   0  -3 -19    1.50   43.82
   0   3 -19    0.64   14.34
   0   3 -19    0.85   49.10
  -4 -13  -3    9.24   61.82
   4  13  -3   29.80   36.30
  -4  13   3   37.29   37.93
   4 -13   3   95.86  115.92
   4  13   3   34.51   36.07
  -4  13   3   35.58   32.24
   4 -13   3   26.64   29.51
  -4 -13   3   15.43  101.88
   4 -13  -3   28.15  107.30
   4 -13  -3   31.14   34.82
  -4  13  -3   33.81   56.96
   8   4   8 1140.81  463.76
  -8   4   8  925.61  416.79
  -8   4  -8  999.36  436.03
   8  -4  -8 1085.82  431.54
  -8  -4  -8 1082.50  557.44
  -3  -8 -15   67.87   56.39
   3   8 -15   51.02   32.76
   3  -8  15   56.75   42.39
  -3  -8 -15   25.05   86.97
   3   8 -15   52.55   32.68
  -3   8  15   69.56   56.67
  -3  -8  15  110.62  116.92
   3  -8 -15   58.27   34.91
   3  -8 -15   26.40   80.90
   0 -13  -9    1.91   21.73
   0  13   9    0.39   20.76
   0  13  -9   -0.71   60.29
   0 -13  -9  258.81   73.11
   0 -13   9    0.63   30.31
  -8  -5  -7   85.18   78.22
   8  -5  -7   85.05   60.94
   8  -5   7   83.19   68.69
  -8  -5   7    9.89  139.42
   8   5  -7   79.47   52.06
   2  14   4   63.47   72.26
  -2 -14  -4   15.05   84.03
  -2 -14   4   17.58  136.62
  -2  14   4   60.20   53.86
  -2  14  -4   33.29  173.27
   2  14  -4   54.58   45.55
   2 -14   4   47.73   32.70
   2 -14  -4   57.02   46.92
  -2  14  -4   57.86   41.10
   2 -14  -4  313.52  148.70
  -2 -14   4   21.13   99.12
  -2 -14  -4   59.24   44.22
  -7  -3 -12    4.27   16.62
   7  -3 -12    2.15   16.16
   7  -3  12    3.29   10.37
  -7   3 -12    3.32   12.80
  -7   3  12    3.13   12.98
   7   3  12    4.17   13.06
   1 -12 -11  139.11  256.90
   1 -12  11  208.21  208.73
   1  12 -11  307.20  115.27
  -1 -12  11  225.17  259.58
  -1 -12 -11  124.22  230.48
   1 -12 -11  418.04  171.05
  -1  12 -11  341.57  144.57
   3  -9 -14  174.36   75.50
   3  -9 -14  202.51  168.06
  -3  -9  14  107.19  190.40
  -3   9 -14  185.52  110.31
   3  -9  14  158.17   80.89
   3   9 -14  152.68   71.43
  -3  -9 -14   72.57  151.24
  -3  -9 -14  196.40  116.20
  -3   9  14  204.84  118.44
  -9  -1  -4    3.69   10.84
  -9   1  -4    5.03   11.59
  -2  13   8  179.98  112.06
  -2 -13  -8   42.92  134.12
   2  13  -8   70.77  175.50
   2 -13  -8   54.82  180.06
  -2 -13   8   95.93  235.43
   2 -13  -8  160.03   87.79
   2  13   8  160.91   88.84
  -2  13  -8  150.13   83.26
   2  13  -8  132.21   71.78
  -2 -13  -8  173.62  101.86
  -2  13  -8   69.78  245.87
   2   0 -19    0.21    3.93
  -2   0 -19   -0.93   17.28
   2   0  19    0.20    3.13
   2   0 -19    0.50   12.24
  -2   0 -19    0.23    3.83
  -1   7 -17   84.03   65.11
  -1   7 -17   49.22  167.53
  -1  -7  17   90.78   68.47
  -1  -7 -17   85.47   49.29
   1  -7  17   85.10   61.71
   1   7 -17   81.96   59.54
  -1   7  17   87.40   51.75
  -1  -7 -17   81.79  125.48
   1   7 -17   46.34  146.03
   1  -7 -17   37.26  112.01
  -7  -8   7    1.40   69.12
   7   8   7   11.14   19.85
   7   8  -7    4.86   14.32
   7  -8   7    4.27   14.93
  -7   8  -7    6.71   23.89
  -7  -8  -7    5.73   19.36
  -7   8   7    5.63   16.03
  -4   8  14    3.21   13.27
   4   8  14    2.82    6.76
  -4   8 -14    3.10   13.37
  -4  -8  14    2.52   39.30
   4   8 -14    2.95    7.72
   4  -8 -14    2.24    8.78
  -4  -8 -14   -0.22   18.47
  -4  -8 -14    4.12   13.93
   4  -8  14    2.03    8.20
   3   3  18   24.10   21.98
   3  -3  18   25.73   28.83
   3   3 -18   22.65   28.87
  -3  -3 -18   24.64  100.47
  -3  -3 -18   24.29   22.44
   3   3 -18   20.39   18.27
  -3   3  18   24.59   26.04
  -3   3 -18    6.64  122.76
  -3   3 -18   23.69   26.50
  -8   7  -3    1.29   11.16
   8  -7   3    1.80    8.41
  -8  -7   3   -2.40   27.85
  -8  -7  -3    1.57   24.47
   0  14  -6   51.35   35.98
   0  14  -6   30.87  149.02
   0 -14  -6   62.49   49.84
   0 -14  -6   19.07  106.21
   0  14   6   61.27   55.15
  -5  12   4  113.31   76.02
  -5  12   4  128.92   85.52
   5  12   4  108.33   64.90
  -5  12  -4  128.33   97.40
  -5 -12   4   33.48  229.58
   5 -12  -4  114.35   75.34
  -5 -12  -4   27.76  135.06
   5  12  -4  100.84   73.45
  -5  -5  15    4.35  144.77
   5   5 -15   49.77   40.01
   5  -5  15   50.56   38.01
  -5   5  15   62.10   57.26
   5  -5 -15   55.16   45.34
  -5  -5 -15   71.60  126.92
  -5   5 -15   31.83  136.07
  -5   5 -15   55.85   50.13
   5   5 -15   48.57   31.81
  -5   5 -15   48.08   31.83
   5   5  15   58.36   41.33
  -2  -1 -19  112.27  199.71
  -2   1 -19   39.74   31.82
   2   1  19   44.87   31.24
   2  -1  19   45.44   35.66
   2   1 -19   32.94  110.89
   2  -1 -19   29.63  148.25
  -2   1 -19   43.66  169.28
   2   1 -19   43.14   38.64
  -2   1  19   32.30   23.27
  -1   3 -19  166.65  379.23
   1  -3 -19  646.85  398.74
  -1  -3 -19  312.68  370.11
   1   3 -19  159.29  319.43
   1   3 -19  229.66  125.06
  -1   3 -19  229.33  125.05
   1  -3  19  237.79  146.67
  -1  -3  19  229.23  116.56
  -7   6  10  116.80   87.27
   7  -6  10   98.33   73.74
   7   6 -10   96.94   66.26
   7   6  10  114.70   76.98
  -7   6 -10  113.95   97.73
   7  -6 -10  110.30   73.47
  -7  -6  10    9.68  242.49
  -7  -6 -10  104.21   94.82
   0  11 -13  243.01   79.31
   0 -11 -13    0.12   53.81
   0 -11 -13   -0.18   99.57
   0  11 -13   -0.66  181.57
   0 -11  13  301.59  137.41
   6 -11  -3   10.29   19.66
  -6 -11   3    6.01   78.79
  -6 -11  -3    6.73   54.06
  -6  11  -3   11.73   26.75
   6 -11   3   10.06   19.62
   6  11  -3   10.05   19.20
   8   3   9   64.56   54.15
  -8   3  -9   56.05   58.54
  -8   3   9   54.28   43.81
   8  -3  -9   62.13   44.31
   8   3  -9   54.90   44.95
  -8  -3  -9   60.40   64.35
   3  -7  16   29.44   32.88
   3  -7 -16   30.34   24.66
  -3   7  16   35.74   38.21
  -3   7 -16   34.00   40.40
   3   7 -16   27.91   21.81
  -3  -7 -16   34.50   50.44
  -3  -7 -16   50.09   72.04
  -3  -7  16   20.29   74.28
   3   7 -16   27.39   25.93
   1  13  -9   20.60   19.90
  -1 -13   9    9.14   80.53
  -1  13  -9    7.56   92.28
   1 -13  -9   53.26   80.76
  -1  13  -9   22.91   24.69
   1 -13  -9   26.03   31.52
   1  13   9   26.15   31.04
   1 -13   9    5.48   40.62
  -1  13   9   27.62   38.13
  -1 -13  -9   26.72   35.39
  -4   7  15  129.74   90.17
   4   7 -15   94.54   55.50
  -4  -7 -15  227.90  211.21
  -4   7 -15  122.19   86.67
  -4   7 -15   59.05  216.11
   4  -7  15  109.42   63.12
   4   7 -15  101.35   51.79
   4  -7 -15  113.83   63.45
  -4  -7  15   51.96  209.81
   4   7  15  114.48   54.67
  -4   9  13  158.06  102.06
  -4  -9  13   42.42  243.14
   4   9 -13  118.53   62.27
  -4  -9 -13  160.61  105.65
   4  -9  13  128.67   60.49
  -4  -9 -13   55.36  113.89
   4  -9 -13  152.02   73.63
   7   5 -11  290.87  144.40
   7  -5 -11  330.58  157.51
  -7   5 -11  289.58  150.84
  -7   5  11  336.63  183.85
   7   5  11  317.42  159.16
  -7  -5 -11  326.75  238.44
  -5   3  16   19.08   28.94
   5   3  16   16.53   23.18
  -5   3 -16    4.87   79.50
  -5  -3 -16    5.02   77.53
  -5   3 -16   16.29   17.89
  -5  -3 -16   17.53   26.39
   5  -3 -16   15.47   23.50
   6  -9   9    3.65   11.16
   6   9  -9    5.75   13.73
  -6   9  -9    6.50   20.89
  -6   9  -9    0.33   33.31
  -6  -9   9    5.69   80.65
  -6   9   9    8.09   20.38
  -9  -2  -4   14.23   19.12
  -4 -11 -10    4.17   43.56
   4  11 -10   21.61   23.46
  -4 -11 -10   31.62   39.70
  -4  11 -10   31.24   38.47
   4 -11  10   18.65   17.14
  -4  11  10   31.45   42.23
   4 -11 -10   30.97   26.81
  -4 -11  10   16.96  109.93
   4 -11 -10   28.75   25.15
   4  13   4   47.72   44.27
  -4  13   4  141.68   59.07
   4  13  -4   38.80   41.89
   4 -13  -4   15.44   89.05
  -4  13   4   46.40   38.33
   4 -13  -4   43.46   41.91
  -4  13  -4   10.35  148.07
  -4 -13   4   21.75  123.78
  -4 -13  -4   11.83   69.40
  -4 -13  -4   39.40   32.97
   4 -13   4   37.19   36.55
  -4  13  -4   51.61   51.61
   8   6  -6   15.68   19.36
  -8  -6  -6   15.66   27.62
  -8  -6   6    3.36   76.25
  -8   6  -6   18.28   30.21
   8  -6   6   12.14   26.64
   3  14   0    0.92    5.49
  -3  14   0    0.36    3.96
   3 -14   0    0.18    4.25
  -3  14   0    0.37    3.91
  -3 -14   0    0.10   10.01
   6   4  14  153.04   85.27
  -6   4 -14  142.36   81.14
   6   4 -14  144.27   86.51
   6  -4 -14  160.54   88.56
  -6   4  14  173.28  110.78
  -6  -4 -14  171.83  141.83
  -6   4 -14   67.92  199.02
   6  -4  14  156.41   83.22
   1  14  -6   23.65   23.99
  -1 -14  -6   25.61   32.92
  -1  14  -6    6.92  102.41
   1 -14  -6   23.12   31.56
  -1 -14   6    4.18   74.62
  -1  14  -6   22.21   20.73
  -1  14   6   26.67   35.76
   1 -14  -6   65.49   81.42
   1  14   6   25.47   34.76
  -1 -14  -6   10.75   65.34
   3 -10  13   12.98   17.09
  -3 -10 -13    1.03   46.65
   3  10 -13   13.15   15.65
   3 -10 -13   10.57   40.55
  -3  10 -13   -2.64   98.13
  -3 -10 -13   17.51   30.60
  -3  10  13   18.17   30.00
  -3 -10  13   86.33   62.65
   3 -10 -13   13.42   14.34
  -3  10 -13   13.23   27.44
  -6  10  -7   18.42   98.60
   6  10  -7   46.50   43.10
   6 -10  -7   48.98   37.03
  -6  10   7   54.37   54.46
  -6 -10  -7   52.36   54.05
  -6  10  -7   58.15   62.70
  -6 -10   7   26.77  170.92
  -8   0 -10  457.65  237.79
  -8   0  10  394.12  186.60
   8   0  10  476.50  199.90
  -2  -9 -15   27.45   32.48
  -2   9  15   27.40   32.96
  -2   9 -15   22.91   33.42
   2   9 -15   21.50   21.26
   2  -9  15   20.83   26.34
   2  -9 -15   20.87   59.79
  -2  -9 -15   11.57   60.64
  -2  -9  15   23.61   65.86
   3  14  -1    6.03   15.38
   3  14   1    7.22   16.00
  -3 -14   1    2.63   31.87
  -3  14  -1    5.78   12.21
  -3 -14  -1   -0.58   22.15
   3 -14  -1    5.60   13.72
  -3  14   1    5.32   12.77
  -3  14   1    5.12   11.19
   3 -14   1    5.32   12.25
   7  -7   9   43.29   42.58
  -7  -7   9    5.00  177.51
  -7   7   9   46.08   50.18
   7   7  -9   38.34   39.48
   7  -7  -9   42.09   43.79
  -7   7  -9   49.96   62.52
   7   7   9   41.13   46.63
  -6   0 -15   -0.10    3.44
   6   0  15   -0.35    3.22
  -6   0  15    0.69    3.52
   6   0 -15    0.23    2.70
  -7  -9   5    2.12   77.55
  -7   9  -5    8.67   25.36
   7  -9  -5    7.55   13.33
  -7   9   5    7.85   21.28
  -7  -9  -5    1.84   49.02
   7   9  -5    9.63   16.20
   7  -9   5    8.44   17.75
   9   3   3   71.20   48.85
   9  -3   3   42.88   42.70
  -9   0  -5    0.46    4.89
  -2   5 -18   87.42  267.12
   2   5 -18   72.45  176.54
   2  -5  18  148.93   89.27
  -2  -5 -18  527.33  303.25
  -2   5  18  144.49   76.37
   2   5 -18  138.76   86.51
  -2   5 -18  146.57   91.22
  -2  -5 -18  135.55   69.90
  -2  -5  18   92.83  147.22
   2  -5 -18  413.28  265.80
   3 -13  -7    4.99   13.39
   3 -13   7    3.61    6.82
   3  13  -7    5.40   11.52
  -3  13  -7    0.12   47.94
   3 -13  -7    2.61   28.47
  -3 -13   7    3.12   49.93
   3  13   7    4.71   12.63
  -3 -13  -7    3.26   20.07
  -3  13  -7    4.37   13.91
  -3 -13  -7    1.36   20.17
   2  -2 -19   40.07  117.58
  -2   2 -19   33.96  173.94
  -2   2 -19   50.26   38.49
   2  -2 -19   45.74   37.74
   2  -2  19   52.02   40.49
  -2   2  19   42.07   27.96
   2   2 -19   36.62  121.26
  -2  -2 -19   34.81  147.32
   2   2 -19   50.79   58.64
   2   2  19   49.43   30.78
   1 -11 -13   17.02   68.97
   1 -11 -13   34.15   33.19
  -1 -11 -13   34.45   39.46
  -1  11 -13    9.06  126.12
  -1  11  13   37.40   41.01
   1 -11  13   16.08   57.94
   1  11 -13   17.60  100.29
  -1  11 -13   29.24   31.68
  -1 -11  13   17.52   69.22
  -1 -11 -13   14.48   63.63
   1  11  13   36.37   33.25
   1  11 -13   27.57   23.66
   2   8 -16    7.62   19.38
  -2   8  16    8.63   16.80
   2  -8 -16    7.18    9.14
  -2   8 -16    6.99   19.20
  -2  -8 -16    7.40   16.87
  -2  -8 -16    5.42   35.92
   2  -8  16    6.06   15.82
   2  -8 -16    2.80   35.98
  -2   8 -16   29.82   67.40
  -2  -8  16    4.62   37.99
  -8  -1 -10    1.51   15.58
  -8   1 -10    1.30   14.27
  -8   1  10    6.96   10.24
   8  -1  10    2.17    9.93
   8   1  10    1.59   11.77
   5  10 -10  144.55   81.39
  -5 -10 -10  181.47  120.68
   5 -10  10  123.11   65.02
  -5  10 -10   78.74  277.42
   5 -10 -10  172.16   91.36
  -5  10 -10  183.18  117.76
  -5  10  10  196.18  125.16
  -5 -10  10   42.03  302.30
  -2 -14  -5   70.40   50.34
   2 -14   5   51.42   31.23
   2 -14  -5   67.15   48.79
  -2  14  -5   70.50   44.05
  -2  14  -5   33.52  174.81
   2  14   5   72.67   54.74
  -2 -14  -5   19.45   86.69
  -2 -14   5   27.25   97.95
   2  14  -5   62.31   45.00
   2 -14  -5   18.33  120.89
  -2 -14   5   56.79  151.32
  -8   7   4   16.06   28.05
   8  -7   4   15.23   26.93
  -8  -7   4    4.91   83.61
  -8   7  -4   20.01   34.36
   6   1  15    5.89   16.48
  -6  -1  15    7.89   17.44
  -6   1  15    6.42   18.79
  -6   1 -15    7.45   16.30
   6  -1 -15    7.84   15.04
  -6  -1 -15    6.41   18.80
  -7   0 -13   -0.09    5.37
   7   0 -13    0.09    3.44
  -7   0  13    0.72    4.54
   7   0  13    0.51    4.56
   0  -6 -18  658.57  331.53
   0   6 -18  182.30  365.31
   0  -6  18  322.85  168.31
   0   6 -18  305.10  195.12
  -9   1  -5    1.32    7.74
  -9  -1  -5    1.56    7.73
  -5  11  -8   41.98  167.49
  -5  11  -8  103.50   84.59
  -5 -11  -8  100.96   76.41
   5 -11  -8   99.04   73.00
  -5 -11   8   32.16  251.24
   5 -11   8   73.43   48.46
   5  11  -8   85.98   60.29
  -5  11   8  113.20   85.20
   4 -12  -8    2.53   26.90
   4  12  -8    4.41   12.66
   4 -12   8    4.36    9.07
  -4  12   8    6.75   12.30
  -4 -12  -8    6.12   16.87
  -4  12   8    7.16   19.51
  -4 -12   8    1.78   62.02
  -4  12  -8    7.16   18.67
  -4  12  -8    0.46   50.12
  -3  14   2  112.26   58.21
   3  14   2  117.81   77.66
  -3  14   2  136.05   77.01
   3 -14   2   99.42   61.00
   3  14  -2  103.30   71.86
  -3 -14   2   30.43  139.34
  -3 -14  -2   28.14   93.94
  -3  14  -2  116.15   65.46
   3 -14  -2  110.41   70.77
  -4   4  17   20.55   29.10
   4  -4  17   18.48   25.40
  -4  -4 -17    6.71   84.56
   4   4 -17   18.60   21.87
  -4   4 -17    6.05   95.49
   4  -4 -17   18.92   23.74
  -4   4 -17   18.18   24.24
   4   4  17   20.43   21.04
  -6 -11   4   13.87  115.50
   6 -11   4   23.14   28.51
   6 -11  -4   25.62   28.46
  -6  11  -4   27.70   40.35
   6  11  -4   23.79   30.01
  -6 -11  -4    7.62   73.33
   7  -1  13   97.86   64.39
  -7  -1  13   88.84   65.48
   7  -1 -13   91.23   55.59
  -7   1 -13   92.66   73.72
   7   1  13   93.27   66.57
  -7   1  13   88.38   69.15
  -7  -1 -13   95.03   78.35
  -5 -12   5   24.77  192.34
   5  12  -5   79.69   59.83
   5 -12  -5   90.16   60.68
  -5 -12  -5   76.31   52.12
  -5  12  -5   43.23  166.67
  -5 -12  -5   22.10  103.40
   5 -12   5   68.52   47.07
  -5  12  -5  100.20   81.56
  -5  12   5  105.84   71.50
   0   4 -19    0.23    5.14
   0  -4 -19    1.01   15.66
   0  -4  19    0.44    4.63
   0   4 -19    0.04   17.46
  -2 -10 -14   63.47  145.06
  -2  10  14  156.02   91.82
   2  10 -14  110.61   60.76
  -2 -10  14   81.45  145.61
   2  10 -14   60.37  169.31
  -2  10 -14  130.24   80.57
   2 -10 -14   49.63  124.93
  -2 -10 -14  149.34   89.02
   2 -10  14  120.99   65.27
   7  -4 -12  202.22  106.08
   7   4  12  195.71  110.47
   7   4 -12  176.78  101.09
  -7   4 -12  179.72  105.94
  -7   4  12  205.51  124.74
  -7  -4 -12  204.22  137.40
   7  -4  12  192.64   88.90
   6  -7  12  149.55   83.41
   6   7 -12  150.77   85.48
  -6   7  12  198.63  127.17
  -6  -7  12   34.24  371.79
   6  -7 -12  177.61   97.60
  -6  -7 -12  172.55  128.45
  -6   7 -12  205.35  135.57
   6   7  12  167.72   89.94
  -4  -6 -16  247.13  161.81
   4  -6  16   60.77   46.81
   4   6 -16   56.60   39.37
  -4   6  16   71.79   60.04
  -4  -6  16   56.72  160.72
  -4   6 -16   36.24  167.48
   4  -6 -16   63.78   45.55
   4   6  16   66.22   39.61
  -4  10 -12   48.00  205.09
  -4 -10  12   24.77  196.60
  -4  10 -12   91.13   72.19
  -4  10  12   98.69   76.93
   4 -10 -12   88.88   50.58
  -4 -10 -12   96.66   78.21
  -4 -10 -12   28.46   83.89
   4  10 -12   68.96   44.52
  -2  12  11    4.77   14.32
  -2 -12 -11    0.19   19.45
  -2  12 -11    1.80   10.99
   2  12 -11    2.57    6.74
   2 -12 -11    0.54   22.59
   2 -12  11    1.11   14.28
  -2 -12  11   -2.95   49.57
   2  12  11    3.66   10.38
   2  12 -11   -7.07   25.36
  -2 -12 -11    5.78   13.37
  -1   6 -18   14.29   26.85
   1  -6 -18   23.72   52.20
  -1  -6  18   17.14   25.24
   1  -6  18   16.98   24.98
  -1   6 -18    5.23   73.41
  -1  -6 -18   13.99   14.96
   1   6 -18   16.91   25.08
  -1  -6 -18   35.09   72.37
   1   6 -18    9.40   63.49
   8  -2  10  344.77  145.28
   8   2  10  347.29  167.50
  -8   2 -10  322.39  177.36
  -8  -2 -10  340.62  198.97
  -8   2  10  295.16  152.66
   8  -2 -10  324.03  143.77
  -3   4  18   84.65   55.80
  -3  -4  18   48.04   97.16
  -3   4 -18   86.71   60.61
  -3  -4 -18  102.35  203.29
   3  -4  18   87.99   59.94
  -3  -4 -18   81.47   48.07
   3  -4 -18   78.35   64.47
  -3   4 -18   61.31  201.10
   3   4  18   82.52   43.23
   3   4 -18   83.69   58.18
  -3   6  17    9.11   19.04
  -3   6 -17    9.62   20.77
   3  -6  17    9.22   18.39
  -3  -6 -17   30.27   60.35
   3   6 -17    7.86   16.15
  -3  -6  17    6.17   40.35
  -3   6 -17    3.55   67.36
   3  -6 -17    8.54   13.45
  -6   2  15  104.37   77.55
  -6  -2  15   94.30   67.74
   6  -2 -15   97.99   63.34
  -6   2 -15   99.78   64.67
   6   2  15  102.51   66.29
   6  -2  15  100.91   65.00
  -6  -2 -15  110.28   79.79
  -9  -3  -4   98.16   64.26
   9  -3   4  122.46   77.73
   6  -6 -13    0.97    8.27
  -6  -6  13   -1.57   39.25
   6   6  13    0.69    7.52
  -6   6 -13    1.90    9.64
  -6   6  13    1.80   10.62
   6  -6  13    1.26    5.87
   6  -6  13    2.00    6.57
   6   6 -13    1.77    7.80
  -9   2  -5   11.34   20.40
  -9  -2  -5   12.70   20.06
  -5   8 -13  126.50   91.91
   5   8  13  117.32   60.90
  -5  -8  13   27.28  234.02
   5  -8  13  102.58   51.46
   5   8 -13   98.27   60.47
   5  -8  13   81.80   46.64
   5  -8 -13  118.21   67.04
  -5   8  13  127.02   92.55
  -8  -5  -8   47.30   59.99
   8  -5   8   72.51   56.77
  -8   5   8   42.12   40.20
   8   5   8   48.82   50.72
   8  -5  -8   47.41   44.20
   8   5  -8   42.77   38.99
   2  -7  17  586.37  242.98
   2   7 -17  585.53  231.44
   2  -7 -17  260.99  325.13
   2  -7 -17  580.80  200.57
  -2   7 -17  646.31  283.31
  -2  -7 -17 1130.45  532.22
  -2   7 -17  368.35  567.92
  -2  -7  17  396.29  396.41
  -2   7  17  646.86  258.12
   2   7 -17  278.91  400.89
  -2  -7 -17  636.35  272.19
   3  12 -10   58.94   40.14
  -3 -12 -10   80.04   62.66
  -3  12  10   85.20   70.99
   3 -12 -10   72.09   46.88
  -3  12 -10   76.41   57.42
  -3 -12  10   24.71  164.71
   3 -12 -10   23.36   88.05
  -3  12 -10   33.33  152.62
  -3 -12 -10   20.26   74.71
   3 -12 -10   56.57   32.01
  -4 -13   5   14.82   94.58
  -4  13   5   28.18   27.36
  -4 -13  -5   13.45   48.00
   4  13   5   31.11   31.03
  -4  13  -5   31.34   37.93
   4 -13   5   21.21   22.22
   4  13  -5   23.96   28.48
   4 -13  -5    9.40   61.11
  -4 -13  -5   24.39   25.62
  -4  13  -5    6.44  106.32
   4 -13  -5   26.18   30.79
   0  14  -7  471.13  175.37
   0  14  -7  270.57  469.19
   0  14   7  570.39  238.35
   0 -14   7  125.61  288.44
   0 -14  -7  598.34  238.97
   0 -14  -7  190.40  333.93
  -3 -14   3    0.45   20.23
  -3  14  -3    2.11    7.18
   3  14  -3    1.96    8.20
   3 -14   3    1.25    5.77
  -3 -14  -3   -0.25   12.37
  -3  14   3    1.53    5.46
  -3 -14  -3    0.51    7.51
   3 -14  -3   -0.09   27.75
   3  14   3    1.87    8.96
   3 -14  -3    1.34   11.39
  -5  -7 -14   20.07   32.53
   5  -7 -14   17.15   22.67
  -5  -7  14    4.06   99.22
   5   7  14   17.88   20.03
   5  -7  14   12.24   14.40
   5  -7  14   16.51   18.30
  -5   7  14   18.02   31.40
   5   7 -14   14.91   20.14
  -1   4 -19   37.86  176.71
   1   4 -19   53.95   50.26
   1  -4  19   54.77   46.63
   1   4 -19   33.59  131.93
  -1  -4 -19  176.84  169.30
  -1   4 -19   56.88   67.15
  -1  -4  19   55.35   44.76
   1  -4 -19  192.52  156.35
   1  -4 -19   53.55   34.65
   6   8  11    1.51   10.93
  -6   8 -11    1.62   16.61
  -6  -8  11   -1.03   59.59
   6  -8 -11    2.07   11.87
  -6  -8 -11    2.05   17.56
   6  -8  11    8.96   10.09
  -6   8  11    2.06   16.49
   6   8 -11    1.18   11.13
   7 -10   0    1.18    6.74
  -7  10   0    0.54    8.52
  -7 -10   0   -1.23   22.27
  -8  -4  -9   63.22   69.13
   8  -4  -9   65.41   48.64
   8   4   9   66.97   56.83
  -8   4  -9   58.48   55.44
  -8   4   9   58.07   48.46
  -7   2  13  107.88   78.62
   7  -2 -13  109.94   66.45
   7  -2  13  111.46   68.58
  -7  -2 -13  117.09   92.84
   7   2  13  113.21   75.54
  -7   2 -13  104.05   78.13
   7   8  -8   68.11   51.29
   7  -8   8   64.71   53.09
  -7  -8   8   25.18  215.89
  -7   8   8   74.15   64.90
  -7  -8  -8   62.71   74.09
  -7   8  -8   92.08   85.43
  -2  -3  19   52.97   88.01
  -2   3 -19   68.03  235.36
   2  -3 -19   84.58   52.55
   2   3 -19   61.44  216.58
  -2  -3 -19   60.86  204.07
   2  -3 -19  314.71  200.78
   2   3 -19   90.00   66.72
   2  -3  19   92.04   61.68
  -2   3 -19   88.88   59.92
  -7  10  -1    2.77   19.18
  -7  10   1    3.60   17.72
   7 -10   1    2.05   14.21
  -7 -10  -1    3.37   46.04
   7 -10  -1   10.97   14.52
  -7 -10   1    1.11   49.21
   0 -15   0    0.44    3.46
   0  15   0    0.61    5.45
  -4   0  18   24.96   25.74
   4   0 -18   24.73   27.52
  -4   0 -18   25.68  132.07
  -4   0 -18   23.89   20.33
   4   0  18   24.74   28.24
  -5   4  16  263.20  141.72
   5  -4  16  217.49  104.57
   5  -4 -16  242.47  115.56
  -5   4 -16  150.62  316.34
  -5   4 -16  215.98   94.19
   5   4  16  254.09  116.24
  -5   4 -16  225.33  125.17
  -5  -4 -16  175.91  271.09
   2 -13  -9  202.02  290.41
   2  13   9  367.29  158.56
   2  13  -9  154.16  273.03
   2  13  -9  290.77  125.03
  -2 -13  -9  384.06  183.55
  -2 -13  -9  107.55  210.38
  -2  13   9  399.36  196.86
  -2 -13   9  102.67  354.35
  -2  13  -9  156.23  363.08
  -2  13  -9  335.04  173.63
   2 -13  -9  343.00  155.98
  -8   7   5   30.81   26.56
  -8  -7   5   -2.55   74.11
  -8   7  -5    5.95   29.60
   8  -7   5    4.48   21.93
   0 -15  -1    0.82    3.54
   0  15   1    0.23    5.39
   0  15  -1    0.20    6.88
   0 -15   1    0.21    2.71
  -7   9   6    4.08   14.90
   7   9  -6    3.44   11.13
  -7  -9  -6    3.44   12.10
   7  -9   6    3.02   11.59
  -7   9  -6    4.13   23.80
  -7  -9   6   -4.71   51.65
   3  11 -12    3.57   10.56
  -3 -11 -12    0.66   19.56
  -3 -11 -12    3.91   13.85
  -3  11 -12   -1.57   42.88
   3 -11 -12    1.76   18.61
  -3  11 -12    3.21   12.90
  -3  11  12    7.74   14.20
  -3 -11  12    0.93   38.46
   3 -11 -12    3.24   12.42
   3 -11 -12    1.39    5.73
  -9   0  -6   68.33   55.89
   0  13 -10    7.67   20.65
   0 -13  10    0.87   46.45
   0 -13 -10    0.31   32.35
   0 -13 -10  503.10   85.60
   0  13 -10   -5.22   96.22
   0  12 -12  226.82   98.34
   0 -12  12  145.59  186.53
   0 -12 -12  285.74  133.93
   0 -12 -12   85.65  182.60
   4  -1 -18  103.87   59.50
  -4  -1  18   75.37   49.70
  -4   1  18   78.75   53.94
  -4  -1 -18   75.71   46.15
   4  -1  18   98.99   75.47
  -4  -1 -18   86.92  232.53
   4   1 -18   71.99   53.63
   4   1  18   80.22   53.29
  -4   1 -18  363.83  265.67
  -8  -6   7   98.02  494.27
  -8   6  -7  645.96  338.17
  -8  -6  -7  604.00  339.56
   8  -6   7  617.92  278.16
   8   6  -7  597.61  247.59
   8  -6  -7  663.86  284.06
  -8  -8   0   49.41  243.78
   8  -8   0  161.48   93.12
  -8   8   0  175.89  143.27
   5   9 -12  162.07   86.78
   5  -9  12  128.32   65.57
  -5  -9 -12  207.01  137.92
   5  -9 -12  192.15   95.03
  -5   9 -12  207.74  128.43
  -5  -9  12   46.10  304.52
  -5   9  12  213.49  129.01
   5   9  12  192.65   85.58
   1  14   7    9.19   18.89
   1  14  -7    7.56   12.28
  -1 -14  -7    3.60   37.88
   1  14  -7    4.72   52.46
  -1  14  -7    7.86   11.65
  -1  14  -7    2.52   59.01
   1 -14  -7    2.57   46.55
  -1 -14   7    4.06   44.44
  -1 -14  -7    9.46   19.45
   9  -4   3   29.02   33.06
  -6  11  -5  137.80  105.51
  -6 -11  -5  112.02   68.72
   6 -11  -5  121.10   70.91
   6 -11   5  104.90   67.70
  -6 -11   5   32.48  250.63
  -6 -11  -5   29.37  147.43
   6  11  -5  113.66   72.56
  -7  10  -2  118.68   91.35
  -7 -10   2   59.48  304.51
   7  10  -2  105.35   61.64
  -7 -10  -2   26.98  185.90
   7 -10   2  104.96   72.69
  -2 -14   6    7.06   77.06
   2 -14  -6  727.27  145.85
   2  14   6   31.50   43.09
  -2  14  -6   30.07   33.30
  -2  14  -6    8.75  138.96
  -2 -14  -6   33.49   41.12
   2  14  -6   25.76   45.79
  -2 -14  -6  150.91   95.21
   2 -14  -6   29.69   40.53
  -2 -14   6   29.04  114.31
   0   9  16    0.27    7.59
   0  -9  16   -0.33   11.63
   0  -9 -16    0.71    8.05
   0  -9 -16   57.30   24.42
   0   9 -16    0.23    9.19
  -8  -8  -1    3.88   75.26
  -8  -8   1    8.13   79.58
  -8   8  -1   19.66   31.40
  -8   8   1   19.38   30.16
   8  -8  -1   12.32   21.10
  -9   1  -6  128.33   83.14
  -9  -1  -6  127.54   86.37
   0 -15  -2    0.31    3.84
   0  15   2   -0.24    5.50
   0  15  -2    0.95    4.63
  -2 -11  13  760.14  239.68
   2 -11 -13  150.53   76.81
   2 -11 -13   49.24  138.29
   2  11  13  161.14   75.18
  -2  11 -13   80.05  267.78
  -2 -11 -13   45.80  172.88
  -2 -11 -13  150.90   95.51
   2  11 -13  110.38   55.72
  -2  11  13  156.40  127.34
   2  11 -13   55.32  151.41
   2 -11  13  120.39   66.54
  -2  11 -13  130.01   82.60
   1 -15   0    0.41    3.30
  -1 -15   0   -0.16   13.39
   1  15   0    0.70    5.22
  -1  15   0    0.50    4.27
  -1 -15   0    0.12    2.69
  -5  -6 -15    2.00   10.55
  -5  -6 -15    4.79   21.31
  -5   6 -15   -1.12   27.99
  -5  -6  15   -0.66   33.20
   5   6  15    2.58    7.39
   5  -6 -15    2.30    8.41
  -5   6 -15    1.95    9.91
   5  -6  15    1.01    5.06
   5  -6  15    1.38    7.49
  -5   6  15    2.47   11.36
   6 -10   8   51.79   42.23
  -6  10  -8   73.77   69.38
  -6  10   8   73.71   63.52
  -6 -10   8   30.79  184.46
   6  10  -8   58.25   48.11
  -6  10  -8   24.34  108.56
  -6 -10  -8   65.83   64.36
   0   0 -20  399.21  171.42
   0   0 -20  288.56  471.17
  -5  12   6   28.23   34.93
   5 -12   6   18.44   21.14
  -5 -12   6   11.01  107.01
  -5  12   6   28.95   29.57
  -5  12  -6    7.29   90.24
   5  12  -6   21.46   29.83
  -5  12  -6   27.12   40.17
  -5 -12  -6   20.99   26.87
   5 -12  -6   25.72   28.95
   3 -14  -4   16.08   91.43
  -3  14   4   48.48   29.12
   3  14   4   54.76   47.08
   3 -14   4   41.59   31.17
  -3 -14  -4   12.66   59.51
  -3  14  -4   53.89   41.21
  -3 -14   4   20.49   98.12
   6  -5  14    1.58    5.06
   6   5  14    0.21    5.68
  -6   5  14    0.32    7.94
  -6   5 -14    1.23    4.85
  -6   5 -14   -0.09   18.96
  -6   5 -14   -0.20    6.22
  -6  -5 -14    1.32    8.51
   6  -5 -14    0.17    6.42
   5   0  17    0.34    4.54
  -5   0  17    0.65    4.70
  -5   0 -17    3.13   17.49
  -5   0 -17    0.06    3.88
  -1 -15  -1   20.85  102.11
  -1  15  -1   75.47   49.25
  -1 -15   1   30.79  135.13
   1 -15  -1   70.77   45.38
   1 -15   1   68.09   41.27
  -1  15   1   80.70   55.56
  -1 -15  -1   71.20   41.71
   1  15  -1   78.93   59.08
   0  10 -15  430.29  179.21
   0 -10 -15  174.79  274.15
   0 -10  15  274.96  293.38
   0  10  15  548.68  205.47
   8   3  10   69.53   56.49
  -8   3  10   62.24   50.43
   8  -3 -10   68.39   47.44
  -8   3 -10   64.82   57.15
  -8  -3 -10   68.74   69.51
   8   3 -10   61.25   48.48
  -3  13  -8    0.44   37.24
  -3 -13   8  195.45   45.54
  -3  13  -8    0.24   11.19
  -3 -13  -8    0.02   15.95
   3 -13  -8    1.66   22.53
   3  13   8    0.49    9.56
   3 -13  -8    1.08   10.27
   3  13  -8    0.52    8.76
  -6   3 -15   26.33  119.49
   6  -3  15   64.47   48.08
  -6   3  15   69.76   83.12
   6   3  15   61.71   47.59
  -6   3 -15   58.38   44.72
  -6  -3 -15   67.02   59.73
   6  -3 -15   61.64   48.78
  -3   0  19    0.19    5.43
  -3   0 -19  126.48   41.24
   3   0  19    0.27    7.14
   1 -13 -10    2.94   30.08
   1 -13 -10  107.10   72.07
  -1  13 -10   79.31   28.76
  -1 -13  10   -0.63   76.09
  -1  13  10    3.01   34.30
   1  13 -10    1.87   22.24
  -1 -13 -10  104.66   61.44
  -1 -13 -10    3.13   33.62
   1 -13  10    0.63   37.90
  -1  13 -10    0.05   84.49
   1  12  12   62.38   45.11
  -1 -12 -12   18.30   81.21
   1  12 -12   41.71   27.05
  -1 -12 -12   60.36   51.95
  -1  12 -12   48.32   38.34
   1 -12 -12   59.91   46.42
   1 -12 -12   18.72   87.97
  -1 -12  12   30.83   86.96
   1 -12  12   28.33   68.04
  -8  -8   2   24.38  200.97
  -8   8  -2  113.16   89.09
   8  -8   2   96.51   68.89
  -8  -8  -2   26.76  179.09
  -8   8   2  107.40   79.98
   0   8  17   85.17   44.18
   0   8 -17   80.56   58.71
   0  -8 -17   33.90  111.17
   0  -8  17   87.09   62.92
   0  -8 -17   81.00   45.27
   0   8 -17   40.53  158.26
  -9  -3  -5  166.70  103.07
   9  -3   5  207.00  119.37
   0   1 -20  640.10  110.82
   0   1 -20    1.13   18.41
   0  -1 -20    4.98   15.95
  -5   1  17   34.35   37.76
  -5   1 -17   99.48  143.09
  -5  -1  17   32.43   33.95
  -5  -1 -17   10.33  130.89
  -5  -1 -17   33.84   32.82
   5   1 -17   32.82   32.50
   5  -1  17   32.28   34.70
   5  -1 -17   48.93   47.24
   5   1  17   33.86   34.21
  -5   1 -17   32.97   38.55
  -4  -2 -18   69.00  206.54
  -4   2  18   84.93   56.15
  -4  -2  18   76.60   48.84
   4  -2  18   83.05   56.99
  -4  -2 -18   82.59   48.90
  -4   2 -18   68.43  218.71
   4   2  18   84.40   52.02
  -7  -6  11   16.72  311.06
   7   6 -11  179.47   99.54
  -7   6  11  229.43  138.47
   7   6  11  203.44  112.96
  -7  -6 -11  209.50  142.82
   7  -6  11  189.76  107.34
   7  -6 -11  207.88  111.08
  -7   6 -11  216.57  142.72
   6  -9  10   13.49   19.56
  -6   9 -10    3.82   59.60
  -6  -9  10   -0.98  137.58
   6  -9 -10   19.92   25.95
  -6   9  10   24.14   36.18
  -6   9 -10   21.71   36.77
   6   9 -10   19.51   24.65
   1  -9  16   28.48   37.00
   1   9 -16   30.30   32.97
  -1  -9 -16   18.94   82.74
   1  -9 -16   28.73   27.37
   1  -9 -16  501.00  116.82
  -1   9 -16   31.35   37.43
  -1  -9  16   20.33   79.54
  -1   9  16   34.59   35.77
  -7 -10  -3   10.93  101.09
  -7  10   3   34.44   43.71
   7  10  -3   32.08   30.61
   7 -10   3   30.61   35.87
   7 -10  -3   31.17   33.06
  -7 -10   3   18.23  145.80
  -7  10  -3   36.72   47.51
   3   1 -19   95.12   60.13
  -3   1 -19  372.29  275.30
  -3  -1 -19   83.02  233.68
   3  -1  19   83.35   55.29
  -3   1  19   78.63   46.44
  -3  -1  19   74.04   42.67
   3   1  19   85.67   49.83
   3  -1 -19   82.43   54.23
  -7   3  13  132.75   91.20
   7   3  13  136.23   85.69
  -7   3 -13  125.61   84.12
   7  -3 -13  134.65   79.10
   7  -3  13  132.57   72.96
  -7  -3 -13  140.79  106.52
  -1 -15   2    0.88   23.74
  -1  15   2    3.61    9.15
   1  15  -2    2.41    8.60
  -1 -15  -2    1.40    6.41
   1 -15   2    1.06    4.93
  -1 -15  -2   -2.54   18.13
   1 -15  -2    1.89    7.33
  -1  15  -2    1.62    6.82
   1  15   2    1.94    9.87
  -9   2  -6  382.61  190.07
  -9  -2  -6  397.99  210.85
  -4  13  -6    2.80   83.14
  -4  13   6   18.24   19.25
  -4  13  -6   17.45   29.12
   4  13   6   15.55   20.05
  -4 -13  -6   16.20   21.09
   4 -13   6   10.97   15.95
  -4 -13   6    8.62   78.32
   4 -13  -6   16.77   24.34
   4  13  -6   14.05   21.77
   0 -15   3   -0.14   12.08
   0  15   3   -0.12    4.56
   0  15  -3   -0.12    3.52
   0 -15  -3    0.82    3.52
   4   5 -17    0.22    3.72
  -4  -5  17    0.96   15.39
   4  -5  17    0.76    4.92
   4   5 -17    0.75    4.32
  -4  -5 -17    0.04    5.03
  -4  -5 -17    0.85   16.44
  -4   5 -17    0.12    5.23
   4  -5 -17    0.46    4.51
   4   5  17    0.75    3.64
  -4   5 -17    0.23   18.72
  -4   5  17    0.53    5.82
  -7   7 -10    5.80   23.90
   7  -7  10   29.10   18.42
   7   7 -10    2.74   16.11
  -7   7  10    3.75   21.88
   7  -7 -10    2.22   18.17
   7   7  10    3.10   17.83
  -7  -7  10   -0.34   75.90
   1   0  20  437.85  179.01
  -1   0 -20  437.85  184.62
   1   0 -20  678.26  577.97
   1   0 -20  442.35  193.97
  -1   0 -20  673.27  650.20
  -9   5   0    0.03    1.81
  -4  11 -11   15.68   27.98
  -4 -11 -11    2.13   32.07
  -4 -11 -11   17.25   29.06
  -4  11  11   17.09   30.28
  -4 -11  11    5.41   84.22
   4 -11 -11   14.52   16.88
   4  11 -11   11.56   16.49
   9  -4   4  575.31  268.69
  -5 -11   9   59.43  325.46
  -5  11  -9  203.95  122.82
   5 -11   9  133.69   68.20
  -5  11  -9   80.28  221.83
  -5  11   9  207.63  121.58
  -5 -11  -9  188.42  115.93
   5  11  -9  160.36   86.67
   0  -5  19    0.61    6.10
   0   5 -19    2.07   20.04
   0   5 -19    0.56    6.58
   0  -5 -19    2.61   19.73
  -1  10  15    8.85   19.39
   1  10 -15    5.34   14.51
   1 -10 -15   63.63   45.64
  -1 -10  15   19.84   43.38
   1 -10  15    5.98   16.63
  -1 -10 -15   46.31   44.36
   1  10  15    7.66   13.62
  -1  10 -15    6.06   18.31
  -1 -10 -15    6.32   18.69
  -2   6 -18    2.91   60.61
  -2  -6  18    4.09   34.27
   2  -6 -18    6.07   67.31
  -2  -6 -18    6.53   12.43
   2  -6 -18    7.59   10.72
   2   6 -18    6.78   15.64
  -2   6 -18    7.28   18.38
   2   6 -18    1.19   37.02
  -2   6  18    7.15   13.78
  -2  -6 -18   24.40   56.31
   2  -6  18    6.79   17.01
   4 -12  -9   17.95   22.11
  -4  12  -9    3.80   73.20
  -4  12  -9   18.49   28.32
  -4  12   9   21.37   30.43
   4  12  -9   12.55   19.07
   4 -12   9   11.28   12.91
   4 -12  -9   16.65   17.92
  -4 -12   9   13.79   92.41
   9   5   1   72.05   60.42
  -9   5   1   62.30   45.49
  -1   8 -17  192.21  356.41
  -1   8 -17  361.77  167.82
  -1  -8 -17  375.07  149.10
   1  -8  17  359.58  163.05
  -1  -8  17  239.04  271.83
  -1  -8 -17  150.24  258.59
  -1   8  17  388.46  154.55
   1   8 -17  344.54  148.71
   1  -8 -17  153.93  242.60
   8   0  11    0.14    3.40
  -8   0  11    0.35    3.11
  -8   0 -11   -0.24    4.58
   7   5  12    4.41   13.80
  -7   5 -12    4.29   11.95
   7  -5 -12    4.06   13.25
  -7   5  12    3.78   16.02
  -7  -5 -12    4.07   17.60
   1  -1 -20   98.91   79.84
  -1   1 -20  659.73  378.26
   1   1 -20   99.45   67.48
   1  -1  20  100.70   71.73
  -1   1 -20   96.65   60.69
  -1  -1 -20   83.66  259.91
  -1  -1 -20   92.63   52.27
   1   1 -20  731.64  327.74
   1  -1 -20   74.35  215.39
  -8   8  -3   69.39   65.07
  -8  -8  -3   20.11  129.38
  -8  -8   3   19.12  154.66
   8  -8   3   58.30   64.42
  -2   4 -19   -0.94   17.33
   2   4 -19    0.09    4.47
  -2  -4 -19    0.27   15.12
  -2   4  19   -0.18    2.81
   2   4 -19    0.70   10.12
   2  -4  19    0.55    4.48
  -2   4 -19    0.36    4.17
  -2  -4  19    2.73    7.29
   8  -7   6   14.56   31.69
  -8   7  -6   19.73   40.45
  -8  -7   6    4.95  105.26
   8   7   6   84.84   49.94
  -8  -7  -6   14.58   32.08
   0   2 -20   60.39   48.62
   0  -2 -20   35.70  147.40
   0  -2 -20   64.32   39.00
   0  -2  20   60.75   40.51
   0   2 -20   48.14  180.74
  -3   9  15    0.95    7.12
   3  -9 -15    0.59    3.67
   3  -9  15    0.70    5.06
  -3   9 -15    1.16    7.74
   3   9 -15    0.63    3.79
  -3  -9 -15    0.85    7.25
  -3  -9 -15    0.56   11.81
   5   2 -17   88.97   55.32
  -5  -2 -17   69.42  199.92
  -5  -2  17   87.85   57.01
  -5  -2 -17   93.77   62.36
   5  -2  17   91.94   59.71
  -5   2  17   97.54   69.14
  -5   2 -17   65.20  191.44
   5  -2 -17   91.00   59.92
  -5   2 -17   88.74   50.53
   5   2  17   93.80   57.97
   8  -1  11   30.41   30.41
  -8  -1 -11   29.01   41.44
  -8   1 -11   28.40   39.32
   8   1  11   29.40   33.90
  -8   1  11   25.49   29.21
   5 -10  11  176.28   80.83
   5  10 -11  211.30  102.73
  -5 -10 -11  272.58  187.81
  -5  10  11  281.00  152.56
  -5  10 -11  264.88  148.36
  -5 -10  11   68.58  362.76
  -5  10 -11  124.71  322.42
   5 -10 -11  246.83  114.75
   3  -5  18  114.12   71.30
  -3  -5 -18  109.59   59.59
   3   5 -18   95.26   47.11
  -3   5 -18  118.98   76.38
  -3  -5  18   71.81  122.40
  -3   5 -18   77.07  227.70
   3  -5 -18  104.26   57.31
  -3  -5 -18  418.02  252.34
   3   5 -18  109.66   66.19
  -3   5  18  118.13   69.61
   5 -13   0    0.16    4.89
  -5  13   0    0.45    6.01
   5  13   0    1.10    5.05
  -5 -13   0   -1.28   14.01
   0  14   8  562.65  226.61
   0  14  -8  260.72  432.97
   0 -14   8  128.38  289.75
   0 -14  -8  596.62  233.08
   0 -14  -8  195.12  321.66
   3   2 -19    8.28   10.66
   3   2  19   11.47   13.09
  -3   2  19    9.11   13.74
  -3   2 -19    3.22   80.70
  -3   2 -19    8.53   13.61
   3   2 -19    8.53   17.97
   3  -2 -19    4.86   47.06
   3  -2 -19    9.20   16.62
   3  -2  19    9.50   17.57
   0  11  14    1.78    6.36
   0 -11 -14    0.02   11.84
   0  11 -14    0.36   22.54
   0 -11 -14    0.32    6.07
   0 -11  14    0.56   12.43
   0  11 -14    0.15    7.54
  -3  -8 -16    4.21   18.25
   3  -8  16    3.09   10.45
   3  -8 -16    3.58    7.72
  -3   8 -16   -2.40   48.08
  -3  -8  16    0.12   30.50
  -3   8  16    4.00   13.59
  -3  -8 -16    3.37   23.75
   3   8 -16    4.08    7.13
  -1 -15  -3    2.18   24.41
   1 -15   3    2.18    5.79
   1 -15  -3    3.75   10.55
   1 -15  -3    0.50   31.19
  -1 -15  -3    4.08    9.73
   1  15   3    4.85   13.66
   1  15  -3    3.83   10.80
  -1  15  -3    3.82    8.39
  -1 -15   3    0.66   30.78
   1 -15   3    1.99   35.56
  -1  15   3    4.08   12.89
  -9   5   2   21.73   22.77
  -9  -5   2    4.64   58.82
   4  -8  15   43.29   45.48
   4  -8 -15   48.22   35.44
  -4  -8  15   17.46  139.56
  -4   8 -15   50.21   53.02
  -4   8  15   52.66   51.67
  -4  -8 -15   66.47  155.11
  -4  -8 -15   54.55   51.88
   4   8 -15   39.16   29.81
   6 -11   6  111.27   71.19
   6 -11  -6  134.18   76.12
  -6  11  -6  155.59  109.58
  -6  11  -6   49.69  163.60
  -6 -11   6   38.84  264.43
  -6  11   6  135.71   84.63
   6  11  -6  117.93   77.72
   6  11   6  132.98   82.34
  -6 -11  -6  122.05   77.46
  -6  11   6  144.11   90.35
   5  13  -1    1.71   11.27
  -5 -13  -1    0.18   19.43
  -5 -13   1    0.31   24.66
  -5  13   1    3.62    8.80
   5  13   1    0.92    7.37
   5 -13  -1    1.06    7.82
   5 -13   1    0.64    7.05
  -5  13  -1    1.59    9.52
   3  14  -5    0.36    5.30
  -3  14  -5    0.13    5.24
  -3  14   5   -0.33    6.39
   3  14   5    1.05    5.66
   3 -14  -5    2.90   12.46
   3 -14   5    0.32    3.20
  -3 -14  -5    0.71    7.74
  -3 -14   5    1.07   14.88
  -3  14  -5    0.36   20.72
  -3 -14  -5    0.96    4.67
  -7   9  -7   10.99   27.30
  -7  -9   7    6.35   77.11
  -7   9   7    8.62   17.92
   7   9  -7    8.44   16.76
  -7  -9  -7    7.49   19.88
   7  -9   7    7.48   16.56
   1   5 -19  132.97  279.68
   1  -5 -19  222.01   92.52
   1  -5 -19  848.64  406.76
  -1   5 -19  238.63  129.89
  -1  -5 -19  819.38  413.01
   1   5 -19  231.12  125.29
  -1  -5  19  241.39  124.21
  -1   5 -19  128.01  302.66
   1  -5  19  241.75  125.75
   4  -9  14  161.84   73.16
   4   9 -14  153.25   72.28
  -4  -9 -14   75.11  131.21
   4  -9 -14  196.11  101.74
  -4  -9 -14  216.74  122.12
  -4   9  14  214.17  119.85
  -4  -9  14   41.27  264.69
  -9   0  -7    0.53    6.03
  -7 -10  -4  119.26  351.27
   7  10  -4  412.45  181.86
  -7  10  -4  489.24  245.52
   7 -10  -4  441.70  187.01
  -7 -10   4  141.75  519.22
  -8   5   9   89.00   67.04
  -8  -5  -9   94.35   86.31
   8  -5   9  104.70   76.17
   8  -5  -9   94.04   66.22
   0  -7  18    0.24    6.45
   0  -7 -18   -0.72   12.57
   0   7 -18    1.47    6.19
   0   7 -18   -0.03   18.03
  -2  14   7    2.69   17.19
  -2  14  -7    1.33   10.83
  -2 -14  -7    1.99   13.89
   2 -14  -7    1.55   13.27
  -2 -14  -7   29.26   26.50
  -2 -14   7    1.63   23.79
   2  14   7    1.37   13.44
   2 -14  -7    0.56   32.84
  -2  14  -7    1.55   46.10
  -2 -14   7   79.73   42.45
   0 -15  -4  689.96   98.55
   0  15   4    0.12   29.99
   0  15  -4    0.71   19.85
   0 -15   4    1.90   71.47
   4   3  18    5.64   11.21
  -4   3 -18    4.47   10.87
  -4   3 -18    1.60   52.99
   4  -3 -18    5.04   18.18
  -4   3  18    6.04   14.22
  -4  -3 -18    4.74   11.62
   4  -3  18    7.31   14.08
  -4  -3 -18    6.52   69.03
   4   3 -18    5.07   12.45
   5  -5  16    7.62   15.36
  -5  -5 -16    1.34   45.55
   5  -5 -16    8.08   17.15
  -5   5 -16   59.23   65.39
  -5   5 -16    8.51   17.35
   5   5  16    7.05   15.26
  -5   5  16   10.00   21.98
  -9   1  -7   32.71   38.29
  -9  -1  -7   33.87   40.22
  -7   8  -9   16.33   33.24
  -7  -8  -9    9.58   31.38
  -7  -8   9    4.42   94.52
   7  -8  -9   12.65   23.54
  -7   8   9   13.66   26.93
   7  -8   9   11.00   19.13
   7   8  -9   13.63   20.70
   1   2 -20   79.48  216.45
  -1   2 -20  105.25   63.93
  -1   2 -20   85.25  253.66
   1  -2 -20   70.50  192.91
   1  -2 -20  103.40   57.41
   1  -2  20  109.61   61.16
  -1  -2 -20   73.44  207.04
   1   2 -20  110.33   68.83
  -3 -10 -14    2.20   30.33
  -3 -10 -14    8.57   20.52
   3 -10  14    7.23   12.17
  -3  10  14    7.79   20.80
   3  10 -14    7.28   10.30
   3 -10 -14    7.22    9.44
  -3 -10  14    1.61   41.98
  -3  10 -14    7.38   19.78
   5  13  -2   36.56   38.72
  -5 -13  -2   11.42   79.35
  -5  13   2   39.88   37.63
   5 -13  -2   36.48   37.94
   5  13   2   38.27   34.29
  -5 -13   2   22.09  110.45
  -5  13  -2   41.46   44.85
   5 -13   2   31.46   31.13
   8  -6  -8  217.06  114.36
   8  -6   8  219.31  125.04
   8   6  -8  200.61  102.20
  -8   6  -8  208.89  132.91
  -8  -6   8   26.00  253.89
  -8   6   8  190.51  111.25
  -8  -6  -8  197.97  140.69
   9   3   6    9.44   27.26
   9  -3   6    7.44   20.35
  -9  -3  -6   10.90   19.74
  -1  14  -8   27.61   21.29
  -1  14  -8    7.40   97.93
   1 -14  -8   15.79   77.51
  -1 -14  -8   11.35   59.38
  -1 -14   8   10.35   73.28
   1  14  -8   22.91   20.64
  -1 -14  -8   28.81   35.90
   1  14   8   28.31   33.12
   1  14  -8   13.13   84.80
  -2 -15   0   40.76  119.41
   2  15   0  154.30   90.54
  -2  15   0  147.01   73.76
   2 -15   0  137.94   70.15
  -1  11 -14    2.69   56.05
  -1 -11 -14    9.24   17.61
   1  11 -14    4.28   45.99
   1 -11 -14    5.92   13.97
  -1  11  14    5.95   23.95
   1 -11  14    3.42   27.04
  -1 -11 -14    2.25   49.35
  -1 -11  14    4.16   32.50
   1 -11 -14    3.04   32.58
  -8   2 -11    3.95   14.57
   8   2  11    3.30   13.14
  -8   2  11    3.36   11.53
  -8  -2 -11    5.07   16.46
  -8   4 -10    0.79    6.39
  -8   4  10    0.53    5.75
  -8  -4 -10    0.39    8.22
   8   4  10    0.43    6.81
   8  -4 -10    1.03    5.57
  -6  12   0   24.57   37.43
  -6 -12   0   11.41   85.45
   6 -12   0   21.60   40.47
  -5  12  -7   25.01   37.44
  -5  12  -7    9.16   82.55
  -5 -12  -7   21.57   27.21
   5 -12  -7   22.20   35.05
  -5  12   7   22.81   25.64
   5  12  -7   21.07   27.84
  -5  12   7   26.67   33.00
   5 -12   7   16.16   20.18
   5  12   7   21.26   22.22
  -5 -12   7    7.11  102.38
   4   7  16   21.52   18.06
   4  -7 -16   22.68   23.76
  -4   7 -16    5.08   99.93
  -4  -7  16    3.09  101.37
  -4   7 -16   24.61   34.83
  -4  -7 -16   77.99   87.95
   4  -7  16   22.39   26.00
  -4   7  16   23.36   34.71
  -8  -8   4   20.65  153.25
  -8   8  -4   61.53   62.79
  -8   8   4   54.05   52.49
   8  -8   4   51.19   48.60
  -6   4 -15   32.93  153.01
  -6  -4 -15   93.47   76.63
  -6   4 -15   80.61   50.47
   6   4  15   84.23   56.00
   6   4 -15   91.72   62.09
  -6   4  15   97.50   74.97
   6  -4  15   87.14   55.38
   6  -4 -15   89.38   60.79
   9  -5   3   26.92   29.75
  -9  -5   3    5.20   61.35
   9  -4   5    0.08    6.02
  -9  -4  -5    1.11    5.29
  -2 -15   1    2.20    9.43
   2 -15   1    0.33    3.76
   2  15  -1    0.11    5.87
  -2  15  -1    0.31    3.92
  -2 -15  -1   -0.73    9.86
  -2  15   1    1.18    4.66
   2  15   1    0.59    6.37
  -3 -12  11   35.00  114.27
   3 -12  11   13.76   36.93
  -3  12 -11   35.84   38.65
   3 -12 -11   39.25   32.70
   3 -12 -11   16.23   59.39
  -3 -12 -11   40.91   42.94
   3  12 -11   29.49   25.33
  -3 -12 -11    8.82   51.64
  -3  12  11   43.42   65.64
   3  12  11   37.00   25.21
  -6 -12  -1  122.19  378.27
   6  12  -1  446.39  204.06
  -6  12  -1  526.29  255.37
   6 -12  -1  462.82  209.45
  -6  12   1  515.53  240.50
  -7   0  14   16.48   27.21
   7   0 -14   16.53   19.27
  -7   0 -14   16.93   29.56
   7   0  14   16.87   25.75
   1  -7 -18   21.19   85.35
  -1   7 -18   49.61   45.74
   1   7 -18   21.22  106.78
  -1   7  18   49.14   32.22
  -1  -7 -18   80.55   96.90
  -1   7 -18   20.51  128.76
  -1  -7 -18   46.41   29.98
   1  -7  18   50.70   44.74
   1   7 -18   48.87   57.84
   2 -13 -10   16.88   71.59
  -2 -13 -10   13.73   58.68
   2  13 -10   15.76   70.41
   2  13  10   41.34   32.62
  -2  13 -10   37.64   31.74
   2  13 -10   31.03   23.93
  -2 -13  10   14.89  106.46
  -2 -13 -10   42.90   41.97
  -2  13 -10    9.74  103.04
   2 -13  10   10.68   34.64
   2 -12 -12    0.01   21.78
   2 -12 -12    3.61   10.07
   2  12 -12    2.09   21.73
   2  12 -12    2.68    6.39
  -2 -12  12    0.44   50.21
   2 -12  12    0.09   15.03
  -2 -12 -12    3.70   13.31
  -2 -12 -12    0.93   19.40
  -2  12  12    4.59   14.37
   3  -7 -17  225.02   92.42
  -3   7 -17  259.91  168.63
   3   7 -17  200.70   83.78
  -3  -7 -17  820.37  412.17
  -3   7  17  255.64  129.00
  -3  -7  17  156.90  219.20
  -3   7 -17  135.31  322.00
   3  -7  17  224.99  110.60
  -3  -7 -17  253.79  123.08
   3   7 -17  203.79   92.12
   7  -4 -13   37.82   37.56
   7   4 -13   36.76   36.70
  -7   4  13   34.86   57.72
   7   4  13   32.49   37.24
   7  -4  13   32.67   28.55
  -7   4 -13   26.91   33.48
  -7  -4 -13   31.94   46.25
  -6   7  13    3.70   12.82
   6  -7 -13    3.13    9.96
  -6  -7  13    4.01   48.70
   6  -7  13    0.15    7.76
  -6   7 -13    3.30   11.88
   6   7  13    2.56    8.53
  -6  -7 -13    3.48   13.41
   6   7 -13    1.87    8.61
   4 -14   0   15.25   22.05
   4  14   0   16.23   24.74
   4 -14   0   12.56   73.61
  -4 -14   0    5.09   49.06
  -4  14   0   17.48   22.05
  -1 -15  -4   44.03   35.76
  -1  15   4   44.72   44.09
   1 -15  -4   57.22  105.77
   1 -15  -4   41.09   36.92
   1  15   4   42.74   45.35
  -1 -15   4   14.78   94.13
   1 -15   4   20.71  107.67
  -1  15  -4   38.73   27.14
  -1 -15  -4   12.56   77.43
  -4 -10  13   60.42  286.52
  -4  10 -13  231.11  127.46
  -4 -10 -13   71.85  135.66
   4 -10 -13  218.32   92.61
  -4  10  13  236.65  129.97
  -4  10 -13  102.48  335.78
   4  10 -13  169.28   79.56
  -4 -10 -13  238.55  135.27
   0  -3  20    0.51    3.80
   0  -3 -20    0.45    2.83
   0   3 -20   -0.08    4.66
   0   3 -20   -0.23   16.95
   0  -3 -20   -0.57   15.00
  -7   1  14  188.49  112.42
  -7  -1 -14  201.08  126.35
   7   1  14  198.80  106.82
   7  -1  14  197.50  103.88
  -7   1 -14  193.61  115.96
  -7  -1  14  181.60  103.82
   7  -1 -14  183.73   91.19
  -2   9  16   93.69   60.03
  -2  -9  16   53.69  120.58
   2  -9 -16   35.41  105.53
  -2   9 -16   93.44   87.00
   2  -9  16   81.28   53.85
  -2  -9 -16   36.66  108.81
   2   9 -16   74.85   44.19
  -2  -9 -16   93.71   59.95
  -5  -3 -17  206.01  107.98
   5  -3  17  189.93   94.61
  -5   3  17  220.77  145.56
   5   3 -17  185.37   98.13
  -5   3 -17  133.10  289.60
  -5   3 -17  177.24   79.14
   5   3  17  202.75   95.96
  -5  -3 -17  155.01  298.83
   6   0  16   51.75   43.95
  -6   0  16   53.78   50.07
  -6   0 -16   55.24   46.38
   6   0 -16   53.14   42.40
  -4 -14  -1    6.52   48.82
   4 -14   1   13.18   80.49
  -4 -14   1    8.50   63.97
   4 -14  -1   17.84   24.64
   4 -14  -1   13.80   79.69
   4  14   1   21.23   27.83
   4 -14   1   18.11   23.49
  -4  14   1   20.77   23.77
   4  14  -1   20.82   27.03
  -4  14  -1   21.46   25.33
  -9   2  -7    0.86    7.11
  -9  -2  -7    1.09    8.00
  -6   8 -12   33.67   44.29
  -6  -8 -12   29.49   42.60
  -6   8  12   36.21   44.02
   6   8  12   28.49   28.52
   6  -8 -12   30.62   33.30
   6  -8  12   23.94   24.85
  -6  -8  12   12.41  150.25
   6   8 -12   27.27   30.26
  -2 -15  -2   10.48   62.16
   2 -15   2   33.94   26.01
  -2  15   2   40.34   34.81
  -2 -15  -2   35.57   24.80
   2  15  -2   38.86   38.02
  -2  15  -2   34.33   25.75
   2  15   2   43.32   43.27
  -2 -15   2   17.88   80.80
   2 -15  -2   37.62   32.21
  -6  10  -9  189.67  124.31
  -6  10   9  189.00  117.94
   6  10  -9  152.10   86.51
  -6 -10  -9  178.84  119.55
   6  10   9  163.08   90.84
   6 -10  -9  171.87   95.53
  -6  10  -9   54.28  176.81
   6 -10   9  130.34   72.85
  -6 -10   9   42.66  273.80
  -3   3  19  457.46  199.64
   3   3 -19  458.75  189.48
  -3  -3 -19  405.86  152.83
  -3  -3 -19  342.37  491.26
   3   3 -19  374.80  135.94
   3  -3  19  468.82  193.50
  -3   3 -19  454.18  192.64
  -3   3 -19  360.26  569.22
  -4  13  -7   75.40   61.60
  -4  13  -7   33.62  160.28
  -4  13   7   82.03   64.46
  -4 -13   7   95.32  276.07
  -4  13   7   73.98   41.20
   4  13  -7   55.91   43.44
   4 -13   7   53.46   35.43
  -5 -13   3   27.00  128.56
   5  13  -3   46.40   43.99
   5 -13  -3   48.08   46.35
   5 -13   3   39.87   34.91
  -5  13  -3   56.64   51.64
  -5  13   3   52.85   42.38
  -5 -13  -3   11.87   79.94
  -6 -12  -2    2.58   35.84
  -6  12   2    1.55   23.37
   6  12  -2    1.30   13.03
  -6  12  -2    1.62   18.49
   6 -12  -2    0.91   13.17
  -6 -12   2  193.37   57.18
   0 -13  11   -0.79    8.51
   0  13  11    0.59    5.75
   0  13 -11    0.60    3.11
   0  13 -11   -0.90   15.14
   0 -13 -11    0.37    5.79
   0 -13 -11    0.04   10.65
   3 -13  -9    1.82    9.54
  -3 -13   9   76.59   39.49
  -3 -13  -9    0.39   15.28
   3  13  -9    1.22    7.83
   3 -13  -9    0.37   20.32
  -3  13   9    2.22   13.70
  -3  13  -9    1.47   10.43
  -3 -13  -9    2.05   11.79
   2   0  20    2.71   12.32
   2   0 -20    2.56   15.04
  -2   0 -20   97.13   79.65
   2   0 -20  123.55   56.18
  -6  -1  16  249.37  131.83
   6   1  16  247.46  119.77
   6  -1  16  248.45  120.72
  -6  -1 -16  257.61  137.68
   6  -1 -16  241.63  116.52
  -6   1 -16  247.78  125.96
  -6   1  16  260.70  139.35
   2 -10  15   27.09   32.39
  -2 -10 -15   32.78   42.88
  -2 -10 -15   97.96   91.57
  -2  10  15   33.40   42.53
  -2 -10  15   18.53   85.78
   2 -10 -15  188.99   92.78
  -7  10   5    2.76   12.16
   7  10  -5    2.55    9.80
  -7 -10   5   -1.96   43.74
  -7  10  -5    2.50   14.56
  -2   8 -17    2.39   35.39
  -2  -8 -17    3.26    9.33
  -2  -8 -17    2.47   21.62
   2   8 -17    2.02    8.29
   2  -8  17    2.35   10.04
   2  -8 -17    1.14   19.96
  -2   8  17    2.15    9.75
  -2   8 -17    3.02   11.80
   4 -14   2  102.90   61.33
  -4  14   2  119.43   78.46
  -4 -14  -2   26.86  100.09
  -4  14   2  120.02   64.88
  -4  14  -2  122.05   70.87
  -4 -14   2   31.93  150.09
   4 -14  -2   37.75  130.19
   4 -14  -2  110.62   68.03
   4  14   2  120.60   72.87
   4  14  -2  108.93   68.22
   4 -14   2   56.20  183.82
  -6   6 -14   36.72  155.61
  -6  -6  14    8.84  294.43
   6   6  14   81.82   51.49
  -6   6 -14   90.07   67.59
   6  -6  14   70.92   47.84
   6   6 -14   82.57   55.19
  -6   6  14   94.19   72.57
   2   1 -20   31.45   46.49
   2  -1 -20   29.26  103.88
  -2   1 -20  130.98  162.58
  -2   1 -20   30.58   25.46
   2   1 -20   22.40  101.10
   2  -1  20   32.99   29.38
  -2  -1 -20   25.97  139.60
   5  -8  14   28.75   20.69
  -5  -8  14   19.50  146.69
  -5   8  14   49.90   49.99
   5   8 -14   37.25   30.84
  -5   8 -14   48.27   50.23
   5  -8 -14   44.31   34.92
   5   8  14   46.23   30.25
  -8  -7  -7    6.83   18.20
  -8   7  -7    6.56   20.67
   8  -7   7    4.84   17.09
  -8  -7   7   -0.42   80.68
   8  -7  -7    6.76   16.73
   0 -15  -5    0.66    6.29
   0  15   5    0.00    7.38
   0 -15  -5   -0.67   15.26
   0 -15   5    0.62   17.32
   0  15  -5    1.17    4.45
  -3  14  -6    0.83   36.93
   3 -14   6    0.82    5.06
  -3  14  -6    1.64    9.57
   3 -14  -6   -0.50   22.50
   3  14   6    1.28    9.86
  -3 -14   6  233.15   45.36
   3 -14  -6    1.49   10.03
  -3  14   6    1.07   12.02
  -3 -14  -6    0.54   14.02
   3  14  -6    1.68    8.92
   1   3 -20    0.68   24.79
  -1  -3  20    2.25    5.59
  -1  -3 -20    0.50   26.49
   1  -3 -20   -0.26   23.55
  -1   3 -20   -0.16    7.01
   1   3 -20    1.69    7.58
  -1   3 -20    1.69   30.46
   1  -3  20    0.70    6.53
  -9  -5   4   10.97   88.93
   9  -5   4   62.20   47.55
  -7   2  14   54.10   51.63
   7   2  14   51.73   46.79
  -7   2 -14   50.32   47.52
   7  -2  14   52.58   42.56
  -7  -2 -14   56.91   58.03
   7  -2 -14   51.60   41.72
  -3 -11  13    4.85   50.58
  -3 -11 -13    0.73   25.75
  -3  11  13    7.33   18.70
  -3 -11 -13    7.18   17.61
  -3  11 -13    2.39   56.49
   3  11 -13    4.86    9.49
   6  11   7   89.03   63.65
  -6  11   7   90.17   67.91
  -6  11  -7   93.27   81.52
  -6 -11  -7   80.26   59.92
  -6  11  -7   23.72  130.56
  -6 -11   7   22.34  199.94
  -6  11   7   83.28   62.25
   6  11  -7   72.86   56.85
  -8  -3 -11   16.25   32.22
   8   3 -11   16.28   22.69
   8  -3 -11   17.07   21.76
  -8   3 -11   15.53   26.77
   8   3  11   15.96   26.53
  -8   3  11   14.42   23.43
   2 -15  -3    9.66   65.52
  -2 -15  -3   19.87   18.66
  -2 -15  -3    3.73   45.14
   2 -15  -3   19.60   23.58
  -2 -15   3    5.39   55.51
   2  15   3   22.52   28.53
   2  15  -3   19.30   25.02
   2 -15   3   16.54   15.75
   0  12 -13    0.08   28.89
   0 -12 -13   -0.50   17.19
   0 -12  13    2.32   15.51
   0 -12 -13    1.99    9.04
   6 -12  -3   24.30   29.72
   6 -12   3   22.30   28.86
  -6  12   3   27.00   35.73
  -6 -12  -3    9.84   69.68
   6  12  -3   24.64   29.22
  -6 -12   3   13.35  108.96
  -6  12  -3   28.01   40.38
   1  13 -11   61.69  168.22
   1 -13 -11  177.39   85.88
  -1 -13 -11   57.48  132.34
   1 -13 -11   61.22  151.55
  -1 -13 -11  176.33   93.14
   1 -13  11   73.94  106.43
  -1 -13  11   47.94  248.64
  -1  13 -11   59.46  200.87
  -8  -8   5   12.46  120.31
  -8   8   5   31.18   38.97
   8  -8   5   31.11   36.31
  -8   8  -5   37.85   46.80
   5   7 -15   58.05   41.50
  -5  -7 -15   76.38   68.73
   5  -7  15   46.97   30.00
   5  -7  15   67.20   41.73
  -5   7  15   77.45   63.62
  -5  -7  15   13.78  171.70
   5   7  15   73.52   40.82
   5  -7 -15   71.67   48.97
  -5   9 -13    7.76   20.52
  -5   9  13    8.83   19.29
   5   9 -13    6.38   12.20
   5  -9 -13    7.65   13.18
   5  -9  13    1.29   10.18
  -5  -9 -13    6.63   20.81
   5   9  13    7.17   10.60
  -5  -9  13    0.98   59.39
   2  -5  19   22.05   26.39
  -2  -5 -19   18.23   15.57
  -2  -5  19   15.16   48.30
   2   5 -19    9.73   61.44
  -2   5  19   21.29   19.87
  -2   5 -19    8.87  102.97
  -2   5 -19   22.07   28.35
  -2  -5 -19   81.59   96.03
   2   5 -19   20.75   27.58
  -6   2  16   49.37   48.24
   6  -2  16   46.24   40.64
   6   2 -16   49.91   35.85
   6   2  16   44.22   40.40
  -6  -2 -16   48.84   47.84
  -6   2 -16   44.16   37.50
   6  -2 -16   45.43   40.38
   4  -4  18  190.22   98.49
   4   4 -18  181.23   91.54
  -4   4 -18  124.49  299.58
   4   4  18  198.93   85.76
   4  -4 -18  188.90   94.64
  -4  -4 -18  150.90  281.29
  -4   4 -18  186.54   99.59
  -4   4  18  206.04  109.65
  -4  -4 -18  193.43  115.44
  -4   6 -17    6.41   68.98
   4  -6 -17    8.07   16.29
  -4  -6  17  194.84   78.20
  -4   6  17   11.92   22.26
   4  -6  17    7.73   17.75
  -4  -6 -17   33.74   59.45
   4   6  17    8.12   12.00
  -4  -6 -17    8.63   19.46
   6  -9 -11   34.46   34.05
  -6  -9  11   13.35  171.39
  -6   9 -11   40.74   45.26
   6   9  11   34.32   41.01
   6  -9  11   25.48   24.25
   6   9 -11   31.65   31.96
  -6   9 -11    6.68   76.26
  -5  11 -10    2.74   57.57
  -5  11  10   14.01   25.58
  -5 -11 -10   12.17   25.32
   5  11 -10   11.38   18.48
   5 -11 -10   13.14   17.67
   5 -11  10    9.15   12.12
  -5  11 -10   15.34   26.84
   5  11  10   11.40   13.19
  -5 -11  10    9.96   87.14
  -9   6   0    1.52    8.11
  -5 -13   4   19.43  115.56
   5 -13  -4   34.78   35.94
  -5 -13  -4    7.23   63.35
   5  13  -4   34.03   37.38
  -5  13  -4   37.97   44.71
  -5  13   4   35.89   32.65
  -5  13   4   35.59   34.54
  -4 -12 -10    0.36    8.46
   4 -12  10    0.71    2.92
   4 -12 -10    0.61    4.31
  -4  12  10    1.21    8.17
  -4 -12 -10    0.85    7.40
   4  12 -10    0.98    4.86
  -4  12 -10   -1.19   20.46
  -4  12 -10    1.06    7.72
  -4 -12  10    2.72   24.72
   0  -6 -19    5.37   33.56
   0  -6  19    2.16   10.44
   0   6 -19    2.78   10.78
   0   6 -19    0.00   30.50
   4 -14   3   -1.26   23.74
  -4 -14  -3    0.27   11.77
  -4  14   3    1.94    6.28
   4  14   3    1.34    7.95
  -4 -14   3    3.71   22.02
  -4  14  -3    1.30    7.99
  -4  14   3    1.07    6.87
   4 -14   3    1.08    6.02
   4  14  -3    1.26   10.65
   4 -14  -3    1.39    7.78
  -7  -9  -8    0.91    5.42
  -7  -9   8   -0.70   19.40
   7   9  -8    0.34    4.31
   7   9   8    0.56    5.27
  -7   9   8   -0.05    4.93
   7  -9   8    0.09    4.03
  -7   9  -8    0.48    6.81
   1 -15  -5   10.71   17.92
  -1 -15  -5    9.91   17.69
  -1 -15  -5    5.09   38.65
   1 -15   5    4.78   53.13
   1 -15  -5    4.44   49.55
  -1  15   5    9.29   22.01
  -1 -15   5    3.55   44.96
   1  15   5   10.26   21.72
  -9   0  -8   60.32   56.08
  -9  -4  -6    3.29   11.06
   9  -4   6    2.64   11.90
  -9   6  -1   16.55   24.22
  -9  -6   1    3.16   61.07
  -9   6   1   16.67   23.63
   9   6   1   17.66   30.32
  -2   2 -20    1.53    6.06
   2  -2 -20    3.24   23.46
   2   2 -20    1.59    7.63
   2   2 -20    0.89   21.68
   2  -2  20    0.48    6.91
  -2   2 -20   -0.19   32.71
  -2  -2 -20   -1.39   40.26
   0  14  -9   18.41  105.24
   0 -14  -9   47.65   42.74
   0 -14   9   12.44   73.10
   0 -14  -9   20.77   74.35
  -7   7  11    3.32   18.29
   7   7  11    2.96   14.11
   7  -7 -11    2.68   14.35
   7  -7  11   11.16   12.82
   7   7 -11    2.51   12.89
  -7  -7  11    2.63   56.23
  -7   7 -11    4.60   18.11
   7  -6 -12   70.79   53.74
   7  -6  12   59.86   49.77
   7   6  12   70.18   53.62
  -7   6 -12   69.63   61.27
  -7  -6 -12   69.90   92.03
  -9  -3  -7    7.26   21.79
   9   3   7   11.07   19.32
   2 -14  -8   32.57  136.49
  -2  14  -8   96.40   55.60
  -2 -14   8  123.77  180.56
  -2 -14   8   29.20   99.86
  -2  14  -8   46.75  190.15
   2  14   8  107.60   66.11
  -2 -14  -8  107.13   72.03
   2 -14  -8  103.26   64.55
  -2 -14  -8   26.80   98.52
  -2  14   8  118.20   83.53
  -2  11 -14    1.53    6.67
  -2 -11 -14   -0.29   12.83
  -2  11  14    0.67    7.56
   2  11  14    0.92    4.28
   2  11 -14    0.90   11.94
   2 -11  14    0.25    6.93
  -2 -11 -14    0.86    7.52
   2 -11 -14   -0.00   11.71
  -2  11 -14    1.07   24.58
   1  12 -13   -4.15   38.59
  -1 -12 -13   -1.20   31.53
  -1 -12  13    1.47   29.73
   1 -12 -13    7.58   14.25
  -1  12 -13    5.19   12.75
  -1  12  13    7.82   17.27
   1  12 -13    5.48    8.44
   1  12  13    6.65   13.60
  -1  12 -13    2.69   53.07
  -1 -12 -13    7.34   23.38
   1 -12 -13    3.40   31.09
   1 -12  13    1.08   23.79
  -9   1  -8    0.72    5.19
  -9  -1  -8   -0.05    5.56
   8  -9   0    8.69   16.30
  -8  -9   0    2.61   57.95
  -8   9   0    8.35   22.07
  -3  -6 -18    5.48    5.90
  -3  -6  18   -1.61   13.13
  -3  -6 -18   -1.27   22.22
  -3   6  18    0.43    6.28
   3   6 -18    0.35    5.25
   3   6 -18    0.27    3.44
   3  -6  18   -0.06    9.32
  -3   6 -18    0.69    7.08
  -3   6 -18    1.01   25.41
   3  -6 -18    0.12    6.24
  -4 -11  12   -1.13   17.37
  -4 -11 -12    0.62    5.93
   4 -11 -12    0.12    3.14
  -4  11 -12   -0.73   17.70
  -4  11  12    0.22    6.06
   4  11 -12    0.67    3.10
  -4 -11 -12   -0.06    6.42
  -4  11 -12    0.36    5.67
  -9  -6   2    9.01  105.94
  -9   6  -2   52.49   45.74
   9   6   2   58.40   56.12
  -9   6   2   56.98   45.16
   2  -7  18  206.34  105.43
   2   7 -18  199.77  100.73
   2   7 -18  116.91  238.52
  -2  -7 -18  735.50  397.87
  -2  -7 -18  214.91   98.02
   2  -7 -18  204.93   80.67
  -2   7 -18  123.47  311.23
  -2   7 -18  224.52  121.33
  -5  12   8    7.15   19.54
  -5  12  -8    9.53   21.39
  -5  12  -8    4.11   49.25
  -5  12   8   12.45   15.80
   5 -12   8    4.41   10.58
   5  12   8    6.05   11.36
   5  12  -8    8.05   16.07
   5 -12  -8    7.90   14.06
  -5 -12  -8    8.44   16.65
  -5 -12   8   -7.14   65.10
  -8  -9  -1    5.20   85.01
  -8   9   1   22.78   34.29
   8  -9  -1   22.11   25.61
  -8  -9   1   11.80   91.75
   8  -9   1   22.65   27.50
  -8   9  -1   21.22   35.03
   0   4 -20   74.11  193.91
   0   4 -20  109.99   73.90
   0  -4 -20  371.38  245.17
   0  -4  20  114.71   69.70
  -5   4  17   29.62   35.16
   5  -4 -17   26.65   29.01
  -5   4 -17    9.29   97.08
  -5   4 -17   22.01   17.37
   5   4  17   27.73   25.75
  -5  -4 -17    7.26   92.13
   5  -4  17   24.54   26.45
  -5  -4 -17   26.73   31.85
   5   4 -17   31.95   32.73
  -1   6 -19   16.55   24.68
   1   6 -19   14.78   23.66
  -1   6  19   12.98   13.41
  -1   6 -19    4.31   71.51
   1   6 -19    7.92   61.49
  -1  -6 -19   54.66   76.06
   1  -6 -19   45.70   78.68
   1  -6  19   14.56   23.82
   2 -15   4    3.69   44.77
  -2 -15  -4    0.26   25.72
   2 -15   4    4.13    7.30
  -2  15   4    7.38   16.39
  -2 -15   4   -2.32   27.38
   2 -15  -4    5.27   13.54
  -2 -15   4    1.48   29.95
   2  15  -4    6.93   12.70
  -2  15  -4    6.08    8.95
  -2 -15  -4    5.86   11.44
   2  15   4    7.89   16.16
   8   5  10   60.30   54.30
   8  -5  10   57.27   53.13
   8  -5 -10   60.39   46.42
  -8  -5 -10   59.09   64.05
  -8   5  10   59.34   51.79
   8   0  12   78.89   54.46
  -8   0 -12   75.18   67.92
  -8   0  12   63.95   49.80
  -6  12   4   10.14   22.43
   6 -12   4    8.13   16.97
   6 -12  -4    9.50   17.87
  -6 -12   4    7.01   71.69
  -6 -12  -4    1.41   42.68
   6  12  -4   11.22   19.04
  -6  12  -4   11.78   25.44
   8   6   9    2.21   13.56
   8  -6  -9    1.38   11.98
  -8  -6   9    0.80   33.58
   8   6  -9    1.43   10.26
   8  -6   9   11.22   13.19
  -8  -6  -9    5.50   15.91
  -8   6   9    1.73   11.05
   6  -5  15   80.07   49.02
  -6  -5 -15   85.53   97.53
   6   5  15   75.01   50.95
  -6   5  15   87.69   71.21
  -6   5 -15   42.64  158.73
   6  -5 -15   81.55   56.74
  -6   5 -15   74.91   55.05
  -3   4 -19   27.47   28.59
   3  -4  19   28.56   30.55
   3   4  19   25.09   18.24
   3   4 -19   24.87   17.07
  -3  -4 -19   25.80   27.07
   3   4 -19   28.45   29.88
  -3  -4 -19   28.83  109.35
  -3   4 -19   24.01  117.49
  -9  -5   5    0.24   46.07
   9  -5   5   17.91   23.07
   1  14  -9   14.61   92.14
  -1 -14  -9   42.70   42.09
   1  14  -9   30.61   22.88
   1  14   9   40.68   38.50
  -1  14  -9   34.46   25.64
   1 -14  -9   20.42   82.97
  -1 -14   9   16.83   89.30
   1 -14  -9   44.72   41.55
  -1  14  -9   11.25  112.58
  -1 -14  -9   16.49   71.65
  -1  14   9   47.55   47.71
  -7 -10   6    6.03   77.34
  -7  10  -6   13.11   26.61
   7  10   6   11.04   22.26
   7  10  -6    9.89   25.57
  -7  10   6   10.68   22.13
   7 -10   6    7.75   17.74
  -7   3  14  151.40   97.79
   7   3  14  148.90   87.12
  -7   3 -14  142.49   85.98
  -7  -3 -14  154.36  106.13
   7  -3  14  149.01   78.39
   7  -3 -14  146.08   82.23
   7  -8 -10    0.51    5.54
   7  -8  10    0.28    4.58
  -7   8  10    0.57    6.79
   7   8 -10    0.41    5.09
   7   8  10    0.29    5.51
  -7  -8 -10    0.11    7.91
  -7  -8  10   -0.63   22.69
  -7   8 -10    2.21    7.81
  -5  -6 -16  327.40  175.27
  -5  -6  16   11.89  176.88
  -5   6 -16   44.43  165.44
   5   6  16   93.56   49.99
  -5  -6 -16   94.30   70.15
   5  -6  16   58.03   35.93
   5  -6 -16   91.23   55.38
  -5   6  16   99.20   71.51
   5  -6  16   84.86   52.73
  -5   6 -16   93.63   66.24
   7 -11   0    0.50    6.67
  -7  11   0    1.24    8.42
  -7 -11   0    1.69   21.22
  -8  -1 -12    9.08   32.88
   8  -1  12    8.28   16.57
  -8   1  12    7.95   17.12
   8   1  12    9.87   18.32
  -8   1 -12    8.68   21.49
   5  10  12   35.47   23.57
   5 -10  12   22.32   18.36
  -5  10 -12   36.81   43.31
   5  10 -12   29.57   28.11
  -5 -10  12   14.02  125.93
   5 -10 -12   33.56   28.63
  -5  10 -12   19.64  111.92
  -5  10  12   39.48   43.63
  -5 -10 -12   39.80   45.07
   0  15   6    0.19    5.39
   0 -15   6    0.03   12.06
   0  15  -6   -0.79    3.30
   0 -15  -6   -0.95   10.90
   0 -15  -6    0.27    4.94
  -7  -5 -13   44.50   54.42
   7  -5 -13   44.91   56.48
  -7   5  13   48.57   51.18
   7   5  13   44.22   43.24
  -8   9   2  109.75   78.01
  -8  -9   2   28.54  190.20
  -8  -9  -2   24.98  173.75
  -8   9  -2  107.68   82.89
   0  -9 -17   -4.78    5.79
   0  -9 -17   -0.40    1.81
   0   9 -17    0.89    2.38
   0   9  17    0.17    1.64
   4 -14   4    2.07   29.92
  -4  14  -4    2.11   10.66
   4 -14   4    2.56    7.17
   4  14  -4    2.82    9.64
  -4 -14  -4    1.37    5.94
   4  14   4    2.42   10.31
  -4  14   4    6.00    9.73
  -4  14   4    2.13    7.57
   4 -14  -4    0.86   14.26
  -4 -14   4    1.38   28.74
  -7  11   1   32.06   57.00
  -7 -11  -1   15.31   97.13
  -7  11  -1   37.36   43.72
   7 -11   1   28.31   34.23
  -7 -11   1    8.31  108.34
   0 -10 -16   68.71   45.10
   0  10 -16   57.27   44.63
   0  10  16   69.18   42.49
   0 -10  16   34.70   95.00
   0 -10 -16   26.82  100.40
  -9   2  -8   79.08   62.43
  -9  -2  -8   83.55   71.38
  -4  13  -8    6.75  114.44
   4 -13  -8   42.33   35.64
   4 -13  -8   36.01   26.52
   4 -13   8   26.81   20.47
   4  13  -8   30.95   29.71
  -4 -13   8   24.88  139.50
  -4  13  -8   43.95   42.74
  -4  13   8   45.88   42.84
  -6   3  16   27.88   36.00
  -6   3 -16    7.05   75.83
  -6   3 -16   24.03   24.26
   6  -3 -16   26.98   29.26
   6  -3  16   26.00   39.17
   6   3  16   26.57   28.10
  -6  -3 -16   29.06   35.03
  -4   0 -19    0.82   13.87
   4   0  19    0.45    2.87
  -4   0  19   -0.15    2.53
   4   0 -19    0.13    2.92
   1   4 -20   57.40   49.91
  -1  -4  20   57.06   55.27
  -1  -4 -20  177.26  168.90
   1  -4  20   59.71   46.13
   1  -4 -20   57.32   32.94
  -1   4 -20   59.20   48.64
  -1   4 -20   33.58  145.45
   1   4 -20   33.13  124.80
   1  -4 -20  216.73  158.49
   9  -6   3  155.71   89.23
  -9   6   3  169.81   91.94
  -9   6  -3  156.79   92.30
  -9  -6   3   29.91  185.87
  -5  13  -5   13.09   39.52
  -5 -13   5    5.52   78.23
  -5  13   5   15.63   21.12
  -5  13   5   12.69   21.43
   5 -13  -5   13.28   22.40
   3 -14   7   38.03   23.11
  -3  14  -7   26.05  142.05
  -3  14  -7   58.98   42.31
   3 -14  -7   19.31   86.42
   3  14   7   60.94   42.88
  -3 -14  -7   12.90   55.18
  -3 -14   7   28.81  134.55
   3  14  -7   47.11   36.63
  -3  14   7   77.33   54.58
   3 -14  -7   57.25   41.91
  -8   8  -6    0.34    7.42
   8  -8   6    0.59    5.21
  -8  -8  -6    0.51    4.55
  -8  -8   6   -0.80   19.08
   2   3 -20  126.55  222.23
  -2  -3 -20  151.18  313.92
   2  -3  20  220.45  101.96
   2   3 -20  215.41  105.86
   2  -3 -20  203.01   88.63
  -2   3 -20  170.77  355.11
  -2   3  20  170.89   72.01
  -2   3 -20  207.96   99.94
  -4  -1  19   45.02   32.32
  -4  -1 -19   28.70  159.47
   4   1  19   49.17   48.84
   4  -1  19   48.66   38.68
  -4  -1 -19   42.61   27.36
   4  -1 -19   47.84   41.10
  -4   1  19   47.25   35.61
  -4   1 -19  215.62  178.02
  -8  -4 -11   92.32   81.65
  -8   4 -11   83.88   63.88
  -8   4  11   92.20   66.83
   8  -4 -11   88.32   75.08
   8   4  11   92.54   68.01
  -7  11  -2    4.41   16.08
  -7  11   2    5.00   14.79
  -7 -11  -2    2.26   35.57
   7 -11  -2    3.17   11.21
   7 -11   2    3.04   11.90
  -7 -11   2   -0.85   41.17
   8  -7   8    2.45   10.28
  -8  -7   8    2.06   52.62
  -8  -7  -8    2.52   12.29
   8  -7  -8    1.96   10.78
  -8   7  -8    2.78   12.26
  -3  15   0   -0.15    1.60
   3  15   0    0.31    2.46
   3 -15   0   -0.20    2.67
  -3  15   0   -0.02    1.50
  -5   0  18  257.54  125.32
  -5   0 -18  249.81  108.45
  -5   0 -18  216.03  375.50
   5   0  18  252.86  115.77
  -1 -15  -6    8.98   16.26
  -1 -15   6    2.16   38.08
   1  15  -6    6.78   12.08
   1  15   6    8.54   18.72
  -1 -15  -6    2.44   34.39
   1 -15  -6    2.66   43.24
   1 -15  -6    7.46   16.20
  -2 -13  11    3.08   50.10
   2 -13 -11   10.00   16.29
  -2  13 -11    2.67   49.60
   2 -13 -11    0.88   33.56
   2  13 -11    2.50   31.65
  -2 -13 -11    3.19   27.36
   2 -13  11    1.46   18.11
  -2  13  11   13.60   22.05
   2  13  11    8.71   14.85
   2  13 -11    6.18    9.92
   1   9 -17   23.96   26.53
  -1   9  17   27.17   25.69
  -1  -9 -17   31.19   27.90
  -1   9 -17   23.99   32.46
   1  -9 -17   28.18   20.78
   1  -9 -17   21.51   68.99
  -1  -9  17   15.23   65.73
  -1  -9 -17   16.57   64.66
   1  -9  17   24.18   30.55
   6  10 -10   42.89   38.90
  -6  10  10   55.44   70.90
  -6  10 -10   21.84   90.23
   6 -10 -10   49.33   40.84
  -6 -10  10   19.13  141.76
  -6  10 -10   54.41   55.40
  -6 -10 -10   54.28   53.11
   6 -10  10   36.94   31.26
  -8   2 -12   12.19   24.64
   8   2  12   14.06   22.72
  -8   2  12   11.93   21.04
  -8  -2 -12   14.04   27.99
  -1  10 -16  158.79   99.26
   1  10  16  127.86   57.00
   1 -10 -16  119.44   58.26
   1 -10 -16  105.65  145.24
  -1  10  16  134.51   74.27
   1  10 -16  110.09   62.31
   1 -10  16  113.59   90.59
  -1 -10 -16   84.92  146.18
   3 -15   1   10.32   15.76
  -3  15  -1   11.32   14.09
  -3  15   1   11.46   15.59
   3  15  -1   10.91   21.47
  -3  15   1   10.49   12.28
   3  15   1   12.40   21.71
   3 -15  -1   11.19   17.09
  -8  -9   3    2.05   61.46
  -8   9  -3    9.89   23.38
   8  -9   3    8.26   18.15
   0   8 -18   38.34   37.25
   0  -8 -18   16.52   75.88
   0  -8  18   43.16   39.97
   0  -8 -18   38.59   24.32
  -6  11  -8   13.99   84.08
  -6  11   8   41.66   42.23
  -6 -11  -8   37.48   39.69
  -6  11  -8   40.71   50.87
  -6 -11   8   19.40  133.91
   3  13 -10   18.94   21.15
   3 -13 -10   39.82   58.13
  -3 -13 -10   22.31   44.66
  -3 -13 -10   25.07   34.10
  -3  13 -10   22.91   29.95
   3 -13 -10   22.49   25.99
  -3 -13  10   26.22  101.17
   3  12  12   48.05   26.90
  -3 -12 -12   14.78   63.10
   3  12 -12   37.46   27.07
  -3  12  12   53.59   49.37
  -3  12 -12   50.72   43.29
  -3 -12  12   25.82  124.93
   3 -12  12   13.08   41.49
  -5  -1 -18   63.12  199.82
  -5   1 -18   81.88   46.00
   5   1  18   87.91   54.46
  -5  -1  18   86.96   57.69
   5   1 -18   85.04   55.21
  -5   1  18   90.53   60.31
   5  -1  18   88.99   71.64
  -5  -1 -18   86.82   51.49
  -5   1 -18  354.26  289.44
   0 -11  15   -1.05   18.62
   0 -11 -15   20.93   21.20
   0  11  15   -0.34    8.87
   9   4   7   10.05   20.19
  -9  -4  -7    9.20   21.22
   9  -4   7    9.12   20.12
  -2 -15   5   22.47   50.35
  -2  15   5   35.34   29.90
   2  15  -5   13.61   19.54
  -2 -15  -5    3.47   40.14
   2 -15   5    7.12   68.66
  -2 -15  -5   13.88   19.93
  -2 -15   5    3.91   45.08
   2  15   5   14.86   24.84
   2 -15  -5    6.42   57.67
  -2  15  -5   12.05   20.69
   2 -15  -5   14.72   22.95
   6 -12   5  242.79  118.87
   6  12  -5  267.40  134.13
   6 -12  -5  286.53  133.63
  -6 -12   5   84.65  373.71
  -6  12  -5  314.78  169.22
  -3  -9  16   61.47   45.73
  -3  -9 -16   10.68   20.15
   3   9 -16    6.90   10.28
  -3  -9 -16    4.15   33.77
   3  -9  16    8.05   15.19
   3  -9 -16    8.40   10.28
  -3   9  16   10.51   20.28
  -4  -9 -15   21.46  113.78
  -4  -9 -15   35.44   41.08
   4  -9 -15   32.82   25.73
  -4  -9  15   31.90  111.55
   4   9 -15   26.45   21.70
  -4   9  15   36.10   39.99
   3 -15  -2   24.33  110.08
  -3  15   2   77.35   46.57
   3  15  -2   69.93   51.99
   3 -15   2   65.13   41.62
  -3 -15  -2   18.15   62.05
   3  15   2   77.59   57.01
  -3 -15   2   19.63   88.40
   3 -15  -2   67.83   45.90
  -3  15  -2   71.04   39.87
  -4  -5 -18  452.15  324.41
  -4   5 -18  116.73  281.20
   4   5  18  178.32   73.44
  -4   5 -18  182.38   98.78
   4   5 -18  152.91   68.75
  -4  -5 -18  179.04   89.39
   4  -5  18  174.62   88.41
   4  -5 -18  175.86   83.38
   4   5 -18  162.74   80.23
   4   2  19    2.08    7.86
   4  -2  19    5.28    9.08
  -4  -2 -19    2.23   38.03
  -4   2 -19    1.11   57.00
  -4   2  19    1.43    8.36
   4   2 -19    2.55    7.00
  -4  -2 -19    1.49    6.36
  -7 -11  -3   19.90  116.54
   7 -11   3   50.23   47.21
  -7  11  -3   60.04   60.63
   7 -11  -3   59.83   46.88
  -7  11   3   59.23   55.83
  -4  -8 -16    5.63   76.05
  -4   8 -16   25.95   35.12
  -4  -8  16    8.00   97.60
   4  -8 -16   25.79   22.81
   4   8 -16   20.76   18.69
   4  -8  16   23.42   22.67
  -4  -8 -16   27.22   34.45
  -2  12  13    6.84   15.95
  -2 -12 -13    2.41   27.55
   2  12 -13    0.50   24.15
  -2 -12  13    2.35   42.45
   2 -12  13    1.03   19.04
   2  12  13    6.04   10.72
   2 -12 -13    1.38   25.82
   2  12 -13    4.32    7.07
  -2  12 -13    2.71   52.20
  -2 -12 -13    6.44   15.42
  -9  -6   4   20.11  157.37
   9  -6   4  142.78   80.22
  -3   0  20    9.47   11.90
   3   0  20   12.20   16.30
  -3   0 -20  120.41  103.03
   4 -14   5   17.22  101.09
  -4  14   5   42.05   27.79
  -4 -14   5   19.98  103.44
  -4 -14  -5   35.37   26.88
  -4  14  -5   43.26   53.16
   4 -14  -5   40.97   36.92
   4 -14   5   32.80   26.21
   4  14  -5   35.75   33.47
  -9  -3  -8   60.80   62.80
   9   3   8   69.32   52.57
   9  -5   6   17.45   25.06
  -9  -5  -6   16.83   24.16
  -3  10 -15    0.44    8.43
  -3 -10  15   36.49   34.42
   3 -10 -15    0.92    3.39
  -3 -10 -15    0.36   12.30
  -3 -10 -15    0.91    7.89
  -3  10  15    1.53    7.73
   3  10 -15    0.51    3.80
   0  13  12   -0.50    3.40
   0 -13  12   -0.27    4.90
   0 -13 -12   -1.18    5.74
   0 -13 -12    0.38    3.14
   0  13 -12    0.02    1.82
  -1   8  18   40.08   27.94
   1   8 -18   17.09  118.94
  -1  -8 -18   15.40   75.42
  -1   8 -18   18.03  107.08
  -1   8 -18   39.71   39.79
   1  -8 -18   16.45   73.93
   1   8 -18   36.84   34.85
  -1  -8 -18   54.71   38.01
   1  -8  18   39.02   38.05
  -1  -8  18   27.49   83.98
   0   0 -21    2.17    7.33
   0   0 -21   -1.38   35.46
  -7   9   9   95.92   71.81
   7  -9   9   76.33   53.46
  -7  -9   9   35.34  212.55
   7  -9  -9   93.38   65.65
  -7  -9  -9   87.23   73.55
  -7   9  -9  108.08   88.82
   7   9  -9   78.18   56.14
  -3  -8  17   72.76  137.77
  -3  -8 -17  121.70   71.71
   3  -8  17  104.72   63.67
   3   8 -17   94.65   43.61
   3  -8 -17  110.84   48.06
  -3  -8 -17   89.37  199.28
  -9   0  -9    0.22    4.59
   6   8 -13  191.01   96.80
   6  -8  13  174.11   85.71
   6   8  13  214.46   95.13
  -6  -8 -13  229.52  136.89
   6  -8 -13  226.88  109.62
  -6   8 -13  256.78  147.93
  -6  -8  13   43.44  423.81
  -6   8  13  249.26  141.02
  -3   1 -20 1021.70  497.08
  -3  -1 -20  196.30  379.18
   3  -1  20  228.11  102.72
   3   1 -20  191.21   75.18
  -3   1  20  200.15   86.11
   3  -1 -20  208.82   97.85
   3   1  20  224.56   94.97
   3   1 -20  213.57  102.15
  -1 -11 -15   46.24   60.05
  -1 -11  15   11.88   53.19
  -1  11 -15   -0.33   96.86
   1 -11  15    8.05   46.02
   1  11  15   19.35   20.61
   1  11 -15    8.31   77.72
   1 -11 -15   47.24   62.66
  -1 -11 -15   19.45   28.08
  -1  11  15   19.53   27.82
  -2   6 -19   10.54  106.78
  -2  -6  19   15.93   54.68
   2   6 -19   24.52   27.73
   2   6 -19    9.04   60.54
  -2  -6 -19   21.85   18.09
   2  -6  19   23.58   28.71
  -2   6  19   25.47   21.55
  -2   6 -19   26.62   31.34
  -2  -6 -19   94.95  101.15
   2  -6 -19   23.68   18.47
  -7   4 -14    1.12    6.11
   7  -4 -14    0.83    6.79
  -7  -4 -14    1.11    9.06
  -7   4  14    0.88    8.15
   7   4  14    1.55    6.88
   7   4 -14    0.45    6.83
  -6   7  14   14.60   27.31
  -6  -7  14    3.33  107.10
  -6   7 -14   15.67   24.63
   6   7  14   14.11   17.78
   6   7 -14   12.77   26.10
   6  -7 -14   14.52   28.63
   6  -7  14    8.65   14.90
  -6  -7 -14   15.10   29.56
   5  -2 -18   28.39   30.27
  -5  -2 -18   19.67  103.62
  -5   2  18   29.66   32.20
  -5  -2 -18   27.92   27.25
   5  -2  18   28.66   28.31
   5   2 -18   27.84   27.47
  -5   2 -18    9.54   99.79
   5   2 -18   27.22   26.58
   5   2  18   29.02   26.47
  -5   2 -18   24.80   19.52
   7 -10   7  126.86   75.98
   7  10  -7  136.50   76.35
  -7  10  -7  171.58  111.58
  -7 -10   7   33.45  259.57
   0   1 -21    0.04   22.78
   0   1 -21   -0.43  103.90
   0  -1 -21  978.78  150.56
  -4 -10 -14    1.45   24.65
   4 -10 -14    8.20   11.60
  -4 -10  14    6.89   57.67
  -4  10  14    8.46   20.29
  -4 -10 -14   11.79   20.92
   4  10 -14    5.82   10.71
  -2  14   9    1.66    9.99
  -2 -14   9   -0.14   12.39
   2  14  -9    1.09    7.07
  -2 -14  -9    0.41   12.90
  -2 -14  -9    1.94    8.53
  -2  14  -9    0.99    6.10
   2 -14  -9    1.62    7.69
   2  14   9    1.42    7.28
   2 -14  -9    0.14   16.41
  -2  14  -9   -0.82   23.79
  -8  -9   4   -0.41   18.18
  -8   9   4   -0.02    6.02
   8   9   4    0.44    6.90
  -8   9  -4    0.27    6.88
   8  -9   4    0.99    5.13
  -7   0 -15    0.53    6.77
  -7   0  15    0.05    6.39
   7   0  15    1.40    5.97
  -9  -1  -9    2.16   12.19
  -9   1  -9    2.75   11.16
   0   5 -20    0.25   14.89
   0  -5 -20    1.22   16.32
   0   5 -20    0.72    5.04
   0  -5  20    0.13    4.68
  -5 -13   6   31.37  219.46
  -5  13  -6  144.58   95.37
   5  13   6  119.68   59.41
   5 -13  -6  126.08   71.98
   5 -13   6   99.85   70.97
  -5  13   6  137.19   79.51
   5  13  -6  113.92   73.47
  -5  13   6  129.56   67.40
   0 -15  -7    0.86    3.47
   0 -15  -7   -0.20    7.56
   0  15   7    0.55    3.76
   0  15  -7   -0.24    2.00
   0 -15   7    0.40    8.21
   3 -15  -3    2.48   40.69
   3  15   3    9.55   25.34
  -3 -15   3    3.68   34.26
  -3  15  -3    8.32   12.50
   3 -15   3    7.48   11.07
   3 -15   3    0.93   55.11
  -3 -15  -3    0.43   29.10
   3 -15  -3    8.18   15.42
   3  15  -3    8.12   16.49
   0 -14 -10  118.50   66.99
   0 -14  10   27.22  113.52
   0  14 -10   77.75   34.68
   0 -14 -10   32.28  111.21
   5   5 -17    3.66    9.52
  -5  -5 -17   -0.59   35.08
  -5   5 -17    3.06   10.23
   5   5  17    3.94    9.43
  -5   5 -17   28.88   42.19
   5  -5 -17    3.49   10.88
   5  -5  17    3.66   10.18
   6   4  16    2.18    8.96
  -6   4 -16    0.68   25.06
   6  -4 -16    2.28    9.87
  -6   4 -16    2.63    7.18
  -6  -4 -16    2.31   11.88
  -6   4  16    5.83   17.74
   6  -4  16    2.44    9.19
  -5 -11  11    8.89   58.28
  -5  11 -11    7.31   18.26
  -5  11  11    6.04   17.04
  -5 -11 -11    6.75   17.89
   5 -11  11    3.64    7.28
   5 -11 -11    6.28   11.63
   5  11 -11    5.16   12.19
   5  11  11    5.92    8.80
  -8  -3 -12   17.13   31.45
  -8   3 -12   15.08   26.25
  -8   3  12   17.69   25.30
   8   3 -12   14.62   21.99
   8   3  12   17.94   26.15
  -7  -1 -15   27.11   35.38
  -7  -1  15   24.57   31.12
   7  -1  15   25.26   29.13
   7   1  15   26.98   30.65
  -7   1  15   27.14   33.21
  -7   1 -15   24.34   31.91
   7  -1 -15   25.23   25.33
  -3  -5  19   18.82   54.69
   3   5 -19   31.49   29.31
  -3  -5 -19   36.24   25.11
   3  -5  19   36.70   34.44
  -3  -5 -19  120.31  125.00
  -3   5 -19   37.32   34.45
  -3   5 -19    8.84  122.70
   3  -5 -19   33.81   26.27
   3   5 -19   29.88   18.38
  -3   5  19   35.84   30.13
   4 -12 -11   14.99   15.33
  -4 -12  11    4.00   86.38
  -4  12 -11   15.95   26.55
  -4  12  11   18.85   28.64
   4  12 -11   13.63   16.73
  -4 -12 -11    2.16   29.24
  -4 -12 -11   19.70   27.78
   5 -12   9    0.79    3.63
   5  12   9    0.81    3.65
  -5 -12  -9    1.03    9.72
  -5 -12   9   -0.86   24.44
  -5  12  -9    0.15    8.20
   5  12  -9    0.32    5.89
   5 -12  -9    0.62    5.01
  -5  12   9    2.49    7.19
   1 -13 -12   17.82   22.36
  -1 -13  12    6.32   59.69
   1 -13  12    4.34   31.18
  -1 -13 -12   16.35   24.94
   1  13 -12   12.09   11.21
  -1 -13 -12    5.62   40.22
   1 -13 -12    6.14   46.00
  -1   0 -21  289.72   99.89
   1   0 -21    0.07   17.34
  -1   0 -21    0.13   18.84
   1   0 -21  303.16   85.02
   2   4 -20   23.74   26.97
   2  -4 -20   21.00   19.04
  -2  -4  20   12.75   38.53
  -2   4 -20   21.76   25.35
   2   4 -20   12.91   60.77
  -2  -4 -20   38.84   99.17
   2  -4  20   22.19   24.92
  -2   4 -20   10.91   97.46
  -2   4  20   19.03   15.98
   4  -7 -17  116.51   58.67
   4   7 -17   93.57   47.94
  -4  -7  17   63.70  208.31
  -4   7  17  124.76   78.43
  -4   7 -17   56.92  205.08
   4  -7  17  105.36   79.08
  -4  -7 -17  441.24  226.82
  -8   8  -7  777.75  382.87
   8  -8  -7  685.05  287.37
  -8  -8   7  108.95  553.86
   8   8   7  688.03  303.83
  -8  -8  -7  584.68  286.30
   8  -8   7  602.72  255.63
   6  -9  12   25.61   23.82
   6   9 -12   30.42   29.87
   6  -9 -12   33.17   31.53
  -6   9 -12    7.74   70.83
  -6  -9  12   10.39  113.92
  -6   9 -12   40.67   44.03
   6   9  12   32.16   26.71
  -7 -11  -4    3.19   31.28
   7 -11   4    3.13   11.38
  -7  11  -4    4.61   15.57
  -7 -11   4   -0.46   47.67
  -9   7   0   -0.14    3.73
   0   7 -19    0.07    4.76
   0   7 -19    0.31   13.59
   0  -7 -19    1.74   15.41
   0  -7  19    0.54    4.76
  -3   2  20   12.27   13.89
   3   2 -20   13.04   20.57
  -3   2 -20   12.82   14.59
  -3  -2 -20    6.76   86.86
   3  -2 -20   12.98   17.84
  -3   2 -20    3.43   95.06
   3   2  20   13.90   14.66
   3  -2  20   15.53   19.26
   3   2 -20   11.19   10.68
   1  -1  21   88.20   46.62
   1   1 -21   64.37  186.54
  -1  -1 -21   81.21   41.47
   1  -1 -21   77.32  186.43
  -1   1 -21  286.69  246.22
   1  -1 -21   88.02   51.37
   1   1 -21   88.18   56.11
  -1   1 -21   86.89   62.43
  -1  -1 -21   63.26  201.30
  -9  -7   1    0.45   24.73
  -9   7  -1    2.88    9.80
   9   7   1    1.35   11.50
  -9   7   1    1.30    9.38
   0  -2 -21  383.79  530.89
   0   2 -21  485.45  195.80
   0   2 -21  366.25  498.24
   0  -2  21  465.55  177.78
   0  -2 -21  474.27  168.40
   4  -3  19    0.73    6.60
   4   3 -19    0.34    4.59
  -4  -3 -19    0.51   26.40
   4   3  19    2.76    5.05
  -4   3 -19   -0.46   25.33
   4   3 -19    1.09    6.27
  -4   3  19    0.43    6.05
  -4  -3 -19    0.80    4.75
   8  -6 -10   19.64   25.71
   8  -6  10   17.37   28.24
   8   6  10   20.75   28.34
   8   6 -10   15.39   22.05
  -8   6  10   20.21   26.83
  -8  -6 -10   17.04   34.39
  -3  14  -8   13.44   19.43
  -3  14  -8    2.46   68.58
   3 -14  -8   14.76   19.89
  -3 -14   8    8.54   66.64
   3  14  -8   10.87   16.01
  -3 -14  -8    1.21   27.26
   3 -14  -8    3.02   59.44
   7   7 -12    7.28   18.80
  -7  -7  12    0.88   73.04
   7  -7 -12    9.11   20.09
  -7   7 -12    8.61   22.60
  -7   7  12    9.78   24.93
   7   7  12    9.07   19.46
   7  -7  12   19.02   20.42
  -1  -5  20   10.01   39.59
   1  -5 -20   13.51   12.16
   1  -5 -20   53.27   71.98
  -1   5 -20   15.34   22.54
  -1   5 -20    5.51   70.47
   1   5 -20    7.74   58.53
   1   5 -20   13.83   22.50
   1  -5  20   14.12   21.67
  -1  -5 -20   47.68   75.00
   1 -15  -7    0.75    6.30
   1  15   7    1.05    6.27
  -1 -15   7    2.61   12.96
  -1 -15   7    0.52   13.03
  -1  15  -7   -0.36   20.02
  -1 -15  -7    0.44    6.01
   1  15  -7    0.10    3.82
   1 -15  -7    1.33   14.40
  -1  15   7    1.39    7.48
   6  -6  15   74.23   44.73
   6   6  15   84.91   49.17
  -6   6 -15   92.33   59.27
  -6   6 -15   42.67  154.20
   3  11 -14   78.06   39.54
  -3 -11 -14  102.66   68.27
  -3  11  14  101.16   68.26
  -3 -11 -14   32.47   91.81
  -3  11 -14   49.30  202.27
  -3 -11  14   19.80  172.93
   1 -14  10   55.02  154.59
  -1 -14  10   68.13  229.46
  -1 -14 -10   90.04  189.04
   1 -14 -10   95.56  221.01
  -1  14 -10  227.68   93.16
   1  14 -10  215.52   81.91
  -1  14  10  308.72  146.03
  -1 -14 -10  296.10  136.43
   1 -14 -10  289.42  128.58
   1  14  10  304.33  133.03
  -9  -2  -9   97.36   77.32
  -9   2  -9   91.12   69.51
   5   8 -15   20.37   22.27
  -5   8  15   27.19   36.42
   5  -8 -15   24.53   25.17
   5   8  15   26.36   20.27
  -5  -8  15    6.52  111.00
   9  -6   5   25.89   28.17
  -9  -6   5    2.37   67.38
  -2 -15  -6   67.15   44.98
   2 -15  -6   64.73   47.51
   2  15   6   67.98   51.75
  -2 -15   6   21.05   79.00
  -2 -15  -6   16.97   70.64
   2 -15  -6   21.31  101.31
  -2 -15   6   16.36   87.32
  -2  15  -6   59.94   34.09
   2  15  -6   56.59   38.30
   0 -12 -14  146.60   70.17
   0  12 -14    1.14  111.40
   0 -12 -14    6.47   23.77
   0 -12  14    1.86   42.62
  -4  13   9  230.76  120.10
  -4 -13   9   63.78  299.35
   4 -13  -9  185.73   76.93
  -4  13  -9  221.97  113.90
   4 -13   9  136.20   59.20
   4  13  -9  156.31   76.54
   4 -13  -9  221.47   99.02
  -2   9  17  490.05  191.54
  -2  -9 -17  189.59  272.27
  -2  -9 -17  484.45  188.82
  -2  -9  17  291.97  312.91
   2  -9  17  422.57  173.43
  -6 -12   6    3.75   45.25
   6 -12   6    2.77    9.60
   6  12  -6    3.89   11.43
  -6  12   6    2.65    9.88
   6  12   6    4.61   10.83
  -6 -12  -6    2.59    8.17
  -6  12   6    4.08   12.16
  -6  12  -6    6.49   15.98
   6   0 -17   -0.22    2.30
  -6   0 -17    0.01    3.17
  -6   0  17    0.22    2.56
   6   0  17    0.23    2.34
   2 -10 -16  189.95   77.95
  -2 -10 -16  198.05  103.38
  -2  10  16  197.48  101.41
  -2 -10 -16  181.03  193.11
   2 -10  16  169.50   86.14
  -2 -10  16  112.66  183.21
   0 -16   0  265.38  107.13
   0  16   0  297.37  135.29
  -5  -9 -14  163.79  106.73
   5   9 -14  120.82   65.34
   5  -9 -14  150.76   88.75
   5   9  14  146.89   61.63
  -5  -9  14   29.69  262.95
   8  -5 -11    0.53    5.02
  -8   5  11    1.32    5.73
  -8  -5 -11    0.84    7.02
   8  -5  11    0.28    5.69
   8   5 -11   -0.85    5.06
   8   5  11    1.41    5.90
  -3   7 -18   -1.41   27.53
   3  -7 -18    1.03    6.21
  -3  -7  18   -0.19   14.61
   3   7 -18    0.95    3.37
   3  -7  18    1.14    6.53
  -3  -7 -18    1.99    6.18
  -3  -7 -18    0.19   21.97
  -3   7  18    0.56    6.63
  -7   2  15    0.33    4.19
   7  -2  15    0.18    3.37
  -7  -2 -15    0.66    4.41
  -7   2 -15   -0.06    3.61
   7   2  15    0.07    3.68
   7  -2 -15    0.13    3.23
  -7  -6 -13  127.84   95.00
   7   6  13  127.60   74.01
   7  -6  13  109.51   70.02
  -7   6 -13  115.92   76.66
   7  -6 -13  128.00   94.05
   0  16   1   17.79   24.96
   0 -16  -1   16.43   17.34
   0  16  -1   17.36   22.14
  -9  -7   2   -1.00   17.47
  -9   7  -2    0.93    6.82
   9   7   2    0.51    7.77
  -9   7   2    0.95    6.33
   6  -1 -17    2.18    8.81
  -6   1  17    2.27   10.24
   6  -1  17    2.01    8.86
   6   1  17    2.15    8.44
  -6   1 -17    2.46    7.64
  -6  -1  17    2.13    9.36
  -6  -1 -17    1.71    8.99
   3 -15   4  135.25  294.11
   3 -15   4  268.52  100.86
  -3 -15   4   83.54  211.00
  -3  15  -4  324.06  123.81
   3 -15  -4  317.77  130.43
   3  15  -4  292.16  121.70
   3  15   4  348.29  142.80
   3 -15  -4  140.09  231.98
  -3 -15  -4  286.38  105.86
  -3 -15  -4   74.42  129.95
   5   3  18    5.88   10.33
  -5   3 -18    3.01    6.06
  -5   3 -18    1.02   39.84
   5   3 -18    5.03   10.36
  -5   3  18    3.93   13.10
  -5  -3 -18    1.08   40.04
   5  -3  18    3.92   11.25
  -5  -3 -18    5.31   11.08
  -4 -14   6   19.71  100.55
   4 -14   6   30.11   24.81
  -4  14   6   38.13   24.92
   4 -14  -6   38.74   35.26
  -4  14  -6   41.43   38.82
   4  14  -6   30.58   30.70
  -4 -14  -6   35.93   28.36
  -1  -7 -19   67.04   93.35
   1  -7 -19   21.18   89.86
   1  -7  19   21.77   27.67
  -1   7  19   20.11   16.65
   1   7 -19    9.87   65.08
  -1   7 -19    6.98   80.90
  -1   7 -19   21.63   29.08
   1   7 -19   20.96   26.22
  -7   8 -11  904.69  419.72
  -7  -8  11  124.60  650.72
  -7  -8 -11  762.86  375.25
   7   8 -11  647.02  262.99
  -7   8  11  856.03  386.40
   7  -8  11  623.01  250.51
   7  -8 -11  763.50  297.65
   7   8  11  739.63  283.92
   8  -7   9   46.79   42.49
  -8   7  -9   54.66   50.86
   8  -7  -9   55.00   48.83
  -8  -7  -9   49.96   54.48
  -8   7   9   49.20   43.79
  -8  -7   9    4.09  187.78
  -8  -9   5    1.14   54.50
   8  -9   5    6.60   15.30
  -8   9  -5    6.25   21.07
  -8   9   5    6.75   17.05
   1  -2 -21    2.23    6.77
   1   2 -21    0.14   29.15
  -1   2 -21   -0.34   31.99
   1  -2 -21    2.42   31.91
   1  -2  21    1.76    6.70
  -1  -2 -21    0.06   35.31
   1   2 -21    1.77    8.42
  -1   2 -21    2.23    7.23
   4  11 -13   24.48   29.35
  -4 -11 -13    8.42   43.06
  -4  11 -13    6.53  113.55
  -4 -11 -13   35.01   40.52
   4 -11 -13   29.18   28.90
  -4 -11  13   98.30  116.25
  -4  11  13   33.40   38.93
   9   4   8    3.89   15.41
  -9  -4  -8    4.76   17.34
   9  -4   8    8.08   16.67
   1  12 -14   50.15   30.35
   1 -12 -14   19.32   91.61
  -1  12 -14   31.43  157.45
  -1 -12  14   33.60   93.84
   1  12  14   92.05   50.44
  -1  12 -14   90.92   47.39
   1  12 -14   24.30  105.50
  -1  12  14   76.68   54.40
  -1 -12 -14   25.75   94.96
  -5  -7  16    0.94   90.63
  -5   7 -16   -0.69  100.57
   5  -7 -16   14.26   22.94
  -5   7 -16   91.24   34.92
  -5  -7 -16   12.89   29.24
  -5   7  16   13.21   29.90
  -5  -7 -16   40.18   60.67
   5   7  16   14.29   17.77
   5   7 -16   10.79   18.69
   0  16  -2    4.67   10.02
   0  16   2    4.05   12.89
   0 -16  -2    2.91    9.07
  -9  -5  -7   85.54   86.91
   9  -5   7   91.24   66.12
  -6  11  -9   63.13   59.03
   6 -11  -9   57.05   43.32
   6  11   9   55.84   38.15
  -6  11  -9   17.59   94.76
  -6 -11  -9   59.60   50.68
   6 -11   9   42.49   33.60
  -6  11   9   63.49   50.51
   6  11  -9   50.68   57.83
  -6 -11   9   26.09  147.31
   1 -16   0    0.28    3.21
  -1 -16   0    4.43   10.06
  -1  16   0    0.43    4.11
   1  16   0   -0.23    5.05
  -8   0 -13   -0.01    4.87
   8   0  13    0.38    3.82
  -2   8 -18   76.31   58.38
   2   8 -18   32.45  121.93
  -2   8  18   76.96   47.75
   2  -8  18   68.77   50.59
   2   8 -18   65.35   43.48
  -2  -8 -18   66.49  171.78
  -2  -8 -18   75.95   45.26
  -1  16   1   99.64   59.56
  -1 -16  -1   86.17   41.82
   1 -16  -1   91.44   48.09
  -1 -16   1   28.82  101.66
  -1 -16  -1   32.71  111.41
  -1  16  -1   93.77   51.90
   1  16  -1   99.09   59.95
   1 -16   1   84.66   42.69
   1  16   1  103.35   64.42
  -2  11 -15  217.02  110.22
  -2  11  15  237.47  115.77
  -2 -11 -15  115.53  179.80
  -2 -11  15  128.54  201.06
  -5  14   0   -0.14    3.00
   5  14   0    0.36    2.84
   5 -14   0   -0.23    2.74
  -5 -14   0   -1.70    6.69
  -7  11   5    0.59    7.29
   7 -11   5   -0.04    5.90
  -7 -11   5    0.97   25.01
   7  11   5    2.44    7.24
  -7  11  -5    0.62    8.18
  -9   7   3  223.41  117.85
  -9  -7   3   42.54  237.02
   9   7   3  221.53  132.20
  -9   7  -3  222.46  127.81
   8   1 -13   81.07   59.47
  -8   1  13   86.25   60.04
  -8   1 -13   91.45   71.85
  -8  -1 -13   92.71   75.45
   8   1  13   97.27   62.46
  -5  10  13   33.50   37.18
   5  10 -13   24.56   23.53
  -5 -10  13   15.05  106.81
   5 -10 -13   30.46   24.43
  -5  10 -13    2.89   99.93
   5  10  13   28.73   19.03
  -5 -10 -13   32.19   38.78
   5 -10  13   16.57   13.70
  -5  10 -13   34.01   37.59
  -3  -3 -20   60.68  183.22
   3   3  20   67.89   34.76
   3  -3 -20  211.75  154.87
  -3   3 -20   50.76  180.42
   3  -3  20   74.34   48.22
   3   3 -20   68.51   46.66
  -3   3  20   67.37   37.91
   3   3 -20   55.23   25.84
  -3   3 -20   69.04   42.65
   3  -3 -20   69.24   41.80
   6  -2  17    7.68   19.96
   6   2  17    6.74   13.27
  -6   2 -17    2.66   37.24
  -6  -2 -17    5.39   15.51
   6   2 -17    6.57   16.08
  -6   2  17    7.16   17.18
  -6   2 -17    7.00   11.73
   5 -14  -1   25.71   28.41
  -5 -14  -1    4.37   60.05
  -5  14   1   30.40   41.02
  -5 -14   1   13.87   73.53
  -5  14  -1   29.12   31.99
   5 -14   1   24.64   26.62
   5  14  -1   27.81   29.15
   6  10  11   11.39   15.55
  -6 -10 -11   36.76   32.13
   6  10 -11    9.89   18.24
   6 -10  11    9.01   13.08
  -6  10  11   13.09   25.33
  -6 -10  11    2.97   71.23
   6 -10 -11    9.32   18.85
  -6  10 -11    3.09   46.48
  -6  10 -11   15.29   26.72
   0  -3  21    0.13    3.71
   0   3 -21    0.87    4.76
   0  -3 -21    0.50   16.34
   0   3 -21    2.08   15.92
  -6 -13   0   51.08  158.08
   6 -13   0   94.20   63.84
  -6  13   0  108.42   75.21
  -5  13   7   63.16   47.39
   5 -13   7   43.49   39.37
  -5  13  -7   24.99  125.48
  -5 -13   7   28.09  145.54
   5  13   7   50.52   30.91
   5 -13  -7   59.12   42.62
  -5  13  -7   64.36   55.39
   5  13  -7   50.94   43.56
  -5  13   7   59.03   38.32
   8   4  12   40.43   40.77
  -8   4  12   40.36   41.51
  -8   4 -12   35.34   37.50
  -8  -4 -12   40.10   48.04
  -9  -3  -9   97.27   83.64
   9   3   9  107.79   68.82
  -7  10  -8  105.46   80.59
   7 -10   8   75.76   53.74
   7 -10  -8   95.03   65.14
   7  10  -8   83.24   56.21
  -7 -10   8   20.94  196.59
  -7  10   8   95.46   63.36
  -3 -13 -11  109.71  188.29
  -3 -13  11  261.15  362.09
   3  13  11  294.39  111.26
   3  13 -11  231.62   98.51
  -3  13  11  321.17  156.51
  -3  13 -11  268.24  129.06
  -1 -16   2   46.79  155.32
  -1  16  -2  113.27   55.64
   1 -16  -2  116.49   57.74
   1  16   2  128.65   75.44
  -1  16   2  128.22   71.12
  -1 -16  -2  111.64   52.64
   1 -16   2   91.93   42.09
  -1 -16  -2   32.77  122.47
   6 -13  -1   23.97   29.83
  -6  13  -1   30.05   37.43
  -6  13   1   28.07   47.67
  -6 -13  -1    7.17   78.03
   6 -13   1   23.59   29.94
  -6 -13   1   36.93   88.23
   7  -5  14    2.12    9.04
  -7  -5 -14    3.19   13.17
   7   5  14    3.13   10.03
  -7   5  14    1.43   17.09
   0  16  -3   77.31   45.84
   0 -16   3   31.99  147.34
   0  16   3   92.00   63.42
   0 -16  -3   87.43   50.65
  -4  -6  18   23.57  182.08
  -4   6 -18   82.29  244.54
   4   6  18  143.61   59.32
   4  -6 -18  152.78   72.89
  -4   6 -18  160.11   90.84
  -4   6  18  163.21   90.85
   4  -6  18  142.31   76.89
  -4  -6 -18  600.27  285.73
  -4  -6 -18  153.00   82.01
  -2  13 -12   65.97   41.79
   2  13  12   78.52   42.98
  -2 -13  12   25.89  123.18
  -2 -13 -12   16.27   69.93
   2 -13  12   20.71   50.23
   2  13 -12   47.73   26.32
   2 -13 -12   16.06   78.51
  -2   0 -21   -0.90   20.65
   2   0 -21    2.44   13.58
   2   0 -21    0.45    4.12
   2   0  21    0.25    3.20
   7  -3 -15   48.78   39.30
   7   3  15   51.04   41.38
  -7   3 -15   45.98   39.71
  -7  -3 -15   51.41   50.81
   7  -3  15   49.61   37.88
  -7   3  15   51.78   47.82
   0 -15  -8   34.39   35.91
   0 -15  -8    0.86   16.92
   5 -14   2    1.22    3.87
  -5  14  -2    0.23    5.13
  -5 -14  -2   -0.11    8.95
   5 -14  -2   -0.57    4.81
  -5  14   2    0.43    4.50
   5  14  -2    0.34    4.61
  -9  -6   6    0.16   58.09
   9  -6   6   23.02   26.87
  -3  15   5   20.77   25.64
   3 -15  -5   19.13   22.99
  -3  15  -5   18.89   19.83
   3 -15   5   10.01   70.14
  -3 -15   5    8.02   52.56
   3 -15   5   13.41   13.08
  -3 -15  -5    4.34   28.58
   3  15   5   19.08   24.65
  -3 -15  -5   18.42   17.30
   3  15  -5   15.42   20.39
   3 -15  -5    8.91   52.01
   6   5  16   92.19   51.88
   6  -5  16   78.89   48.95
  -6   5 -16   50.46  165.99
  -6   5  16  103.24   74.13
   6   5 -16  115.86   59.66
   6  -5 -16   95.46   59.50
   6  -5  16   92.41   54.48
  -6  -5 -16   98.57   73.72
  -4   4  19    2.10   13.52
   4   4 -19    3.15    9.25
  -4   4 -19    0.75   37.20
   4  -4  19    2.97    9.78
  -4  -4 -19    0.54   38.24
   4   4  19    3.57    6.87
  -4  -4 -19    3.02    7.80
   4  -4 -19    2.83    9.40
  -4   4 -19    2.47    8.11
  -7   9  10    3.72   11.91
   7  -9  10    1.17    8.54
  -7  -9  10    1.38   40.19
  -7  -9 -10    3.24   12.65
  -7   9 -10    3.29   14.28
   7   9 -10    3.67    9.81
   7  -9 -10    1.61   11.60
  -8  10   0  324.33  161.38
  -8 -10   0   84.97  330.59
   2  -1 -21   -6.14   43.37
   2   1 -21    1.28   12.44
  -2  -1 -21   86.65   61.25
   2   1 -21    0.69   38.20
   2  -1  21    0.98   14.38
  -2   1 -21    5.60   58.07
   2  -1 -21    1.18   11.46
  -2   1 -21    1.01    8.23
   2   1  21   14.69    9.09
  -9   0 -10   68.33   60.08
  -8   2  13  208.48  112.83
  -8   2 -13  206.48  122.86
   8   2  13  216.05  109.57
  -8  -2 -13  220.87  134.48
   6 -13   2   70.80   52.64
   6 -13  -2   77.38   56.73
  -6  13  -2   89.48   71.58
  -6  13   2   84.61   63.63
  -6 -13   2   43.98  162.01
  -8  -8   8    0.81   26.88
  -8  -8  -8    0.71    7.64
   8  -8   8    1.40    6.98
   8  -8  -8    1.29    7.81
  -8   8  -8    1.61    9.67
  -1  -3 -21    9.98   60.16
   1  -3  21    9.82   14.71
   1   3 -21    5.77   49.47
  -1   3 -21   10.62   15.82
   1  -3 -21   10.37   12.10
   1   3 -21    9.38   17.06
  -1   3 -21    6.09   81.27
  -1  -3  21    1.35   22.20
  -8  10   1   60.42   55.02
  -8  10  -1   60.51   74.86
  -8 -10   1   26.99  147.82
  -8 -10  -1   18.85  130.35
   8 -10   1   56.85   45.62
  -2  -5  20   78.20  119.96
  -2   5 -20  137.48   76.89
  -2  -5 -20  483.75  268.66
   2   5 -20  127.81   73.25
  -2   5  20  121.42   55.79
   2   5 -20  128.69  174.49
   2  -5 -20  130.14   56.10
   2  -5  20  131.70   73.04
  -2   5 -20   82.51  235.02
   2  15  -7   10.59   16.26
  -2 -15  -7   15.29   21.62
  -2  15  -7   13.79   14.64
  -2 -15   7    5.03   43.57
   2 -15  -7    7.31   49.44
   2  15   7   15.87   22.18
  -2 -15   7    5.31   35.77
   2 -15  -7   13.15   21.61
  -3 -12  13   91.32  135.05
  -3  12 -13   61.37   47.79
   3 -12  13    8.61   45.56
  -3 -12 -13   17.07   63.59
   3  12 -13   45.01   26.89
  -3  12  13   61.84   48.81
   2  14  10  143.52   70.11
  -2 -14 -10   32.55   96.79
   2  14 -10   99.62   45.75
   2 -14 -10   45.61  129.15
  -2 -14  10   31.38  172.74
  -2  14 -10  110.28   56.73
  -2 -14  10   30.81   90.22
   2 -14 -10  134.50   70.83
   6 -12   7  242.43  108.48
  -6  12   7  318.68  143.97
   6  12  -7  270.70  131.04
  -6  12   7  308.50  134.04
  -6  12  -7  336.60  208.86
  -6 -12  -7  271.37  122.09
   6  12   7  287.15  120.48
  -6 -12   7   89.37  364.82
  -9   1 -10   29.07   36.01
  -9  -1 -10   29.92   38.91
   9  -7   4   48.22   51.25
  -9   7  -4   38.29   39.36
  -9  -7   4    4.78  101.77
  -1 -16  -3   23.36  109.69
  -1 -16  -3   99.78   49.67
   1 -16   3   33.56  165.80
   1 -16  -3   23.75  140.04
  -1  16  -3   88.36   43.90
   1 -16  -3   98.85   53.64
   1  16  -3   97.30   55.59
  -1 -16   3   35.70  135.56
   1  16   3  106.19   68.09
  -8   9  -6   57.16   59.69
  -8   9   6   60.74   50.34
  -8  -9   6   13.06  136.01
   8  -9   6   42.30   42.43
   0   6 -20   90.24   62.93
   0  -6  20   93.05   61.03
   0   6 -20   47.71  163.74
   0  -6 -20  329.57  204.88
  -5   4 -18    2.15   47.11
   5   4  18    6.28   11.31
   5  -4 -18    6.11   13.41
  -5  -4 -18    4.95   43.23
   5  -4  18    5.94   12.73
  -5   4  18    5.99   15.27
  -5  -4 -18    5.75   13.34
   1  15  -8    3.27    8.82
  -1 -15   8    1.32   32.46
  -1 -15   8    0.32   33.43
   1 -15  -8    5.62   16.51
  -1 -15  -8    5.02   15.86
   1 -15  -8   49.48   52.19
  -1 -15  -8   48.08   30.87
  -1  15  -8    2.43   48.23
   1  15   8    4.24   16.10
  -5  -6 -17  206.03  114.60
  -5   6 -17  204.90  112.34
   5  -6 -17  197.62   95.52
  -5   6 -17  127.06  428.83
  -5   6  17  297.13  135.67
   5   6  17  205.77   85.36
  -5  -6  17   26.75  221.81
   5  -6  17  193.30   94.32
  -5  -6 -17  549.18  343.77
   5  12 -10   15.53   20.50
  -5 -12 -10   15.84   24.28
   5 -12  10   10.23   11.43
  -5  12  10   17.07   23.95
   5 -12 -10   14.59   16.66
  -5 -12  10    3.94  100.88
  -5  12 -10   16.41   26.99
   3  -6 -19  125.98   56.11
  -3  -6  19   77.15  123.08
  -3   6  19  135.44   68.60
   3   6 -19  114.62   61.16
  -3  -6 -19  123.36   60.02
  -3   6 -19   75.76  229.51
   3  -6  19  126.89   70.62
  -3   6 -19  135.95   78.94
  -3  -6 -19  496.66  257.32
   4 -14   7  106.35   48.65
   4  14  -7  117.00   64.53
  -4  14  -7  159.26   86.16
  -4 -14  -7  144.67   70.91
  -4 -14   7   54.38  214.44
   4 -14  -7  155.70   79.80
   4 -14  -7  128.94   61.97
  -4  14  -7   65.15  220.77
  -4  14   7  167.89   87.69
  -5 -14  -3   40.28  118.51
  -5  14   3  173.86   79.68
   5 -14   3  131.56   67.15
   5 -14  -3  165.35   84.59
  -5  14  -3  180.71   94.41
  -5 -14   3   44.06  198.77
   8 -10   2  116.24   72.79
  -8 -10  -2   30.67  174.82
  -8  10  -2  126.02   88.47
  -8 -10   2   47.33  207.56
  -8  10   2  120.99   82.09
   0 -10 -17   89.27   45.39
   0  10  17   92.60   44.67
   0  10 -17   82.83   51.96
   0 -10 -17   34.27  110.47
   0 -10  17   50.68  112.05
   2  -7  19    2.19   10.13
  -2   7 -19   -1.16   38.11
  -2  -7 -19    5.08   34.62
   2   7 -19    1.04   25.30
   2  -7 -19    2.83    5.15
  -2  -7 -19    2.46    6.98
  -2   7 -19    4.21   11.45
   2   7 -19    3.22    9.11
  -2   7  19    3.03    7.72
   6  -3  17   77.63   51.16
  -6   3  17   82.36   61.91
   6  -3 -17   77.54   51.16
  -6  -3 -17   78.69   57.99
  -6   3 -17   70.27   41.14
   6   3  17   76.01   46.45
  -6   3 -17   32.98  119.74
   6   3 -17   97.73   55.97
   0  14  11   72.70   48.47
   0 -14 -11   67.63   48.29
   0  14 -11   43.12   23.10
   0 -14 -11   18.00   77.69
   0 -14  11   13.60   89.56
  -3  14  -9   26.73   27.83
  -3 -14  -9    8.60   37.69
  -3  14  -9    4.11   93.36
  -3 -14   9  148.61  110.85
   3  14  -9   23.07   22.63
   3 -14  -9   28.05   28.46
   0 -16  -4    7.56   57.77
   0  16   4   21.65   29.02
   0 -16  -4   22.11   23.08
   0  16  -4   18.59   18.24
   0 -16   4    8.35   70.38
   0 -13 -13    0.22    1.45
   0  13 -13    0.09    0.84
   0 -13 -13   -1.81    2.75
   0 -13  13    0.02    2.32
   2   2 -21   48.76   38.75
   2   2 -21   29.18   97.54
   2  -2  21   50.64   33.79
  -2  -2 -21   38.40  157.22
  -2   2 -21   45.96   32.02
   2  -2 -21   39.02  119.56
  -2   2 -21   40.90  163.39
   6  13  -3  582.90  231.63
  -6 -13   3  176.03  645.76
   6 -13   3  524.08  205.83
   6 -13  -3  615.07  237.21
  -6 -13  -3  146.98  321.78
  -6  13   3  651.61  256.10
  -6  13  -3  674.00  287.46
   0  -9 -18    0.35    7.86
   0  -9 -18    0.18    2.24
   0   9  18    0.14    2.76
   0   9 -18    0.30    3.47
  -4  15   0  211.41   86.79
   4 -15   0  194.28   88.59
  -4 -15   0   45.60  124.74
  -7  11   6    6.07   16.38
   7  11   6    4.63   15.52
  -7  11  -6    7.71   18.65
   7 -11   6    5.31   12.83
  -7 -11   6    4.63   53.91
   2 -12  14   14.74   45.69
  -2 -12 -14   12.48   61.16
   2  12 -14   26.24   17.19
  -2  12  14   40.43   36.97
   2  12  14   35.07   21.99
  -2  12 -14   20.16  113.62
  -2  12 -14   37.75   32.58
  -2 -12  14   15.60   99.10
  -4 -15  -1    1.55   22.09
   4  15   1    7.59   15.77
  -4 -15   1    1.36   27.50
   4 -15  -1    7.25   14.06
   4 -15   1    5.56   12.88
  -4  15   1    8.58   11.15
  -2  16   0   27.63   22.69
   2 -16   0   23.62   21.16
  -2 -16   0    9.41   44.58
   2  16   0   30.49   44.11
  -9  -2 -10    0.77    7.66
  -9   2 -10    0.80    6.71
  -1  -6 -20  732.66  341.14
  -1   6 -20  205.98  106.12
  -1   6 -20  110.42  255.40
   1   6 -20   99.04  223.88
   1  -6  20  207.60  102.33
   1   6 -20  196.44   99.83
  -5  11 -12  160.26   90.80
   5 -11  12   87.12   41.29
  -5 -11 -12  165.06   92.71
   5 -11 -12  150.03   65.99
  -5 -11  12   35.29  235.08
   5  11 -12  123.91   61.93
  -5  11  12  161.42   91.12
  -4 -13  10   27.41  171.10
   4  13  10   62.76   34.73
  -4  13 -10   68.44   56.04
   4 -13 -10   83.91   37.40
   4  13 -10   48.09   36.99
  -4  13  10   75.06   60.60
  -4  12 -12   29.28   31.78
   4 -12 -12   23.57   18.89
  -4 -12  12   10.48  107.77
   4  12 -12   21.82   19.85
  -4 -12 -12   30.74   35.58
  -4 -12 -12    6.97   35.32
  -4  12  12   31.27   34.79
  -3   4  20   26.23   21.52
   3   4 -20   23.64   25.56
   3  -4  20   27.20   28.12
  -3   4 -20    6.29  107.52
  -3   4 -20   26.62   34.45
  -3  -4 -20   26.39   99.93
  -2  16   1   30.01   25.60
   2  16  -1   28.82   30.20
  -2 -16  -1   10.20   46.32
  -2  16  -1   27.74   20.89
   2 -16   1   23.05   19.70
  -2 -16   1   10.12   44.35
   2 -16  -1   25.55   23.22
   2  16   1   30.00   32.79
   0  11  16   -0.04   10.91
   0 -11 -16  106.44   34.43
   0  11 -16    0.27   11.27
  -9  -5  -8   12.21   41.54
   9  -5   8   31.42   32.16
   9   5   8   14.96   29.10
  -6   8  14    8.63   23.07
   6   8  14    7.28   13.98
  -6  -8 -14    8.39   23.56
   6  -8 -14    7.20   16.86
   6   8 -14    6.16   15.81
   6  -8  14   18.26   12.52
  -6  -8  14    1.59   65.52
  -6   8 -14    7.71   21.67
  -1  10  17   36.79   29.76
  -1 -10 -17   24.18   72.20
   1 -10 -17   35.26   23.70
   1 -10 -17   45.06   72.31
  -1  10 -17   32.48   35.15
   0   4 -21   19.84  100.33
   0  -4  21   32.91   28.44
   0   4 -21   31.16   32.05
   0  -4 -21  107.96  116.54
   8  -6 -11   93.13   59.40
  -8  -6 -11   88.36   77.64
   8   6 -11   80.12   53.57
  -8   6  11   98.55   70.11
   8   6  11   95.66   63.88
   8  -6  11   83.75   60.72
  -4   9 -16  264.62  139.64
   4  -9 -16  246.76   96.95
   4   9 -16  191.90   81.00
  -4  -9  16  655.08  398.15
  -4  -9 -16  148.92  245.57
  -4  -9 -16  268.76  135.88
  -4   9  16  298.19  142.74
   8 -10   3  170.62   96.29
  -8  10   3  182.88  109.76
  -8 -10   3   34.02  243.10
  -8  10  -3  185.03  119.00
   8  10   3  194.23  119.08
  -1 -14 -11   31.61  101.54
   1 -14  11   24.42   95.72
  -1 -14 -11  122.26   71.08
   1 -14 -11   36.03  124.01
   1 -14 -11  123.41   68.16
  -1  14 -11   91.95   45.81
  -1 -14  11   24.14  138.75
  -1  14  11  130.73   75.05
   9   4   9  198.83  104.90
   9  -4   9  184.95  109.46
  -9  -4  -9  173.71  120.80
   8   3  13    5.43   14.51
  -8  -3 -13    5.56   18.45
  -8   3  13    6.49   15.51
  -8   3 -13    5.25   15.24
   1 -16  -4   83.18  218.85
  -1 -16  -4  260.89  103.27
  -1 -16   4   93.89  212.36
  -1  16  -4  210.26   80.61
   1 -16  -4  250.64  126.02
  -1 -16  -4   76.77  174.03
   1  16  -4  237.74   99.65
   1 -16   4   97.03  242.37
   1  16   4  277.00  127.32
  -1  16   4  274.12  148.11
   1  13  13    0.76    4.12
  -1  13 -13    0.40    3.58
   1  13 -13    0.27    2.22
   1 -13  13    0.16    6.38
   1 -13 -13   -2.75    9.90
  -1 -13  13   -0.75   12.15
  -1 -13 -13    1.27    8.01
   4 -15  -2   90.88   55.52
   4 -15   2   84.93   51.67
  -4  15   2   98.74   48.52
   4  15  -2   89.48   58.51
  -4  15  -2  102.13   55.89
   4  15   2   99.17   61.83
  -4 -15   2   30.18  143.90
  -1   9 -18   16.32   25.19
  -1  -9 -18    9.95   48.28
  -1  -9 -18   22.63   24.58
   1  -9 -18   11.08   47.03
   1  -9  18   16.04   23.75
  -1   9  18   16.93   24.22
   7 -12   0    0.20    4.22
  -7  12   0    0.52    7.79
  -7 -12   0    0.60   13.03
  -8  -7  10   -0.74   32.05
   8   7  10    1.50   12.12
  -8   7  10    1.81   11.06
   8  -7 -10    1.07   11.07
  -8   7 -10    0.86   10.62
  -8  -7 -10    0.93   14.05
   8  -7  10   13.48   11.45
   3 -15   6    4.78   10.12
  -3 -15   6    2.34   38.51
   3 -15  -6    9.46   16.67
  -3 -15  -6    1.53   20.73
  -3 -15  -6    7.33   13.43
  -3  15   6    9.07   18.50
   3 -15   6    4.71   48.66
   3  15  -6   16.59   14.95
   2  16  -2   15.95   20.78
  -2  16  -2   13.72   12.95
  -2  16   2   17.36   19.60
  -2 -16  -2    4.89   35.04
  -2 -16   2    4.87   32.72
   2  16   2   15.68   23.73
   2 -16  -2   14.22   17.46
   2 -16   2   11.62   12.39
  -7   4 -15    1.86    7.73
  -7  -4 -15    2.57   11.52
  -7   4  15    1.56   11.05
   7   4 -15    2.40    9.20
   7   4  15    2.50   13.04
   7  -4 -15    2.32    8.76
  -4   0 -20  167.46  323.91
   4   0 -20  182.20   88.43
   4   0  20  190.29   84.57
  -4   0  20  184.18   80.08
  -3   9  17  199.76   96.32
   3  -9 -17  165.85   60.41
  -3  -9 -17  198.70   95.18
   3  -9  17  169.02   80.05
   3   9 -17  146.97   57.39
  -3  -9 -17  120.51  225.05
  -3  -9  17  102.69  354.13
  -6   7  15  277.99  142.13
  -6   7 -15  277.67  133.40
  -6  -7 -15  270.24  141.39
   6   7 -15  220.24  100.69
   6  -7 -15  259.42  110.89
   6   7  15  247.17   97.21
   6  -7  15  197.00   83.19
  -6  -7  15   35.26  252.72
  -5  14  -4   68.93   52.26
  -5 -14   4   28.67  130.76
   5 -14  -4   65.36   63.76
   5 -14   4   49.64   36.33
  -5  14   4   66.14   41.30
   6  -9  13   82.14   54.57
   6   9 -13   95.13   55.32
   6   9  13  107.25   52.78
  -6   9  13  128.04   83.31
  -6   9 -13  128.97   85.80
  -6  -9 -13  116.06   80.48
   6  -9 -13  112.65   60.92
  -6  -9  13   25.69  193.80
   9  -7   5   94.72   59.79
  -9   7  -5   95.04   62.34
  -9  -7   5    6.72  140.67
  -3 -10 -16  114.98   87.06
  -3  10  16  115.09   67.09
  -3  10 -16  111.31   69.74
  -3 -10  16   24.24  175.96
  -3 -10 -16   43.15   96.47
   3  10 -16   80.76   37.27
   4  10 -15   35.53   25.95
  -4 -10  15  338.30  158.05
  -4  10  15   50.32   47.36
  -4 -10 -15   52.20   49.35
   4 -10 -15   47.75   28.72
  -4 -10 -15   28.18   90.26
   7 -12  -1  158.95   96.47
  -7 -12  -1   36.34  212.00
  -7  12   1  170.79  103.53
  -7  12  -1  171.27  110.02
   7 -12   1  148.31   87.84
  -7 -12   1  336.23  271.05
  -5  13   8   36.81   32.47
  -5 -13   8   16.78  107.75
   5 -13  -8   33.80   25.85
  -5  13  -8   11.40   91.77
  -5  13  -8   38.82   39.65
   5  13  -8   30.76   29.44
   5 -13   8   24.51   18.75
   5  13   8   29.61   18.87
   5   0 -19   -0.22    3.33
  -5   0 -19    1.32   16.60
  -5   0  19    0.07    3.16
  -5   0 -19    0.38    2.09
  -4  -8  17   15.69  173.98
  -4   8  17  101.25   65.71
   4   8 -17   69.65   36.05
   4  -8 -17   86.77   44.94
  -4  -8 -17   93.87   64.07
  -4   8 -17   91.86   65.79
  -4  -8 -17   74.50  150.08
   6 -11  10   43.83   31.43
   6 -11 -10   56.55   41.13
  -6 -11  10   26.28  139.27
  -6  11 -10   64.15   57.24
  -6 -11 -10   63.34   50.26
   6  11 -10   49.04   54.39
  -6  11  10   64.75   48.64
  -9  -6  -7   40.50   48.61
   9  -6   7   42.37   39.33
  -8  -5 -12    0.45    5.27
  -8   5  12    0.41    4.70
   8  -5  12   -0.42    4.26
   8   5  12    0.78    4.46
   1 -11 -16   15.89   17.65
   1  11  16   16.04   16.16
   1 -11 -16   44.32   57.14
  -1 -11  16    6.88   52.27
   1 -11  16   63.08   53.00
  -1 -11 -16   24.00   27.14
  -1 -11 -16   38.12   54.82
  -1  11 -16   16.54   24.55
  -1  11  16   17.96   23.14
  -9   8   0    0.61    6.30
  -6 -13   4   13.04   89.41
   6 -13   4   18.64   22.54
   6  13  -4   20.80   27.35
   6 -13  -4   22.74   25.63
  -6  13   4   22.61   28.82
  -6  13  -4   24.59   34.97
  -4   1  20    4.10    9.08
  -4   1 -20   23.16   53.95
   4   1  20    4.09    9.69
   4   1 -20    4.24    8.41
  -4  -1 -20   -1.05   53.35
   4  -1 -20    4.33   11.14
  -7  -7  13    3.69   91.24
   7   7 -13   26.88   28.32
   7   7  13   29.44   29.03
  -7  -7 -13   29.26   39.38
   7  -7  13   23.43   24.31
  -7   7  13   33.42   39.24
  -7   7 -13   29.68   31.50
   0  -8 -19   29.58   96.00
   0   8 -19   11.15   99.17
   0   8 -19   28.42   30.01
  -1  -4  21    0.52    6.65
  -1   4 -21    0.62    4.27
  -1  -4 -21    0.37   15.40
   1  -4  21    0.43    3.92
   1   4 -21    0.82   12.44
   1   4 -21    0.22    4.51
  -1   4 -21    0.81   14.56
   1  -4 -21    0.31    2.54
  -9   8  -1   93.86   69.05
  -9  -8   1   21.20  147.74
  -9   8   1   95.30   67.93
  -5  -1 -19    6.62   57.46
   5  -1  19    8.22   14.50
  -5   1  19    8.93   15.27
  -5   1 -19    4.89   52.66
  -5   1 -19    7.36    8.97
  -5  -1 -19    9.57   15.64
   5   1 -19    8.74   14.92
  -7   0  16  231.21  118.46
  -7   0 -16  233.01  123.20
   7   0  16  224.11  107.54
   0 -16   5  133.27  280.75
   0  16  -5  299.42  110.49
   0  16   5  379.75  162.46
   0 -16  -5  110.02  240.33
   0 -16  -5  367.85  144.76
   7   8 -12    4.78   13.10
   7   8  12    6.70   13.22
  -7   8 -12    7.05   16.74
  -7   8  12    5.79   18.31
   7  -8  12    6.25   11.47
  -7  -8 -12    5.99   26.92
  -7  -8  12    0.09   54.41
   7  -8 -12    4.07   14.31
   2   3 -21    1.38    5.71
   2   3 -21    0.83   13.95
   2  -3  21    0.86    5.00
  -2   3 -21    0.52   23.55
  -2   3 -21    0.30    4.79
  -2  -3 -21   -0.06   24.63
   2  -3 -21    0.73    4.41
   2  -3 -21    3.13   18.85
   7  10  -9   45.72   38.14
   7 -10   9   40.34   34.64
  -7 -10   9   16.72  134.39
  -7  10   9   54.54   42.12
   7 -10  -9   47.11   42.32
   7 -12  -2    1.04    7.47
   7 -12   2    0.68   10.90
  -7  12   2    3.71    9.63
  -7 -12  -2   -2.22   21.03
  -7  12  -2    1.46   10.57
  -7 -12   2   -0.28   25.14
   4  15  -3   22.59   25.57
   4 -15   3   20.95   20.81
  -4  15   3   24.91   19.17
   4 -15  -3   23.97   25.04
  -4  15   3   25.12   28.67
  -4  15  -3   26.68   24.73
  -7  -1 -16   27.94   44.04
  -7   1 -16   23.85   28.79
   7   1  16   26.14   28.21
  -7   1  16   25.41   32.50
   7  -1  16   24.47   27.99
   0  15  -9   -0.12   28.74
   0 -15   9   -0.71   17.04
   0  15   9    8.62   12.21
   0 -15  -9    0.06   10.83
   0 -15  -9    0.05   20.08
   8  -9  -7    0.29    4.20
  -8  -9  -7    0.18    2.98
  -8  -9   7    0.65   13.41
  -8   9  -7    0.39    5.45
  -4   5 -19  125.81   66.37
   4   5 -19    6.31    8.94
  -4  -5 -19    5.66   69.32
  -4   5 -19    6.20   13.35
  -4  -5 -19    6.70   12.25
   4  -5 -19    6.71   12.99
   4  -5  19    6.37   14.66
   2 -16   3   32.99  130.26
   2 -16  -3   67.83   40.46
  -2 -16   3   18.03   60.58
   2 -16  -3   21.40  100.52
   2  16   3   74.70   49.82
  -2  16   3   79.29   46.99
   2 -16   3   51.71   26.76
  -2 -16  -3   16.83   69.28
   2  16  -3   66.12   43.52
  -9  -3 -10    2.29   11.79
  -3  -8 -18    6.68   52.79
   3  -8  18    8.13   14.98
   3  -8 -18    7.23    9.43
  -3   8 -18   12.14   20.24
  -3  -8 -18    9.47   15.74
  -8 -10   4   -1.61   23.94
   8 -10   4    0.69    7.02
   8  10   4    1.96    9.36
  -8  10   4    1.70    8.26
  -2  15  -8  195.10  364.01
  -2 -15  -8  110.96  179.14
  -2  15  -8  392.10  132.57
  -2 -15  -8  456.65  167.35
  -2  15   8  519.13  199.15
  -2 -15   8  117.47  189.67
   2 -15  -8  135.17  240.32
   2 -15  -8  436.37  185.84
  -9  -8   2    7.57   92.93
  -9   8  -2   31.57   37.07
   9   8   2   34.99   41.00
  -9   8   2   30.57   35.70
   6 -12   8    5.10   10.23
  -6 -12   8   -0.02   53.21
  -6 -12  -8    6.70   12.55
   6 -12  -8    6.26   13.38
  -6  12   8    8.11   13.83
   7  -6 -14    8.99   18.65
   7  -6  14    6.98   14.84
  -7  -6 -14   10.58   24.26
   7   6  14    9.26   17.84
  -7   6  14   27.23   25.16
  -6  -4 -17   18.26   25.02
   6   4  17   16.56   18.84
   6  -4  17   16.29   21.49
  -6   4  17   17.71   26.79
  -6   4 -17    6.20   67.62
  -3 -11 -15   -0.16   23.82
  -3 -11 -15    3.85   15.06
  -3  11  15    4.01   14.54
   3  11 -15    2.19    7.10
  -3  11 -15   23.91   16.03
  -3 -11  15   -1.85   45.90
   0 -12  15   91.76  143.64
   0  12 -15   67.19  244.00
   0 -12 -15  187.83   88.95
   0  12  15  201.10   86.00
   0 -12 -15   68.86  161.83
   0  12 -15  150.55   69.64
   1   8 -19   21.09   98.87
  -1  -8 -19   37.19   21.53
  -1   8  19   41.43   24.21
   1  -8  19   41.50   36.57
  -1   8 -19   17.70  126.75
  -1  -8  19   24.82   74.12
  -1   8 -19   42.92   37.84
   1   8 -19   40.45   33.60
  -1  -8 -19   35.48  114.07
   8  -8  -9   37.45   35.49
   8  -8   9   29.90   31.10
  -8   8  -9   39.09   40.39
  -8   8   9   33.56   29.52
  -8  -8  -9   34.51   37.77
  -8  -8   9    2.24  103.58
  -4  -2 -20  205.81  335.91
   4   2 -20  215.56   80.72
   4  -2  20  235.10  101.35
  -4  -2 -20  195.65   73.91
  -4   2  20  234.59   95.37
   4   2 -20  231.02  101.74
  -4   2 -20  174.66  316.65
  -5   9 -15   -1.15    5.32
   5  -9 -15    0.27    2.42
   5   9  15    0.21    1.65
   5   9 -15    0.18    2.20
  -5  -9 -15   -0.45    4.32
  -1  16   5   48.28   44.44
   1 -16   5   16.69   99.29
  -1 -16  -5   43.65   32.96
  -1 -16  -5   13.28   69.72
   1 -16  -5   18.43   87.60
   1 -16  -5   44.01   36.72
   1  16   5   43.58   41.41
  -1 -16   5   15.34   83.17
  -5  -5 -18  100.86   61.11
  -5   5  18  113.53   71.69
   5  -5  18   97.45   56.77
  -5  -5 -18   71.09  162.56
  -5   5 -18   90.78   52.97
  -5   5 -18   60.75  183.11
   5  -5 -18   99.54   54.79
   5   5  18  102.80   48.66
   5   5 -18   88.40   47.46
  -4  14   8  132.71   69.81
  -4 -14  -8  117.06   59.41
   4  14  -8   89.07   49.68
   4 -14   8   72.29   33.46
  -4 -14   8   29.77  157.87
  -4  14  -8   53.38  173.68
   4 -14  -8   89.82   40.67
  -4  14  -8  119.89   66.83
  -5  -2 -19  132.53  244.21
   5   2 -19  160.63   74.86
  -5   2 -19  106.49  236.02
   5  -2 -19  167.60   84.56
   5   2  19  165.39   75.34
  -5  -2 -19  162.01   72.55
  -5   2  19  173.18   84.74
   5  -2  19  157.15   75.84
  -6  -6 -16   11.82   22.23
   6  -6  16    8.48   10.95
   6  -6 -16   12.27   17.65
  -6   6 -16    5.45   54.30
   6   6  16   12.25   14.77
  -6   6 -16   11.79   15.29
  -7 -11  -7  120.07   68.86
   7 -11   7  124.73   67.49
  -7 -11   7   35.13  223.27
  -7  11  -7  160.80   96.76
  -4 -11 -14  -17.63    8.78
  -4 -11  14    0.42   21.29
  -4 -11 -14    0.44   10.51
  -4  11 -14   -0.30   22.22
   4 -11 -14    0.55    3.47
   4  11 -14    0.35    3.96
  -4  11  14    0.74    7.18
   5  -8 -16    2.90    8.06
  -5  -8 -16    2.90   11.13
  -5   8  16    2.84   11.68
   5   8 -16    1.94    6.97
  -5  -8  16    1.64   36.09
  -6  10 -12    7.34   18.89
   6  10  12    7.27   10.42
  -6 -10 -12    7.08   17.80
   6  10 -12    6.41   13.07
   6 -10  12    4.87    8.71
  -6 -10  12    3.06   50.72
   6 -10 -12    8.32   13.03
  -6  10 -12    0.53   33.20
  -6  10  12    7.64   17.99
  -7 -12   3  100.53  357.50
  -7  12   3  431.25  181.38
  -7 -12  -3  101.21  278.31
  -7  12  -3  442.65  201.09
  -5  14  -5    3.64   10.60
  -5  14   5    4.22    7.49
   5 -14  -5    2.71    8.75
   5  14   5    1.59    5.72
  -5  14   5    1.65    6.53
   5 -14   5    1.47    5.79
  -5 -14   5    3.36   29.65
  -1  15  -9    0.67    2.49
   1  15   9    1.37    5.56
   1 -15  -9    0.34    5.65
  -1 -15  -9   -0.76    9.58
  -1  15  -9   -0.90   16.21
   1 -15  -9    0.54   11.88
  -1 -15  -9    0.71    5.49
   1  15  -9    0.26    2.58
  -1 -15   9   -0.13   11.58
  -1 -15   9    0.09   10.41
  -3 -13  12   70.00  189.31
  -3 -13 -12   32.13   91.55
   3  13  12  113.82   48.30
   3  13 -12   90.42   45.44
  -3  13 -12  104.02   63.06
  -3  13  12  123.17   77.93
  -8   0 -14   27.04   35.21
   2  -6 -20    0.36    2.15
  -2   6  20   -0.05    2.54
  -2  -6  20   -0.61    7.26
  -2  -6 -20    1.37   13.58
  -2   6 -20    0.52    4.21
   2  -6  20    0.41    3.87
   2   6 -20    0.63    3.95
  -2   6 -20    0.50   14.58
   2   6 -20    0.84   10.24
   3   0 -21    0.18    1.61
  -3   0 -21    0.42   15.80
  -7   2  16   69.89   54.85
  -7  -2 -16   70.03   55.21
   7  -2  16   67.47   45.95
   7   2  16   66.08   47.80
  -7   2 -16   62.71   46.47
  -4  -7  18   -1.70   16.97
   4  -7  18    0.38    5.15
  -4   7  18    0.01    6.16
  -4   7 -18   -0.16   24.58
   4   7 -18    1.10    3.27
  -4  -7 -18    0.97   16.81
  -4  -7 -18    1.16    5.55
   7  -9  11  123.09   79.67
  -7   9  11  166.25   96.37
  -7   9 -11  176.74  108.63
   7   9  11  146.50   75.16
  -7  -9 -11  153.36   98.75
   7  -9 -11  152.05   81.40
   7   9 -11  131.66   74.11
  -7  -9  11   27.53  242.66
  -9   0 -11   -0.05    2.86
  -9  -8   3   -0.02   67.77
  -9   8   3   16.54   24.27
   9   8   3   17.25   28.25
  -9   8  -3   15.61   25.84
  -6  13   5   94.85   57.36
   6  13  -5   84.90   55.16
   6 -13   5   73.59   46.51
   6  13   5   86.91   50.63
  -6  13  -5   98.18   68.99
  -6 -13   5   24.76  176.82
  -8   4  13   29.82   34.37
   8   4 -13   24.94   27.68
  -8  -4 -13   29.69   38.88
   8   4  13   29.70   32.19
   4 -15  -4    0.56    6.33
   4 -15   4    0.18    4.32
  -4  15   4    3.11    4.00
   4  15  -4    0.21    5.74
  -4 -15   4    0.43   17.19
  -4  15   4    0.50    5.23
  -4  15  -4    0.40    5.79
   1 -12 -15   17.37   18.32
  -1  12 -15    6.99   75.85
  -1 -12  15    7.52   44.42
   1 -12 -15    9.88   48.51
   1  12  15   17.82   16.92
   1  12 -15    3.91   46.16
  -1 -12 -15    7.32   46.04
   1  12 -15   12.38   12.82
  -1  12  15   18.92   21.83
  -2 -10 -17   10.78   59.64
  -2 -10 -17   32.09   30.64
  -2  10 -17   31.99   33.38
  -2 -10  17   18.23   66.71
  -2  10  17   32.39   29.89
   2 -10  17   28.89   27.57
  -9  -7   6    3.26  100.41
  -9   7  -6   47.61   38.62
   9   7   6   60.21   48.75
   9  -7   6   50.39   41.97
   8   1  14   31.17   31.32
  -8   1  14   29.51   31.70
  -8   1 -14   28.65   34.84
  -8  -1 -14   30.72   38.65
   3   1  21   72.59   37.80
   3  -1  21   66.38   40.08
  -3  -1 -21   70.41  194.02
  -3   1  21   49.99   27.86
   3   1 -21   61.86   42.06
  -3   1 -21  300.87  201.57
  -5  10  14   21.18   30.48
   5  10 -14   16.29   18.70
  -5 -10  14    8.45   89.52
  -5 -10 -14   22.71   32.91
  -5  10 -14   23.12   30.56
  -2  14 -11    2.30    6.34
   2  14 -11    1.23    4.19
  -2 -14  11   -1.59   24.02
  -2 -14 -11    0.92   13.01
   2  14  11    2.13    7.43
  -2 -14  11    0.97   10.72
  -2 -16  -4    0.31    2.03
  -2 -16   4   -0.01    4.24
   2 -16   4   -2.66    9.76
  -2  16   4    0.15    3.30
   2 -16  -4    0.61    2.85
   2 -16  -4   -0.66    7.96
   2  16   4    0.03    3.47
  -2 -16  -4   -0.63    7.23
   2 -16   4    0.09    1.28
  -9  -1 -11   62.40   57.26
  -9   1 -11   63.19   54.25
   2 -13  13    2.90   24.21
   2  13  13   17.47   16.78
   2  13 -13   10.78   13.23
  -2 -13  13    6.22   62.30
  -2 -13 -13   18.71   25.81
  -2 -13 -13    5.58   38.74
  -2  13  13   18.43   23.37
   3  -5 -20  151.81   62.81
  -3   5 -20  139.16  268.21
   3   5 -20  142.67   69.04
  -3   5  20  159.04   81.72
  -3   5 -20  161.36   79.85
  -3  -5 -20  446.11  290.58
   3  -5  20  158.67   77.98
  -3  -5 -20  140.66   55.88
  -3  -5  20   43.12  152.82
  -2  -9  18    1.55   29.42
   2  -9  18    3.82   12.01
  -2   9  18    6.34   11.33
  -2  -9 -18    5.62   11.13
  -2  -9 -18    4.17   42.81
   0   0 -22  732.68  243.82
   0   0 -22  595.19  663.40
  -3 -15   7    1.01   10.78
   3 -15  -7    0.47    4.26
  -3  15  -7    0.34    3.42
  -3 -15  -7   -0.30    5.18
   3 -15   7   -0.29   11.90
  -3  15   7    0.60    5.03
  -3 -14 -10   91.33   63.70
  -3 -14  10   20.93  161.54
  -3 -14 -10  139.93  117.24
   3  14  10   83.44   45.15
  -3  14 -10   78.15   52.61
  -3  14  10   91.84   67.31
   3  14 -10   63.48   39.71
   6   0  18   24.87   25.25
  -6   0  18   26.35   28.71
  -6   0 -18   24.88   22.77
   0   5 -21    0.18    9.03
   0  -5  21    0.22    2.57
   0  -5 -21   -0.44    9.75
   0   5 -21    0.04    2.87
  -5  12 -11  236.54  115.04
  -5  12 -11   81.53  209.74
  -5  12  11  235.36  110.04
   5 -12 -11  211.05   80.94
  -5 -12  11   47.91  235.26
   5 -12  11  133.13   55.27
  -5 -12 -11  237.04  109.72
   5  12 -11  181.47   82.50
   0 -16   6  144.42  260.45
   0  16  -6  304.59  102.27
   0 -16  -6  402.57  147.83
   0 -16  -6  123.27  224.93
  -8  10  -5   38.41   44.34
  -8 -10   5   10.62  101.26
   8  10   5   36.21   40.15
   8 -10   5   30.76   32.25
  -8  10   5   35.89   37.50
   9  -5   9   -1.34    1.78
  -9  -5  -9    0.62    2.63
   9   5   9    1.01    1.77
   0   1 -22   -0.05    6.12
   0  -1 -22   -0.10    4.92
   0  -1 -22   79.25   33.99
   0   1 -22   52.49   35.63
   6  -1 -18   78.60   50.84
   6   1 -18   81.05   55.18
   6   1  18   74.85   48.03
  -6   1 -18   73.68   43.08
  -6   1  18   85.00   56.69
  -6   1 -18  280.23  143.47
  -6  -1 -18   77.83   63.06
   0   7 -20    0.68    4.31
   0   7 -20   -0.79   12.09
   0  -7 -20    0.09   14.62
   0  -7  20   -0.29    8.91
   2 -11 -16    9.87   11.65
  -2  11  16    9.32   17.37
  -2 -11 -16   16.54   38.03
  -2 -11  16    4.97   56.59
   5   7  17   28.60   20.01
  -5   7 -17    9.69  107.64
  -5  -7  17    4.80   88.64
  -5   7 -17   30.44   31.43
  -5  -7 -17  108.58   95.58
  -5   7  17   30.35   35.12
  -5  -7 -17   31.55   34.48
   5  -7 -17   28.83   25.52
   5   7 -17   24.73   22.02
  -2   4 -21    1.06   16.16
  -2   4 -21    0.93    3.70
  -2  -4  21    0.29    5.13
   2   4 -21    0.35    4.12
   2   4 -21   -0.02    9.40
   2  -4 -21    0.31    2.83
   2  -4  21    0.06    3.81
  -2  -4 -21   -2.48   15.42
   7 -12   4   17.03   24.50
   7  12   4   22.35   28.16
  -7  12   4   21.78   29.99
  -7 -12   4    6.46   81.51
  -7  12  -4   22.07   33.45
   7  -5 -15    1.44    7.36
  -7   5  15    2.11    9.04
  -7  -5 -15    1.89    9.72
   7  -5  15    1.09    6.04
   4   3 -20   13.46   19.99
  -4   3 -20    1.71   76.36
   4   3  20   27.11   15.82
  -4  -3 -20    3.58   78.52
   4   3 -20   12.31   12.65
   4  -3  20   13.61   19.89
  -4  -3 -20   10.45   13.48
  -4   3  20   13.87   17.54
  -3   7 -19   49.70   41.93
   3  -7  19   44.12   36.85
  -3  -7 -19  181.17  132.38
  -3  -7 -19   46.77   30.94
  -3   7  19   47.87   35.53
  -3   7 -19   31.56  150.85
  -3  -7  19    2.38  146.48
   3  -7 -19   45.18   25.47
   9  -6   8    7.62   17.76
  -9  -6  -8   13.82   25.84
   9   6   8   10.22   20.34
  -8   2  14    0.31    7.46
  -8  -2 -14    1.05   12.50
   8   2  14    1.82    7.62
  -8   2 -14    1.94    7.88
   0 -14  12    1.43   33.57
   0 -14 -12    8.58   16.06
   0  14  12   10.77   16.70
   0 -14 -12    3.57   29.00
   0  14 -12    6.13    7.23
   0  14 -12    0.95   40.33
  -3  -2 -21   10.07  107.45
  -3   2  21   21.99   15.56
   3  -2  21   25.45   23.76
  -3   2 -21    6.94  101.51
   3   2  21   25.06   17.74
   3  -2 -21   22.06   21.39
   3   2 -21   23.06   23.57
  -5  -3 -19   -1.05   18.35
   5   3 -19    0.72    4.40
  -5   3  19    0.26    5.66
  -5  -3 -19    0.68    4.42
   5  -3 -19    0.88    5.61
  -5   3 -19   -0.81   18.93
   5   3  19    1.32    4.50
 -10  -2  -6   28.41   26.08
   1   0 -22  414.39  131.84
   1   0 -22    7.14   22.53
  -1   0 -22  325.25  132.78
  -9  -2 -11    1.75   10.92
  -9   2 -11    2.25    9.75
  -9  -4 -10   49.06   50.32
  -9   4  10   44.04   33.99
   9  -4  10   50.32   43.97
  -3 -12  14  120.28  109.99
   3 -12  14    9.79   34.71
   3  12 -14   28.89   17.89
  -3 -12 -14   11.56   47.24
  -3  12  14   39.38   34.74
  -3  12 -14    2.38  121.55
  -4  13 -11   46.38   40.82
  -4 -13  11   21.25  131.75
   4 -13 -11   35.44   21.13
  -4 -13 -11   62.73   46.07
   4  13 -11   33.79   25.28
  -4  13  11   50.86   43.42
  -9  -8   4    0.15   17.53
  -9   8  -4    1.14    6.33
   9   8   4    0.19    7.31
  -5  13  -9   34.41   33.78
   5 -13  -9   28.47   21.83
  -5  13   9   32.77   29.38
  -5 -13   9   11.01   89.77
   5 -13   9   19.83   15.12
   5  13  -9   26.74   26.07
  -5  13  -9    8.16   81.84
  -1   5 -21   66.21   45.16
  -1  -5 -21  237.00  152.28
   1  -5  21   67.58   43.84
   1   5 -21   40.18  118.93
  -1   5 -21   36.56  138.65
  -1  -5  21   43.01   72.31
   1   5 -21   64.76   46.14
   3  16   0    0.08    3.04
   3 -16   0    0.13    2.13
  -1 -16  -6   15.74   19.89
   1 -16   6    7.59   55.84
   1 -16  -6   16.89   21.12
   1 -16  -6    8.19   48.81
  -1 -16   6    8.08   45.56
  -1  16   6   17.19   25.41
  -1 -16  -6    4.93   36.73
   1  16  -6   12.04   14.32
  -7   3 -16   13.56   18.25
  -7   3  16   16.78   24.71
   7   3  16   14.69   20.82
  -7  -3 -16   14.30   25.52
   1  -1 -22  131.31   59.73
   1  -1 -22  157.07  230.44
  -1   1 -22  483.19  275.74
   1  -1  22  119.28   54.40
  -1  -1 -22  188.17  250.32
   1   1 -22  126.18   65.20
   1   1 -22  106.41  225.21
  -1   1 -22  125.92   56.89
   3 -16   1    0.34    2.79
   3 -16  -1    0.35    3.29
  -3  16   1    0.29    2.62
   3  16  -1    0.18    4.13
   1  -7  20   47.67   39.23
   1   7 -20   46.59   38.07
  -1  -7 -20  159.86  136.07
   1   7 -20   26.30  110.58
  -1   7 -20   21.38  116.43
  -1   7 -20   48.88   41.11
   0   2 -22   43.55  145.03
   0  -2 -22   30.94  115.18
   0   2 -22   36.00   37.32
   0  -2 -22   33.77   19.27
   0  -2  22   30.97   26.24
   8  -9   8   18.38   25.60
  -8  -9   8    3.61   82.95
  -8  -9  -8   18.41   21.68
   8  -9  -8   19.12   28.76
  -8   9  -8   22.88   33.40
   8   9   8   39.17   31.90
  -2  -8 -19   12.90   14.73
  -2   8 -19   14.92   22.65
  -2  -8 -19   21.37   70.80
  -2   8  19   13.73   15.52
   2  -8  19   12.76   19.78
   4 -15  -5   25.68   26.94
  -4 -15   5    3.85   66.81
  -4  15   5   28.56   23.60
   4 -15   5   18.90   16.56
  -4  15   5   24.29   15.60
  -4  15  -5   28.11   24.67
  -4 -15  -5   22.26   15.33
  -6   2  18    1.09    6.29
  -6   2 -18    0.55   13.16
  -6   2 -18    0.91    3.89
   6  -2 -18    0.84    5.60
   6   2 -18    0.68    5.67
   6  -2  18    0.58    5.40
  -6  -2 -18    0.68    5.36
  -5  14   6    0.45    3.54
  -5 -14  -6    0.46    2.70
   5 -14   6    0.45    2.68
  -5  14   6    0.79    3.48
  -5 -14   6    0.62   15.41
  -5  14  -6    0.36    5.47
   5  14   6    0.30    2.44
   8  -7 -11    3.51   10.29
   8   7  11    3.86   10.98
  -8   7 -11    2.81    8.28
  -8  -7 -11    3.78   13.32
  -8   7  11    3.32   10.83
   8  -7  11    2.25    9.50
  -8  -7  11   -0.13   24.99
   8  -6  12    1.64   10.68
  -8   6  12    3.03   11.48
  -8  -6 -12    3.82   13.59
   8   6  12    3.82   10.96
  -2  16   5   11.69   19.68
   2  16   5   10.71   18.46
   2 -16  -5    4.27   41.62
  -2 -16   5    1.87   29.94
  -2 -16  -5   10.59   12.81
   2  16  -5    9.43   13.90
  -2 -16  -5    2.78   26.22
   2 -16  -5   10.75   16.31
   2 -16   5    6.33   49.99
   1 -14 -12   68.83  142.90
  -1  14 -12  167.05   61.98
   1  14  12  237.22   87.91
   1  14 -12   75.20  148.00
  -1 -14 -12   56.41  134.90
  -1 -14  12   45.04  159.34
   1 -14  12   43.32  117.09
  -1  14 -12   76.70  188.18
   0 -13  14    0.04    5.09
   0 -13 -14    0.63    2.96
   0 -13 -14    0.62    6.46
   0  13 -14   -0.29    7.88
   0  13 -14   -0.04    1.88
   0  13  14   -0.01    2.85
  -5  11 -13   38.17  149.50
  -5 -11 -13  117.10   77.76
  -5  11 -13  112.23   76.16
  -5  11  13  109.18   73.61
  -5 -11  13   28.35  203.76
   5 -11 -13  101.23   62.71
  -6  13  -6    2.22    9.19
  -6 -13   6    0.29   26.36
  -6  13   6    1.62    6.97
   6  13  -6    2.05    7.26
   6 -13   6    0.92    5.46
   6  13   6    1.37    5.78
  -4  12 -13   84.60   55.62
  -4  12  13   89.14   57.78
   4  12 -13   62.41   34.04
  -4 -12 -13   21.00   56.98
  -4 -12 -13   91.16   61.28
   4 -12 -13   72.23   32.64
  -4 -12  13   43.15  166.87
   6  -5 -17   11.37   17.64
  -6   5  17   14.24   21.61
  -6   5 -17    5.28   52.29
   6  -5  17    6.76   11.68
   6   5  17   11.99   14.55
  -6  -5 -17   17.68   21.25
   6   5 -17   12.98   16.37
  -3  16   2   15.93   15.13
   3 -16   2   12.59   13.27
  -3  16  -2   13.12   11.40
   3  16   2   16.11   21.69
   3 -16  -2   15.19   17.89
  -6  11  11    1.56    8.05
  -6  11 -11    2.56    9.81
  -6 -11  11    0.03   25.01
   6 -11 -11    1.57    6.46
   6  11  11    1.48    4.92
  -6  11 -11    0.94   17.03
  -6 -11 -11    2.33    8.10
   6  11 -11    1.91    6.89
   6 -11  11    0.75    4.48
   7  10  10  236.21   99.06
  -7 -10  10   53.07  283.41
  -7  10  10  263.73  122.20
   7 -10 -10  244.13  111.92
   7 -10  10  193.14   90.28
   7  10 -10  210.98  100.49
  -7  10 -10  272.02  170.32
  -7 -10 -10  242.44  120.11
  -2  15   9    0.93    9.84
   2 -15  -9    1.80    8.28
  -2  15  -9    0.57   24.12
   2  15  -9    0.36    5.05
  -2 -15   9   69.24   23.58
  -2 -15  -9   -0.44   12.16
  -2 -15  -9    0.74    8.13
  -2 -15   9    0.64   11.09
   2  15   9    1.01    7.93
  -2  15  -9    0.63    5.10
   6  12   9    8.94   10.96
  -6 -12   9    3.89   56.43
  -6  12  -9   10.25   21.32
   6 -12   9    6.74   10.23
  -6 -12  -9    8.45   13.73
   6 -12  -9    8.47   14.22
  -6  12   9   10.66   15.66
  -7  11  -8   33.31   37.99
  -7 -11  -8   26.28   31.49
   7 -11   8   26.66   25.89
  -7  11   8   30.64   24.71
   7 -11  -8   33.12   33.51
  -7 -11   8   14.26  101.52
   7  11   8   32.23   28.29
   0 -15  10    0.30    4.71
   0 -15 -10    0.14    2.90
   0 -15 -10   -0.29    5.29
   0  15 -10   -0.17    7.55
   4   6 -19    8.15    9.23
  -4  -6 -19   33.52   52.71
   4  -6  19    9.40   15.66
  -4   6  19   11.72   17.22
  -4  -6 -19    9.66   20.45
  -4   6 -19   11.78   16.13
  -4   6 -19    0.24   61.09
   4  -6 -19   11.09   13.65
  -4  -6  19    1.50   35.85
   1  -2 -22   52.47   29.01
  -1   2 -22   29.65  181.82
   1   2 -22   37.57  106.48
   1   2 -22   50.92   36.39
   1  -2  22   49.19   29.70
  -1  -2 -22   36.34  147.06
   1  -2 -22   37.80  131.00
  -1   2 -22   50.27   31.73
  -2 -12 -15   45.79  105.19
  -2 -12  15   32.55  174.94
   2  12 -15   99.29   39.15
  -2  12  15  139.05   69.41
  -2  12 -15  121.26   64.55
  -9  -7   7    1.51   50.71
  -9  -7  -7   15.75   15.61
   9  -7   7   16.99   21.21
   7  12   5  160.77   85.71
   7 -12   5  144.31   79.65
  -7  12  -5  174.95  103.91
  -7  12   5  171.28   91.31
 -10  -1  -7   12.21   18.99
  -4  14   9   19.59   23.34
  -4  14  -9   19.26   21.72
  -4  14  -9    5.80   65.18
   4 -14  -9   12.14   10.67
  -4 -14   9    5.87   62.68
  -8  10  -6  109.26   82.41
   8 -10   6   87.80   58.58
   8  10   6  100.08   71.27
  -8 -10   6   22.82  157.31
  -8  -3 -14    2.20   13.10
  -8   3 -14    2.48   10.62
  -8   3  14    5.53   11.20
   8   3  14    2.15   10.64
   3  -3  21   49.11   33.28
  -3   3  21   42.38   24.35
   3   3 -21   44.06   32.54
   3   3  21   44.05   22.00
  -3   3 -21   41.65   26.53
  -3   3 -21   31.15  133.48
   3  -3 -21   45.91   29.34
  -3  -3 -21   40.48  138.43
 -10  -3  -6   69.54   42.36
   1  13  14   12.09   20.49
  -1  13 -14   -2.57   49.67
   1 -13 -14    4.39   37.56
  -1  13 -14    9.28   13.54
  -1 -13  14    3.23   47.07
   1  13 -14    9.24    9.07
  -1  13  14   12.85   17.95
   1  13 -14   -3.77   38.35
  -1 -13 -14    5.27   35.80
  -8  -8  10    1.44   56.81
  -8  -8 -10   12.27   21.72
  -8   8 -10   13.24   19.42
   8   8  10   13.32   20.32
   8  -8  10    7.98   16.91
   8  -8 -10   11.88   19.67
  -8   8  10   13.04   16.90
  -8  11   0  195.08  104.17
  -8 -11   0   46.98  208.58
  -9  -3 -11    4.41   13.13
   9  -3  11    2.16   12.34
  -6  -8  15   15.54  142.03
  -6   8 -15  103.13   62.56
  -6  -8 -15  102.10   68.27
   6   8 -15   79.10   46.57
   6   8  15   90.23   41.19
   6  -8 -15   95.72   49.98
  -6   8 -15   45.64  134.95
  -6   8  15  104.31   66.36
   6  -8  15   58.73   39.25
  -8   5  13  128.69   81.28
   8   5  13  126.09   72.60
  -8  -5 -13  118.70   87.11
   8  -5  13  112.71   71.37
  -9   8  -5   43.07   37.93
  -9  -8   5    4.10   96.18
  -8 -11  -1   -0.58   33.89
  -8  11  -1    4.19   13.91
  -8  11   1    4.55   14.00
   0  16   7  269.22  121.45
   0 -16  -7  241.99  103.58
   0 -16   7   78.22  186.04
   0 -16  -7   62.19  157.23
   6   9  14   45.69   25.56
   6  -9  14   30.42   20.81
  -6   9  14   51.32   43.04
  -6   9 -14   53.93   43.67
  -6   9 -14   19.86   74.93
  -6  -9  14    8.75  109.02
   6   9 -14   40.99   29.87
  -6  -9 -14   49.71   44.41
  -3 -16   3    6.88   36.42
  -3 -16  -3    6.67   27.94
   3 -16   3   26.88   17.82
  -3  16   3   38.88   24.85
   3 -16  -3   33.32   26.53
  -3  16  -3   30.00   17.65
   3  16   3   37.01   30.96
  -5  -6 -18   14.13   20.68
  -5   6 -18   13.68   17.54
   5   6 -18   12.29   14.46
  -5   6 -18    4.99   77.45
   5   6  18   14.50   13.13
  -5  -6 -18   42.58   58.18
  -3 -15   8    3.28   34.63
  -3  15  -8    8.39   11.19
  -3 -15  -8    0.74   16.44
   3  15  -8    5.83   10.21
   3 -15  -8    7.37   14.02
  -4  -4 -20   76.44  170.70
   4   4  20   82.79   36.61
   4  -4  20   88.30   50.55
  -4  -4 -20   79.10   38.01
  -4   4 -20   77.02   40.41
  -4   4  20   89.56   47.02
   4  -4 -20   88.94   46.66
  -4   4 -20   56.21  169.67
   4   4 -20   73.85   31.88
  -1  15 -10   37.26   19.79
  -1 -15  10   13.00   62.92
  -1  15  10   56.50   45.73
  -1 -15 -10    9.20   65.19
   1  15  10   56.86   39.84
  -1 -15  10   12.31   78.00
   1 -15 -10   53.23   38.90
   1 -15 -10   18.24   74.86
  -1  15 -10   19.23  104.15
   7   8  13    0.65    5.17
   7   8 -13    0.71    5.18
  -7   8  13    1.18    7.01
  -7  -8 -13    1.71    7.10
  -7  -8  13   -0.42   18.94
  -7   8 -13    0.44    5.90
   7  -8 -13    0.26    7.93
   0 -10  18   18.81   16.19
   0 -10 -18   16.97   15.78
   0  10  18    0.20    3.81
   0 -10 -18    0.12    4.63
   0   3 -22    0.41    3.97
   0   3 -22    0.62   13.71
   0  -3 -22    0.58   17.25
  -6  -3 -18   60.56   42.14
  -6   3 -18   26.00  123.05
   6  -3 -18   61.56   41.87
   6   3  18   54.23   35.01
  -6   3 -18   50.65   27.87
   6   3 -18   57.46   39.68
  -6   3  18   63.09   47.44
   6  -3  18   59.75   40.53
   7   7 -14    9.85   18.47
   7   7  14   13.14   18.35
  -7   7 -14   10.57   16.80
   7  -7 -14   11.56   19.75
  -7   7  14   36.94   27.67
  -7  -7 -14   13.12   26.08
  -5  -4 -19   72.38   43.22
   5  -4  19   68.76   42.64
   5   4 -19   66.81   36.89
  -5   4 -19   38.52  138.89
   5  -4 -19   76.23   46.32
  -5   4  19   79.15   49.59
  -5  -4 -19   57.88  132.55
 -10  -2  -7   12.33   18.52
  -8  11   2    0.38   11.04
  -8  11  -2    0.69   11.64
  -8 -11   2   39.00   33.33
   0 -11 -17   -1.21    8.19
   0  11 -17    0.26    3.12
   0  11  17    0.47    2.50
   0 -11 -17    0.10    2.76
   2   0 -22  537.42  272.51
   2   0 -22  153.08   73.05
  -2   0 -22  196.03  329.70
   2   0  22  149.08   62.03
   4 -15   6  102.21   42.95
   4 -15  -6  145.51   69.96
  -4  15  -6  146.52   70.86
  -4 -15   6   36.89  150.49
   4 -15  -6  103.46   42.74
  -4 -15  -6  127.06   50.67
  -4  15   6  155.75   68.57
   7  -4 -16    0.54    5.22
   7   4  16   -0.30    5.30
   7   4 -16    2.69    5.39
  -7  -4 -16    0.13    6.74
  -7   4  16    0.29    6.59
  -6   7 -16    0.22    3.18
   6  -7  16    0.23    1.70
  -6   7 -16   -1.51   10.59
   6  -7 -16    0.37    3.34
   6   7 -16   -0.01    3.01
  -6  -7  16    0.61    7.92
  -6  -7 -16    0.27    4.37
  -6   7  16    0.68    4.39
  -4   9 -17   83.51   59.29
  -4  -9  17  579.15  209.79
  -4  -9 -17   84.97   56.92
   4   9 -17   59.67   30.22
  -4  -9 -17   48.61  117.02
   4  -9 -17   77.03   36.64
  -2   5 -21   60.95  150.10
   2   5 -21   59.95   40.19
  -2   5  21   49.08   23.29
   2  -5  21   62.32   38.99
  -2  -5  21   31.51   56.15
  -2   5 -21   63.59   40.03
   2   5 -21   27.52  108.18
  -2  -5 -21  227.70  158.17
  -9   9   0    0.22    3.99
   4  10 -16   10.25   15.70
   4 -10 -16   13.21   11.89
  -4 -10 -16   13.18   23.66
  -4  10  16   13.92   22.35
  -4 -10 -16    6.17   45.98
  -4 -10  16   83.63   72.42
  -1 -16  -7   40.35   21.23
  -1 -16   7    2.07   21.65
  -1 -16  -7    0.67    9.76
  -1  16   7    1.29   12.58
   1  16  -7    1.43    6.03
   1 -16  -7    1.16   11.07
   1 -16  -7   19.06   26.74
   1 -16   7    0.73   26.88
   0  -9 -19    1.35   23.74
  -2 -16   6   62.69  150.88
  -2  16   6  261.28  103.87
  -2 -16  -6  219.50   77.93
   2  16  -6  191.95   71.42
   2 -16  -6   74.00  156.18
  -2 -16   6   47.73  106.59
  -2 -16  -6   53.73  105.54
   2 -16   6   81.52  187.07
  -3   6 -20    2.46   78.72
  -3  -6 -20   14.70   13.70
  -3  -6 -20   73.71   72.48
  -3   6 -20   18.30   21.31
   3  -6  20   16.84   20.76
   3  -6 -20   15.92   13.87
  -3   6  20   17.66   16.80
  -3  -6  20    1.88   46.54
   2   1  22  120.05   46.31
   2   1 -22  133.66   64.28
  -2   1 -22  117.66   48.56
  -2   1 -22  603.63  331.75
   2  -1 -22  134.31   60.73
  -2  -1 -22  167.57  270.92
   2   1 -22   95.36  158.60
   2  -1 -22  132.28  197.47
   2  -1  22  134.91   57.73
  -9  -9   1   33.17  187.52
  -9   9  -1  173.55   96.49
  -9   9   1  172.64   93.75
  -2  -7  20    1.48   10.09
  -2   7 -20    0.05   19.21
   2  -7  20    0.73    5.00
  -2   7  20    0.71    3.32
  -2  -7 -20    2.94   18.02
  -2  -7 -20    0.54    2.57
  -1  10  18   23.20   18.92
  -1  10 -18   22.68   25.33
  -1 -10 -18   21.55   26.22
  -1 -10 -18    8.54   51.11
   0   6 -21   50.26   36.77
   0   6 -21   24.88   98.31
   0  -6  21   33.49   65.37
   1  -3 -22    4.36   61.23
   1   3 -22   10.17   15.47
   1  -3  22    9.78   12.26
   1   3 -22    5.43   44.96
  -1  -3 -22    3.80   62.27
  -1   3 -22    8.48   13.44
  -1   3 -22    3.60   51.77
   7  -9  12    0.76    3.78
   7  -9 -12    0.41    5.16
  -7  -9  12    1.04   19.27
  -7  -9 -12    2.34    9.19
  -7   9 -12    0.35    6.44
  -7   9  12    0.37    6.06
   7   9  12    0.42    4.71
   7   9 -12    0.89    4.82
  -6 -14   0   32.08  132.53
  -6  14   0  129.31   71.31
   6 -14   0  115.08   63.90
   5 -14  -7    7.74    6.17
  -5  14   7    0.54    6.92
   5  14  -7    1.07    7.88
  -5 -14  -7    1.12    5.52
   5 -14   7    0.65    4.58
  -5  14  -7    1.89    9.88
  -5 -14   7   -0.60   28.43
  -9  -5 -10   36.61   52.39
   9  -5  10   36.08   35.25
  -9   5  10   30.13   25.52
  -9   0 -12   15.10   25.06
  -3  10 -17   27.32   32.18
  -3 -10  17    7.65   96.48
  -3 -10 -17   16.86   77.57
  -3 -10 -17   29.17   29.95
  -3  10  17   28.17   29.12
   9   6   9   15.00   24.15
   9  -6   9   17.19   22.77
  -9  -6  -9   12.34   32.85
  -6 -10  13    9.98   92.86
  -6 -10 -13   36.65   35.39
  -6  10  13   41.75   35.33
  -6  10 -13    7.18   62.87
  -6  10 -13   38.37   37.38
   6  10 -13   28.45   24.86
   6 -10 -13   32.70   26.02
   6  10  13   31.82   19.84
   6 -10  13   21.35   16.61
  -3 -14 -11    0.41    9.34
   3  14  11    0.33    6.00
  -3  14 -11    0.55    7.88
  -3 -14  11  149.35   32.61
   3  14 -11   -0.10    8.01
  -3  14  11    0.43   10.55
  -6  14  -1  130.49   75.70
  -6 -14   1  244.63  173.29
   6 -14  -1  116.26   66.41
  -6 -14  -1   27.89  120.48
   6 -14   1  107.30   62.76
  -6  14   1  130.32   72.46
  -3 -16  -4   18.21   11.38
   3  16  -4   20.41   19.92
  -3  16   4   23.82   20.57
  -3  16  -4   18.74   13.47
  -3 -16  -4    4.56   21.90
   3 -16   4   15.50   11.59
  -3 -16   4    3.28   37.17
   3 -16  -4   21.07   20.79
  -3 -13  13   57.41  209.21
   3 -13  13   48.92   72.42
  -3  13  13  230.05   95.74
  -3 -13 -13   65.76  108.59
   3  13 -13  170.00   57.15
  -3  13 -13  205.37   82.52
  -1 -11 -17   88.22  131.12
   1  11 -17  116.34   54.36
  -1  11 -17  133.44   68.82
  -1 -11  17   84.14  128.43
   1 -11 -17  148.03   57.58
  -1  11  17  151.14   64.88
  -2 -14  12   15.64  102.10
   2  14  12   61.28   34.08
  -2  14  12   61.18   45.35
   2  14 -12   39.86   19.26
  -2 -14 -12   16.65   62.03
  -2  14 -12   47.33   29.95
  -2  14 -12   17.95  101.17
   2 -14  12    9.27   46.35
  -6  13  -7   27.07   30.27
   6 -13  -7   26.30   23.53
  -6 -13  -7   21.06   15.04
   6  13   7   23.93   18.30
  -6  13   7   25.30   18.87
   6 -13   7   19.42   18.03
  -6 -13   7    7.40   87.61
   6  13  -7   24.05   25.48
  -3  -9  18   44.51  235.99
  -3  -9 -18  130.46  226.43
  -3  -9 -18  219.80   93.49
  -3   9  18  214.80   92.96
   3  -9 -18  177.72   58.12
  -5 -15   0   11.30   11.68
  -5  15   0   -0.24    5.34
   5 -15   0   -0.12    5.12
  -8  11  -3    0.60    5.26
  -8 -11   3   -1.03   13.17
   8  11   3    0.62    5.21
  -8  11   3    0.14    4.87
   8 -11   3    0.30    4.22
   7   6  15    8.73   18.74
  -7   6  15    8.39   17.90
   7  -6  15    5.81   10.56
   7  -6 -15    7.58   14.28
   7   6 -15    6.64   13.51
  -7  -6 -15    8.27   18.39
  -9   1 -12   11.14   19.19
  -9  -1 -12    6.38   19.58
  -9   9   2    7.17   16.06
  -9   9  -2    8.11   16.99
  -9  -9   2    0.14   43.36
  -7  12  -6   19.04   28.39
   7 -12   6   15.29   19.31
   7  12   6   17.33   21.29
  -7  12   6   17.78   23.50
  -7 -12   6    6.32  108.74
  -7   0 -17    0.11    3.78
   7   0  17    0.46    3.74
   5 -15  -1   44.42   34.86
  -5 -15  -1    8.45   53.79
   5 -15   1   38.56   29.28
  -5  15   1   48.16   31.59
  -5 -15   1   27.02   71.28
  -5  15  -1   54.75   45.84
   0 -17   0    0.11    0.97
   0  17   0   -0.20    1.88
  -4   8  18   35.48   31.64
  -4  -8 -18   53.85   86.55
  -4  -8  18   -1.59   95.62
  -4  -8 -18   35.19   29.57
   4  -8 -18   34.28   29.42
  -4   8 -18   36.25   33.63
   4   8 -18   25.15   16.29
  -1  -9 -19   41.09  133.87
  -1  -9  19   43.82   89.21
  -1   9  19   68.07   31.23
   1  -9  19   42.32   87.22
  -1  -9 -19   64.44   29.11
   5 -13 -10   20.59   15.83
  -5 -13 -10   23.98   23.34
   5  13 -10   19.57   19.77
  -5  13  10   24.38   23.86
   5 -13  10   12.67   10.41
  -5  13 -10   24.93   26.33
  -5 -13  10    7.53   73.22
  -5 -12  12    5.30   51.78
   5  12 -12    8.63   13.60
   5 -12 -12    9.60   11.42
  -5 -12 -12   10.52   20.04
  -5  12  12   11.70   19.16
  -5  12 -12   10.71   20.72
  -8  -9   9    8.34  131.09
  -8   9  -9   82.47   59.30
   8  -9   9   66.04   47.23
   8  -9  -9   78.49   53.52
  -6  14   2    6.67   15.42
   6 -14  -2    6.28   14.49
  -6 -14   2   49.00   43.31
  -6  14  -2    6.25   17.88
   6 -14   2    6.40   13.02
  -6 -14  -2    5.80   30.55
   0 -17  -1    0.10    1.69
   0  17   1    0.04    2.86
   0  17  -1    0.35    2.49
  -3 -11 -16   44.42   14.70
   3  11 -16    0.53    3.33
  -3  11  16    1.26    8.31
  -3 -11  16    1.82   25.77
  -3  11 -16    0.48    8.58
   3  11 -16    0.85    3.27
   3 -11  16    0.18   10.62
   4 -11  15   49.06   73.53
  -4 -11 -15  140.39   76.73
   4 -11 -15  119.56   44.47
  -4 -11  15   38.87  188.87
  -4  11 -15  134.09   73.86
  -4 -11 -15   62.43  123.27
   4  11 -15   97.05   42.62
  -4  11  15  134.70   72.14
  -1  -6 -21    4.50   14.85
   1   6 -21    0.39    4.43
  -1  -6  21    0.74    7.81
   1   6 -21   -1.76   15.79
  -1   6 -21   -1.79   15.41
  -1   6 -21    0.48    4.58
   1  -6  21    0.44    4.26
   0  12 -16   56.48   35.04
   0 -12 -16   25.48   89.11
   0  12  16   70.06   36.31
   2  -2  22   50.56   31.56
   2   2 -22   53.28   36.14
  -2  -2 -22   38.03  153.19
   2   2 -22   29.65   88.53
  -2   2 -22   38.02  137.69
   2  -2 -22   44.81  111.57
  -2   2 -22   50.66   27.78
   2  -2 -22   53.90   30.98
   7   1 -17   36.12   35.52
  -7  -1 -17   36.25   33.91
  -7   1 -17   35.41   30.07
   7  -1  17   36.68   31.38
  -9  -8   6    2.49   87.36
   9   8   6   40.58   37.81
  -9   8  -6   36.88   32.73
  -8   4  14  160.82   89.63
   8  -4  14  139.50   86.29
  -8  -4 -14  151.64   93.89
   3  -4  21   26.39   23.79
  -3   4  21   23.71   17.04
  -3   4 -21    2.92   93.92
  -3  -4 -21    4.57  103.64
   3   4 -21   23.56   23.38
  -3   4 -21   25.07   20.37
   3  -4 -21   23.55   19.09
   3  -4 -21  115.96   69.95
   8 -10  -7  161.60   88.60
   8 -10   7  140.43   78.38
  -8  10  -7  175.30  105.32
   5  -9 -16   80.36   41.11
  -5   9 -16   91.56   59.92
   5   9 -16   67.87   36.95
  -5  -9 -16   85.89   58.84
  -9  -4 -11    2.95   11.61
   9  -4  11    2.19   10.14
  -8   0 -15    0.20    3.90
 -10  -3  -7   68.19   44.06
  -5 -15   2   26.93  106.95
  -5  15   2  122.45   53.05
  -5 -15  -2   24.87   75.11
   5 -15   2   98.30   49.37
  -5  15  -2  131.80   65.15
   5 -15  -2  111.82   57.76
   2 -13  14    0.53    6.71
  -2 -13 -14   -0.32   10.16
  -2 -13 -14    1.45    6.62
  -2 -13  14   -0.41   16.71
  -2  13  14    1.06    6.08
  -2  13 -14   -1.65   16.71
  -9  -7  -8    0.15    2.42
   9  -7   8   -0.11    3.03
   9   7   8    0.66    3.68
  -9  -7   8   -0.13    6.35
 -10  -1  -8    2.54    9.44
   5   0 -20    6.66   13.12
   5   0 -20    8.61   12.15
  -5   0 -20    4.89   42.86
   5   0  20    8.13   11.97
  -5   0 -20    6.34    6.54
   0  17   2    0.08    2.31
   0 -17  -2    0.05    1.52
   0  17  -2    0.08    1.74
  -7 -11   9   21.98  167.93
   7 -11  -9  105.43   60.56
   7  11   9  101.79   51.54
   7 -11   9   87.45   49.75
  -7  11   9  110.27   54.37
  -9  -2 -12    1.91    9.96
  -9   2 -12    1.78    8.82
  -8   1 -15    7.40   16.14
   8   1  15    7.29   14.63
  -8  -1 -15    7.39   17.49
  -9   9   3   22.13   26.79
  -9   9  -3   23.97   29.65
  -1 -17   0    0.50    3.45
   1  17   0    0.08    1.72
   1 -17   0   -0.17    1.07
  -1  17   0    0.45    1.94
   5  10 -15    0.04    2.64
  -5  10 -15    0.04    4.46
   5 -10 -15    0.37    2.57
  -5 -10  15   -0.38   14.12
  -5 -10 -15    0.57    4.37
  -5  10  15    0.47    4.31
  -4 -13 -12    0.08    4.82
  -4  13 -12    0.50    4.52
  -4 -13  12   21.88   17.57
   4  13 -12    0.13    2.70
  -4  13  12   -0.07    4.76
  -4 -13 -12   -0.01    4.22
   0   4 -22    0.27    3.70
   0  -4  22    0.53    5.97
   0  -4 -22   -0.17   15.55
   0   4 -22    0.75   12.26
   4   0  21    6.50    8.72
   4   0 -21    0.05    6.21
   4   0 -21   12.48   13.53
  -4   0 -21   -0.13   58.61
   6  -4  18   25.07   17.94
   6   4  18   35.21   24.08
  -6   4 -18   20.87   79.42
   6  -4 -18   39.61   30.87
  -6  -4 -18   39.42   31.22
  -6   4  18   41.48   34.99
   6   4 -18   35.42   26.93
   0  -8 -20    1.60   27.87
   0   8 -20    2.64    8.33
   0  -8  20    0.11   17.84
   0   8 -20    0.63   27.50
  -6   6 -17   54.10  142.97
  -6   6 -17  228.46   60.04
   6   6 -17   88.66   48.37
  -6  -6 -17  108.39   66.64
   6  -6 -17  104.51   54.66
   6  -6  17   62.87   32.81
   6   6  17   97.12   44.62
  -5   8  17  132.37   72.80
   5   8  17  113.89   40.57
   5  -8 -17  121.96   54.35
  -5  -8  17   27.84  175.21
   5   8 -17  102.27   46.44
  -5   8 -17  128.89   71.14
  -1  17   1    8.63   12.20
  -1  17  -1    6.41    9.42
  -1 -17   1    2.37   25.09
   1 -17   1    6.06    7.26
   1 -17  -1    7.17    9.31
   1  17   1    8.34   13.94
   1  17  -1    7.42   12.33
  -1 -17  -1    2.23   25.98
  -2  15  10   10.22   10.37
   2  15 -10    2.00    4.32
  -2 -15 -10    0.04   12.13
  -2  15 -10    0.96    5.28
  -2 -15  10    0.72    9.99
  -2 -15 -10    0.85    8.35
  -2  15 -10   -0.23   25.32
   2  15  10    1.26    8.01
   2 -15 -10    1.03    8.35
   6 -12 -10   11.04   14.98
  -6  12 -10   13.71   22.22
  -6 -12  10    3.22   56.96
   6  12 -10   10.78   16.42
  -6  12  10   12.67   16.66
   6 -12  10    8.49   10.75
   6  12  10   13.79   11.70
  -6 -12 -10   10.97   16.36
  -5  -1 -20    2.58    4.76
   5   1 -20    2.01    7.17
  -5   1 -20   11.64   27.44
   5  -1 -20    2.82    8.47
   5  -1  20    1.88    7.75
  -5   1  20    2.71    7.73
  -5  -1 -20    0.66   26.08
   0  14  13   17.49   28.96
   0 -14 -13   17.45   19.98
   0  14 -13   11.15   10.22
   0 -14 -13    4.37   50.46
   1  12  16   27.85   15.91
  -1 -12 -16   31.34   27.69
   1  12 -16    4.99   55.16
   1  12 -16   22.45   17.07
   1 -12  16   11.36   46.39
  -1  12  16   30.52   24.65
   1 -12 -16   31.86   22.57
  -1 -12 -16   14.11   56.22
  -1 -12  16   13.74   54.79
  -8 -11   4   10.24   98.37
   8  11   4   43.84   40.68
  -8  11   4   41.81   37.82
   8 -11   4   38.25   34.47
  -6  14   3   23.69   24.72
   6 -14   3   17.30   20.68
  -6  14  -3   24.88   29.97
   6  14   3   22.41   21.37
   0 -16   8  231.36  327.10
   0  16   8  806.23  266.34
   0 -16  -8  197.05  277.33
   0 -16  -8  737.16  236.08
   3  -8 -19   36.90   18.69
  -3   8  19   40.75   29.69
  -3  -8 -19   39.47   26.20
   3  -8  19   35.78   30.49
  -3  -8 -19   78.85  109.52
  -3   8 -19   40.45   36.85
  -3   8 -19   11.13  138.78
   4   1 -21   93.85   52.66
   4  -1 -21   92.86   50.30
  -4  -1 -21   77.58  187.42
  -4   1 -21   70.25  176.56
   4   1 -21   86.08   36.11
   4   1  21   93.71   44.92
   7   2 -17  211.84   99.49
  -7   2 -17  201.67   89.69
   7   2  17  206.78   92.83
  -7   2  17  224.64  109.48
  -7  -2 -17  216.13  128.23
  -3 -16  -5    1.95   14.56
  -3  16  -5    8.75    8.81
   3 -16  -5    9.65   14.13
   3 -16   5    6.18    6.17
  -3 -16   5    2.13   26.57
  -3 -16  -5    8.96    8.73
  -3  16   5   12.28   14.10
   3  16  -5    8.18   12.22
  -7 -10  11    0.00   45.83
   7  10 -11    5.68   12.32
  -7  10 -11    5.97   17.02
   7  10  11    6.21   11.14
   7 -10  11    4.32    9.79
  -7 -10 -11   19.56   20.90
  -7  10  11    5.10   13.51
   7 -10 -11    7.02   13.92
   7 -13   0   -0.26    3.09
  -7 -13   0    0.51    8.86
  -7  13   0   -0.20    3.99
   8  -7  12   34.39   35.13
   8   7  12   43.84   35.88
  -8  -7 -12   43.48   42.89
  -8   7  12   46.51   38.54
   4  -5  20    2.94    9.42
  -4   5 -20   28.44   40.48
  -4  -5 -20   -0.01   36.36
  -4   5 -20    4.21    7.75
   4  -5 -20    4.22    8.41
  -4   5  20    2.58    8.74
  -4  -5 -20    3.54    6.78
   4   5  20    3.15    4.42
  -4  15  -7   89.95   49.93
   4 -15   7   55.09   25.04
  -4 -15  -7   78.22   36.34
  -4  15   7   90.84   47.37
   4  15  -7   69.30   38.59
  -4 -15   7   19.24  110.90
  -5  15  -3    0.20    4.83
  -5  15   3    1.36    3.55
   5 -15   3    0.33    3.25
  -5 -15   3   -0.12   10.41
   5  15   3    0.39    2.71
   5 -15  -3    0.15    4.42
  -4 -14  10    1.85   49.04
  -4  14  10   12.24   18.27
   4  14  10    9.68    9.83
   4  14 -10    7.74   12.21
  -4  14 -10    9.57   16.87
   1 -17  -2   57.00   31.28
   1  17   2   61.46   41.24
  -1 -17   2   16.05   63.21
  -1 -17  -2   49.17   23.25
  -1 -17  -2   17.37   68.36
  -1  17   2   65.57   38.57
   1  17  -2   54.76   33.59
  -1  17  -2   52.43   26.05
  -7 -13   1    0.92   13.21
  -7  13   1    0.70    5.57
   7 -13   1    0.60    4.51
  -7  13  -1    0.10    5.47
   0 -15  11   -0.17    6.72
   0 -15 -11    0.24    3.96
   0 -15 -11   -0.40    7.05
   0  15  11    0.62    4.18
  -3  15  -9   23.24   20.73
  -3 -15  -9    7.02   32.23
  -3  15   9   28.01   30.01
   3  15  -9   20.17   17.37
   3  15   9   28.08   21.89
  -3 -15   9    6.61   60.18
 -10  -2  -8    6.61   14.09
   5  -5 -19  298.96  113.82
  -5   5 -19  179.76  457.59
  -5  -5 -19  212.64  280.71
   5   5  19  289.77   96.36
  -5   5  19  309.78  124.79
   5  -5  19  283.91  112.78
   5   5 -19  248.63  106.80
  -5   5 -19  253.42   99.47
  -2  16   7  108.05   58.33
  -2 -16   7   28.81   75.88
  -2 -16  -7   19.43   63.22
  -2 -16   7   22.54   61.29
   2 -16  -7   97.31   50.94
  -2  16  -7   64.15   25.49
  -2 -16  -7   89.83   43.06
   2  16  -7   74.09   35.20
   2 -16   7   32.08  112.18
   0 -17  -3    0.00    7.82
   0  17  -3    0.09    7.11
   0  17   3    0.36   11.10
   0 -17   3   -0.87   43.51
   0 -17  -3  134.16   27.19
  -1   4 -22   60.15  149.02
   1   4 -22   57.70  134.25
   1  -4 -22   88.21   31.70
  -1   4 -22   93.15   48.92
  -1  -4  22   46.09   63.77
   1   4 -22   90.87   51.32
   1  -4  22   93.61   46.45
   1  -4 -22  426.11  206.79
  -1  -4 -22  363.52  214.49
  -6 -11  12   11.09   86.86
  -6  11  12   35.24   31.16
  -6  11 -12    7.54   60.14
  -6 -11 -12   34.68   31.81
  -6  11 -12   37.75   35.56
   6 -11  12   22.32   16.28
   6  11  12   30.37   18.04
   6 -11 -12   32.90   24.25
  -1  -8 -20   -0.75    9.77
  -1   8 -20    0.37   10.88
   1  -8  20    0.03    5.74
  -1   8 -20    0.60    3.11
   1   8 -20   -2.18    7.99
  -8   2  15   63.32   47.12
  -8  -2 -15   64.18   52.60
   8   2  15   63.46   44.58
  -8   2 -15   61.30   46.31
   8   6  13    6.48   14.42
   8  -6  13    5.59   12.95
  -8  -6 -13    6.56   17.73
  -8   6  13    7.72   15.84
  -2  10  18    1.42    5.48
   2 -10  18    0.88   11.67
  -2  10 -18    1.21    7.06
  -2 -10 -18    0.02   20.15
  -2 -10  18   -0.81   20.52
   1  14  13   18.98   18.73
   1  14 -13    3.46   40.90
  -1  14  13   17.87   21.55
   1 -14 -13    6.61   39.59
  -1  14 -13   13.26   13.05
  -1 -14  13    4.68   50.26
   1 -14  13    3.47   35.14
  -1 -14 -13    3.99   39.27
  -2  -3 -22    3.48   67.51
   2  -3  22   11.83   13.54
   2  -3 -22    6.44   51.88
   2   3 -22    4.48   36.47
  -2   3 -22    3.39   62.96
   2   3 -22   10.33   16.00
   2  -3 -22   11.27   11.93
  -2   3 -22   10.91   12.51
  -1 -16  -8   11.97   19.36
  -1  16   8   14.84   23.95
  -1 -16   8    1.53   23.71
   1 -16  -8   11.86   20.46
  -1 -16   8    4.26   37.47
   1  16   8   14.81   22.18
   1  16  -8    8.85   13.40
   1 -16  -8   47.64   48.24
  -1 -16  -8   63.07   37.24
   1 -16   8    5.50   48.82
   3  12 -15   45.14   19.58
  -3  12 -15   19.86  102.45
  -3 -12  15   24.79  111.17
   3 -12  15   19.41   43.80
  -3 -12 -15   20.69   54.84
  -3  12  15   67.14   40.62
   7  -5  16    6.29   11.80
  -7   5  16    9.15   18.92
   7   5 -16   18.38   17.03
  -7  -5 -16    9.63   19.88
   7   5  16    8.61   14.99
   7  -5 -16    9.76   15.28
  -4  -7  19   -0.56   38.00
  -4   7  19    8.85   15.51
  -4   7 -19    1.49   64.34
  -4   7 -19    8.93   15.52
   4  -7 -19    8.42   11.30
  -4  -7 -19   30.31   44.82
   8   8  11   60.63   41.38
  -8   8 -11   55.41   36.98
  -8   8  11   59.45   39.68
  -8  -8 -11   58.12   48.44
   8  -8  11   48.82   37.77
  -8  -8  11    3.13   95.09
   8  -8 -11   58.88   41.66
  -5  -2 -20   50.24  129.68
   5   2 -20   65.79   35.10
  -5   2  20   71.30   41.56
   5  -2 -20   69.97   43.24
  -5   2 -20   41.48  127.60
   5   2  20   69.83   36.13
  -5  -2 -20   61.66   29.80
   9   9   4   69.63   53.85
  -9  -9   4   10.17  121.02
  -9   9  -4   73.11   53.67
   7 -13   2    0.35    5.07
  -7 -13  -2    1.85   13.17
  -7 -13   2   -0.79   16.29
  -7  13  -2    0.80    9.45
  -7  13   2    1.33    6.22
   2 -11 -17   24.45   13.50
   2  11 -17   22.95   16.25
   2 -11  17   10.54   43.00
  -2  11  17   28.58   24.92
  -2 -11 -17   37.66   51.59
  -2 -11 -17   31.73   35.98
  -4   2 -21   -0.15   34.41
   4   2 -21    2.91    5.01
  -4  -2 -21    0.23   37.52
   4   2 -21    4.16    9.15
   4   2  21    3.55    6.44
  -4   2  21    2.45    6.51
   4  -2  21    2.29    8.46
   4  -2 -21    3.53    8.80
   5 -14  -8   23.03   16.88
  -5  14   8   27.90   22.05
  -5 -14   8    7.36   76.42
  -5 -14  -8   25.53   19.06
   5 -14   8   17.62   12.66
  -5  14  -8   29.67   29.27
   5 -11 -14    2.47    6.07
  -5 -11 -14    3.96   11.72
  -5  11  14    2.52   10.59
  -5 -11  14    2.63   49.96
  -5  11 -14    3.43   11.01
  -5  11 -14    0.88   24.55
   5  11 -14    2.47    6.90
   7 -12   7    1.39    6.37
   7 -12  -7    2.52    8.03
  -7 -12   7   -0.48   26.94
  -7  12  -7    3.44    9.86
   7  12   7    1.37    7.02
  -4  12 -14    0.73    4.57
  -4  12 -14   -0.04   11.89
   4 -12  14    0.61    3.89
  -4 -12 -14    0.31    4.78
  -4 -12 -14    0.53    7.32
   4  12 -14    0.30    2.37
   4 -12 -14    0.26    1.66
  -4  12  14    0.33    4.69
   6 -14   4    4.48    9.10
  -6  14   4    4.92   10.91
  -6 -14   4    2.61   32.20
   6  14   4    4.68    8.86
  -6  14  -4    4.03   13.95
  -9  -3 -12  121.39   80.24
  -1 -15  11   13.88   71.20
   1 -15 -11   42.93   32.65
  -1 -15  11   11.81   49.05
   1  15  11   46.37   33.89
  -1 -15 -11   10.70   54.14
  -1 -15 -11   41.19   33.57
  -1  15  11   46.70   38.03
  -1  15 -11   29.01   16.54
   1 -15 -11   24.59   71.84
   4 -16   0   74.31   41.13
  -4  16   0   80.84   34.87
   4  16   0   86.91   52.02
  -1 -17  -3   16.64   66.52
   1 -17  -3   17.97   88.95
  -1 -17   3   95.27   66.41
   1  17  -3   48.54   29.91
  -1  17  -3   44.02   27.41
   1 -17  -3   54.13   31.81
  -1  17   3   61.39   40.21
   1  17   3   54.78   40.80
  -1 -17  -3   49.58   24.61
   1 -17   3   24.63   99.72
   6 -13   8   22.81   18.45
  -6  13   8   31.25   20.81
   6  13  -8   28.12   26.73
   6 -13  -8   31.13   23.80
  -6 -13   8   11.10   89.19
   6  13   8   28.22   17.88
  -6 -13  -8   27.55   17.94
  -2  -9 -19    4.96    8.48
  -2  -9 -19    3.08   38.01
  -2   9 -19    4.47   12.60
  -2   9  19    4.38    8.88
   2  -9  19    4.98   10.79
  -6   0 -19    0.30    2.74
   6   0 -19    0.54    4.06
  -5   7 -18   21.85   24.13
   5   7 -18   51.63   22.51
  -5  -7 -18   22.72   27.43
  -5  -7  18   -0.64   64.68
  -5  -7 -18   88.52   66.45
  -5   7  18   23.78   29.17
   5   7  18   20.01   14.17
   5  -7 -18   21.96   21.97
  -5   7 -18    6.48   93.50
  -4  16   1    2.66    4.70
  -4 -16   1    0.16   11.17
   4 -16   1    1.55    6.17
  -4  16  -1    3.80    5.42
   4 -16  -1    2.15    7.03
   0 -13 -15   -0.77   12.17
   0 -13  15   -0.20   13.53
   0 -13 -15   -0.14    4.92
   0  13  15    0.53    4.73
   0  13 -15    1.52    3.43
   0  13 -15   -0.65   13.41
  -9  -8   7    5.11  123.64
  -9   8  -7  103.89   55.15
   9   8   7  131.34   71.73
   9  -8   7  103.84   61.36
  -2   6 -21   -0.01   37.99
   2  -6  21    2.96    9.34
  -2   6  21    3.05    4.62
  -2  -6 -21   17.96   34.57
   2  -6 -21    3.54    4.56
   2   6 -21    1.23   19.74
   2   6 -21    4.10    9.14
  -2  -6  21    1.39   14.98
 -10  -4  -7    0.49    3.17
   5  15   4   20.88   13.03
  -5 -15   4    6.75   55.96
   5 -15  -4   26.31   23.94
  -5  15   4   27.38   18.13
  -5  15  -4   29.19   25.55
   5 -15   4   18.93   16.89
  -8 -11   5   18.81  142.04
  -8  11  -5  103.59   70.45
   8 -11   5   88.95   56.21
  -8  11   5   99.49   60.22
   8  11   5  100.51   61.43
   7   3 -17   29.85   29.45
  -7   3  17   31.23   32.36
   7   3  17   28.32   25.85
  -7  -3 -17   30.07   31.85
   6   1 -19   21.43   27.05
   6   1  19  129.87   32.44
  -6   1  19   22.40   29.37
  -6   1 -19   54.74   57.07
  -6   1 -19   17.01   17.81
  -6  -1 -19   18.45   21.59
   0 -17  -4    0.93   20.65
   0 -17   4   -1.58   24.89
   0  17  -4    0.05    5.25
   0  17   4   43.07   16.11
   0 -17  -4    0.41    7.10
  -9  -6 -10   42.10   54.52
   9   6  10   49.42   41.69
   7  13   3    0.05    3.76
  -7  13   3    0.83    3.96
  -7 -13   3   -1.93   11.49
   7 -13   3    0.21    3.30
   3   0 -22    3.25    7.04
   3   0  22    1.54    5.34
  -3   0 -22   -0.74   35.49
  -8 -10   8   34.55  189.13
  -8  10  -8  205.03  104.14
   8  10   8  194.57   85.72
   8 -10  -8  195.36   89.95
  -8 -10  -8  144.49   55.77
   8 -10   8  167.51   79.03
   4 -16  -2   28.77   24.06
  -4 -16   2    3.24   40.65
   4 -16   2   55.32   25.08
  -4  16   2   28.50   15.45
   4  16  -2   34.86   31.24
  -4  16  -2   31.13   26.80
   8   5  14   72.98   61.54
   8  -5  14   66.59   45.75
  -8   5  14   79.83   55.50
  -8  -5 -14   72.61   57.89
 -10  -3  -8   86.37   53.93
  -3   5 -21   15.18   17.32
   3  -5 -21   17.09   13.95
   3  -5  21   17.48   19.63
  -3  -5 -21   54.80   86.22
   3  -5 -21   43.90   53.46
  -3   5 -21    1.90   85.13
  -3   5  21   16.80   13.29
  -2 -17   0    2.63    7.62
   2 -17   0    0.74    3.32
  -2  17   0    0.32    3.36
   2  17   0    1.36    5.21
  -3  16   6    0.49    5.33
   3 -16   6    0.89   15.33
   3 -16  -6    0.88    4.98
  -3 -16   6    0.88    9.95
  -3  16  -6    0.71    3.08
   3  16  -6    0.74    4.06
  -3 -16  -6    0.69    3.28
   9  -5  11   33.16   36.78
   9   5  11   37.86   35.30
   8   3  15  141.08   71.13
  -8   3  15  137.91   79.13
  -8  -3 -15  133.28  106.84
  -3   1 -22   -0.12   15.35
   3  -1  22   -0.01    2.78
   3   1  22    0.14    2.12
  -3  -1 -22   25.95   18.11
   3   1 -22   -0.08    3.43
   3  -1 -22    0.82    3.26
  -3  -7  20    5.94   67.03
  -3   7 -20   33.80   28.48
  -3   7  20   32.26   22.41
  -3  -7 -20  126.88   95.10
   3  -7  20   29.25   26.56
  -3  -7 -20   29.42   18.68
   3  -7 -20   29.47   16.13
  -3   7 -20   12.69  118.60
  -1  13  15   37.98   28.85
  -1 -13 -15    9.12   56.71
  -1  13 -15   13.56   76.93
  -1  13 -15   31.19   23.62
   1  13  15   38.72   22.12
   1  13 -15   12.18   56.10
   1  13 -15   27.00   16.24
   1 -13 -15   34.59   24.94
  -2 -17  -1   24.84   57.61
   2  17   1   78.67   44.20
  -2 -17   1   18.70   50.70
  -2  17  -1   63.55   25.54
   2 -17  -1   66.77   31.91
  -2  17   1   76.19   33.79
   2 -17   1   59.57   26.94
   7  -8  14    9.10   15.55
   7   8  14   12.40   14.20
  -7   8 -14   12.61   20.94
  -7  -8 -14   11.76   21.60
  -7   8  14   13.29   20.67
  -7  -8  14    0.62   40.05
   7   8 -14   10.73   15.81
   2 -12 -16    1.41    5.08
  -2 -12  16    1.97   26.21
  -2 -12 -16    0.45   15.19
   2  12 -16    2.32    3.77
  -2  12 -16    1.74    7.85
  -2  12  16    2.37    7.86
   0   7 -21   -0.60    7.48
   0   7 -21    0.12    2.22
   0  -7  21    0.06    4.30
  -8  -9  10    2.06   78.64
  -8   9 -10   33.96   30.10
  -8   9  10   28.45   21.10
   8   9  10   33.31   29.15
   8  -9  10   26.29   25.65
   8  -9 -10   36.31   32.13
  -5  -3 -20    7.93   43.26
   5   3  20    8.80   10.54
  -5  -3 -20    7.73    9.76
  -5   3  20    8.67   13.20
   5  -3 -20    9.42   13.91
  -5   3 -20    4.58   44.84
   5   3 -20    7.46   10.18
  -6  -9 -15   59.63   47.90
  -6  -9  15   10.61  103.40
  -6   9 -15   61.74   44.03
   6   9 -15   47.44   31.65
   6  -9 -15   56.45   34.26
   6   9  15   53.72   25.71
  -6   9  15   61.62   45.30
  -9  -7  -9   13.13   17.08
   9  -7   9   14.43   21.96
   9   7   9   18.28   22.94
   9   9   5   90.27   62.13
  -9  -9   5   12.70  118.75
  -9   9  -5   75.13   52.30
   1  17  -4    6.09    8.95
  -1 -17   4    1.74   20.04
   1  17   4    6.98   13.84
   1 -17  -4    6.90   11.08
  -1 -17  -4    1.70   31.40
   1 -17   4    2.85   36.48
  -1  17   4    8.33   13.89
  -1 -17  -4    5.60    8.66
   0   5 -22    1.28   10.68
   0   5 -22    0.25    3.46
   0  -5  22    0.09    5.73
 -10  -1  -9  101.36   65.11
  -4   3  21  204.17   74.83
  -4  -3 -21  169.76  262.83
   4  -3 -21  207.27   81.46
   4   3  21  202.19   67.91
  -4   3 -21  138.75  256.20
   4   3 -21  171.35   53.67
   4  -3  21  210.55  101.86
  -3 -14 -12    6.75   32.63
   3  14  12   24.28   15.08
   3  14 -12   18.05   13.70
  -3  14 -12   21.57   22.12
  -3 -14 -12   25.26   26.87
  -3  14 -12    5.99   71.59
  -3  14  12   26.80   27.56
  -6  -5 -18    4.52   11.54
  -6   5 -18    0.44   26.96
   6   5  18    3.27    7.35
   6   5 -18    3.29   12.08
  -6   5  18    5.61   11.53
   6   2  19    1.60    8.92
   6   2 -19    3.85    7.11
  -6  -2 -19    1.61    6.41
   6  -2  19    2.12    7.36
  -6   2  19    1.82    8.17
  -6   2 -19    1.57    4.05
   6  -2 -19    2.42    7.61
  -6   2 -19    0.63   19.89
   6   8  16   18.87   13.98
   6  -8 -16   20.35   19.76
  -6   8  16   22.73   25.62
  -6  -8 -16   20.84   26.67
   6   8 -16   16.51   17.88
  -6   8 -16   20.53   21.36
  -6  -8  16    2.28   49.30
  -5 -13 -11    0.77    4.36
  -5  13 -11    1.27    4.83
  -5  13  11    0.76    4.46
   5  13 -11    0.50    3.42
  -5 -13  11   -0.58   13.57
   5 -13 -11   -0.12    2.68
   0   0 -23    0.26   11.04
   0   0 -23    0.16    1.86
  -2 -17  -2   15.59   45.57
   2 -17   2   47.26   20.66
   2  17   2   68.95   40.21
  -2  17   2   69.93   33.21
   2  17  -2   64.15   34.73
   2 -17  -2   64.32   33.65
  -2 -17   2   15.64   43.36
   7  -7 -15    0.02    3.19
   7   7 -15    0.24    2.96
   7   7  15    0.53    2.74
   7  -7  15   -0.13    2.07
  -7   7  15    0.42    3.75
  -7  -7 -15    0.76    4.00
   7   9 -13   65.72   41.24
   7   9  13   76.56   38.54
   7  -9 -13   78.98   44.30
   7  -9  13   55.57   32.55
  -7   9 -13   80.60   65.72
  -7   9  13   82.81   51.46
  -7  -9  13   17.67  122.76
  -7  -9 -13   79.62   53.58
   6  14   5  158.07   61.42
  -6  14   5  183.23   72.94
   6 -14   5  139.27   62.56
  -6  14  -5  192.06   91.09
  -6 -14   5   39.28  176.14
  -9   0 -13    0.10    3.03
   4 -16   3   12.12    8.11
  -4 -16   3    0.91   18.77
   4  16  -3    3.63   11.52
  -4  16  -3    2.45    8.10
   4 -16  -3    1.67   10.42
  -2  -4 -22   78.87  167.23
   2  -4  22   63.58   37.09
   2   4 -22   59.74   40.75
  -2   4 -22   41.71  144.79
   2  -4 -22  275.79  147.51
   2  -4 -22   61.32   28.17
  -2   8  20   38.94   21.74
  -2  -8 -20   95.89  112.37
  -2  -8 -20   34.79   17.71
  -2   8 -20   40.84   34.26
  -2   8 -20   23.26  123.95
   2  -8  20   37.65   30.12
  -4  15   8  158.99   71.19
  -4 -15  -8  141.38   69.75
  -4  15  -8  141.02   64.41
   4  15  -8  116.04   54.07
  -4 -15   8   37.29  149.51
   0 -16   9   -0.02   12.28
   0 -16  -9    0.98    5.71
   0 -16  -9   -1.14   10.76
   0  16   9    1.46    6.57
   7  11  10   26.43   21.48
   7  11 -10   26.07   25.11
   7 -11  10   22.08   19.32
  -7  11  10   28.63   21.97
  -7  11 -10   30.17   32.98
  -7 -11  10   10.69   79.44
   7 -11 -10   27.54   25.63
   0   1 -23    0.20   94.46
   0  -1 -23   93.11  115.81
  -7 -13   4    1.44   22.79
  -7  13  -4    2.56    9.38
   7  13   4    2.21    7.38
  -7  13   4    2.18    8.29
   7 -13   4    1.15    6.67
   2 -14  13   -0.27    3.78
   2  14  13   -0.02    1.89
  -2 -14  13    0.11    8.23
  -2  14 -13    0.27    2.15
  -2 -14 -13   -0.41    4.97
  -2  14  13    0.64    3.13
  -3   2 -22  125.10  230.43
   3  -2 -22  158.38   63.02
   3   2 -22  162.30   70.20
  -3  -2 -22  140.23  252.45
   2  16  -8    1.75    3.73
  -2 -16  -8    1.33    5.48
  -2 -16   8   -7.27   11.78
  -2  16   8    1.11    7.74
   2 -16  -8    1.28    6.52
   2  16   8    2.35    6.57
  -2 -16  -8    0.41    8.94
   2 -16   8    1.35   15.31
  -2  16  -8    0.92    2.60
   5 -15   5  100.00   44.15
  -5 -15   5   38.70  204.96
  -5  15  -5  141.93   65.56
   5 -15  -5  143.09   65.45
   5  15  -5  128.44   63.46
   5 -15  -5  117.54   48.34
  -9   1 -13    2.03    9.25
  -9  -1 -13    2.12    9.78
   1   7 -21  128.71  223.18
   1   7 -21  208.28   88.92
   1  -7  21  134.07  150.57
  -1  -7 -21  773.08  317.15
  -1   7 -21  143.17  277.05
  -1   7 -21  218.44   95.25
   6  10  14   69.40   34.32
  -6  10  14   82.88   53.68
   6 -10 -14   75.18   40.48
   6  10 -14   66.46   39.03
  -6 -10 -14   86.72   56.90
  -6 -10  14   15.36  127.37
  -6  10 -14   88.44   56.76
   0  17   5    0.18    3.88
   0 -17  -5   -0.26    9.59
   0  17  -5    0.18    1.55
   0 -17   5    0.02    8.77
   0 -17  -5    0.47    2.82
   1   5 -22    6.67   11.82
  -1  -5 -22   22.19   58.80
  -1  -5  22    1.08   16.68
  -1   5 -22    7.04   11.36
   1   5 -22    3.94   29.83
  -1   5 -22    1.58   37.70
  -9  -4 -12   98.83   70.61
   9  -4  12  102.76   66.62
  -3 -13  14  207.27   34.64
  -3 -13 -14    0.26   12.68
   3  13 -14    0.55    5.53
  -3  13 -14    0.23   26.46
  -3  13 -14    0.18    8.48
  -3  13  14    0.43    9.63
   3 -13  14   -0.24    8.11
  -5  12  13   21.08   23.68
  -5  12 -13   20.12   25.78
   5 -12 -13   16.79   13.42
   5  12 -13   15.15   15.97
  -5 -12 -13   21.05   25.87
 -10  -2  -9    2.13    8.53
   8 -11  -6   14.15   20.52
  -8 -11   6    4.94   52.19
   8  11   6   14.31   21.19
   8 -11   6   11.61   16.89
  -8  11  -6   14.36   23.29
  -1   0 -23   92.26   48.10
   1   0 -23  112.64   57.91
   1   0 -23    0.15    8.49
  -2 -15 -11    1.25   13.04
  -2 -15 -11    2.64    8.79
   2  15  11    3.25    6.98
  -2  15 -11    2.06    4.94
  -2 -15  11    1.54   21.13
   2  15 -11    1.29    3.19
  -2  15  11    1.77    9.11
  -6  12 -11    4.35   11.67
   6 -12  11    0.93    6.65
   6 -12 -11    2.97    7.62
  -6 -12 -11    4.41    9.22
  -6 -12  11    0.39   30.24
   6  12 -11    4.31    8.56
  -6  12  11    4.83    9.09
   6  12  11    3.17    4.40
   2 -17  -3    0.33   19.96
  -2 -17   3    0.02    8.52
   2  17   3    2.12    8.52
   2  17  -3    2.69    6.72
  -2  17   3    4.45    7.08
  -2 -17  -3    0.49   10.41
   2 -17  -3    1.93    9.63
   2 -17   3    2.96   24.42
   4  -6 -20   13.67   13.93
  -4  -6 -20   12.97   12.89
  -4  -6 -20   56.10   61.75
  -4   6  20   13.23   15.92
  -4   6 -20    2.61   75.89
  -4   6 -20   12.96   15.15
   4  -6  20   12.76   16.27
  -1 -16   9    4.23   33.87
   1  16   9   19.65   22.01
  -1  16   9   17.48   24.18
   1 -16  -9    6.22   42.11
  -1 -16  -9    4.41   33.54
   1 -16   9    4.94   47.46
   1 -16  -9   16.52   20.83
  -1 -16  -9   16.69   19.50
  -7  12  -8   12.57   19.52
   7 -12  -8   11.03   16.22
   7 -12   8    8.33   12.91
   7  12   8   10.79   12.68
  -3  15  10   57.81   40.75
  -3  15 -10   45.77   27.80
   3  15  10   53.09   27.99
   3  15 -10   37.57   22.13
  -3 -15 -10   11.69   39.23
  -3 -15  10   25.74   78.88
   1   1 -23   31.48   88.17
   1  -1 -23   42.06   23.14
  -1   1 -23  143.66  149.92
   1  -1 -23   39.29  104.38
   1   1 -23   42.25   26.89
  -1   1 -23   40.70   20.93
  -1  -1 -23   31.95  114.64
  -7  -4 -17   76.40   51.60
   7  -4  17   57.44   33.41
  -7   4  17   78.01   51.14
   7  -4 -17   75.90   57.18
   7   4  17   74.29   40.48
   7   4 -17   69.65   43.22
  -6   7  17    9.80   25.26
  -6  -7 -17    9.47   17.35
   6   7  17    9.01    9.42
   6   7 -17    8.79   12.02
   6  -7 -17   10.07   13.64
  -6   7 -17    1.74   38.50
  -5  -6 -19   40.78   28.94
   5   6 -19   33.71   20.76
  -5   6 -19   25.12  108.56
   5   6  19   33.16   16.88
  -5   6  19   43.14   31.42
  -5  -6 -19   55.84   71.61
   5  -6 -19   41.33   27.64
  -4 -10 -17    7.07   38.23
  -4 -10 -17   13.95   18.09
  -4  10  17   14.33   18.84
  -4  10 -17   12.60   28.87
   4  10 -17    9.89    8.58
  -4 -10  17   97.29   65.59
   4 -10 -17   11.45    8.93
   0   2 -23   61.85   32.58
   0  -2 -23   53.84  136.64
   0   2 -23   43.00  116.38
  -9  10   0    0.14    3.20
   4  14 -11   37.53   24.00
  -4  14  11   52.08   37.68
  -4  14 -11   48.44   34.92
   5 -14   9    0.21    1.43
  -5  14   9    0.57    3.63
  -5  14  -9    0.51    4.67
   5 -14  -9    0.52    2.36
  -5 -14   9    0.81   13.46
   5  14  -9    0.57    3.96
  -5 -14  -9    0.98    3.24
   0  11 -18    0.10    2.10
   0 -11 -18    0.09    2.35
   0 -11  18   -1.22    5.03
   0 -11 -18   -1.00    5.53
   0 -10  19    2.40   22.94
   0 -10 -19    4.11   38.38
   0  10 -19    5.08   10.13
  -9  -2 -13    4.21   13.00
  -4 -16   4    2.64   27.68
   4 -16   4    9.86    9.17
  -4  16  -4   13.47   11.86
   4  16  -4   12.93   15.71
   4 -16  -4   13.61   15.62
   1 -17  -5  146.66   59.43
  -1  17   5  162.36   72.47
  -1 -17  -5  136.60   62.47
   1  17  -5  114.68   43.90
  -1 -17  -5   61.40   93.33
  -1 -17   5   34.49   78.96
   1  17   5  148.56   85.44
   1 -17   5   53.24  141.36
   1 -17  -5   47.32  124.04
  -4 -13  13    0.14   43.06
  -4  13 -13    1.93   12.88
   4  13 -13    2.10    7.16
  -4  13  13    2.47   13.60
  -4 -13 -13   26.56   14.55
   9  -8   8    1.96    7.93
   9   8   8    3.26    9.54
  -9  -8   8    0.35   16.91
   6   3 -19    0.84    3.66
   6  -3  19    0.17    4.31
  -6  -3 -19    0.27    3.77
  -6   3  19    0.64    4.56
   6  -3 -19    0.41    4.22
  -9  10   1    1.48    7.43
  -9  10  -1    1.42    7.71
 -10  -4  -8    9.80   12.38
   7   6 -16   38.98   29.49
  -7  -6 -16   44.23   37.49
   7  -6  16   31.94   21.29
  -7   6  16   47.30   36.47
   7  -6 -16   43.44   30.30
  -4  -9 -18   14.39   17.10
   4   9 -18    8.77    7.48
   4  -9 -18   13.36   10.11
  -4   9 -18   14.16   19.58
  -4  -9  18   57.29   59.28
  -4  -9 -18    8.55   41.08
  -4   9  18   14.43   17.94
   7  10 -12  107.29   72.55
   7  10  12  123.12   51.38
   7 -10  12   93.00   45.94
  -7 -10 -12  166.36   75.46
   7 -10 -12  127.74   60.91
  -7  10  12  131.52   64.63
  -7  10 -12  136.24   74.23
  -7 -10  12   28.44  165.11
  -8  12   0   56.62   43.21
  -8 -12   0   11.16   94.68
  -6 -13   9   -0.76   11.04
  -6 -13  -9    0.20    2.22
  -6  13  -9    0.05    3.98
  -6  13   9    0.31    2.44
   6  13  -9    0.37    3.13
   8   4 -15    1.37   10.65
   8   4  15   12.50   11.90
  -8   4  15    1.51   12.44
  -8  -4 -15    2.40   12.88
  -3  16   7    6.42   11.44
  -3 -16   7    1.77   21.52
  -3 -16  -7    3.70    7.97
   3 -16  -7    3.52   15.76
   3 -16   7    2.78   31.29
   3  16  -7    4.54    8.10
  -3  16  -7    4.85    6.59
   8  12   1  129.99   76.88
  -8  12   1  123.33   73.68
  -8  12  -1  124.49   74.19
  -9  -9   6    1.95   71.27
   9  -9   6   29.46   27.69
  -9   9  -6   33.09   28.15
   9   9   6   36.76   33.31
   0 -15 -12   -0.71    3.56
   0 -15 -12    0.19    1.98
   0 -15  12   -0.03    3.49
   0  15  12    0.13    2.07
  -5   4 -20    5.07   52.95
  -5  -4 -20   12.16   13.18
   5   4 -20   20.14   17.23
  -5   4  20   14.56   16.85
   5  -4 -20   13.97   17.34
  -5  -4 -20   13.35   47.77
   5   4  20   12.66   11.66
   2 -13  15   78.21  102.27
  -2 -13 -15  281.19  109.30
  -2 -13  15   59.92  211.56
  -2  13  15  266.59   99.04
  -2  13 -15  103.73  213.92
  -2  13 -15  231.41   88.59
   2 -13 -15  275.81   87.14
  -2 -13 -15   84.99  137.37
  -3  10  18   30.97   25.03
  -3  10 -18   31.83   30.44
  -3 -10 -18   17.38   70.55
  -3 -10 -18   31.96   25.66
  -3 -10  18    5.44   86.24
   3 -10  18   12.50   40.92
  -4  11  16  101.35   53.79
  -4 -11  16   33.69  153.66
  -4 -11 -16  105.46   56.83
   4 -11  16   65.70   66.33
   4  11 -16   67.76   28.09
  -4  11 -16  103.76   57.29
  -4 -11 -16   44.51   84.70
  -7  13   5   24.78   23.76
   7  13   5   22.38   20.41
   7 -13   5   17.79   19.39
  -7  13  -5   23.39   27.49
  -3  -3 -22    2.03   63.49
   3  -3  22   11.55   13.54
   3   3 -22   10.52   14.34
  -3   3 -22    0.21   57.32
   3  -3 -22   10.68   11.99
   8   7  13   12.38   17.64
  -8  -7 -13   11.47   21.72
  -8   7  13   11.78   17.87
   8  -7 -13   13.77   18.93
   0 -14 -14  147.12   69.13
   0  14  14  157.81   68.03
   0 -14  14   27.63  130.39
   0  14 -14  153.78   48.40
   0 -14 -14   45.83  115.04
   9  10   2   39.41   37.84
  -9  10   2   34.05   32.81
  -9  10  -2   36.42   34.95
  -4   4  21    6.41   11.93
  -4   4 -21    1.48   58.01
   4  -4 -21    6.95   13.73
  -4  -4 -21    0.96   58.01
   4  -4  21   29.83   17.12
   6  14  -6   78.84   59.18
  -6  14  -6   95.10   55.39
   6  14   6   76.02   31.41
   6 -14   6   69.89   36.01
   1  -2 -23    0.69   19.94
  -1  -2 -23    0.92   22.24
   1   2 -23    0.06   15.72
  -1   2 -23    0.23   19.44
  -1   2 -23    1.23    3.92
   1   2 -23    1.51    7.00
   1  -2 -23    1.01    3.32
  -1  11 -18    0.01    9.97
  -1  11  18    0.32    7.32
  -1 -11 -18    0.07    7.76
  -1 -11  18    1.06   22.54
  -1 -11 -18  365.03   36.43
   1  11 -18    0.07    7.13
  -8   0 -16    1.86    8.01
  -1 -10 -19   50.13   22.84
  -1  10 -19   51.14   36.72
   1 -10  19   29.96   65.93
  -1  10  19   51.14   23.09
  -1 -10 -19   34.13  110.46
   2 -17   4    7.14   48.88
   2  17   4   14.01   17.71
  -2  17   4   14.37   16.25
   2  17  -4   11.04   12.95
   2 -17  -4    4.06   39.61
  -2 -17  -4    2.41   20.76
   2 -17  -4   13.76   15.56
   8  -8 -12  141.62   70.18
   8   8  12  144.25   70.19
  -8  -8 -12  177.67   91.19
  -8   8  12  139.44   69.42
   8 -10  -9   56.49   40.46
  -8 -10   9    8.88   92.57
  -8  10  -9   56.37   41.53
   8  10   9   54.64   36.47
   8 -10   9   45.02   33.06
  -3 -11 -17   -5.04   17.38
  -3 -11 -17    1.83    6.37
  -3  11  17    1.65    6.26
  -3 -11  17    3.68   21.77
  -3  11 -17    1.17    7.07
   3 -11  17    0.45    9.29
  -6 -11 -13   91.91   55.25
  -6  11  13   93.41   52.51
   6 -11 -13   87.17   40.98
   6  11 -13   73.21   41.60
  -6  11 -13   30.21   85.26
  -6  11 -13  100.98   60.65
  -6 -11  13   19.47  129.08
   8  12   2   19.92   24.87
   8 -12   2   16.87   20.38
  -8  12  -2   18.11   24.97
  -8  12   2   17.85   24.41
  -8 -12   2    3.64   59.67
   0  12  17  147.30   51.30
   0 -12 -17  139.35   54.44
   0 -12 -17   57.25  122.57
   0  12 -17  123.34   54.40
 -10  -3  -9  227.07  106.01
   7   0 -18  119.62   64.56
  -7   0 -18  111.47   54.35
   0  -9 -20    2.66   13.57
   0   9 -20   -0.86   12.03
   0   9 -20    0.27    5.47
   5 -15  -6   76.58   30.83
  -5 -15   6   24.32  110.85
   5  15  -6   85.85   42.44
  -5  15  -6   96.07   47.35
   5 -15   6   64.91   28.14
  -5   9  17   84.69   51.40
  -5  -9 -17   91.86   53.61
  -5   9 -17   41.85  142.88
  -5   9 -17   87.80   52.39
   5  -9 -17   77.14   34.97
   5   9 -17   63.24   31.46
   8   1  16  125.10   61.19
  -8  -1 -16  125.64   70.69
  -8   1 -16  123.11   64.94
   5 -10 -16   40.54   22.26
  -5 -10 -16   44.62   35.64
   5  10 -16   33.48   22.33
  -5  10 -16   16.56   82.85
  -5  10  16   44.27   36.06
  -5  10 -16   47.99   37.09
  -3  -9 -19   15.12   69.30
  -3   9 -19   26.02   27.06
  -3   9  19   24.37   21.34
  -3  -9 -19   24.29   19.44
   0 -17   6    1.05    9.32
   0 -17  -6    0.24    3.35
   0  17   6    0.05    4.52
   0 -17  -6    1.20    7.55
  -1 -15  12   87.11  125.97
  -1 -15 -12   77.18  105.76
   1  15  12  128.48   57.21
  -1  15  12  123.76   62.96
  -1 -15 -12  112.83   57.74
  -1 -15  12   25.97   72.36
   1 -15 -12   30.71   99.74
  -1  15 -12   95.67   32.37
  -7  -1 -18   56.65   35.84
   7  -1  18   58.73   36.61
   7   1 -18   60.31   40.73
  -7   1 -18   52.80   31.58
   7  -1 -18   60.88   42.36
   7   1  18   57.68   36.12
   8  -6  14   41.69   30.63
  -8  -6 -14   49.57   43.21
   8   6  14   49.92   44.60
  -8   6  14   53.89   39.81
   8   6 -14   44.04   31.27
  -3  -6 -21   76.41   76.49
   3  -6 -21   16.06   10.98
   3  -6  21   17.21   19.05
  -3   6 -21    3.03   97.93
  -3   6 -21   17.20   17.85
  -3   6  21   17.27   12.92
  -1 -14 -14   66.70   36.72
   1 -14 -14   40.83   28.29
   1 -14 -14   13.07   64.95
  -1  14 -14   31.05   20.27
   1 -14  14    7.54   52.80
  -1  14  14   43.07   31.03
  -1 -14  14   12.93   75.12
   1  14 -14   14.47   54.50
   1  14  14   43.59   25.25
  -1 -14 -14   12.71   58.29
  -4   8  19    1.97    6.32
  -4   8 -19    0.44   26.53
  -4   8 -19    1.65    6.75
  -4  -8 -19    0.96   16.96
  -4  -8 -19    1.34    8.13
   4  -8 -19    1.22    4.03
  -9  -6 -11  166.03   92.27
   9   6  11  193.59   89.86
   0   3 -23   -0.40   10.49
   0   3 -23    0.36    2.80
   0  -3 -23    0.11   13.38
  -2  -7 -21  521.29  235.63
  -2   7 -21  100.37  244.58
  -2   7 -21  132.55   67.61
   2  -7  21  125.23   64.19
   9  10   3   49.53   42.77
  -9  10  -3   49.01   41.20
  -9  -3 -13  318.76  148.05
   4 -16  -5   39.26   26.22
   4  16  -5   34.39   24.16
   4 -16   5   25.02   12.99
  -4  16   5   33.57   17.23
  -4  16  -5   35.75   20.17
  -4 -16   5    8.74   45.69
  -2   5 -22    8.64   97.37
   2  -5  22   26.40   23.47
  -2   5 -22   26.39   22.46
  -2  -5 -22  110.25  107.12
   2  -5 -22  128.37   80.53
   2   5 -22   25.42   24.36
   1  12 -17    4.98    6.77
   1 -12 -17    5.04    7.38
  -1 -12  17    1.55   34.70
  -1  12 -17    4.78   10.07
   1 -12  17    1.15   19.39
  -1 -12 -17    5.51    9.70
   1  12 -17    0.40   21.21
  -1  12  17    7.13    9.06
  -1 -12 -17    0.85   22.83
  -8  11  -7  141.09   78.96
   8 -11  -7  134.97   69.77
   8 -11   7  119.42   62.28
   8  11   7  134.67   65.50
   9   7  10    8.55   15.47
  -9  -7 -10    6.74   12.23
  -1  -9 -20   45.35  117.15
  -1   9 -20   44.19  126.27
  -1   9 -20   72.38   39.98
  -1  -9  20   44.08   77.14
   1  -9  20   43.74   71.73
   1   9 -20   31.57   87.60
  -8  12  -3  143.20   76.49
   8  12   3  143.75   73.65
   8 -12   3  130.42   66.25
  -8  12   3  143.70   74.08
  -8 -12   3   29.26  153.95
   2   0 -23    0.16    6.64
  -2   0 -23   97.72   40.77
 -10  -1 -10  453.88  191.61
   4  15  -9    2.18    4.01
  -4 -15   9   -0.28   14.53
  -4 -15  -9    0.43    4.39
  -4  15  -9    0.34    4.77
  -4  15   9    0.25    5.19
   0  -6  22   32.21   54.15
   0   6 -22   50.66   32.92
   0   6 -22   34.86  149.72
   3  17   0    1.18    3.82
   3 -17   0    0.07    2.67
   6   6  18    5.44    7.36
   6  -6 -18    5.53   15.74
   6   6 -18    5.63    9.58
  -6   6  18    6.19   13.00
   5   8 -18    0.47    2.77
   5  -8 -18    0.50    4.67
  -5   8 -18    0.64    4.09
  -5   8 -18   -0.24   16.01
  -5   8  18    0.65    4.86
  -1 -17   6    0.43   11.75
   1 -17  -6    0.64    5.96
   1 -17   6    0.11   16.40
  -1  17   6    0.58    7.25
   1  17  -6    1.06    3.14
  -1 -17  -6    0.77    4.80
  -1 -17  -6   -0.99   11.11
   1  17   6    1.28    7.18
   1 -17  -6   21.89   14.38
  -8   2 -16    8.28   13.95
  -8  -2 -16    9.49   16.41
   8   2  16    8.85   14.29
   8   2 -16    8.16   14.80
  -8  -9  11   -0.18   24.26
  -8   9 -11    5.36    8.66
   8  -9  11    4.21    9.75
   8   9  11    5.76   11.36
   8  -9 -11    4.53   10.89
   2  16   9   41.40   27.32
   2  16  -9   24.26   13.94
  -2 -16  -9   36.13   25.15
  -2  16   9   42.25   44.21
  -2 -16   9   -7.42   44.24
   2 -16   9   12.84   62.27
   2 -16  -9   37.00   27.01
  -2 -16  -9    8.07   33.96
   3  17   1   60.55   36.61
   3  17  -1   58.46   34.22
   3 -17  -1   54.93   28.56
   3 -17   1   49.40   24.68
   9  -5  12  332.98  149.28
   9   5  12  361.80  139.48
   2  -1 -23  136.04   51.75
  -2  -1 -23  112.12  226.08
  -2   1 -23   99.05  200.12
   2   1 -23  132.40   55.57
  -5  11 -15   24.11   26.74
  -5  11 -15    3.89   58.17
  -5  11  15   23.44   24.47
   5  11 -15   18.29   15.50
  -5 -11 -15   23.87   24.66
  -5 -11  15    8.52   65.00
   5 -11 -15   21.14   13.59
  -3 -12  16   15.24  102.72
  -3 -12 -16   24.54   72.49
  -3  12  16   49.83   45.79
  -3  12 -16   46.64   34.08
  -3 -12 -16   60.05   36.37
  -3  12 -16   17.89   92.37
   3 -12  16   13.44   40.64
  -4 -12  15  135.29   49.26
  -4  12  15    5.71   13.51
  -4  12 -15    2.13   35.16
   4  12 -15    4.02    6.15
  -4 -12 -15    5.42   14.10
  -4  12 -15    5.83   13.61
  -7  -2 -18   11.41   16.04
   7   2 -18    9.99   17.12
   7   2  18   15.51   16.41
  -7   2  18   10.84   18.39
  -1   3 -23   31.55   92.85
  -1   3 -23   45.98   24.80
  -1  -3 -23   42.58  117.05
   1   3 -23   34.06   83.77
   1  -3 -23   42.97  112.31
   6   4 -19   58.25   32.70
   6   4  19   60.04   29.71
  -6  -4 -19   61.64   37.21
  -6   4  19   65.69   41.59
   6  -4 -19   63.85   37.82
   0 -16 -10    0.55    4.60
   0 -16 -10   -0.02    8.37
   0  16  10    0.56    5.18
   0 -16  10    0.90    9.16
   2  17   5   58.80   37.22
   2 -17  -5   92.05  119.04
   2 -17   5   23.04   91.84
   2  17  -5   47.59   26.19
  -2  17   5   65.92   37.08
  -2 -17  -5   13.09   40.65
   2 -17  -5   59.87   35.14
  -7 -13   6    2.72   47.43
  -7  13  -6   13.88   20.11
   7  13   6   12.90   13.29
   7 -13   6   10.45   13.09
  -7   5  17   59.43   40.99
   7   5  17   57.32   30.89
   7  -5  17   40.97   22.36
  -7  -5 -17   61.92   42.17
   7   5 -17   53.04   33.91
   7  -5 -17   58.27   33.57
   3  17  -2    0.32    3.52
   3  17   2    0.79    3.89
   3 -17   2    0.37    1.97
   3 -17  -2    0.43    3.13
  -7 -11  11   17.01  101.38
  -7  11  11   61.08   30.96
   7 -11  11   46.92   26.27
  -7  11 -11   67.73   44.52
   1  -6  22    1.24   15.58
  -1  -6 -22   13.68   28.43
  -1  -6  22    0.11   12.68
  -1   6 -22   22.93   39.22
   1   6 -22    2.38   22.75
   1   6 -22    2.92    8.27
  -9  -9   7    0.61   29.40
   9  -9   7    6.93   11.47
  -7 -12   9   58.99  218.99
   7  12  -9  228.91   89.98
   7 -12   9  221.51   79.19
  -7  12  -9  283.07  117.74
  -5  13 -12    0.76   20.29
  -5 -13  12    0.30   23.01
  -5 -13 -12    2.79    8.33
   5  13 -12    2.07    5.91
  -5  13  12    2.17    7.91
  -5  13 -12    2.06    8.74
   9  10   4  187.53   88.38
  -9  10  -4  190.90   89.57
  -9 -10   4   31.07  158.42
  -3  -4 -22   17.37   84.36
   3   4 -22   22.49   20.36
   3  -4  22   23.91   19.77
  -3   4 -22    3.00   78.95
 -10  -2 -10   13.66   19.87
   5   0 -21   -0.21    2.72
   5   0  21   -0.02    2.18
  -5   0 -21   -0.48    7.28
   5   0 -21    0.52    1.96
  -3  -8 -20   37.30   58.26
  -3  -8  20    2.09   44.74
  -3   8 -20    3.88   72.53
  -3  -8 -20   12.91   11.18
  -3   8  20   14.55   13.72
  -3   8 -20   15.22   18.62
   0 -13 -16    0.14    2.64
   0 -13  16    1.16    7.92
   0 -13 -16   -0.56    6.72
   0  13  16    0.25    2.18
   0  13 -16    0.45    6.96
   0  13 -16    0.16    1.82
  -3 -14 -13   -0.02    9.24
  -3  14  13    0.71    8.08
  -3  14 -13    0.47    6.39
  -3 -14  13   51.35   26.28
   6 -14   7   85.15   39.11
  -6  14  -7  114.82   59.54
  -6 -14   7   34.62  140.85
   6 -14  -7  119.77   48.95
   0  -8  21   23.89   54.37
   0   8 -21   20.03   84.87
   0   8 -21   39.52   29.06
  -3 -16   8   13.56   65.04
  -3  16   8   67.52   40.25
   3  16   8   65.57   34.12
   3  16  -8   47.77   25.64
  -3 -16  -8   58.40   29.53
   3 -16   8   21.26   90.12
  -3  16  -8   46.22   22.86
   3 -16  -8   66.58   39.53
  -8  12  -4    2.66    7.94
  -8  12   4    1.80    7.71
   8 -12   4    1.43    6.43
   8  12   4    1.62    7.56
  -8 -12   4   -2.30   19.44
   8   5 -15   11.02   16.09
   8   5  15   15.98   17.37
  -8   5  15   12.58   18.68
   8  -5  15    9.90   14.18
  -8  -5 -15   12.44   20.61
   2  -2  23    8.71    8.28
   2   2 -23    8.63   11.96
  -2  -2 -23    0.33   57.04
  -2   2 -23    2.21   50.37
   1  16  10   93.03   46.61
   1 -16 -10   29.39   81.24
   1 -16 -10   81.34   44.95
   1 -16  10   22.97   86.74
  -1 -16 -10   79.46   42.79
  -1 -16  10   18.75   56.15
  -1 -16 -10   19.31   64.20
  -1  16  10   91.44   51.69
   9  -8   9   21.95   21.60
  -5  -1 -21   58.05  119.80
  -5   1 -21  393.70  167.58
   5  -1 -21  102.45   50.29
   5   1 -21  103.59   51.51
   5  -1  21   98.90   46.17
   5   1 -21   94.44   38.72
   5  -1 -21  102.72   43.41
  -2  11  18   27.10   19.19
  -2 -11 -18   27.07   20.32
  -2 -11 -18   18.61   68.53
  -2  11 -18   26.01   24.16
   2  11 -18   20.10   13.31
  -2 -11  18    9.78   70.97
   2 -11  18   11.23   38.30
  -2 -10  19    1.45   30.59
  -2 -10 -19    3.15    6.26
   2 -10  19    1.12   16.48
  -2 -10 -19    4.31   29.41
  -2  10 -19    2.53    9.96
  -2  10  19    4.52    6.74
   5  -5 -20  268.22   94.45
  -5  -5 -20  255.83   86.81
  -5   5 -20  161.91  286.01
  -5   5  20  272.28  100.62
  -6  15   0   16.10   16.82
   6 -15   0   14.28   16.56
  -6 -15   0    2.40   32.58
  -4   0 -22   73.11  156.13
   4   0 -22  100.15   49.90
   4   0  22   97.48   50.63
   5  15  -7    5.03    9.48
  -5  15  -7    4.25   10.07
  -5 -15   7    1.68   28.95
  -5 -14 -10   35.69   23.74
  -5 -14  10    9.09   79.68
  -5  14  10   36.76   26.27
  -5  14 -10   35.38   30.34
   5  14 -10   29.82   22.96
  -7   8  15   79.67   47.62
   7   8  15   74.57   34.00
   7  -8 -15   73.92   41.30
   7   8 -15   65.08   38.55
  -7  -8 -15   79.49   51.70
  -3  15  11    1.62    7.38
   3  15 -11    1.49    3.17
  -3 -15 -11    1.98    6.51
  -3 -15  11   -0.35   15.72
  -3  15 -11    0.79    4.95
  -4   5  21    5.00    8.12
  -4   5 -21  122.94   58.76
  -4  -5 -21   -0.48   36.80
   4  -5 -21    4.32    8.75
   4  -5  21    4.12    9.99
   6 -15  -1    5.25   11.21
   6 -15   1    6.19   10.99
  -6  15  -1    7.78   12.05
  -6  15   1    8.11   11.30
  -6 -15   1    0.63   24.80
   7  -9  14   71.77   33.36
  -7  -9 -14  123.54   63.04
   7   9  14  107.97   50.47
   7  -9 -14  119.32   51.18
  -7   9 -14   99.41   47.08
  -7   9  14  127.06   74.23
   7   9 -14  101.30   47.58
   0 -17  -7    1.24    8.00
   0 -17   7    1.36    9.56
   0 -17  -7    0.20    3.82
   0  17   7    0.46    4.91
   3 -17  -3   81.48   42.80
   3  17   3   81.88   44.07
  -9   0 -14   42.36   36.49
  -4 -16   6    1.09   15.04
  -4  16  -6    0.84    3.55
  -8  -3 -16   54.00   42.06
   8  -3  16   50.67   34.37
   8   3  16   55.47   35.57
  -8   3  16   57.64   39.47
   8   3 -16   52.03   35.99
  -2  15 -12    2.83    7.62
  -2  15  12    3.71   13.62
   2  15  12    3.80    8.87
  -2 -15 -12   50.60   22.44
   6 -13 -10   74.90   29.81
  -6 -13  10   15.84  100.80
  -6  13  10   47.53   26.73
  -6 -13 -10   45.98   26.04
   6  13 -10   42.62   30.78
  -6  13 -10   50.64   40.28
   4   1  22   75.17   33.00
  -4   1 -22  329.57  169.78
  -4  -1 -22   59.47  140.56
   4   1 -22   81.88   44.07
   4  -1 -22   84.81   44.41
  -6 -12 -12    2.44    7.66
  -6 -12  12    0.84   24.04
  -6  12 -12    2.41    9.31
   6 -12 -12    3.26    5.67
   6  12 -12    1.88    6.59
  -6  12  12    1.44    7.46
   0  -4 -23   21.06   41.42
   0   4 -23    1.29   30.48
   0   4 -23    4.39    9.29
   1 -13 -16    0.19    2.81
  -1  13  16    0.72    3.02
  -1 -13  16   -0.16   10.20
  -1 -13 -16    0.05    3.30
  -1  13 -16   -0.25    9.43
  -1 -13 -16    0.72    7.13
   4  -7 -20    1.23    3.39
  -4   7  20    0.75    4.59
   4  -7  20    0.65    4.46
  -4  -7 -20    3.87   15.83
  -4   7 -20    0.81    4.60
  -4   7 -20    1.00   21.98
   9  -4  13   34.11   32.41
   9   4  13   38.62   30.10
  -9  -4 -13   34.32   34.79
  -1  -8  21   32.66   62.34
  -1   8 -21   31.81  114.01
  -1  -8 -21  118.51  119.54
  -1   8 -21   55.29   34.21
   1  -8  21   31.35   64.12
   2 -14 -14   36.52   24.12
  -2 -14 -14    9.56   44.86
  -2 -14  14   11.81   77.08
  -2 -14 -14   35.39   29.70
  -2  14  14   35.48   28.43
   7  -3  18    9.84   10.14
   7   3  18   15.41   15.00
   7   3 -18   15.06   16.46
  -7  -3 -18   15.10   17.15
  -7   3  18   16.23   18.88
  -5  -7 -19  528.60  174.09
   5  -7 -19  532.08  157.47
  -5   7 -19  273.51  433.63
  -5   7  19  534.47  182.04
  -9  -1 -14  234.77  109.23
  -9   1 -14  233.15  106.42
  -6   9  16   13.94   19.52
  -6   9 -16   14.46   16.52
   6  -9 -16   13.49   13.29
   6   9 -16   11.47   13.48
  -6  15   2   94.27   41.85
  -6 -15   2   25.37   86.88
  -6  15  -2   96.79   47.22
   6 -15   2   81.00   41.63
   6  15   2   73.71   33.82
  -4 -14  12   26.61  137.18
  -4  14 -12  133.92   59.79
  -4  14 -12   50.10  149.04
   4  14 -12   99.35   38.86
  -4 -14 -12  148.10   63.68
  -4  14  12  150.23   66.31
   5  -2 -21    0.52    3.56
  -5   2 -21    0.53    9.88
   5   2 -21    0.33    2.18
  -2 -12 -17   14.97   16.39
  -2 -12 -17   22.30   68.06
  -2  12  17   12.66   15.21
  -2 -12  17    2.35   53.99
  -2  12 -17   12.20   16.58
  -2   9 -20   39.35  132.81
   2  -9  20   35.41   62.81
  -2  -9  20   17.31   98.52
  -2   9 -20   67.76   38.84
  -2  -9 -20   44.88  109.51
  -5  12 -14   -0.17   24.68
  -5 -12  14    0.58   29.42
   5  12 -14    3.26    6.55
  -5  12 -14    4.89   10.78
  -5  12  14    4.64   10.14
  -5 -12 -14    3.71   10.28
   7   7 -16    5.74   10.81
   7   7  16    6.45    9.04
   7  -7 -16    6.40   11.08
  -7   7  16    7.13   13.12
   6   0 -20    6.96   11.73
  -8 -10  10    3.43   54.63
  -8  10 -10   29.99   22.85
   8 -10  10   23.80   19.87
  -5  16   0    0.16    1.76
  -1  17   7    2.31    8.98
   1 -17  -7    1.71   16.23
  -1 -17  -7    0.16   12.69
   1  17   7    3.59    8.87
   1 -17   7    1.51   19.11
  -1 -17  -7    2.13    6.23
   6  10 -15   27.92   21.51
   6 -10 -15   32.66   20.95
  -6 -10  15    8.22   66.04
  -6  10  15   36.30   29.14
  -6  10 -15   37.27   30.11
 -10  -3 -10   41.18   32.16
   9  10   5    0.53    5.56
  -9 -10   5    0.62   12.16
  -9  10  -5    0.66    4.63
   9 -10   5    0.93    4.39
   2 -17  -6    7.72   11.73
   2  17  -6    5.58    7.62
   2 -17   6    3.14   31.73
   2  17   6    7.75   13.33
   2 -17  -6    2.43   26.26
  -2  17   6    7.59   13.05
  -8 -11   8    4.80   54.08
  -8  11  -8   24.50   23.83
   8 -11   8   19.64   18.98
  -1  -4 -23   37.23   62.56
  -1   4 -23   11.81   12.50
   1   4 -23   12.02   14.09
   1  -4  23    5.70   19.44
  -1   4 -23    4.51   47.63
   1  -4 -23   46.83   54.56
   6  -8 -17  191.72   69.87
  -6   8  17  208.85  111.47
  -6  -8 -17  204.79   89.89
   6   8 -17  171.82   66.24
   5 -16   1   83.01   39.68
   5 -16  -1   87.00   41.48
  -5  16  -1   88.33   37.02
  -3  13 -15   19.35   20.54
  -3 -13  15    5.88   68.37
  -3 -13 -15    8.16   57.55
  -3 -13 -15   21.86   22.40
  -3  13 -15    4.97   61.30
  -3  13  15   21.46   21.92
   6  -1 -20  173.66   71.84
   6   1  20  159.81   62.35
   6  -1 -20  168.21   69.30
   6  -1  20  182.22   71.18
   6   1 -20  169.75   67.65
   7 -14   0   -0.09    2.72
  -7 -14   0   -0.50    7.03
  -7  14   0   -0.26    3.28
  -4   2 -22   17.33  100.25
   4  -2  22   39.41   23.87
  -4  -2 -22   31.90  138.02
   4   2 -22   39.36   27.81
   4  -2 -22   41.95   27.18
  -2  -3 -23   75.46  163.45
  -2   3 -23   62.88  148.34
   2   3 -23   91.05   53.62
   2  -3  23   87.93   36.60
  -7  10 -13   28.13   24.05
  -7 -10  13    2.12   59.36
  -7  10  13   30.21   22.88
   7  10 -13   25.33   21.84
  -7 -10 -13   30.57   25.88
   7 -10 -13   29.36   22.40
   7  10  13   23.60   15.31
  -8  12  -5  245.31  126.38
   8  12   5  245.42   93.86
  -8 -12   5   59.72  198.51
  -7  14   1  120.55   60.11
   7 -14  -1  109.30   56.09
   7 -14   1  104.67   54.94
  -7 -14   1   29.15  119.72
  -7  14  -1  119.76   62.06
   7  14   1  115.41   56.24
   3  17  -4    5.60   12.70
  -9  -2 -14  123.10   70.65
   9  -2  14  130.20   75.62
  -7 -13   7   32.50  143.62
   7 -13  -7  167.76   67.82
   7 -13   7  136.52   55.60
   7  13   7  138.23   51.13
  -7  13  -7  170.79   76.13
  -4  13  14   31.54   37.14
  -4  13 -14   28.46   25.17
  -4 -13  14   15.47   98.40
  -4  13 -14    2.85   75.00
   0 -15  13    0.38   10.61
   0  15  13    0.34    5.63
   0 -15 -13    0.01    5.86
   0 -15 -13   13.13   13.39
  -6  15   3   51.55   28.08
   6 -15   3   42.26   26.72
  -6 -15   3   11.10   66.80
  -6  15  -3   51.86   32.56
   6 -15  -3   48.46   30.26
  -5  16  -2    8.30    9.40
   5 -16   2    6.83    8.68
   5 -16  -2    8.88   11.35
  -2   6 -22   25.79   21.32
   2  -6  22   26.12   21.36
  -2  -6 -22  121.03   91.33
  -2   6 -22   10.44  141.21
   2   6 -22   22.68   19.84
   6   5  19   26.67   22.72
   6   5 -19   67.19   26.82
  -6   5  19   35.09   30.94
  -6  -5 -19   34.22   30.65
   6  -5 -19   36.10   27.77
   7  14   2  245.20   90.43
  -7  14  -2  257.67  104.55
  -7 -14   2   53.74  175.80
  -7  14   2  264.96  100.45
  -4  15  10  113.02   51.48
  -4 -15  10   18.27  108.50
  -4  15 -10   94.20   43.95
   4  15 -10   81.25   35.38
  -4 -15 -10  105.10   44.19
   8  -8 -13    1.46    5.56
   8   8  13    0.17    5.44
  -8  -8 -13    8.75    7.26
   8   8 -13    0.03    5.10
   8  -8  13    0.05    4.53
   9   9   8    0.87    5.63
   9  -9   8    0.67    4.41
  -8  -7 -14    3.53   11.82
   8  -7 -14    6.57    9.24
   8   7  14    4.19    9.33
   8   7 -14    2.07    8.95
  -8   7  14    4.82    9.34
  -3  -7 -21  993.85  346.50
   3  -7  21  200.10   81.02
  -3   7 -21  219.73   87.28
  -3   7 -21  142.16  293.46
  -2 -16 -10    8.23   35.92
   2  16  10   43.39   26.93
  -2  16  10   42.17   32.37
  -2 -16 -10   37.08   26.51
   2 -16  10   12.14   62.27
   6   2  20    1.43    5.46
   6  -2 -20    2.98    6.77
   6  -2  20    1.64    6.65
   6   2 -20    2.49    5.93
   9  -7  11  215.89  119.03
   9   7  11  243.76   97.77
   9   6  12   60.48   40.22
   9  -6  12   72.37   45.32
  -9  -6 -12   53.94   41.49
   3  -5  22   35.77   24.55
  -3   5 -22   20.75   91.73
  -3  -5 -22   73.21  109.95
  -5   3  21  102.26   44.27
   5  -3  21  121.39   61.67
   5  -3 -21  105.56   48.39
  -6  14  -8  114.34   55.23
   6  14  -8   96.70   58.92
  -6 -14   8   23.88  128.50
   6 -14  -8   94.22   36.96
  -1 -15 -13    0.70    5.97
  -1 -15  13   -1.38   13.47
   1 -15 -13    0.68    5.43
  -1  15  13    3.38    6.03
  -1  15 -13   -0.16   15.23
   1 -15 -13    0.42   12.96
  -1 -15 -13    0.21   11.35
  -6 -11  14    1.93   30.50
   6  11 -14    4.12    8.50
  -6  11  14    4.89   10.76
  -6  11 -14    5.38   12.22
   6 -11 -14    5.40    7.37
  -6 -11 -14    5.34   11.67
   0  18   0   77.43   34.67
   8   4  16  119.35   59.73
  -8   4  16  123.22   68.23
  -8  -4 -16  115.50   71.03
   8   4 -16  231.99   74.18
   0 -14  15   24.41   91.96
   0 -14 -15   44.30   93.14
   0  14 -15   42.51   92.27
   0 -14 -15  125.59   46.81
   3   0 -23    0.49    3.31
  -3   0 -23   -0.37   13.52
   4  16  -7    4.44    8.01
  -4  16  -7    4.75    6.55
  -4 -16   7   -0.15   21.08
  -5  16  -3   49.29   25.19
   5 -16  -3   55.22   30.20
   5  16  -3   52.67   31.96
   5 -16   3   41.60   21.56
   0  18   1   14.71   15.11
   0   7 -22    0.68   42.38
   0  -7  22    0.23   24.13
   0   7 -22   13.97   14.14
   7   4  18   62.66   31.90
  -7  -4 -18   62.35   51.89
   7  -4 -18   63.37   36.57
  -7   4  18   65.62   42.03
   5  15  -8    5.84    9.37
  -5 -15   8    0.27   30.51
  -5  15  -8    6.15   10.44
   6  -7 -18  224.06   78.57
  -6   7  18  224.18   90.56
   6   7 -18  194.40   71.12
  -6  -7 -18  224.40   93.02
   7  -6 -17   17.64   17.60
  -7   6  17   17.21   21.15
  -7  -6 -17   17.63   22.72
   7   6  17   18.35   14.11
   0 -16 -11    2.88   27.33
   0  16  11   16.22   18.77
   0 -16  11    3.74   28.55
   0 -16 -11   13.21   16.07
  -3 -16  -9   14.55   13.84
  -3  16   9   15.91   19.10
   3 -16   9    6.81   45.61
   3 -16  -9   17.73   19.00
   3  16  -9   13.89    9.29
   3  16   9   18.23   13.14
  -2  13 -16   33.94   23.02
  -2 -13  16   12.11   77.01
  -2 -13 -16   12.23   44.36
  -2  13  16   39.98   25.11
  -2  13 -16   13.57   70.06
  -4 -10 -18   11.08   14.61
  -4  10 -18    1.34   57.44
  -4  10 -18   11.91   16.68
   4 -10  18    1.34   23.13
  -4  10  18   11.24   15.09
  -4 -10  18   63.60   50.94
  -3   1 -23    3.20   17.15
  -3  -1 -23   -0.91   24.74
   3   1 -23    0.72    4.20
  -7  12 -10    7.51   11.25
   7  12 -10    5.59    8.97
   7 -12 -10    4.83    9.42
  -7 -12  10    1.77   41.33
   7 -12  10    3.15    5.66
  -4  -3 -22   27.43   79.40
  -4   3 -22   18.92   79.84
   4   3 -22   31.78   23.11
   4  -3  22   31.94   21.24
   8  -9  12   23.98   19.28
   8   9  12   30.97   21.86
   8  -9 -12   30.75   23.82
  -2   8 -21   26.47   24.06
  -2  -8 -21   79.54   85.28
   2  -8  21   14.42   43.70
  -2  -8  21   39.38   52.17
  -2   8 -21    6.88   93.00
   7  14   3   74.34   35.22
  -7  14  -3   81.20   45.72
  -7 -14   3   15.88   97.01
   6 -15   4    1.25    4.00
   6 -15  -4    0.83    3.58
  -6 -15   4    0.48   12.09
   0 -17  -8   -1.80    6.30
   0 -17   8   -0.13    6.48
   0  17   8   -0.05    3.71
   0 -17  -8    0.09    4.29
;
loop_
_symmetry_equiv_pos_as_xyz
x,y,z
1/2+x,1/2-y,-z
-x,1/2+y,1/2-z
1/2-x,-y,1/2+z
-x,-y,-z
1/2-x,1/2+y,z
x,1/2-y,1/2+z
1/2+x,y,1/2-z
loop_
_atom_site_label
_atom_site_type_symbol
_atom_site_fract_x
_atom_site_fract_y
_atom_site_fract_z
_atom_site_U_iso_or_equiv
_atom_site_adp_type
_atom_site_occupancy
_atom_site_calc_flag
C(1) C 0.3079(3) 0.5303(2) 0.6427(1) 0.0134(5) Uani 1.00 d
C(2) C 0.3659(3) 0.4683(2) 0.6876(1) 0.0122(5) Uani 1.00 d
C(3) C 0.4572(3) 0.4991(2) 0.7376(1) 0.0151(6) Uani 1.00 d
C(4) C 0.4881(3) 0.5890(2) 0.7424(1) 0.0180(6) Uani 1.00 d
C(5) C 0.4264(3) 0.6497(2) 0.6988(1) 0.0180(6) Uani 1.00 d
C(6) C 0.3359(3) 0.6208(2) 0.6478(1) 0.0164(6) Uani 1.00 d
N(7) N 0.2144(3) 0.5024(2) 0.5864(1) 0.0192(5) Uani 1.00 d
O(8) O 0.0901(2) 0.5262(1) 0.5886(1) 0.0285(5) Uani 1.00 d
O(9) O 0.2697(2) 0.4603(1) 0.54077(9) 0.0284(5) Uani 1.00 d
S(10) S 0.32351(7) 0.35285(4) 0.68368(3) 0.0127(2) Uani 1.00 d
O(11) O 0.3656(2) 0.3177(1) 0.74811(9) 0.0183(4) Uani 1.00 d
O(12) O 0.1777(2) 0.3466(1) 0.66313(9) 0.0174(4) Uani 1.00 d
N(13) N 0.4181(2) 0.3089(1) 0.6264(1) 0.0144(5) Uani 1.00 d
C(14) C 0.5735(3) 0.3036(2) 0.6288(1) 0.0133(5) Uani 1.00 d
C(15) C 0.6182(3) 0.2126(2) 0.6013(1) 0.0172(6) Uani 1.00 d
C(16) C 0.7781(3) 0.1993(2) 0.6056(1) 0.0220(6) Uani 1.00 d
S(17) S 0.87314(7) 0.27695(5) 0.55269(3) 0.0226(2) Uani 1.00 d
C(18) C 0.8032(3) 0.3771(2) 0.5897(1) 0.0216(6) Uani 1.00 d
C(19) C 0.6411(3) 0.3800(2) 0.5882(1) 0.0179(6) Uani 1.00 d
O(20) O 0.8019(2) 0.2704(1) 0.48466(9) 0.0244(5) Uani 1.00 d
H(3) H 0.4975 0.4591 0.7678 0.0181 Uiso 1.00 calc
H(4) H 0.5509 0.6090 0.7753 0.0216 Uiso 1.00 calc
H(5) H 0.4455 0.7102 0.7036 0.0216 Uiso 1.00 calc
H(6) H 0.2953 0.6612 0.6179 0.0196 Uiso 1.00 calc
H(13) H 0.3755 0.2868 0.5919 0.0173 Uiso 1.00 calc
H(14) H 0.6044 0.3083 0.6758 0.0160 Uiso 1.00 calc
H(15A) H 0.5709 0.1660 0.6267 0.0206 Uiso 1.00 calc
H(15B) H 0.5883 0.2076 0.5547 0.0206 Uiso 1.00 calc
H(16A) H 0.8012 0.1389 0.5920 0.0264 Uiso 1.00 calc
H(16B) H 0.8084 0.2070 0.6519 0.0264 Uiso 1.00 calc
H(18A) H 0.8353 0.3813 0.6360 0.0259 Uiso 1.00 calc
H(18B) H 0.8403 0.4283 0.5655 0.0259 Uiso 1.00 calc
H(19A) H 0.6091 0.3764 0.5418 0.0215 Uiso 1.00 calc
H(19B) H 0.6091 0.4366 0.6064 0.0215 Uiso 1.00 calc
loop_
_atom_site_aniso_label
_atom_site_aniso_U_11
_atom_site_aniso_U_22
_atom_site_aniso_U_33
_atom_site_aniso_U_12
_atom_site_aniso_U_13
_atom_site_aniso_U_23
C(1) 0.012(1) 0.017(1) 0.011(1) 0.000(1) 0.0006(10) -0.002(1)
C(2) 0.012(1) 0.010(1) 0.014(1) 0.001(1) 0.0042(10) -0.0006(10)
C(3) 0.015(2) 0.018(1) 0.013(1) 0.003(1) 0.0020(10) 0.001(1)
C(4) 0.017(2) 0.020(1) 0.017(1) -0.003(1) 0.000(1) -0.006(1)
C(5) 0.014(2) 0.014(1) 0.026(1) 0.000(1) 0.005(1) -0.003(1)
C(6) 0.016(2) 0.013(1) 0.020(1) 0.004(1) 0.003(1) 0.003(1)
N(7) 0.024(1) 0.017(1) 0.017(1) 0.000(1) -0.0038(9) 0.0035(9)
O(8) 0.018(1) 0.028(1) 0.040(1) 0.0055(9) -0.0120(9) -0.0018(10)
O(9) 0.036(1) 0.032(1) 0.018(1) 0.005(1) -0.0042(9) -0.0065(9)
S(10) 0.0145(4) 0.0113(3) 0.0122(3) -0.0006(2) 0.0024(2) 0.0004(2)
O(11) 0.026(1) 0.0155(9) 0.0130(9) 0.0011(8) 0.0034(8) 0.0039(8)
O(12) 0.012(1) 0.0148(9) 0.025(1) -0.0016(8) 0.0037(8) 0.0001(8)
N(13) 0.013(1) 0.019(1) 0.010(1) -0.0003(9) -0.0006(9) -0.0075(9)
C(14) 0.013(1) 0.018(1) 0.010(1) -0.001(1) -0.0005(10) -0.0023(10)
C(15) 0.018(2) 0.015(1) 0.018(1) 0.001(1) 0.001(1) 0.002(1)
C(16) 0.022(2) 0.026(2) 0.017(1) 0.008(1) -0.001(1) 0.001(1)
S(17) 0.0148(4) 0.0386(4) 0.0142(4) 0.0022(3) 0.0012(3) -0.0032(3)
C(18) 0.024(2) 0.028(2) 0.013(1) -0.007(1) 0.002(1) -0.004(1)
C(19) 0.021(2) 0.018(1) 0.015(1) -0.003(1) 0.004(1) -0.002(1)
O(20) 0.025(1) 0.038(1) 0.0098(10) 0.0044(10) 0.0012(8) -0.0063(8)
loop_
_atom_type_symbol
_atom_type_description
_atom_type_scat_dispersion_real
_atom_type_scat_dispersion_imag
_atom_type_scat_source
C C 0.0181 0.0091 'International Tables Vol C Tables 4.2.6.8 and 6.1.1.4'
H H 0.0000 0.0000 'International Tables Vol C Tables 4.2.6.8 and 6.1.1.4'
N N 0.0311 0.0180 'International Tables Vol C Tables 4.2.6.8 and 6.1.1.4'
O O 0.0492 0.0322 'International Tables Vol C Tables 4.2.6.8 and 6.1.1.4'
S S 0.3331 0.5567 'International Tables Vol C Tables 4.2.6.8 and 6.1.1.4'
loop_
_geom_angle_atom_site_label_1
_geom_angle_atom_site_label_2
_geom_angle_atom_site_label_3
_geom_angle
_geom_angle_publ_flag
C(2) C(1) C(6) 122.1(2) yes
C(2) C(1) N(7) 121.6(2) yes
C(6) C(1) N(7) 116.3(2) yes
C(1) C(2) C(3) 118.3(2) yes
C(1) C(2) S(10) 122.1(2) yes
C(3) C(2) S(10) 119.6(2) yes
C(2) C(3) C(4) 120.2(2) yes
C(3) C(4) C(5) 120.6(2) yes
C(4) C(5) C(6) 120.6(2) yes
C(1) C(6) C(5) 118.2(2) yes
C(1) N(7) O(8) 117.3(2) yes
C(1) N(7) O(9) 116.9(2) yes
O(8) N(7) O(9) 125.8(2) yes
C(2) S(10) O(11) 104.8(1) yes
C(2) S(10) O(12) 106.9(1) yes
C(2) S(10) N(13) 108.0(1) yes
O(11) S(10) O(12) 119.5(1) yes
O(11) S(10) N(13) 109.3(1) yes
O(12) S(10) N(13) 107.8(1) yes
S(10) N(13) C(14) 124.0(2) yes
N(13) C(14) C(15) 108.1(2) yes
N(13) C(14) C(19) 110.8(2) yes
C(15) C(14) C(19) 111.3(2) yes
C(14) C(15) C(16) 111.6(2) yes
C(15) C(16) S(17) 112.0(2) yes
C(16) S(17) C(18) 96.9(1) yes
C(16) S(17) O(20) 105.0(1) yes
C(18) S(17) O(20) 104.9(1) yes
S(17) C(18) C(19) 112.4(2) yes
C(14) C(19) C(18) 112.4(2) yes
loop_
_geom_bond_atom_site_label_1
_geom_bond_atom_site_label_2
_geom_bond_distance
_geom_bond_publ_flag
C(1) C(2) 1.399(4) yes
C(1) C(6) 1.385(4) yes
C(1) N(7) 1.483(3) yes
C(2) C(3) 1.391(4) yes
C(2) S(10) 1.777(3) yes
C(3) C(4) 1.382(4) yes
C(4) C(5) 1.383(4) yes
C(5) C(6) 1.393(4) yes
N(7) O(8) 1.224(3) yes
N(7) O(9) 1.221(3) yes
S(10) O(11) 1.439(2) yes
S(10) O(12) 1.435(2) yes
S(10) N(13) 1.588(2) yes
N(13) C(14) 1.466(3) yes
C(14) C(15) 1.528(4) yes
C(14) C(19) 1.538(4) yes
C(15) C(16) 1.520(4) yes
C(16) S(17) 1.804(3) yes
S(17) C(18) 1.796(3) yes
S(17) O(20) 1.511(2) yes
C(18) C(19) 1.527(4) yes
loop_
_geom_contact_atom_site_label_1
_geom_contact_atom_site_label_2
_geom_contact_distance
_geom_contact_site_symmetry_2
C(5) O(12) 3.189(3) 6_555
C(5) O(11) 3.359(3) 3_656
C(5) C(16) 3.423(4) 6_655
C(6) O(20) 3.355(3) 5_666
C(6) O(12) 3.399(3) 6_555
O(8) C(15) 3.422(3) 6_555
O(8) C(18) 3.504(3) 1_455
O(8) O(20) 3.528(3) 5_666
O(9) O(20) 3.507(3) 2_456
O(11) C(18) 3.393(3) 8_456
O(11) O(12) 3.452(3) 8_556
O(11) C(16) 3.502(3) 8_456
N(13) O(20) 2.733(3) 2_456
C(14) O(20) 3.583(3) 2_456
C(15) O(20) 3.440(3) 2_456
loop_
_geom_torsion_atom_site_label_1
_geom_torsion_atom_site_label_2
_geom_torsion_atom_site_label_3
_geom_torsion_atom_site_label_4
_geom_torsion
_geom_torsion_publ_flag
C(1) C(2) C(3) C(4) 0.4(4) yes
C(1) C(2) S(10) O(11) -162.5(2) yes
C(1) C(2) S(10) O(12) -34.8(2) yes
C(1) C(2) S(10) N(13) 81.0(2) yes
C(1) C(6) C(5) C(4) 1.0(4) yes
C(2) C(1) C(6) C(5) 0.9(4) yes
C(2) C(1) N(7) O(8) 113.6(3) yes
C(2) C(1) N(7) O(9) -68.8(3) yes
C(2) C(3) C(4) C(5) 1.5(4) yes
C(2) S(10) N(13) C(14) 64.0(2) yes
C(3) C(2) C(1) C(6) -1.6(4) yes
C(3) C(2) C(1) N(7) 177.5(2) yes
C(3) C(2) S(10) O(11) 16.0(2) yes
C(3) C(2) S(10) O(12) 143.8(2) yes
C(3) C(2) S(10) N(13) -100.5(2) yes
C(3) C(4) C(5) C(6) -2.3(4) yes
C(4) C(3) C(2) S(10) -178.2(2) yes
C(5) C(6) C(1) N(7) -178.3(2) yes
C(6) C(1) C(2) S(10) 176.9(2) yes
C(6) C(1) N(7) O(8) -67.2(3) yes
C(6) C(1) N(7) O(9) 110.4(3) yes
N(7) C(1) C(2) S(10) -3.9(3) yes
S(10) N(13) C(14) C(15) 140.4(2) yes
S(10) N(13) C(14) C(19) -97.4(2) yes
O(11) S(10) N(13) C(14) -49.5(2) yes
O(12) S(10) N(13) C(14) 179.2(2) yes
N(13) C(14) C(15) C(16) -176.8(2) yes
N(13) C(14) C(19) C(18) 179.7(2) yes
C(14) C(15) C(16) S(17) -64.7(2) yes
C(14) C(19) C(18) S(17) 61.9(2) yes
C(15) C(14) C(19) C(18) -59.9(3) yes
C(15) C(16) S(17) C(18) 57.6(2) yes
C(15) C(16) S(17) O(20) -49.9(2) yes
C(16) C(15) C(14) C(19) 61.3(3) yes
C(16) S(17) C(18) C(19) -56.1(2) yes
C(19) C(18) S(17) O(20) 51.4(2) yes
C(19) C(18) S(17) O(20) 51.4(2) yes
