#------------------------------------------------------------------------------
#$Date: 2017-09-12 05:54:54 +0300 (Tue, 12 Sep 2017) $
#$Revision: 200545 $
#$URL: file:///home/coder/svn-repositories/cod/cif/1/54/70/1547036.cif $
#------------------------------------------------------------------------------
#
# This file is available in the Crystallography Open Database (COD),
# http://www.crystallography.net/
#
# All data on this site have been placed in the public domain by the
# contributors.
#
data_1547036
loop_
_publ_author_name
'Shao, Hui'
'Bao, Wen'
'Jing, Ze-Ran'
'Wang, Yun-Peng'
'Zhang, Fu-Min'
'Wang, Shao-Hua'
'Tu, Yong-Qiang'
_publ_section_title
;
 Construction of the [6,5,7,5] Tetracyclic Core of Calyciphylline A Type
 Alkaloids via a Tandem Semipinacol Rearrangement/Nicholas Reaction.
;
_journal_issue                   17
_journal_name_full               'Organic letters'
_journal_page_first              4648
_journal_page_last               4651
_journal_paper_doi               10.1021/acs.orglett.7b02274
_journal_volume                  19
_journal_year                    2017
_chemical_formula_moiety         'C30 H49 N O6 S Si'
_chemical_formula_sum            'C30 H49 N O6 S Si'
_chemical_formula_weight         579.85
_space_group_crystal_system      triclinic
_space_group_IT_number           2
_space_group_name_Hall           '-P 1'
_space_group_name_H-M_alt        'P -1'
_symmetry_space_group_name_Hall  '-P 1'
_symmetry_space_group_name_H-M   'P -1'
_atom_sites_solution_hydrogens   geom
_atom_sites_solution_primary     direct
_audit_creation_date             2017-06-30
_audit_creation_method
;
Olex2 1.2
(compiled 2017.03.28 svn.r3405 for OlexSys, GUI svn.r5337)
;
_cell_angle_alpha                101.972(4)
_cell_angle_beta                 99.482(4)
_cell_angle_gamma                91.091(4)
_cell_formula_units_Z            4
_cell_length_a                   12.6657(5)
_cell_length_b                   13.8437(7)
_cell_length_c                   19.3886(9)
_cell_measurement_reflns_used    2570
_cell_measurement_temperature    292.7(6)
_cell_measurement_theta_max      20.3790
_cell_measurement_theta_min      3.7540
_cell_volume                     3275.2(3)
_computing_cell_refinement
;
CrysAlisPro, Agilent Technologies,
Version 1.171.36.28 (release 01-02-2013 CrysAlis171 .NET)
(compiled Feb  1 2013,16:14:44)
;
_computing_data_collection
;
CrysAlisPro, Agilent Technologies,
Version 1.171.36.28 (release 01-02-2013 CrysAlis171 .NET)
(compiled Feb  1 2013,16:14:44)
;
_computing_data_reduction
;
CrysAlisPro, Agilent Technologies,
Version 1.171.36.28 (release 01-02-2013 CrysAlis171 .NET)
(compiled Feb  1 2013,16:14:44)
;
_computing_molecular_graphics    'Olex2 (Dolomanov et al., 2009)'
_computing_publication_material  'Olex2 (Dolomanov et al., 2009)'
_computing_structure_refinement  'ShelXL (Sheldrick, 2015)'
_computing_structure_solution    'ShelXS (Sheldrick, 2008)'
_diffrn_ambient_temperature      292.7(6)
_diffrn_detector_area_resol_mean 16.0733
_diffrn_measured_fraction_theta_full 0.996
_diffrn_measured_fraction_theta_max 0.997
_diffrn_measurement_details
;
#__ type_ start__ end____ width___ exp.time_
  1 omega   -3.00   24.00   1.0000    7.0000
omega____ theta____ kappa____ phi______ frames
    -      -19.5055  -99.0000    0.0000 27

#__ type_ start__ end____ width___ exp.time_
  2 omega -100.00  -73.00   1.0000    7.0000
omega____ theta____ kappa____ phi______ frames
    -      -19.5055  178.0000   30.0000 27

#__ type_ start__ end____ width___ exp.time_
  3 omega    3.00   95.00   1.0000    7.0000
omega____ theta____ kappa____ phi______ frames
    -       22.7867   77.0000    0.0000 92

#__ type_ start__ end____ width___ exp.time_
  4 omega   47.00   73.00   1.0000    7.0000
omega____ theta____ kappa____ phi______ frames
    -       22.7867  178.0000  -30.0000 26

#__ type_ start__ end____ width___ exp.time_
  5 omega  -12.00   62.00   1.0000    7.0000
omega____ theta____ kappa____ phi______ frames
    -       22.7867  -99.0000 -150.0000 74

#__ type_ start__ end____ width___ exp.time_
  6 omega    4.00   45.00   1.0000    7.0000
omega____ theta____ kappa____ phi______ frames
    -       22.7867   57.0000  -30.0000 41

#__ type_ start__ end____ width___ exp.time_
  7 omega  -44.00   95.00   1.0000    7.0000
omega____ theta____ kappa____ phi______ frames
    -       22.7867   19.0000 -180.0000 139
;
_diffrn_measurement_device_type  'SuperNova, Dual, Cu at zero, Eos'
_diffrn_measurement_method       '\w scans'
_diffrn_orient_matrix_UB_11      -0.0188611000
_diffrn_orient_matrix_UB_12      -0.0397094000
_diffrn_orient_matrix_UB_13      0.0135032000
_diffrn_orient_matrix_UB_21      -0.0000773000
_diffrn_orient_matrix_UB_22      -0.0324812000
_diffrn_orient_matrix_UB_23      -0.0335208000
_diffrn_orient_matrix_UB_31      0.0536447000
_diffrn_orient_matrix_UB_32      -0.0109436000
_diffrn_orient_matrix_UB_33      0.0116390000
_diffrn_radiation_monochromator  mirror
_diffrn_radiation_type           MoK\a
_diffrn_radiation_wavelength     0.71073
_diffrn_reflns_av_R_equivalents  0.0523
_diffrn_reflns_av_unetI/netI     0.1119
_diffrn_reflns_Laue_measured_fraction_full 0.996
_diffrn_reflns_Laue_measured_fraction_max 0.997
_diffrn_reflns_limit_h_max       15
_diffrn_reflns_limit_h_min       -15
_diffrn_reflns_limit_k_max       17
_diffrn_reflns_limit_k_min       -12
_diffrn_reflns_limit_l_max       23
_diffrn_reflns_limit_l_min       -23
_diffrn_reflns_number            23436
_diffrn_reflns_point_group_measured_fraction_full 0.996
_diffrn_reflns_point_group_measured_fraction_max 0.997
_diffrn_reflns_theta_full        25.242
_diffrn_reflns_theta_max         26.022
_diffrn_reflns_theta_min         3.321
_diffrn_source                   'SuperNova (Mo) X-ray Source'
_exptl_absorpt_coefficient_mu    0.175
_exptl_absorpt_correction_T_max  1.00000
_exptl_absorpt_correction_T_min  0.94518
_exptl_absorpt_correction_type   multi-scan
_exptl_absorpt_process_details
;
CrysAlisPro, Agilent Technologies,
Version 1.171.36.28 (release 01-02-2013 CrysAlis171 .NET)
(compiled Feb  1 2013,16:14:44)
Empirical absorption correction using spherical harmonics,
 implemented in SCALE3 ABSPACK scaling algorithm.
;
_exptl_crystal_colour            'clear light colourless'
_exptl_crystal_colour_lustre     clear
_exptl_crystal_colour_modifier   light
_exptl_crystal_colour_primary    colourless
_exptl_crystal_density_diffrn    1.176
_exptl_crystal_description       block
_exptl_crystal_F_000             1256
_exptl_crystal_size_max          0.15
_exptl_crystal_size_mid          0.14
_exptl_crystal_size_min          0.14
_refine_diff_density_max         0.515
_refine_diff_density_min         -0.461
_refine_diff_density_rms         0.052
_refine_ls_extinction_coef       0.0021(8)
_refine_ls_extinction_expression Fc^*^=kFc[1+0.001xFc^2^\l^3^/sin(2\q)]^-1/4^
_refine_ls_extinction_method     'SHELXL-2016/6 (Sheldrick 2016)'
_refine_ls_goodness_of_fit_ref   1.035
_refine_ls_hydrogen_treatment    constr
_refine_ls_matrix_type           full
_refine_ls_number_parameters     720
_refine_ls_number_reflns         12874
_refine_ls_number_restraints     42
_refine_ls_restrained_S_all      1.062
_refine_ls_R_factor_all          0.1942
_refine_ls_R_factor_gt           0.0889
_refine_ls_shift/su_max          0.000
_refine_ls_shift/su_mean         0.000
_refine_ls_structure_factor_coef Fsqd
_refine_ls_weighting_details
'w=1/[\s^2^(Fo^2^)+(0.1213P)^2^+0.3269P] where P=(Fo^2^+2Fc^2^)/3'
_refine_ls_weighting_scheme      calc
_refine_ls_wR_factor_gt          0.2195
_refine_ls_wR_factor_ref         0.3035
_reflns_Friedel_coverage         0.000
_reflns_number_gt                5230
_reflns_number_total             12874
_reflns_threshold_expression     'I > 2\s(I)'
_cod_data_source_file            ol7b02274_si_005.cif
_cod_data_source_block           jingzr_0515
_cod_database_code               1547036
_shelx_shelxl_version_number     2016/6
_chemical_oxdiff_formula         'C H O N'
_shelx_space_group_comment
;
The symmetry employed for this shelxl refinement is uniquely defined
by the following loop, which should always be used as a source of
symmetry information in preference to the above space-group names.
They are only intended as comments.
;
_reflns_odcompleteness_completeness 99.79
_reflns_odcompleteness_iscentric 1
_reflns_odcompleteness_theta     26.32
_olex2_refinement_description
;
1. Fixed Uiso
 At 1.2 times of:
  All C(H) groups, All C(H,H) groups
 At 1.5 times of:
  All C(H,H,H) groups
2. Uiso/Uaniso restraints and constraints
Uanis(C53) \\sim Ueq, Uanis(C52) \\sim Ueq, Uanis(C55) \\sim Ueq, Uanis(C54)
\\sim Ueq, Uanis(C0AA) \\sim Ueq, Uanis(C1AA) \\sim Ueq, Uanis(Si2) \\sim Ueq:
with sigma of 0.04 and sigma for terminal atoms of 0.05
Uanis(C53) \\sim Ueq, Uanis(C55) \\sim Ueq, Uanis(C54) \\sim Ueq, Uanis(C52)
\\sim Ueq, Uanis(C1AA) \\sim Ueq, Uanis(C0AA) \\sim Ueq, Uanis(Si2) \\sim Ueq:
with sigma of 0.01 and sigma for terminal atoms of 0.02
3.a Ternary CH refined with riding coordinates:
 C2(H2), C5(H5), C11(H11), C31(H31), C34(H34), C39(H39)
3.b Secondary CH2 refined with riding coordinates:
 C3(H3A,H3B), C4(H4A,H4B), C8(H8A,H8B), C9(H9A,H9B), C10(H10A,H10B), C12(H12A,
 H12B), C13(H13A,H13B), C22(H22A,H22B), C23(H23A,H23B), C32(H32A,H32B),
 C33(H33A,H33B), C36(H36A,H36B), C37(H37A,H37B), C38(H38A,H38B), C40(H40A,H40B),
  C41(H41A,H41B), C50(H50A,H50B), C51(H51A,H51B)
3.c Aromatic/amide H refined with riding coordinates:
 C16(H16), C18(H18), C19(H19), C20(H20), C44(H44), C45(H45), C47(H47), C48(H48)
3.d Idealised Me refined as rotating group:
 C28(H28A,H28B,H28C), C29(H29A,H29B,H29C), C14(H14A,H14B,H14C), C21(H21A,H21B,
 H21C), C25(H25A,H25B,H25C), C27(H27A,H27B,H27C), C26(H26A,H26B,H26C), C30(H30A,
 H30B,H30C), C0AA(H0AA,H0AB,H0AC), C1AA(H1AA,H1AB,H1AC), C42(H42A,H42B,H42C),
 C49(H49A,H49B,H49C), C53(H53A,H53B,H53C), C54(H54A,H54B,H54C), C55(H55A,H55B,
 H55C), C56(H56A,H56B,H56C)
;
_shelx_res_file
;
TITL jingzr_0515 in P-1 #2
    jingzr_0515.res
    created by SHELXL-2016/6 at 17:00:34 on 30-Jun-2017
REM reset to P-1 #2
CELL 0.71073 12.665682 13.84369 19.388568 101.9717 99.4821 91.0912
ZERR 4 0.000518 0.0007 0.000884 0.0041 0.0036 0.0037
LATT 1
SFAC C H N O S Si
UNIT 120 196 4 24 4 4
ISOR 0.04 0.05 C53 C52 C55 C54 C0aa C1aa Si2
ISOR 0.01 0.02 C53 C55 C54 C52 C1aa C0aa Si2

L.S. 20
PLAN  20
BOND $H
HTAB
Conf
fmap 2
acta
SHEL 999 0.81
OMIT 0 6 3
OMIT 0 -7 7
OMIT -4 -8 4
OMIT 6 3 0
OMIT 6 6 6
OMIT 3 -1 1
OMIT 3 1 2
OMIT -4 -10 6
OMIT -1 3 3
OMIT 6 -3 6
OMIT 3 -6 3
OMIT -3 4 4
OMIT 13 3 4
OMIT -1 8 9
OMIT 0 4 2
REM <olex2.extras>
REM <HklSrc "%.\\jingzr_0515.hkl">
REM </olex2.extras>

WGHT    0.121300    0.326900
EXTI    0.002082
FVAR       3.88378
S1    5    0.694632    1.275664    0.255838    11.00000    0.06743    0.08642 =
         0.10389    0.02118    0.03510    0.00262
SI1   6    0.252072    0.923760    0.176313    11.00000    0.10220    0.12549 =
         0.08593   -0.00254   -0.01548    0.01116
O1    4    0.710802    1.164620    0.435867    11.00000    0.04911    0.06471 =
         0.11656    0.01827    0.01865    0.01169
O2    4    0.674373    1.337720    0.572179    11.00000    0.05998    0.04539 =
         0.07694    0.01174    0.00187    0.00507
O3    4    0.611311    1.463346    0.652957    11.00000    0.08599    0.06483 =
         0.08963    0.01389    0.02795    0.01426
O6    4    0.765468    1.359469    0.289490    11.00000    0.06596    0.11336 =
         0.11608    0.02549    0.02460   -0.02631
O5    4    0.737739    1.184677    0.225778    11.00000    0.10635    0.10064 =
         0.14753    0.01937    0.07299    0.03549
C28   1    0.179737    0.831782    0.217517    11.00000    0.20399    0.16888 =
         0.16720    0.01746    0.05252   -0.10207
AFIX 137
H28A  2    0.149371    0.867486    0.256860    11.00000   -1.50000
H28B  2    0.230123    0.787335    0.234319    11.00000   -1.50000
H28C  2    0.123704    0.794728    0.181888    11.00000   -1.50000
AFIX   0
C29   1    0.150719    1.000147    0.135648    11.00000    0.15042    0.24829 =
         0.10913    0.02655   -0.01537    0.07641
AFIX 137
H29A  2    0.105669    0.959343    0.094957    11.00000   -1.50000
H29B  2    0.186422    1.052026    0.120692    11.00000   -1.50000
H29C  2    0.107698    1.028543    0.170283    11.00000   -1.50000
AFIX   0
N1    3    0.623984    1.250671    0.312654    11.00000    0.06466    0.05887 =
         0.08567    0.01648    0.03247    0.00224
O4    4    0.323168    1.003893    0.240894    11.00000    0.09122    0.06848 =
         0.08497    0.01914   -0.01017   -0.00398
C1    1    0.493560    1.263645    0.389740    11.00000    0.04148    0.04492 =
         0.07235    0.01585    0.01086   -0.00093
C2    1    0.556662    1.325056    0.349611    11.00000    0.04821    0.05893 =
         0.07628    0.01588    0.01339   -0.00316
AFIX  13
H2    2    0.504933    1.345778    0.312744    11.00000   -1.20000
AFIX   0
C3    1    0.616883    1.417124    0.396745    11.00000    0.06812    0.05149 =
         0.08959    0.01641    0.02573   -0.00292
AFIX  23
H3A   2    0.662259    1.445527    0.369523    11.00000   -1.20000
H3B   2    0.565884    1.465476    0.411072    11.00000   -1.20000
AFIX   0
C4    1    0.685233    1.395679    0.462776    11.00000    0.05374    0.04904 =
         0.09345    0.01484    0.01017   -0.00681
AFIX  23
H4A   2    0.737787    1.348671    0.448997    11.00000   -1.20000
H4B   2    0.723207    1.456070    0.491262    11.00000   -1.20000
AFIX   0
C5    1    0.614925    1.353868    0.506057    11.00000    0.04868    0.04128 =
         0.07877    0.01287    0.01428   -0.00068
AFIX  13
H5    2    0.561424    1.402014    0.517806    11.00000   -1.20000
AFIX   0
C6    1    0.554121    1.254249    0.466445    11.00000    0.03849    0.03952 =
         0.07412    0.01614    0.01118    0.00231
C7    1    0.638479    1.175527    0.469520    11.00000    0.04220    0.04523 =
         0.07950    0.00939    0.00753    0.00126
C8    1    0.622979    1.116545    0.524439    11.00000    0.06179    0.04978 =
         0.10258    0.02183   -0.00357    0.00142
AFIX  23
H8A   2    0.688930    1.118742    0.558358    11.00000   -1.20000
H8B   2    0.602950    1.048056    0.501371    11.00000   -1.20000
AFIX   0
C9    1    0.534647    1.161971    0.562677    11.00000    0.07519    0.05643 =
         0.09037    0.03083    0.01677    0.00319
AFIX  23
H9A   2    0.564447    1.203270    0.608923    11.00000   -1.20000
H9B   2    0.486304    1.111007    0.569619    11.00000   -1.20000
AFIX   0
C10   1    0.476489    1.223711    0.512989    11.00000    0.04913    0.05628 =
         0.08367    0.02526    0.01326    0.00107
AFIX  23
H10A  2    0.451211    1.282285    0.541085    11.00000   -1.20000
H10B  2    0.414887    1.185504    0.482476    11.00000   -1.20000
AFIX   0
C11   1    0.470172    1.165717    0.332608    11.00000    0.05451    0.04858 =
         0.07382    0.02232    0.00323   -0.00045
AFIX  13
H11   2    0.412121    1.178662    0.296080    11.00000   -1.20000
AFIX   0
C12   1    0.568713    1.150786    0.296389    11.00000    0.08427    0.06174 =
         0.09357    0.01584    0.02576   -0.00065
AFIX  23
H12A  2    0.614707    1.104077    0.315719    11.00000   -1.20000
H12B  2    0.547913    1.126635    0.245146    11.00000   -1.20000
AFIX   0
C13   1    0.699592    1.422618    0.626653    11.00000    0.06465    0.05774 =
         0.08765    0.00074    0.00495   -0.00862
AFIX  23
H13A  2    0.749147    1.406172    0.665758    11.00000   -1.20000
H13B  2    0.735808    1.471895    0.608483    11.00000   -1.20000
AFIX   0
C14   1    0.564466    1.409822    0.695257    11.00000    0.13858    0.08844 =
         0.11249    0.01721    0.04826    0.00102
AFIX 137
H14A  2    0.521994    1.354095    0.664965    11.00000   -1.50000
H14B  2    0.519618    1.451717    0.722460    11.00000   -1.50000
H14C  2    0.619742    1.387037    0.727281    11.00000   -1.50000
AFIX   0
C15   1    0.608504    1.311153    0.186734    11.00000    0.08948    0.08232 =
         0.07613    0.00438    0.03945   -0.01762
C16   1    0.550886    1.241632    0.128674    11.00000    0.14471    0.09895 =
         0.10477    0.00642    0.03045   -0.01459
AFIX  43
H16   2    0.559270    1.174448    0.126067    11.00000   -1.20000
AFIX   0
C18   1    0.481839    1.272553    0.075433    11.00000    0.14372    0.17812 =
         0.08161    0.01352   -0.00135   -0.05852
AFIX  43
H18   2    0.443057    1.225802    0.037877    11.00000   -1.20000
AFIX   0
C17   1    0.469751    1.372045    0.077338    11.00000    0.13253    0.15526 =
         0.10775    0.05167    0.02683   -0.00851
C19   1    0.527866    1.436608    0.131994    11.00000    0.12684    0.11719 =
         0.09295    0.02276    0.02609    0.00140
AFIX  43
H19   2    0.522356    1.503794    0.133134    11.00000   -1.20000
AFIX   0
C20   1    0.594116    1.408875    0.185563    11.00000    0.09521    0.10109 =
         0.08006    0.02172    0.01476   -0.01515
AFIX  43
H20   2    0.631073    1.457330    0.222739    11.00000   -1.20000
AFIX   0
C21   1    0.392491    1.400563    0.016760    11.00000    0.14671    0.29084 =
         0.12606    0.09270   -0.00623    0.00759
AFIX 137
H21A  2    0.322136    1.371948    0.014802    11.00000   -1.50000
H21B  2    0.416425    1.376453   -0.027842    11.00000   -1.50000
H21C  2    0.390233    1.471256    0.025149    11.00000   -1.50000
AFIX   0
C22   1    0.433007    1.072370    0.354224    11.00000    0.07114    0.04972 =
         0.08258    0.01612   -0.00424   -0.01367
AFIX  23
H22A  2    0.488753    1.056171    0.390072    11.00000   -1.20000
H22B  2    0.369806    1.086153    0.376086    11.00000   -1.20000
AFIX   0
C23   1    0.406922    0.983490    0.292935    11.00000    0.08446    0.05991 =
         0.09231    0.02477   -0.00477   -0.00915
AFIX  23
H23A  2    0.470096    0.967470    0.271465    11.00000   -1.20000
H23B  2    0.385331    0.926929    0.310681    11.00000   -1.20000
AFIX   0
C24   1    0.325620    0.853756    0.111928    11.00000    0.11582    0.17380 =
         0.13349    0.01742    0.00429    0.01982
C25   1    0.398746    0.937490    0.092038    11.00000    0.16655    0.28853 =
         0.16778    0.05740    0.07539   -0.03736
AFIX 137
H25A  2    0.353408    0.983710    0.072744    11.00000   -1.50000
H25B  2    0.440336    0.906807    0.057172    11.00000   -1.50000
H25C  2    0.445926    0.971687    0.134383    11.00000   -1.50000
AFIX   0
C27   1    0.244499    0.794191    0.045824    11.00000    0.21592    0.23258 =
         0.11500   -0.05742   -0.04027    0.05168
AFIX 137
H27A  2    0.187887    0.763237    0.062361    11.00000   -1.50000
H27B  2    0.281334    0.744448    0.018127    11.00000   -1.50000
H27C  2    0.214763    0.838531    0.016636    11.00000   -1.50000
AFIX   0
C26   1    0.393805    0.775468    0.144076    11.00000    0.17085    0.14469 =
         0.18216   -0.02103   -0.04453    0.05639
AFIX 137
H26A  2    0.453283    0.808536    0.178764    11.00000   -1.50000
H26B  2    0.420013    0.731055    0.106461    11.00000   -1.50000
H26C  2    0.349959    0.738771    0.166731    11.00000   -1.50000
AFIX   0
C30   1    0.386961    1.315250    0.399596    11.00000    0.04816    0.06033 =
         0.09369    0.02796    0.01114    0.00897
AFIX 137
H30A  2    0.336634    1.269636    0.409762    11.00000   -1.50000
H30B  2    0.357568    1.336049    0.356484    11.00000   -1.50000
H30C  2    0.401099    1.371812    0.438606    11.00000   -1.50000
AFIX   0

S3    5    0.676316    0.758135    0.268377    11.00000    0.05422    0.08368 =
         0.08762    0.02654    0.00090    0.00599
SI2   6    1.041992    0.456025    0.166704    11.00000    0.24616    0.12656 =
         0.10535   -0.01961    0.09114   -0.02793
O8    4    0.760958    0.657757    0.450643    11.00000    0.05010    0.06044 =
         0.08346    0.02228    0.00899   -0.01058
O9    4    0.871694    0.834657    0.583173    11.00000    0.06896    0.05080 =
         0.06442    0.01304    0.02647   -0.00446
O10   4    0.973368    0.968960    0.660692    11.00000    0.09989    0.06138 =
         0.08048    0.01415    0.00066   -0.00972
O11   4    0.613086    0.829883    0.305135    11.00000    0.06397    0.12607 =
         0.10849    0.03038    0.02061    0.03458
O12   4    0.626908    0.662367    0.233136    11.00000    0.06820    0.09341 =
         0.13202    0.02831   -0.01435   -0.02380
C0AA  1    1.120796    0.537893    0.123728    11.00000    0.41082    0.22184 =
         0.15154    0.03056    0.16641   -0.04713
AFIX 137
H0AA  2    1.090205    0.601302    0.127552    11.00000   -1.50000
H0AB  2    1.118036    0.507652    0.074159    11.00000   -1.50000
H0AC  2    1.194031    0.546161    0.147721    11.00000   -1.50000
AFIX   0
C1AA  1    0.888588    0.446957    0.116684    11.00000    0.17371    0.28097 =
         0.16290   -0.02678   -0.03293    0.02994
AFIX 137
H1AA  2    0.842030    0.457440    0.151616    11.00000   -1.50000
H1AB  2    0.871977    0.382622    0.086112    11.00000   -1.50000
H1AC  2    0.878587    0.496484    0.088464    11.00000   -1.50000
AFIX   0
N3    3    0.778485    0.739565    0.323845    11.00000    0.05050    0.05846 =
         0.07060    0.01678   -0.00031   -0.00016
O0AA  4    1.047875    0.518886    0.247216    11.00000    0.09366    0.07397 =
         0.07151    0.00882    0.03410    0.00176
C3AA  1    0.951258    0.764741    0.399818    11.00000    0.04475    0.04155 =
         0.06264    0.01628    0.01104   -0.00020
C2AA  1    0.934248    0.754754    0.476917    11.00000    0.03312    0.04035 =
         0.06152    0.01694    0.01043    0.00272
C31   1    0.892988    0.852590    0.516073    11.00000    0.04792    0.04945 =
         0.06743    0.01349    0.01730    0.00108
AFIX  13
H31   2    0.950432    0.904545    0.525941    11.00000   -1.20000
AFIX   0
C32   1    0.795266    0.886145    0.473593    11.00000    0.05633    0.05009 =
         0.08239    0.01054    0.02203    0.00920
AFIX  23
H32A  2    0.770055    0.944585    0.501891    11.00000   -1.20000
H32B  2    0.738344    0.834523    0.461712    11.00000   -1.20000
AFIX   0
C33   1    0.823463    0.909374    0.405637    11.00000    0.06573    0.05265 =
         0.08240    0.02123    0.01001    0.01451
AFIX  23
H33A  2    0.760642    0.931326    0.378443    11.00000   -1.20000
H33B  2    0.878505    0.962722    0.417886    11.00000   -1.20000
AFIX   0
C34   1    0.863068    0.820230    0.360401    11.00000    0.05058    0.05797 =
         0.06898    0.03065    0.00858    0.00720
AFIX  13
H34   2    0.893379    0.842930    0.322797    11.00000   -1.20000
AFIX   0
C35   1    0.852279    0.672507    0.481912    11.00000    0.04548    0.04183 =
         0.05978    0.00755    0.01379   -0.00161
C36   1    0.901091    0.614763    0.535519    11.00000    0.06342    0.05111 =
         0.07533    0.02341    0.02273    0.00130
AFIX  23
H36A  2    0.909938    0.547265    0.511708    11.00000   -1.20000
H36B  2    0.854983    0.613296    0.570622    11.00000   -1.20000
AFIX   0
C37   1    1.009489    0.665351    0.571973    11.00000    0.06365    0.05235 =
         0.07690    0.02764    0.01034    0.00442
AFIX  23
H37A  2    1.062803    0.616926    0.577657    11.00000   -1.20000
H37B  2    1.004886    0.705230    0.618726    11.00000   -1.20000
AFIX   0
C38   1    1.038082    0.730244    0.522167    11.00000    0.04159    0.05232 =
         0.06382    0.01481    0.00979    0.00106
AFIX  23
H38A  2    1.084203    0.695702    0.491052    11.00000   -1.20000
H38B  2    1.076316    0.790823    0.550105    11.00000   -1.20000
AFIX   0
C39   1    0.946607    0.668103    0.342704    11.00000    0.05983    0.05009 =
         0.06087    0.01665    0.02069    0.00592
AFIX  13
H39   2    0.980914    0.684759    0.304600    11.00000   -1.20000
AFIX   0
C40   1    0.827997    0.643299    0.309955    11.00000    0.06250    0.05207 =
         0.07234    0.01706    0.01044    0.00657
AFIX  23
H40A  2    0.819466    0.615658    0.258990    11.00000   -1.20000
H40B  2    0.796517    0.596588    0.332816    11.00000   -1.20000
AFIX   0
C41   1    0.872773    0.920936    0.637550    11.00000    0.07618    0.06242 =
         0.07589    0.00237    0.02130    0.00182
AFIX  23
H41A  2    0.823290    0.966228    0.619585    11.00000   -1.20000
H41B  2    0.847602    0.902898    0.678036    11.00000   -1.20000
AFIX   0
C42   1    1.048565    0.919756    0.700581    11.00000    0.11154    0.09868 =
         0.08998    0.01416   -0.01271   -0.01043
AFIX 137
H42A  2    1.066526    0.860540    0.670204    11.00000   -1.50000
H42B  2    1.018562    0.902918    0.739183    11.00000   -1.50000
H42C  2    1.112041    0.962155    0.719640    11.00000   -1.50000
AFIX   0
C43   1    0.724964    0.812195    0.204140    11.00000    0.07062    0.06760 =
         0.06256    0.01450   -0.00315    0.01181
C44   1    0.782135    0.760618    0.157732    11.00000    0.20482    0.10744 =
         0.07824    0.03905    0.04953    0.06593
AFIX  43
H44   2    0.795111    0.694996    0.158773    11.00000   -1.20000
AFIX   0
C45   1    0.821721    0.804180    0.108578    11.00000    0.21678    0.14387 =
         0.09044    0.04184    0.07154    0.06742
AFIX  43
H45   2    0.861998    0.767485    0.077528    11.00000   -1.20000
AFIX   0
C46   1    0.803510    0.897919    0.104562    11.00000    0.13574    0.11518 =
         0.07043    0.03397   -0.00132    0.00772
C47   1    0.746931    0.950031    0.152004    11.00000    0.16629    0.06427 =
         0.10764    0.02074    0.00576   -0.00416
AFIX  43
H47   2    0.733414    1.015484    0.150710    11.00000   -1.20000
AFIX   0
C48   1    0.709512    0.907708    0.201673    11.00000    0.10933    0.06868 =
         0.11146    0.02592    0.02816    0.01943
AFIX  43
H48   2    0.672641    0.945517    0.234445    11.00000   -1.20000
AFIX   0
C49   1    0.848148    0.946293    0.050152    11.00000    0.26374    0.22136 =
         0.11775    0.09157    0.04742   -0.02446
AFIX 137
H49A  2    0.795455    0.938925    0.007450    11.00000   -1.50000
H49B  2    0.911827    0.914890    0.038654    11.00000   -1.50000
H49C  2    0.865079    1.015320    0.070324    11.00000   -1.50000
AFIX   0
C50   1    1.002656    0.579107    0.363091    11.00000    0.06717    0.05681 =
         0.06843    0.01275    0.02191    0.01260
AFIX  23
H50A  2    1.077059    0.598926    0.383318    11.00000   -1.20000
H50B  2    0.969661    0.558825    0.399935    11.00000   -1.20000
AFIX   0
C51   1    0.998777    0.491912    0.301610    11.00000    0.08571    0.05035 =
         0.07863    0.01808    0.03277    0.00685
AFIX  23
H51A  2    1.035777    0.438193    0.318324    11.00000   -1.20000
H51B  2    0.924805    0.469137    0.282410    11.00000   -1.20000
AFIX   0
C52   1    1.081591    0.343900    0.156227    11.00000    0.22149    0.22958 =
         0.21765    0.02603    0.06838   -0.00065
C53   1    0.989688    0.275691    0.170796    11.00000    0.36823    0.17603 =
         0.24137   -0.00113    0.16606   -0.05502
AFIX 137
H53A  2    0.996087    0.279655    0.221349    11.00000   -1.50000
H53B  2    0.996128    0.208498    0.147040    11.00000   -1.50000
H53C  2    0.921088    0.297535    0.152840    11.00000   -1.50000
AFIX   0
C54   1    1.084382    0.301872    0.067532    11.00000    0.36038    0.27302 =
         0.16877   -0.08567    0.13892   -0.02539
AFIX 137
H54A  2    1.017731    0.313911    0.039855    11.00000   -1.50000
H54B  2    1.094772    0.232162    0.058408    11.00000   -1.50000
H54C  2    1.142217    0.335861    0.054358    11.00000   -1.50000
AFIX   0
C55   1    1.195042    0.350466    0.201814    11.00000    0.22883    0.28108 =
         0.26172   -0.04341   -0.02503    0.16152
AFIX 137
H55A  2    1.235863    0.406042    0.195320    11.00000   -1.50000
H55B  2    1.230391    0.290884    0.186978    11.00000   -1.50000
H55C  2    1.189212    0.358542    0.251406    11.00000   -1.50000
AFIX   0
C56   1    1.060056    0.822510    0.406445    11.00000    0.05261    0.06247 =
         0.07772    0.02418    0.02179   -0.00306
AFIX 137
H56A  2    1.064277    0.881747    0.442960    11.00000   -1.50000
H56B  2    1.065392    0.839552    0.361557    11.00000   -1.50000
H56C  2    1.117750    0.781940    0.418913    11.00000   -1.50000
AFIX   0
HKLF 4




REM  jingzr_0515 in P-1 #2
REM R1 =  0.0889 for    5230 Fo > 4sig(Fo)  and  0.1942 for all   12874 data
REM    720 parameters refined using     42 restraints

END

WGHT      0.1187      0.3736

REM Instructions for potential hydrogen bonds
HTAB C3 O6
HTAB C4 O1
HTAB C12 O1
HTAB C32 O8
HTAB C33 O11
HTAB C40 O8
EQIV $1 x, y-1, z
HTAB C51 O6_$1

REM Highest difference peak  0.515,  deepest hole -0.461,  1-sigma level  0.052
Q1    1   1.1161  0.4413  0.1908  11.00000  0.05    0.52
Q2    1   0.3164  0.9565  0.1514  11.00000  0.05    0.49
Q3    1   0.9820  0.3788  0.1179  11.00000  0.05    0.49
Q4    1   1.0218  0.4715  0.1645  11.00000  0.05    0.45
Q5    1   0.9975  0.5480  0.1022  11.00000  0.05    0.36
Q6    1   1.2270  0.4893  0.1645  11.00000  0.05    0.33
Q7    1   0.2619  0.8133  0.1554  11.00000  0.05    0.32
Q8    1   0.9084  0.3385  0.1476  11.00000  0.05    0.29
Q9    1   1.2045  0.5190  0.1508  11.00000  0.05    0.29
Q10   1   1.0958  0.2821  0.2108  11.00000  0.05    0.28
Q11   1   1.0627  0.4115  0.0343  11.00000  0.05    0.25
Q12   1   0.9950  0.3473  0.0418  11.00000  0.05    0.23
Q13   1   1.1554  0.4365  0.1395  11.00000  0.05    0.22
Q14   1   0.4215  0.9782  0.2287  11.00000  0.05    0.21
Q15   1   0.6804  1.2015  0.1856  11.00000  0.05    0.19
Q16   1   0.6028  1.4607  0.7497  11.00000  0.05    0.18
Q17   1   0.4609  1.4182  0.5371  11.00000  0.05    0.18
Q18   1   0.1369  0.8158  0.0867  11.00000  0.05    0.17
Q19   1   0.7174  1.2002  0.4025  11.00000  0.05    0.17
Q20   1   0.2395  0.8595  0.1120  11.00000  0.05    0.17
;
_shelx_res_checksum              7130
_shelx_hkl_file
;
   0   0   4 17437.1 978.523   7
   0   0  -4 17558.5 888.975   6
   0   0  -5 64313.0 1865.95   6
   0   0   5 63373.8 2010.81   7
   0   0  -6 19059.6 1123.45   6
   0   0   6 20076.9 1252.21   7
   0   0   7 5362.15 718.474   7
   0   0  -7 5404.45 657.351   6
   0   0  -8 1256.23 366.990   6
   0   0   8 1244.88 389.511   7
   0   0  -9 3572.71 634.936   6
   0   0   9 4808.24 774.322   7
   0   0  10 3180.72 698.993   7
   0   0 -10 2950.26 601.873   6
   0   0  11 1180.36 436.899   7
   0   0 -11 1109.25 426.522   6
   0   0 -12 5217.46 889.495   6
   0   0  12 6689.87 1052.68   7
   0   0 -13 453.617 266.633   6
   0   0  13 972.603 429.247   7
   0   0  14 3647.11 866.969   7
   0   0 -14 3158.40 743.173   6
   0   0 -15 567.303 374.596   6
   0   0  15 447.130 333.355   7
   0   0  16 330.293 215.607   7
   0   0 -16 626.658 394.297   6
   0   0  16 225.802 113.523   4
   0   0  17 3574.97 706.146   4
   0   0  17 3160.52 893.302   7
   0   0 -17 3610.09 900.570   6
   0   0 -18 1605.39 630.381   6
   0   0  18 1762.59 691.654   7
   0   0  19 1511.36 673.518   7
   0   0 -19 1295.29 559.016   6
   0   0 -20 163.930 209.918   6
   0   0  20 846.171 458.101   7
   0   0 -21 375.536 341.717   6
   0   0  21 52.0740 154.868   7
   0   0 -22 411.188 452.577   6
   0   0  22 440.130 399.993   7
   0   0  23-351.722 366.154   7
   0   0 -23 596.775 504.877   6
   0   0 -24-196.202 269.191   6
   0   1 -24-222.828 288.611   6
   0   1 -23 1665.45 805.510   6
   0  -1  23 464.349 381.665   7
   0   1 -22 512.657 437.217   6
   0  -1  22-523.821 424.529   7
   0   1 -21 7.63880 109.197   6
   0  -1  21-42.3446 141.058   7
   0   1 -20-49.9863 289.642   6
   0  -1  20-276.397 292.913   7
   0   1 -19 256.246 160.200   6
   0  -1  19 305.450 385.427   7
   0   1 -18 2774.92 789.695   6
   0  -1  18 2422.12 823.610   7
   0   1 -17 2002.76 664.865   6
   0  -1  17 1400.06 552.875   7
   0  -1  16 116.844 164.782   4
   0   1 -16 185.058 211.743   6
   0  -1  16-118.156 277.338   7
   0  -1  15 147.061 146.538   4
   0   1 -15 129.511 114.717   6
   0   1 -14 436.352 289.456   6
   0  -1  14-27.6591 260.827   7
   0  -1  14 304.205 168.155   4
   0  -1  13 705.014 326.729   7
   0  -1  13 769.769 253.672   4
   0   1 -13 677.493 355.027   6
   0  -1  12 1110.94 314.263   4
   0  -1  12 766.280 343.094   7
   0   1 -12 1781.26 529.806   6
   0  -1  11 5269.79 609.463   4
   0  -1  11 4315.02 795.669   7
   0   1 -11 5253.52 824.374   6
   0   1 -10 393.805 240.599   6
   0  -1  10 172.338 139.342   7
   0   1  -9-88.6982 237.839   6
   0  -1   9-682.964 280.770   7
   0  -1   8 429.895 202.973   7
   0   1  -8 191.705 163.212   6
   0  -1   7 3006.19 513.583   7
   0   1  -7 2972.08 488.417   6
   0   1  -6 74.4227 69.7258   6
   0  -1   6 11.6078 102.045   7
   0   1  -5 637.773 182.817   6
   0  -1   5 626.953 197.699   7
   0  -1   5 487.068 116.043   4
   0  -1   4 513.693 167.815   7
   0   1  -4 625.235 175.178   6
   0   1   3 696.499 125.076   5
   0   1   3 708.963 180.193   7
   0  -1  -4 2019.61 251.773   5
   0   1   4 1822.96 312.519   7
   0  -1  -5 5824.60 482.711   5
   0  -1  -5 5461.64 550.351   6
   0   1   5 5974.04 639.169   7
   0   1   6 3725.43 552.282   7
   0  -1  -6 3637.30 420.506   5
   0  -1  -6 4000.07 520.198   6
   0   1   7 2007.39 451.215   7
   0  -1  -7 1853.26 327.427   5
   0  -1  -7 1732.23 378.713   6
   0   1   8 3731.49 644.441   7
   0  -1  -8 3983.93 606.175   6
   0  -1  -9 1398.68 390.337   6
   0   1   9 909.766 331.791   7
   0   1  10 3728.41 736.326   7
   0  -1 -10 3267.72 618.437   6
   0   1  11-344.704 235.671   7
   0  -1 -11 26.7804 124.823   6
   0   1  12 748.254 369.260   7
   0  -1 -12 498.432 282.813   6
   0   1  13 1238.59 494.163   7
   0  -1 -13 612.793 290.321   6
   0  -1 -14-328.581 241.364   6
   0   1  14 321.950 308.076   7
   0   1  15 335.265 189.330   7
   0  -1 -15 5.69368 177.373   6
   0   1  16 762.510 502.589   7
   0  -1 -16 1166.17 550.009   6
   0   1  17-84.5293 264.967   7
   0  -1 -17-94.7704 210.624   6
   0   1  18 906.516 577.457   7
   0  -1 -18 1368.42 579.698   6
   0   1  19 562.631 409.505   7
   0  -1 -19 725.712 445.989   6
   0   1  20 678.782 451.663   7
   0  -1 -20 231.343 302.859   6
   0   1  21 375.780 449.729   7
   0  -1 -21 403.183 393.510   6
   0   1  22-225.436 294.684   7
   0  -1 -22 146.161 227.209   6
   0   1  23 2085.60 936.250   7
   0  -1 -23 336.469 361.109   6
   0  -1 -24 244.851 302.891   6
   0  -2  23-232.996 297.488   7
   0  -2  22 174.802 258.550   7
   0   2 -22 222.803 109.812   3
   0  -2  21-601.681 434.210   7
   0   2 -21 79.3923 112.800   3
   0   2 -20 96.4343 456.785   6
   0   2 -20-166.869 207.492   3
   0  -2  20-217.778 195.157   7
   0  -2  19 1497.97 629.816   7
   0   2 -19 465.149 318.000   6
   0   2 -18 649.224 380.417   6
   0  -2  18 422.873 329.711   7
   0  -2  17 6761.70 1262.33   7
   0   2 -17 7041.92 1269.17   6
   0   2 -16-427.346 350.375   6
   0  -2  16 144.112 152.276   4
   0  -2  16-311.026 302.428   7
   0  -2  15 3672.21 862.056   7
   0   2 -15 2844.60 765.978   6
   0  -2  15 2914.93 496.172   4
   0  -2  14 301.395 208.996   7
   0   2 -14 692.628 345.654   6
   0  -2  14 694.697 231.767   4
   0   2 -13 1253.71 428.379   6
   0  -2  13 947.926 406.593   7
   0  -2  13 755.866 215.779   4
   0   2 -12 2638.87 634.225   6
   0  -2  12 2551.48 635.086   7
   0  -2  12 2006.95 366.944   4
   0  -2  11 2458.73 598.799   7
   0  -2  11 2666.13 399.903   4
   0   2 -11 3444.48 696.423   6
   0  -2  10 6453.08 569.144   4
   0   2 -10 6546.66 919.891   6
   0  -2  10 6221.62 897.570   7
   0  -2   9 12825.4 1216.04   7
   0  -2   9 12187.6 724.286   4
   0   2  -9 13277.3 1199.70   6
   0   2  -8 8793.05 933.642   6
   0  -2   8 8603.18 558.688   4
   0  -2   8 7782.52 897.984   7
   0   2  -7 3684.47 565.022   6
   0  -2   7 3802.61 611.526   7
   0   2  -6 13421.3 991.892   6
   0   2  -6 14259.5 989.977   3
   0  -2   6 14422.4 1073.26   7
   0   2  -5 135.563 116.753   6
   0   2  -5-14.6617 55.7936   3
   0  -2   5 0.81555 34.6393   7
   0  -2   4 1188.05 260.345   7
   0   2  -4 1266.32 253.600   3
   0   2  -3 16455.7 860.318   3
   0  -2   3 15010.9 859.229   7
   0  -2   2 612559. 5116.37   7
   0   2   1 437965. 4168.68   3
   0   2   2 172926. 2786.93   3
   0   2   2 176659. 2015.40   5
   0   2   2 175471. 2981.64   7
   0   2   3 106041. 1664.97   5
   0  -2  -3 107861. 1728.70   5
   0   2   3 106899. 2510.25   7
   0   2   4 258038. 2769.99   5
   0   2   4 256434. 4255.92   7
   0  -2  -4 255835. 2970.99   5
   0   2   5 8835.59 563.809   5
   0   2   5 8643.89 837.323   7
   0  -2  -5 8881.53 598.695   5
   0   2   6 38387.2 1888.79   7
   0  -2  -6 34835.4 1303.20   5
   0   2   7 167.004 120.487   7
   0  -2  -7 84.4397 81.5367   6
   0  -2  -7 27.1841 43.6325   5
   0   2   8 28736.5 1861.20   7
   0  -2  -8 26078.2 1308.69   5
   0  -2  -8 26791.5 1589.11   6
   0   2   9 5121.81 831.012   7
   0  -2  -9 4930.78 730.938   6
   0  -2 -10 25226.3 1717.38   6
   0   2  10 25895.6 1976.99   7
   0   2  11 10257.9 1311.91   7
   0  -2 -11 9393.88 1100.56   6
   0  -2 -12 276.673 224.782   6
   0   2  12 593.364 345.007   7
   0  -2 -13 6187.73 976.127   6
   0   2  13 5973.30 1084.34   7
   0   2  14 91.5103 141.233   7
   0  -2 -14 121.142 290.775   6
   0  -2 -15 9178.53 1305.82   6
   0   2  15 10922.5 1634.58   7
   0  -2 -16 140.650 187.784   6
   0   2  16 460.462 314.832   7
   0   2  17 153.425 274.230   7
   0  -2 -17 328.865 246.259   6
   0   2  18 506.197 321.307   7
   0  -2 -18 598.137 250.753   6
   0  -2 -19 495.430 368.983   6
   0   2  19 440.706 410.738   7
   0  -2 -20-140.784 210.484   6
   0   2  20 662.462 528.354   7
   0   2  21-229.976 293.164   7
   0  -2 -21 179.756 265.477   6
   0   2  22-461.018 413.499   7
   0  -2 -22 573.257 518.669   6
   0  -2 -23 177.208 321.893   6
   0   2  23-708.844 524.547   7
   0  -2 -24-459.722 405.259   6
   0  -3  23-50.2495 157.374   7
   0   3 -22 416.293 284.317   3
   0  -3  22 292.173 390.934   7
   0   3 -21-614.847 392.876   3
   0  -3  21 634.683 493.045   7
   0  -3  20 475.286 375.971   7
   0   3 -20-146.667 179.374   3
   0   3 -19 48.8854 138.490   3
   0  -3  19-40.2097 180.852   7
   0   3 -19 414.032 250.668   6
   0   3 -18 136.183 226.617   3
   0   3 -18-435.107 328.209   6
   0  -3  18 119.966 279.494   7
   0   3 -17 2150.39 707.175   6
   0   3 -17 1673.78 581.830   3
   0  -3  17 1923.21 720.386   7
   0   3 -16 1565.18 576.138   6
   0  -3  16 1171.50 479.166   7
   0   3 -16 1340.72 520.491   3
   0   3 -15 3982.77 808.884   3
   0   3 -15 3289.55 848.577   6
   0  -3  15 4543.32 966.659   7
   0   3 -14-183.518 204.655   6
   0  -3  14 8.20997 97.5708   7
   0   3 -14-160.675 251.814   3
   0  -3  13-2.09958 201.176   7
   0   3 -13-111.181 222.667   6
   0   3 -12 3816.28 752.839   3
   0   3 -12 5117.74 891.432   6
   0  -3  12 4543.51 851.301   7
   0   3 -11 1041.01 372.459   6
   0  -3  11 1197.69 437.504   7
   0   3 -11 1057.36 340.123   3
   0   3 -10 8119.75 1013.56   6
   0   3 -10 9695.84 1058.26   3
   0  -3  10 9470.85 1120.39   7
   0   3  -9 623.679 262.286   3
   0   3  -9 501.581 274.046   6
   0  -3   9 509.521 261.196   7
   0  -3   8 3843.55 646.619   7
   0   3  -8 3328.00 562.151   3
   0   3  -7 562.202 244.367   3
   0  -3   7 340.431 196.172   7
   0   3  -7 453.273 96.8090   4
   0   3  -6 3766.19 542.007   3
   0  -3   6 2926.28 508.496   7
   0   3  -5 6596.37 689.561   3
   0  -3   5 6006.52 682.209   7
   0  -3   4 14615.3 1008.77   7
   0   3  -4 15247.4 995.658   3
   0   3  -3-21.0970 64.5819   3
   0  -3   3 65.9060 58.8117   7
   0   3  -2 5218.36 537.188   3
   0  -3   1 498.759 135.984   1
   0   3  -1 275.213 121.267   3
   0  -3   0-8.80888 33.6626   1
   0   3   0 76.8889 80.4932   1
   0   3   0 135.031 110.242   3
   0   3   1 3513.76 446.831   3
   0   3   1 3350.56 298.499   1
   0   3   2 1226.84 279.622   7
   0   3   2 1142.15 267.013   3
   0   3   2 1431.87 218.768   5
   0   3   3 8894.17 554.405   5
   0   3   3 9906.98 869.121   7
   0   3   4 1879.86 405.482   7
   0   3   4 1757.99 245.182   5
   0  -3  -4 2221.25 291.232   5
   0   3   5 3147.23 545.667   7
   0   3   5 2862.72 330.389   5
   0  -3  -5 2792.47 343.193   5
   0  -3  -6 4252.44 461.489   5
   0   3   6 4122.97 661.110   7
   0   3   6 4216.91 426.465   5
   0  -3  -7 9164.15 725.449   5
   0   3   7 9242.34 1050.43   7
   0   3   8 9522.46 1120.90   7
   0  -3  -8 8028.61 719.539   5
   0  -3  -9 1568.69 405.180   6
   0   3   9 1561.87 454.904   7
   0   3  10 4849.84 878.923   7
   0  -3 -10 4340.42 720.831   6
   0  -3 -11 58.8776 159.246   6
   0   3  11 596.952 345.793   7
   0  -3 -12 408.553 214.641   6
   0   3  12 127.314 141.986   7
   0   3  13 876.665 452.739   7
   0  -3 -13 968.448 333.429   6
   0  -3 -14 910.016 429.980   6
   0   3  14 1242.61 482.193   7
   0  -3 -15 25.6344 159.351   6
   0   3  15 328.835 198.849   7
   0  -3 -16 149.395 184.953   6
   0   3  16 25.4087 164.367   7
   0   3  17 990.900 599.849   7
   0  -3 -17 73.3049 94.4299   6
   0  -3 -18-63.1578 122.081   6
   0   3  18 186.277 388.361   7
   0   3  19 885.761 594.743   7
   0  -3 -19 277.969 290.235   6
   0   3  20-432.641 388.944   7
   0  -3 -20 1052.39 557.112   6
   0   3  21 170.293 403.346   7
   0  -3 -21 87.8576 284.923   6
   0  -3 -22 20.1695 123.278   6
   0   3  22 35.5603 312.487   7
   0   3  23 67.3247 201.969   7
   0  -3 -23-414.285 372.045   6
   0   4 -23-104.266 189.769   3
   0  -4  23 168.378 324.100   7
   0   4 -22 268.098 284.762   3
   0  -4  22 468.527 437.495   7
   0   4 -21-94.1307 172.109   3
   0  -4  21-106.817 150.482   7
   0  -4  20-186.873 169.608   7
   0   4 -20 690.847 406.290   3
   0   4 -19 771.220 441.810   3
   0  -4  19-17.9938 343.386   7
   0  -4  18 206.486 229.015   7
   0   4 -18 186.334 134.102   3
   0   4 -17-40.1976 123.594   3
   0  -4  17-146.850 397.404   7
   0   4 -16 4.59567 214.104   3
   0  -4  16-204.781 333.897   7
   0   4 -15 5190.91 955.041   3
   0  -4  15 3165.38 819.795   7
   0  -4  14 4848.55 957.531   7
   0   4 -14 2225.54 598.594   3
   0  -4  13 1822.14 577.518   7
   0   4 -13 2184.43 602.486   3
   0   4 -12 18792.7 1660.52   3
   0  -4  12 18859.1 1779.03   7
   0   4 -11 801.854 361.703   3
   0  -4  11 891.951 399.379   7
   0  -4  10 24852.0 1902.47   7
   0   4 -10 26605.9 1817.48   3
   0   4  -9 4816.29 754.694   3
   0  -4   9 6059.09 885.689   7
   0   4  -8 27900.3 1726.81   3
   0  -4   8 28786.9 1837.92   7
   0   4  -8 25967.4 827.743   4
   0   4  -7 33161.0 1815.73   3
   0  -4   7 32885.0 1878.17   7
   0  -4   6 15112.5 1225.93   7
   0   4  -6 14704.0 1170.76   3
   0  -4   5 77482.0 2671.63   7
   0   4  -5 76476.4 2550.06   3
   0  -4   4 97959.2 2899.68   7
   0   4  -4 99764.8 2809.76   3
   0   4  -3 864.443 262.114   3
   0   4  -2 335561. 4997.41   3
   0  -4   2 336143. 4087.19   1
   0   4  -1 175132. 3558.16   3
   0  -4   1 171019. 2778.10   1
   0   4   0 690.846 164.511   1
   0  -4   0 466.214 131.199   1
   0   4   0 665.483 225.610   3
   0   4   1 21378.4 855.881   1
   0   4   1 20287.2 1226.98   3
   0   4   2 6794.57 778.563   7
   0   4   2 6934.76 738.525   3
   0   4   3 8663.62 910.891   7
   0   4   3 6982.71 558.551   5
   0   4   3 7288.78 796.362   3
   0   4   4 72492.7 2745.85   7
   0   4   4 71529.0 1781.71   5
   0   4   5 775.694 277.095   7
   0   4   5 635.382 162.937   5
   0   4   6 38080.1 1330.50   5
   0   4   6 41524.9 2276.08   7
   0  -4  -6 39132.1 1433.45   5
   0  -4  -7 31303.3 1356.32   5
   0   4   7 31178.4 1239.35   5
   0   4   7 34766.4 2167.43   7
   0  -4  -8 36873.8 1564.94   5
   0   4   8 43952.1 2553.55   7
   0  -4  -9 26137.4 1393.96   5
   0   4   9 27348.0 2124.88   7
   0  -4 -10 3680.47 706.241   6
   0   4  10 4689.55 913.474   7
   0   4  11 621.349 409.800   7
   0  -4 -11 765.112 364.405   6
   0   4  12-132.077 311.941   7
   0  -4 -12 246.983 200.900   6
   0  -4 -13 6259.33 1009.94   6
   0   4  13 5650.12 1126.45   7
   0  -4 -14 152.720 115.932   6
   0   4  14 235.385 302.927   7
   0   4  15 830.454 516.131   7
   0  -4 -15 975.317 434.861   6
   0   4  16-434.374 354.044   7
   0  -4 -16 346.846 235.351   6
   0  -4 -17 865.119 484.478   6
   0   4  17 893.056 516.198   7
   0   4  18 218.990 239.935   7
   0  -4 -18 41.8041 175.653   6
   0   4  19 868.558 598.926   7
   0  -4 -19 661.058 442.243   6
   0   4  20 228.549 324.091   7
   0  -4 -20 42.1646 206.291   6
   0  -4 -21 1086.29 573.474   6
   0   4  21 205.453 187.035   7
   0   4  22-373.621 396.271   7
   0  -4 -22 166.103 314.983   6
   0   4  23 13.4434 471.628   7
   0  -4 -23-112.326 200.573   6
   0  -5  23 222.508 292.006   7
   0   5 -23-134.368 216.230   3
   0   5 -22-382.648 332.357   3
   0  -5  22 330.249 339.977   7
   0  -5  21-142.803 148.492   7
   0   5 -21 797.159 511.096   3
   0  -5  20-105.007 170.357   7
   0   5 -20 199.515 371.894   3
   0  -5  19 1111.70 566.095   7
   0   5 -19 887.556 467.205   3
   0  -5  18 790.949 520.708   7
   0   5 -18-156.663 204.630   3
   0   5 -17 137.429 220.251   3
   0  -5  17 238.585 430.846   7
   0  -5  16-283.369 281.040   7
   0   5 -16 110.607 143.532   3
   0  -5  15 1478.02 599.536   7
   0   5 -15 1355.54 528.447   3
   0   5 -14 5995.01 1018.83   3
   0  -5  14 7403.75 1229.52   7
   0  -5  13 308.902 314.160   7
   0   5 -13 379.479 323.732   3
   0  -5  12 8968.28 1243.37   7
   0   5 -12 8219.90 1142.29   3
   0   5 -11 244.626 291.763   3
   0  -5  11 99.0036 214.816   7
   0   5 -10 8231.06 1067.46   3
   0  -5  10 7063.62 1026.38   7
   0   5 -10 5459.39 369.961   4
   0   5  -9 5487.64 838.215   3
   0  -5   9 6431.95 951.448   7
   0   5  -8 15369.8 1362.05   3
   0  -5   8 15515.9 1433.27   7
   0  -5   7 4895.06 784.369   7
   0   5  -7 6274.35 843.781   3
   0   5  -6 822.717 278.556   3
   0  -5   6 787.214 314.591   7
   0  -5   5 1035.04 387.384   7
   0   5  -5 716.686 318.869   3
   0   5  -4 2515.66 486.506   3
   0   5  -3 2471.87 481.772   3
   0   5  -2 70.2714 129.091   3
   0  -5   2 207.359 120.385   1
   0  -5   1 1034.32 232.590   1
   0   5  -1 1006.89 305.037   3
   0   5   0 2409.94 481.253   3
   0   5   0 2604.01 347.422   1
   0   5   1 277.677 141.335   3
   0   5   1 498.783 145.853   1
   0   5   2 1170.95 217.089   1
   0   5   2 1405.22 394.457   7
   0   5   2 940.014 297.717   3
   0   5   3-23.4346 134.890   7
   0   5   3 177.424 105.451   5
   0   5   3 145.662 61.7563   3
   0   5   4 364.110 145.801   5
   0   5   4 295.939 107.516   7
   0   5   5 821.377 211.205   5
   0   5   5 801.471 285.678   7
   0   5   6 120.266 129.670   7
   0   5   6 103.277 46.7492   5
   0   5   7 258.315 85.1327   5
   0   5   7 91.5865 161.051   7
   0   5   8 8237.90 1156.20   7
   0   5   8 7886.40 653.546   5
   0  -5  -8 6942.11 672.768   5
   0  -5  -9 117.561 68.4837   5
   0   5   9 244.633 101.875   7
   0   5  10 762.581 423.751   7
   0   5  11 2913.10 761.756   7
   0  -5 -11 2687.41 640.663   6
   0   5  12 835.455 385.129   7
   0  -5 -12 1609.92 504.966   6
   0   5  13-45.3248 258.944   7
   0  -5 -13 59.3861 120.616   6
   0  -5 -14 158.683 246.411   6
   0   5  14-162.804 193.466   7
   0   5  15 919.059 485.640   7
   0  -5 -15 1527.92 575.223   6
   0  -5 -16 57.4169 231.999   6
   0   5  16 299.818 350.552   7
   0  -5 -17-80.8334 222.749   6
   0   5  17 538.047 339.455   7
   0  -5 -18 269.118 333.059   6
   0   5  18 201.360 275.060   7
   0  -5 -19 171.240 145.201   6
   0   5  19-204.660 279.478   7
   0  -5 -20-323.901 303.667   6
   0   5  20 974.138 674.880   7
   0  -5 -21 109.149 199.999   6
   0   5  21 408.637 506.949   7
   0   5  22 1.02790 157.437   7
   0  -5 -22 226.707 366.373   6
   0   6 -24 590.808 526.921   3
   0   6 -23-286.246 303.103   3
   0  -6  23 207.919 280.278   7
   0   6 -22-349.099 323.804   3
   0  -6  22 128.578 225.368   7
   0  -6  21-224.724 276.394   7
   0   6 -21-444.334 353.930   3
   0  -6  20 24.7105 165.774   7
   0   6 -20 208.868 283.710   3
   0   6 -19 968.707 505.406   3
   0  -6  19 1063.10 512.832   7
   0   6 -18 1532.36 604.373   3
   0  -6  18 996.868 505.665   7
   0   6 -17 489.961 331.776   3
   0  -6  17 786.665 461.862   7
   0  -6  16-39.3634 197.574   7
   0   6 -16-699.831 386.597   3
   0  -6  15 3886.86 897.499   7
   0   6 -15 4829.14 967.732   3
   0   6 -14 9640.62 1358.57   3
   0  -6  14 10835.5 1517.90   7
   0   6 -13 1863.23 565.047   3
   0  -6  13 2258.80 683.247   7
   0  -6  12 3013.32 741.625   7
   0   6 -12 3885.00 823.603   3
   0   6 -11 9745.10 523.269   4
   0   6 -11 12057.4 1388.12   3
   0  -6  11 12022.8 1438.00   7
   0  -6  10 868.343 374.690   7
   0   6 -10 1350.50 457.268   3
   0   6  -9 66482.8 3099.81   3
   0  -6   9 66517.4 3204.62   7
   0  -6   8 87335.2 3560.19   7
   0   6  -8 88913.5 3474.42   3
   0  -6   7 6093.87 895.886   7
   0   6  -7 6124.50 894.993   3
   0   6  -6 26189.9 1832.80   3
   0  -6   6 27092.1 1911.33   7
   0   6  -5 1135.75 385.440   3
   0   6  -4 17940.4 1446.73   3
   0   6  -3 3739.26 663.991   3
   0   6  -3 3477.17 274.168   2
   0   6  -2 11068.9 1101.68   3
   0   6  -1 76773.6 2933.28   3
   0   6   0 3374.24 665.097   3
   0   6   1 21.0584 59.4285   3
   0   6   1 285.455 137.223   1
   0   6   2 14255.3 1301.67   3
   0   6   2 12340.3 772.266   1
   0   6   2 13430.1 1324.02   7
   0   6   3 4694.31 878.135   7
   0   6   3 4622.46 588.670   5
   0   6   3 4241.17 761.100   3
   0   6   3 3610.54 427.682   1
   0   6   4 1332.33 447.377   3
   0   6   4 1466.92 306.443   5
   0   6   4 2118.18 564.962   7
   0   6   5-28.9127 57.3648   5
   0   6   5-81.6174 220.727   7
   0   6   6 7571.56 1126.22   7
   0   6   6 7197.33 668.731   5
   0   6   7 278.975 254.073   7
   0   6   7 164.939 53.3075   5
   0   6   8 2186.51 356.275   5
   0   6   8 2202.15 657.276   7
   0   6   9 13196.2 1601.93   7
   0   6   9 10629.1 787.210   5
   0   6  10 4370.48 993.780   7
   0   6  11 7881.56 1360.53   7
   0   6  12 2075.68 766.229   7
   0  -6 -12 1470.15 512.748   6
   0   6  13-44.0301 207.634   7
   0  -6 -13 39.4658 134.705   6
   0  -6 -14 3578.48 851.289   6
   0   6  14 4386.11 1120.83   7
   0  -6 -15 1976.79 636.967   6
   0   6  15 1215.11 618.465   7
   0   6  16-530.808 484.980   7
   0  -6 -16 143.099 363.513   6
   0   6  17 212.565 441.459   7
   0  -6 -17 156.228 236.777   6
   0   6  18 51.4994 175.843   7
   0  -6 -18 238.152 228.677   6
   0   6  19-137.022 242.514   7
   0  -6 -19 147.982 251.407   6
   0  -6 -20 36.0336 126.982   6
   0   6  20 105.456 358.884   7
   0  -6 -21 244.952 229.162   6
   0   6  21 722.850 572.694   7
   0   6  22 1115.53 778.322   7
   0   7 -24-505.784 412.327   3
   0   7 -23-198.008 263.417   3
   0  -7  23-455.954 410.774   7
   0  -7  22-158.026 246.569   7
   0   7 -22 352.541 340.220   3
   0   7 -21 11.1899 106.453   3
   0  -7  21 108.278 209.238   7
   0  -7  20 173.279 348.154   7
   0   7 -20-324.686 306.891   3
   0  -7  19 126.683 105.932   7
   0   7 -19 1284.67 614.841   3
   0  -7  18 1301.70 656.919   7
   0   7 -18 1816.50 682.350   3
   0  -7  17 427.143 255.236   7
   0   7 -17 1104.14 570.623   3
   0  -7  16 53.4760 264.501   7
   0   7 -16 411.148 345.804   3
   0  -7  15 3580.73 935.267   7
   0   7 -15 3632.47 919.707   3
   0   7 -14 5966.98 1124.19   3
   0  -7  14 6223.47 1172.55   7
   0  -7  13 4346.25 966.179   7
   0   7 -13 6216.65 1127.25   3
   0  -7  12 89.4556 191.851   7
   0   7 -12 239.562 165.425   3
   0   7 -11 626.004 348.835   3
   0  -7  11 947.216 428.605   7
   0  -7  10 1355.93 497.285   7
   0   7 -10 995.756 403.390   3
   0   7  -9 554.817 331.040   3
   0  -7   9 493.665 296.442   7
   0   7  -8 13343.8 1427.34   3
   0  -7   8 12729.9 1437.28   7
   0   7  -7 8367.63 1195.12   3
   0   7  -6 2053.52 549.962   3
   0   7  -5 1281.73 437.790   3
   0   7  -4 1963.66 247.943   2
   0   7  -4 2222.46 508.909   3
   0   7  -3 396.968 235.155   3
   0   7  -2 29.9871 119.218   3
   0   7  -1 206.598 158.840   3
   0   7   0 3795.31 779.719   3
   0   7   1 2427.11 570.521   3
   0   7   2 167.949 98.2377   1
   0   7   2 526.812 342.450   7
   0   7   2 281.110 200.488   3
   0   7   3 984.928 279.571   5
   0   7   3 565.947 275.760   3
   0   7   3 921.303 349.362   7
   0   7   3 1116.25 240.781   1
   0   7   4 793.797 219.854   5
   0   7   4 1045.64 243.437   1
   0   7   4 385.284 227.284   3
   0   7   4 747.804 353.662   7
   0   7   5 3221.05 753.999   7
   0   7   5 1789.18 369.370   5
   0   7   6 1364.21 486.346   7
   0   7   6 1907.69 392.469   5
   0   7   7 2628.38 792.893   7
   0   7   7 2320.94 397.069   5
   0   7   8 13.2190 58.0043   5
   0   7   8 123.439 196.758   7
   0   7   9 1151.03 520.007   7
   0   7   9 626.029 194.039   5
   0   7  10-197.729 282.142   7
   0   7  11-186.927 132.693   7
   0   7  12-41.4034 142.358   7
   0  -7 -12 181.982 251.854   6
   0   7  13 657.339 422.809   7
   0  -7 -13-468.334 296.493   6
   0   7  14 1578.83 706.463   7
   0  -7 -14 801.420 439.073   6
   0   7  15 179.490 156.819   7
   0  -7 -15-63.2349 152.589   6
   0   7  16 108.991 259.337   7
   0  -7 -16-109.514 199.051   6
   0  -7 -17 201.103 238.765   6
   0   7  17 614.534 393.458   7
   0   7  18 336.633 365.138   7
   0  -7 -18 242.857 228.573   6
   0  -7 -19-89.4735 169.604   6
   0   7  19 303.528 460.446   7
   0   7  20 506.254 535.192   7
   0   7  21 409.906 582.352   7
   0   8 -24 250.969 307.938   3
   0   8 -23-394.256 368.351   3
   0  -8  22-357.972 355.967   7
   0   8 -22-250.048 295.190   3
   0   8 -21 549.217 543.331   3
   0  -8  21 498.698 407.133   7
   0   8 -20 571.501 409.822   3
   0  -8  20 1180.43 652.850   7
   0  -8  19 766.106 567.692   7
   0   8 -19 259.166 270.317   3
   0   8 -18-90.2190 208.286   3
   0  -8  18 62.3501 138.610   7
   0   8 -17 9.08370 241.264   3
   0  -8  17 587.288 409.927   7
   0   8 -16 179.394 204.087   3
   0  -8  16-77.5675 183.735   7
   0  -8  15 2958.69 869.179   7
   0   8 -15 1104.82 435.977   3
   0   8 -14 20542.3 2117.59   3
   0  -8  14 17540.4 2014.28   7
   0  -8  13 29503.8 2569.38   7
   0   8 -13 35320.9 2703.80   3
   0   8 -12 501.016 296.163   3
   0  -8  12 143.233 261.048   7
   0  -8  11-116.197 191.741   7
   0   8 -11 644.691 400.620   3
   0  -8  10 624.614 367.576   7
   0   8 -10 448.425 313.523   3
   0   8  -9 516.151 324.558   3
   0  -8   9 299.051 202.396   7
   0   8  -8 5253.92 981.773   3
   0   8  -7 6170.97 1009.78   3
   0   8  -6 6057.83 982.128   3
   0   8  -5 1768.19 265.271   2
   0   8  -5 2384.69 635.234   3
   0   8  -4 6086.65 963.647   3
   0   8  -3 1771.06 519.503   3
   0   8  -2 3682.15 755.216   3
   0   8  -1 15719.5 1556.64   3
   0   8   0 2062.79 591.906   3
   0   8   1 32538.0 2266.93   3
   0   8   2 3916.73 797.004   3
   0   8   2 4585.83 892.198   7
   0   8   3 2351.38 484.623   5
   0   8   3 2519.04 383.263   1
   0   8   3 1773.78 566.515   7
   0   8   3 2658.64 667.863   3
   0   8   4 76512.1 3824.54   7
   0   8   4 75216.6 2645.29   5
   0   8   4 74889.4 2086.03   1
   0   8   4 77537.2 3659.05   3
   0   8   5 79928.5 2665.53   5
   0   8   5 78217.7 2133.13   1
   0   8   5 87675.1 4164.05   7
   0   8   6-35.1262 127.645   1
   0   8   6 182.394 104.726   5
   0   8   6 320.878 309.102   7
   0   8   7 2100.07 659.550   7
   0   8   7 1839.06 370.739   5
   0   8   8 6467.00 664.559   5
   0   8   8 6308.99 1188.61   7
   0   8   9 770.213 512.169   7
   0   8  10 323.023 265.904   7
   0   8  11-211.319 297.273   7
   0   8  12 597.300 378.611   7
   0   8  13 742.985 454.904   7
   0  -8 -13 727.176 381.822   6
   0  -8 -14 746.290 375.811   6
   0   8  14 115.539 311.802   7
   0  -8 -15 737.254 411.879   6
   0   8  15 651.022 429.660   7
   0  -8 -16 1190.78 550.111   6
   0   8  16 415.357 375.669   7
   0   8  17 364.022 416.802   7
   0  -8 -17 360.496 286.837   6
   0   8  18-0.97111 318.551   7
   0   8  19 107.649 225.471   7
   0   8  20-276.639 365.080   7
   0   9 -24 525.808 435.178   3
   0   9 -23 355.932 361.953   3
   0   9 -22-52.1469 159.659   3
   0  -9  22-738.608 514.851   7
   0   9 -21 271.095 372.642   3
   0  -9  21-374.934 363.061   7
   0   9 -20 177.822 404.234   3
   0  -9  20 19.9588 118.566   7
   0  -9  19 437.967 340.506   7
   0   9 -19 79.4239 154.528   3
   0  -9  18-472.835 381.707   7
   0   9 -18 490.748 325.823   3
   0  -9  17 254.252 351.900   7
   0   9 -17 472.653 398.091   3
   0  -9  16 1796.35 705.914   7
   0   9 -16 863.260 463.912   3
   0   9 -15 532.506 294.559   3
   0  -9  15 98.2991 250.012   7
   0   9 -14 1894.79 664.923   3
   0  -9  14 2220.95 739.791   7
   0   9 -13 540.428 413.401   3
   0  -9  13 1145.93 499.881   7
   0  -9  12-42.6522 146.897   7
   0   9 -12 753.157 447.468   3
   0   9 -11-165.452 111.065   3
   0  -9  11-767.031 416.982   7
   0   9 -10 63.4922 194.609   3
   0   9  -9 2791.20 723.433   3
   0   9  -8 2488.36 713.089   3
   0   9  -7 194.550 197.037   3
   0   9  -6 1124.91 415.229   3
   0   9  -6 1087.52 226.193   2
   0   9  -5 2442.86 686.286   3
   0   9  -4 271.700 215.684   3
   0   9  -3 298.650 212.320   3
   0   9  -2 3864.64 807.295   3
   0   9  -1 147.770 216.933   3
   0   9   0 588.228 361.303   3
   0   9   1 169.062 111.298   3
   0   9   2-451.749 458.497   7
   0   9   2-152.584 261.694   3
   0   9   3 4646.72 950.110   3
   0   9   3 4468.27 911.041   7
   0   9   3 4421.72 688.315   5
   0   9   4-281.713 190.062   7
   0   9   4 58.6030 107.796   5
   0   9   4-68.9529 278.434   3
   0   9   4-73.3808 61.2304   1
   0   9   5 1629.32 402.616   5
   0   9   5 2492.55 778.685   7
   0   9   5 2141.64 369.747   1
   0   9   6 202.631 277.230   7
   0   9   6 325.592 150.593   5
   0   9   7 1044.99 489.791   7
   0   9   8 967.541 535.181   7
   0   9   9 480.205 439.596   7
   0   9  10-771.041 461.528   7
   0   9  11 498.966 400.336   7
   0   9  12-188.354 307.658   7
   0   9  13 432.206 438.614   7
   0  -9 -13 274.057 257.714   6
   0  -9 -14-167.805 270.785   6
   0   9  14 424.442 454.254   7
   0   9  15 37.6201 332.449   7
   0  -9 -15-80.5919 147.368   6
   0   9  16 43.3223 163.164   7
   0   9  17 677.889 557.618   7
   0   9  18-849.392 599.027   7
   0  10 -24 305.076 345.015   3
   0  10 -23-158.019 253.827   3
   0  10 -22-0.84306 367.942   3
   0 -10  22-428.980 404.097   7
   0 -10  21 484.710 526.921   7
   0  10 -21 193.395 312.061   3
   0 -10  20 57.3558 168.787   7
   0  10 -20-157.612 238.789   3
   0  10 -19 284.547 319.813   3
   0 -10  19-69.2415 222.469   7
   0 -10  18 340.528 334.905   7
   0  10 -18 321.843 273.629   3
   0  10 -17 1426.38 615.892   3
   0 -10  17 588.858 498.706   7
   0 -10  16 426.957 418.222   7
   0  10 -16 179.740 327.390   3
   0 -10  15 934.713 568.377   7
   0  10 -15 196.292 254.999   3
   0 -10  14 442.569 263.734   7
   0  10 -14 985.562 507.043   3
   0  10 -13 111.181 262.623   3
   0  10 -12 451.423 373.931   3
   0  10 -11-3.86522 158.417   3
   0  10 -10 14972.5 1826.01   3
   0  10  -9 5036.89 1026.69   3
   0  10  -8 2335.07 679.020   3
   0  10  -7 4691.27 956.724   3
   0  10  -6 2062.88 674.216   3
   0  10  -5 2405.07 683.252   3
   0  10  -4 723.765 365.185   3
   0  10  -3 620.790 366.633   3
   0  10  -2 1565.26 573.803   3
   0  10  -1 321.643 242.599   3
   0  10   0 16174.7 1802.06   3
   0  10   1 13970.1 1670.13   3
   0  10   1 14313.9 1762.07   7
   0  10   2 4823.38 975.074   3
   0  10   2 5414.01 1042.35   7
   0  10   3 642.340 355.577   7
   0  10   3 583.827 407.259   3
   0  10   3 853.196 343.345   5
   0  10   4-274.078 318.146   3
   0  10   4-109.983 108.934   5
   0  10   4 160.151 276.610   7
   0  10   5 13882.9 1240.86   5
   0  10   5 15541.3 1959.26   7
   0  10   6 8728.29 1524.20   7
   0  10   7 1208.58 673.307   7
   0  10   8-246.497 120.709   7
   0  10   9 2307.04 842.877   7
   0  10  10 1223.59 638.498   7
   0  10  11 577.004 338.966   7
   0  10  12 818.442 537.506   7
   0  10  13 739.714 576.410   7
   0  10  14-223.466 292.928   7
   0  10  15-755.765 540.877   7
   0  10  16-733.412 543.268   7
   0  10  17 315.843 359.278   7
   0  11 -23 237.961 312.601   3
   0  11 -22 398.702 386.765   3
   0 -11  22 359.948 376.759   7
   0  11 -21 471.701 456.222   3
   0 -11  21-185.673 279.864   7
   0 -11  20 113.214 363.557   7
   0  11 -20 216.233 281.649   3
   0  11 -19 341.252 540.243   3
   0 -11  19 382.650 505.920   7
   0  11 -18 384.795 353.331   3
   0 -11  18 124.704 214.167   7
   0 -11  17 17.7961 119.568   7
   0  11 -17-413.299 495.226   3
   0  11 -16 1331.58 683.768   3
   0  11 -15 121.356 340.738   3
   0  11 -14 455.988 368.115   3
   0  11 -13-226.086 281.106   3
   0  11 -12 51.0830 158.443   3
   0  11 -11 891.548 426.229   3
   0  11 -10 1154.52 493.082   3
   0  11  -9 815.798 471.251   3
   0  11  -8 484.683 299.664   3
   0  11  -7-52.4301 409.946   3
   0  11  -6 321.800 239.426   3
   0  11  -5 1027.28 484.652   3
   0  11  -4-208.916 268.934   3
   0  11  -3 216.365 194.805   3
   0  11  -2 739.374 370.165   3
   0  11  -1 1552.80 638.594   3
   0  11   0 3359.83 914.095   3
   0  11   1-39.4081 196.359   7
   0  11   1 784.576 422.809   3
   0  11   2 2235.74 685.395   7
   0  11   2 2286.83 731.017   3
   0  11   3 758.972 492.574   3
   0  11   3 372.963 286.152   5
   0  11   3 893.856 497.240   7
   0  11   4 363.043 284.797   7
   0  11   4 471.801 378.167   3
   0  11   4 1120.61 376.195   5
   0  11   5 167.753 122.905   7
   0  11   6 265.001 257.316   7
   0  11   7 599.800 379.114   7
   0  11   8-383.754 345.299   7
   0  11   9-36.1683 215.834   7
   0  11  10 656.919 504.587   7
   0  11  11 85.4251 195.582   7
   0  11  12-148.001 244.645   7
   0  11  13 41.0954 214.632   7
   0  11  14 299.062 424.049   7
   0  11  15-217.804 317.090   7
   0  12 -22 22.6020 423.201   3
   0 -12  21 250.405 360.596   7
   0  12 -21 109.943 228.517   3
   0  12 -20 1220.91 677.515   3
   0  12 -19 226.951 212.739   3
   0  12 -18 1075.63 553.828   3
   0  12 -17 446.594 453.642   3
   0  12 -16 671.768 455.706   3
   0  12 -15 648.188 469.248   3
   0  12 -14 76.2017 301.297   3
   0  12 -13 217.563 335.334   3
   0  12 -12 432.417 277.412   3
   0  12 -11 1158.23 601.385   3
   0  12 -10 117.906 202.185   3
   0  12  -9 3389.48 917.757   3
   0  12  -8 27.9255 222.858   3
   0  12  -7-156.289 240.170   3
   0  12  -6 2765.58 851.744   3
   0  12  -5 2825.45 863.904   3
   0  12  -4 666.343 457.081   3
   0  12  -3 456.980 354.975   3
   0  12  -2 416.622 279.763   3
   0  12  -1 8470.78 1438.08   3
   0  12   0 28362.8 2657.88   3
   0  12   0 29214.9 2742.64   7
   0  12   1 10090.3 1634.50   7
   0  12   1 9485.97 1609.58   3
   0  12   2 2735.94 901.544   7
   0  12   2 1001.82 541.072   3
   0  12   3 3148.32 896.565   3
   0  12   3 5142.45 1200.87   7
   0  12   4 1051.08 609.480   7
   0  12   4 305.499 207.173   3
   0  12   5 81.8584 210.704   7
   0  12   6 573.488 380.866   7
   0  12   7 1232.14 599.140   7
   0  12   8 783.581 657.945   7
   0  12   9-304.726 334.689   7
   0  12  10-238.402 303.642   7
   0  12  11-0.90164 331.931   7
   0  12  12 247.770 175.642   7
   0  12  13 1255.08 644.971   7
   0  12  14-143.677 264.162   7
   0  13 -20-666.845 510.031   3
   0  13 -19-8.15408 119.397   3
   0  13 -18 634.636 923.019   3
   0  13 -17-182.908 271.161   3
   0  13 -16 633.093 500.443   3
   0  13 -15 258.173 238.639   3
   0  13 -14 238.487 276.187   3
   0  13 -13 585.978 460.945   3
   0  13 -12-63.0536 304.910   3
   0  13 -11 384.391 357.846   3
   0  13 -10 1431.45 630.466   3
   0  13  -9 1097.48 627.636   3
   0  13  -8 1076.32 594.891   3
   0  13  -7 2931.73 886.853   3
   0  13  -6 275.817 350.318   3
   0  13  -5-13.8708 354.604   3
   0  13  -4 603.358 257.719   3
   0  13  -3 625.350 524.647   3
   0  13  -2 191.518 315.107   3
   0  13  -1-114.537 244.918   3
   0  13   0 587.772 417.139   3
   0  13   0-20.3311 162.330   7
   0  13   1 1922.84 796.081   3
   0  13   1 1296.06 629.007   7
   0  13   2 276.028 262.755   7
   0  13   2 756.389 527.586   3
   0  13   3 791.038 486.971   3
   0  13   3 1865.15 840.615   7
   0  13   4-14.2941 258.074   3
   0  13   4-8.44739 216.915   7
   0  13   5 325.858 310.400   7
   0  13   6 870.029 585.012   7
   0  13   7-260.592 314.980   7
   0  13   8-267.643 314.618   7
   0  13   9 593.461 528.375   7
   0  13  10 728.223 512.349   7
   0  13  11-203.459 296.229   7
   0  13  12 234.483 388.898   7
   0  14 -19 330.486 168.435   3
   0  14 -18-189.493 288.414   3
   0  14 -17 740.768 536.099   3
   0  14 -16 2020.02 874.246   3
   0  14 -15 2349.57 921.448   3
   0  14 -14 1479.89 719.265   3
   0  14 -13-1152.09 625.635   3
   0  14 -12-365.530 492.998   3
   0  14 -11 1052.46 573.586   3
   0  14 -10 2659.73 898.882   3
   0  14  -9 46.4222 345.170   3
   0  14  -8 150.173 299.129   3
   0  14  -7 2788.53 962.797   3
   0  14  -6 1712.20 726.679   3
   0  14  -5-173.504 221.501   3
   0  14  -4-123.561 409.422   3
   0  14  -3 1147.88 542.680   3
   0  14  -2 372.177 295.492   3
   0  14  -1 1294.23 656.942   7
   0  14  -1 927.032 528.272   3
   0  14   0 3289.89 1022.84   7
   0  14   0 2067.95 779.406   3
   0  14   1 1662.33 665.515   3
   0  14   1 801.580 460.685   7
   0  14   2 124.635 452.505   3
   0  14   2 556.845 503.682   7
   0  14   3 477.181 410.381   7
   0  14   3-197.759 487.531   3
   0  14   4-454.971 392.329   3
   0  14   4 856.385 646.878   7
   0  14   5 305.754 343.337   7
   0  14   6 371.983 303.100   7
   0  14   7 612.412 563.214   7
   0  14   8 1021.36 629.623   7
   0  14   9 854.284 559.942   7
   0  14  10 173.660 285.789   7
   0  15 -16-478.677 443.047   3
   0  15 -15 901.755 647.651   3
   0  15 -14 33.7601 349.154   3
   0  15 -13-5.35217 118.362   3
   0  15 -12 7.86483 342.645   3
   0  15 -11 777.229 454.101   3
   0  15 -10 1713.91 752.782   3
   0  15  -9 886.255 455.020   3
   0  15  -8 318.998 613.970   3
   0  15  -7 538.497 457.629   3
   0  15  -6-117.659 221.735   3
   0  15  -5-580.149 443.111   3
   0  15  -4 1397.55 697.230   3
   0  15  -3 638.289 283.464   3
   0  15  -2-215.895 281.875   3
   0  15  -2 2.48726 424.988   7
   0  15  -1 57.0029 127.098   3
   0  15  -1-434.060 390.696   7
   0  15   0 163.224 255.396   3
   0  15   0-187.945 328.441   7
   0  15   1-309.081 146.746   7
   0  15   1 528.429 456.571   3
   0  15   2 15.0176 225.107   7
   0  15   2-276.694 237.375   3
   0  15   3-325.299 348.800   3
   0  15   3-667.166 501.488   7
   0  15   4 34.1433 114.514   7
   0  15   5-949.439 607.073   7
   0  15   6-668.277 514.286   7
   0  15   7-88.8840 223.869   7
   0  16 -14 16.7262 293.986   3
   0  16 -13-296.611 356.089   3
   0  16 -12 449.680 438.078   3
   0  16 -11 1054.44 636.399   3
   0  16 -10 387.536 627.353   3
   0  16  -9 300.166 300.318   3
   0  16  -8 1434.80 735.169   3
   0  16  -7-167.832 168.085   3
   0  16  -6-722.528 513.196   3
   0  16  -5 232.842 229.625   3
   0  16  -4-495.376 431.020   3
   0  16  -3 834.069 577.831   7
   0  16  -3 502.308 442.308   3
   0  16  -2 632.482 440.891   7
   0  16  -2 970.532 611.061   3
   0  16  -1 1983.40 913.127   3
   0  16  -1 328.059 525.064   7
   0  16   0 625.237 508.945   3
   0  16   0 377.752 235.236   7
   0  16   1 299.155 357.005   7
   0  16   1-125.000 233.782   3
   0  16   2-321.034 358.287   3
   0  16   2-139.872 257.529   7
   0  16   3-261.540 327.927   3
   0  16   3-62.0773 160.934   7
   0  16   4 569.193 615.288   7
   0  17  -9 383.084 402.661   3
   0  17  -8 60.5396 445.449   3
   0  17  -7 209.012 267.365   3
   0  17  -6-772.655 556.299   3
   0  17  -5-581.191 488.114   3
   0  17  -4-21.4582 262.096   7
   0  17  -4 33.9018 161.043   3
   0  17  -3-55.9442 175.532   7
   0  17  -3 492.794 542.568   3
   0  17  -2 381.331 340.022   7
   0  17  -2 485.853 443.542   3
   0  17  -1 279.613 406.034   7
   0  17  -1-133.778 245.537   3
   0  17   0 177.589 301.458   3
   0  17   1 168.412 247.828   3
   0  17   2 2.00353 202.367   3
  -1  17   3 947.186 615.089   3
  -1  17   2 396.354 195.048   3
  -1  17   1 111.936 232.315   3
  -1  17   0 501.519 369.160   3
  -1  17   0 551.008 581.186   7
  -1  17  -1-610.445 491.620   3
  -1  17  -1 179.634 210.386   7
  -1  17  -2 270.149 325.261   7
  -1  17  -2 861.473 579.820   3
  -1  17  -3-531.217 463.306   3
  -1  17  -3-352.114 376.729   7
  -1  17  -4-59.9435 111.094   3
  -1  17  -4 283.146 417.926   7
  -1  17  -5 309.656 319.660   3
  -1  17  -6 968.779 616.738   3
  -1  17  -7-88.4564 204.955   3
  -1  17  -8 363.938 392.206   3
  -1  17  -9 581.072 581.587   3
  -1  16   4 82.6161 466.757   7
  -1  16   4 397.381 608.299   3
  -1  16   3-973.101 624.704   7
  -1  16   3 306.287 345.527   3
  -1  16   2 350.692 366.289   3
  -1  16   2-660.134 508.561   7
  -1  16   1 591.719 485.906   3
  -1  16   1 448.563 418.493   7
  -1  16   0-333.455 357.395   3
  -1  16   0-611.219 484.411   7
  -1  16  -1 527.230 338.173   3
  -1  16  -1 259.624 438.105   7
  -1  16  -2-15.6922 193.322   3
  -1  16  -2 636.529 510.784   7
  -1  16  -3-522.710 438.749   3
  -1  16  -3 75.9455 315.972   7
  -1  16  -4 248.364 259.440   3
  -1  16  -5 61.7653 168.237   3
  -1  16  -6-232.704 146.021   3
  -1  16  -7 90.0256 298.687   3
  -1  16  -8 1198.10 689.200   3
  -1  16  -9 570.072 604.434   3
  -1  16 -10 68.9199 216.735   3
  -1  16 -11 397.299 434.327   3
  -1  16 -12 700.005 678.891   3
  -1  16 -13-216.436 309.218   3
  -1  15   7 255.377 427.312   7
  -1  15   6 548.844 467.264   7
  -1  15   5-597.398 485.399   7
  -1  15   4-194.417 268.108   3
  -1  15   4 543.576 447.677   7
  -1  15   3 1460.63 666.297   3
  -1  15   3 1815.32 825.904   7
  -1  15   2 940.461 581.463   3
  -1  15   2 1881.87 851.636   7
  -1  15   1 69.3007 217.369   3
  -1  15   1-716.478 495.201   7
  -1  15   0 280.114 164.101   3
  -1  15   0 908.285 566.316   7
  -1  15  -1 132.301 282.369   7
  -1  15  -1 391.121 300.570   3
  -1  15  -2 164.522 220.800   7
  -1  15  -2-71.1312 184.766   3
  -1  15  -3 272.290 130.250   3
  -1  15  -4-161.472 329.673   3
  -1  15  -5 348.404 316.058   3
  -1  15  -6 59.9534 278.711   3
  -1  15  -7 757.198 467.319   3
  -1  15  -8 2218.82 839.591   3
  -1  15  -9 1424.58 714.058   3
  -1  15 -10-167.233 264.515   3
  -1  15 -11 225.631 366.892   3
  -1  15 -12 645.420 453.382   3
  -1  15 -13-48.5820 177.051   3
  -1  15 -14-795.807 551.677   3
  -1  15 -15 251.721 328.830   3
  -1  15 -16-107.808 240.766   3
  -1  14  10 310.634 371.340   7
  -1  14   9 137.933 253.239   7
  -1  14   8 481.622 577.532   7
  -1  14   7 478.214 149.819   7
  -1  14   6 598.192 559.793   7
  -1  14   5 53.1879 241.170   7
  -1  14   4-30.1015 145.156   7
  -1  14   4 265.760 295.919   3
  -1  14   3 304.237 259.947   7
  -1  14   3 325.693 363.634   3
  -1  14   2 328.706 226.775   3
  -1  14   2 89.1460 434.360   7
  -1  14   1-516.645 412.540   7
  -1  14   1 146.296 156.382   3
  -1  14   0 465.777 432.763   7
  -1  14   0 78.2750 220.121   3
  -1  14  -1 880.180 470.276   3
  -1  14  -1 481.614 366.398   7
  -1  14  -2 2180.63 853.708   7
  -1  14  -2 87.9820 364.665   3
  -1  14  -3 349.410 347.897   3
  -1  14  -4 1356.10 690.831   3
  -1  14  -5 132.833 258.128   3
  -1  14  -6 226.926 434.001   3
  -1  14  -7 730.069 500.163   3
  -1  14  -8 617.950 411.472   3
  -1  14  -9-301.433 350.272   3
  -1  14 -10 187.882 355.691   3
  -1  14 -11 75.4078 137.478   3
  -1  14 -12-111.395 265.833   3
  -1  14 -13-370.987 366.175   3
  -1  14 -14-750.681 516.756   3
  -1  14 -15-109.025 369.721   3
  -1  14 -16 19.8715 177.680   3
  -1  14 -17-817.081 561.673   3
  -1  14 -18-810.468 562.442   3
  -1  13  12 241.763 332.146   7
  -1  13  11-693.545 528.571   7
  -1  13  10-878.542 583.819   7
  -1  13   9 81.9323 403.909   7
  -1  13   8 6.89154 112.722   7
  -1  13   7 152.419 244.120   7
  -1  13   6 144.847 298.591   7
  -1  13   5 273.218 335.185   7
  -1  13   5-99.3892 350.774   3
  -1  13   4-166.993 195.384   7
  -1  13   4-148.714 266.709   3
  -1  13   3-161.798 309.498   3
  -1  13   3-246.925 393.264   7
  -1  13   2 695.189 478.285   7
  -1  13   2 115.398 124.893   3
  -1  13   1 1602.03 748.561   7
  -1  13   1 1645.12 751.348   3
  -1  13   0-142.396 206.485   3
  -1  13   0 214.332 220.980   7
  -1  13  -1 1661.05 633.532   3
  -1  13  -1 904.690 537.272   7
  -1  13  -2 261.011 157.034   3
  -1  13  -3 1607.16 661.747   3
  -1  13  -4 2499.13 795.749   3
  -1  13  -5 476.053 448.815   3
  -1  13  -6 2302.17 847.127   3
  -1  13  -7 1131.48 645.386   3
  -1  13  -8 11333.6 1801.67   3
  -1  13  -9 8400.70 1598.63   3
  -1  13 -10 1962.25 804.427   3
  -1  13 -11 374.727 388.269   3
  -1  13 -12 2457.81 952.169   3
  -1  13 -13 2591.37 875.373   3
  -1  13 -14-117.661 193.222   3
  -1  13 -15 1145.79 641.830   3
  -1  13 -16-737.905 509.638   3
  -1  13 -17-56.3980 201.876   3
  -1  13 -18 138.688 195.171   3
  -1  13 -19 1463.19 778.134   3
  -1  13 -20 196.109 414.739   3
  -1  12  14 1813.36 921.423   7
  -1  12  13-19.8740 127.939   7
  -1  12  12 171.919 383.493   7
  -1  12  11 17.2236 218.302   7
  -1  12  10 802.640 561.830   7
  -1  12   9 959.850 649.096   7
  -1  12   8 163.343 334.298   7
  -1  12   7 1342.89 624.231   7
  -1  12   6-19.0746 208.646   7
  -1  12   5 701.542 531.505   7
  -1  12   5-41.0695 135.360   3
  -1  12   4 654.604 354.110   7
  -1  12   4 1450.66 570.383   3
  -1  12   3 523.434 415.302   7
  -1  12   3 16.3912 146.149   3
  -1  12   2 1349.03 633.271   3
  -1  12   2 965.738 517.905   7
  -1  12   1 1039.72 562.719   7
  -1  12   1-81.6323 147.604   3
  -1  12   0 656.720 379.123   3
  -1  12   0 867.214 576.022   7
  -1  12  -1 313.096 189.943   3
  -1  12  -2-224.254 306.424   3
  -1  12  -3 455.831 345.219   3
  -1  12  -4 1351.32 537.053   3
  -1  12  -5 543.304 395.520   3
  -1  12  -6-151.036 151.726   3
  -1  12  -7-20.7507 264.482   3
  -1  12  -8 4057.57 1017.06   3
  -1  12  -9 1453.12 632.459   3
  -1  12 -10 595.150 422.224   3
  -1  12 -11 73.5421 226.967   3
  -1  12 -12-373.381 389.998   3
  -1  12 -13 539.557 400.254   3
  -1  12 -14-47.4956 109.942   3
  -1  12 -15 15.8520 205.401   3
  -1  12 -16 420.818 403.439   3
  -1  12 -17 469.005 388.560   3
  -1  12 -18 91.2478 203.141   3
  -1  12 -19-181.067 392.774   3
  -1  12 -20 65.6252 340.360   3
  -1  12 -21 13.9927 122.935   3
  -1  11  15-404.596 418.069   7
  -1  11  14 214.967 315.574   7
  -1  11  13 718.077 599.820   7
  -1  11  12-93.8658 343.644   7
  -1  11  11 404.974 440.124   7
  -1  11  10 1049.76 718.459   7
  -1  11   9 587.015 400.269   7
  -1  11   8 196.110 272.083   7
  -1  11   7-12.4160 168.773   7
  -1  11   6 532.027 364.853   7
  -1  11   5 3190.05 855.594   3
  -1  11   5 3985.58 1039.86   7
  -1  11   4 8918.13 1509.95   7
  -1  11   4 10877.6 1584.51   3
  -1  11   3 2097.58 754.242   7
  -1  11   3 4223.86 987.116   3
  -1  11   2 7258.43 1302.91   7
  -1  11   2 5380.92 1095.23   3
  -1  11   1 244.802 192.852   7
  -1  11   1 166.957 129.290   3
  -1  11   0 47.0635 193.322   7
  -1  11   0 567.860 451.896   3
  -1  11  -1 5739.81 1108.33   3
  -1  11  -2 1041.02 512.441   3
  -1  11  -3 919.815 400.238   3
  -1  11  -4-364.489 222.925   3
  -1  11  -5 42.0613 133.576   3
  -1  11  -6 604.082 396.397   3
  -1  11  -7 7934.33 1360.05   3
  -1  11  -8 9537.32 1476.59   3
  -1  11  -9 239.059 300.019   3
  -1  11 -10 2289.88 697.377   3
  -1  11 -11 5132.11 1147.57   3
  -1  11 -12 1960.64 725.828   3
  -1  11 -13-213.118 257.112   3
  -1  11 -14 473.560 331.150   3
  -1  11 -15 570.166 377.067   3
  -1  11 -16 328.499 352.362   3
  -1  11 -17-100.389 155.294   3
  -1  11 -18 382.718 242.268   3
  -1  11 -19 405.509 391.664   3
   1 -11  19 2.39016 256.079   7
   1 -11  20-175.756 267.133   7
  -1  11 -20 590.335 476.085   3
  -1  11 -21-523.534 440.139   3
  -1  11 -22-504.966 443.813   3
  -1  10  17 215.278 327.474   7
  -1  10  16 38.0275 340.122   7
  -1  10  15-770.703 550.845   7
  -1  10  14-167.482 391.745   7
  -1  10  13-289.040 331.633   7
  -1  10  12-84.3884 194.629   7
  -1  10  11 437.025 353.719   7
  -1  10  10 1352.04 550.914   7
  -1  10   9-186.122 312.841   7
  -1  10   8 1879.67 749.914   7
  -1  10   7 2268.88 760.316   7
  -1  10   6 3907.17 960.502   7
  -1  10   5 5048.76 680.218   1
  -1  10   5 4709.98 996.336   3
  -1  10   5 5882.12 1194.04   7
  -1  10   4 12365.1 1699.77   7
  -1  10   4 11907.9 1045.85   1
  -1  10   4 11296.6 1535.68   3
  -1  10   4 10071.5 992.398   5
  -1  10   3 857.173 396.963   7
  -1  10   3 182.493 104.816   1
  -1  10   3 725.683 408.079   3
  -1  10   2 2597.07 771.612   7
  -1  10   2 2706.21 512.452   1
  -1  10   2 3164.79 772.963   3
   1 -10  -1 332.475 101.466   2
  -1  10   1 62.7345 205.507   7
  -1  10   1 92.0561 228.568   3
  -1  10   0 4482.98 936.313   3
  -1  10  -1 2638.85 722.015   3
  -1  10  -2 83.4575 230.447   3
  -1  10  -3-169.880 205.579   3
  -1  10  -4 2824.46 723.819   3
  -1  10  -5 3624.31 850.298   3
  -1  10  -6-326.784 385.643   3
  -1  10  -7 32.9132 185.175   3
  -1  10  -8-372.551 350.222   3
  -1  10  -9 877.109 369.568   3
  -1  10 -10 1434.56 621.397   3
  -1  10 -11 339.191 267.852   3
  -1  10 -12 649.154 389.449   3
  -1  10 -13 413.328 360.298   3
  -1  10 -14 2031.30 713.308   3
  -1  10 -15 180.330 325.288   3
   1 -10  15 401.344 361.112   7
   1 -10  16 91.2292 308.707   7
  -1  10 -16-362.878 329.317   3
   1 -10  17 280.019 267.938   7
  -1  10 -17 381.937 422.730   3
  -1  10 -18-106.641 230.095   3
   1 -10  18 446.336 395.398   7
   1 -10  19 271.572 298.163   7
  -1  10 -19 67.2188 173.003   3
  -1  10 -20 171.699 325.078   3
   1 -10  20 380.658 270.109   7
  -1  10 -21-298.504 331.841   3
  -1  10 -22 170.969 346.650   3
  -1  10 -23-378.254 384.068   3
  -1   9  18-661.411 538.725   7
  -1   9  17 478.628 425.643   7
  -1   9  16 44.8944 158.648   7
  -1   9  15 1037.24 650.068   7
  -1   9  14 51.8607 110.760   7
  -1   9  13 289.086 352.318   7
   1  -9 -13-208.474 199.946   6
   1  -9 -12 473.092 283.015   6
  -1   9  12-6.73669 263.367   7
  -1   9  11-14.8657 192.781   7
  -1   9  10-191.573 453.545   7
  -1   9   9 1022.22 513.807   7
  -1   9   8 1582.27 565.511   7
  -1   9   7-69.2031 375.242   7
  -1   9   6 307.062 290.862   7
  -1   9   6 101.596 115.507   5
  -1   9   6-91.3695 148.706   1
  -1   9   5 5846.86 1045.56   3
  -1   9   5 6113.76 737.436   1
  -1   9   5 5186.91 633.275   5
  -1   9   5 6071.61 1178.71   7
  -1   9   4 360.417 184.366   1
  -1   9   4 21.1711 227.258   7
  -1   9   4 124.976 110.416   5
  -1   9   3 5111.57 986.526   7
  -1   9   3 5673.50 715.026   1
  -1   9   3 5074.05 928.758   3
  -1   9   2-19.5460 122.212   7
  -1   9   2 335.997 286.374   3
  -1   9   2-17.1191 92.8660   1
  -1   9   1 332.328 178.007   1
  -1   9   1 166.717 124.986   3
   1  -9  -1 225.377 100.920   2
  -1   9   1 244.251 131.886   7
  -1   9   0 544.932 257.461   3
  -1   9  -1 18.2229 143.740   3
  -1   9  -2 1495.27 500.693   3
  -1   9  -3 2877.60 686.799   3
  -1   9  -4 1784.05 528.118   3
  -1   9  -5 3481.76 784.695   3
  -1   9  -5 3429.65 424.496   2
  -1   9  -6 2313.93 661.309   3
  -1   9  -6 2086.69 375.894   2
  -1   9  -7 3180.60 835.284   3
  -1   9  -8 6298.08 1101.62   3
  -1   9  -9 258.759 250.948   3
  -1   9 -10 5350.66 1053.42   3
  -1   9 -11 2834.40 777.525   3
  -1   9 -12 8027.33 1380.65   3
   1  -9  13 2677.19 769.609   7
  -1   9 -13 2879.13 848.681   3
   1  -9  14 7847.09 1364.63   7
  -1   9 -14 9890.96 1544.07   3
   1  -9  15 4385.06 1036.53   7
  -1   9 -15 5239.21 1164.04   3
   1  -9  16 631.244 484.103   7
  -1   9 -16 12.8049 216.458   3
  -1   9 -17 4212.62 1060.40   3
   1  -9  17 3810.64 1031.38   7
  -1   9 -18 1528.64 614.810   3
   1  -9  18 156.287 207.769   7
   1  -9  19 430.757 336.747   7
  -1   9 -19 161.508 155.527   3
  -1   9 -20 355.627 347.376   3
   1  -9  20-464.162 385.210   7
  -1   9 -21 95.5980 202.057   3
  -1   9 -22-597.070 460.186   3
  -1   9 -23 629.813 479.012   3
  -1   9 -24 15.5613 181.354   3
  -1   8  19 747.058 607.554   7
  -1   8  18-80.9999 204.047   7
  -1   8  17-154.346 262.766   7
  -1   8  16-519.453 438.602   7
   1  -8 -15 99.5924 104.738   6
  -1   8  15 313.703 309.306   7
   1  -8 -14 661.284 329.021   6
  -1   8  14 906.511 520.904   7
   1  -8 -13 1706.93 547.143   6
  -1   8  13 1024.79 548.973   7
   1  -8 -12-182.450 217.238   6
  -1   8  12-182.206 219.650   7
  -1   8  11 837.403 485.453   7
  -1   8  10 285.222 202.139   7
  -1   8   9 55.0790 131.879   7
  -1   8   8 3453.43 873.569   7
  -1   8   7 846.422 445.134   7
  -1   8   7 569.248 157.828   5
  -1   8   6 10979.5 783.278   5
  -1   8   6 11085.9 1516.28   7
  -1   8   5 516.181 290.500   3
  -1   8   5 493.318 234.386   7
  -1   8   5 652.636 191.915   5
  -1   8   4 11991.3 1364.30   3
  -1   8   4 11201.2 894.882   5
  -1   8   4 10920.2 971.529   1
  -1   8   3 103.858 143.744   7
  -1   8   3-173.625 264.801   3
  -1   8   3 203.418 105.716   1
  -1   8   2 9052.85 889.810   1
  -1   8   2 10214.5 1249.71   3
  -1   8   2 9464.74 1281.73   7
  -1   8   1 105.891 116.873   1
  -1   8   1 4.25799 216.171   3
  -1   8   1 87.2755 102.314   7
  -1   8   0 14615.9 1476.60   3
   1  -8   0 13673.7 652.385   2
  -1   8   0 14941.5 1162.64   1
  -1   8  -1 377.709 220.858   3
  -1   8  -2 1160.57 382.108   3
  -1   8  -3 1736.61 531.297   3
  -1   8  -4 792.463 357.108   3
  -1   8  -5 33.4964 113.525   3
  -1   8  -5 459.063 150.976   2
  -1   8  -6 1246.35 433.648   3
  -1   8  -7-261.320 284.811   3
  -1   8  -8 138.896 314.500   3
  -1   8  -9 286.103 301.787   3
  -1   8 -10-199.482 291.689   3
  -1   8 -11 4891.70 984.372   3
   1  -8  11 4662.73 949.423   7
  -1   8 -12 1060.66 464.813   3
   1  -8  12 924.775 440.759   7
  -1   8 -13 1703.35 630.448   3
   1  -8  13 1737.62 622.710   7
  -1   8 -14 1004.27 583.550   3
   1  -8  14 802.598 457.254   7
  -1   8 -15-75.1919 216.198   3
   1  -8  15 138.321 281.452   7
   1  -8  16 351.930 248.513   7
  -1   8 -16 723.846 545.734   3
   1  -8  17 361.455 263.990   7
  -1   8 -17-353.355 307.209   3
  -1   8 -18-26.5952 121.470   3
   1  -8  18 562.900 459.360   7
  -1   8 -19 820.741 560.296   3
   1  -8  19 733.255 480.249   7
  -1   8 -20-646.608 444.150   3
   1  -8  20-483.246 381.794   7
   1  -8  21 77.5332 178.197   7
  -1   8 -21 467.670 128.661   3
  -1   8 -22 158.532 269.421   3
  -1   8 -23 28.6290 244.122   3
  -1   8 -24 138.252 241.578   3
  -1   7  20-575.183 504.261   7
  -1   7  19-236.235 320.042   7
  -1   7  18 317.952 375.979   7
   1  -7 -17-196.913 216.508   6
  -1   7  17-5.26093 194.496   7
   1  -7 -16-307.464 257.589   6
  -1   7  16-100.576 211.500   7
  -1   7  15-102.047 255.162   7
   1  -7 -15 259.849 276.967   6
   1  -7 -14 45.6401 140.952   6
  -1   7  14 545.544 474.932   7
  -1   7  13 442.336 364.666   7
   1  -7 -13 954.838 395.716   6
  -1   7  12 361.977 269.222   7
   1  -7 -12-429.660 260.311   6
  -1   7  11 3597.31 964.906   7
   1  -7 -11 3458.72 701.418   6
  -1   7  10-116.263 369.078   7
  -1   7   9-207.654 311.181   7
  -1   7   8 1033.93 180.473   5
  -1   7   8 1322.43 550.754   7
  -1   7   7 13757.5 705.597   5
  -1   7   7 17616.2 1841.18   7
  -1   7   6 5750.26 1007.43   7
  -1   7   6 6104.72 524.525   5
  -1   7   5 2076.32 553.153   3
  -1   7   5 1732.54 298.779   5
  -1   7   5 2827.80 697.848   7
  -1   7   4 971.385 418.716   7
  -1   7   4 717.169 208.707   5
  -1   7   4 744.063 282.616   3
  -1   7   3 21713.0 1708.48   3
  -1   7   3 24311.0 1961.78   7
  -1   7   3 21859.5 1300.67   1
  -1   7   2 5954.44 941.836   7
  -1   7   2 5557.58 664.012   1
  -1   7   2 6039.47 876.564   3
  -1   7   1-47.1659 235.022   7
  -1   7   1 88.0256 57.3051   1
  -1   7   1 198.923 179.071   3
  -1   7   0 13768.1 1327.87   3
  -1   7   0 13364.3 1059.03   1
   1  -7   0 13243.6 680.042   2
  -1   7  -1 2109.02 498.255   3
  -1   7  -1 1888.43 394.021   1
  -1   7  -2 11202.9 1195.93   3
  -1   7  -3 1288.17 391.545   3
  -1   7  -4 5369.38 524.948   2
  -1   7  -4 7164.25 990.452   3
  -1   7  -5 2371.47 551.130   3
  -1   7  -6 26952.2 1975.66   3
  -1   7  -7 9913.17 1211.32   3
  -1   7  -8 11371.9 1344.57   3
  -1   7  -9 6725.52 1055.72   3
   1  -7   9 7923.75 1136.97   7
  -1   7 -10-109.671 274.377   3
   1  -7  10-206.473 193.256   7
   1  -7  11 7567.12 1167.06   7
  -1   7 -11 8068.39 1222.00   3
  -1   7 -12 1189.71 469.205   3
   1  -7  12 893.684 309.047   7
   1  -7  13 571.711 340.869   7
  -1   7 -13 976.836 499.842   3
   1  -7  14 3587.48 889.308   7
  -1   7 -14 3553.64 846.277   3
  -1   7 -15 827.700 500.166   3
   1  -7  15 1499.40 578.697   7
  -1   7 -16 153.858 187.050   3
   1  -7  16-133.631 266.155   7
   1  -7  17 605.288 477.795   7
  -1   7 -17 752.782 491.979   3
   1  -7  18 97.6607 151.027   7
  -1   7 -18 495.972 329.334   3
  -1   7 -19 502.341 463.787   3
   1  -7  19 342.845 250.360   7
  -1   7 -20-304.040 306.392   3
   1  -7  20 100.873 303.712   7
   1  -7  21-37.2558 137.369   7
  -1   7 -21 246.731 203.102   3
  -1   7 -22 504.465 219.669   3
  -1   7 -23 47.7522 186.165   3
  -1   7 -24 754.174 514.369   3
  -1   6  21-81.4551 212.906   7
   1  -6 -20 93.4611 171.927   6
  -1   6  20-55.3121 186.141   7
   1  -6 -19-101.750 168.402   6
  -1   6  19 255.430 254.193   7
   1  -6 -18 803.720 435.942   6
  -1   6  18 843.913 580.670   7
   1  -6 -17 512.570 375.189   6
  -1   6  17 1108.51 667.234   7
   1  -6 -16 740.822 403.345   6
  -1   6  16 275.282 127.904   7
   1  -6 -15 1717.22 577.018   6
  -1   6  15 1734.79 786.916   7
  -1   6  14 989.186 538.973   7
   1  -6 -14 1395.16 497.812   6
   1  -6 -13 912.030 382.547   6
  -1   6  13 548.551 383.015   7
  -1   6  12-253.203 394.205   7
   1  -6 -12 124.356 125.151   6
  -1   6  11 929.834 479.914   7
   1  -6 -11 956.357 367.518   6
  -1   6  10 1293.51 536.206   7
  -1   6   9 131.379 291.924   7
  -1   6   8 20979.1 1992.76   7
  -1   6   7 652.639 140.913   5
  -1   6   7 813.739 455.388   7
  -1   6   6 7770.09 1126.58   7
  -1   6   6 6783.76 487.140   5
  -1   6   5 363.284 230.337   3
  -1   6   5 792.222 176.928   5
  -1   6   5 405.029 244.130   7
  -1   6   4 2372.78 527.180   3
  -1   6   4 2195.08 321.630   5
  -1   6   4 2236.83 560.919   7
  -1   6   3 7339.75 1008.57   7
  -1   6   3 8571.32 986.538   3
  -1   6   2 3699.31 521.865   1
  -1   6   2 3589.24 616.247   3
  -1   6   2 3129.05 612.887   7
  -1   6   1 4703.91 774.866   7
  -1   6   1 4595.86 568.098   1
  -1   6   1 4971.86 722.894   3
  -1   6   0 27847.9 1428.50   1
   1  -6   0 25565.0 966.506   2
  -1   6   0 26568.6 1669.87   3
  -1   6  -1-32.6607 183.646   3
  -1   6  -1 81.6620 66.1056   1
  -1   6  -2 16927.0 1353.93   3
  -1   6  -3 240.111 151.893   3
  -1   6  -3 327.703 120.069   2
  -1   6  -4-31.9187 167.681   3
  -1   6  -5 3545.68 644.969   3
  -1   6  -6 386.115 230.705   3
  -1   6  -7 12729.6 1302.51   3
   1  -6   7 13707.2 1321.66   7
  -1   6  -8 176.135 178.578   3
   1  -6   8 101.860 114.342   7
  -1   6  -9 110.125 151.872   3
   1  -6   9 91.5979 183.685   7
  -1   6 -10 6438.71 1014.65   3
   1  -6  10 7293.20 1040.19   7
  -1   6 -11 2185.31 607.337   3
  -1   6 -11 3091.13 416.848   4
   1  -6  11 3073.22 717.036   7
   1  -6  12 4143.49 859.036   7
  -1   6 -12 4436.48 917.122   3
  -1   6 -13 14563.4 1658.29   3
   1  -6  13 12544.0 1515.36   7
  -1   6 -14 3292.48 815.496   3
   1  -6  14 4315.50 923.496   7
   1  -6  15 478.240 310.743   7
  -1   6 -15 389.828 286.981   3
  -1   6 -16-165.721 384.659   3
   1  -6  16-84.5070 123.047   7
   1  -6  17 56.2203 124.961   7
  -1   6 -17 142.869 139.451   3
   1  -6  18 232.681 173.443   7
  -1   6 -18 16.2450 249.868   3
  -1   6 -19-6.98982 281.811   3
   1  -6  19-251.250 404.485   7
   1  -6  20 670.879 480.485   7
  -1   6 -20-119.351 302.245   3
   1  -6  21 504.664 424.031   7
  -1   6 -21-159.722 233.187   3
  -1   6 -22 11.9035 228.649   3
  -1   6 -23 18.7732 281.290   3
  -1   6 -24 2063.86 1138.80   3
  -1   5  22-3.15757 105.573   7
   1  -5 -21 276.280 284.711   6
  -1   5  21 173.275 242.597   7
  -1   5  20 1184.16 746.761   7
   1  -5 -20 880.226 506.878   6
   1  -5 -19 286.124 312.336   6
  -1   5  19-588.362 468.602   7
  -1   5  18 296.504 272.119   7
   1  -5 -18-245.159 287.014   6
  -1   5  17-149.461 244.861   7
   1  -5 -17 494.979 354.289   6
  -1   5  16 700.947 527.340   7
   1  -5 -16 746.864 381.852   6
  -1   5  15 64.9121 230.951   7
   1  -5 -15-157.352 220.881   6
  -1   5  14 308.402 296.671   7
   1  -5 -14 395.673 313.713   6
   1  -5 -13 2219.27 592.520   6
  -1   5  13 3124.17 830.339   7
  -1   5  12 2498.63 739.162   7
   1  -5 -12 2451.33 602.607   6
   1  -5 -11 2517.31 595.628   6
  -1   5  11 3090.90 791.428   7
  -1   5  10 3494.09 847.125   7
   1  -5 -10 3426.61 648.538   6
  -1   5   9 2352.15 639.905   7
  -1   5   8 2514.81 668.706   7
  -1   5   7 23643.7 1931.13   7
  -1   5   6 7161.40 1018.20   7
  -1   5   6 6519.15 413.412   5
  -1   5   5 101536. 1745.67   5
  -1   5   5 113862. 3905.57   7
  -1   5   4 49595.3 2186.08   3
  -1   5   4 48730.2 1301.13   5
  -1   5   4 49258.8 2494.32   7
  -1   5   3 19389.8 1349.00   3
  -1   5   3 19598.3 1521.32   7
  -1   5   2 4714.07 708.754   7
  -1   5   2 4991.05 666.695   3
  -1   5   1 5615.72 691.420   3
  -1   5   1 5309.61 575.610   1
  -1   5   1 6319.32 793.530   7
  -1   5   0 23509.4 1423.30   3
  -1   5   0 23289.2 1224.91   1
  -1   5  -1 607.212 194.780   1
  -1   5  -1 330.842 112.836   3
  -1   5  -2 5432.88 615.099   1
  -1   5  -2 5699.97 459.383   2
  -1   5  -2 5889.19 727.234   3
  -1   5  -3 4204.87 619.275   3
  -1   5  -3 4466.96 443.039   2
  -1   5  -4 910.540 324.470   3
  -1   5  -5 7993.74 908.131   3
  -1   5  -6 6866.33 872.358   3
   1  -5   6 6226.52 806.012   7
   1  -5   7 28139.7 1787.01   7
  -1   5  -7 27419.2 1824.95   3
   1  -5   8 1085.33 364.904   7
  -1   5  -8 1624.94 443.531   3
   1  -5   9 2858.77 600.179   7
  -1   5  -9 2770.08 608.958   3
   1  -5  10 25652.3 1879.09   7
  -1   5 -10 27085.3 1999.10   3
  -1   5 -10 25242.9 1153.04   4
  -1   5 -11-47.7037 49.5223   4
  -1   5 -11 124.540 130.346   3
   1  -5  11-94.0756 120.712   7
   1  -5  12 8007.28 1123.00   7
  -1   5 -12 10141.5 1304.29   3
   1  -5  13 7451.69 1133.70   7
  -1   5 -13 7860.26 1203.58   3
   1  -5  14 710.488 345.867   7
  -1   5 -14 2093.67 584.237   3
   1  -5  15 2991.96 763.868   7
  -1   5 -15 4685.60 990.481   3
  -1   5 -16 1454.44 586.665   3
   1  -5  16 1079.69 484.227   7
   1  -5  17 2953.66 825.913   7
  -1   5 -17 3294.07 874.969   3
   1  -5  18 1329.22 557.188   7
  -1   5 -18 959.533 528.089   3
   1  -5  19 758.766 437.261   7
  -1   5 -19 527.151 328.961   3
  -1   5 -20 457.449 380.863   3
   1  -5  20-248.400 329.621   7
   1  -5  21-16.6756 111.243   7
  -1   5 -21-445.613 356.888   3
  -1   5 -22-88.8033 184.468   3
  -1   5 -23-606.950 437.855   3
  -1   5 -24 25.6046 254.408   3
   1  -4 -23-194.743 260.715   6
  -1   4  23-369.412 409.756   7
  -1   4  22 1491.32 811.435   7
   1  -4 -22-438.832 367.967   6
  -1   4  21 525.001 463.149   7
   1  -4 -21 512.635 431.751   6
   1  -4 -20 239.280 255.293   6
  -1   4  20 110.056 278.852   7
   1  -4 -19 405.333 393.548   6
  -1   4  19 205.081 305.332   7
  -1   4  18 1768.12 802.058   7
   1  -4 -18 1041.23 503.515   6
  -1   4  17 421.649 394.671   7
   1  -4 -17 481.311 346.372   6
  -1   4  16 1716.37 689.622   7
   1  -4 -16 1427.63 536.474   6
   1  -4 -15 342.013 199.912   6
  -1   4  15-132.401 222.817   7
   1  -4 -14 791.143 387.926   6
  -1   4  14 1498.51 657.336   7
   1  -4 -13 3018.48 680.936   6
  -1   4  13 2788.25 826.081   7
  -1   4  12 1856.79 659.407   7
   1  -4 -12 1717.16 510.696   6
  -1   4  11 3277.22 815.077   7
   1  -4 -11 2943.71 604.777   6
   1  -4 -10 295.081 185.131   6
  -1   4  10 152.028 159.545   7
   1  -4 -10 624.232 195.384   5
   1  -4  -9 1346.17 367.821   6
  -1   4   9 804.140 372.997   7
   1  -4  -9 819.644 196.225   5
   1  -4  -8 294.971 115.342   5
   1  -4  -8 549.117 218.502   6
  -1   4   8 624.108 322.591   7
  -1   4   7 827.217 341.184   7
   1  -4  -7 336.749 105.583   5
  -1   4   6 262.743 161.040   7
  -1   4   5-37.1136 68.4459   7
  -1   4   5 14.3117 10.0130   5
  -1   4   4 2329.19 490.946   7
  -1   4   4 2294.48 420.173   3
  -1   4   4 2096.27 215.143   5
  -1   4   3-16.8654 101.494   7
  -1   4   3 26.9753 77.4636   3
  -1   4   2 6436.84 666.272   3
  -1   4   2 6653.15 765.848   7
  -1   4   1 14463.2 992.813   3
  -1   4   1 15274.8 1115.23   7
  -1   4   0 76777.1 2075.16   1
  -1   4   0 80262.1 2332.77   3
   1  -4   1 1977.63 345.107   1
  -1   4  -1 2347.70 418.578   3
   1  -4   1 2296.98 265.950   2
  -1   4  -2 20256.6 859.046   2
   1  -4   2 19105.3 1098.11   1
  -1   4  -2 20708.8 1218.48   3
  -1   4  -3 1848.43 368.406   3
  -1   4  -4 9179.98 877.779   3
   1  -4   5 16986.0 1180.24   7
  -1   4  -5 15366.6 1179.65   3
  -1   4  -6 23.1738 64.8359   3
   1  -4   6 49.4659 66.9355   7
   1  -4   7 45617.9 2103.15   7
  -1   4  -7 45906.5 2234.53   3
  -1   4  -8 1660.70 466.564   3
  -1   4  -8 1825.82 304.963   4
   1  -4   8 2722.54 534.666   7
  -1   4  -9 29664.0 1949.91   3
  -1   4  -9 27647.4 1848.46   6
   1  -4   9 28556.5 1823.24   7
  -1   4  -9 29021.3 1183.15   4
   1  -4  10 1053.60 374.777   7
  -1   4 -10 1517.35 433.051   6
  -1   4 -10 1349.17 407.258   3
  -1   4 -11 11717.7 1307.26   6
   1  -4  11 8693.13 1100.31   7
  -1   4 -11 9542.75 1186.74   3
   1  -4  12-56.5079 125.286   7
  -1   4 -12 157.041 177.584   3
  -1   4 -12 267.964 257.861   6
   1  -4  13 11158.4 1373.13   7
  -1   4 -13 11404.4 1405.13   3
  -1   4 -13 12375.2 1461.36   6
   1  -4  14 2472.38 677.782   7
  -1   4 -14 2916.63 734.037   6
  -1   4 -14 1526.39 493.976   3
  -1   4 -15-176.446 285.417   3
   1  -4  15-36.2913 188.326   7
  -1   4 -15-69.1272 316.695   6
   1  -4  16-306.726 319.783   7
  -1   4 -16-205.792 399.875   6
  -1   4 -16 164.492 276.208   3
  -1   4 -17 975.975 486.254   3
   1  -4  17 582.954 405.482   7
  -1   4 -17 538.395 408.049   6
  -1   4 -18 344.340 301.305   6
   1  -4  18 203.905 185.320   7
  -1   4 -18 154.739 195.785   3
  -1   4 -19-189.928 242.048   6
   1  -4  19-265.118 273.156   7
  -1   4 -19-65.6740 367.065   3
   1  -4  20 908.847 551.612   7
  -1   4 -20 626.135 473.776   3
   1  -4  21 877.683 556.793   7
  -1   4 -21 185.920 318.228   3
  -1   4 -22-83.3080 176.760   3
  -1   4 -23 382.755 353.506   3
  -1   4 -24 342.418 378.150   3
   1  -3 -24 103.714 206.840   6
  -1   3  24-131.362 259.170   7
  -1   3  23-697.611 538.091   7
   1  -3 -23-514.242 404.969   6
  -1   3  22 49.0794 264.163   7
   1  -3 -22-274.750 295.217   6
  -1   3  21-17.2389 120.249   7
   1  -3 -21-327.356 309.530   6
  -1   3  20-760.050 520.538   7
   1  -3 -20-137.220 203.833   6
   1  -3 -19 56.3852 101.873   6
  -1   3  19-86.7002 177.937   7
   1  -3 -18 939.501 504.488   6
  -1   3  18 442.028 393.239   7
  -1   3  17-347.347 384.944   7
   1  -3 -17-46.4180 121.577   6
   1  -3 -16-121.470 226.797   6
  -1   3  16-68.0681 113.150   7
   1  -3 -15 1667.98 562.339   6
  -1   3  15 1142.67 573.947   7
   1  -3 -14 371.370 274.983   6
  -1   3  14 305.698 235.747   7
  -1   3  13 3713.61 911.755   7
   1  -3 -13 3194.73 699.436   6
  -1   3  12 259.765 257.569   7
   1  -3 -12 228.404 219.489   6
  -1   3  11 2277.79 661.312   7
   1  -3 -11 3276.48 636.899   6
  -1   3  10 2995.85 667.121   7
   1  -3 -10 2606.49 535.119   6
   1  -3 -10 2446.16 387.406   5
  -1   3   9 13360.0 1450.32   7
   1  -3  -9 14244.2 880.736   5
   1  -3  -9 16320.3 1264.50   6
   1  -3  -8 1955.90 299.981   5
  -1   3   8 2511.13 596.248   7
   1  -3  -8 2028.10 417.736   6
   1  -3  -7 23442.2 931.667   5
  -1   3   7 26194.2 1813.88   7
   1  -3  -7 25192.9 1373.73   6
  -1   3   6 50111.3 2381.44   7
   1  -3  -6 48270.7 1178.97   5
   1  -3  -5 812.089 231.097   3
  -1   3   5 747.638 296.864   7
  -1   3   4 1569.80 352.952   7
   1  -3  -4 1952.21 346.911   3
  -1   3   3 558.866 199.305   7
  -1   3   3 643.734 190.114   3
   1  -3  -3 536.005 149.728   3
  -1   3   2 89881.6 2510.28   7
   1  -3  -2 94675.9 2139.99   3
  -1   3   2 92940.7 2186.65   3
  -1   3   1 15809.9 990.468   7
  -1   3   1 16046.3 893.563   3
  -1   3   0 13374.6 827.318   3
  -1   3  -1 21745.7 838.626   2
   1  -3   1 20923.9 806.010   2
   1  -3   1 21805.4 1037.14   1
  -1   3  -1 23507.2 1114.26   3
   1  -3   2 1059.09 238.261   1
  -1   3  -2 587.503 170.720   3
   1  -3   3 2314.84 363.456   1
  -1   3  -3 2185.28 367.490   3
   1  -3   4 19480.3 1104.02   7
  -1   3  -4 20044.4 1101.13   7
  -1   3  -4 19834.4 1192.93   3
  -1   3  -5 7899.96 737.073   6
  -1   3  -5 8077.06 796.643   3
   1  -3   5 8329.42 754.215   7
  -1   3  -5 8723.07 770.173   7
  -1   3  -6 411.045 169.813   6
   1  -3   6 475.163 195.828   7
  -1   3  -6 422.106 184.336   3
  -1   3  -7 20661.8 976.338   4
  -1   3  -7 21856.0 1482.64   3
  -1   3  -7 20140.2 1365.59   6
   1  -3   7 22120.3 1389.71   7
  -1   3  -8 3073.66 375.191   4
  -1   3  -8 4012.19 648.860   6
   1  -3   8 3371.19 565.508   7
   1  -3   9 32462.9 1894.22   7
  -1   3  -9 33546.6 1972.41   6
  -1   3 -10 21121.8 1662.97   6
   1  -3  10 19564.5 1548.67   7
  -1   3 -11 5586.79 893.404   6
   1  -3  11 6097.68 932.022   7
  -1   3 -12 18120.0 1672.86   6
   1  -3  12 18907.7 1689.60   7
   1  -3  13 2395.40 639.088   7
  -1   3 -13 3755.08 817.487   6
   1  -3  14 54.4869 150.381   7
  -1   3 -14 171.028 171.041   6
  -1   3 -15 226.147 194.640   6
   1  -3  15 89.4913 168.650   7
   1  -3  16 339.523 217.588   7
  -1   3 -16 183.231 223.360   6
  -1   3 -17 1500.51 572.634   6
   1  -3  17 1490.06 592.439   7
   1  -3  18-101.921 218.805   7
  -1   3 -18 166.456 155.646   6
   1  -3  19-40.8311 123.793   7
  -1   3 -19-176.422 310.658   6
  -1   3 -19-642.033 399.345   3
  -1   3 -20-193.976 249.669   6
   1  -3  20 353.457 361.217   7
  -1   3 -20 4.38262 96.8722   3
  -1   3 -21 102.793 157.019   3
  -1   3 -21 142.099 145.677   6
  -1   3 -22 206.063 378.327   3
  -1   3 -22 212.108 273.628   6
  -1   3 -23 247.492 283.450   3
  -1   2  24 77.9720 208.679   7
   1  -2 -24 237.400 360.420   6
   1  -2 -23 405.692 260.527   6
  -1   2  23-64.8206 190.914   7
  -1   2  22-49.0940 164.735   7
   1  -2 -22 191.739 260.321   6
  -1   2  21 512.501 348.482   7
   1  -2 -21-194.756 293.263   6
   1  -2 -20 874.408 516.380   6
  -1   2  20 1203.25 661.028   7
   1  -2 -19 26.6728 271.222   6
  -1   2  19 400.150 506.471   7
  -1   2  18 724.611 504.281   7
   1  -2 -18-137.671 308.144   6
   1  -2 -17 125.077 175.525   6
  -1   2  17 656.330 506.976   7
  -1   2  16 847.012 496.406   7
   1  -2 -16 415.761 360.500   6
  -1   2  15 674.896 429.870   7
   1  -2 -15 658.879 323.681   6
  -1   2  14 840.600 501.132   7
   1  -2 -14 598.139 319.112   6
  -1   2  13-122.809 226.226   7
   1  -2 -13 81.7323 125.323   6
  -1   2  12 1537.88 552.027   7
   1  -2 -12 1204.06 414.748   6
  -1   2  11 2532.93 630.482   7
   1  -2 -11 2553.74 558.300   6
  -1   2  10 2240.97 623.467   7
   1  -2 -10 778.916 284.844   6
  -1   2   9 4037.94 759.429   7
   1  -2  -9 3203.79 558.019   6
   1  -2  -9 3284.87 433.950   5
   1  -2  -8 7122.40 588.116   5
  -1   2   8 7032.43 951.522   7
   1  -2  -8 6267.07 722.365   6
   1  -2  -7 6946.66 518.177   5
  -1   2   7 6821.24 874.323   7
   1  -2  -7 7136.18 708.924   6
  -1   2   6 23997.2 1551.97   7
   1  -2  -6 25057.7 1229.07   6
   1  -2  -6 24051.7 857.535   5
  -1   2   5 19249.5 1292.80   7
   1  -2  -5 18522.1 636.203   5
   1  -2  -5 18802.4 962.898   6
  -1   2   4 22030.0 1284.21   7
   1  -2  -4 22220.8 994.238   3
  -1   2   3 33856.2 1455.69   7
   1  -2  -3 32802.3 1105.71   3
  -1   2   2 70242.3 1537.37   3
  -1   2   2 70348.8 1914.28   7
  -1   2   1 158983. 2661.91   7
  -1   2   1 159144. 2227.15   3
   1  -2   1 396976. 3956.51   1
  -1   2  -1 398206. 3448.36   2
  -1   2  -1 391359. 3874.12   3
   1  -2   2 15061.3 806.402   1
  -1   2  -2 14213.8 683.519   6
  -1   2  -2 14602.1 809.255   3
   1  -2   3 248647. 3455.89   1
  -1   2  -3 238210. 3568.26   3
  -1   2  -3 237944. 3196.91   6
   1  -2   3 237717. 3076.33   7
   1  -2   4 17977.2 931.744   7
  -1   2  -4 17775.7 974.350   6
  -1   2  -4 17908.0 915.840   7
   1  -2   5 61109.0 1899.90   7
  -1   2  -5 65433.7 1616.63   4
  -1   2  -5 62932.6 2002.35   6
  -1   2  -5 63686.9 1889.54   7
  -1   2  -6 18502.0 876.747   4
   1  -2   6 19497.7 1158.62   7
  -1   2  -6 18390.9 1105.77   7
  -1   2  -6 18275.7 1182.47   6
   1  -2   7 194.064 146.381   7
  -1   2  -7 305.922 154.488   6
  -1   2  -8 22292.7 1495.79   6
   1  -2   8 21225.0 1405.87   7
   1  -2   9 50895.6 2315.75   7
  -1   2  -9 50950.1 2395.93   6
   1  -2  10 1795.95 375.155   4
  -1   2 -10 2501.20 590.515   6
   1  -2  10 2544.40 552.433   7
   1  -2  11 6670.42 727.805   4
   1  -2  11 6718.19 941.426   7
  -1   2 -11 6085.59 944.490   6
   1  -2  12 557.568 224.767   4
  -1   2 -12 717.424 383.343   6
   1  -2  12 1030.73 392.110   7
  -1   2 -13 10826.4 1336.61   6
   1  -2  13 8452.64 887.042   4
   1  -2  13 8224.62 1169.77   7
   1  -2  14-186.423 69.1469   7
  -1   2 -14 78.9396 137.692   6
   1  -2  14-51.4355 71.0604   4
   1  -2  15 1232.93 440.240   7
   1  -2  15 1645.42 424.882   4
  -1   2 -15 1288.75 463.995   6
  -1   2 -16 736.056 437.077   6
   1  -2  16 1125.11 371.286   4
   1  -2  16 901.938 405.531   7
   1  -2  17 151.599 282.875   7
  -1   2 -17-59.7855 126.863   6
  -1   2 -18-199.612 352.034   6
   1  -2  18 63.1009 151.525   7
   1  -2  19 100.713 99.6858   7
  -1   2 -19 203.751 200.308   6
   1  -2  20 28.4837 118.421   7
  -1   2 -20-273.270 283.908   6
  -1   2 -21 271.159 317.977   6
   1  -2  21 233.158 322.553   7
   1  -2  22-7.72150 113.103   7
  -1   2 -22-440.039 374.760   6
  -1   2 -23 149.210 238.865   6
  -1   2 -23 21.9927 122.452   3
  -1   1  24 925.865 653.019   7
   1  -1 -24 321.895 329.459   6
   1  -1 -23 98.4156 138.964   6
  -1   1  23 139.655 543.260   7
  -1   1  22 129.997 238.834   7
   1  -1 -22-682.062 448.771   6
  -1   1  21 101.936 217.087   7
   1  -1 -21 176.378 289.628   6
   1  -1 -20-5.01220 197.079   6
  -1   1  20-317.744 329.347   7
   1  -1 -19 110.484 203.206   6
  -1   1  19 520.068 566.228   7
  -1   1  18 4138.96 1081.96   7
   1  -1 -18 4540.76 999.062   6
  -1   1  17 944.070 539.160   7
   1  -1 -17 630.783 410.583   6
  -1   1  16 349.248 380.441   7
   1  -1 -16 427.227 278.122   6
  -1   1  15 1348.57 522.912   7
   1  -1 -15 1665.60 549.957   6
   1  -1 -14 254.081 234.135   6
  -1   1  14 516.930 336.862   7
  -1   1  13 726.286 414.707   7
   1  -1 -13 635.656 331.081   6
   1  -1 -12 285.096 243.054   6
  -1   1  12 619.878 355.348   7
  -1   1  11 215.191 205.852   7
   1  -1 -11-100.967 243.248   6
   1  -1 -10 1013.97 318.057   6
  -1   1  10 613.821 310.044   7
   1  -1  -9 1349.58 358.911   6
  -1   1   9 2308.46 609.306   7
   1  -1  -8 2326.15 435.444   6
  -1   1   8 2460.26 537.605   7
  -1   1   7 35218.5 1921.02   7
   1  -1  -7 35756.5 1584.03   6
   1  -1  -6 25424.1 1224.28   6
  -1   1   6 26182.0 1555.24   7
  -1   1   5 1842.97 357.134   7
  -1   1   5 1578.11 273.254   6
   1  -1  -5 1675.91 285.625   6
   1  -1  -4 547.429 150.995   6
  -1   1   4 580.605 189.006   7
   1  -1  -3 87427.6 1499.13   6
  -1   1   3 91973.5 2165.29   7
   1  -1   3 27364.7 900.964   7
  -1   1  -3 28933.3 1068.14   6
  -1   1  -4 77913.9 1765.07   7
  -1   1  -4 82144.7 1727.92   4
  -1   1  -4 79812.8 2010.00   6
   1  -1   4 79108.4 1760.66   4
   1  -1   4 79694.3 1819.50   7
   1  -1   5 56651.4 1591.84   4
  -1   1  -5 54844.4 1670.80   7
  -1   1  -5 54530.9 1828.34   6
   1  -1   5 53117.8 1697.65   7
  -1   1  -6-31.3061 51.6436   7
  -1   1  -6 42.0455 65.0218   6
   1  -1   6-18.7009 108.250   7
   1  -1   6 16.4080 53.0788   4
   1  -1   7 5166.10 634.314   7
   1  -1   7 4997.29 539.139   4
  -1   1  -7 6162.17 721.232   6
   1  -1   8 11268.9 852.315   4
   1  -1   8 10668.6 989.264   7
  -1   1  -8 10896.6 1023.20   6
   1  -1   9 183.703 122.577   4
  -1   1  -9 418.882 229.490   6
   1  -1   9 89.8011 178.928   7
   1  -1  10 12171.4 1211.27   7
  -1   1 -10 14543.0 1343.60   6
   1  -1  10 11833.0 971.950   4
   1  -1  11 1919.96 415.528   4
   1  -1  11 2196.24 529.440   7
  -1   1 -11 2151.54 549.578   6
   1  -1  12 1362.32 422.144   7
  -1   1 -12 2142.97 573.827   6
   1  -1  12 1398.28 373.796   4
   1  -1  13 9235.28 980.866   4
   1  -1  13 7821.75 1130.06   7
  -1   1 -13 8961.05 1209.99   6
   1  -1  14 1154.39 357.462   4
   1  -1  14 1336.16 492.824   7
  -1   1 -14 2341.26 645.423   6
   1  -1  15 15050.9 1350.21   4
   1  -1  15 14783.9 1709.77   7
  -1   1 -15 15629.8 1748.80   6
   1  -1  16 3107.91 855.584   7
  -1   1 -16 4696.80 985.099   6
   1  -1  16 4025.28 734.758   4
   1  -1  17 601.391 368.415   7
  -1   1 -17 69.3189 248.016   6
   1  -1  17 253.744 133.787   4
  -1   1 -18 2992.89 892.723   6
   1  -1  18 2549.44 807.708   7
  -1   1 -19 181.479 126.959   6
   1  -1  19 2.58475 166.486   7
   1  -1  20-776.835 467.738   7
  -1   1 -20 384.490 289.092   6
  -1   1 -21-234.513 279.021   6
   1  -1  21-92.3477 187.896   7
   1  -1  22 575.258 461.301   7
  -1   1 -22 720.498 551.130   6
  -1   1 -23 128.950 121.925   6
  -1   0  25-41.3826 157.792   7
  -1   0  24-195.766 292.151   7
   1   0 -23-637.550 448.089   6
  -1   0  23 375.165 384.594   7
   1   0 -22 132.429 250.054   6
  -1   0  22 889.894 562.068   7
  -1   0  21 510.120 430.418   7
   1   0 -21 61.0354 112.571   6
  -1   0  20 528.867 363.076   7
   1   0 -20 140.422 251.331   6
  -1   0  19 2756.84 913.439   7
   1   0 -19 1990.17 643.193   6
  -1   0  18 782.081 469.752   7
   1   0 -18 608.865 406.239   6
  -1   0  17 2422.38 807.998   7
   1   0 -17 2309.44 669.594   6
   1   0 -16 8425.73 1280.92   6
  -1   0  16 8659.20 1448.06   7
  -1   0  15 298.023 121.512   7
   1   0 -15 589.204 251.734   6
  -1   0  14-30.2476 198.196   7
   1   0 -14 11.6892 239.716   6
  -1   0  13-130.342 134.061   7
   1   0 -13-15.6178 187.028   6
  -1   0  12 3590.23 804.438   7
   1   0 -12 3960.40 731.800   6
   1   0 -11 9820.28 1103.54   6
  -1   0  11 8541.66 1189.25   7
  -1   0  10 216.876 154.109   7
   1   0 -10 186.762 76.6101   6
   1   0  -9 4410.35 659.728   6
  -1   0   9 4471.90 756.868   7
   1   0  -8 2738.24 491.685   6
  -1   0   8 2939.78 580.934   7
   1   0  -7 1725.41 360.837   6
  -1   0   7 1349.79 394.740   7
  -1   0   6 132195. 3377.79   7
   1   0  -6 130962. 2820.96   6
   1   0  -5 19801.7 994.825   6
  -1   0   5 18131.5 1152.85   7
  -1   0   4 60442.3 1891.87   7
   1   0  -4 58784.0 1520.15   6
   1   0  -3 25911.8 871.970   6
   1   0   3 170238. 2560.11   5
   1   0   3 178808. 2566.51   4
   1   0   3 167456. 2241.43   7
   1   0   4 8913.78 622.243   7
   1   0   4 9360.32 645.466   4
  -1   0  -4 7608.22 629.309   6
  -1   0  -4 9001.37 600.012   7
   1   0   5 112670. 2503.41   7
  -1   0  -5 113178. 2426.69   7
  -1   0  -5 112638. 2656.98   6
   1   0   6 53477.1 1929.39   7
  -1   0  -6 52662.3 1846.26   7
  -1   0  -6 53600.8 1986.21   6
  -1   0  -7 1129.26 321.206   6
   1   0   7 742.381 236.867   7
  -1   0  -8 6557.72 801.194   6
   1   0   8 6291.16 782.770   7
   1   0   9 305.134 228.547   7
  -1   0  -9-49.1811 74.3584   6
   1   0  10 2281.11 533.859   7
  -1   0 -10 1900.89 483.545   6
  -1   0 -11 1564.37 448.326   6
   1   0  11 1418.02 383.162   4
   1   0  11 1579.46 462.659   7
   1   0  12 687.207 284.454   4
   1   0  12 358.316 198.764   7
  -1   0 -12 371.149 245.342   6
   1   0  13 80.4052 212.753   4
  -1   0 -13 86.8451 137.031   6
   1   0  13 102.119 225.108   7
   1   0  14 2143.03 641.075   7
  -1   0 -14 1719.05 539.368   6
   1   0  14 1274.19 395.521   4
   1   0  15 2256.96 692.643   7
  -1   0 -15 1901.34 577.382   6
   1   0  15 1954.32 524.322   4
  -1   0 -16 252.937 297.169   6
   1   0  16 588.320 313.372   4
   1   0  16 907.026 494.350   7
  -1   0 -17 351.344 307.568   6
   1   0  17 523.720 296.584   4
   1   0  17 679.872 422.228   7
  -1   0 -18 1308.77 583.817   6
   1   0  18 907.376 479.875   7
  -1   0 -19-58.9101 118.784   6
   1   0  19 864.979 495.966   7
   1   0  20 706.133 508.268   7
  -1   0 -20 333.802 341.775   6
   1   0  21 620.492 494.913   7
  -1   0 -21 67.9863 112.576   6
  -1   0 -22-6.90730 312.070   6
   1   0  22-174.744 253.345   7
  -1   0 -23 418.064 378.046   6
  -1  -1  25 4.05235 141.020   7
  -1  -1  24 454.091 453.207   7
  -1  -1  23-394.902 384.596   7
  -1  -1  22 222.949 210.136   7
   1   1 -21 373.863 290.399   6
  -1  -1  21-299.878 321.319   7
  -1  -1  20 201.748 245.916   7
   1   1 -20-473.405 359.765   6
   1   1 -19 92.0913 224.579   6
  -1  -1  19-547.127 401.206   7
   1   1 -18 980.355 504.440   6
  -1  -1  18 483.918 381.585   7
  -1  -1  17 162.317 98.5113   7
   1   1 -17 1402.55 540.435   6
  -1  -1  16 281.368 184.319   4
   1   1 -16 619.187 321.067   6
  -1  -1  16 296.031 130.124   7
  -1  -1  15 234.407 141.232   7
   1   1 -15 930.657 441.516   6
  -1  -1  14 1342.18 512.876   7
   1   1 -14 1818.64 523.068   6
   1   1 -13 3299.41 698.603   6
  -1  -1  13 2637.39 672.192   7
   1   1 -12 1329.84 461.088   6
  -1  -1  12 951.917 361.320   7
  -1  -1  11 6577.28 1016.17   7
   1   1 -11 7828.02 995.590   6
  -1  -1  10 537.166 179.295   7
   1   1 -10 1522.74 420.909   6
   1   1  -9 202.531 165.753   6
  -1  -1   9 107.299 144.979   7
  -1  -1   8 3954.31 659.897   7
   1   1  -8 4601.17 637.381   6
   1   1  -7 1736.12 375.087   6
  -1  -1   7 2187.67 463.781   7
  -1  -1   6 85533.3 2686.47   7
   1   1  -6 85520.1 2369.11   6
  -1  -1   5 111331. 2825.84   7
   1   1  -5 109485. 2137.44   3
  -1  -1   4 28095.7 1301.12   7
   1   1  -4 27044.9 936.665   3
   1   1  -3 36137.6 968.737   3
   1   1   2 5445.89 428.597   7
   1   1   2 6303.53 484.029   5
   1   1   3 91407.3 1955.28   5
   1   1   3 90706.3 1937.27   7
   1   1   4 13631.3 800.802   5
   1   1   4 13912.6 840.964   7
  -1  -1  -4 13466.0 818.339   7
  -1  -1  -4 14563.3 860.635   5
  -1  -1  -5 364.799 144.275   5
  -1  -1  -5 421.857 152.762   7
   1   1   5 406.356 151.327   5
   1   1   5 556.813 199.478   7
   1   1   6 18584.0 1175.75   7
  -1  -1  -6 16570.2 1053.80   5
   1   1   7 4572.90 639.491   7
  -1  -1  -7 4815.93 665.327   6
  -1  -1  -8 2665.30 519.224   6
   1   1   8 1938.06 446.013   7
   1   1   9 162.880 152.870   7
  -1  -1  -9 603.200 313.243   6
   1   1  10 275.197 216.957   7
  -1  -1 -10 224.033 185.541   6
  -1  -1 -11 74.2223 185.851   6
   1   1  11 38.4493 136.929   7
  -1  -1 -12 1325.54 479.544   6
   1   1  12 1063.15 437.880   7
   1   1  13 959.816 405.871   7
  -1  -1 -13 1045.71 418.908   6
  -1  -1 -14 175.025 103.988   6
   1   1  14 291.030 265.426   7
  -1  -1 -15-128.392 178.867   6
   1   1  15 2.18715 66.5784   4
   1   1  15 29.7774 139.246   7
  -1  -1 -16 6456.61 1155.97   6
   1   1  16 4797.64 1057.65   7
   1   1  16 4276.27 851.994   4
   1   1  17 108.382 200.535   7
   1   1  17-164.417 174.630   4
  -1  -1 -17 65.5510 146.714   6
  -1  -1 -18 467.879 391.385   6
   1   1  18 243.472 159.072   4
   1   1  18 292.795 285.093   7
   1   1  19 3270.56 954.760   7
  -1  -1 -19 3234.39 929.720   6
   1   1  20 645.120 420.940   7
  -1  -1 -20 995.922 556.222   6
   1   1  21 692.337 488.143   7
  -1  -1 -21 80.2017 178.374   6
   1   1  22 575.946 412.045   7
  -1  -1 -22 4.60885 215.219   6
  -1  -1 -23-95.9040 199.339   6
  -1  -2  25-12.9780 438.750   7
  -1  -2  24 85.8756 294.716   7
  -1  -2  23 344.303 396.626   7
  -1  -2  22 2738.25 1379.93   7
   1   2 -21-709.909 401.924   3
  -1  -2  21-46.4894 145.886   7
  -1  -2  20-427.159 366.969   7
   1   2 -20 12.5126 271.653   3
  -1  -2  19 222.004 271.322   7
   1   2 -19 426.470 288.956   3
  -1  -2  18 497.502 408.671   7
   1   2 -18 627.383 330.098   3
   1   2 -18 1119.61 530.932   6
  -1  -2  17 626.895 340.457   7
   1   2 -17 513.134 277.875   3
   1   2 -17 530.521 307.799   6
   1   2 -16 3767.81 782.569   3
   1   2 -16 3511.92 854.034   6
  -1  -2  16 3305.73 886.457   7
   1   2 -15 1799.64 526.422   3
  -1  -2  15 1483.79 558.283   7
   1   2 -15 2228.13 639.698   6
  -1  -2  15 2662.56 427.878   4
  -1  -2  14 7088.74 1206.47   7
  -1  -2  14 6509.85 628.227   4
   1   2 -14 7330.00 1111.61   6
  -1  -2  13 20512.5 1053.78   4
   1   2 -13 21820.6 1849.63   6
  -1  -2  13 19201.7 1895.01   7
  -1  -2  12 5947.67 529.749   4
   1   2 -12 5708.23 911.919   6
  -1  -2  12 6636.19 1059.83   7
  -1  -2  11 47.7624 140.623   7
   1   2 -11 144.482 244.885   6
  -1  -2  11 250.833 110.538   4
   1   2 -11 20.1423 103.342   3
  -1  -2  10 56210.8 1364.27   4
   1   2 -10 56896.0 2354.08   3
   1   2 -10 56750.0 2580.41   6
  -1  -2  10 60131.5 2911.64   7
  -1  -2   9 37117.4 2171.38   7
   1   2  -9 35963.1 1759.13   3
  -1  -2   9 34066.6 938.126   4
   1   2  -9 36471.1 1953.86   6
  -1  -2   8 48797.0 986.871   4
   1   2  -8 53817.8 2029.10   3
  -1  -2   8 57629.8 2561.12   7
   1   2  -7 10942.4 864.245   3
  -1  -2   7 11162.9 1055.09   7
   1   2  -6 22561.7 1161.79   3
  -1  -2   6 22872.6 1423.40   7
   1   2  -5 9795.26 719.636   3
  -1  -2   5 8064.08 789.226   7
   1   2  -4 110451. 2258.44   3
  -1  -2   4 107307. 2721.02   7
  -1  -2   3 156112. 3022.11   7
   1   2  -3 152985. 2531.16   3
   1   2  -2 108640. 2083.44   3
  -1  -2   2 108602. 2372.61   7
   1   2  -1 628917. 5083.77   3
  -1  -2   0 52345.0 1070.67   2
   1   2   1 109281. 2150.67   5
   1   2   2-59.2863 61.3717   5
   1   2   2 50.7030 46.3831   7
   1   2   3 16099.9 883.352   5
  -1  -2  -3 15541.4 879.894   5
   1   2   3 14896.8 923.269   7
  -1  -2  -4 725.414 201.785   5
   1   2   4 1019.94 238.250   5
   1   2   4 892.305 234.782   7
  -1  -2  -5 2886.07 427.602   5
   1   2   5 3238.87 494.393   7
   1   2   5 2669.07 385.768   5
   1   2   6 20804.0 1119.84   5
   1   2   6 20051.6 1327.25   7
  -1  -2  -6 20996.4 1201.27   5
   1   2   7 5811.10 767.094   7
   1   2   7 6953.88 680.833   5
   1   2   8 74.7502 157.321   7
  -1  -2  -9 5987.52 836.534   6
   1   2   9 6136.62 882.455   7
   1   2  10 21.9626 168.647   7
  -1  -2 -10-67.9014 105.475   6
   1   2  11 2035.55 608.992   7
  -1  -2 -11 1743.67 513.455   6
  -1  -2 -12 459.753 284.449   6
   1   2  12 518.162 380.186   7
   1   2  13 320.976 276.118   7
  -1  -2 -13 116.487 160.411   6
  -1  -2 -14 1040.02 427.687   6
   1   2  14 2314.90 683.555   7
   1   2  15 172.245 174.870   7
  -1  -2 -15-26.6993 140.078   6
  -1  -2 -16-503.636 328.659   6
   1   2  16 19.2673 172.556   7
  -1  -2 -17 1574.31 660.942   6
   1   2  17 719.834 512.092   7
   1   2  18 822.904 431.570   4
   1   2  18 919.028 514.216   7
  -1  -2 -18 835.892 471.576   6
   1   2  19 516.020 338.625   7
  -1  -2 -19 318.204 251.384   6
  -1  -2 -20 45.0347 167.961   6
   1   2  20-174.603 248.385   7
  -1  -2 -21 1059.35 627.650   6
   1   2  21-344.687 344.836   7
  -1  -2 -22 299.735 317.319   6
   1   2  22-488.308 421.114   7
  -1  -2 -23 131.367 229.302   6
  -1  -3  25 118.366 119.470   7
  -1  -3  24-813.559 558.790   7
  -1  -3  23-310.683 342.571   7
  -1  -3  22 20.8191 186.524   7
   1   3 -21 329.643 343.076   3
  -1  -3  21 477.610 411.005   7
   1   3 -20 756.756 428.862   3
  -1  -3  20 675.797 454.499   7
   1   3 -19-34.3864 89.3073   3
  -1  -3  19-619.921 421.892   7
  -1  -3  18 2213.59 775.769   7
   1   3 -18 1917.77 617.444   3
  -1  -3  17 1608.01 550.310   7
   1   3 -17 1066.65 416.499   3
   1   3 -16 553.950 301.566   3
  -1  -3  16 835.757 413.713   7
  -1  -3  15 672.655 311.717   7
   1   3 -15 1409.33 454.984   3
  -1  -3  14 3797.79 887.762   7
   1   3 -14 4122.76 767.532   3
  -1  -3  13 721.963 433.477   7
   1   3 -13 747.317 268.672   3
   1   3 -12 9290.23 1069.25   3
  -1  -3  12 8760.26 1217.68   7
  -1  -3  11 10694.6 1308.04   7
   1   3 -11 10712.9 1117.25   3
  -1  -3  10-145.186 236.657   7
   1   3 -10 27.8659 151.126   3
  -1  -3   9 7039.28 942.027   7
   1   3  -9 8781.42 916.645   3
  -1  -3   8 39469.6 2167.44   7
   1   3  -8 42868.5 1926.75   3
   1   3  -7 13622.7 1042.73   3
  -1  -3   7 12845.0 1176.47   7
   1   3  -6 20681.9 1227.35   3
  -1  -3   6 22088.4 1465.75   7
   1   3  -5 78858.2 2285.25   3
  -1  -3   5 78779.9 2625.11   7
  -1  -3   4 18927.3 1226.19   7
   1   3  -4 17842.3 1047.80   3
  -1  -3   3 11167.6 911.694   7
   1   3  -3 10745.4 796.470   3
   1   3  -2 9910.38 760.072   3
  -1  -3   2 10470.1 845.620   7
   1   3  -1 632.883 214.086   3
  -1  -3   0 36.4984 41.1446   2
   1   3   0 3.00247 62.7052   3
   1   3   1 75911.8 1990.19   5
   1   3   1 75796.0 2257.03   3
   1   3   2 6042.73 652.418   7
   1   3   2 6140.55 577.857   5
   1   3   3 0.18200 67.4579   7
   1   3   3 55.6424 47.6763   5
  -1  -3  -3 51.7720 49.4004   5
   1   3   4 8511.08 843.864   7
   1   3   4 7589.56 674.919   5
  -1  -3  -4 8753.81 728.654   5
   1   3   5 22190.4 1163.64   5
  -1  -3  -5 23001.0 1232.50   5
   1   3   5 24403.6 1488.90   7
   1   3   6 62802.1 2012.52   5
  -1  -3  -6 62303.0 2123.24   5
   1   3   6 67343.9 2623.62   7
   1   3   7 183.071 174.227   7
   1   3   7 344.209 157.990   5
   1   3   8 2847.33 578.954   7
   1   3   8 2616.39 439.601   5
   1   3   9 7354.55 1009.30   7
  -1  -3 -10 257.151 206.973   6
   1   3  10 228.421 244.845   7
  -1  -3 -11 195.842 266.947   6
   1   3  11 157.596 164.015   7
  -1  -3 -12 233.507 187.229   6
   1   3  12-96.2146 238.709   7
  -1  -3 -13 736.350 409.988   6
   1   3  13 1622.70 580.838   7
   1   3  14 298.236 250.832   7
  -1  -3 -14-168.438 280.441   6
   1   3  15 975.223 464.853   7
  -1  -3 -15 677.851 411.150   6
   1   3  16 4.93204 169.079   7
  -1  -3 -16-75.2178 123.153   6
  -1  -3 -17-79.6544 180.077   6
   1   3  17 778.826 490.647   7
  -1  -3 -18 187.340 198.144   6
   1   3  18 34.0553 177.977   7
  -1  -3 -19 139.129 208.307   6
   1   3  19-42.4517 140.061   7
   1   3  19 308.874 295.726   4
  -1  -3 -20 327.497 385.124   6
   1   3  20 604.960 448.122   7
  -1  -3 -21-208.621 264.523   6
   1   3  21 685.511 514.884   7
   1   3  22-0.90843 249.797   7
  -1  -3 -22 326.859 502.435   6
  -1  -3 -23-0.82804 243.350   6
  -1  -4  25 761.436 541.790   7
  -1  -4  24 745.246 951.323   7
  -1  -4  23 635.511 522.064   7
  -1  -4  22 364.781 362.717   7
   1   4 -22-184.397 225.406   3
   1   4 -21-656.568 395.324   3
  -1  -4  21 391.163 385.249   7
  -1  -4  20 903.938 521.667   7
   1   4 -20 573.151 371.437   3
   1   4 -19 706.431 337.126   3
  -1  -4  19 110.038 261.720   7
  -1  -4  18 1352.32 620.416   7
   1   4 -18 1014.27 430.022   3
  -1  -4  17 345.311 177.054   7
   1   4 -17 74.1877 214.955   3
   1   4 -16 13.6413 173.480   3
  -1  -4  16-46.2512 416.357   7
   1   4 -15 1487.38 494.566   3
  -1  -4  15 2034.01 619.311   7
  -1  -4  14 919.055 433.923   7
   1   4 -14 2378.93 618.231   3
  -1  -4  13 14044.0 1644.58   7
   1   4 -13 14760.3 1462.65   3
  -1  -4  12 5495.16 994.174   7
   1   4 -12 5567.79 876.125   3
   1   4 -11 17422.0 1476.03   3
  -1  -4  11 17223.3 1679.62   7
   1   4 -10 38710.7 2120.22   3
  -1  -4  10 37792.2 2408.44   7
  -1  -4   9 9001.48 1121.89   7
   1   4  -9 8742.04 967.492   3
  -1  -4   8 52797.5 2605.69   7
   1   4  -8 48668.3 2211.38   3
   1   4  -7 165.982 162.753   3
  -1  -4   7 146.626 125.118   7
  -1  -4   6 18111.8 1400.26   7
   1   4  -6 19224.4 1289.56   3
   1   4  -5 826.453 264.026   3
  -1  -4   5 681.038 272.482   7
   1   4  -4 5438.63 660.246   3
  -1  -4   4 4329.11 637.321   7
  -1  -4   3 360.439 185.323   7
   1   4  -3 707.619 237.331   3
   1   4  -2 5366.28 627.401   3
   1   4  -1 21340.0 1276.46   3
  -1  -4   0 36481.5 883.752   2
  -1  -4   0 37483.1 1011.61   1
   1   4   0 37379.8 1729.03   3
   1   4   1 8747.21 869.125   3
   1   4   2 11055.6 1000.70   3
   1   4   2 11344.6 848.609   5
   1   4   3 8831.52 768.817   5
   1   4   3 8112.45 888.222   7
   1   4   4 7270.18 702.662   5
  -1  -4  -4 7652.94 717.168   5
   1   4   4 7907.44 900.811   7
   1   4   5 6843.74 684.171   5
  -1  -4  -5 6379.18 670.356   5
   1   4   5 8111.42 945.143   7
   1   4   6 5399.60 808.203   7
   1   4   6 4943.87 594.761   5
   1   4   7 7118.79 721.199   5
   1   4   7 7492.76 992.015   7
   1   4   8 934.576 251.839   5
   1   4   8 1541.91 461.094   7
   1   4   9 1296.85 325.648   5
   1   4   9 1439.54 494.172   7
   1   4  10 1024.61 417.774   7
   1   4  11-123.844 203.979   7
  -1  -4 -11 385.721 320.908   6
  -1  -4 -12 11530.0 1390.55   6
   1   4  12 11653.9 1553.25   7
   1   4  13 989.319 509.087   7
  -1  -4 -13 950.999 425.542   6
  -1  -4 -14 3083.72 767.578   6
   1   4  14 2471.39 748.125   7
   1   4  15 1246.73 566.468   7
  -1  -4 -15 592.875 348.466   6
  -1  -4 -16 241.493 196.669   6
   1   4  16 663.752 425.749   7
   1   4  17 407.605 367.891   7
  -1  -4 -17 501.103 330.526   6
  -1  -4 -18 534.099 446.752   6
   1   4  18 449.318 453.828   7
   1   4  19 108.590 200.904   7
  -1  -4 -19-103.460 183.807   6
  -1  -4 -20 119.456 177.276   6
   1   4  20-718.082 501.579   7
  -1  -4 -21 341.457 278.639   6
   1   4  21 437.974 435.502   7
  -1  -4 -22 407.285 239.107   6
   1   4  22-210.354 302.496   7
  -1  -5  25 293.625 547.417   7
  -1  -5  24 488.647 382.886   7
  -1  -5  23 245.276 311.860   7
  -1  -5  22 843.094 521.713   7
   1   5 -22-20.3764 109.020   3
   1   5 -21-344.556 300.418   3
  -1  -5  21 749.658 502.315   7
   1   5 -20-127.284 188.495   3
  -1  -5  20 131.882 140.165   7
  -1  -5  19 301.537 437.883   7
   1   5 -19 550.048 382.109   3
   1   5 -18 634.471 434.265   3
  -1  -5  18 1247.40 608.989   7
  -1  -5  17-465.975 353.843   7
   1   5 -17 10.0685 106.575   3
  -1  -5  16-425.696 329.163   7
   1   5 -16 73.1263 179.984   3
   1   5 -15 3388.16 770.489   3
  -1  -5  15 2115.77 655.068   7
  -1  -5  14 2854.61 764.868   7
   1   5 -14 2722.86 679.735   3
  -1  -5  13 841.910 410.600   7
   1   5 -13 1353.10 444.641   3
   1   5 -12 1310.57 428.707   3
  -1  -5  12 1559.62 508.727   7
  -1  -5  11-53.7275 145.369   7
   1   5 -11 85.7279 77.0315   3
  -1  -5  10 4522.75 844.963   7
   1   5 -10 4555.97 788.770   3
  -1  -5   9 11876.6 1319.02   7
   1   5  -9 12217.3 1228.55   3
  -1  -5   8-10.7927 222.330   7
   1   5  -8 303.692 230.353   3
  -1  -5   7 3837.20 701.748   7
   1   5  -7 3931.18 658.143   3
  -1  -5   6 140.135 246.837   7
   1   5  -6 137.650 151.330   3
   1   5  -5 794.101 314.735   3
  -1  -5   5 850.362 354.051   7
   1   5  -4 1719.96 417.326   3
  -1  -5   4 1262.75 385.197   7
   1   5  -3 30243.3 1711.76   3
   1   5  -2 1653.74 405.775   3
  -1  -5   1 1700.05 272.991   1
   1   5  -1 1526.79 360.598   3
   1   5   0 8538.54 914.199   3
  -1  -5   0 7768.08 536.825   1
   1   5   1 9735.49 1000.80   3
   1   5   2 677.996 203.222   5
   1   5   2 266.547 196.892   3
   1   5   3 48316.9 2362.11   7
   1   5   3 44553.1 1842.84   5
   1   5   4 97855.2 2764.34   5
   1   5   4 108500. 3665.09   7
   1   5   5 35804.9 1673.60   5
   1   5   5 38910.6 2263.75   7
   1   5   6-1.69519 39.2818   5
   1   5   6 175.326 191.038   7
   1   5   7 24401.0 1909.68   7
   1   5   7 21917.4 1322.63   5
   1   5   8 1583.48 503.384   7
   1   5   8 1086.35 297.210   5
   1   5   9 154.024 246.867   7
   1   5   9 13.1848 100.341   5
   1   5  10-31.0237 210.734   7
   1   5  11 2444.98 682.328   7
   1   5  12-221.869 284.073   7
  -1  -5 -12 51.1620 145.354   6
   1   5  13 721.633 428.943   7
  -1  -5 -13 116.665 196.412   6
  -1  -5 -14 257.207 233.934   6
   1   5  14 892.369 505.378   7
   1   5  15 121.227 195.686   7
  -1  -5 -15 493.509 354.471   6
   1   5  16 229.208 286.082   7
  -1  -5 -16-93.2636 201.777   6
  -1  -5 -17 1408.35 600.286   6
   1   5  17 1137.44 608.456   7
  -1  -5 -18 185.013 285.614   6
   1   5  18-321.493 329.007   7
   1   5  19-368.798 362.580   7
  -1  -5 -19 5.29127 215.338   6
   1   5  20 669.562 496.060   7
  -1  -5 -20 106.950 196.422   6
   1   5  21 171.907 467.025   7
  -1  -5 -21-860.840 514.752   6
  -1  -5 -22 227.794 276.163   6
  -1  -6  25 160.474 300.130   7
  -1  -6  24-115.737 230.839   7
  -1  -6  23-72.0215 183.929   7
   1   6 -22 75.3291 166.079   3
  -1  -6  22-340.002 353.511   7
  -1  -6  21 369.458 339.604   7
   1   6 -21 209.028 309.763   3
  -1  -6  20 108.509 143.974   7
   1   6 -20 2902.44 843.995   3
   1   6 -19 285.530 239.298   3
  -1  -6  19-134.919 150.165   7
  -1  -6  18 657.839 404.603   7
   1   6 -18 370.847 357.473   3
   1   6 -17-67.4341 246.844   3
  -1  -6  17 90.9378 275.489   7
  -1  -6  16 895.478 454.224   7
   1   6 -16 1028.76 470.267   3
   1   6 -15-31.5050 210.675   3
  -1  -6  15 3.96620 183.552   7
   1   6 -14 7738.76 1177.56   3
  -1  -6  14 7560.68 1299.64   7
   1   6 -13 5471.86 957.970   3
  -1  -6  13 5600.06 1085.55   7
  -1  -6  12 171.904 197.485   7
   1   6 -12 366.698 254.536   3
  -1  -6  11 5988.05 1061.16   7
   1   6 -11 4507.77 830.554   3
  -1  -6  10 18632.0 1822.80   7
   1   6 -10 22538.8 1810.18   3
   1   6  -9 1263.38 470.242   3
  -1  -6   9 1666.37 545.253   7
   1   6  -8 6382.93 924.068   3
  -1  -6   8 4585.32 858.648   7
   1   6  -7 29318.8 1923.66   3
  -1  -6   7 28099.2 2043.68   7
  -1  -6   6 6848.87 1001.19   7
   1   6  -6 6764.69 912.487   3
   1   6  -5 13622.3 1270.09   3
   1   6  -4 515.964 244.475   3
   1   6  -3 15925.4 1362.56   3
   1   6  -2 73.6002 151.974   3
  -1  -6   1 20915.3 1057.74   1
   1   6  -1 22545.3 1623.02   3
  -1  -6   0 406.205 135.107   1
   1   6   0 41.3418 190.281   3
   1   6   1 10597.9 1164.37   3
   1   6   2 12681.5 1297.94   3
   1   6   2 13983.0 1106.42   5
   1   6   3 2671.22 604.641   7
   1   6   3 2192.60 446.343   5
   1   6   3 2452.53 584.775   3
   1   6   4 5584.11 918.540   7
   1   6   4 5062.55 340.203   1
   1   6   4 5421.94 694.174   5
   1   6   5 14127.2 1107.54   5
   1   6   5 13878.3 1453.08   7
   1   6   6 3883.92 793.582   7
   1   6   6 3916.55 576.763   5
   1   6   7 29171.1 2221.05   7
   1   6   7 28195.0 1564.71   5
   1   6   8 5321.00 676.723   5
   1   6   8 6063.62 1071.94   7
   1   6   9 4119.96 893.034   7
   1   6   9 3140.26 517.216   5
   1   6  10 1274.35 343.329   5
   1   6  10 1992.13 637.721   7
   1   6  11 628.454 421.737   7
   1   6  12 2334.90 773.627   7
   1   6  13-8.51192 212.570   7
  -1  -6 -13 579.083 342.809   6
  -1  -6 -14 2205.05 675.138   6
   1   6  14 2214.04 778.894   7
  -1  -6 -15 230.940 168.148   6
   1   6  15 167.177 244.947   7
  -1  -6 -16 1777.63 667.480   6
   1   6  16 1891.88 794.289   7
   1   6  17 330.630 339.357   7
  -1  -6 -17 78.8689 195.068   6
   1   6  18 210.386 200.806   7
  -1  -6 -18 498.426 395.502   6
   1   6  19-31.3274 149.042   7
  -1  -6 -19-103.203 188.532   6
   1   6  20 44.5238 199.736   7
  -1  -6 -20 0.71954 235.557   6
  -1  -6 -21 243.718 271.240   6
   1   6  21 524.147 502.517   7
  -1  -7  25-206.478 302.456   7
  -1  -7  24 251.317 148.261   7
   1   7 -23-144.794 224.224   3
  -1  -7  23 54.7393 241.819   7
  -1  -7  22-263.450 314.175   7
   1   7 -22 509.056 384.242   3
  -1  -7  21 251.623 300.132   7
   1   7 -21 198.674 345.633   3
   1   7 -20 745.790 421.174   3
  -1  -7  20 853.575 544.695   7
  -1  -7  19 431.217 427.976   7
   1   7 -19 741.374 420.068   3
   1   7 -18-9.73025 101.201   3
  -1  -7  18 160.088 234.337   7
   1   7 -17 2612.42 741.146   3
  -1  -7  17 1725.64 693.317   7
   1   7 -16 1354.17 535.303   3
  -1  -7  16 1979.84 762.645   7
  -1  -7  15 1421.71 636.984   7
   1   7 -15 2033.39 662.679   3
   1   7 -14 15158.4 1711.18   3
  -1  -7  14 12084.3 1671.34   7
  -1  -7  13 10995.6 1568.09   7
   1   7 -13 11280.3 1436.00   3
   1   7 -12 240.315 282.295   3
  -1  -7  12-296.023 346.905   7
   1   7 -11 4198.44 858.947   3
  -1  -7  11 4585.09 1003.59   7
   1   7 -10 2175.40 595.210   3
  -1  -7  10 1439.78 487.372   7
  -1  -7   9 4264.05 884.839   7
   1   7  -9 4278.93 817.497   3
  -1  -7   8 10781.3 1361.24   7
   1   7  -8 9864.47 1203.28   3
  -1  -7   7 10903.8 1349.41   7
   1   7  -7 8917.30 1109.45   3
   1   7  -6 19.6254 289.130   3
   1   7  -5 664.783 368.207   3
   1   7  -4-33.5475 106.827   3
   1   7  -3 563.580 324.511   3
   1   7  -2 3747.45 703.269   3
   1   7  -1 10794.4 1241.80   3
   1   7   0 1255.89 413.752   3
   1   7   1 4620.08 819.668   3
   1   7   2 8338.15 920.678   5
   1   7   2 9534.87 1177.07   3
   1   7   3 14548.9 1211.38   5
   1   7   3 13427.6 1439.58   3
   1   7   3 13929.9 1505.57   7
   1   7   4 18.4042 83.9528   5
   1   7   4 363.890 232.208   7
   1   7   5 44.3453 33.3794   1
   1   7   5 21.8089 63.2837   5
   1   7   5 241.336 282.195   7
   1   7   6 1526.71 207.940   1
   1   7   6 2462.35 648.569   7
   1   7   6 2361.28 484.408   5
   1   7   7 764.538 275.981   5
   1   7   7 772.221 334.669   7
   1   7   8 228.535 309.288   7
   1   7   8 128.346 84.9025   5
   1   7   9 1260.24 355.572   5
   1   7   9 1447.47 539.681   7
   1   7  10 1855.02 409.771   5
   1   7  10 2713.33 778.989   7
   1   7  11 195.480 228.585   7
   1   7  12 2454.61 784.435   7
   1   7  13 1584.28 685.864   7
  -1  -7 -13 122.347 147.434   6
  -1  -7 -14 119.852 81.8823   6
   1   7  14 35.7018 155.868   7
  -1  -7 -15-206.621 227.801   6
   1   7  15-118.342 290.058   7
  -1  -7 -16 137.186 319.596   6
   1   7  16 430.733 293.632   7
   1   7  17-354.750 357.675   7
  -1  -7 -17 136.469 198.875   6
  -1  -7 -18 1128.28 653.242   6
   1   7  18 270.798 282.778   7
   1   7  19 120.350 239.035   7
  -1  -7 -19 93.3902 181.040   6
  -1  -7 -20-128.360 215.320   6
   1   7  20 433.533 471.960   7
  -1  -8  24-15.6440 128.555   7
  -1  -8  23 79.2430 294.703   7
   1   8 -23-289.608 228.620   3
  -1  -8  22-282.370 335.248   7
   1   8 -22-312.793 314.790   3
  -1  -8  21-476.589 413.675   7
   1   8 -21 400.159 363.870   3
   1   8 -20 248.756 261.420   3
  -1  -8  20-219.352 277.865   7
  -1  -8  19-46.5884 253.692   7
   1   8 -19 735.912 502.336   3
  -1  -8  18 366.187 420.027   7
   1   8 -18-235.726 229.408   3
   1   8 -17-209.894 182.033   3
  -1  -8  17 360.872 341.288   7
   1   8 -16 616.593 402.206   3
  -1  -8  16 714.877 492.183   7
  -1  -8  15 1251.93 562.229   7
   1   8 -15 874.460 483.541   3
  -1  -8  14 4881.23 1084.78   7
   1   8 -14 4649.22 990.699   3
   1   8 -13 469.050 424.027   3
  -1  -8  13-77.7211 198.176   7
   1   8 -12 4902.43 977.451   3
  -1  -8  12 6479.18 1183.02   7
   1   8 -11 4517.22 917.888   3
  -1  -8  11 4440.52 972.242   7
   1   8 -10 3224.73 759.376   3
  -1  -8  10 3202.06 805.682   7
  -1  -8   9 4558.16 954.686   7
   1   8  -9 4282.00 862.077   3
   1   8  -8 6554.41 1047.80   3
   1   8  -7-107.993 225.334   3
   1   8  -6 161.499 219.748   3
   1   8  -5 2270.58 555.844   3
   1   8  -4 408.867 288.298   3
   1   8  -3 237.271 194.277   3
   1   8  -2 273.193 123.815   3
   1   8  -1 21552.2 1861.76   3
   1   8   0 5209.17 926.917   3
   1   8   1 1513.37 525.059   3
  -1  -8  -1 1124.86 185.638   2
   1   8   2 2825.94 686.191   3
   1   8   2 2378.83 526.192   5
   1   8   3 2213.73 642.838   3
   1   8   3 1500.80 510.680   7
   1   8   3 1873.39 484.091   5
   1   8   4 3751.33 643.014   5
   1   8   4 4681.40 936.707   7
   1   8   5 513.731 343.535   7
   1   8   5 308.149 198.253   5
   1   8   6 2324.57 690.267   7
   1   8   6 1793.71 448.892   5
   1   8   7-13.5748 113.014   5
   1   8   7-283.634 360.963   7
   1   8   8 9236.28 951.752   5
   1   8   8 7943.50 1335.88   7
   1   8   9 261.522 404.193   7
   1   8   9 80.9136 49.3186   5
   1   8  10 1429.93 610.482   7
   1   8  11 31.7895 131.972   7
   1   8  12-199.438 328.051   7
   1   8  13 1017.58 593.551   7
   1   8  14-23.3991 217.920   7
  -1  -8 -14-90.3895 270.538   6
  -1  -8 -15-400.052 310.416   6
   1   8  15-310.219 327.756   7
  -1  -8 -16 508.641 368.444   6
   1   8  16 226.537 195.104   7
  -1  -8 -17 723.949 505.096   6
   1   8  17-18.0800 135.468   7
  -1  -8 -18-287.928 289.867   6
   1   8  18 141.570 196.959   7
   1   8  19 817.198 697.384   7
  -1  -8 -19 179.761 240.257   6
   1   8  20-63.7378 195.787   7
  -1  -9  24 1068.51 658.724   7
   1   9 -24-0.83627 242.070   3
  -1  -9  23-112.337 236.877   7
   1   9 -23 325.077 178.554   3
   1   9 -22 982.121 540.476   3
  -1  -9  22 2335.13 929.455   7
  -1  -9  21 147.209 341.206   7
   1   9 -21 244.139 376.806   3
  -1  -9  20 949.001 623.921   7
   1   9 -20 64.9995 211.808   3
  -1  -9  19 291.469 338.947   7
   1   9 -19 623.609 459.666   3
   1   9 -18-210.104 334.485   3
  -1  -9  18-38.8367 294.768   7
  -1  -9  17-232.532 412.645   7
   1   9 -17-203.527 284.423   3
   1   9 -16 474.558 333.215   3
  -1  -9  16 76.3525 321.131   7
   1   9 -15 355.639 277.607   3
  -1  -9  15-283.687 251.876   7
  -1  -9  14 373.766 387.734   7
   1   9 -14 475.049 388.884   3
  -1  -9  13 532.847 418.880   7
   1   9 -13-196.528 120.680   3
   1   9 -12 1187.99 499.127   3
  -1  -9  12 464.826 332.295   7
   1   9 -11 2990.44 786.743   3
  -1  -9  11 2948.39 826.756   7
  -1  -9  10 485.687 255.906   7
   1   9 -10-62.2903 248.078   3
   1   9  -9 11605.5 1499.42   3
   1   9  -8 171.299 172.676   3
   1   9  -7 190.099 137.958   3
   1   9  -6 356.636 262.434   3
   1   9  -5 2906.81 713.936   3
   1   9  -4 8581.34 1225.04   3
   1   9  -3 1083.27 486.009   3
   1   9  -2-431.656 280.979   3
   1   9  -1 5873.33 1044.12   3
   1   9   0 1066.25 359.974   3
   1   9   1 3586.79 813.564   3
   1   9   2 3743.15 687.379   5
   1   9   2 3434.59 792.031   7
   1   9   2 3430.42 826.047   3
   1   9   3 1494.01 558.537   7
   1   9   3 1026.52 439.522   3
   1   9   3 1445.33 437.085   5
   1   9   4 521.503 291.230   5
   1   9   4 1125.42 526.010   7
   1   9   5 430.745 329.811   7
   1   9   5-0.59330 180.399   5
   1   9   6 441.557 247.615   5
   1   9   6 298.645 285.438   7
   1   9   7-14.2897 66.4096   5
   1   9   7-331.289 404.074   7
   1   9   8-70.3044 358.617   7
   1   9   9-174.237 392.908   7
   1   9  10 692.557 501.881   7
   1   9  11 733.911 423.286   7
   1   9  12 1033.31 551.826   7
   1   9  13 102.741 260.785   7
   1   9  14 656.169 582.535   7
  -1  -9 -14 132.039 168.465   6
  -1  -9 -15-39.9430 126.456   6
   1   9  15 133.834 167.563   7
   1   9  16-71.0918 190.421   7
  -1  -9 -16-93.0165 168.207   6
   1   9  17 19.2441 439.632   7
  -1  -9 -17-169.620 224.043   6
   1   9  18 247.364 433.754   7
   1  10 -24 865.242 655.890   3
  -1 -10  23 116.094 239.538   7
   1  10 -23 0.84519 225.155   3
   1  10 -22 0.81260 183.410   3
  -1 -10  22 620.852 493.715   7
   1  10 -21-245.974 294.421   3
  -1 -10  21 662.913 534.237   7
   1  10 -20 58.5670 163.018   3
  -1 -10  20-61.8714 147.965   7
  -1 -10  19 509.848 475.902   7
   1  10 -19-12.9841 218.085   3
  -1 -10  18 493.545 412.383   7
   1  10 -18 685.099 428.082   3
  -1 -10  17 88.7269 268.336   7
   1  10 -17 78.8151 170.732   3
  -1 -10  16 1738.48 714.519   7
   1  10 -16 1671.90 667.295   3
   1  10 -15 1457.77 575.927   3
  -1 -10  15 2481.33 835.890   7
  -1 -10  14 4299.91 1112.62   7
   1  10 -14 3063.24 851.097   3
   1  10 -13-86.5322 242.744   3
  -1 -10  13 49.5399 166.295   7
   1  10 -12 5289.65 1103.30   3
   1  10 -11 2631.82 786.271   3
   1  10 -10 715.581 446.099   3
   1  10  -9 5942.74 1105.74   3
   1  10  -8 65.5307 105.484   3
   1  10  -7-54.3049 115.908   3
   1  10  -6 5752.08 1105.19   3
   1  10  -5 5326.78 1032.43   3
   1  10  -4-152.892 182.163   3
   1  10  -3 258.482 166.814   3
   1  10  -2 737.724 422.071   3
   1  10  -1 1826.09 567.184   3
   1  10   0 897.993 515.374   3
   1  10   1 4456.53 1002.68   3
   1  10   2 1590.28 469.639   5
   1  10   2 1660.02 533.690   3
   1  10   2 2327.12 738.368   7
   1  10   3 20207.2 1680.76   5
   1  10   3 17739.0 2011.45   3
   1  10   4 18855.1 2129.74   7
   1  10   4 16253.2 1919.01   3
   1  10   4 15360.7 1456.08   5
   1  10   5 2734.51 601.334   5
   1  10   5 2896.58 846.437   7
   1  10   6 1657.92 677.630   7
   1  10   6 796.359 350.546   5
   1  10   7 390.062 283.545   7
   1  10   8 465.493 263.566   7
   1  10   9 522.662 420.370   7
   1  10  10 13.6962 167.875   7
   1  10  11 392.123 370.093   7
   1  10  12 175.116 374.863   7
   1  10  13-24.3032 134.359   7
  -1 -10 -14 413.736 360.036   6
   1  10  14 316.337 347.422   7
   1  10  15-143.006 245.324   7
   1  10  16-38.1284 175.589   7
   1  10  17-447.154 435.452   7
   1  11 -23 1114.05 634.982   3
  -1 -11  23-233.802 323.680   7
  -1 -11  22-360.769 389.290   7
   1  11 -22 0.86393 469.310   3
   1  11 -21 428.709 408.564   3
  -1 -11  21 353.312 481.145   7
   1  11 -20-214.420 281.401   3
  -1 -11  20 577.760 477.768   7
   1  11 -19 13.1543 121.334   3
  -1 -11  19 139.950 160.185   7
   1  11 -18 466.130 497.065   3
  -1 -11  18 786.766 459.742   7
   1  11 -17 586.647 484.305   3
  -1 -11  17 287.515 332.173   7
  -1 -11  16-197.210 152.455   7
   1  11 -16 545.953 424.506   3
   1  11 -15 1083.65 528.022   3
  -1 -11  15 2483.79 909.572   7
   1  11 -14 235.302 127.993   3
   1  11 -13-88.2499 142.686   3
   1  11 -12 714.599 459.362   3
   1  11 -11-157.142 345.794   3
   1  11 -10 2916.92 855.561   3
   1  11  -9 83.2784 110.027   3
   1  11  -8-141.560 345.394   3
   1  11  -7 8936.25 1427.59   3
   1  11  -6 136.993 227.936   3
   1  11  -5 9557.07 1450.48   3
   1  11  -4 906.855 475.828   3
   1  11  -3 566.863 323.623   3
   1  11  -2 2910.38 822.186   3
   1  11  -1 885.614 507.306   3
   1  11   0 801.093 547.675   3
   1  11   1 349.262 263.301   3
   1  11   2-57.0782 262.580   7
   1  11   2 172.499 131.994   5
   1  11   2-127.431 112.773   3
   1  11   3 1277.63 444.321   5
   1  11   3 893.408 399.612   7
   1  11   3 720.193 345.153   3
   1  11   4 386.836 244.125   5
   1  11   4 436.048 206.795   7
   1  11   5 3654.30 990.660   7
   1  11   6 331.914 319.717   7
   1  11   7 1019.96 677.198   7
   1  11   8 1101.53 473.644   7
   1  11   9 1760.86 735.803   7
   1  11  10 147.826 407.061   7
   1  11  11-353.605 352.920   7
   1  11  12 465.809 461.162   7
   1  11  13-476.268 428.002   7
   1  11  14 129.285 361.558   7
   1  11  15 147.876 288.288   7
   1  11  16 301.657 346.242   7
   1  12 -22-687.017 510.893   3
  -1 -12  22-15.4353 102.969   7
   1  12 -21 197.251 355.904   3
  -1 -12  21-161.724 278.113   7
   1  12 -20 800.868 600.358   3
  -1 -12  20 484.636 513.066   7
   1  12 -19-63.1010 180.620   3
  -1 -12  19-300.367 344.486   7
   1  12 -18 28.9261 145.332   3
  -1 -12  18 180.538 275.309   7
   1  12 -17 679.119 333.628   3
   1  12 -16 927.355 588.609   3
   1  12 -15-113.725 263.786   3
   1  12 -14 1539.66 625.686   3
   1  12 -13 403.704 334.654   3
   1  12 -12 1603.57 622.014   3
   1  12 -11 908.718 431.187   3
   1  12 -10 1732.50 716.748   3
   1  12  -9 10914.0 1668.79   3
   1  12  -8 7904.28 1417.11   3
   1  12  -7 353.670 329.915   3
   1  12  -6 342.599 494.760   3
   1  12  -5 757.812 475.255   3
   1  12  -4 793.830 493.492   3
   1  12  -3 172.534 215.014   3
   1  12  -2 2485.90 809.043   3
   1  12  -1 1576.79 629.138   3
   1  12   0 126.149 229.767   3
   1  12   1 360.886 295.223   3
   1  12   1 229.139 285.209   7
   1  12   2 153.596 243.712   5
   1  12   2 561.438 512.709   3
   1  12   2 242.213 141.259   7
   1  12   3-168.642 551.342   3
   1  12   3 368.920 193.017   7
   1  12   3 171.157 191.264   5
   1  12   4 2068.31 810.427   7
   1  12   5 172.278 141.296   7
   1  12   6 2476.22 849.720   7
   1  12   7-110.109 281.178   7
   1  12   8 1158.70 666.526   7
   1  12   9-74.6391 187.571   7
   1  12  10 40.3313 490.169   7
   1  12  11-155.570 249.536   7
   1  12  12-70.4905 197.047   7
   1  12  13-52.9826 186.885   7
   1  12  14 450.552 524.694   7
   1  13 -21-0.94659 261.593   3
   1  13 -20 34.9386 375.506   3
   1  13 -19-587.889 469.920   3
   1  13 -18-107.334 348.634   3
   1  13 -17 782.966 454.112   3
   1  13 -16 68.6457 178.999   3
   1  13 -15 1051.78 508.103   3
   1  13 -14-82.7840 195.779   3
   1  13 -13 428.322 282.777   3
   1  13 -12 675.995 501.260   3
   1  13 -11 1444.60 632.384   3
   1  13 -10 1092.35 618.788   3
   1  13  -9 563.756 347.295   3
   1  13  -8 142.609 350.737   3
   1  13  -7 442.646 439.623   3
   1  13  -6-172.012 289.695   3
   1  13  -5 630.534 351.597   3
   1  13  -4-66.0227 155.749   3
   1  13  -3 5672.17 1255.65   3
   1  13  -2 3458.76 969.077   3
   1  13  -1 1090.17 576.115   3
   1  13   0 477.820 383.666   3
   1  13   0 774.584 542.455   7
   1  13   1 256.021 194.819   3
   1  13   1 835.077 491.804   7
   1  13   2 458.646 403.165   3
   1  13   2 926.768 620.132   7
   1  13   3-635.679 440.969   3
   1  13   3-71.0307 183.294   7
   1  13   4-309.951 359.285   7
   1  13   5 1368.79 728.399   7
   1  13   6 414.371 166.545   7
   1  13   7 1174.20 658.470   7
   1  13   8 37.0531 405.897   7
   1  13   9 639.890 512.028   7
   1  13  10 195.224 269.291   7
   1  13  11-434.532 420.312   7
   1  13  12-395.225 414.002   7
   1  14 -19-184.530 285.016   3
   1  14 -18 203.688 485.623   3
   1  14 -17-659.437 499.085   3
   1  14 -16 359.282 325.715   3
   1  14 -15 139.090 113.287   3
   1  14 -14 432.491 253.440   3
   1  14 -13 743.821 568.631   3
   1  14 -12 383.803 338.773   3
   1  14 -11 496.076 513.432   3
   1  14 -10 1176.19 652.006   3
   1  14  -9 5729.85 1298.26   3
   1  14  -8 4411.10 1111.71   3
   1  14  -7-44.1516 259.516   3
   1  14  -6 953.678 527.579   3
   1  14  -5-231.114 439.913   3
   1  14  -4-343.098 481.794   3
   1  14  -3-246.326 366.845   3
   1  14  -2 461.546 463.357   3
   1  14  -1 2395.13 843.518   3
   1  14   0 896.944 549.775   7
   1  14   0 720.552 482.305   3
   1  14   1-79.8919 165.716   3
   1  14   1-301.348 375.364   7
   1  14   2 757.751 627.900   7
   1  14   2-177.431 479.651   3
   1  14   3-90.0182 289.758   3
   1  14   3-547.862 435.139   7
   1  14   4 495.483 520.817   7
   1  14   5 943.745 585.392   7
   1  14   6-51.8340 161.405   7
   1  14   7 424.140 584.262   7
   1  14   8-74.2309 202.822   7
   1  14   9 194.326 281.568   7
   1  14  10 660.192 593.962   7
   1  15 -17 1485.18 837.484   3
   1  15 -16 351.767 380.218   3
   1  15 -15 664.121 512.105   3
   1  15 -14-328.475 364.555   3
   1  15 -13-7.12226 282.477   3
   1  15 -12-437.952 408.360   3
   1  15 -11 574.417 336.727   3
   1  15 -10 517.653 418.080   3
   1  15  -9 1607.72 650.339   3
   1  15  -8 310.229 256.962   3
   1  15  -7 857.666 593.660   3
   1  15  -6-77.8578 285.180   3
   1  15  -5 383.450 174.936   3
   1  15  -4-510.066 424.635   3
   1  15  -3-94.9317 307.980   3
   1  15  -2 785.106 595.872   3
   1  15  -1 856.102 546.947   3
   1  15  -1 1261.60 628.438   7
   1  15   0-3.36935 321.335   3
   1  15   0 312.428 264.492   7
   1  15   1 384.353 506.759   7
   1  15   1-82.6743 202.734   3
   1  15   2 49.3722 165.610   3
   1  15   2 41.0637 240.762   7
   1  15   3-95.7187 451.047   7
   1  15   4-146.370 254.912   7
   1  15   5-457.509 434.213   7
   1  15   6 738.437 623.464   7
   1  15   7-94.5955 227.779   7
   1  16 -14 304.475 355.345   3
   1  16 -13 549.947 473.527   3
   1  16 -12 262.459 280.984   3
   1  16 -11-500.615 449.972   3
   1  16 -10-205.735 301.793   3
   1  16  -9-232.865 366.261   3
   1  16  -8 64.2153 313.852   3
   1  16  -7-113.569 374.430   3
   1  16  -6-177.284 335.475   3
   1  16  -5-434.916 469.466   3
   1  16  -4 599.966 607.256   3
   1  16  -3 10.8780 123.965   3
   1  16  -2 331.220 364.506   7
   1  16  -2 442.749 483.210   3
   1  16  -1 465.800 495.568   7
   1  16  -1 429.098 410.862   3
   1  16   0-133.783 246.520   3
   1  16   0 528.967 600.560   7
   1  16   1 21.4932 298.154   3
   1  16   1 772.966 550.364   7
   1  16   2 753.895 568.686   7
   1  16   2-457.673 428.626   3
   1  16   3 447.982 460.271   7
   1  16   4-54.8811 172.547   7
   1  17  -9 116.423 248.188   3
   1  17  -8-180.351 287.504   3
   1  17  -7 321.131 373.836   3
   1  17  -6-328.697 379.276   3
   1  17  -5 211.245 311.940   3
   1  17  -4-84.0331 210.398   3
   1  17  -3 836.908 559.043   3
   1  17  -3 1492.71 771.142   7
   1  17  -2-107.317 229.656   3
   1  17  -2-188.095 295.357   7
   1  17  -1-557.214 481.050   3
   1  17  -1 92.2533 215.228   7
   1  17   0-415.490 417.580   3
   1  17   1 162.186 277.852   3
  -2  17   4 332.914 371.717   3
  -2  17   3 461.159 426.041   3
  -2  17   2 805.041 558.408   3
  -2  17   1 383.100 508.491   3
  -2  17   0 169.942 273.978   3
  -2  17   0 796.745 639.655   7
  -2  17  -1 953.698 724.733   3
  -2  17  -1 906.018 609.515   7
  -2  17  -2 17.2985 118.298   7
  -2  17  -2 293.875 491.235   3
  -2  17  -3 323.810 349.589   7
  -2  17  -3-122.983 361.965   3
  -2  17  -4 243.883 373.013   7
  -2  17  -4-163.642 266.863   3
  -2  17  -5-70.7555 165.254   3
  -2  17  -5 81.1991 190.974   7
  -2  17  -6 482.472 439.717   3
  -2  17  -6 487.706 433.344   7
  -2  17  -7-424.832 264.433   3
  -2  17  -8 652.246 512.564   3
  -2  17  -9-294.715 356.831   3
  -2  16   4 280.043 274.529   3
  -2  16   4 839.446 616.294   7
  -2  16   3 31.5365 207.165   3
  -2  16   3 555.996 635.073   7
  -2  16   2-245.382 316.839   7
  -2  16   2-70.3652 192.204   3
  -2  16   1 509.364 525.397   7
  -2  16   1 145.497 210.807   3
  -2  16   0 580.580 571.324   7
  -2  16   0 527.911 504.139   3
  -2  16  -1-490.060 500.873   7
  -2  16  -1 430.434 336.353   3
  -2  16  -2-356.149 362.547   3
  -2  16  -2 653.500 510.186   7
  -2  16  -3 1699.14 833.741   7
  -2  16  -3 1093.07 651.903   3
  -2  16  -4-62.5141 185.694   3
  -2  16  -4 247.854 225.716   7
  -2  16  -5-346.548 361.734   3
  -2  16  -6 147.236 145.161   3
  -2  16  -7 267.645 474.928   3
  -2  16  -8 196.791 283.968   3
  -2  16  -9 1224.84 739.261   3
  -2  16 -10 627.379 478.772   3
  -2  16 -11 323.348 365.448   3
  -2  16 -12 1209.85 732.531   3
  -2  15   7 284.124 329.010   7
  -2  15   6-555.452 471.945   7
  -2  15   5 20.4707 120.204   3
  -2  15   5 290.389 510.507   7
  -2  15   4 126.583 202.078   3
  -2  15   4-191.592 261.706   7
  -2  15   3 819.465 492.133   3
  -2  15   3-220.842 256.983   7
  -2  15   2-480.118 400.980   3
  -2  15   2 341.668 398.604   7
  -2  15   1 115.753 140.805   3
  -2  15   1-598.510 461.086   7
  -2  15   0 640.001 587.689   7
  -2  15   0-259.841 348.776   3
  -2  15  -1-601.305 448.426   7
  -2  15  -1-200.868 266.451   3
  -2  15  -2 1649.13 768.073   3
  -2  15  -2 1093.81 552.202   7
  -2  15  -3 355.742 375.002   3
  -2  15  -3 924.119 545.161   7
  -2  15  -4 316.435 187.036   7
  -2  15  -4 790.581 493.401   3
  -2  15  -5 789.172 492.938   3
  -2  15  -6 962.968 536.984   3
  -2  15  -7 1586.90 747.761   3
  -2  15  -8 77.8664 356.047   3
  -2  15  -9 4225.59 1203.08   3
  -2  15 -10 2861.68 998.165   3
  -2  15 -11 640.803 662.846   3
  -2  15 -12 2588.46 1025.22   3
  -2  15 -13-647.604 496.630   3
  -2  15 -14-722.371 530.109   3
  -2  15 -15 92.1795 257.660   3
  -2  14  10 517.760 370.865   7
  -2  14   9 153.680 273.491   7
  -2  14   8-233.915 313.469   7
  -2  14   7-238.601 335.918   7
  -2  14   6-920.753 578.646   7
  -2  14   5 316.729 392.489   7
  -2  14   5 255.660 288.794   3
  -2  14   4 258.383 278.388   3
  -2  14   4 357.840 356.248   7
  -2  14   3 738.709 479.530   3
  -2  14   3 704.399 404.734   7
  -2  14   2 214.119 328.386   7
  -2  14   2 1048.52 578.866   3
  -2  14   1 409.030 348.121   3
  -2  14   1 1183.48 522.716   7
  -2  14   0 68.6843 170.214   3
  -2  14   0 205.709 195.211   7
  -2  14  -1 202.111 244.365   3
  -2  14  -1 975.854 632.691   7
  -2  14  -2 746.497 506.888   7
  -2  14  -2 1935.78 736.915   3
  -2  14  -3 3014.11 928.851   7
  -2  14  -3 3937.17 1083.85   3
  -2  14  -4 811.672 485.372   3
  -2  14  -5-836.909 499.715   3
  -2  14  -6-141.918 336.661   3
  -2  14  -7-76.8118 274.132   3
  -2  14  -8 87.2209 374.874   3
  -2  14  -9 184.105 458.048   3
  -2  14 -10 609.852 477.949   3
  -2  14 -11 294.241 337.389   3
  -2  14 -12-88.0908 132.157   3
  -2  14 -13 332.675 294.140   3
  -2  14 -14 486.275 468.816   3
  -2  14 -15 550.617 522.256   3
  -2  14 -16 217.893 595.056   3
  -2  14 -17 181.047 326.253   3
  -2  13  12 444.818 442.450   7
  -2  13  11-385.351 404.277   7
  -2  13  10-144.864 362.076   7
  -2  13   9 657.905 451.451   7
  -2  13   8 971.115 682.800   7
  -2  13   7 441.039 381.680   7
  -2  13   6-350.672 359.228   7
  -2  13   5-489.669 372.773   3
  -2  13   5 89.4268 363.146   7
  -2  13   4-794.791 497.979   7
  -2  13   4 829.509 496.415   3
  -2  13   3-99.4300 209.257   3
  -2  13   3 524.769 504.561   7
  -2  13   2 1387.49 597.301   3
  -2  13   2 1038.81 602.787   7
  -2  13   1 3331.27 909.478   3
  -2  13   1 4563.66 1136.49   7
  -2  13   0 2670.06 805.735   3
  -2  13   0 4263.23 1085.89   7
  -2  13  -1 1000.15 554.382   7
  -2  13  -1 352.509 215.504   3
  -2  13  -2 2219.87 852.385   7
  -2  13  -2 1250.43 591.024   3
  -2  13  -3 300.010 248.598   3
  -2  13  -4-255.631 179.683   3
  -2  13  -5 1181.67 582.122   3
  -2  13  -6 3589.99 1015.95   3
  -2  13  -7 1406.46 602.210   3
  -2  13  -8 463.678 438.344   3
  -2  13  -9 360.240 325.871   3
  -2  13 -10 133.501 114.678   3
  -2  13 -11 228.026 301.063   3
  -2  13 -12-194.344 338.007   3
  -2  13 -13 1961.63 842.214   3
  -2  13 -14 557.869 490.344   3
  -2  13 -15 413.807 414.994   3
  -2  13 -16 334.460 453.127   3
  -2  13 -17 7.09027 131.634   3
  -2  13 -18-57.6710 188.263   3
  -2  13 -19-204.792 293.853   3
  -2  12  14 184.315 428.178   7
  -2  12  13 420.872 487.120   7
  -2  12  12-454.200 425.102   7
  -2  12  11 127.816 241.296   7
  -2  12  10 97.7407 216.262   7
  -2  12   9-141.033 281.735   7
  -2  12   8 3096.65 1046.77   7
  -2  12   7 930.492 587.521   7
  -2  12   6-99.9769 367.034   3
  -2  12   6-86.9555 185.737   7
  -2  12   5 1461.36 598.617   3
  -2  12   5 1133.72 482.255   7
  -2  12   4 315.029 243.442   7
  -2  12   4 766.632 409.719   3
  -2  12   3-313.058 387.512   7
  -2  12   3-1.17524 114.069   3
  -2  12   2 84.3894 269.663   7
  -2  12   2 303.215 179.575   3
  -2  12   1-349.136 300.169   3
  -2  12   1 343.566 333.216   7
  -2  12   0 831.534 480.398   7
  -2  12   0 663.794 388.174   3
  -2  12  -1 3705.19 970.464   7
  -2  12  -1 2811.97 802.510   3
  -2  12  -2 1150.24 563.118   3
  -2  12  -3 10126.3 1566.62   3
  -2  12  -4 547.640 429.973   3
  -2  12  -5 808.863 446.370   3
  -2  12  -6-108.363 160.960   3
  -2  12  -7 675.855 416.858   3
  -2  12  -8 439.637 305.676   3
  -2  12  -9-14.1435 281.039   3
  -2  12 -10 938.634 488.077   3
  -2  12 -11-227.289 380.186   3
  -2  12 -12 885.144 514.709   3
  -2  12 -13 46.9731 129.784   3
  -2  12 -14 1165.82 690.736   3
  -2  12 -15 405.051 409.225   3
  -2  12 -16-131.100 220.716   3
  -2  12 -17 396.504 468.108   3
  -2  12 -18-8.60347 126.300   3
  -2  12 -19 54.4974 183.225   3
  -2  12 -20-243.356 313.187   3
  -2  11  15-502.728 466.201   7
  -2  11  14-51.9091 181.285   7
  -2  11  13 1043.41 678.270   7
  -2  11  12 344.799 384.719   7
  -2  11  11 163.716 238.821   7
  -2  11  10 871.986 519.716   7
  -2  11   9-6.89158 138.280   7
  -2  11   8 1133.00 598.328   7
  -2  11   7 240.378 291.697   7
  -2  11   6-290.575 233.138   7
  -2  11   6 101.753 220.846   3
  -2  11   5-328.331 307.866   7
  -2  11   5-7.02355 101.636   3
  -2  11   4 1194.25 465.624   3
  -2  11   4 1167.76 501.575   7
  -2  11   3 80.7126 241.321   3
  -2  11   3 226.935 109.386   7
  -2  11   2 56.3500 110.137   3
  -2  11   2-126.384 425.377   7
  -2  11   1 9754.23 1517.22   7
  -2  11   1 9146.41 1380.37   3
  -2  11   0 7750.81 1349.67   7
  -2  11   0 7223.70 1236.55   3
  -2  11  -1 565.051 360.348   3
  -2  11  -1 394.081 344.118   7
  -2  11  -2-209.960 174.026   3
  -2  11  -3 156.483 144.150   3
  -2  11  -4 1966.42 647.145   3
  -2  11  -5 3053.94 844.682   3
  -2  11  -6 1131.82 488.481   3
  -2  11  -7 167.926 171.701   3
  -2  11  -8 450.238 337.005   3
  -2  11  -9 925.057 486.924   3
  -2  11 -10 1161.43 565.411   3
  -2  11 -11 3876.68 1032.97   3
  -2  11 -12-123.288 326.503   3
  -2  11 -13-395.108 317.603   3
  -2  11 -14 368.414 411.626   3
  -2  11 -15 1319.18 639.432   3
  -2  11 -16 1668.79 698.251   3
  -2  11 -17 335.203 338.157   3
  -2  11 -18 536.034 458.598   3
  -2  11 -19 349.750 400.855   3
  -2  11 -20 281.281 484.674   3
  -2  11 -21 638.897 628.563   3
  -2  10  17 66.5215 148.896   7
  -2  10  16 182.698 369.830   7
  -2  10  15 487.101 494.856   7
  -2  10  14 528.954 301.778   7
  -2  10  13 63.2021 182.712   7
  -2  10  12 474.007 515.801   7
  -2  10  11-334.298 226.472   7
  -2  10  10 1.47865 261.511   7
  -2  10   9 2405.25 820.382   7
  -2  10   8 2653.28 853.777   7
  -2  10   7 7416.22 1412.35   7
  -2  10   6 3841.71 914.609   3
  -2  10   6 4037.66 986.017   7
  -2  10   5 12983.7 1794.28   7
  -2  10   5 11759.7 1526.26   3
  -2  10   4 68.8249 285.461   3
  -2  10   4-178.723 255.683   7
  -2  10   3 3431.85 879.482   7
  -2  10   3 2962.50 754.734   3
  -2  10   2-121.509 232.925   7
  -2  10   2 88.9665 203.729   3
  -2  10   1 156.874 193.661   7
  -2  10   1 552.678 405.757   3
   2 -10  -1 556.728 169.229   2
  -2  10   0 448.986 310.844   3
  -2  10   0 230.399 146.306   7
  -2  10  -1 2156.29 622.835   3
  -2  10  -2 1001.99 447.871   3
  -2  10  -3-5.99512 185.636   3
  -2  10  -4-132.642 95.5016   3
  -2  10  -5 4131.10 895.111   3
  -2  10  -6 396.464 321.832   3
  -2  10  -7 2618.89 739.709   3
  -2  10  -8-12.9682 241.726   3
  -2  10  -9 188.730 310.785   3
  -2  10 -10 2566.00 747.885   3
  -2  10 -11 2629.84 770.377   3
  -2  10 -12-426.921 508.426   3
  -2  10 -13 163.313 268.088   3
  -2  10 -14 1003.05 585.003   3
  -2  10 -15 383.484 375.341   3
  -2  10 -16-59.3970 314.290   3
  -2  10 -17-359.097 404.171   3
   2 -10  17-558.858 391.603   7
   2 -10  18-75.3872 166.937   7
  -2  10 -18 30.0849 163.825   3
  -2  10 -19 916.548 583.216   3
  -2  10 -20 93.3293 201.692   3
  -2  10 -21 589.693 482.423   3
  -2  10 -22 199.560 290.088   3
  -2   9  18 174.981 295.993   7
  -2   9  17-366.346 406.616   7
  -2   9  16 57.1333 316.927   7
  -2   9  15 1089.53 658.379   7
  -2   9  14 17.8558 351.456   7
  -2   9  13 533.728 502.905   7
  -2   9  12 3206.65 991.056   7
  -2   9  11 476.831 410.899   7
  -2   9  10 142.009 294.458   7
  -2   9   9 468.735 423.506   7
  -2   9   8-207.551 362.314   7
  -2   9   7 684.984 426.340   7
  -2   9   6 25171.8 2132.58   3
  -2   9   6 29026.6 2554.15   7
  -2   9   5 8676.47 1252.07   3
  -2   9   5 7750.06 670.187   5
  -2   9   5 9232.58 1028.23   1
  -2   9   5 7859.94 1333.19   7
  -2   9   4 207.976 180.258   1
  -2   9   4 134.727 131.213   3
  -2   9   4 156.166 357.823   7
  -2   9   3 6556.11 1052.41   3
  -2   9   3 8320.03 1298.62   7
  -2   9   3 6270.61 839.163   1
  -2   9   2 11095.5 1465.96   7
  -2   9   2 11196.4 1136.52   1
  -2   9   2 12387.0 1435.76   3
   2  -9  -1 7732.97 711.257   2
  -2   9   1 9942.51 1357.76   7
  -2   9   1 8324.68 1153.49   3
  -2   9   0 1315.51 428.889   3
  -2   9   0 1380.73 471.578   7
   2  -9   0 1049.14 230.456   2
  -2   9  -1 1662.17 538.152   3
  -2   9  -2 11669.8 1394.25   3
  -2   9  -3 3009.18 692.310   3
  -2   9  -4 1594.60 557.091   3
  -2   9  -5 3504.16 527.901   2
  -2   9  -5 4389.27 908.370   3
  -2   9  -6 397.415 272.904   3
  -2   9  -7 1198.53 483.803   3
  -2   9  -8 1734.57 579.380   3
  -2   9  -9 1512.07 584.918   3
  -2   9 -10-133.262 281.228   3
  -2   9 -11 5448.75 1089.55   3
  -2   9 -12 604.270 395.742   3
  -2   9 -13 1795.84 667.790   3
  -2   9 -14 54.8990 186.109   3
   2  -9  14 742.434 364.860   7
   2  -9  15-0.56359 77.4582   7
  -2   9 -15-137.861 296.986   3
   2  -9  16 125.173 176.468   7
  -2   9 -16 128.298 304.616   3
   2  -9  17 241.220 253.093   7
  -2   9 -17-266.465 309.878   3
   2  -9  18 343.669 358.638   7
  -2   9 -18 383.748 263.712   3
  -2   9 -19-491.495 399.764   3
  -2   9 -20-16.0517 140.595   3
  -2   9 -21 500.475 483.126   3
  -2   9 -22 334.540 426.799   3
  -2   9 -23 189.993 425.524   3
  -2   8  19-131.605 250.712   7
  -2   8  18 869.668 557.929   7
  -2   8  17-242.726 327.498   7
  -2   8  16 380.689 406.016   7
  -2   8  15-5.88219 227.263   7
  -2   8  14 260.198 174.378   7
  -2   8  13 954.738 551.101   7
   2  -8 -13 57.9700 81.2018   6
  -2   8  12 63.3286 144.540   7
   2  -8 -12 29.3323 59.8375   6
  -2   8  11 860.193 503.380   7
   2  -8 -11 432.375 221.341   6
  -2   8  10 623.611 299.928   7
   2  -8 -10 1079.89 365.944   6
  -2   8   9 210.819 350.791   7
  -2   8   8 1451.23 618.100   7
  -2   8   7 142.877 153.269   7
  -2   8   6 19673.2 727.209   5
  -2   8   6 23228.9 2189.43   7
  -2   8   6 20822.7 1807.35   3
  -2   8   5 9247.48 652.760   5
  -2   8   5 10411.3 1260.62   3
  -2   8   5 10759.0 1457.77   7
  -2   8   4 2869.42 758.978   7
  -2   8   4 2295.43 587.755   3
  -2   8   3 5888.94 1044.02   7
  -2   8   3 4266.93 782.609   3
  -2   8   3 4516.25 708.737   1
  -2   8   2 365.265 235.729   3
  -2   8   2 560.841 235.403   1
  -2   8   2 483.310 296.546   7
  -2   8   1 4242.30 836.863   7
  -2   8   1 3472.08 622.195   1
  -2   8   1 3067.77 651.279   3
  -2   8   0 2350.04 556.964   3
  -2   8   0 3007.57 684.579   7
   2  -8   0 2138.37 352.230   2
  -2   8   0 3152.90 590.699   1
  -2   8  -1 3642.07 639.398   1
  -2   8  -1 4241.34 784.367   3
  -2   8  -2 1299.28 432.297   3
  -2   8  -3 18447.0 1684.52   3
  -2   8  -4 21014.0 1803.88   3
  -2   8  -5 1977.05 577.102   3
  -2   8  -5 1220.11 314.848   2
  -2   8  -6-186.016 245.915   3
  -2   8  -7 612.256 315.827   3
  -2   8  -8 5166.82 955.666   3
  -2   8  -9 2042.24 594.482   3
  -2   8 -10 2854.32 788.434   3
  -2   8 -11 6484.49 1163.02   3
  -2   8 -12 22732.4 2237.37   3
   2  -8  12 19689.9 1908.79   7
  -2   8 -13 6862.48 1260.90   3
   2  -8  13 8341.43 1276.47   7
   2  -8  14 1311.88 498.329   7
  -2   8 -14 957.521 434.828   3
  -2   8 -15 677.308 364.944   3
   2  -8  15 525.631 340.256   7
  -2   8 -16-141.565 348.298   3
   2  -8  16 114.005 351.160   7
  -2   8 -17-269.556 267.556   3
   2  -8  17-59.8733 128.269   7
   2  -8  18-308.478 286.480   7
  -2   8 -18-109.208 194.967   3
  -2   8 -19-159.945 172.931   3
  -2   8 -20 1263.14 657.166   3
  -2   8 -21 52.3844 152.006   3
  -2   8 -22 765.239 755.449   3
  -2   8 -23-273.276 321.527   3
  -2   8 -24 393.684 363.541   3
  -2   7  20 898.686 628.303   7
  -2   7  19 182.001 207.761   7
  -2   7  18 155.576 398.193   7
  -2   7  17 8.94401 114.554   7
  -2   7  16-7.59373 278.456   7
   2  -7 -15 299.235 248.948   6
  -2   7  15 362.009 342.352   7
  -2   7  14-0.73884 173.150   7
   2  -7 -14 216.514 239.614   6
   2  -7 -13 441.350 282.694   6
  -2   7  13 595.408 454.985   7
   2  -7 -12 10.1156 82.5655   6
  -2   7  12-287.704 428.286   7
   2  -7 -11 6347.95 902.159   6
  -2   7  11 5626.24 1197.44   7
  -2   7  10 162.331 149.593   7
   2  -7 -10 247.657 200.484   6
  -2   7   9 5779.85 1147.42   7
  -2   7   8 4684.96 965.750   7
  -2   7   7 591.508 472.164   7
  -2   7   6 1522.70 429.539   3
  -2   7   6 1553.84 576.284   7
  -2   7   5 13395.2 662.325   5
  -2   7   5 15639.2 1649.37   7
  -2   7   5 15766.2 1442.99   3
  -2   7   4 11207.0 1361.84   7
  -2   7   4 11297.1 1206.73   3
  -2   7   3 127.100 156.418   3
  -2   7   3 110.747 187.996   7
  -2   7   2 1015.68 337.480   3
  -2   7   2 1032.01 390.232   7
  -2   7   2 650.639 265.661   1
  -2   7   1 10398.4 1029.24   1
  -2   7   1 10370.4 1202.90   7
  -2   7   1 11213.6 1164.65   3
  -2   7   0 10018.0 1172.18   7
   2  -7   0 10392.3 799.428   2
  -2   7   0 10148.2 1013.83   1
  -2   7   0 10834.6 1156.58   3
  -2   7  -1 4506.52 750.919   3
   2  -7   1 4483.16 496.543   2
  -2   7  -1 4641.60 687.616   1
  -2   7  -2 907.528 340.846   1
  -2   7  -2 1141.24 383.574   3
  -2   7  -3 7188.92 958.051   3
  -2   7  -4 2947.15 630.620   3
  -2   7  -4 3019.45 467.402   2
  -2   7  -5 266.921 331.545   3
  -2   7  -6 16635.8 1598.05   3
  -2   7  -7 1905.78 585.233   3
  -2   7  -8 17107.2 1690.55   3
  -2   7  -9 227.676 284.520   3
  -2   7 -10-1.30777 129.375   3
   2  -7  10 122.868 135.451   7
  -2   7 -11 3997.05 882.582   3
   2  -7  11 3913.41 787.130   7
  -2   7 -12-24.1658 175.797   3
   2  -7  12 7.48844 85.1707   7
  -2   7 -13 13310.4 1710.09   3
   2  -7  13 12878.6 1569.17   7
  -2   7 -14 10141.2 1512.98   3
   2  -7  14 6942.12 1159.88   7
  -2   7 -15 1039.98 528.356   3
   2  -7  15-134.853 305.678   7
  -2   7 -16-292.552 364.900   3
   2  -7  16 398.509 273.304   7
   2  -7  17 347.655 325.660   7
  -2   7 -17-157.032 229.023   3
  -2   7 -18 574.031 409.043   3
   2  -7  18 1411.08 570.244   7
   2  -7  19-54.6789 137.597   7
  -2   7 -19 356.719 348.403   3
  -2   7 -20 534.284 509.214   3
  -2   7 -21 672.335 541.001   3
  -2   7 -22 629.030 460.229   3
  -2   7 -23-304.398 336.244   3
  -2   7 -24-65.2363 187.257   3
  -2   6  21 510.604 404.877   7
  -2   6  20-1.00958 645.868   7
  -2   6  19-288.845 346.474   7
   2  -6 -18 539.331 347.604   6
  -2   6  18-261.331 479.995   7
   2  -6 -17 108.996 234.831   6
  -2   6  17-58.2481 207.911   7
   2  -6 -16 1004.24 425.018   6
  -2   6  16 1357.60 681.275   7
   2  -6 -15 1670.44 518.033   6
  -2   6  15 1626.84 703.698   7
  -2   6  14-1.39068 254.104   7
   2  -6 -14 236.033 191.248   6
  -2   6  13 36.8914 277.985   7
   2  -6 -13 207.585 192.691   6
   2  -6 -12 2853.08 624.688   6
  -2   6  12 3267.50 929.313   7
  -2   6  11 2803.19 821.541   7
   2  -6 -11 2765.00 594.653   6
  -2   6  10 744.373 360.737   7
   2  -6 -10 902.575 307.293   6
   2  -6  -9 3886.83 628.757   6
  -2   6   9 5992.64 1078.60   7
  -2   6   8 141.199 265.203   7
  -2   6   7 9745.41 1309.64   7
  -2   6   6 1112.35 461.061   7
  -2   6   5 3194.99 577.593   3
  -2   6   5 3129.07 702.548   7
  -2   6   4 21870.0 1790.59   7
  -2   6   4 23063.1 1577.76   3
  -2   6   3 33989.8 2164.21   7
  -2   6   3 33724.4 1873.50   3
  -2   6   2 3410.31 670.753   7
  -2   6   2 3405.83 591.074   3
  -2   6   1 540.082 239.151   7
  -2   6   1 448.796 236.438   1
  -2   6   1 648.957 281.040   3
   2  -6   0 303.882 117.274   2
  -2   6   0 466.651 226.850   1
  -2   6   0 466.430 176.583   3
  -2   6   0 718.193 350.928   7
  -2   6  -1 10083.4 1028.94   3
   2  -6   1 8204.06 679.344   2
  -2   6  -1 8149.36 858.521   1
  -2   6  -2 24807.0 1566.77   1
  -2   6  -2 25399.6 1663.40   3
  -2   6  -3 192.594 229.062   1
  -2   6  -3 53.8298 109.181   3
  -2   6  -3 58.6773 80.6730   2
  -2   6  -4 48.6673 32.2559   2
  -2   6  -4 54.6823 158.258   3
  -2   6  -5 142.314 138.412   3
  -2   6  -6 1969.16 494.130   3
  -2   6  -7 210.637 173.760   3
   2  -6   8 3742.85 685.849   7
  -2   6  -8 3538.69 764.451   3
   2  -6   9 955.653 352.446   7
  -2   6  -9 759.712 353.020   3
  -2   6 -10 1505.98 509.971   3
   2  -6  10 689.202 302.910   7
   2  -6  11 14976.1 1483.12   7
  -2   6 -11 17249.0 1761.03   3
  -2   6 -12 35232.8 2591.93   3
   2  -6  12 33818.5 2319.46   7
  -2   6 -13 3900.70 914.767   3
   2  -6  13 3679.32 803.253   7
   2  -6  14 1936.01 592.520   7
  -2   6 -14 2061.46 649.235   3
  -2   6 -15 1367.81 523.959   3
   2  -6  15 1657.58 568.982   7
  -2   6 -16 1809.84 587.518   3
   2  -6  16 2149.64 667.304   7
   2  -6  17-143.641 215.150   7
  -2   6 -17-239.910 307.669   3
   2  -6  18 410.744 314.448   7
  -2   6 -18 372.252 348.526   3
  -2   6 -19-756.171 460.888   3
   2  -6  19-166.617 212.092   7
  -2   6 -20-143.584 398.658   3
  -2   6 -21-803.594 498.026   3
  -2   6 -22-141.108 233.093   3
  -2   6 -23 0.82896 214.152   3
  -2   6 -24 65.2552 176.157   3
  -2   5  22 208.997 430.947   7
  -2   5  21 233.386 324.502   7
  -2   5  20-94.1821 373.878   7
   2  -5 -20-118.472 184.235   6
  -2   5  19 301.363 418.145   7
   2  -5 -19 684.162 392.469   6
  -2   5  18-109.833 299.888   7
   2  -5 -18-38.2677 82.6611   6
  -2   5  17-609.711 452.975   7
   2  -5 -17-69.7788 136.830   6
   2  -5 -16-15.6337 90.8060   6
  -2   5  16-136.180 319.036   7
   2  -5 -15 1510.77 492.509   6
  -2   5  15 1812.37 792.746   7
  -2   5  14 9096.75 1565.08   7
   2  -5 -14 8079.71 1133.49   6
   2  -5 -13 796.969 337.303   6
  -2   5  13 1137.21 577.521   7
   2  -5 -12-311.040 204.429   6
  -2   5  12-149.001 225.837   7
   2  -5 -11 4621.76 746.104   6
  -2   5  11 4538.63 1005.34   7
  -2   5  10 3562.91 828.458   7
   2  -5 -10 3571.01 613.434   6
  -2   5   9 1087.61 482.703   7
   2  -5  -9 1604.87 385.400   6
  -2   5   8 9387.31 1282.01   7
   2  -5  -8 8711.67 848.763   6
  -2   5   7 951.937 378.677   7
  -2   5   6 529.965 235.743   7
  -2   5   5 46227.3 2512.54   7
  -2   5   5 45496.9 2051.25   3
  -2   5   4 48376.9 2466.02   7
  -2   5   4 45919.7 2011.95   3
  -2   5   3 62920.2 2727.91   7
  -2   5   3 59698.5 2264.60   3
  -2   5   2 60875.1 2597.33   7
  -2   5   2 59360.7 2220.63   3
  -2   5   1 11909.1 1104.20   7
  -2   5   1 12285.4 1005.67   3
   2  -5   0 1778.49 321.818   2
  -2   5   0 2896.88 490.259   3
  -2   5   0 2281.72 472.040   7
  -2   5   0 1958.24 412.579   1
  -2   5  -1 76470.4 2591.19   3
  -2   5  -1 75321.3 2561.71   1
   2  -5   1 77098.1 2077.50   2
  -2   5  -2 12083.4 1046.37   3
  -2   5  -2 11047.2 825.431   2
  -2   5  -3 14064.8 975.084   2
  -2   5  -3 14869.4 1206.18   3
  -2   5  -4 7561.14 888.454   3
  -2   5  -5 5799.18 813.816   3
  -2   5  -6 31558.2 1947.14   3
   2  -5   7 71.9680 136.868   7
  -2   5  -7 399.343 231.336   3
  -2   5  -8 2798.76 619.258   3
   2  -5   8 2736.34 552.024   7
  -2   5  -9 61.2265 112.188   3
   2  -5   9 186.914 184.987   7
  -2   5 -10 489.587 320.914   6
   2  -5  10 276.738 175.215   7
  -2   5 -10-180.046 214.509   3
  -2   5 -11 14336.9 1474.82   6
   2  -5  11 11860.0 1271.31   7
  -2   5 -11 14006.0 1513.86   3
   2  -5  12 3455.95 722.423   7
  -2   5 -12 5533.17 1005.54   3
  -2   5 -12 5369.67 954.208   6
   2  -5  13 407.993 209.905   7
  -2   5 -13 200.501 215.452   6
  -2   5 -13-67.8280 302.710   3
  -2   5 -14-183.279 329.060   3
  -2   5 -14 13.5415 178.036   6
   2  -5  14-127.360 157.218   7
  -2   5 -15-223.962 305.065   3
  -2   5 -15-80.0034 278.129   6
   2  -5  15 191.542 234.883   7
   2  -5  16-560.389 338.598   7
  -2   5 -16-81.1314 269.617   6
  -2   5 -16-162.235 230.243   3
  -2   5 -17-105.751 297.892   3
   2  -5  17-605.161 362.561   7
  -2   5 -17 417.684 306.569   6
   2  -5  18-123.804 260.834   7
  -2   5 -18 59.4259 166.422   3
  -2   5 -18 167.617 228.532   6
   2  -5  19 319.799 315.529   7
  -2   5 -19-369.092 402.485   3
  -2   5 -20-332.717 317.511   3
  -2   5 -21 59.8730 238.309   3
  -2   5 -22 265.422 276.505   3
  -2   5 -23-0.80989 239.985   3
  -2   5 -24 5.95398 323.822   3
  -2   4  23 387.589 522.217   7
  -2   4  22-917.022 625.224   7
   2  -4 -22-13.9010 102.046   6
  -2   4  21-500.164 453.980   7
   2  -4 -21 78.0139 164.401   6
   2  -4 -20 350.598 337.572   6
  -2   4  20-312.244 357.350   7
  -2   4  19-869.680 556.329   7
   2  -4 -19-300.425 270.797   6
   2  -4 -18 1663.71 616.107   6
  -2   4  18 167.641 246.092   7
  -2   4  17 5.31431 245.479   7
   2  -4 -17 120.550 70.1853   6
   2  -4 -16 1026.23 427.843   6
  -2   4  16 1398.18 650.781   7
   2  -4 -15 538.221 287.097   6
  -2   4  15 40.3819 192.786   7
  -2   4  14 1442.56 619.573   7
   2  -4 -14 575.928 283.613   6
   2  -4 -13 533.236 253.715   6
  -2   4  13 917.511 483.017   7
   2  -4 -12 153.369 109.469   6
  -2   4  12 373.048 276.850   7
   2  -4 -11-64.6429 158.520   6
  -2   4  11-201.076 145.427   7
   2  -4 -10 2688.04 543.072   6
  -2   4  10 2560.49 697.458   7
   2  -4 -10 2090.10 269.629   5
  -2   4   9 2560.19 628.417   7
   2  -4  -9 2306.56 236.785   5
   2  -4  -9 2253.82 462.363   6
  -2   4   8 404.647 246.248   7
   2  -4  -8 132.107 128.980   6
  -2   4   7 16800.8 1563.02   7
   2  -4  -7 15967.2 1037.23   6
   2  -4  -6 5017.37 530.761   6
  -2   4   6 4716.51 784.557   7
  -2   4   5 15928.8 1392.13   7
   2  -4  -5 13891.0 962.906   3
  -2   4   4 133152. 3791.48   7
   2  -4  -4 133239. 2899.67   3
  -2   4   4 135631. 3026.51   3
  -2   4   3 112480. 2685.89   3
  -2   4   3 112211. 3314.62   7
  -2   4   3 108388. 1353.57   5
   2  -4  -3 108744. 2598.70   3
  -2   4   2 97380.2 2942.84   7
   2  -4  -2 97948.7 2443.99   3
  -2   4   2 98610.8 2494.43   3
   2  -4  -1 13132.6 900.064   3
  -2   4   1 14364.6 1077.61   7
  -2   4   1 13603.8 937.519   3
  -2   4   0 35075.0 1528.70   3
  -2   4   0 35012.6 1622.86   7
   2  -4   0 34518.2 1414.50   2
   2  -4   1 1319.97 278.309   2
  -2   4  -1 1419.60 311.572   3
  -2   4  -2 2751.61 406.319   2
  -2   4  -2 2346.46 411.302   3
   2  -4   2 2453.29 328.457   6
  -2   4  -3 13353.4 1057.38   3
  -2   4  -3 14647.3 1015.72   7
  -2   4  -3 12172.7 901.751   2
   2  -4   3 13263.9 838.745   6
  -2   4  -4 45988.4 1805.41   7
  -2   4  -4 44961.3 2036.52   3
  -2   4  -5 5630.72 638.419   6
  -2   4  -5 6217.01 793.934   3
  -2   4  -5 6197.07 680.999   7
  -2   4  -6 30760.0 1642.42   6
   2  -4   6 31597.6 1583.76   7
  -2   4  -6 31912.1 1857.16   3
   2  -4   7 8902.04 874.496   7
  -2   4  -7 9721.44 1075.91   3
  -2   4  -7 9569.83 969.511   6
  -2   4  -8 15136.9 1411.86   3
   2  -4   8 15713.5 1221.88   7
  -2   4  -8 14964.2 1307.25   6
  -2   4  -9 4111.04 707.062   6
  -2   4  -9 4621.92 809.864   3
   2  -4   9 4580.72 687.972   7
  -2   4 -10 7977.33 1103.79   3
   2  -4  10 8607.05 1008.28   7
  -2   4 -10 8532.35 1080.07   6
   2  -4  11 82.8435 81.1354   7
  -2   4 -11 264.514 152.723   3
  -2   4 -11 306.528 310.005   6
   2  -4  12 6377.03 949.499   7
  -2   4 -12 7361.51 1113.55   3
  -2   4 -12 7036.91 1071.74   6
   2  -4  13 257.308 77.2564   7
  -2   4 -13 75.3271 164.501   6
   2  -4  14 75.5604 112.972   7
  -2   4 -14-169.448 260.089   6
  -2   4 -14-146.093 251.694   3
  -2   4 -15-173.594 295.794   3
   2  -4  15 370.206 218.533   7
   2  -4  16 4547.04 955.511   7
  -2   4 -16 4013.98 933.145   3
  -2   4 -16 3496.22 852.252   6
  -2   4 -17 28.1099 385.360   3
   2  -4  17-176.464 89.6723   7
  -2   4 -18 1560.32 597.854   3
   2  -4  18 777.383 457.942   7
  -2   4 -18 1800.45 649.960   6
   2  -4  19-307.191 280.209   7
  -2   4 -19-336.107 308.366   6
  -2   4 -20 452.139 363.176   6
  -2   4 -20-15.7363 149.117   3
  -2   4 -21-438.574 367.803   3
  -2   4 -21-459.513 381.464   6
  -2   4 -22-182.428 254.132   3
  -2   4 -22 73.2500 130.543   6
  -2   4 -23-226.179 287.883   3
  -2   4 -24-948.383 568.241   3
   2  -3 -23-137.091 216.391   6
  -2   3  23-489.748 461.378   7
  -2   3  22 224.483 435.952   7
   2  -3 -22-0.69247 82.8434   6
  -2   3  21-927.898 597.470   7
   2  -3 -21-298.198 289.980   6
   2  -3 -20 15.7086 116.275   6
  -2   3  20-766.867 530.600   7
  -2   3  19 131.313 199.788   7
   2  -3 -19-869.453 447.784   6
  -2   3  18 109.210 147.738   7
   2  -3 -18-197.876 274.100   6
  -2   3  17 313.465 398.981   7
   2  -3 -17 450.133 291.624   6
   2  -3 -16 137.792 232.909   6
  -2   3  16 360.015 394.264   7
  -2   3  15 44.0472 154.681   7
   2  -3 -15 203.055 228.230   6
   2  -3 -14 767.914 382.186   6
  -2   3  14 663.773 348.014   7
   2  -3 -13 18041.1 1583.07   6
  -2   3  13 20560.8 2156.91   7
   2  -3 -12 413.692 278.797   6
  -2   3  12 819.309 460.582   7
   2  -3 -11 1546.30 419.717   6
   2  -3 -11 1779.51 310.615   5
  -2   3  11 2110.00 654.181   7
   2  -3 -10 931.575 314.082   6
   2  -3 -10 1024.84 215.312   5
  -2   3  10 1348.89 467.388   7
   2  -3  -9 6634.46 492.218   5
  -2   3   9 7783.01 1112.95   7
   2  -3  -9 7264.01 800.612   6
   2  -3  -8 20532.0 756.837   5
  -2   3   8 24057.2 1880.69   7
   2  -3  -8 21827.3 1286.91   6
  -2   3   7 57815.9 2793.90   7
   2  -3  -7 54652.6 1873.74   6
   2  -3  -7 51987.8 1842.30   3
   2  -3  -6 7878.90 673.905   3
   2  -3  -6 7101.58 609.409   6
  -2   3   6 7509.92 966.250   7
   2  -3  -5 1649.46 263.911   6
   2  -3  -5 1596.55 281.856   3
  -2   3   5 2052.81 468.643   7
  -2   3   4 14415.5 847.428   3
  -2   3   4 13668.4 1126.06   7
   2  -3  -4 14102.2 670.317   6
   2  -3  -4 14739.7 824.065   3
  -2   3   3 504.818 248.143   7
   2  -3  -3 333.507 121.130   3
  -2   3   3 226.714 93.9284   3
  -2   3   2 126271. 3003.13   7
   2  -3  -2 125692. 2343.72   3
  -2   3   2 122084. 1606.44   5
  -2   3   2 122083. 2365.29   3
   2  -3  -1 114286. 2279.21   3
  -2   3   1 112602. 2657.52   7
  -2   3   1 116254. 1851.29   5
  -2   3   1 110400. 2300.23   3
  -2   3   0 15665.4 898.496   3
  -2   3   0 16142.5 946.047   7
   2  -3   0 15046.8 927.519   2
   2  -3   0 15444.1 543.341   6
  -2   3  -1 4328.41 504.538   3
  -2   3  -1 3232.66 429.909   2
   2  -3   1 4254.01 341.968   6
   2  -3   1 3688.84 458.135   2
  -2   3  -2 4407.72 528.451   3
  -2   3  -2 4452.74 421.917   6
   2  -3   2 4320.42 405.416   6
  -2   3  -2 4662.65 529.664   2
  -2   3  -3 296.933 114.281   7
  -2   3  -3 344.318 142.482   3
   2  -3   3 500.788 153.085   6
  -2   3  -3 481.442 174.492   6
  -2   3  -4 60808.3 2238.26   3
  -2   3  -4 63248.0 1960.33   6
  -2   3  -4 63414.3 1825.81   7
  -2   3  -5 36950.9 1469.85   7
   2  -3   5 33977.9 1420.99   7
  -2   3  -5 36164.7 1595.45   6
   2  -3   6 4183.23 527.528   7
  -2   3  -6 4397.76 532.405   7
  -2   3  -6 5284.34 664.321   6
   2  -3   7 24705.2 1385.87   7
  -2   3  -7 23846.3 1287.62   4
  -2   3  -7 23259.4 1311.22   7
  -2   3  -7 25027.9 1545.78   6
   2  -3   8 16185.4 1186.23   7
  -2   3  -8 14990.9 1023.25   4
  -2   3  -8 15675.8 1305.78   6
   2  -3   9 28835.4 1695.30   7
  -2   3  -9 25930.5 1782.40   6
   2  -3  10 2648.02 533.361   7
  -2   3 -10 2539.96 581.667   6
   2  -3  11 4694.16 766.670   7
  -2   3 -11 5525.55 890.477   6
  -2   3 -12 7171.53 1058.02   6
   2  -3  12 5888.04 896.268   7
   2  -3  13 138.596 146.587   7
  -2   3 -13 16.1074 148.253   6
   2  -3  14 735.046 342.953   7
  -2   3 -14 131.178 127.682   6
   2  -3  15 1974.92 595.334   7
  -2   3 -15 1761.96 608.408   6
  -2   3 -16 10908.2 1570.46   6
   2  -3  16 10545.1 1449.11   7
   2  -3  17 519.717 276.733   7
  -2   3 -17 771.308 471.399   6
  -2   3 -18 646.533 400.690   6
   2  -3  18 316.388 257.311   7
   2  -3  19 12.5326 225.764   7
  -2   3 -19 535.354 338.183   6
  -2   3 -20 368.921 250.635   6
  -2   3 -21 909.029 543.536   3
  -2   3 -21 173.019 187.543   6
  -2   3 -22-147.001 233.400   3
  -2   3 -22 1202.19 753.372   6
  -2   3 -23 179.584 259.655   3
  -2   3 -23-507.922 424.552   6
  -2   3 -24-54.1325 169.068   3
  -2   2  24 14.9843 172.947   7
   2  -2 -23 295.859 308.539   6
  -2   2  23-178.970 286.865   7
  -2   2  22 64.8619 185.159   7
   2  -2 -22-341.238 317.538   6
  -2   2  21 251.402 313.551   7
   2  -2 -21 67.9324 232.428   6
  -2   2  20-565.641 446.885   7
   2  -2 -20 37.4340 152.185   6
   2  -2 -19 3442.15 907.465   6
  -2   2  19 3042.82 1048.31   7
  -2   2  18 101.596 279.831   7
   2  -2 -18 441.871 364.423   6
  -2   2  17 61.7926 262.400   7
   2  -2 -17-34.1736 209.980   6
  -2   2  16-73.8069 121.355   7
   2  -2 -16-11.9017 129.042   6
   2  -2 -15 1060.59 398.781   6
  -2   2  15 1094.24 556.470   7
   2  -2 -14 2455.19 624.311   6
  -2   2  14 2825.17 843.685   7
  -2   2  13 1213.10 501.214   7
   2  -2 -13 933.776 365.098   6
  -2   2  12 990.285 439.851   7
   2  -2 -12 1074.49 374.425   6
   2  -2 -11 1556.95 419.438   6
  -2   2  11 1038.20 416.881   7
   2  -2 -10 31.0900 113.022   6
   2  -2 -10 150.473 89.4178   5
  -2   2   9 7999.97 1111.38   7
   2  -2  -9 8210.60 850.774   6
   2  -2  -8 15956.8 1095.02   6
  -2   2   8 15721.7 1475.75   7
  -2   2   7 18013.3 1490.97   7
   2  -2  -7 18035.3 1068.77   6
   2  -2  -6 55356.4 1567.28   3
  -2   2   6 58256.2 2497.90   7
   2  -2  -6 56857.0 1716.36   6
   2  -2  -5 47260.9 1396.20   6
   2  -2  -5 45459.0 1283.87   3
  -2   2   5 46270.1 2079.95   7
  -2   2   4 79738.0 2542.47   7
   2  -2  -4 78529.2 1525.56   6
   2  -2  -4 79255.7 1527.24   3
   2  -2  -3 442462. 2822.55   6
  -2   2   3 437868. 5510.42   7
  -2   2   3 440433. 3489.30   3
   2  -2  -3 440522. 3411.34   3
   2  -2  -2 12518.7 584.271   3
  -2   2   2 13207.9 539.253   5
  -2   2   2 12706.9 846.711   7
   2  -2  -2 12615.4 477.216   5
  -2   2   2 12692.4 593.949   3
  -2   2   1 28841.8 908.140   5
   2  -2  -1 29718.1 867.603   5
  -2   2   1 29038.4 945.167   3
   2  -2  -1 30286.8 967.301   3
  -2   2   1 28428.8 1152.02   7
  -2   2   0 6671.44 509.508   3
  -2   2   0 6727.80 505.378   7
  -2   2  -1 397733. 3527.67   7
   2  -2   1 397921. 3108.21   6
  -2   2  -1 401199. 4706.73   2
  -2   2  -1 387746. 4290.10   3
  -2   2  -1 392516. 3101.01   6
   2  -2   2 22382.9 1157.21   1
  -2   2  -2 23249.6 1167.66   2
  -2   2  -2 22664.8 901.681   6
  -2   2  -3 104638. 1806.43   7
  -2   2  -3 104859. 2198.23   6
   2  -2   3 105639. 2576.33   1
  -2   2  -4 208535. 2774.49   7
   2  -2   4 207099. 2772.55   7
  -2   2  -4 203031. 3418.00   6
   2  -2   5 51.6651 79.1568   7
  -2   2  -5 29.4608 50.0841   4
  -2   2  -5 224.873 172.216   6
  -2   2  -5 152.518 109.129   7
   2  -2   6 49194.9 1697.98   7
  -2   2  -6 49926.4 1664.66   7
  -2   2  -6 49138.4 1791.35   4
  -2   2  -6 51102.7 2029.78   6
  -2   2  -7 16180.8 1035.02   7
  -2   2  -7 15253.5 1009.02   4
  -2   2  -7 14816.0 1172.51   6
   2  -2   7 15656.7 1052.31   7
  -2   2  -8 5998.98 804.909   6
   2  -2   8 7318.80 780.236   7
  -2   2  -9 14954.2 1341.94   6
   2  -2   9 13189.1 1119.27   7
   2  -2  10 17407.5 1382.65   7
  -2   2 -10 18069.7 1538.38   6
   2  -2  11 3152.00 625.729   7
  -2   2 -11 3638.60 712.139   6
  -2   2 -12 3875.20 726.073   6
   2  -2  12 4094.87 836.999   7
   2  -2  13-115.276 103.010   7
  -2   2 -13-12.1929 167.574   6
   2  -2  14 438.678 308.127   7
  -2   2 -14-236.025 314.237   6
  -2   2 -15 760.635 382.712   6
   2  -2  15 230.912 182.699   7
  -2   2 -16 918.491 450.432   6
   2  -2  16 864.165 398.349   7
   2  -2  17 311.854 265.567   7
  -2   2 -17 827.957 457.808   6
   2  -2  18-74.3595 233.410   7
  -2   2 -18 209.095 261.603   6
  -2   2 -19-571.951 396.076   6
   2  -2  19-3.60747 174.780   7
   2  -2  20 289.332 292.141   7
  -2   2 -20 669.151 417.001   6
  -2   2 -21-186.528 257.786   6
  -2   2 -22-86.4898 192.434   6
  -2   2 -23 371.433 419.277   6
  -2   2 -24 35.7226 346.692   3
  -2   1  25 849.259 683.531   7
  -2   1  24 710.225 646.738   7
  -2   1  23-159.738 268.033   7
   2  -1 -22-58.7260 155.095   6
  -2   1  22 637.403 518.663   7
  -2   1  21 168.735 249.160   7
   2  -1 -21 314.407 335.752   6
  -2   1  20 166.595 209.409   7
   2  -1 -20-186.137 258.550   6
  -2   1  19-187.437 238.142   7
   2  -1 -19 544.370 358.488   6
  -2   1  18 1703.06 733.460   7
   2  -1 -18 531.453 364.445   6
  -2   1  17 873.132 497.195   7
   2  -1 -17 1384.07 546.513   6
  -2   1  16 162.477 258.573   7
   2  -1 -16-393.904 273.556   6
   2  -1 -15 5525.63 970.938   6
  -2   1  15 5759.15 1184.74   7
  -2   1  14 91.1733 160.457   7
   2  -1 -14 117.472 175.585   6
   2  -1 -13 4278.86 775.334   6
  -2   1  13 3665.18 857.877   7
  -2   1  12 815.081 454.537   7
   2  -1 -12 450.884 236.146   6
   2  -1 -11 262.847 182.328   6
  -2   1  11 159.225 172.770   7
  -2   1  10 11570.2 1384.83   7
   2  -1 -10 9334.94 979.585   6
  -2   1   9 5458.07 877.166   7
   2  -1  -9 5375.82 703.970   6
   2  -1  -8 3268.42 511.737   6
  -2   1   8 2767.55 616.805   7
   2  -1  -7 18943.0 1124.83   6
  -2   1   7 18687.6 1453.48   7
  -2   1   6 15254.1 878.958   6
  -2   1   6 13669.4 1160.85   7
   2  -1  -6 16157.6 938.326   6
  -2   1   5 47341.6 1390.36   6
   2  -1  -5 45781.5 1424.22   6
  -2   1   5 47560.5 2032.39   7
  -2   1   4 738.162 154.654   6
   2  -1  -4 591.227 142.747   6
  -2   1   4 788.401 229.612   7
   2  -1  -3 19063.2 699.675   5
  -2   1   3 19524.0 1084.10   7
  -2   1   3 18885.1 633.668   6
  -2   1   2 15869.3 853.344   7
   2  -1  -2 16397.6 672.295   5
   2  -1  -1 961293. 5497.19   5
  -2   1   1 926931. 5701.03   7
  -2   1   0 62455.8 1177.50   7
   2  -1   0 62156.6 1499.97   5
   2  -1   1 12493.4 727.818   5
  -2   1  -1 11812.6 799.639   2
   2  -1   2 449519. 4726.88   1
   2  -1   2 455300. 4714.64   5
   2  -1   3 57289.6 1796.17   5
   2  -1   3 57423.1 1740.13   1
  -2   1  -3 54148.4 1610.50   6
  -2   1  -4 9859.50 535.415   7
  -2   1  -4 9645.33 754.939   6
   2  -1   4 9819.40 757.694   1
   2  -1   4 9905.61 554.458   7
  -2   1  -4 11033.2 805.764   4
  -2   1  -5 49791.5 1412.75   7
  -2   1  -5 51291.4 1773.65   4
  -2   1  -5 49628.4 1855.31   6
   2  -1   5 49153.3 1471.69   7
  -2   1  -6 15121.6 883.540   7
   2  -1   6 14311.7 899.930   7
  -2   1  -6 14969.6 985.463   4
   2  -1   6 15049.0 1055.71   4
  -2   1  -6 15557.2 1122.84   6
   2  -1   7 6334.15 715.446   4
  -2   1  -7 5880.40 615.642   7
  -2   1  -7 6427.64 777.574   6
   2  -1   7 6684.63 676.902   7
   2  -1   8 6479.60 736.109   7
   2  -1   8 7255.31 793.653   4
  -2   1  -8 7605.88 884.894   6
   2  -1   9 7836.38 871.261   7
   2  -1   9 7650.87 849.582   4
  -2   1  -9 8263.83 981.139   6
  -2   1 -10 9581.48 1132.32   6
   2  -1  10 7936.02 899.717   4
   2  -1  10 7628.40 914.434   7
  -2   1 -11 357.586 211.972   6
   2  -1  11 392.466 220.311   4
   2  -1  11 143.181 77.2013   7
   2  -1  12 575.754 274.214   7
  -2   1 -12 363.613 139.171   6
   2  -1  12 508.166 256.534   4
  -2   1 -13 444.594 187.706   6
   2  -1  13 331.371 214.176   7
   2  -1  13 400.351 217.639   4
   2  -1  14 133.479 199.439   4
   2  -1  14 290.006 291.057   7
   2  -1  15 691.173 309.337   4
  -2   1 -15 522.474 274.226   6
   2  -1  15 1223.92 504.513   7
  -2   1 -16-15.9974 195.573   6
   2  -1  16-383.619 282.885   7
   2  -1  16 1.85921 74.1105   4
  -2   1 -17-110.364 240.655   6
   2  -1  17 306.035 231.161   4
   2  -1  18-312.722 114.403   7
  -2   1 -18 826.909 480.839   6
  -2   1 -19 477.498 472.468   6
   2  -1  19 291.223 249.118   7
   2  -1  20-324.683 301.609   7
  -2   1 -20 200.689 246.744   6
  -2   1 -21 475.787 486.703   6
  -2   1 -22 114.065 202.685   6
  -2   1 -23-23.6851 131.408   6
  -2   0  25-321.741 378.433   7
  -2   0  24 21.2486 152.045   7
  -2   0  23 572.047 577.134   7
  -2   0  22 700.665 606.164   7
  -2   0  21 52.4744 134.031   7
   2   0 -20 255.243 347.686   6
  -2   0  20 1079.49 669.811   7
   2   0 -19 1796.69 652.190   6
  -2   0  19 1795.39 756.788   7
  -2   0  18 782.581 495.016   7
   2   0 -18-128.179 127.093   6
   2   0 -17 2849.32 774.360   6
  -2   0  17 3481.41 969.011   7
  -2   0  16 157.044 276.186   7
   2   0 -16 382.963 270.300   6
  -2   0  15 1301.41 543.323   7
   2   0 -15 1773.85 560.883   6
  -2   0  14-207.082 266.705   7
   2   0 -14 72.8562 129.936   6
   2   0 -13 1225.02 440.035   6
  -2   0  13 1070.65 447.682   7
  -2   0  12 2373.00 659.716   7
   2   0 -12 1602.93 462.471   6
  -2   0  11 8596.78 1226.14   7
   2   0 -11 10022.2 1096.67   6
  -2   0  10-130.134 120.359   7
   2   0 -10 29.7934 47.3797   6
  -2   0   9 2409.94 587.286   7
   2   0  -9 1457.38 369.114   6
  -2   0   8 7738.77 979.051   7
   2   0  -8 8201.75 824.332   6
  -2   0   7 6391.31 830.634   7
   2   0  -7 5925.63 646.695   6
  -2   0   6 40759.6 1984.40   7
  -2   0   6 38822.7 1472.92   6
  -2   0   5 5702.09 703.346   7
   2   0  -5 5063.21 335.089   3
  -2   0   5 5369.26 495.843   6
  -2   0   4 404081. 5259.22   7
  -2   0   3 12751.8 847.095   7
  -2   0   2 132696. 2420.52   7
   2   0  -2 135690. 2238.70   5
  -2   0  -1 188237. 3100.49   2
   2   0   1 182357. 2945.81   5
   2   0   2 11036.0 763.469   5
   2   0   2 11877.5 801.738   4
   2   0   3 393910. 4132.08   1
  -2   0  -3 389025. 2930.29   7
   2   0   3 389178. 2960.00   7
   2   0   3 390086. 4840.40   4
   2   0   3 382687. 4718.47   5
   2   0   4 25.4611 73.2169   5
   2   0   4 151.774 78.3170   7
  -2   0  -4 221.673 97.7152   7
   2   0   4 142.238 112.948   4
   2   0   4 265.331 129.967   1
   2   0   5 91331.0 2561.97   4
   2   0   5 93167.8 2108.82   7
  -2   0  -5 89521.6 1984.00   7
   2   0   5 94040.2 2259.16   1
   2   0   5 94511.6 2602.04   5
  -2   0  -6 15694.5 939.838   7
  -2   0  -6 16909.8 1201.46   6
   2   0   6 15867.3 1106.84   4
   2   0   6 15703.4 971.891   7
  -2   0  -7 5890.70 757.385   6
   2   0   7 6183.52 675.135   7
  -2   0  -7 6423.85 660.314   7
   2   0   7 5923.90 708.019   4
   2   0   8 1035.46 320.734   4
   2   0   8 965.622 299.607   7
  -2   0  -8 1099.07 342.414   6
  -2   0  -9 321.389 204.376   6
   2   0   9 623.967 260.406   7
   2   0   9 588.890 228.536   4
   2   0  10 6712.12 885.050   7
   2   0  10 6184.46 815.557   4
  -2   0 -10 7079.31 973.618   6
   2   0  11 829.273 320.472   4
  -2   0 -11 427.064 207.398   6
   2   0  11 758.462 314.262   7
  -2   0 -12-154.452 244.281   6
   2   0  12-93.4154 171.562   4
   2   0  12-50.7042 187.672   7
  -2   0 -13 776.439 344.657   6
   2   0  13 557.404 311.178   7
   2   0  13 445.767 227.893   4
   2   0  14 3819.13 816.273   7
   2   0  14 4487.15 802.577   4
  -2   0 -14 4139.77 891.096   6
   2   0  15 1464.00 561.057   7
  -2   0 -15 864.590 446.434   6
   2   0  15 942.210 425.053   4
   2   0  16 3252.41 753.401   4
  -2   0 -16 4307.59 990.168   6
   2   0  16 3981.03 890.532   7
  -2   0 -17 393.227 308.040   6
   2   0  17 919.430 481.985   7
   2   0  17 635.264 319.442   4
   2   0  18 561.314 308.970   7
  -2   0 -18 162.106 232.481   6
  -2   0 -19 528.617 370.573   6
   2   0  19 343.805 340.936   7
   2   0  20 408.210 407.124   7
  -2   0 -20 11.7529 107.036   6
  -2   0 -21 1017.56 622.821   6
  -2   0 -22 56.1887 168.342   6
  -2   0 -23 293.150 376.862   6
  -2  -1  25 238.013 324.212   7
  -2  -1  24-131.879 249.364   7
  -2  -1  23 205.844 297.735   7
  -2  -1  22 103.151 218.068   7
  -2  -1  21 37.3272 165.603   7
  -2  -1  20-169.688 322.104   7
   2   1 -19-92.0344 225.730   3
  -2  -1  19-86.7413 230.792   7
  -2  -1  18 245.346 247.604   7
   2   1 -18 233.071 267.251   3
  -2  -1  17 1560.70 592.627   7
   2   1 -17 2839.04 659.471   3
  -2  -1  16 181.325 243.941   7
   2   1 -15 7806.99 1164.55   6
  -2  -1  15 8874.15 1450.32   7
  -2  -1  14 1215.46 495.401   7
   2   1 -14 1664.45 544.773   6
  -2  -1  13 231.131 175.147   7
   2   1 -13 1046.46 395.002   6
  -2  -1  12 4203.63 874.575   7
   2   1 -12 3446.93 670.801   6
  -2  -1  11-346.369 362.163   7
   2   1 -10 3333.48 508.747   3
  -2  -1  10 2341.37 575.560   7
  -2  -1   9 968.536 284.316   7
   2   1  -9 1228.75 263.278   3
   2   1  -8-59.0960 81.2033   3
  -2  -1   8 64.4495 209.034   7
  -2  -1   7 78474.1 2930.42   7
   2   1  -7 76590.3 1914.04   3
   2   1  -6 55488.0 1488.28   3
  -2  -1   6 54315.5 2275.25   7
  -2  -1   5 54344.0 2120.12   7
  -2  -1   5 55606.3 1338.92   3
   2   1  -5 55172.9 1345.26   3
  -2  -1   4 103223. 1667.24   3
   2   1  -4 101500. 1686.81   3
  -2  -1   4 99680.5 2645.79   7
   2   1  -3 584439. 3916.93   3
  -2  -1   3 587165. 5865.00   7
  -2  -1   3 586891. 3908.61   3
  -2  -1   2 25763.7 1122.09   7
   2   1  -2 24509.6 844.842   3
   2   1  -1 46964.7 1518.99   5
  -2  -1   1 47633.2 1368.53   7
   2   1  -1 47903.0 1429.77   4
   2   1   0 981205. 6826.33   4
  -2  -1   0 991624. 6887.66   2
   2   1   0 984049. 7107.53   5
  -2  -1   0 999999. 5762.42   7
   2   1   1 48293.0 1569.86   4
   2   1   1 48103.4 1637.39   5
  -2  -1  -1 50220.5 1599.71   2
   2   1   2 7819.26 676.748   5
  -2  -1  -2 8422.35 476.873   1
   2   1   2 7846.61 519.531   7
   2   1   2 8729.91 705.129   4
   2   1   3 47510.4 1743.62   5
   2   1   3 52187.0 1811.75   4
   2   1   3 50089.6 1299.01   1
   2   1   3 47159.8 1358.04   7
   2   1   4 5422.28 504.758   7
   2   1   4 5028.54 586.459   5
  -2  -1  -4 5691.89 514.578   7
   2   1   4 5503.84 466.272   1
   2   1   4 5092.75 604.577   4
  -2  -1  -5 34761.3 1405.73   7
   2   1   5 36955.7 1641.20   5
   2   1   5 35742.3 1278.80   1
   2   1   5 35256.4 1428.93   7
   2   1   6 10055.1 830.918   7
   2   1   6 9863.67 879.830   5
  -2  -1  -6 10281.2 829.811   7
   2   1   7 25057.3 1440.08   7
   2   1   7 24248.2 1441.67   5
  -2  -1  -8 756.287 295.806   6
   2   1   8 1124.35 331.977   7
  -2  -1  -9 4251.03 726.623   6
   2   1   9 4531.71 719.582   7
   2   1  10-57.2268 152.361   7
  -2  -1 -10 212.397 185.755   6
   2   1  10 60.5484 107.057   4
  -2  -1 -11 264.520 203.631   6
   2   1  11 65.1417 164.163   4
   2   1  11-27.3462 114.751   7
   2   1  12 5964.34 986.509   7
   2   1  12 6383.23 944.200   4
  -2  -1 -12 4866.77 883.497   6
  -2  -1 -13 676.557 388.057   6
   2   1  13 715.889 333.968   4
   2   1  13 555.672 380.457   7
  -2  -1 -14 6276.71 1094.75   6
   2   1  14 5984.62 1061.31   7
   2   1  14 6265.19 999.599   4
  -2  -1 -15 564.093 379.684   6
   2   1  15 166.695 191.313   4
   2   1  15 11.8014 119.391   7
   2   1  16 772.230 361.046   4
  -2  -1 -16 1304.02 553.494   6
   2   1  16 1837.25 650.783   7
   2   1  17 1972.34 698.490   7
  -2  -1 -17 3974.63 1000.76   6
   2   1  17 2259.46 676.405   4
  -2  -1 -18 3350.22 949.073   6
   2   1  18 2005.48 717.930   7
   2   1  18 2453.45 718.115   4
  -2  -1 -19 1319.39 631.748   6
   2   1  19 2031.40 795.293   7
  -2  -1 -20 66.1009 161.527   6
   2   1  20-340.735 319.118   7
  -2  -1 -21 307.672 370.149   6
  -2  -1 -22 542.457 465.726   6
  -2  -1 -23 306.313 330.577   6
  -2  -2  26 38.2277 221.824   7
  -2  -2  25-866.151 602.972   7
  -2  -2  24-365.459 393.537   7
  -2  -2  23 323.932 360.529   7
  -2  -2  22 395.815 453.566   7
  -2  -2  21 909.913 595.949   7
  -2  -2  20 268.982 272.714   7
   2   2 -19 24.3286 120.892   3
  -2  -2  19 179.324 333.670   7
   2   2 -18 17.7386 203.914   3
  -2  -2  18 227.778 179.098   7
  -2  -2  17 3303.54 919.763   7
   2   2 -17 4375.14 828.178   3
  -2  -2  16-161.275 188.811   7
   2   2 -16-483.344 268.814   3
  -2  -2  15 122.720 165.476   7
   2   2 -15 224.566 240.935   3
  -2  -2  14 851.036 357.427   7
   2   2 -14 934.053 353.938   3
  -2  -2  13 303.345 252.091   7
   2   2 -13-285.988 184.642   3
   2   2 -12 386.091 224.083   3
  -2  -2  12 275.996 137.114   7
   2   2 -11 28697.1 1640.35   3
  -2  -2  11 29021.8 2189.10   7
  -2  -2  10 22967.5 1870.07   7
   2   2 -10 24682.2 1449.18   3
  -2  -2   9 10734.9 1227.87   7
   2   2  -9 10171.0 877.957   3
   2   2  -8 44594.4 1724.22   3
  -2  -2   8 40667.4 2254.78   7
  -2  -2   7 15190.3 1310.18   7
   2   2  -7 17252.3 1013.24   3
  -2  -2   6 24206.3 1540.91   7
  -2  -2   6 24473.0 1120.40   3
   2   2  -6 23158.8 1111.01   3
   2   2  -5 205759. 3140.27   3
  -2  -2   5 206424. 3086.49   3
  -2  -2   5 204079. 2161.97   4
  -2  -2   5 206899. 4279.37   7
  -2  -2   4 47167.5 1426.39   3
  -2  -2   4 45825.0 1908.42   7
  -2  -2   4 48636.9 1130.74   4
   2   2  -4 46691.6 1455.90   3
  -2  -2   3 36225.4 1071.80   4
  -2  -2   3 33977.8 1530.13   7
   2   2  -3 34426.4 1103.73   4
   2   2  -3 34665.6 1246.38   3
  -2  -2   2 268619. 4048.49   7
   2   2  -2 271821. 3301.20   4
   2   2  -2 267683. 3547.23   3
   2   2  -1 6225.96 536.418   4
  -2  -2   1 5322.13 543.820   7
   2   2  -1 5341.64 524.346   3
  -2  -2   0 16315.9 872.319   2
   2   2   0 15662.1 977.961   5
  -2  -2  -1 1292.96 259.123   2
   2   2   1 1206.31 269.979   5
   2   2   2 516916. 5892.30   5
   2   2   3 46566.1 1630.01   7
   2   2   3 47484.2 1837.61   5
  -2  -2  -3 46514.5 1825.14   5
   2   2   4 39212.7 1586.06   7
   2   2   4 39039.2 1693.02   5
   2   2   4 39452.8 1088.94   1
   2   2   5 71210.8 2340.41   5
   2   2   5 69377.8 2233.02   7
   2   2   5 70660.9 1610.91   1
   2   2   6 490.545 240.615   7
   2   2   6 333.854 188.159   5
   2   2   7 1014.49 302.754   5
   2   2   7 902.000 312.455   7
   2   2   8 4626.40 695.776   7
   2   2   8 5305.41 697.950   5
   2   2   9 18.1210 82.8922   7
  -2  -2 -10 1043.52 369.425   6
   2   2  10 1074.76 410.895   7
   2   2  11 159.120 187.533   7
  -2  -2 -11 410.426 284.069   6
   2   2  12 437.053 255.882   7
  -2  -2 -12 314.950 250.347   6
  -2  -2 -13 4635.08 912.558   6
   2   2  13 4598.44 937.816   7
  -2  -2 -14 489.970 357.096   6
   2   2  14 240.106 296.262   7
   2   2  14 83.0173 71.8268   4
   2   2  15-115.523 194.783   7
   2   2  15 17.7285 83.9339   4
  -2  -2 -15-404.368 296.289   6
   2   2  16 1223.16 540.243   7
   2   2  16 1274.80 477.037   4
  -2  -2 -16 1467.51 583.105   6
  -2  -2 -17 1133.13 538.199   6
   2   2  17-112.450 259.578   4
   2   2  17 648.012 417.652   7
  -2  -2 -18 475.271 439.186   6
   2   2  18 72.8598 190.105   7
   2   2  18 185.062 182.478   4
  -2  -2 -19-51.9472 317.082   6
   2   2  19 92.6012 94.3693   7
   2   2  20-37.1310 122.777   7
  -2  -2 -20 658.067 554.123   6
  -2  -2 -21-275.866 299.668   6
  -2  -2 -22 157.301 249.812   6
  -2  -3  26-556.170 499.585   7
  -2  -3  25-1006.59 648.154   7
  -2  -3  24 73.9467 203.510   7
  -2  -3  23 82.5875 136.132   7
  -2  -3  22 297.801 401.404   7
  -2  -3  21 404.077 320.914   7
   2   3 -20-141.714 282.218   3
  -2  -3  20-240.341 321.941   7
   2   3 -19-255.256 225.210   3
  -2  -3  19-30.1776 140.438   7
  -2  -3  18 356.422 190.226   7
   2   3 -18 635.145 319.577   3
   2   3 -17 499.168 296.431   3
  -2  -3  17 740.447 192.349   7
  -2  -3  16-199.712 208.944   7
   2   3 -16-81.2329 80.2097   3
  -2  -3  15 671.109 378.063   7
   2   3 -15 581.477 329.866   3
  -2  -3  14 2004.95 660.627   7
   2   3 -14 1428.42 435.297   3
   2   3 -13 239.797 156.858   3
  -2  -3  13 383.240 260.384   7
  -2  -3  12 5450.32 988.625   7
   2   3 -12 4879.80 736.596   3
  -2  -3  11 4225.01 857.216   7
   2   3 -11 4745.30 709.305   3
  -2  -3  10 1438.75 470.170   7
   2   3 -10 1337.20 333.602   3
  -2  -3   9 85113.8 3541.65   7
   2   3  -9 91097.0 2820.49   3
   2   3  -8 7947.75 783.108   3
  -2  -3   8 8391.00 1043.39   7
  -2  -3   7 26685.8 1800.06   7
   2   3  -7 27495.1 1417.72   3
   2   3  -6 23990.9 1285.06   3
  -2  -3   6 25873.4 1688.04   7
   2   3  -5 29457.1 1388.98   3
  -2  -3   5 29118.1 1698.29   7
   2   3  -5 29181.0 921.762   4
  -2  -3   5 28052.6 1325.99   3
  -2  -3   4 46386.2 2045.44   7
   2   3  -4 47427.4 1294.14   4
   2   3  -4 45763.6 1703.77   3
   2   3  -3 293.012 158.774   3
  -2  -3   3 287.248 133.632   7
   2   3  -2 57226.3 1925.63   3
  -2  -3   2 57584.6 2115.22   7
   2   3  -1 80561.7 1813.89   2
   2   3  -1 79395.8 2352.94   3
   2   3   0 80125.9 2396.26   5
  -2  -3   0 78169.7 1871.54   2
   2   3   0 79601.3 2423.80   3
   2   3   1 91712.6 2608.03   5
  -2  -3  -2 40347.2 1722.17   5
   2   3   2 40157.3 1751.62   5
   2   3   3 4017.18 562.857   7
   2   3   3 4047.67 567.315   5
   2   3   4 94.4971 87.8450   7
   2   3   4 10.0007 73.8235   5
   2   3   4 54.3710 36.0540   1
   2   3   5 85994.5 2687.76   5
   2   3   5 83834.5 2747.36   7
   2   3   5 80824.4 1532.49   1
   2   3   6 12243.2 1041.14   5
   2   3   6 12481.5 1114.55   7
   2   3   7 14673.8 1158.91   5
   2   3   7 15345.1 1295.10   7
   2   3   8 5879.74 748.581   5
   2   3   8 4874.04 777.801   7
   2   3   9 1826.07 421.889   5
   2   3   9 2176.90 537.438   7
   2   3  10 445.310 206.770   7
  -2  -3 -11 36.5721 272.957   6
   2   3  11 193.966 68.5913   7
  -2  -3 -12 6616.91 1077.57   6
   2   3  12 6454.14 1068.14   7
   2   3  13 2016.68 594.065   7
  -2  -3 -13 1239.90 501.227   6
  -2  -3 -14 166.092 187.104   6
   2   3  14 632.298 369.100   7
  -2  -3 -15 2427.68 731.164   6
   2   3  15 1691.12 629.044   7
  -2  -3 -16 128.927 207.575   6
   2   3  16 546.926 329.495   7
  -2  -3 -17-39.2736 135.248   6
   2   3  17 311.195 291.936   7
   2   3  17 133.012 133.683   4
   2   3  18 663.880 394.900   7
  -2  -3 -18 227.249 184.441   6
   2   3  18 1221.75 550.039   4
   2   3  19 29.3986 123.658   7
  -2  -3 -19-205.991 252.178   6
   2   3  19-111.905 173.529   4
  -2  -3 -20-662.552 444.833   6
   2   3  20-127.323 216.382   7
  -2  -3 -21 159.054 262.178   6
  -2  -3 -22 437.201 384.867   6
  -2  -4  26-171.293 293.949   7
  -2  -4  25 763.777 669.574   7
  -2  -4  24 557.821 567.884   7
  -2  -4  23 198.689 243.839   7
  -2  -4  22 596.236 478.776   7
  -2  -4  21-425.440 387.901   7
   2   4 -20 94.3130 144.829   3
  -2  -4  20-34.0355 154.275   7
   2   4 -19 170.882 304.111   3
  -2  -4  19 159.688 232.001   7
   2   4 -18 255.763 232.866   3
  -2  -4  18 1147.24 597.918   7
   2   4 -17 10214.3 1346.31   3
  -2  -4  17 9208.10 1590.49   7
  -2  -4  16 1119.24 582.171   7
   2   4 -16 507.083 270.067   3
   2   4 -15 933.083 359.612   3
  -2  -4  15 915.770 438.596   7
  -2  -4  14 1204.83 516.653   7
   2   4 -14 2660.11 677.571   3
  -2  -4  13 8505.75 1296.42   7
   2   4 -13 9364.56 1130.82   3
  -2  -4  12 2275.92 666.323   7
   2   4 -12 2034.88 511.151   3
  -2  -4  11 1543.42 500.988   7
   2   4 -11 1124.97 342.409   3
   2   4 -10 8275.78 941.590   3
  -2  -4  10 7738.12 1137.67   7
  -2  -4   9 192.482 189.323   7
   2   4  -9 245.305 213.710   3
  -2  -4   8-228.458 213.840   7
   2   4  -8 113.516 188.527   3
  -2  -4   7 408.056 267.370   7
   2   4  -7 94.3100 165.493   3
  -2  -4   6 5445.07 824.232   7
   2   4  -6 5302.35 402.155   4
   2   4  -6 4686.70 645.967   3
  -2  -4   5 48394.7 2320.69   7
   2   4  -5 43373.3 1901.16   3
  -2  -4   4 25883.0 1648.61   7
   2   4  -4 27752.8 1505.91   3
  -2  -4   3 4663.19 670.131   7
   2   4  -3 4154.65 586.760   3
   2   4  -2-0.19992 106.598   3
   2   4  -1 9868.27 932.638   3
   2   4  -1 9332.33 584.365   2
  -2  -4   0 31095.4 1166.01   2
   2   4   0 33686.5 1763.56   3
   2   4   1 146887. 3504.03   5
   2   4   1 144491. 3771.03   3
   2   4   2 89679.4 2766.41   5
   2   4   3 98557.1 2949.65   5
   2   4   3 97432.7 3076.09   7
   2   4   4 3558.95 594.278   7
   2   4   4 3621.98 561.288   5
   2   4   5 933.827 288.215   5
   2   4   5 1419.26 410.264   7
   2   4   6 12253.5 1077.29   5
   2   4   6 15940.7 1371.10   7
   2   4   7 517.377 232.282   5
   2   4   7 482.843 270.867   7
   2   4   8 162.846 118.321   5
   2   4   8 442.785 263.591   7
   2   4   9-169.033 134.163   5
   2   4   9 84.9750 143.620   7
   2   4  10 3730.79 786.928   7
   2   4  10 4016.11 657.673   5
   2   4  11 3221.91 772.451   7
  -2  -4 -12 5337.90 967.363   6
   2   4  12 8675.31 1284.23   7
  -2  -4 -13 992.644 427.758   6
   2   4  13 27.3815 187.533   7
   2   4  14 606.295 341.500   7
  -2  -4 -14 123.099 104.677   6
   2   4  15-33.7760 130.967   7
  -2  -4 -15-69.9413 133.464   6
   2   4  16 201.736 193.648   7
  -2  -4 -16 298.558 288.549   6
   2   4  17-8.86641 202.073   7
  -2  -4 -17-34.8220 147.132   6
   2   4  18-479.682 382.127   7
  -2  -4 -18-127.084 225.780   6
   2   4  18 43.5708 108.954   4
  -2  -4 -19 70.4634 196.288   6
   2   4  19 590.442 458.697   7
   2   4  19 563.368 350.865   4
  -2  -4 -20 277.948 356.373   6
   2   4  20 131.465 319.200   7
  -2  -4 -21-450.487 383.553   6
  -2  -4 -22-838.509 532.249   6
  -2  -5  26 379.432 421.289   7
  -2  -5  25 13.4770 132.704   7
  -2  -5  24 235.145 196.771   7
  -2  -5  23-0.93248 235.934   7
  -2  -5  22 639.703 490.054   7
   2   5 -21 229.693 387.419   3
  -2  -5  21 742.918 436.798   7
  -2  -5  20 110.968 178.110   7
   2   5 -20 427.852 372.285   3
   2   5 -19 796.581 403.062   3
  -2  -5  19 754.519 520.070   7
   2   5 -18-13.9241 277.884   3
  -2  -5  18 35.6281 214.644   7
  -2  -5  17 4115.57 1067.53   7
   2   5 -17 4739.90 932.412   3
   2   5 -16 984.670 470.128   3
  -2  -5  16 870.385 465.177   7
  -2  -5  15 4409.23 1006.27   7
   2   5 -15 3017.79 703.771   3
  -2  -5  14 1001.43 448.051   7
   2   5 -14 1247.29 448.726   3
  -2  -5  13 8414.85 1332.35   7
   2   5 -13 7196.37 1037.61   3
  -2  -5  12 53.2617 156.651   7
   2   5 -12 26.9930 84.3280   3
   2   5 -11 8267.92 1036.63   3
  -2  -5  11 8635.30 1258.00   7
   2   5 -10 276.131 173.368   3
  -2  -5  10 203.851 151.613   7
   2   5  -9 5927.00 830.020   3
  -2  -5   9 6674.37 1043.03   7
   2   5  -8 17958.7 1423.36   3
   2   5  -8 17388.2 659.944   4
  -2  -5   8 16973.0 1620.81   7
   2   5  -7 59681.2 2533.43   3
  -2  -5   7 61734.0 2957.47   7
   2   5  -6 2883.73 540.857   3
  -2  -5   6 2387.06 573.541   7
   2   5  -5 63031.1 2535.62   3
  -2  -5   5 64262.9 2863.49   7
   2   5  -4 13502.1 1168.57   3
  -2  -5   4 13853.0 1283.60   7
   2   5  -3 4493.70 665.859   3
   2   5  -2 30263.2 1769.37   3
   2   5  -2 30540.5 1013.85   2
   2   5  -1 510.014 226.423   3
  -2  -5   0 763.484 176.673   2
   2   5   0 1235.87 336.749   3
  -2  -5  -1 62854.4 1798.16   2
   2   5   1 61794.6 2701.67   3
   2   5   1 62840.3 2438.57   5
  -2  -5  -1 57134.7 1048.53   1
   2   5   2 54009.4 2284.12   5
   2   5   3 95086.7 3362.88   7
   2   5   3 89330.9 2969.91   5
   2   5   4 21516.4 1469.55   5
   2   5   4 25700.5 1782.46   7
   2   5   5 1637.31 404.352   5
   2   5   5 1840.98 477.778   7
   2   5   6 3891.93 635.111   5
   2   5   6 3843.62 705.266   7
   2   5   7 3090.28 667.294   7
   2   5   7 3194.20 578.330   5
   2   5   8 2370.00 501.957   5
   2   5   8 4151.79 806.718   7
   2   5   9 393.178 300.010   7
   2   5   9 820.341 303.531   5
   2   5  10 5225.66 763.193   5
   2   5  10 6976.20 1129.06   7
   2   5  11 225.772 200.639   5
   2   5  11-156.340 167.486   7
   2   5  12 834.814 501.811   7
  -2  -5 -13 7370.46 1206.63   6
   2   5  13 6691.89 1226.29   7
   2   5  14 542.468 241.937   7
  -2  -5 -14 197.590 214.217   6
  -2  -5 -15-159.288 242.265   6
   2   5  15 72.0843 261.621   7
  -2  -5 -16-566.515 373.149   6
   2   5  16-68.1472 289.038   7
   2   5  17 713.924 546.543   7
  -2  -5 -17 1449.00 639.421   6
  -2  -5 -18-107.399 126.284   6
   2   5  18 169.830 105.388   7
   2   5  19 102.857 184.577   4
   2   5  19 103.801 204.535   7
  -2  -5 -19 192.977 221.805   6
  -2  -5 -20 11.9142 112.976   6
   2   5  20-230.792 275.397   4
   2   5  20 9.61747 108.436   7
  -2  -5 -21 355.116 324.221   6
  -2  -6  25-374.303 407.041   7
  -2  -6  24-554.335 475.708   7
  -2  -6  23 107.134 228.863   7
  -2  -6  22-178.338 268.582   7
   2   6 -21 74.7937 246.816   3
  -2  -6  21-581.876 455.526   7
  -2  -6  20 76.7080 265.116   7
   2   6 -20-117.648 293.880   3
  -2  -6  19-171.458 332.655   7
   2   6 -19 643.378 251.176   3
   2   6 -18 193.782 98.3998   3
  -2  -6  18 692.229 430.681   7
  -2  -6  17 101.599 213.026   7
   2   6 -17 149.594 154.847   3
  -2  -6  16 561.489 457.596   7
   2   6 -16 27.9697 118.218   3
  -2  -6  15 438.488 289.481   7
   2   6 -15 566.030 366.251   3
   2   6 -14 391.849 335.634   3
  -2  -6  14-399.142 421.861   7
   2   6 -13 7687.67 1152.95   3
  -2  -6  13 8518.23 1341.18   7
   2   6 -12 26584.6 2010.72   3
  -2  -6  12 24763.7 2262.41   7
  -2  -6  11 1156.55 543.189   7
   2   6 -11 525.635 285.222   3
  -2  -6  10 997.013 414.117   7
   2   6 -10 1273.98 417.391   3
   2   6  -9 2310.89 260.773   4
  -2  -6   9 2613.62 655.118   7
   2   6  -9 2497.78 604.302   3
  -2  -6   8 1188.58 458.765   7
   2   6  -8 1170.59 371.452   3
  -2  -6   7 117.030 103.507   7
   2   6  -7-94.3449 170.520   3
  -2  -6   6 20245.2 1750.00   7
   2   6  -6 19933.3 1572.21   3
  -2  -6   5 225.103 139.785   7
   2   6  -5 435.197 234.437   3
   2   6  -4 787.203 303.127   3
   2   6  -3 27497.0 963.941   2
   2   6  -3 30240.3 1910.38   3
   2   6  -2 35483.7 2085.20   3
   2   6  -1 342.279 165.053   3
   2   6   0 2649.24 589.233   3
  -2  -6   0 2984.72 326.527   1
  -2  -6   0 2490.28 315.588   2
   2   6   1 4945.37 815.330   3
  -2  -6  -1 4299.02 467.341   2
   2   6   1 3667.16 622.696   5
   2   6   2 54578.7 2433.31   5
   2   6   2 56582.3 2855.96   3
   2   6   3 9061.11 1144.78   7
   2   6   3 10400.2 1065.80   5
   2   6   4 356.034 292.794   7
   2   6   4 192.477 180.050   5
   2   6   5 97.3013 91.2896   5
   2   6   5-33.4934 93.7097   7
   2   6   6 214.565 183.507   5
   2   6   6 407.263 295.096   7
   2   6   7 505.109 276.911   7
   2   6   7 105.940 144.319   5
   2   6   8 106.002 55.5596   1
   2   6   8 64.2469 264.129   7
   2   6   8-44.9922 127.182   5
   2   6   9 1939.52 470.208   5
   2   6   9 1169.83 463.934   7
   2   6  10 6064.25 834.783   5
   2   6  10 6401.10 1146.23   7
   2   6  11 4049.01 680.199   5
   2   6  11 4104.95 943.328   7
   2   6  12 6181.73 1200.65   7
   2   6  13 1168.17 534.287   7
   2   6  14 595.440 410.039   7
  -2  -6 -14 1274.00 514.455   6
   2   6  15-85.8780 341.352   7
  -2  -6 -15-31.2379 185.498   6
   2   6  16-154.402 185.876   7
  -2  -6 -16 157.782 224.417   6
  -2  -6 -17 387.522 400.878   6
   2   6  17 313.018 363.020   7
  -2  -6 -18 366.148 338.904   6
   2   6  18-366.972 358.467   7
  -2  -6 -19 141.920 358.091   6
   2   6  19 79.7381 139.833   7
  -2  -6 -20-256.855 292.122   6
   2   6  20-191.015 257.640   4
  -2  -6 -21 57.3011 200.866   6
  -2  -7  25-1489.63 791.675   7
  -2  -7  24-428.025 424.329   7
  -2  -7  23 335.871 409.287   7
  -2  -7  22-845.491 559.377   7
   2   7 -22-386.741 328.917   3
  -2  -7  21-319.405 344.068   7
   2   7 -21 435.164 386.274   3
  -2  -7  20-121.381 320.297   7
   2   7 -20 85.9603 228.242   3
   2   7 -19 558.858 392.327   3
  -2  -7  19-158.346 243.631   7
   2   7 -18 233.885 207.107   3
  -2  -7  18-69.5505 301.962   7
  -2  -7  17 1457.86 632.614   7
   2   7 -17 373.185 356.982   3
  -2  -7  16 754.880 428.825   7
   2   7 -16 1112.58 488.069   3
  -2  -7  15 722.807 382.034   7
   2   7 -15 1587.88 552.329   3
  -2  -7  14 8875.68 1460.48   7
   2   7 -14 10245.7 1401.45   3
  -2  -7  13 12718.8 1720.53   7
   2   7 -13 11652.9 1439.73   3
   2   7 -12 5001.63 931.417   3
  -2  -7  12 5904.81 1130.80   7
  -2  -7  11 1367.53 506.083   7
   2   7 -11 2606.59 658.761   3
  -2  -7  10 9787.35 1412.91   7
   2   7 -10 9846.94 585.287   4
   2   7 -10 11959.9 1369.96   3
  -2  -7   9 3629.16 813.055   7
   2   7  -9 3469.11 724.823   3
  -2  -7   8 236.330 130.756   7
   2   7  -8 623.678 248.716   3
  -2  -7   7 19375.9 1884.77   7
   2   7  -7 17571.5 1585.50   3
   2   7  -6 447.174 335.299   3
   2   7  -5 5002.16 829.750   3
   2   7  -4 1433.68 455.665   3
   2   7  -3-138.879 218.133   3
   2   7  -2 3695.52 722.877   3
  -2  -7   1 3385.92 422.305   1
   2   7  -1 3183.27 690.608   3
  -2  -7   0 5810.63 512.897   1
   2   7   0 6733.31 1023.94   3
   2   7   1-45.1269 144.608   3
   2   7   1-123.600 202.957   5
  -2  -7  -1 108.079 72.4833   2
   2   7   2 146.980 213.080   3
   2   7   2 514.023 226.712   5
   2   7   3 23436.6 1694.05   5
   2   7   3 27809.0 2115.80   7
   2   7   4 698.306 286.995   5
   2   7   4 611.035 369.930   7
   2   7   5 3229.11 746.058   7
   2   7   5 2712.08 584.723   5
   2   7   6 2886.19 721.853   7
   2   7   6 2490.85 552.604   5
   2   7   7 1186.25 379.312   5
   2   7   7 1265.82 492.934   7
   2   7   8 6390.57 867.881   5
   2   7   8 7945.33 1246.44   7
   2   7   9 227.951 198.753   7
   2   7   9 481.511 239.425   5
   2   7  10 1118.51 350.391   5
   2   7  10 1066.51 467.503   7
   2   7  11 324.952 236.075   5
   2   7  11 824.815 481.243   7
   2   7  12 571.986 295.527   7
   2   7  13 728.771 469.427   7
  -2  -7 -14 1265.45 488.210   6
   2   7  14 346.788 274.597   7
  -2  -7 -15-821.896 447.238   6
   2   7  15 280.261 371.231   7
   2   7  16 34.2863 176.416   7
  -2  -7 -16-259.429 270.130   6
  -2  -7 -17-39.7133 130.549   6
   2   7  17-1161.74 626.746   7
   2   7  18-345.360 359.454   7
  -2  -7 -18 183.486 177.913   6
   2   7  19 744.000 573.389   7
  -2  -7 -19-180.085 245.892   6
  -2  -7 -20-368.663 349.221   6
  -2  -8  25 1.06817 220.561   7
  -2  -8  24 7.13911 252.592   7
  -2  -8  23 662.380 551.756   7
  -2  -8  22 714.552 641.639   7
   2   8 -22 321.505 310.117   3
   2   8 -21 139.780 334.715   3
  -2  -8  21-34.4153 116.046   7
  -2  -8  20-135.203 238.224   7
   2   8 -20 750.900 473.996   3
  -2  -8  19-516.072 415.695   7
   2   8 -19 270.884 274.983   3
  -2  -8  18 141.324 232.581   7
   2   8 -18 192.682 321.905   3
  -2  -8  17-190.744 281.659   7
   2   8 -17 544.218 413.765   3
  -2  -8  16-181.644 105.823   7
   2   8 -16 613.518 458.067   3
  -2  -8  15-314.067 301.916   7
   2   8 -15 61.5882 119.020   3
   2   8 -14 2224.58 676.243   3
  -2  -8  14 2801.05 850.492   7
   2   8 -13 2570.48 717.520   3
  -2  -8  13 2399.84 758.140   7
  -2  -8  12 753.015 414.021   7
   2   8 -12 1399.95 504.783   3
   2   8 -11 81.2201 186.599   3
  -2  -8  11-29.3921 363.621   7
  -2  -8  10 1245.81 535.285   7
   2   8 -10 1350.28 494.195   3
   2   8  -9 4307.14 874.080   3
  -2  -8   9 4166.18 911.498   7
  -2  -8   8 4130.31 890.467   7
   2   8  -8 4329.84 847.064   3
   2   8  -7 10305.2 1293.51   3
   2   8  -6 15336.5 1585.81   3
   2   8  -5 2816.60 685.241   3
   2   8  -4 17306.1 1664.99   3
   2   8  -3 16347.0 1640.93   3
   2   8  -2 7225.74 1103.81   3
   2   8  -1 1746.86 532.245   3
   2   8   0 2374.06 643.872   3
  -2  -8  -1 3163.43 385.615   2
   2   8   1 3907.48 827.402   3
   2   8   2 22729.7 1747.32   5
   2   8   2 23553.7 2092.43   3
   2   8   3 2697.52 739.612   7
   2   8   3 2940.40 635.725   5
   2   8   4 27944.4 1942.27   5
   2   8   4 32018.2 2462.83   7
   2   8   5 7981.48 1035.62   5
   2   8   5 8680.26 1329.22   7
   2   8   6 1439.03 439.135   5
   2   8   6 1169.72 460.315   7
   2   8   7 215.020 292.904   7
   2   8   7 376.384 208.546   5
   2   8   8 340.747 151.047   5
   2   8   8 542.034 189.040   7
   2   8   9 1726.30 481.881   5
   2   8   9 2305.02 750.430   7
   2   8  10 89.7725 144.525   7
   2   8  11 489.945 254.387   7
   2   8  12 57.3310 101.897   7
   2   8  13 292.532 440.757   7
   2   8  14 442.197 416.338   7
   2   8  15-461.897 391.971   7
  -2  -8 -15 504.060 435.034   6
  -2  -8 -16 954.383 505.785   6
   2   8  16 1229.55 663.812   7
   2   8  17 379.897 469.987   7
  -2  -8 -17 184.787 239.441   6
   2   8  18-218.533 304.771   7
  -2  -8 -18-241.998 278.833   6
  -2  -8 -19 788.853 473.330   6
   2   8  19-2.97651 143.630   7
  -2  -9  25 1.09332 467.871   7
  -2  -9  24 277.310 539.118   7
  -2  -9  23 480.294 671.845   7
   2   9 -23-446.378 381.308   3
  -2  -9  22 417.801 528.636   7
   2   9 -22 76.2603 172.125   3
  -2  -9  21 296.148 384.131   7
   2   9 -21 554.978 297.248   3
   2   9 -20-297.929 299.421   3
  -2  -9  20 782.723 552.531   7
  -2  -9  19 959.544 645.639   7
   2   9 -19 755.290 435.619   3
   2   9 -18 236.523 330.703   3
  -2  -9  18 443.237 230.373   7
  -2  -9  17 671.686 442.923   7
   2   9 -17 1106.99 550.660   3
   2   9 -16 1036.12 531.961   3
  -2  -9  16 1606.12 674.239   7
  -2  -9  15 191.079 328.356   7
   2   9 -15 246.059 276.498   3
  -2  -9  14 1164.50 531.973   7
   2   9 -14 1737.35 636.778   3
  -2  -9  13 10472.4 1650.26   7
   2   9 -13 8173.32 1340.99   3
   2   9 -12 1000.55 428.552   3
  -2  -9  12 738.597 409.391   7
  -2  -9  11-155.621 207.608   7
   2   9 -11-187.767 354.174   3
  -2  -9  10 2512.66 816.122   7
   2   9 -10 1465.03 534.775   3
   2   9  -9 229.783 180.933   3
   2   9  -8 6105.61 1079.41   3
   2   9  -7 305.024 184.666   3
   2   9  -6 2431.20 684.623   3
   2   9  -5 454.163 227.281   3
   2   9  -4 7898.64 1203.22   3
   2   9  -3 2447.60 678.180   3
   2   9  -2 152.115 195.413   3
   2   9  -1 1535.32 587.562   3
   2   9   0 1285.16 487.113   3
   2   9   1 10746.4 1272.19   5
   2   9   1 10579.1 1470.06   3
  -2  -9  -2 8466.58 695.781   2
   2   9   2 9506.87 1186.25   5
   2   9   2 10539.8 1489.10   3
   2   9   3 230.060 222.991   7
   2   9   3-73.1473 143.416   5
   2   9   4 8519.82 1125.49   5
   2   9   4 10865.8 1522.79   7
   2   9   5 18477.1 1632.56   5
   2   9   5 20501.2 2131.38   7
   2   9   6-27.3969 135.119   5
   2   9   6-154.361 353.257   7
   2   9   7 55.2111 98.6023   5
   2   9   7-300.674 355.565   7
   2   9   8 178.726 157.572   7
   2   9   8 373.407 213.337   5
   2   9   9 479.414 218.914   7
   2   9  10 2367.87 828.622   7
   2   9  11 753.845 437.532   7
   2   9  12-90.2537 271.272   7
   2   9  13-524.013 412.075   7
   2   9  14 4.85679 105.487   7
  -2  -9 -15 595.622 422.900   6
   2   9  15 83.5031 134.462   7
  -2  -9 -16-367.888 322.400   6
   2   9  16 590.340 577.491   7
  -2  -9 -17 640.730 489.443   6
   2   9  17-323.194 363.735   7
  -2  -9 -18 54.6951 152.292   6
   2   9  18-323.699 372.278   7
  -2 -10  24 153.186 275.204   7
  -2 -10  23-496.504 467.287   7
   2  10 -23-245.300 297.351   3
   2  10 -22 1105.23 668.050   3
  -2 -10  22 1244.97 817.596   7
   2  10 -21 33.4579 260.721   3
  -2 -10  21 918.595 562.969   7
  -2 -10  20 93.7147 305.101   7
   2  10 -20 270.023 322.616   3
   2  10 -19 224.313 269.409   3
  -2 -10  19 233.583 277.610   7
  -2 -10  18-15.8582 120.662   7
   2  10 -18 221.341 290.530   3
  -2 -10  17 974.613 580.917   7
   2  10 -17 503.824 379.122   3
  -2 -10  16 2154.23 878.710   7
   2  10 -16 1454.93 620.239   3
   2  10 -15 1411.88 619.547   3
  -2 -10  15 1475.52 829.071   7
   2  10 -14 23.1429 237.932   3
  -2 -10  14 591.601 576.211   7
  -2 -10  13 351.232 368.205   7
   2  10 -13 841.959 400.915   3
   2  10 -12 3271.99 834.552   3
  -2 -10  12 3520.93 965.484   7
   2  10 -11 1042.29 468.307   3
   2  10 -10 127.641 284.375   3
   2  10  -9 603.296 380.159   3
   2  10  -8 648.305 385.600   3
   2  10  -7 3005.66 771.057   3
   2  10  -6 4839.43 1006.13   3
   2  10  -5 1542.22 571.456   3
   2  10  -4 18.9517 173.196   3
   2  10  -3 4767.41 1014.77   3
   2  10  -2 3729.42 885.977   3
   2  10  -1 1105.46 460.909   3
   2  10   0 1581.96 570.894   3
   2  10   1 1628.65 660.026   3
   2  10   1 1942.29 563.609   5
   2  10   2 314.988 331.681   3
   2  10   2-3.60169 168.217   5
   2  10   2-22.4944 335.558   7
   2  10   3 94.5517 266.884   7
   2  10   3 147.133 195.802   5
   2  10   3-22.1059 124.140   3
   2  10   4 2284.53 753.267   7
   2  10   4 1923.03 548.562   5
   2  10   5 2252.88 576.535   5
   2  10   5 2903.33 863.258   7
   2  10   6 1878.21 528.104   5
   2  10   6 1834.86 697.646   7
   2  10   7 1729.08 642.879   7
   2  10   8 444.220 507.988   7
   2  10   9 319.994 299.449   7
   2  10  10 2346.59 775.487   7
   2  10  11 219.920 319.745   7
   2  10  12 454.468 393.622   7
   2  10  13-30.0187 141.043   7
   2  10  14-100.687 211.715   7
  -2 -10 -15-459.370 361.961   6
   2  10  15 152.630 162.871   7
  -2 -10 -16 65.0369 157.156   6
   2  10  16-2.90616 116.792   7
   2  10  17-583.813 493.712   7
   2  11 -23 89.1089 274.629   3
  -2 -11  23 678.464 606.471   7
  -2 -11  22 403.204 471.820   7
   2  11 -22 150.983 308.367   3
  -2 -11  21 942.398 567.376   7
   2  11 -21 437.173 478.220   3
   2  11 -20-56.5702 171.307   3
  -2 -11  20-626.531 499.408   7
  -2 -11  19 6.38406 120.448   7
   2  11 -19-0.75931 104.463   3
  -2 -11  18 459.419 382.131   7
   2  11 -18-535.806 409.158   3
  -2 -11  17-36.2916 199.910   7
   2  11 -17 544.022 413.089   3
  -2 -11  16-626.333 462.880   7
   2  11 -16 736.150 457.947   3
  -2 -11  15 175.629 285.438   7
   2  11 -15 92.3415 268.269   3
  -2 -11  14-84.7677 292.422   7
   2  11 -14-207.205 288.103   3
   2  11 -13 275.379 232.141   3
   2  11 -12 151.903 127.069   3
   2  11 -11 569.538 299.790   3
   2  11 -10 118.275 184.225   3
   2  11  -9 1624.47 608.077   3
   2  11  -8 602.013 332.308   3
   2  11  -7 853.738 427.300   3
   2  11  -6 1098.71 481.014   3
   2  11  -5 447.138 294.621   3
   2  11  -4 6884.46 1247.04   3
   2  11  -3-344.273 248.251   3
   2  11  -2 17823.4 2071.73   3
   2  11  -1 7516.03 1387.76   3
   2  11   0 585.953 316.025   3
   2  11   1 1927.54 714.281   3
   2  11   1 1630.70 562.474   5
   2  11   2 2687.93 770.340   3
   2  11   2 4380.97 892.893   5
   2  11   2 4257.37 1052.01   7
   2  11   3 3085.91 918.053   7
   2  11   3 4301.52 856.156   5
   2  11   4 269.403 178.666   5
   2  11   4-1084.21 536.990   7
   2  11   5 405.853 349.800   7
   2  11   5-24.4707 95.8788   5
   2  11   6-124.789 116.984   7
   2  11   7 383.495 220.102   7
   2  11   8-58.5618 208.374   7
   2  11   9-71.9671 273.375   7
   2  11  10 429.156 426.429   7
   2  11  11 182.701 262.233   7
   2  11  12-102.605 212.610   7
   2  11  13-281.751 329.250   7
   2  11  14-174.040 269.110   7
   2  11  15 580.757 484.317   7
   2  11  16-537.560 485.806   7
   2  12 -22 234.170 351.586   3
  -2 -12  22 246.318 369.335   7
   2  12 -21 363.453 196.614   3
  -2 -12  21-611.467 511.453   7
  -2 -12  20-59.7639 192.934   7
   2  12 -20-38.7996 152.850   3
   2  12 -19-266.868 311.005   3
  -2 -12  19-5.76444 185.631   7
  -2 -12  18 815.260 663.879   7
   2  12 -18 470.963 403.470   3
   2  12 -17-248.622 297.127   3
  -2 -12  17 350.540 338.856   7
   2  12 -16-236.958 316.664   3
   2  12 -15 383.127 348.617   3
   2  12 -14 202.292 355.359   3
   2  12 -13 599.293 452.842   3
   2  12 -12 2806.07 898.645   3
   2  12 -11 97.0918 235.089   3
   2  12 -10 676.184 415.261   3
   2  12  -9-95.9666 121.025   3
   2  12  -8 1770.22 677.040   3
   2  12  -7-1.25070 156.139   3
   2  12  -6-228.114 421.078   3
   2  12  -5-44.8052 211.806   3
   2  12  -4 1703.00 721.324   3
   2  12  -3 3623.39 986.712   3
   2  12  -2 546.927 442.684   3
   2  12  -1-246.681 247.350   3
   2  12   0 728.256 652.134   3
   2  12   1 240.031 153.533   3
   2  12   1-0.96910 157.100   5
   2  12   2 1821.40 583.165   5
   2  12   2 1541.47 639.017   3
   2  12   2 2837.39 923.364   7
   2  12   3 725.200 361.494   5
   2  12   3 985.708 503.155   7
   2  12   4-319.263 167.569   7
   2  12   5 724.838 456.582   7
   2  12   6-194.811 333.830   7
   2  12   7-96.6207 203.794   7
   2  12   8 60.3250 301.784   7
   2  12   9 231.523 291.929   7
   2  12  10 35.9964 154.747   7
   2  12  11 330.878 293.624   7
   2  12  12 462.862 424.532   7
   2  12  13 95.9098 216.482   7
   2  12  14 18.3689 150.643   7
   2  13 -22-291.322 352.177   3
   2  13 -21 479.962 472.087   3
  -2 -13  21 326.770 388.829   7
   2  13 -20 173.951 416.460   3
   2  13 -19-94.1892 217.311   3
   2  13 -18 37.6107 157.177   3
   2  13 -17 63.1459 257.441   3
   2  13 -16-914.362 551.615   3
   2  13 -15-73.2811 329.939   3
   2  13 -14 843.396 533.753   3
   2  13 -13 17.3088 185.610   3
   2  13 -12 1357.33 710.229   3
   2  13 -11-62.3576 310.066   3
   2  13 -10 967.678 550.572   3
   2  13  -9 232.657 278.314   3
   2  13  -8-114.901 326.350   3
   2  13  -7 3629.83 1029.16   3
   2  13  -6 5359.20 1221.50   3
   2  13  -5-29.0278 347.212   3
   2  13  -4 663.208 401.018   3
   2  13  -3-141.177 209.004   3
   2  13  -2 3609.57 1070.12   3
   2  13  -1 2940.30 912.294   3
   2  13   0 56.1529 200.674   3
   2  13   0 469.289 282.601   5
   2  13   1-207.969 371.281   3
   2  13   1 124.712 255.398   5
   2  13   2 945.117 540.610   3
   2  13   2 364.551 439.408   7
   2  13   2 595.590 403.977   5
   2  13   3 368.876 429.979   7
   2  13   4-66.7468 292.655   7
   2  13   5-105.382 316.923   7
   2  13   6 300.465 594.087   7
   2  13   7 659.542 506.070   7
   2  13   8 104.868 127.887   7
   2  13   9 328.837 133.743   7
   2  13  10-806.617 555.462   7
   2  13  11 406.327 409.281   7
   2  13  12 48.7504 146.608   7
   2  14 -20 58.1548 218.247   3
   2  14 -19-612.026 489.832   3
   2  14 -18 743.273 517.691   3
   2  14 -17 962.966 595.422   3
   2  14 -16-478.079 420.476   3
   2  14 -15 240.905 299.866   3
   2  14 -14 150.410 327.116   3
   2  14 -13-431.893 390.089   3
   2  14 -12 55.6539 178.231   3
   2  14 -11 11.9226 147.596   3
   2  14 -10-212.082 306.797   3
   2  14  -9-28.5798 195.913   3
   2  14  -8 353.028 443.720   3
   2  14  -7 1171.88 613.507   3
   2  14  -6 2235.40 799.524   3
   2  14  -5 4337.89 1182.93   3
   2  14  -4 4273.06 1306.75   3
   2  14  -3 1207.87 702.958   3
   2  14  -2 204.616 176.908   3
   2  14  -1-64.2545 329.385   3
   2  14   0 58.6683 192.508   3
   2  14   0 100.239 239.927   7
   2  14   0 440.215 331.189   5
   2  14   1 207.135 140.338   3
   2  14   1 330.037 151.674   7
   2  14   2 364.465 316.351   7
   2  14   2 390.992 390.888   3
   2  14   3 1285.99 688.628   7
   2  14   4 552.210 503.896   7
   2  14   5-520.705 439.512   7
   2  14   6 527.907 408.504   7
   2  14   7 532.168 521.741   7
   2  14   8 312.920 363.456   7
   2  14   9 954.539 669.503   7
   2  15 -17 1134.20 744.761   3
   2  15 -16 836.758 559.854   3
   2  15 -15 293.675 298.225   3
   2  15 -14 391.817 427.147   3
   2  15 -13 626.996 597.081   3
   2  15 -12 516.888 457.624   3
   2  15 -11 2914.61 1016.73   3
   2  15 -10 1009.63 618.035   3
   2  15  -9 108.371 332.752   3
   2  15  -8-15.1297 219.265   3
   2  15  -7 1570.95 754.864   3
   2  15  -6 1353.65 687.103   3
   2  15  -5 137.196 470.584   3
   2  15  -4 246.518 307.001   3
   2  15  -3 227.538 331.449   3
   2  15  -2-852.674 548.478   3
   2  15  -1-69.6636 388.396   3
   2  15   0-347.623 363.289   3
   2  15   0 1407.16 715.723   7
   2  15   1-12.4191 352.396   7
   2  15   1 326.306 435.150   3
   2  15   2 1146.79 744.739   7
   2  15   3 548.135 490.377   7
   2  15   4-247.892 325.540   7
   2  15   5 181.191 237.192   7
   2  15   6 55.0826 178.423   7
   2  15   7 259.230 404.880   7
   2  16 -14-420.579 423.799   3
   2  16 -13-436.585 425.356   3
   2  16 -12 287.940 558.140   3
   2  16 -11-108.377 345.689   3
   2  16 -10 346.662 365.680   3
   2  16  -9 241.038 451.157   3
   2  16  -8-293.786 349.526   3
   2  16  -7-477.875 580.686   3
   2  16  -6 180.728 230.859   3
   2  16  -5 964.711 627.039   3
   2  16  -4 960.741 536.575   3
   2  16  -3 396.841 378.632   3
   2  16  -2 201.588 290.387   3
   2  16  -1-311.009 352.603   3
   2  16  -1 342.969 390.548   7
   2  16   0 733.019 581.414   7
   2  16   0-305.970 356.414   3
   2  16   1 663.089 643.303   7
   2  16   1 106.317 231.572   3
   2  16   2 1878.35 871.573   7
   2  16   3 1216.90 767.496   7
   2  17  -9 458.497 324.925   3
   2  17  -8 525.040 498.987   3
   2  17  -7 113.897 244.741   3
   2  17  -6 322.942 418.373   3
   2  17  -5 817.177 628.783   3
   2  17  -4 345.665 390.045   3
   2  17  -3 44.5636 146.314   3
   2  17  -2-314.861 373.236   3
   2  17  -1 58.5866 191.992   3
  -3  17   4 210.299 295.376   3
  -3  17   3 176.856 273.447   3
  -3  17   2 10.2428 119.290   3
  -3  17   1 299.853 344.306   3
  -3  17   0 178.386 201.742   7
  -3  17   0-373.292 383.034   3
  -3  17  -1 425.330 406.669   3
  -3  17  -1 167.356 267.143   7
  -3  17  -2-208.660 297.703   3
  -3  17  -2 380.340 425.705   7
  -3  17  -3-886.850 579.544   3
  -3  17  -3 45.9024 160.569   7
  -3  17  -4 217.786 301.531   3
  -3  17  -4 433.085 452.565   7
  -3  17  -5-141.875 250.540   7
  -3  17  -5-231.694 309.293   3
  -3  17  -6 410.859 407.770   3
  -3  17  -6 708.109 498.705   7
  -3  17  -7-384.769 381.433   7
  -3  17  -7 1059.89 701.340   3
  -3  17  -8 1150.77 696.614   3
  -3  16   5 102.658 320.393   3
  -3  16   4 745.759 553.777   3
  -3  16   4 376.533 417.506   7
  -3  16   3 64.9623 166.912   3
  -3  16   3 471.011 346.253   7
  -3  16   2 77.0492 194.038   7
  -3  16   2 410.950 300.488   3
  -3  16   1 251.452 387.290   7
  -3  16   1 953.847 528.597   3
  -3  16   0-261.850 314.144   3
  -3  16   0 259.004 280.498   7
  -3  16  -1-595.804 458.618   3
  -3  16  -1 221.404 172.596   7
  -3  16  -2 511.729 560.834   7
  -3  16  -2 137.935 239.985   3
  -3  16  -3 119.357 311.690   3
  -3  16  -3-659.159 485.168   7
  -3  16  -4-40.5685 103.945   7
  -3  16  -4 64.8012 279.977   3
  -3  16  -5-222.484 292.374   3
  -3  16  -5-234.232 297.634   7
  -3  16  -6-183.579 266.603   7
  -3  16  -6 425.274 419.403   3
  -3  16  -7-242.380 311.899   3
  -3  16  -8 757.200 558.639   3
  -3  16  -9-520.144 446.877   3
  -3  16 -10-87.5840 210.491   3
  -3  16 -11 925.283 564.090   3
  -3  16 -12 625.959 548.968   3
  -3  15   7 593.405 397.786   7
  -3  15   6-284.108 337.609   7
  -3  15   5 14.2461 240.466   3
  -3  15   5-256.883 318.867   7
  -3  15   4 84.6094 181.793   3
  -3  15   4-134.113 243.900   7
  -3  15   3-352.739 337.331   3
  -3  15   3-200.928 457.767   7
  -3  15   2 148.119 242.214   7
  -3  15   2 104.816 203.011   3
  -3  15   1 141.367 194.251   3
  -3  15   1 439.734 457.243   7
  -3  15   0 285.648 254.665   3
  -3  15   0-693.415 488.322   7
  -3  15  -1-420.731 371.436   3
  -3  15  -1 452.075 487.892   7
  -3  15  -2-645.217 454.680   3
  -3  15  -2-241.172 289.559   7
  -3  15  -3 1009.85 631.130   7
  -3  15  -3 402.058 368.475   3
  -3  15  -4 441.012 464.054   3
  -3  15  -4 671.775 458.234   7
  -3  15  -5 1337.65 609.878   7
  -3  15  -5 587.876 401.936   3
  -3  15  -6 525.171 400.954   3
  -3  15  -7-187.469 284.362   3
  -3  15  -8 127.254 174.994   3
  -3  15  -9 867.241 557.778   3
  -3  15 -10 133.667 153.771   3
  -3  15 -11 25.5952 280.239   3
  -3  15 -12 1753.38 854.478   3
  -3  15 -13-294.125 561.233   3
  -3  15 -14-866.979 585.061   3
  -3  14   9 370.786 384.503   7
  -3  14   8-700.081 523.970   7
  -3  14   7-371.806 381.794   7
  -3  14   6-77.1598 412.324   7
  -3  14   6 171.172 161.825   3
  -3  14   5 1127.30 659.859   7
  -3  14   5 630.231 414.361   3
  -3  14   4-219.328 266.675   3
  -3  14   4-75.9231 257.645   7
  -3  14   3-63.6751 117.373   7
  -3  14   3 590.792 446.627   3
  -3  14   2 751.191 494.889   3
  -3  14   2-186.356 258.323   7
  -3  14   1 1002.70 512.552   3
  -3  14   1 1667.08 696.059   7
  -3  14   0-55.5343 194.729   3
  -3  14   0 268.554 450.169   7
  -3  14  -1 1288.57 666.605   7
  -3  14  -1 149.638 146.562   3
  -3  14  -2 1417.36 643.748   3
  -3  14  -2 2072.95 792.596   7
  -3  14  -3 447.381 401.377   7
  -3  14  -3 188.564 311.196   3
  -3  14  -4 1270.76 681.328   3
  -3  14  -4 1490.60 632.039   7
  -3  14  -5 74.7466 230.790   3
  -3  14  -6 242.550 324.197   3
  -3  14  -7 1689.28 664.779   3
  -3  14  -8 2400.51 831.308   3
  -3  14  -9 566.225 462.147   3
  -3  14 -10-10.3624 119.658   3
  -3  14 -11-88.0592 285.248   3
  -3  14 -12-728.523 505.401   3
  -3  14 -13-465.908 416.919   3
  -3  14 -14 563.900 479.197   3
  -3  14 -15 700.412 546.104   3
  -3  14 -16 217.257 138.708   3
  -3  13  12 1508.73 880.534   7
  -3  13  11 265.501 478.751   7
  -3  13  10 195.018 290.143   7
  -3  13   9 385.974 517.466   7
  -3  13   8-260.032 313.828   7
  -3  13   7-12.5843 328.892   7
  -3  13   6 425.024 382.532   7
  -3  13   6 166.286 207.247   3
  -3  13   5-476.836 359.858   3
  -3  13   5-80.5976 235.948   7
  -3  13   4-119.229 198.834   3
  -3  13   4-164.472 197.218   7
  -3  13   3-220.163 145.198   3
  -3  13   3-810.190 495.142   7
  -3  13   2 6.43665 195.420   7
  -3  13   2 439.154 357.290   3
  -3  13   1 606.467 380.894   7
  -3  13   1 735.393 429.464   3
  -3  13   0 1453.58 622.940   7
  -3  13   0 1743.90 633.612   3
  -3  13  -1-251.992 279.000   3
  -3  13  -1 569.263 481.907   7
  -3  13  -2 1248.97 572.142   3
  -3  13  -2 498.950 416.199   7
  -3  13  -3 175.756 262.585   3
  -3  13  -3 191.403 260.996   7
  -3  13  -4 462.184 375.337   3
  -3  13  -5-158.508 339.552   3
  -3  13  -6 525.451 328.739   3
  -3  13  -7 837.803 440.754   3
  -3  13  -8 137.616 213.177   3
  -3  13  -9 572.919 452.600   3
  -3  13 -10-368.262 344.306   3
  -3  13 -11 46.7106 186.774   3
  -3  13 -12 581.332 381.679   3
  -3  13 -13 122.113 122.928   3
  -3  13 -14-92.2820 266.649   3
  -3  13 -15 148.817 248.952   3
  -3  13 -16-429.454 404.048   3
  -3  13 -17 223.788 288.734   3
  -3  13 -18 916.408 662.350   3
  -3  12  13 1249.90 825.796   7
  -3  12  12 1192.64 694.116   7
  -3  12  11 401.784 432.393   7
  -3  12  10 216.197 202.008   7
  -3  12   9 1502.46 721.688   7
  -3  12   8 287.893 288.311   7
  -3  12   7-315.150 287.198   7
  -3  12   6 1156.30 600.853   3
  -3  12   6-186.510 175.441   7
  -3  12   5 184.399 290.477   7
  -3  12   5 72.5706 100.346   3
  -3  12   4 219.316 244.434   3
  -3  12   4 139.967 221.614   7
  -3  12   3 4334.93 825.138   1
  -3  12   3 3498.49 899.250   3
  -3  12   3 4804.62 1116.21   7
  -3  12   2 4340.90 998.547   3
  -3  12   2 3573.20 961.652   7
  -3  12   2 2684.51 661.169   1
  -3  12   1 346.004 222.784   3
  -3  12   1 588.218 407.816   7
  -3  12   1 469.811 285.666   1
  -3  12   0 341.312 242.273   7
  -3  12   0 969.703 430.738   1
  -3  12   0 171.682 286.654   3
  -3  12  -1 8863.08 1447.15   3
  -3  12  -1 9667.36 1547.06   7
  -3  12  -2 8260.55 1386.85   3
  -3  12  -2 9843.59 1532.08   7
  -3  12  -3-142.805 218.714   7
  -3  12  -3 694.698 421.341   3
  -3  12  -4 1861.38 650.553   3
  -3  12  -5-694.721 416.245   3
  -3  12  -6 7924.13 1399.60   3
  -3  12  -7 1563.41 563.581   3
  -3  12  -8 911.561 501.872   3
  -3  12  -9 2933.87 919.771   3
  -3  12 -10 3449.78 987.462   3
  -3  12 -11 530.166 468.263   3
  -3  12 -12-248.978 443.741   3
  -3  12 -13 995.829 544.650   3
  -3  12 -14 325.154 345.041   3
  -3  12 -15 626.842 512.095   3
  -3  12 -16 43.8233 157.751   3
  -3  12 -17 141.598 119.921   3
  -3  12 -18 319.184 439.622   3
  -3  12 -19 143.559 334.268   3
  -3  11  15-536.783 484.645   7
  -3  11  14 57.7608 320.429   7
  -3  11  13 894.955 581.477   7
  -3  11  12 46.6847 180.089   7
  -3  11  11 135.254 161.528   7
  -3  11  10 488.806 527.785   7
  -3  11   9-26.3591 370.379   7
  -3  11   8-644.977 451.499   7
  -3  11   7 40.0469 187.574   7
  -3  11   6 701.476 413.161   3
  -3  11   6 447.723 298.714   7
  -3  11   5 2182.56 711.553   3
  -3  11   5 1592.47 500.933   1
  -3  11   5 1300.17 632.126   7
  -3  11   4 4298.14 952.982   3
  -3  11   4 4968.34 845.614   1
  -3  11   4 6147.55 1251.48   7
  -3  11   3 4387.72 812.767   1
  -3  11   3 3801.92 891.647   3
  -3  11   3 4061.59 967.385   7
  -3  11   2 585.973 304.942   1
  -3  11   2 268.808 202.312   7
  -3  11   2 72.6074 118.461   3
  -3  11   1 99.0836 239.493   3
  -3  11   1 100.651 168.177   7
  -3  11   1 655.156 328.731   1
  -3  11   0 1253.95 503.449   7
  -3  11   0 977.907 424.289   3
  -3  11   0 1226.48 424.849   1
  -3  11  -1 986.155 402.484   3
  -3  11  -1 961.850 441.717   7
  -3  11  -1 1270.78 431.721   1
  -3  11  -2-32.5848 255.239   3
  -3  11  -2 307.538 214.047   7
  -3  11  -3 4966.98 1030.67   3
  -3  11  -4 7927.67 1330.52   3
  -3  11  -5 2937.07 852.337   3
  -3  11  -6 196.716 270.249   3
  -3  11  -7 101.388 190.310   3
  -3  11  -8 305.023 318.785   3
  -3  11  -9 2931.39 866.920   3
  -3  11 -10 3016.51 873.090   3
  -3  11 -11 268.083 309.958   3
  -3  11 -12-171.303 335.754   3
  -3  11 -13 1364.53 610.129   3
  -3  11 -14 422.361 397.815   3
  -3  11 -15-348.158 453.742   3
  -3  11 -16 215.135 279.733   3
  -3  11 -17 154.242 428.761   3
  -3  11 -18 152.245 168.654   3
  -3  11 -19 272.270 505.793   3
  -3  11 -20 311.154 349.918   3
  -3  10  16 1007.29 745.881   7
  -3  10  15 1420.80 827.304   7
  -3  10  14-652.658 501.240   7
  -3  10  13-35.1451 152.291   7
  -3  10  12 1253.08 725.072   7
  -3  10  11-229.178 321.288   7
  -3  10  10 32.2529 179.285   7
  -3  10   9 285.991 234.528   7
  -3  10   8 84.5360 123.692   7
  -3  10   7 3090.85 870.615   7
  -3  10   6 777.823 375.399   3
  -3  10   6 1612.89 638.786   7
  -3  10   5 2851.43 835.109   7
  -3  10   5 2508.53 711.934   3
  -3  10   4 92.0144 100.047   7
  -3  10   4 199.359 116.075   3
  -3  10   3 652.248 320.599   3
  -3  10   3 189.642 260.286   7
  -3  10   2 165.648 299.584   7
   3 -10  -2 35.3140 94.4119   2
  -3  10   2-110.274 310.974   3
   3 -10  -1 962.412 290.187   2
  -3  10   1 1178.78 447.740   3
  -3  10   1 1601.48 602.098   7
  -3  10   1 1067.25 390.032   1
   3 -10   0 2253.21 421.407   2
  -3  10   0 2721.73 694.757   3
  -3  10   0 2528.48 619.407   1
  -3  10   0 2571.10 698.064   7
  -3  10  -1 3013.32 675.819   1
  -3  10  -1 3321.25 766.672   3
  -3  10  -1 2589.23 721.384   7
  -3  10  -2 884.114 383.724   3
  -3  10  -2 1126.84 432.331   1
  -3  10  -2 633.306 310.442   7
  -3  10  -3 2832.30 743.132   3
  -3  10  -4-170.627 282.555   3
  -3  10  -5 1271.48 511.603   3
  -3  10  -6 2492.25 712.647   3
  -3  10  -7 493.511 383.436   3
  -3  10  -8-181.138 189.770   3
  -3  10  -9-86.6191 134.323   3
  -3  10 -10 4289.36 1030.91   3
  -3  10 -11 11726.0 1697.87   3
  -3  10 -12 225.065 328.065   3
  -3  10 -13 2605.77 866.931   3
  -3  10 -14 420.524 364.181   3
  -3  10 -15 504.355 373.063   3
  -3  10 -16 499.895 408.950   3
  -3  10 -17-40.1034 177.222   3
  -3  10 -18-84.5842 196.573   3
  -3  10 -19-249.811 312.241   3
  -3  10 -20 941.592 616.084   3
  -3  10 -21 21.0888 127.676   3
  -3   9  18 344.137 494.605   7
  -3   9  17 1057.04 689.847   7
  -3   9  16 281.595 382.889   7
  -3   9  15 318.597 341.632   7
  -3   9  14 5.19997 351.074   7
  -3   9  13-317.897 333.822   7
  -3   9  12 1273.53 668.790   7
  -3   9  11 1003.92 557.287   7
  -3   9  10 1778.39 786.975   7
  -3   9   9-309.664 437.882   7
  -3   9   8 27.2512 258.771   7
  -3   9   7-58.4319 135.902   7
  -3   9   6 10459.4 1555.21   7
  -3   9   6 7361.13 1120.08   3
  -3   9   5 17096.4 1929.89   7
  -3   9   5 13334.5 1484.88   3
  -3   9   4 6630.70 1166.48   7
  -3   9   4 7957.07 1141.19   3
  -3   9   3 368.667 219.926   3
  -3   9   3 1186.64 500.625   7
  -3   9   2 4284.47 824.511   3
  -3   9   2 4337.58 939.652   7
  -3   9   1 1031.12 390.321   3
   3  -9  -1 688.244 245.852   2
  -3   9   1 962.649 378.493   7
   3  -9   0 1471.21 343.667   2
  -3   9   0 1626.38 527.852   7
  -3   9   0 1157.58 436.680   3
  -3   9  -1 31.2451 156.482   3
  -3   9  -1 494.126 264.362   7
  -3   9  -2 1056.85 391.495   1
  -3   9  -2 972.908 399.338   3
  -3   9  -3 1548.32 492.590   3
  -3   9  -3 950.501 400.548   1
  -3   9  -4 1789.35 576.944   3
  -3   9  -5 2693.06 717.351   3
  -3   9  -6-87.3923 146.764   3
  -3   9  -7 98.8216 195.243   3
  -3   9  -8 7044.43 1208.90   3
  -3   9  -9 441.387 458.021   3
  -3   9 -10 14179.2 1768.33   3
  -3   9 -11 10726.1 1556.74   3
  -3   9 -12 806.999 493.313   3
  -3   9 -13 2479.91 834.412   3
  -3   9 -14 1792.81 693.573   3
  -3   9 -15 120.324 121.300   3
  -3   9 -16-268.901 417.503   3
  -3   9 -17-337.429 372.678   3
  -3   9 -18-85.2843 188.417   3
  -3   9 -19 34.5974 278.720   3
  -3   9 -20-372.286 370.635   3
  -3   9 -21 202.699 376.340   3
  -3   9 -22 0.92152 420.512   3
  -3   8  19-779.309 586.400   7
  -3   8  18-370.927 401.921   7
  -3   8  17-240.621 378.815   7
  -3   8  16 66.0842 292.215   7
  -3   8  15 85.0116 295.971   7
  -3   8  14 1051.13 470.040   7
  -3   8  13 442.183 429.105   7
  -3   8  12-41.6010 229.879   7
  -3   8  11 1521.25 631.423   7
  -3   8  10 5837.17 1264.56   7
   3  -8 -10 5429.49 756.760   6
   3  -8  -9 768.530 282.959   6
  -3   8   9 295.884 366.066   7
  -3   8   8 9315.41 1483.55   7
  -3   8   7 1404.39 543.479   7
  -3   8   6 11026.4 1267.96   3
  -3   8   6 11912.3 1585.28   7
  -3   8   5 14047.2 663.066   5
  -3   8   5 15794.5 1763.82   7
  -3   8   4 17128.8 1561.89   3
  -3   8   4 16830.3 1766.17   7
  -3   8   3 2385.39 650.711   7
  -3   8   3 2643.84 593.283   3
  -3   8   2-46.9574 199.250   3
  -3   8   2-147.124 201.870   7
  -3   8   1 5894.17 991.264   7
   3  -8  -1 5131.60 692.669   2
  -3   8   1 5700.26 891.272   3
   3  -8   0 2948.15 506.915   2
  -3   8   0 2349.10 572.058   3
  -3   8   0 2534.80 643.297   7
  -3   8  -1 523.288 284.258   7
  -3   8  -1 643.465 256.448   3
   3  -8   1 370.351 183.898   2
  -3   8  -2 4456.29 805.044   3
  -3   8  -3 193.471 182.894   3
  -3   8  -4 931.804 329.591   3
  -3   8  -5 150.533 273.076   3
  -3   8  -6 245.898 261.869   3
  -3   8  -7 2705.94 698.665   3
  -3   8  -8 1379.13 552.402   3
  -3   8  -9 6254.56 1114.69   3
  -3   8 -10 737.080 400.238   3
  -3   8 -11-90.9999 189.688   3
  -3   8 -12 1940.64 710.451   3
  -3   8 -13 4270.73 1021.57   3
  -3   8 -14 1391.87 663.377   3
   3  -8  14 342.892 267.544   7
  -3   8 -15 724.167 461.835   3
   3  -8  15 665.056 380.951   7
  -3   8 -16 1278.38 551.307   3
   3  -8  16 2135.29 676.701   7
  -3   8 -17 490.873 276.390   3
  -3   8 -18 710.101 434.512   3
  -3   8 -19 364.704 487.805   3
  -3   8 -20-322.277 336.045   3
  -3   8 -21-557.643 446.657   3
  -3   8 -22-200.140 289.849   3
  -3   8 -23-261.428 328.168   3
  -3   7  20-589.716 517.934   7
  -3   7  19 275.357 343.577   7
  -3   7  18-472.076 442.295   7
  -3   7  17 1003.88 641.010   7
  -3   7  16 395.588 388.341   7
  -3   7  15 1355.41 773.869   7
  -3   7  14 1926.43 753.630   7
   3  -7 -13 3915.80 732.387   6
  -3   7  13 4447.01 1217.03   7
   3  -7 -12 200.954 188.599   6
  -3   7  12 30.7227 155.265   7
   3  -7 -11 1012.01 350.628   6
  -3   7  11 1980.62 654.866   7
  -3   7  10 1413.95 641.379   7
   3  -7 -10 1382.41 370.726   6
  -3   7   9 4719.84 1031.42   7
   3  -7  -9 5808.40 724.255   6
  -3   7   8 612.730 187.572   7
   3  -7  -8 654.520 212.100   6
  -3   7   7-40.6372 101.045   7
  -3   7   6 1861.37 610.171   7
  -3   7   6 1671.20 459.581   3
  -3   7   5-52.5054 98.5629   3
  -3   7   5 112.822 214.459   7
  -3   7   4-185.571 238.636   3
  -3   7   4 67.5132 31.8336   5
  -3   7   4 90.1318 251.335   7
  -3   7   3-49.2562 125.228   3
  -3   7   3-150.522 177.487   7
  -3   7   2 6354.67 971.798   7
  -3   7   2 6667.44 875.163   3
  -3   7   1 709.632 279.568   1
  -3   7   1 832.829 348.404   3
  -3   7   1 862.400 368.646   7
   3  -7   0 15534.6 1174.53   2
  -3   7   0 19916.2 1629.01   7
  -3   7   0 19381.6 1522.57   3
   3  -7   1-26.8239 118.998   2
  -3   7  -1-180.398 235.048   7
  -3   7  -1 39.8175 190.598   3
  -3   7  -2 1389.97 389.124   3
  -3   7  -3 4757.16 817.200   3
  -3   7  -4 2305.98 573.155   3
  -3   7  -5 851.294 398.456   3
  -3   7  -6 1532.92 510.459   3
  -3   7  -7 5331.00 941.116   3
  -3   7  -8-25.2398 86.2666   3
  -3   7  -9 4645.37 901.600   3
  -3   7 -10 8309.95 1253.19   3
  -3   7 -11-86.2768 241.905   3
   3  -7  12 2825.77 678.412   7
  -3   7 -12 3426.49 848.235   3
   3  -7  13 1291.20 450.661   7
  -3   7 -13 2223.89 663.351   3
   3  -7  14 981.506 432.087   7
  -3   7 -14 608.810 340.926   3
  -3   7 -15-156.172 409.590   3
   3  -7  15 233.409 213.726   7
   3  -7  16 285.962 216.536   7
  -3   7 -16 606.015 369.177   3
  -3   7 -17 773.367 365.489   3
  -3   7 -18 134.224 276.387   3
  -3   7 -19 60.6505 170.006   3
  -3   7 -20 717.590 497.957   3
  -3   7 -21 419.590 278.486   3
  -3   7 -22 465.433 508.998   3
  -3   7 -23-49.5351 171.282   3
  -3   6  21 58.9476 201.393   7
  -3   6  20 481.246 482.202   7
  -3   6  19 552.129 643.014   7
  -3   6  18-401.004 400.105   7
  -3   6  17 1472.71 765.985   7
  -3   6  16-131.722 172.482   7
   3  -6 -16 494.920 308.838   6
   3  -6 -15 24.9067 63.4632   6
  -3   6  15-49.6228 204.142   7
   3  -6 -14-64.2355 103.538   6
  -3   6  14 708.778 553.269   7
  -3   6  13 1527.03 709.375   7
   3  -6 -13 1636.80 469.925   6
   3  -6 -12 1584.79 434.147   6
  -3   6  12 2176.44 796.180   7
   3  -6 -11 1586.56 425.210   6
  -3   6  11 546.768 329.258   7
  -3   6  10 2201.99 685.507   7
   3  -6 -10 2275.55 464.751   6
   3  -6  -9 3223.85 527.133   6
  -3   6   9 4453.13 960.825   7
  -3   6   8 4319.44 935.262   7
   3  -6  -8 4655.27 597.378   6
  -3   6   7 1293.19 536.997   7
   3  -6  -7 1861.75 346.943   6
  -3   6   6 2677.65 537.781   3
  -3   6   6 3247.81 769.288   7
  -3   6   5 14810.5 1229.20   3
  -3   6   5 15374.3 1563.57   7
  -3   6   4 48206.5 1130.71   5
  -3   6   4 51018.5 2770.25   7
  -3   6   4 51788.7 2276.98   3
  -3   6   3 5402.09 739.755   3
  -3   6   3 4232.97 400.215   5
  -3   6   3 4345.99 787.900   7
  -3   6   2 7187.44 840.920   3
  -3   6   2 6726.95 915.772   7
  -3   6   1 212.407 174.397   3
  -3   6   1 133.737 159.344   7
  -3   6   0 5460.68 767.203   3
  -3   6   0 5614.25 823.437   1
  -3   6   0 5842.11 835.261   7
   3  -6   0 4978.22 673.522   2
  -3   6  -1 11294.5 1090.24   3
   3  -6   1 11198.4 734.733   6
  -3   6  -1 10982.4 1118.90   1
  -3   6  -1 11273.6 1102.49   7
   3  -6   1 10883.9 954.727   2
  -3   6  -2 3326.49 628.119   3
  -3   6  -2 2958.87 616.020   1
   3  -6   2 3332.22 441.354   6
  -3   6  -3 4710.91 815.741   3
  -3   6  -4 42473.5 2308.84   3
  -3   6  -5 17020.4 1515.13   3
  -3   6  -6 2966.24 643.522   3
  -3   6  -7 1000.22 385.644   3
  -3   6  -8 35336.7 2388.44   3
  -3   6  -9 37378.8 2536.38   3
  -3   6 -10 1309.49 508.387   3
   3  -6  10 926.026 368.392   7
  -3   6 -11 5647.11 1042.52   3
   3  -6  11 5332.24 842.761   7
  -3   6 -12 2295.44 667.496   3
   3  -6  12 1189.98 433.397   7
  -3   6 -12 1181.46 467.346   6
  -3   6 -13-187.633 474.605   3
   3  -6  13 337.382 248.068   7
  -3   6 -13 436.127 307.412   6
   3  -6  14-134.198 158.990   7
  -3   6 -14 24.0733 205.084   6
  -3   6 -15 788.880 426.999   3
  -3   6 -15 510.155 370.891   6
   3  -6  15 719.689 388.499   7
  -3   6 -16 823.780 398.621   6
   3  -6  16 317.207 273.263   7
  -3   6 -16 614.278 439.703   3
  -3   6 -17 2375.58 781.605   3
   3  -6  17 2233.39 689.744   7
  -3   6 -18 272.653 315.115   3
  -3   6 -19 1392.99 640.396   3
  -3   6 -20 402.732 435.344   3
  -3   6 -21 720.009 467.474   3
  -3   6 -22-697.363 491.025   3
  -3   6 -23 79.0364 190.433   3
  -3   6 -24-0.92129 485.300   3
  -3   5  22 1030.09 708.529   7
  -3   5  21 555.476 628.389   7
  -3   5  20-105.465 230.191   7
  -3   5  19 365.614 330.358   7
  -3   5  18 1008.95 636.507   7
   3  -5 -18 547.891 380.642   6
  -3   5  17-34.4717 189.342   7
   3  -5 -17 51.5380 209.929   6
   3  -5 -16 133.260 176.089   6
  -3   5  16-48.4411 448.980   7
   3  -5 -15-28.9716 109.396   6
  -3   5  15 64.8156 236.542   7
   3  -5 -14 194.564 197.874   6
  -3   5  14-122.741 338.815   7
   3  -5 -13 2634.47 580.619   6
  -3   5  13 3029.80 961.296   7
   3  -5 -12 442.277 261.022   6
  -3   5  12 1203.47 575.405   7
  -3   5  11 17492.7 1983.03   7
   3  -5 -11 17231.4 1350.30   6
   3  -5 -10 320.595 176.073   6
  -3   5  10-103.273 264.261   7
  -3   5   9 4387.13 924.559   7
   3  -5  -9 3857.57 560.131   6
   3  -5  -8 317.161 149.456   6
  -3   5   8 158.644 237.169   7
  -3   5   7 10421.6 1335.17   7
   3  -5  -7 9162.17 738.435   6
  -3   5   6 97.6337 114.542   7
   3  -5  -6 143.779 107.717   6
  -3   5   6 78.9053 68.1062   3
   3  -5  -5 25773.1 999.319   6
  -3   5   5 27011.1 1958.86   7
  -3   5   5 26344.8 1466.05   3
  -3   5   4 8751.38 432.840   5
  -3   5   4 8286.94 1040.54   7
  -3   5   4 9381.09 869.591   3
  -3   5   3 1061.09 183.458   5
  -3   5   3 1341.70 388.943   7
  -3   5   3 944.359 276.979   3
  -3   5   2 23027.9 982.231   5
  -3   5   2 22192.3 1566.08   7
  -3   5   2 22424.4 1341.27   3
  -3   5   1 4813.70 501.501   5
  -3   5   1 4628.83 695.411   7
  -3   5   1 5224.51 656.397   3
  -3   5   0 32601.0 1671.23   3
   3  -5   0 30967.4 994.085   6
  -3   5   0 34648.6 1803.19   7
   3  -5   0 31397.0 1660.47   2
  -3   5  -1 4950.88 666.233   3
   3  -5   1 5589.27 470.850   6
   3  -5   1 4650.16 625.354   2
  -3   5  -1 5682.11 707.530   7
  -3   5  -2 33073.9 1779.90   3
   3  -5   2 32864.0 1288.65   6
  -3   5  -3 2547.34 507.083   3
  -3   5  -4 9823.36 1047.41   3
  -3   5  -5 22210.5 1629.80   3
  -3   5  -6 3313.70 664.259   3
  -3   5  -6 2979.49 522.970   6
  -3   5  -7 18482.9 1411.44   6
  -3   5  -7 17626.4 1583.83   3
   3  -5   8 3.04636 147.961   7
  -3   5  -8-133.444 294.680   3
  -3   5  -8-37.5038 218.344   6
   3  -5   9 4923.65 724.444   7
  -3   5  -9 4358.06 838.966   3
  -3   5  -9 4568.61 763.645   6
  -3   5 -10 2427.09 674.075   3
  -3   5 -10 2462.47 603.293   6
   3  -5  10 2419.89 516.735   7
  -3   5 -11 1845.47 563.886   3
   3  -5  11 1938.15 489.459   7
  -3   5 -11 2636.88 642.319   6
  -3   5 -12 5838.37 1064.07   3
  -3   5 -12 6727.23 1080.31   6
   3  -5  12 6018.29 898.573   7
  -3   5 -13 3091.79 746.019   6
   3  -5  13 1848.59 522.148   7
  -3   5 -13 2150.81 687.900   3
   3  -5  14 1075.69 416.842   7
  -3   5 -14 951.231 420.123   3
  -3   5 -14 1658.93 546.282   6
  -3   5 -15 372.618 389.729   6
  -3   5 -15 63.5483 154.971   3
   3  -5  15 102.647 130.102   7
  -3   5 -16 1012.18 415.700   6
  -3   5 -16 438.397 418.572   3
   3  -5  16 894.506 381.240   7
   3  -5  17 157.708 172.191   7
  -3   5 -17 795.581 503.321   3
  -3   5 -17 316.689 308.350   6
  -3   5 -18-19.9711 191.615   3
  -3   5 -18-308.670 330.309   6
  -3   5 -19 506.696 380.008   3
  -3   5 -19 100.031 218.544   6
  -3   5 -20-325.814 323.730   6
  -3   5 -20-928.510 532.365   3
  -3   5 -21 779.979 574.554   6
  -3   5 -21-59.9752 363.465   3
  -3   5 -22-263.096 309.161   3
  -3   5 -23-664.622 486.181   3
  -3   5 -24 173.716 394.105   3
  -3   4  22 407.750 392.783   7
  -3   4  21-224.621 317.991   7
  -3   4  20 353.460 459.229   7
   3  -4 -20 208.764 206.802   6
  -3   4  19-242.328 317.114   7
   3  -4 -19 466.153 328.850   6
  -3   4  18 112.500 157.152   7
   3  -4 -18 358.565 253.342   6
  -3   4  17 346.887 339.866   7
   3  -4 -17 89.3679 127.251   6
  -3   4  16 23.4148 347.688   7
   3  -4 -16 18.1763 140.183   6
  -3   4  15 366.352 508.230   7
   3  -4 -15 434.124 250.287   6
   3  -4 -14 542.726 361.632   6
  -3   4  14 1401.45 669.579   7
   3  -4 -13 2588.17 586.984   6
  -3   4  13 2409.03 748.226   7
  -3   4  12 13880.0 1803.39   7
   3  -4 -12 16176.8 1388.59   6
  -3   4  11 4549.26 1034.90   7
   3  -4 -11 5096.58 742.606   6
  -3   4  10 2114.42 638.374   7
   3  -4 -10 1864.28 421.314   6
  -3   4   9 6704.40 1102.03   7
   3  -4  -9 7433.72 769.378   6
   3  -4  -8 8778.22 768.887   6
  -3   4   8 9060.93 1253.52   7
   3  -4  -7-6.36549 74.0884   6
  -3   4   7 98.1627 98.5269   7
   3  -4  -7 9.70014 57.6683   3
  -3   4   6 2492.55 570.473   7
   3  -4  -6 2434.68 384.001   3
   3  -4  -6 2272.09 320.135   6
   3  -4  -5 36459.2 1443.71   3
  -3   4   5 37339.0 2167.80   7
  -3   4   5 38846.0 1541.04   3
   3  -4  -5 37928.0 1129.01   6
   3  -4  -4 10052.4 748.482   3
   3  -4  -4 10660.1 493.555   6
  -3   4   4 12185.3 1175.41   7
  -3   4   4 10702.6 801.384   3
  -3   4   3 1362.77 203.558   5
  -3   4   3 1247.29 350.902   7
   3  -4  -3 912.800 237.490   3
  -3   4   3 1346.90 272.389   3
   3  -4  -2 35466.0 1468.96   3
  -3   4   2 36546.6 1499.63   3
  -3   4   2 37451.1 1834.16   7
  -3   4   2 36181.7 1186.46   5
  -3   4   1 3501.22 406.002   5
   3  -4  -1 3087.30 446.336   3
  -3   4   1 3902.21 575.593   7
  -3   4   1 3921.04 501.069   3
  -3   4   0 35539.4 1564.69   3
  -3   4   0 33121.2 1357.55   5
   3  -4   0 30860.9 1631.72   2
  -3   4   0 34670.8 1606.71   7
   3  -4   0 33983.8 891.925   6
   3  -4   1 1345.58 314.556   2
   3  -4   1 1228.62 200.904   6
  -3   4  -1 1689.03 354.412   7
  -3   4  -1 1995.82 388.690   3
  -3   4  -2 317946. 5175.07   3
   3  -4   2 320384. 3752.68   6
  -3   4  -3 164072. 3875.88   3
   3  -4   3 161471. 2979.90   6
  -3   4  -3 160540. 3022.52   6
  -3   4  -4 26.0468 32.1086   7
  -3   4  -4 16.5958 181.894   3
  -3   4  -4 39.1957 123.176   6
  -3   4  -5 31615.8 1439.14   7
  -3   4  -5 32901.6 1927.05   3
  -3   4  -5 30554.5 1557.06   6
  -3   4  -6 62063.0 2759.86   3
  -3   4  -6 57557.5 2014.05   7
  -3   4  -6 60262.2 2339.24   6
  -3   4  -7 1463.77 413.450   6
   3  -4   7 1217.53 321.622   7
  -3   4  -7 1696.07 523.652   3
   3  -4   8 615.811 216.908   7
  -3   4  -8 957.856 320.595   6
  -3   4  -9 326.905 221.962   6
   3  -4   9 387.261 200.260   7
   3  -4  10 6496.16 828.425   7
  -3   4 -10 9239.63 1137.03   6
   3  -4  11 26467.5 1756.67   7
  -3   4 -11 27005.3 2053.17   6
   3  -4  12 564.216 279.517   7
  -3   4 -12 911.733 392.339   6
   3  -4  13-131.245 71.9857   7
  -3   4 -13 11.3529 173.236   6
   3  -4  14 11463.7 1330.40   7
  -3   4 -14 11869.6 1534.44   6
   3  -4  15 2941.15 710.112   7
  -3   4 -15 2227.88 689.528   6
   3  -4  16 296.327 293.722   7
  -3   4 -16-61.2382 270.294   6
   3  -4  17 205.574 200.863   7
  -3   4 -17 808.240 386.058   6
  -3   4 -18-98.0648 106.829   6
  -3   4 -19-441.309 362.307   3
  -3   4 -19-329.556 319.450   6
  -3   4 -20 200.753 309.652   3
  -3   4 -20 753.927 583.020   6
  -3   4 -21 662.903 474.536   3
  -3   4 -21-330.676 336.234   6
  -3   4 -22 12.2406 263.598   3
  -3   4 -22 8.23282 119.749   6
  -3   4 -23-19.6728 135.160   3
  -3   4 -24 333.877 496.146   3
  -3   3  23 92.4482 230.790   7
  -3   3  22-339.403 390.759   7
  -3   3  21 743.313 442.449   7
   3  -3 -21 211.037 152.524   6
  -3   3  20-55.0550 185.043   7
   3  -3 -20 309.926 218.136   6
  -3   3  19 351.945 378.302   7
   3  -3 -19 227.013 241.601   6
  -3   3  18-348.907 466.358   7
   3  -3 -18-140.443 200.864   6
  -3   3  17 2236.78 889.122   7
   3  -3 -17 1994.78 609.492   6
  -3   3  16-211.459 391.275   7
   3  -3 -16-162.470 255.360   6
  -3   3  15 2216.28 778.786   7
   3  -3 -15 1277.80 400.657   6
  -3   3  14 2200.88 743.178   7
   3  -3 -14 2315.02 563.809   6
   3  -3 -13 16574.2 1491.51   6
  -3   3  13 15772.4 1931.90   7
   3  -3 -12 1553.40 455.915   6
  -3   3  12 1958.73 671.512   7
  -3   3  11 5765.28 1068.62   7
   3  -3 -11 5046.42 739.289   6
   3  -3 -11 4065.51 416.846   5
   3  -3 -10 14292.5 698.377   5
   3  -3 -10 16733.9 1244.27   6
  -3   3  10 15734.6 1690.49   7
   3  -3  -9 10903.1 543.204   5
  -3   3   9 13675.5 1557.91   7
   3  -3  -9 11626.9 852.261   3
   3  -3  -9 12594.9 1011.27   6
   3  -3  -8 2691.90 426.888   6
   3  -3  -8 1664.00 297.671   3
  -3   3   8 2319.49 643.611   7
   3  -3  -8 2052.81 201.334   5
  -3   3   7 2603.09 589.040   7
   3  -3  -7 3029.02 414.376   6
   3  -3  -7 2322.72 329.053   3
  -3   3   6-41.0858 175.260   7
   3  -3  -6 235.739 118.192   3
   3  -3  -6 131.352 69.6981   6
   3  -3  -5 4491.90 419.022   3
  -3   3   5 4277.43 679.111   7
  -3   3   5 4418.95 429.699   3
   3  -3  -5 4454.97 383.346   6
   3  -3  -4 19786.1 656.176   6
   3  -3  -4 20912.3 628.051   5
   3  -3  -4 22063.8 912.251   3
  -3   3   4 20790.3 1442.19   7
  -3   3   4 20413.2 909.103   3
   3  -3  -3 4367.18 339.603   5
  -3   3   3 4959.68 398.981   5
  -3   3   3 4981.69 659.490   7
  -3   3   3 4345.11 422.997   3
   3  -3  -3 4292.21 414.153   3
   3  -3  -2 1745.99 269.503   3
  -3   3   2 1672.50 261.306   5
  -3   3   2 1687.09 276.691   3
  -3   3   2 1728.43 362.117   7
   3  -3  -2 1805.72 247.235   5
  -3   3   1 6950.57 582.062   3
  -3   3   1 6773.64 671.290   7
   3  -3  -1 7564.50 697.051   7
  -3   3   1 6726.68 561.525   5
   3  -3  -1 6630.99 564.331   3
  -3   3   0 1705.75 316.221   3
  -3   3   0 1150.74 252.476   7
  -3   3   0 1684.67 299.941   5
   3  -3   0 1877.28 405.133   2
  -3   3   0 1470.81 173.813   6
  -3   3  -1 1378.81 329.202   2
   3  -3   1 1749.77 410.134   2
  -3   3  -1 1456.95 216.143   6
  -3   3  -1 1442.05 302.260   3
  -3   3  -1 1256.58 276.542   5
  -3   3  -1 1567.67 289.211   7
   3  -3   2 143.730 81.2973   6
  -3   3  -2 86.0577 68.9935   3
  -3   3  -2 27.4163 46.4918   6
  -3   3  -3 1246.64 248.381   7
   3  -3   3 1909.93 325.117   6
  -3   3  -3 2019.43 342.151   6
  -3   3  -4 86005.8 2364.82   6
  -3   3  -4 85320.1 1941.88   7
  -3   3  -5 71932.6 2342.79   6
  -3   3  -5 72315.4 1863.60   7
   3  -3   6 38582.0 1468.68   7
  -3   3  -6 38593.0 1436.55   7
  -3   3  -6 42892.0 1945.84   6
  -3   3  -7 471.379 162.854   7
  -3   3  -7 334.233 154.911   6
   3  -3   7 523.150 185.464   7
  -3   3  -8-162.280 178.889   6
   3  -3   8 65.7963 83.6902   7
  -3   3  -8 123.917 91.3490   7
   3  -3   9 2125.45 428.761   7
  -3   3  -9 1902.53 479.509   6
   3  -3  10 4466.41 665.932   7
  -3   3 -10 5794.45 901.494   6
   3  -3  11 6.77807 192.424   7
  -3   3 -11 345.664 208.724   6
   3  -3  12 12916.2 1282.92   7
  -3   3 -12 12096.1 1407.46   6
  -3   3 -13 497.443 332.611   6
   3  -3  13 280.044 221.115   7
  -3   3 -14 2739.77 716.167   6
   3  -3  14 2963.84 664.058   7
  -3   3 -15-48.7951 150.567   6
   3  -3  15 350.620 250.920   7
  -3   3 -16 106.325 135.601   6
   3  -3  16 238.375 233.901   7
  -3   3 -17 733.098 418.566   6
   3  -3  17 306.647 233.383   7
  -3   3 -18-28.9870 213.953   6
  -3   3 -19-223.180 346.367   6
  -3   3 -20 1279.40 681.584   6
  -3   3 -21 773.492 486.944   6
  -3   3 -22 160.361 200.471   6
  -3   3 -23-167.595 258.555   3
  -3   3 -24-616.071 474.594   3
  -3   2  24 64.9635 165.098   7
  -3   2  23 508.809 470.729   7
  -3   2  22-747.306 552.776   7
  -3   2  21-187.753 278.131   7
  -3   2  20 105.311 212.980   7
   3  -2 -20 105.053 243.791   6
  -3   2  19 839.030 519.927   7
   3  -2 -19 1431.60 570.411   6
  -3   2  18 699.361 661.437   7
   3  -2 -18 963.153 458.893   6
  -3   2  17 1856.49 754.984   7
   3  -2 -17 901.818 403.959   6
   3  -2 -16 4.26773 193.793   6
  -3   2  16 16.7727 326.061   7
  -3   2  15 5345.83 1182.29   7
   3  -2 -15 4638.44 880.959   6
  -3   2  14 196.736 314.145   7
   3  -2 -14 601.046 278.370   6
  -3   2  13 5156.12 1056.34   7
   3  -2 -13 3554.00 718.777   6
  -3   2  12-81.9537 237.329   7
   3  -2 -12-79.2398 157.758   6
  -3   2  11 2768.42 696.403   7
   3  -2 -11 1679.37 421.172   6
  -3   2  10 2651.76 656.274   7
   3  -2 -10 2502.03 481.415   6
  -3   2   9 15739.8 1614.65   7
   3  -2  -9 16578.8 1173.97   6
  -3   2   8 7435.08 1038.77   7
   3  -2  -8 7012.50 552.076   3
   3  -2  -8 7542.00 734.278   6
  -3   2   7 606.181 178.950   6
   3  -2  -7 808.008 168.910   3
  -3   2   7 1026.69 362.601   7
   3  -2  -7 526.645 167.473   6
   3  -2  -6 11953.8 752.994   6
  -3   2   6 11243.8 1143.79   7
   3  -2  -6 11280.5 626.253   5
  -3   2   6 10925.1 691.598   6
   3  -2  -6 10780.9 536.617   3
   3  -2  -5 832.464 147.149   3
  -3   2   5 1254.49 205.963   6
   3  -2  -5 1296.30 203.660   5
  -3   2   5 1347.80 357.034   7
  -3   2   4 5902.86 716.526   7
   3  -2  -4 5925.74 439.874   5
   3  -2  -4 5384.17 343.839   3
  -3   2   4 6026.02 372.095   6
  -3   2   4 5931.11 360.828   3
  -3   2   3 21.4267 56.2646   5
   3  -2  -3-7.92222 17.7356   3
  -3   2   3 25.4779 30.2908   3
  -3   2   3-92.7104 115.543   7
   3  -2  -3 60.2250 29.4567   5
  -3   2   2 10864.8 572.332   3
  -3   2   2 10068.2 666.808   5
  -3   2   2 9699.30 785.844   7
   3  -2  -2 10235.2 635.459   5
   3  -2  -1 8862.77 659.862   7
   3  -2  -1 7138.93 562.422   5
  -3   2   1 7290.36 530.775   3
  -3   2   1 6907.59 604.736   7
  -3   2   1 7774.37 628.136   5
   3  -2   0 1024.48 221.830   5
   3  -2   0 1103.47 210.837   7
  -3   2   0 1176.40 221.772   7
   3  -2   1 19655.5 1070.67   5
  -3   2  -1 19054.3 766.586   7
  -3   2  -1 19034.5 1227.28   2
  -3   2  -1 18019.2 782.543   6
   3  -2   2 7177.82 690.244   5
  -3   2  -2 5978.10 385.424   7
  -3   2  -2 6519.41 538.085   6
   3  -2   3 18257.5 1163.07   5
  -3   2  -3 17271.3 636.088   7
  -3   2  -3 17957.6 989.778   6
  -3   2  -4 75506.5 1408.94   7
  -3   2  -4 75991.4 2230.65   6
   3  -2   5 24610.3 927.901   7
  -3   2  -5 27009.3 958.598   7
  -3   2  -5 28007.5 1464.36   6
  -3   2  -6 107410. 2170.42   7
   3  -2   6 106602. 2223.13   7
  -3   2  -6 109152. 3136.22   6
   3  -2   7 155823. 3018.32   7
  -3   2  -7 156114. 2903.13   7
  -3   2  -7 158460. 3988.97   6
  -3   2  -8 1339.35 294.827   7
  -3   2  -8 1204.34 380.353   6
   3  -2   8 1229.20 293.296   7
  -3   2  -9 273.777 226.494   6
   3  -2   9 70.3870 84.0673   7
  -3   2 -10 42.3678 80.5228   6
   3  -2  10 185.877 138.920   7
   3  -2  11 6686.35 857.715   7
  -3   2 -11 8145.99 1114.52   6
   3  -2  12 10949.3 1169.62   7
  -3   2 -12 12138.4 1410.22   6
   3  -2  13 874.776 340.949   7
  -3   2 -13 454.923 210.789   6
  -3   2 -14 149.709 173.347   6
   3  -2  14 394.781 215.248   7
  -3   2 -15 8608.07 1352.83   6
   3  -2  15 8985.58 1230.14   7
  -3   2 -16 2603.55 763.753   6
   3  -2  16 1404.22 511.896   7
   3  -2  17 543.702 280.758   7
  -3   2 -17-169.054 261.470   6
  -3   2 -18 0.62400 116.077   6
  -3   2 -19 426.602 437.586   6
  -3   2 -20 912.157 531.934   6
  -3   2 -21 447.916 320.191   6
  -3   2 -22 271.392 299.191   6
  -3   1  24 469.013 566.316   7
  -3   1  23 255.582 322.549   7
  -3   1  22 812.967 609.670   7
  -3   1  21 399.506 450.954   7
  -3   1  20 965.584 577.224   7
  -3   1  19 1357.01 728.095   7
  -3   1  18-46.6992 283.425   7
  -3   1  17 29.1133 126.662   7
   3  -1 -17-39.6602 177.550   6
  -3   1  16 1964.10 747.771   7
   3  -1 -16 1566.55 541.833   6
  -3   1  15 11174.5 1704.59   7
   3  -1 -15 11036.0 1359.08   6
  -3   1  14 4350.43 1043.55   7
   3  -1 -14 4513.86 841.719   6
  -3   1  13 4274.85 970.743   7
   3  -1 -13 4796.60 825.708   6
  -3   1  12 2912.47 760.195   7
   3  -1 -12 2560.00 577.958   6
  -3   1  11-137.370 250.412   7
   3  -1 -11 120.484 101.527   6
   3  -1 -10 1825.12 426.808   6
  -3   1  10 1636.18 504.609   7
  -3   1   9 1448.50 459.316   7
   3  -1  -9 1164.98 311.198   6
  -3   1   8 2202.65 572.942   7
  -3   1   7 98241.3 3483.46   7
  -3   1   6 2022.95 455.529   7
  -3   1   6 2375.82 339.494   6
  -3   1   5 38320.6 1911.44   7
  -3   1   5 38123.6 1227.83   6
  -3   1   4 41366.8 1154.05   6
   3  -1  -4 43085.5 1402.70   5
  -3   1   4 40477.0 1804.71   7
  -3   1   3 64009.3 2102.25   7
   3  -1  -3 66505.6 1751.53   5
   3  -1  -2 9202.70 677.488   5
  -3   1   2 9312.80 684.027   5
  -3   1   2 9666.26 736.856   7
  -3   1   1 43891.7 1381.02   7
   3  -1  -1 43461.2 1321.41   7
   3  -1  -1 42972.5 1516.68   5
  -3   1   0 38155.2 1084.56   7
   3  -1   0 37793.9 1478.29   5
   3  -1   0 38961.4 1051.16   7
  -3   1  -1 2657.70 453.793   2
   3  -1   1 2855.58 421.949   5
   3  -1   2 1298.54 289.786   5
   3  -1   3 1459.90 315.521   5
   3  -1   4 39391.3 1796.38   5
  -3   1  -5 4570.67 365.054   7
   3  -1   5 5216.62 684.674   5
   3  -1   5 4818.11 390.551   7
  -3   1  -5 4650.52 606.664   6
  -3   1  -6 39736.5 1272.86   7
   3  -1   6 41555.8 1366.43   7
  -3   1  -6 41163.9 1940.48   6
   3  -1   7 27342.3 1267.17   7
  -3   1  -7 27332.9 1193.35   7
  -3   1  -7 27413.1 1675.65   6
  -3   1  -8 394.674 152.014   7
  -3   1  -8 339.371 163.659   6
   3  -1   8 205.420 97.5522   7
   3  -1   8 426.424 248.794   4
  -3   1  -9 256.726 183.494   6
   3  -1   9-26.1756 101.391   4
   3  -1   9 180.771 109.686   7
  -3   1 -10 1107.17 362.447   6
   3  -1  10 957.729 385.211   4
   3  -1  10 1504.50 388.585   7
  -3   1 -11 1065.97 418.358   6
   3  -1  11 903.097 324.502   7
   3  -1  11 78.6048 146.173   4
   3  -1  12-69.3587 189.089   4
   3  -1  12 148.458 56.3985   7
   3  -1  13 7501.59 1044.43   7
  -3   1 -13 6625.05 1096.37   6
   3  -1  13 5772.02 943.160   4
  -3   1 -14 3180.57 767.647   6
   3  -1  14 2792.01 652.783   4
   3  -1  14 2422.11 660.843   7
  -3   1 -15 3214.28 826.932   6
   3  -1  15 2511.26 670.735   4
   3  -1  15 2764.69 698.650   7
  -3   1 -16 1188.58 610.677   6
   3  -1  16 771.120 332.301   4
   3  -1  16 1328.16 540.712   7
  -3   1 -17 413.953 279.972   6
   3  -1  17 540.219 345.332   7
  -3   1 -18 353.943 386.630   6
  -3   1 -19 888.410 528.793   6
  -3   1 -20 161.632 237.089   6
  -3   1 -21 805.279 479.901   6
  -3   1 -22 248.154 372.165   6
  -3   0  25 717.934 735.476   7
  -3   0  24 122.179 252.004   7
  -3   0  23 223.845 316.370   7
  -3   0  22-39.9623 209.911   7
  -3   0  21 439.114 405.501   7
  -3   0  20 1259.06 662.444   7
  -3   0  19 1094.64 646.208   7
  -3   0  18 1848.75 744.139   7
   3   0 -17 877.459 341.095   3
  -3   0  17 912.599 562.521   7
  -3   0  16 729.807 317.963   7
  -3   0  15 127.636 268.082   7
  -3   0  14 80.9529 227.526   7
  -3   0  13 502.692 219.390   7
  -3   0  12 9200.84 1347.30   7
  -3   0  11 540.536 378.302   7
   3   0 -10 4997.92 528.898   3
  -3   0  10 5222.54 921.338   7
   3   0  -9 571.656 165.866   3
  -3   0   9 506.747 339.275   7
   3   0  -8-23.7981 20.6756   3
  -3   0   8 230.153 153.524   7
  -3   0   7 1216.27 331.133   7
   3   0  -7 1092.73 170.596   3
   3   0  -6 36748.5 840.668   3
  -3   0   6 43046.2 2135.73   7
  -3   0   6 39988.8 1501.89   6
  -3   0   5 95190.0 2961.73   7
  -3   0   4 72694.1 2402.70   7
  -3   0   3 36559.6 1551.03   7
   3   0  -3 36072.3 1433.74   5
   3   0  -2 185316. 3310.51   5
  -3   0   2 187921. 3174.26   7
   3   0  -1 2486.92 314.981   7
  -3   0   1 2986.79 349.164   7
   3   0  -1 2626.90 405.832   5
   3   0   0 80553.0 1523.31   7
   3   0   0 79315.8 2287.05   5
  -3   0   0 79359.6 1534.09   7
  -3   0   0 80122.7 2452.79   2
  -3   0  -1 208963. 3951.31   2
   3   0   1 209951. 3835.61   5
   3   0   2 47766.3 1869.16   5
   3   0   3 4000.40 590.898   5
   3   0   3 4563.70 643.081   4
  -3   0  -3 4449.34 517.486   1
   3   0   4 94884.7 2820.94   5
   3   0   4 93120.8 1619.01   7
   3   0   4 90112.5 2401.01   1
  -3   0  -4 97488.8 2359.20   1
  -3   0  -4 85643.1 1577.59   7
   3   0   4 95105.2 2910.94   4
   3   0   5 41.2955 61.7294   4
   3   0   5-67.6437 163.254   5
   3   0   5 76.0253 49.5953   7
  -3   0  -5 67.7828 54.1717   7
   3   0   6 422.943 166.062   5
   3   0   6 795.146 287.435   4
   3   0   6 876.169 213.516   7
  -3   0  -6 387.022 143.245   7
   3   0   7 12846.5 1166.88   5
   3   0   7 12694.7 916.198   7
  -3   0  -7 12184.6 846.711   7
   3   0   7 12721.4 1164.77   4
   3   0   8 5332.38 786.455   4
   3   0   8 4878.44 625.899   7
  -3   0  -8 5660.19 828.540   6
   3   0   9 4935.41 683.963   7
   3   0   9 5227.13 803.762   4
  -3   0  -9 5138.63 851.141   6
   3   0  10 8992.22 984.000   7
   3   0  10 6509.04 929.447   4
  -3   0 -10 8803.99 1110.27   6
   3   0  11 13650.0 1292.57   7
   3   0  11 12659.2 1339.42   4
  -3   0 -11 14815.3 1516.87   6
  -3   0 -12 1070.82 461.543   6
   3   0  12 357.205 209.272   7
   3   0  12 1162.96 413.864   4
   3   0  13 101.400 126.983   7
  -3   0 -13-200.711 241.861   6
   3   0  13-67.2883 119.396   4
   3   0  14 211.318 153.369   7
   3   0  14 503.813 259.729   4
  -3   0 -14 554.696 299.816   6
  -3   0 -15 3572.25 892.713   6
   3   0  15 1919.20 582.158   7
   3   0  15 1720.37 557.381   4
  -3   0 -16 2233.45 748.290   6
   3   0  16 1673.76 593.416   7
   3   0  16 1365.08 515.840   4
   3   0  17-88.5720 227.354   4
   3   0  17 44.9203 237.811   7
   3   0  18 476.902 373.271   7
  -3   0 -18 789.934 433.565   6
   3   0  18 712.207 362.075   4
  -3   0 -19 776.709 521.027   6
  -3   0 -20 238.565 404.030   6
  -3   0 -21 565.913 445.485   6
  -3   0 -22 54.2095 132.520   6
  -3  -1  25 144.083 294.824   7
  -3  -1  24-272.620 346.623   7
  -3  -1  23 86.1204 298.967   7
  -3  -1  22-713.548 521.481   7
  -3  -1  21 687.455 479.762   7
  -3  -1  20-171.147 261.721   7
  -3  -1  19-86.3011 258.275   7
  -3  -1  18 2528.83 841.199   7
   3   1 -17 394.501 169.095   3
  -3  -1  17 213.375 212.516   7
   3   1 -16-358.181 214.985   3
  -3  -1  16-710.668 432.069   7
   3   1 -15 5695.08 793.620   3
  -3  -1  15 6730.89 1256.01   7
   3   1 -14 703.764 288.231   3
  -3  -1  14 482.826 339.198   7
   3   1 -13 2237.41 456.232   3
  -3  -1  13 1822.72 628.206   7
   3   1 -12 11475.2 972.540   3
  -3  -1  12 11207.4 1493.85   7
   3   1 -11 522.122 189.426   3
  -3  -1  11 910.403 420.704   7
  -3  -1  10 21285.1 1850.74   7
   3   1 -10 19447.0 1111.88   3
   3   1  -9 24948.6 1162.00   3
  -3  -1   9 21833.9 1789.20   7
   3   1  -8 55501.6 1595.29   3
  -3  -1   8 52514.0 2635.45   7
   3   1  -7 14544.1 748.979   3
  -3  -1   7 15371.7 1349.41   7
   3   1  -6 26314.0 935.817   3
  -3  -1   6 27083.4 1693.98   7
  -3  -1   6 27011.9 931.772   3
   3   1  -5 92556.0 1674.53   3
  -3  -1   5 94196.3 2973.09   7
  -3  -1   5 94516.9 1671.75   3
  -3  -1   4 46614.9 1175.01   3
  -3  -1   4 46107.1 1918.63   7
   3   1  -4 45322.1 1184.48   3
  -3  -1   3 7322.60 707.133   7
   3   1  -3 6637.49 486.160   3
  -3  -1   3 7706.14 510.778   3
   3   1  -2 22711.0 1254.09   5
  -3  -1   2 22569.4 1154.33   7
  -3  -1   2 23271.0 971.736   3
   3   1  -1 14392.4 1011.93   5
   3   1  -1 14980.2 849.749   7
  -3  -1   1 15000.6 862.317   7
   3   1   0 53166.1 1475.84   7
   3   1   0 52849.3 1945.39   4
  -3  -1   0 54739.3 1983.46   2
  -3  -1   0 53774.6 1502.58   7
   3   1   0 53756.2 2000.44   5
   3   1   1 16751.9 1109.93   4
   3   1   1 16239.0 769.596   7
  -3  -1  -1 15224.7 1079.54   2
   3   1   1 16752.0 1128.68   5
   3   1   2 7069.70 767.350   5
   3   1   2 7435.34 779.919   4
   3   1   3 109944. 2092.00   7
  -3  -1  -3 118596. 2320.57   1
   3   1   3 118484. 3177.59   4
   3   1   3 117447. 3178.80   5
   3   1   4 23247.6 1441.74   5
   3   1   4 23278.8 1005.75   7
   3   1   4 24229.2 1488.28   4
   3   1   5 35861.8 1378.43   7
   3   1   5 36625.8 1471.18   1
   3   1   5 38109.0 1901.40   5
   3   1   5 39847.7 1982.26   4
   3   1   6 11931.2 1102.81   5
   3   1   6 10785.1 839.399   1
  -3  -1  -6 10930.2 831.358   7
   3   1   6 11684.5 864.226   7
   3   1   6 10062.1 1038.38   4
   3   1   7 1408.84 371.594   5
   3   1   7 1254.54 313.580   7
   3   1   7 1744.34 441.056   4
   3   1   8 1778.89 439.213   5
   3   1   8 1827.49 406.708   7
   3   1   8 1490.58 416.431   4
   3   1   9 3047.29 562.935   7
  -3  -1  -9 3273.19 685.485   6
   3   1   9 3869.13 703.414   4
  -3  -1 -10 317.291 284.982   6
   3   1  10 415.925 251.260   4
   3   1  10-86.9849 124.165   7
  -3  -1 -11 2213.39 606.801   6
   3   1  11 2202.51 555.730   7
   3   1  11 2637.80 632.198   4
  -3  -1 -12 393.209 212.790   6
   3   1  12 715.525 327.764   4
   3   1  12 603.133 295.158   7
  -3  -1 -13 853.948 420.471   6
   3   1  13 682.456 335.156   7
   3   1  13 147.591 254.736   4
  -3  -1 -14 35.5241 144.253   6
   3   1  14-33.6458 195.885   4
   3   1  14 130.742 164.374   7
  -3  -1 -15 529.931 376.278   6
   3   1  15 815.602 402.091   7
   3   1  15 245.480 254.527   4
   3   1  16 697.314 380.432   7
   3   1  16 540.531 315.301   4
  -3  -1 -16 1090.29 545.206   6
  -3  -1 -17 730.056 494.826   6
   3   1  17 999.090 475.194   7
   3   1  17 998.227 417.527   4
  -3  -1 -18 476.815 394.006   6
   3   1  18 442.092 379.645   4
   3   1  18-14.1885 159.806   7
  -3  -1 -19-921.468 509.533   6
  -3  -1 -20 440.185 434.569   6
  -3  -1 -21 279.842 312.902   6
  -3  -1 -22 474.936 527.290   6
  -3  -2  25-353.034 400.213   7
  -3  -2  24 289.262 243.744   7
  -3  -2  23 649.955 634.229   7
  -3  -2  22 1508.54 763.550   7
  -3  -2  21-428.750 397.579   7
  -3  -2  20 201.187 329.021   7
  -3  -2  19 2.24764 143.408   7
  -3  -2  18 972.603 529.523   7
   3   2 -18 703.700 342.527   3
   3   2 -17 273.176 241.565   3
  -3  -2  17-191.861 340.006   7
   3   2 -16 13254.9 1313.83   3
  -3  -2  16 12413.9 1784.93   7
  -3  -2  15-42.8943 275.117   7
   3   2 -15-164.665 106.964   3
   3   2 -14 95.0172 89.0794   3
  -3  -2  14 43.6078 205.898   7
  -3  -2  13 6285.78 1126.94   7
   3   2 -13 6950.05 841.259   3
   3   2 -12-66.4732 73.6934   3
  -3  -2  12 390.921 100.386   7
   3   2 -11 573.757 230.415   3
  -3  -2  11 829.618 380.418   7
  -3  -2  10 118.937 96.4238   7
   3   2 -10 377.648 131.212   3
   3   2  -9 34474.6 1511.05   3
  -3  -2   9 34157.2 2259.25   7
  -3  -2   8 54411.8 2729.60   7
   3   2  -8 52748.8 1787.10   3
   3   2  -7 2968.92 407.561   3
  -3  -2   7 3220.96 626.798   7
  -3  -2   7 2612.46 363.275   3
   3   2  -6 1772.41 304.414   3
  -3  -2   6 1672.51 422.526   7
  -3  -2   6 1934.94 302.518   3
  -3  -2   5 22551.9 1022.69   3
  -3  -2   5 21783.5 994.411   4
  -3  -2   5 21087.2 1449.41   7
   3   2  -5 21029.6 1012.60   3
  -3  -2   4 13549.1 818.999   4
  -3  -2   4 13589.0 1087.28   7
   3   2  -4 12958.2 801.471   3
  -3  -2   4 13535.4 803.465   3
  -3  -2   3 34461.7 1658.71   7
   3   2  -3 34907.6 1363.74   3
  -3  -2   3 36585.1 1388.97   4
  -3  -2   3 36948.8 1367.09   3
   3   2  -2 152.806 72.3422   4
  -3  -2   2 119.503 82.6425   3
  -3  -2   2 258.218 118.597   7
   3   2  -2 247.656 130.242   3
  -3  -2   1 17564.9 1056.94   7
   3   2  -1 18041.8 1203.49   5
   3   2  -1 17480.2 1104.68   4
   3   2  -1 17126.0 1027.23   7
   3   2   0 58.9001 60.5172   7
   3   2   0 79.3781 53.2990   5
  -3  -2   0-21.4061 30.6267   2
   3   2   0 51.9217 62.0238   4
  -3  -2  -1 568.766 206.509   2
   3   2   1 645.448 200.070   7
   3   2   1 660.887 264.244   5
   3   2   1 708.267 235.489   4
   3   2   2 13503.1 1072.54   4
   3   2   2 13733.9 1108.51   5
   3   2   3 878.507 287.562   4
  -3  -2  -3 1028.22 186.500   1
   3   2   3 747.971 264.593   5
   3   2   3 627.577 184.598   7
   3   2   4 10391.6 809.126   7
   3   2   4 10439.5 1015.81   4
   3   2   4 10215.6 1001.15   5
   3   2   5 1780.67 423.342   5
   3   2   5 1739.81 290.068   1
   3   2   5 2325.51 506.124   4
   3   2   5 1308.87 303.691   7
   3   2   6 397.580 218.375   5
   3   2   6 654.800 190.281   1
   3   2   6 448.087 166.949   7
   3   2   6 621.557 283.997   4
   3   2   7 14351.0 946.065   1
   3   2   7 14497.5 1145.03   7
   3   2   7 15013.4 1276.80   5
   3   2   7 14362.4 1328.09   4
   3   2   8 17011.7 1493.38   4
   3   2   8 16513.2 1305.28   7
   3   2   8 15410.1 1329.78   5
   3   2   9 2975.25 611.129   5
   3   2   9 3915.28 674.225   7
   3   2   9 4009.30 762.030   4
   3   2  10 1344.88 476.663   4
   3   2  10 1482.61 446.120   7
  -3  -2 -11 693.812 392.705   6
   3   2  11 520.716 242.649   4
   3   2  11 762.052 380.608   7
  -3  -2 -12 307.237 268.769   6
   3   2  12 218.416 82.2705   4
   3   2  12 304.329 229.784   7
   3   2  13 16851.0 1710.56   7
   3   2  13 17050.8 1750.27   4
  -3  -2 -13 18061.8 1860.82   6
   3   2  14 447.053 303.153   4
  -3  -2 -14-230.017 269.549   6
   3   2  14 431.534 270.420   7
   3   2  15 2695.71 728.768   4
   3   2  15 2818.77 759.852   7
  -3  -2 -15 1782.77 662.335   6
  -3  -2 -16-118.456 258.234   6
   3   2  16 252.999 220.666   7
   3   2  16-82.9564 141.264   4
  -3  -2 -17-131.829 350.289   6
   3   2  17 26.2519 217.568   7
   3   2  17 371.321 297.947   4
   3   2  18-101.879 148.044   7
   3   2  18 125.540 92.9040   4
  -3  -2 -19 125.248 374.588   6
  -3  -2 -20 81.9429 198.555   6
  -3  -2 -21 445.934 442.400   6
  -3  -2 -22-89.6584 202.562   6
  -3  -3  25-760.955 574.249   7
  -3  -3  24 150.245 262.916   7
  -3  -3  23 63.7582 180.618   7
  -3  -3  22 52.9687 181.515   7
  -3  -3  21 124.423 233.573   7
  -3  -3  20 457.827 370.126   7
   3   3 -19 592.821 310.373   3
  -3  -3  19 250.437 332.962   7
   3   3 -18 778.369 379.840   3
  -3  -3  18 636.487 409.741   7
   3   3 -17 5346.94 895.992   3
  -3  -3  17 4981.01 1135.91   7
  -3  -3  16 4995.88 1120.11   7
   3   3 -16 5948.76 921.761   3
   3   3 -15 651.404 327.985   3
  -3  -3  15 959.021 549.554   7
   3   3 -14 4312.09 733.300   3
  -3  -3  14 4228.66 959.156   7
  -3  -3  13 17054.2 1918.16   7
   3   3 -13 18191.6 1434.54   3
  -3  -3  12 471.149 419.617   7
   3   3 -12 206.206 160.463   3
   3   3 -11-46.7080 180.057   3
  -3  -3  11 330.729 313.380   7
  -3  -3  10 1888.62 555.506   7
   3   3 -10 1509.35 354.584   3
  -3  -3   9 261.979 281.071   7
  -3  -3   9 165.527 69.3738   4
   3   3  -9 279.465 169.856   3
  -3  -3   8 147593. 2040.26   4
  -3  -3   8 153802. 4699.59   7
   3   3  -8 156798. 3437.28   3
   3   3  -7 453.843 229.356   3
  -3  -3   7 461.923 139.706   4
  -3  -3   7 754.336 341.380   7
  -3  -3   6 293457. 5924.51   7
   3   3  -6 287641. 4466.36   3
  -3  -3   5 21461.0 1523.52   7
   3   3  -5 21044.6 1196.04   3
   3   3  -4 102025. 2412.60   4
  -3  -3   4 105408. 3251.57   7
   3   3  -4 100544. 2608.88   3
   3   3  -3 1624.44 324.486   4
  -3  -3   3 1195.08 335.581   7
   3   3  -3 1790.56 366.130   3
  -3  -3   2 25.7869 111.954   7
   3   3  -2 80.2107 65.1630   3
   3   3  -2 72.4253 52.7806   4
   3   3  -1 19306.4 1325.88   5
   3   3  -1 20890.0 1232.04   4
   3   3  -1 20009.5 1269.73   3
   3   3  -1 20238.8 1155.24   2
   3   3   0 13757.4 1126.39   5
  -3  -3   0 14039.8 987.316   2
   3   3   0 15527.5 1106.16   4
   3   3   1 895.907 298.989   5
  -3  -3  -1 946.047 261.254   2
   3   3   2 1543.20 401.417   5
   3   3   3 2642.08 519.382   5
   3   3   4 13304.9 1178.78   5
   3   3   4 12522.0 1013.60   7
   3   3   5 797.347 265.568   7
   3   3   5 348.911 233.457   5
   3   3   6 2480.57 492.969   7
   3   3   6 2366.42 322.121   1
   3   3   6 2627.13 543.112   5
   3   3   7 537.672 168.466   1
   3   3   7 516.165 248.290   5
   3   3   7 735.500 305.108   7
   3   3   8 2784.30 410.758   1
   3   3   8 2068.01 486.112   7
   3   3   8 2760.26 553.674   5
   3   3   9 11713.6 1202.62   5
   3   3   9 12195.9 1262.76   7
   3   3  10 3464.76 709.354   7
   3   3  10 3078.67 621.663   5
   3   3  11 19014.3 1733.20   7
  -3  -3 -12 2428.14 693.084   6
   3   3  12 3778.43 821.729   7
   3   3  12 4244.30 890.520   4
   3   3  13 490.201 264.628   7
  -3  -3 -13 249.981 374.346   6
   3   3  13 257.093 109.224   4
  -3  -3 -14-16.3531 186.985   6
   3   3  14-409.388 291.738   7
   3   3  14-218.794 268.270   4
  -3  -3 -15 49.6142 230.424   6
   3   3  15-449.696 314.866   4
   3   3  15-358.011 284.581   7
   3   3  16 1709.96 646.209   7
  -3  -3 -16 1024.43 503.556   6
   3   3  16 1060.75 483.000   4
  -3  -3 -17 862.477 546.748   6
   3   3  17 748.678 436.916   7
   3   3  17 695.979 423.323   4
  -3  -3 -18 11.9492 174.027   6
   3   3  18 37.2698 215.535   7
   3   3  18 105.770 130.567   4
  -3  -3 -19 1038.05 559.506   6
   3   3  19-225.986 253.827   4
  -3  -3 -20 7.51516 218.635   6
  -3  -3 -21-191.840 266.838   6
  -3  -4  25-634.962 529.080   7
  -3  -4  24 416.289 480.010   7
  -3  -4  23-501.774 448.751   7
  -3  -4  22-551.908 460.143   7
  -3  -4  21-400.642 208.269   7
  -3  -4  20-987.767 573.131   7
  -3  -4  19 24.2222 182.617   7
   3   4 -19 187.119 487.159   3
  -3  -4  18 113.923 152.958   7
   3   4 -18 269.654 262.243   3
  -3  -4  17-119.739 269.476   7
   3   4 -17-152.528 206.861   3
  -3  -4  16 158.797 237.595   7
   3   4 -16-115.973 183.572   3
  -3  -4  15 5266.88 1116.60   7
   3   4 -15 5114.11 867.974   3
  -3  -4  14 6498.60 1243.85   7
   3   4 -14 5354.89 852.363   3
  -3  -4  13 4196.08 938.896   7
   3   4 -13 4844.26 776.364   3
   3   4 -12 12310.5 1194.22   3
  -3  -4  12 14035.5 1680.47   7
   3   4 -11 14589.4 1268.92   3
  -3  -4  11 14457.5 1658.22   7
  -3  -4  10 2542.60 688.138   7
   3   4 -10 1764.44 443.700   3
  -3  -4   9 2054.51 557.724   7
   3   4  -9 2242.51 469.363   3
   3   4  -8 22470.5 1436.70   3
  -3  -4   8 21060.3 1812.28   7
  -3  -4   7 13479.9 1397.99   7
   3   4  -7 14831.0 1156.23   3
  -3  -4   6 19057.6 1574.76   7
   3   4  -6 17960.7 957.728   4
   3   4  -6 19723.0 1315.72   3
   3   4  -5 113848. 2555.48   4
  -3  -4   5 119421. 3817.02   7
   3   4  -5 118271. 3204.22   3
  -3  -4   4 263646. 5488.67   7
   3   4  -4 265382. 4803.20   3
   3   4  -4 251581. 4023.86   4
   3   4  -3 31413.8 1672.05   3
   3   4  -3 32012.3 1501.99   4
  -3  -4   3 33889.0 1912.88   7
   3   4  -2 16604.6 1035.74   2
   3   4  -2 17222.6 1273.32   3
   3   4  -1 3925.54 625.563   3
   3   4  -1 3514.82 464.013   2
   3   4   0 31305.2 1806.18   5
  -3  -4   0 31323.7 1465.47   2
   3   4   0 32121.7 1843.97   3
   3   4   1 43031.9 2135.27   5
  -3  -4  -1 41192.9 1739.21   2
   3   4   2 25675.5 1662.46   5
   3   4   3 67404.4 2732.87   5
   3   4   4 1471.77 401.187   7
   3   4   4 769.401 300.125   5
   3   4   5 414.427 219.435   7
   3   4   5 721.198 294.474   5
   3   4   6 5348.43 788.247   5
   3   4   6 5479.14 795.784   7
   3   4   7 19786.6 1574.82   7
   3   4   7 20352.2 1563.76   5
   3   4   7 16375.4 810.325   1
   3   4   8 8932.60 1047.96   5
   3   4   8 8865.33 1102.00   7
   3   4   8 6759.02 573.562   1
   3   4   9-158.210 161.174   5
   3   4   9 144.469 121.749   7
   3   4  10 1642.19 477.464   5
   3   4  10 2049.27 576.356   7
   3   4  11 1965.08 540.488   5
   3   4  11 2237.61 621.510   7
   3   4  12 85.8076 264.751   7
  -3  -4 -13 11.4610 209.517   6
   3   4  13 103.752 116.633   7
  -3  -4 -14 238.041 265.437   6
   3   4  14 240.422 121.748   7
  -3  -4 -15 76.2165 272.142   6
   3   4  15 393.230 230.436   7
   3   4  15 201.669 224.089   4
  -3  -4 -16 201.922 264.822   6
   3   4  16 49.9481 205.050   4
   3   4  16 357.691 284.155   7
  -3  -4 -17 773.949 448.288   6
   3   4  17 316.256 361.473   4
   3   4  17 201.113 235.253   7
   3   4  18 589.253 434.866   4
  -3  -4 -18 586.272 487.385   6
   3   4  18 169.180 232.518   7
  -3  -4 -19-489.280 388.599   6
   3   4  19 513.321 469.416   4
  -3  -4 -20 276.078 325.406   6
  -3  -4 -21-347.157 346.204   6
  -3  -5  25-50.5727 167.478   7
  -3  -5  24-339.270 387.395   7
  -3  -5  23 962.177 583.689   7
  -3  -5  22 797.392 607.087   7
  -3  -5  21 322.037 439.653   7
  -3  -5  20 510.978 434.029   7
   3   5 -20 232.523 89.6998   3
  -3  -5  19-200.522 353.018   7
   3   5 -19 303.360 251.074   3
  -3  -5  18 718.441 486.210   7
   3   5 -18 677.040 352.261   3
   3   5 -17 518.615 317.310   3
  -3  -5  17 207.748 215.432   7
   3   5 -16 7461.60 1115.50   3
  -3  -5  16 8646.76 1511.25   7
  -3  -5  15 3298.29 933.480   7
   3   5 -15 3340.03 735.266   3
  -3  -5  14 283.809 167.155   7
   3   5 -14 18.5098 163.518   3
   3   5 -13 8616.79 1096.32   3
  -3  -5  13 8426.52 1379.10   7
   3   5 -12 6518.70 920.039   3
  -3  -5  12 6193.92 1147.65   7
   3   5 -11 10648.5 1148.01   3
  -3  -5  11 12249.6 1536.23   7
   3   5 -10 13854.4 1288.92   3
  -3  -5  10 15922.1 1703.03   7
   3   5  -9 6347.23 849.288   3
  -3  -5   9 5585.81 1027.76   7
  -3  -5   8 7877.57 1149.67   7
   3   5  -8 6703.33 873.248   3
  -3  -5   7 51508.2 2827.77   7
   3   5  -7 46964.0 1561.45   4
   3   5  -7 52374.9 2371.12   3
  -3  -5   6 5523.55 891.107   7
   3   5  -6 4210.44 678.533   3
   3   5  -6 4679.88 520.473   4
  -3  -5   5 16893.3 1525.66   7
   3   5  -5 15034.8 1002.61   4
   3   5  -5 14575.1 1248.87   3
  -3  -5   4 2153.41 512.806   7
   3   5  -4 2619.35 539.592   3
   3   5  -3 304.257 169.305   3
   3   5  -2 398.862 226.989   3
   3   5  -2 789.562 205.421   2
   3   5  -1 1850.65 456.407   3
   3   5   0 11399.7 1145.48   5
  -3  -5   0 12044.7 896.167   2
   3   5   0 10591.8 1141.03   3
  -3  -5  -1 8164.52 775.739   2
   3   5   1 7619.11 938.735   5
   3   5   2 4217.14 705.211   5
   3   5   3 35222.4 2070.40   5
   3   5   4 1769.55 460.714   7
   3   5   4 1094.18 379.674   5
   3   5   5 307.379 237.200   5
   3   5   5 645.114 284.716   7
   3   5   6 305.701 186.808   5
   3   5   6-139.451 207.638   7
   3   5   7 10226.7 1147.61   5
   3   5   7 11625.7 1298.07   7
   3   5   8 180.469 80.0806   1
   3   5   8 275.709 194.685   5
   3   5   8 573.163 291.922   7
   3   5   9 17836.2 1721.05   7
   3   5   9 16992.1 1500.23   5
   3   5  10 2025.45 529.322   5
   3   5  10 3125.79 753.674   7
   3   5  11 321.350 303.652   7
   3   5  11 145.936 195.099   5
   3   5  12 169.476 158.604   5
   3   5  12 769.579 445.440   7
   3   5  13 54.9420 191.497   7
   3   5  14-75.2087 127.709   7
  -3  -5 -14 4241.81 1104.85   6
  -3  -5 -15-263.513 276.204   6
   3   5  15-556.499 378.638   7
  -3  -5 -16 47.9660 238.443   6
   3   5  16 481.377 382.730   7
   3   5  16 63.8994 148.538   4
   3   5  17-282.122 322.082   7
  -3  -5 -17 462.271 452.552   6
   3   5  17 250.656 461.315   4
  -3  -5 -18-272.342 288.796   6
   3   5  18 56.0773 146.016   4
   3   5  18 7.56056 123.647   7
  -3  -5 -19-264.639 294.429   6
   3   5  19 75.6573 372.964   4
  -3  -5 -20 95.4404 329.136   6
   3   5  20 533.650 422.032   4
  -3  -6  25-348.265 394.095   7
  -3  -6  24 106.032 330.821   7
  -3  -6  23 219.046 347.573   7
  -3  -6  22-9.27887 118.152   7
  -3  -6  21-31.6654 162.063   7
  -3  -6  20 83.3103 152.887   7
   3   6 -20-429.644 311.962   3
  -3  -6  19-653.645 468.560   7
   3   6 -19-466.891 315.958   3
  -3  -6  18 2911.36 989.771   7
   3   6 -18 1527.49 550.866   3
  -3  -6  17 386.287 396.754   7
   3   6 -17 538.159 338.823   3
  -3  -6  16-137.758 189.585   7
   3   6 -16 264.756 268.575   3
  -3  -6  15 4736.54 1073.33   7
   3   6 -15 4617.11 890.200   3
   3   6 -14 265.784 284.754   3
  -3  -6  14 71.0102 243.049   7
   3   6 -13 1085.92 407.691   3
  -3  -6  13 1487.42 584.854   7
   3   6 -12 1000.21 421.193   3
  -3  -6  12 886.654 536.971   7
  -3  -6  11 589.547 247.155   7
   3   6 -11 1139.08 403.476   3
  -3  -6  10 5179.83 1009.16   7
   3   6 -10 4192.05 765.337   3
  -3  -6   9 2968.63 802.465   7
   3   6  -9 2435.08 591.159   3
   3   6  -9 2137.63 309.067   4
   3   6  -8 3736.93 679.456   3
   3   6  -8 3577.93 438.330   4
  -3  -6   8 4110.02 873.071   7
   3   6  -7 13710.9 923.542   4
  -3  -6   7 13134.0 1491.18   7
   3   6  -7 15242.9 1395.67   3
  -3  -6   6 13430.8 1515.02   7
   3   6  -6 13058.2 1294.73   3
  -3  -6   5 17393.8 1644.71   7
   3   6  -5 18256.5 1512.46   3
   3   6  -4 33933.6 2085.47   3
   3   6  -3 7657.05 1038.80   3
   3   6  -3 8334.40 706.796   2
   3   6  -2-14.9781 97.0776   3
   3   6  -1 1721.34 483.945   3
  -3  -6   0 4512.73 541.988   2
   3   6   0 4931.69 772.234   5
   3   6   0 4319.78 788.643   3
  -3  -6  -1 3078.24 474.480   2
   3   6   1 2765.38 568.994   5
  -3  -6  -1 3042.79 236.790   1
   3   6   1 3938.15 786.468   3
   3   6   2 12577.1 1283.23   5
   3   6   3 45673.8 2452.71   5
   3   6   4 1386.62 439.845   5
   3   6   4 1029.98 380.453   7
   3   6   5 754.331 301.311   5
   3   6   5 1009.23 390.170   7
   3   6   6 824.451 322.883   5
   3   6   6 1094.78 401.901   7
   3   6   7 429.919 229.658   5
   3   6   7-18.5061 153.435   7
   3   6   8-47.7547 153.654   7
   3   6   8-69.4900 203.938   5
   3   6   9 1588.29 475.064   5
   3   6   9 1954.42 607.430   7
   3   6  10-150.492 113.458   5
   3   6  10 229.726 325.194   7
   3   6  11 4660.54 830.667   5
   3   6  11 5717.89 1122.33   7
   3   6  12 722.425 327.548   5
   3   6  12 1517.92 597.104   7
   3   6  13-66.9497 184.598   7
  -3  -6 -14 151.409 158.656   6
   3   6  14 680.887 446.511   7
  -3  -6 -15-532.629 372.519   6
   3   6  15 289.184 331.418   7
  -3  -6 -16-21.9867 113.788   6
   3   6  16 307.214 388.146   7
  -3  -6 -17-407.730 346.132   6
   3   6  17 790.034 492.062   7
   3   6  18 129.088 220.719   7
   3   6  18-115.476 202.805   4
  -3  -6 -18 427.903 328.312   6
  -3  -6 -19 859.041 570.230   6
   3   6  19-556.417 432.415   4
   3   6  20 32.3321 131.578   4
  -3  -6 -20 444.312 566.632   6
  -3  -7  25-524.830 489.569   7
  -3  -7  24 194.346 302.002   7
  -3  -7  23 11.8716 118.990   7
  -3  -7  22 522.161 452.278   7
  -3  -7  21-127.848 234.132   7
   3   7 -21 1141.48 584.580   3
  -3  -7  20 475.459 483.694   7
   3   7 -20 552.450 388.219   3
   3   7 -19 486.717 354.821   3
  -3  -7  19 585.073 389.347   7
  -3  -7  18 999.123 533.617   7
   3   7 -18 1656.15 589.770   3
   3   7 -17 278.554 342.713   3
  -3  -7  17 92.8865 274.512   7
  -3  -7  16-673.202 440.202   7
   3   7 -16-5.72164 103.701   3
  -3  -7  15-93.3744 248.552   7
   3   7 -15 704.894 404.580   3
   3   7 -14 2528.64 646.087   3
  -3  -7  14 3863.18 989.925   7
  -3  -7  13-153.578 298.855   7
   3   7 -13-271.592 244.247   3
  -3  -7  12-340.271 408.703   7
   3   7 -12-147.033 293.229   3
   3   7 -11 6803.18 1045.10   3
  -3  -7  11 7024.37 1251.87   7
  -3  -7  10 16375.6 1872.49   7
   3   7 -10 14523.1 808.538   4
   3   7 -10 15926.8 1574.06   3
  -3  -7   9 37.3672 335.923   7
   3   7  -9 188.167 263.170   3
   3   7  -9 72.6660 90.3857   4
  -3  -7   8 19405.4 1943.21   7
   3   7  -8 17407.5 1616.31   3
  -3  -7   7 2572.92 637.362   7
   3   7  -7 2143.81 543.867   3
   3   7  -6 529.263 273.495   3
  -3  -7   6 1347.49 457.710   7
   3   7  -5 5215.76 879.816   3
   3   7  -4 1492.79 481.241   3
   3   7  -4 1606.30 298.030   2
   3   7  -3 288.374 113.580   2
   3   7  -3 112.356 107.303   3
   3   7  -2 4128.83 792.351   3
   3   7  -1 56.6731 101.789   3
  -3  -7   0 197.471 87.4358   1
   3   7   0 55.2538 174.811   5
   3   7   0 144.124 139.885   3
   3   7   1 24.2861 106.745   3
   3   7   1-257.960 285.840   5
  -3  -7  -1 125.126 102.030   2
   3   7   2 116.830 202.891   5
   3   7   3 75.7263 132.991   5
   3   7   4 2435.44 595.067   5
   3   7   4 3354.63 746.055   7
   3   7   5-68.3011 161.861   5
   3   7   5-49.3214 98.9846   7
   3   7   6 2.47657 105.904   5
   3   7   6 51.0211 90.4732   7
   3   7   7 4368.98 925.038   7
   3   7   7 4684.93 837.164   5
   3   7   8 699.209 371.869   5
   3   7   8 937.876 397.101   7
   3   7   9 89.6188 117.848   7
   3   7   9 236.351 192.049   5
   3   7  10 541.611 341.887   7
   3   7  10 493.088 211.980   5
   3   7  11 2593.25 622.909   5
   3   7  11 3053.70 845.830   7
   3   7  12 248.735 367.188   7
   3   7  13-452.255 350.068   7
   3   7  14-52.5040 227.969   7
  -3  -7 -15-283.921 281.143   6
   3   7  15 224.880 216.742   7
  -3  -7 -16 226.727 262.542   6
   3   7  16 317.289 313.519   7
  -3  -7 -17 73.0955 237.544   6
   3   7  17-189.046 265.808   7
  -3  -7 -18-0.74779 257.631   6
   3   7  18 226.321 254.713   4
   3   7  19-44.4652 143.422   4
  -3  -7 -19 776.230 535.871   6
  -3  -8  25-47.7409 187.731   7
  -3  -8  24-157.992 281.384   7
  -3  -8  23-561.483 485.158   7
  -3  -8  22-185.183 290.307   7
  -3  -8  21-169.089 197.504   7
   3   8 -21 104.717 134.756   3
  -3  -8  20-56.0322 328.215   7
   3   8 -20 443.109 335.397   3
   3   8 -19 186.251 256.139   3
  -3  -8  19-55.8503 248.726   7
   3   8 -18 38.5746 170.860   3
  -3  -8  18 830.100 462.929   7
  -3  -8  17 1267.80 655.746   7
   3   8 -17 1221.51 512.994   3
   3   8 -16 1119.44 523.317   3
  -3  -8  16-66.1811 140.728   7
  -3  -8  15 1851.69 744.239   7
   3   8 -15 2106.10 702.205   3
  -3  -8  14 495.675 455.751   7
   3   8 -14 573.331 357.577   3
  -3  -8  13 1.25211 122.488   7
   3   8 -13 497.156 369.773   3
   3   8 -12 5258.03 993.145   3
  -3  -8  12 5843.87 1215.73   7
   3   8 -11 5363.58 505.917   4
  -3  -8  11 5678.55 1184.20   7
   3   8 -11 3978.37 835.065   3
  -3  -8  10 290.179 287.532   7
   3   8 -10 458.693 245.843   3
   3   8 -10 354.969 147.230   4
   3   8  -9-76.1781 90.5611   3
  -3  -8   9 300.666 283.003   7
   3   8  -8 495.947 370.822   3
  -3  -8   8 718.251 344.377   7
   3   8  -7 2739.69 667.975   3
   3   8  -6-131.032 219.410   3
   3   8  -5 2588.43 670.194   3
   3   8  -4 5390.91 483.346   2
   3   8  -4 6289.76 1031.85   3
   3   8  -3 14306.6 1566.20   3
   3   8  -2 14488.3 1603.20   3
  -3  -8   1 12906.2 834.964   1
   3   8  -1 16942.6 1739.77   3
   3   8   0 5.29071 90.6241   3
  -3  -8   0-14.3191 40.4861   1
   3   8   0-173.667 255.991   5
  -3  -8  -1 1669.73 335.301   2
   3   8   1 2077.95 571.596   5
   3   8   1 2076.63 581.765   3
   3   8   2 3105.30 677.752   5
   3   8   3 10824.6 1298.15   5
   3   8   3 12767.9 1558.52   7
   3   8   4 908.164 404.623   7
   3   8   4 339.251 173.032   5
   3   8   5 5411.95 919.452   5
   3   8   5 5180.76 1003.97   7
   3   8   6 926.788 416.218   5
   3   8   6 788.674 472.854   7
   3   8   7 216.496 200.144   5
   3   8   7 256.491 271.617   7
   3   8   8 1391.12 445.105   5
   3   8   8 1393.05 601.057   7
   3   8   9 8196.63 1394.20   7
   3   8   9 7214.36 1056.81   5
   3   8  10 124.959 88.1730   5
   3   8  10 151.175 110.826   7
   3   8  11 1292.73 644.779   7
   3   8  12 332.331 208.327   7
   3   8  13 90.1663 213.128   7
   3   8  14-157.501 264.309   7
  -3  -8 -15 173.563 345.335   6
   3   8  15-591.204 435.266   7
   3   8  16 205.799 277.860   7
  -3  -8 -16 97.3410 187.251   6
  -3  -8 -17-61.2059 166.340   6
   3   8  17 154.783 288.274   7
  -3  -8 -18 514.727 381.144   6
  -3  -8 -19 0.81389 161.580   6
  -3  -9  24 354.315 371.841   7
  -3  -9  23 612.307 659.838   7
  -3  -9  22 791.987 588.580   7
   3   9 -21 796.410 521.123   3
  -3  -9  21-329.937 370.863   7
  -3  -9  20-14.5324 321.296   7
   3   9 -20 179.678 113.314   3
   3   9 -19-367.270 318.018   3
  -3  -9  19-331.416 392.191   7
   3   9 -18-152.166 342.803   3
  -3  -9  18 579.157 538.380   7
  -3  -9  17-1016.52 577.264   7
   3   9 -17-468.890 344.606   3
  -3  -9  16 41.0151 330.884   7
   3   9 -16-454.337 334.876   3
  -3  -9  15 2875.22 906.920   7
   3   9 -15 3392.59 884.001   3
   3   9 -14 9188.30 1419.70   3
  -3  -9  14 8921.28 1578.78   7
   3   9 -13 3865.58 898.820   3
  -3  -9  13 5354.05 1210.97   7
  -3  -9  12 717.384 466.326   7
   3   9 -12 76.7446 144.067   3
  -3  -9  11 358.765 402.990   7
   3   9 -11 268.368 213.531   3
  -3  -9  10 6049.88 1233.74   7
   3   9 -10 5092.48 988.133   3
   3   9  -9-10.8528 88.0544   3
  -3  -9   9-211.823 239.177   7
   3   9  -8 244.082 243.683   3
   3   9  -7 10313.2 1412.15   3
   3   9  -6 993.319 429.387   3
   3   9  -5 3264.18 786.669   3
   3   9  -5 3058.76 344.552   2
   3   9  -4 213.838 196.357   3
   3   9  -3 2650.05 709.740   3
   3   9  -2 465.388 365.828   3
   3   9  -1 6867.61 1228.91   3
   3   9   0 5124.90 924.719   5
   3   9   0 6321.83 1155.61   3
   3   9   1 54.1378 232.548   3
   3   9   1 199.774 155.987   5
   3   9   2 7055.13 1097.44   5
   3   9   3 8043.45 1178.33   5
   3   9   3 9080.24 1387.11   7
   3   9   4 5255.90 923.572   5
   3   9   4 5279.90 1055.84   7
   3   9   5 13654.1 1755.94   7
   3   9   5 12753.7 1467.70   5
   3   9   6 50.1622 125.036   5
   3   9   6-69.7280 152.281   7
   3   9   7 3478.27 928.775   7
   3   9   7 3149.75 718.428   5
   3   9   8 158.439 188.092   5
   3   9   8 92.8594 208.973   7
   3   9   9 622.139 427.324   7
   3   9  10 830.832 453.159   7
   3   9  11-88.7759 251.512   7
   3   9  12-104.153 170.681   7
   3   9  13-31.2234 263.219   7
   3   9  14 582.997 449.704   7
   3   9  15 23.6330 358.048   7
  -3  -9 -15 287.339 353.330   6
   3   9  16 0.88993 256.113   7
  -3  -9 -16 108.282 195.426   6
   3   9  17-387.565 389.808   7
  -3  -9 -17-331.517 330.314   6
  -3  -9 -18-170.134 247.122   6
  -3 -10  23 119.475 256.026   7
   3  10 -22 313.775 222.718   3
  -3 -10  22 304.361 373.452   7
  -3 -10  21 330.082 375.333   7
   3  10 -21-456.959 378.055   3
  -3 -10  20-1050.19 639.197   7
   3  10 -20 423.240 353.233   3
  -3 -10  19 507.532 398.584   7
   3  10 -19 576.815 448.545   3
   3  10 -18 137.717 228.186   3
  -3 -10  18-240.244 495.423   7
   3  10 -17 439.522 414.451   3
  -3 -10  17 198.597 124.426   7
   3  10 -16 880.090 430.509   3
  -3 -10  16 1233.34 600.999   7
  -3 -10  15-23.8261 274.139   7
   3  10 -15 191.930 226.903   3
  -3 -10  14 1374.66 661.356   7
   3  10 -14 1141.50 513.107   3
   3  10 -13 5899.40 1186.03   3
  -3 -10  13 4896.78 1211.23   7
  -3 -10  12 11923.1 1858.49   7
   3  10 -12 11111.1 1612.82   3
  -3 -10  11 9712.40 1642.11   7
   3  10 -11 10850.0 1557.03   3
   3  10 -10 13.4000 206.239   3
   3  10  -9 1433.29 560.322   3
   3  10  -8 6363.59 1152.20   3
   3  10  -7 100.136 150.325   3
   3  10  -6 1404.23 522.640   3
   3  10  -5 503.453 348.726   3
   3  10  -4 260.747 360.366   3
   3  10  -3 258.942 276.016   3
   3  10  -2 1491.19 610.595   3
   3  10  -1 898.194 452.836   3
   3  10   0 2013.90 597.311   5
   3  10   0 2855.38 803.939   3
   3  10   1 2206.59 723.074   3
   3  10   1 2341.89 700.049   5
   3  10   2 313.745 202.144   5
   3  10   3 352.269 197.490   5
   3  10   3 880.880 453.560   7
   3  10   4 536.458 433.682   7
   3  10   4-192.548 240.780   5
   3  10   5-59.7128 299.577   7
   3  10   5-41.1064 114.226   5
   3  10   6-272.290 280.087   7
   3  10   6-174.787 181.775   5
   3  10   7 241.001 268.488   7
   3  10   7 303.978 265.226   5
   3  10   8-105.041 260.276   7
   3  10   9 49.2700 178.934   7
   3  10  10 406.452 477.889   7
   3  10  11 60.9713 212.088   7
   3  10  12-74.2149 211.805   7
   3  10  13 2.48364 106.333   7
   3  10  14 138.911 404.416   7
   3  10  15 453.444 475.452   7
  -3 -10 -16 370.383 474.792   6
   3  10  16 15.3530 243.958   7
  -3 -11  23 533.331 498.301   7
  -3 -11  22 546.952 499.235   7
   3  11 -22 704.319 487.748   3
   3  11 -21 506.341 613.898   3
  -3 -11  21 539.682 589.276   7
  -3 -11  20 792.464 632.305   7
   3  11 -20-0.77247 310.004   3
  -3 -11  19-635.222 501.599   7
   3  11 -19-485.884 395.436   3
   3  11 -18-530.313 405.558   3
  -3 -11  18 55.6896 102.590   7
  -3 -11  17-77.3129 203.481   7
   3  11 -17 141.420 269.278   3
  -3 -11  16-165.968 287.843   7
   3  11 -16-218.398 278.298   3
  -3 -11  15 21.2494 221.415   7
   3  11 -15 98.7805 219.043   3
  -3 -11  14 2066.59 795.811   7
   3  11 -14 2070.84 755.948   3
  -3 -11  13 293.794 306.629   7
   3  11 -13-793.412 456.806   3
   3  11 -12 4326.93 1048.82   3
   3  11 -11 459.267 359.667   3
   3  11 -10 527.694 361.711   3
   3  11  -9-168.570 372.052   3
   3  11  -8 2346.62 756.810   3
   3  11  -7 13830.5 1808.91   3
   3  11  -6 3190.14 853.756   3
   3  11  -5 441.492 359.153   3
   3  11  -4 5890.73 1182.54   3
   3  11  -3 3832.77 976.464   3
   3  11  -2 3736.52 1007.13   3
   3  11  -1 13287.4 1864.67   3
   3  11   0 263.584 283.056   3
   3  11   0 592.146 420.469   5
   3  11   1 9174.84 1553.04   3
   3  11   1 7353.19 1212.40   5
   3  11   2 1365.49 504.913   5
   3  11   2 1823.19 738.394   7
   3  11   3 4694.95 951.825   5
   3  11   3 4295.79 1054.57   7
   3  11   4 2999.95 765.620   5
   3  11   4 2858.51 887.145   7
   3  11   5-20.3870 141.031   5
   3  11   5 54.9477 211.152   7
   3  11   6 13.7847 247.383   7
   3  11   7-43.2319 239.112   7
   3  11   8 204.735 272.726   7
   3  11   9 793.332 475.867   7
   3  11  10 231.177 282.407   7
   3  11  11 13.1738 212.552   7
   3  11  12 468.460 408.270   7
   3  11  13-0.90036 101.723   7
   3  11  14 680.645 595.618   7
   3  11  15 1138.35 717.142   7
  -3 -12  22-179.099 306.137   7
   3  12 -22-709.376 510.445   3
  -3 -12  21-157.691 284.729   7
   3  12 -21-873.945 556.910   3
  -3 -12  20 729.242 680.499   7
   3  12 -20-299.436 330.602   3
  -3 -12  19 96.8310 229.308   7
   3  12 -19 389.033 412.808   3
   3  12 -18 228.063 404.904   3
  -3 -12  18 773.899 500.569   7
   3  12 -17 407.677 437.960   3
  -3 -12  17-93.9544 218.405   7
  -3 -12  16 0.89896 239.111   7
   3  12 -16 102.356 288.373   3
   3  12 -15-129.367 463.815   3
   3  12 -14 313.358 313.776   3
   3  12 -13-262.096 265.103   3
   3  12 -12-169.509 214.046   3
   3  12 -11 2648.87 893.426   3
   3  12 -10 8351.97 1510.33   3
   3  12  -9 297.116 393.317   3
   3  12  -8 227.053 393.923   3
   3  12  -7 2228.62 742.337   3
   3  12  -6 258.861 296.699   3
   3  12  -5-315.170 368.587   3
   3  12  -4 5550.44 1228.86   3
   3  12  -3 3683.20 979.574   3
   3  12  -2 896.647 420.736   3
   3  12  -1 2046.25 771.551   3
   3  12   0 2439.18 824.920   3
   3  12   0 2100.78 670.652   5
   3  12   1 1634.88 597.580   3
   3  12   1 3485.71 871.939   5
   3  12   2 3864.97 913.659   5
   3  12   2 6315.18 1334.08   7
   3  12   3 506.727 374.101   5
   3  12   3 55.4771 127.383   7
   3  12   4-768.248 479.403   7
   3  12   4 218.842 224.667   5
   3  12   5 606.639 411.129   7
   3  12   6-655.526 458.265   7
   3  12   7 1894.66 827.723   7
   3  12   8 580.819 500.375   7
   3  12   9 227.680 287.779   7
   3  12  10-698.061 498.388   7
   3  12  11 54.7723 298.712   7
   3  12  12 242.947 318.094   7
   3  12  13-27.2850 145.690   7
   3  12  14 287.703 276.170   7
   3  13 -21 548.727 457.287   3
  -3 -13  20-1.08631 259.656   7
   3  13 -20-821.460 550.611   3
   3  13 -19-396.009 386.292   3
   3  13 -18-30.4510 284.108   3
   3  13 -17-93.9766 204.938   3
   3  13 -16 568.162 169.425   3
   3  13 -15 730.356 508.510   3
   3  13 -14-223.734 261.731   3
   3  13 -13-218.735 451.141   3
   3  13 -12 1357.94 567.235   3
   3  13 -11 494.446 414.927   3
   3  13 -10 79.4389 315.158   3
   3  13  -9 82.2505 101.350   3
   3  13  -8 503.388 265.238   3
   3  13  -7 1316.92 582.823   3
   3  13  -6 246.526 225.819   3
   3  13  -5 138.593 166.655   3
   3  13  -4 680.017 598.676   3
   3  13  -3 4926.45 1183.97   3
   3  13  -2 3584.68 988.932   3
   3  13  -1 5.91262 167.115   3
   3  13  -1 31.0419 171.593   5
   3  13   0 213.591 236.631   5
   3  13   0-46.6181 416.308   3
   3  13   1 526.443 454.159   3
   3  13   1 1234.50 518.300   5
   3  13   1 2087.81 820.752   7
   3  13   2 441.377 356.819   5
   3  13   2-109.844 257.202   7
   3  13   3 1547.24 617.835   7
   3  13   4 792.424 610.081   7
   3  13   5-82.2102 255.648   7
   3  13   6 232.108 351.549   7
   3  13   7 147.891 184.359   7
   3  13   8 141.675 143.145   7
   3  13   9-300.056 340.016   7
   3  13  10 336.352 394.044   7
   3  13  11-39.0504 170.858   7
   3  13  12 434.763 478.189   7
   3  14 -20-605.332 488.818   3
   3  14 -19-112.195 225.083   3
   3  14 -18 69.3616 190.612   3
   3  14 -17 114.305 261.590   3
   3  14 -16 183.541 277.246   3
   3  14 -15 822.382 478.366   3
   3  14 -14 1423.18 735.031   3
   3  14 -13 269.371 291.975   3
   3  14 -12 865.116 552.315   3
   3  14 -11-37.6532 277.134   3
   3  14 -10 330.402 290.532   3
   3  14  -9 642.791 520.800   3
   3  14  -8 312.988 369.775   3
   3  14  -7 223.318 300.096   3
   3  14  -6-120.052 282.321   3
   3  14  -5 1104.27 691.641   3
   3  14  -4-153.771 334.876   3
   3  14  -3 821.682 522.255   3
   3  14  -2 977.397 575.212   3
   3  14  -1 16.2588 228.815   3
   3  14  -1 471.125 341.364   5
   3  14   0 1860.39 719.973   5
   3  14   0 589.420 358.700   3
   3  14   1 1779.88 809.809   7
   3  14   1 2641.81 809.864   5
   3  14   1 1826.72 722.679   3
   3  14   2 18.3993 226.948   7
   3  14   3-353.392 452.739   7
   3  14   4-40.2077 165.002   7
   3  14   5 351.709 366.114   7
   3  14   6 350.595 377.896   7
   3  14   7 25.1662 310.134   7
   3  14   8 706.371 521.432   7
   3  14   9-574.879 487.282   7
   3  15 -18 270.775 320.372   3
   3  15 -17 232.576 666.754   3
   3  15 -16 233.793 453.275   3
   3  15 -15 1011.31 667.257   3
   3  15 -14 14.6032 131.959   3
   3  15 -13 121.200 240.781   3
   3  15 -12 183.146 359.954   3
   3  15 -11-222.410 301.873   3
   3  15 -10-89.3844 143.974   3
   3  15  -9 875.527 488.074   3
   3  15  -8 364.688 254.881   3
   3  15  -7 495.581 197.855   3
   3  15  -6 942.215 516.634   3
   3  15  -5 790.074 642.794   3
   3  15  -4 665.166 502.650   3
   3  15  -3 97.8006 331.044   3
   3  15  -2 1274.44 645.594   3
   3  15  -2 277.659 288.116   5
   3  15  -1 225.648 258.044   5
   3  15  -1-688.723 503.715   3
   3  15   0 723.471 615.838   3
   3  15   0 450.625 496.070   7
   3  15   1 165.438 119.675   7
   3  15   2 690.425 533.017   7
   3  15   3 697.490 535.262   7
   3  15   4 423.846 432.303   7
   3  15   5-0.97565 172.944   7
   3  15   6 211.840 199.135   7
   3  16 -14 1146.34 679.795   3
   3  16 -13 162.860 280.756   3
   3  16 -12 139.653 308.441   3
   3  16 -11 397.058 297.495   3
   3  16 -10 328.404 363.921   3
   3  16  -9-281.008 536.022   3
   3  16  -8-651.798 509.086   3
   3  16  -7 444.721 415.995   3
   3  16  -6-141.788 257.367   3
   3  16  -5 109.000 483.760   3
   3  16  -4-458.700 435.139   3
   3  16  -3-238.605 316.867   3
   3  16  -2-643.235 506.849   3
   3  16  -1-40.8959 335.717   3
   3  16  -1-158.215 359.926   7
   3  16   0-457.513 436.556   3
   3  16   0 345.852 381.714   7
   3  16   1 215.035 461.813   7
   3  16   2 351.147 381.637   7
   3  16   3 198.265 341.200   7
  -4  17   3 286.688 330.345   3
  -4  17   2 395.180 252.660   3
  -4  17   1 608.995 556.360   3
  -4  17   0-738.931 525.493   3
  -4  17   0-143.646 262.078   7
  -4  17  -1-25.9038 144.627   7
  -4  17  -1-344.609 366.688   3
  -4  17  -2 15.6333 133.084   3
  -4  17  -2-197.079 288.941   7
  -4  17  -3 645.949 591.146   3
  -4  17  -3 198.637 256.936   7
  -4  17  -4 1599.53 787.498   3
  -4  17  -4 1034.68 707.709   7
  -4  17  -5 414.884 481.895   3
  -4  17  -5 116.258 173.140   7
  -4  17  -6 455.551 737.446   3
  -4  17  -6 1594.06 786.830   7
  -4  17  -7 291.375 464.724   3
  -4  17  -7 993.542 619.798   7
  -4  17  -8-126.328 227.485   7
  -4  17  -9-452.209 405.429   7
  -4  16   4-62.9892 176.675   3
  -4  16   4 46.8939 130.418   7
  -4  16   3 586.453 499.285   7
  -4  16   3-356.231 355.815   3
  -4  16   2-133.374 227.484   3
  -4  16   2 227.706 307.202   7
  -4  16   1 331.578 370.953   3
  -4  16   1 64.9246 186.011   7
  -4  16   0-237.683 296.858   3
  -4  16   0 215.214 296.995   7
  -4  16  -1 269.374 488.733   3
  -4  16  -1 231.166 397.705   7
  -4  16  -2 244.595 230.422   3
  -4  16  -2-582.464 456.624   7
  -4  16  -3 184.094 151.033   3
  -4  16  -3 1006.09 614.162   7
  -4  16  -4-117.098 223.684   3
  -4  16  -4 882.017 568.535   7
  -4  16  -5 527.485 333.545   3
  -4  16  -5 286.347 395.633   7
  -4  16  -6 283.012 261.272   7
  -4  16  -6 853.370 503.088   3
  -4  16  -7 1862.92 889.601   3
  -4  16  -7 1192.29 586.281   7
  -4  16  -8 297.541 411.265   3
  -4  16  -9-513.602 447.600   3
  -4  16 -10-129.585 247.573   3
  -4  16 -11-82.2998 209.520   3
  -4  15   7-778.795 564.912   7
  -4  15   6-110.811 229.854   7
  -4  15   5 21.5109 117.824   3
  -4  15   5 499.858 293.024   7
  -4  15   4 0.76421 499.933   3
  -4  15   4 333.063 357.739   7
  -4  15   3 340.797 312.578   3
  -4  15   3 735.670 525.010   7
  -4  15   2 203.912 157.784   7
  -4  15   2-264.003 295.449   3
  -4  15   1-224.022 274.740   3
  -4  15   1 1211.09 681.703   7
  -4  15   0 110.700 430.270   3
  -4  15   0-578.668 444.286   7
  -4  15  -1 555.250 340.185   3
  -4  15  -1 146.696 237.509   7
  -4  15  -2 375.512 357.912   7
  -4  15  -2 218.440 351.192   3
  -4  15  -3 761.650 503.606   3
  -4  15  -3 64.0140 210.354   7
  -4  15  -4-157.255 189.513   3
  -4  15  -4 112.962 280.460   7
  -4  15  -5 226.041 525.025   3
  -4  15  -5 655.196 468.259   7
  -4  15  -6-482.604 388.129   7
  -4  15  -6 210.311 284.745   3
  -4  15  -7 37.7639 265.048   3
  -4  15  -8 10.0550 360.823   3
  -4  15  -9-24.8663 342.339   3
  -4  15 -10 1952.18 834.929   3
  -4  15 -11 322.737 532.273   3
  -4  15 -12 424.809 632.745   3
  -4  15 -13-618.231 493.496   3
  -4  14   9 103.073 227.125   7
  -4  14   8-263.491 330.850   7
  -4  14   7-495.527 435.478   7
  -4  14   6 523.938 368.979   3
  -4  14   6 53.1837 370.959   7
  -4  14   5-673.975 490.520   7
  -4  14   5 179.588 234.183   3
  -4  14   4 133.803 191.573   3
  -4  14   4-1096.86 606.941   7
  -4  14   3 352.535 378.648   3
  -4  14   3 432.763 483.866   7
  -4  14   2-46.0860 168.553   3
  -4  14   2-151.719 149.775   7
  -4  14   1 258.726 242.325   3
  -4  14   1 64.9526 158.408   7
  -4  14   0 2519.49 843.720   3
  -4  14   0 2273.79 816.914   7
  -4  14  -1 1022.78 532.364   3
  -4  14  -1 144.994 203.831   7
  -4  14  -2 305.036 432.663   3
  -4  14  -2-171.894 353.652   7
  -4  14  -3 669.361 424.786   3
  -4  14  -3 108.884 240.035   7
  -4  14  -4 2419.20 865.120   3
  -4  14  -4 3231.61 959.799   7
  -4  14  -5 2103.67 728.674   3
  -4  14  -5 3571.86 1011.58   7
  -4  14  -6 507.653 410.463   3
  -4  14  -7 72.5417 253.317   3
  -4  14  -8 34.7755 142.558   3
  -4  14  -9 186.876 282.369   3
  -4  14 -10 187.807 403.865   3
  -4  14 -11-268.010 374.474   3
  -4  14 -12-564.704 453.373   3
  -4  14 -13 358.108 314.336   3
  -4  14 -14 409.852 553.411   3
  -4  14 -15 371.344 424.328   3
  -4  13  11-472.929 446.669   7
  -4  13  10 1057.78 668.952   7
  -4  13   9 761.886 682.202   7
  -4  13   8 402.458 380.560   7
  -4  13   7-524.486 431.935   7
  -4  13   7-158.229 211.826   3
  -4  13   6-27.2014 107.357   3
  -4  13   6 1065.95 583.915   7
  -4  13   5-214.377 244.978   3
  -4  13   5-155.044 266.944   7
  -4  13   4 665.997 470.141   7
  -4  13   4 366.783 295.575   3
  -4  13   3 1874.92 668.747   3
  -4  13   3 880.997 502.435   7
  -4  13   2-180.549 374.307   3
  -4  13   2-615.362 363.428   7
  -4  13   2 621.965 379.679   1
  -4  13   1-23.3955 100.691   3
  -4  13   1-278.162 102.172   7
  -4  13   1 128.063 243.427   1
  -4  13   0 523.676 376.842   1
  -4  13   0 620.724 424.959   7
  -4  13   0 527.482 330.865   3
  -4  13  -1 1089.27 529.114   3
  -4  13  -1 1236.66 579.505   7
  -4  13  -2 4446.07 1062.87   7
  -4  13  -2 4116.70 1042.68   3
  -4  13  -3-217.058 254.355   3
  -4  13  -3 282.707 272.093   7
  -4  13  -4 1527.01 721.949   3
  -4  13  -4 449.714 414.800   7
  -4  13  -5 565.467 463.423   7
  -4  13  -5 582.594 379.884   3
  -4  13  -6-143.708 339.742   3
  -4  13  -7-283.678 423.659   3
  -4  13  -8-27.6510 400.625   3
  -4  13  -9 309.517 111.841   3
  -4  13 -10 107.669 307.175   3
  -4  13 -11 318.955 326.174   3
  -4  13 -12 776.613 453.958   3
  -4  13 -13 1005.34 601.871   3
  -4  13 -14 35.5563 250.214   3
  -4  13 -15-25.4025 304.615   3
  -4  13 -16-323.729 359.195   3
  -4  13 -17 585.313 513.572   3
  -4  12  13 722.869 610.287   7
  -4  12  12 211.965 165.571   7
  -4  12  11-199.519 286.042   7
  -4  12  10 503.559 408.088   7
  -4  12   9 747.929 560.170   7
  -4  12   8 312.372 398.978   7
  -4  12   7 957.043 466.965   3
  -4  12   7 361.386 340.121   7
  -4  12   6 859.092 445.883   3
  -4  12   6 515.225 405.696   7
  -4  12   5 320.891 262.563   3
  -4  12   5-1106.16 567.759   7
  -4  12   4 39.7044 277.948   7
  -4  12   4 442.148 329.370   3
  -4  12   4 57.6870 74.6492   1
  -4  12   3 110.938 136.944   3
  -4  12   3-376.763 262.246   1
  -4  12   3 129.660 264.535   7
  -4  12   2 447.572 261.639   1
  -4  12   2 126.813 110.322   3
  -4  12   2 269.758 320.614   7
  -4  12   1 235.353 302.096   7
  -4  12   1 359.174 283.490   3
  -4  12   1 72.0420 104.486   1
  -4  12   0 2352.83 653.835   1
  -4  12   0 2215.35 740.762   3
  -4  12   0 3525.72 916.391   7
  -4  12  -1 2814.05 733.710   1
  -4  12  -1 2734.16 798.310   3
  -4  12  -1 3159.75 902.335   7
  -4  12  -2 304.307 403.328   3
  -4  12  -2 140.796 248.294   7
  -4  12  -3-198.587 229.923   7
  -4  12  -3 51.5095 155.913   3
  -4  12  -4 270.172 305.880   3
  -4  12  -4 539.690 375.761   7
  -4  12  -5 618.751 385.238   3
  -4  12  -6 788.517 511.412   3
  -4  12  -7-76.6890 159.468   3
  -4  12  -8 1181.44 578.399   3
  -4  12  -9 1751.98 717.806   3
  -4  12 -10 2507.56 853.922   3
  -4  12 -11 400.872 266.188   3
  -4  12 -12 290.211 256.761   3
  -4  12 -13-71.3011 283.860   3
  -4  12 -14-242.512 520.780   3
  -4  12 -15 65.2113 196.037   3
  -4  12 -16-196.385 163.459   3
  -4  12 -17 435.779 506.287   3
  -4  12 -18 311.244 471.494   3
  -4  11  15 191.201 304.041   7
  -4  11  14 24.2816 144.344   7
  -4  11  13 0.96041 298.537   7
  -4  11  12-232.982 310.802   7
  -4  11  11 112.072 313.679   7
  -4  11  10 543.473 528.127   7
  -4  11   9 1453.52 701.959   7
  -4  11   8 581.359 456.737   7
  -4  11   7-134.597 180.445   3
  -4  11   7 172.838 200.065   1
  -4  11   7 59.1984 259.178   7
  -4  11   6 324.404 233.443   1
  -4  11   6 5.54108 164.233   3
  -4  11   6 178.795 291.465   7
  -4  11   5 7366.76 1209.68   3
  -4  11   5 5674.21 993.321   1
  -4  11   5 7265.36 1361.29   7
  -4  11   4 329.502 234.376   3
  -4  11   4 60.8893 179.294   7
  -4  11   4 563.988 317.558   1
  -4  11   3 331.998 261.035   1
  -4  11   3 151.481 177.928   3
  -4  11   3 56.5567 131.829   7
  -4  11   2-144.416 110.429   3
  -4  11   2-448.877 477.039   7
  -4  11   2 215.266 78.9840   1
  -4  11   1 430.723 171.039   3
  -4  11   1 81.2913 218.537   7
  -4  11   1-93.3266 163.252   1
  -4  11   0-64.4152 177.274   1
  -4  11   0 329.633 234.632   7
  -4  11   0-255.735 263.367   3
  -4  11  -1 3201.52 722.894   1
  -4  11  -1 2370.14 686.482   7
  -4  11  -1 2408.11 741.563   3
  -4  11  -2-288.413 210.871   3
  -4  11  -2 84.8049 255.295   1
  -4  11  -2-110.739 136.647   7
  -4  11  -3-179.477 374.176   3
  -4  11  -3 230.747 245.748   7
  -4  11  -4 1288.87 564.968   3
  -4  11  -5 429.014 408.000   3
  -4  11  -6 11.2445 133.203   3
  -4  11  -7 1749.97 646.054   3
  -4  11  -8 6033.61 1273.85   3
  -4  11  -9 481.435 318.839   3
  -4  11 -10-863.632 480.235   3
  -4  11 -11 1365.86 637.823   3
  -4  11 -12 53.2503 136.999   3
  -4  11 -13-130.212 152.428   3
  -4  11 -14 35.9508 264.969   3
  -4  11 -15-477.858 401.205   3
  -4  11 -16-296.895 328.491   3
  -4  11 -17-402.017 382.671   3
  -4  11 -18-112.246 397.458   3
  -4  11 -19 311.295 143.587   3
  -4  10  16 890.119 717.020   7
  -4  10  15-132.429 254.556   7
  -4  10  14 245.704 205.029   7
  -4  10  13 243.928 339.550   7
  -4  10  12 418.935 423.046   7
  -4  10  11 1687.88 748.246   7
  -4  10  10 198.666 399.557   7
  -4  10   9 441.618 416.247   7
  -4  10   8 418.131 133.108   7
  -4  10   7 4377.39 879.499   3
  -4  10   7 4043.01 1046.26   7
  -4  10   6 1182.33 416.257   3
  -4  10   6 824.640 448.409   7
  -4  10   5 902.393 463.010   7
  -4  10   5 1553.20 488.069   3
  -4  10   4 6146.90 1038.89   3
  -4  10   4 4466.00 883.156   1
  -4  10   4 4769.58 1056.28   7
  -4  10   3 5243.68 934.684   1
  -4  10   3 4641.82 899.729   3
  -4  10   3 4786.53 1019.59   7
  -4  10   2 18141.0 1737.54   1
  -4  10   2 17130.2 1927.81   7
   4 -10  -2 17937.0 1486.11   2
  -4  10   2 18138.2 1807.45   3
  -4  10   1-203.942 189.842   7
  -4  10   1 18.7828 168.988   3
  -4  10   1 246.502 216.642   1
   4 -10  -1 95.9559 125.475   2
  -4  10   0 7001.76 1080.08   1
  -4  10   0 7891.66 1195.47   3
  -4  10   0 6476.32 1138.02   7
   4 -10   0 7246.69 894.053   2
  -4  10  -1 3064.47 702.229   1
  -4  10  -1 2077.75 630.886   3
  -4  10  -1 1878.94 594.614   7
  -4  10  -2 2960.36 703.972   1
  -4  10  -2 2713.86 663.308   3
  -4  10  -2 3120.15 748.142   7
  -4  10  -3 5640.07 986.705   1
  -4  10  -3 5848.85 1074.14   3
  -4  10  -3 4315.76 890.792   7
  -4  10  -4 620.105 341.768   3
  -4  10  -5 2513.78 728.628   3
  -4  10  -6 3146.04 838.170   3
  -4  10  -7 3167.80 830.310   3
  -4  10  -8 1313.81 601.138   3
  -4  10  -9 2269.43 750.359   3
  -4  10 -10 1614.79 598.972   3
  -4  10 -11-110.230 253.769   3
  -4  10 -12 386.161 282.383   3
  -4  10 -13 3603.10 1055.84   3
  -4  10 -14 113.991 145.941   3
  -4  10 -15 36.2195 150.228   3
  -4  10 -16 406.179 469.118   3
  -4  10 -17-226.705 366.328   3
  -4  10 -18 891.453 585.007   3
  -4  10 -19 460.756 418.108   3
  -4  10 -20-362.482 380.663   3
  -4   9  17-559.237 498.316   7
  -4   9  16 1600.12 852.999   7
  -4   9  15-33.6732 158.197   7
  -4   9  14 998.065 467.096   7
  -4   9  13-350.574 357.959   7
  -4   9  12 1299.36 629.972   7
  -4   9  11-44.0859 282.032   7
  -4   9  10 593.803 422.167   7
  -4   9   9-299.762 249.585   7
  -4   9   8 445.710 272.873   7
  -4   9   7 272.095 230.727   3
  -4   9   7 433.490 438.640   7
  -4   9   6 7782.62 1351.66   7
  -4   9   6 6862.99 1034.16   3
  -4   9   5 4172.16 812.271   3
  -4   9   5 3672.67 908.751   7
  -4   9   4 2174.53 582.379   3
  -4   9   4 2180.04 656.381   7
  -4   9   3 61.5657 112.524   7
  -4   9   3 88.3610 203.818   3
  -4   9   3 196.516 207.366   1
  -4   9   2 6547.27 1021.38   1
   4  -9  -2 6652.05 904.813   2
  -4   9   2 5416.21 1051.26   7
  -4   9   2 6984.24 1055.89   3
  -4   9   1 11008.5 1438.53   7
   4  -9  -1 9528.40 1060.03   2
  -4   9   1 11263.8 1359.26   1
  -4   9   1 12613.1 1416.15   3
  -4   9   0 1382.57 486.739   1
  -4   9   0 1482.23 494.946   3
  -4   9   0 1054.68 434.107   7
   4  -9   0 1165.86 368.043   2
  -4   9  -1 2257.42 596.405   3
  -4   9  -1 2007.55 572.147   1
  -4   9  -1 1704.74 510.890   7
  -4   9  -2 4927.63 888.312   1
  -4   9  -2 4399.04 853.232   3
  -4   9  -2 4679.86 874.195   7
  -4   9  -3 73.0722 202.739   3
  -4   9  -3-114.100 284.611   1
  -4   9  -3-236.851 288.137   7
  -4   9  -4 1347.80 509.799   3
  -4   9  -4 1302.82 484.963   1
  -4   9  -5 12427.3 1529.84   3
  -4   9  -6 3359.46 829.639   3
  -4   9  -7 1237.66 517.738   3
  -4   9  -8 4349.40 986.099   3
  -4   9  -9 5543.74 1118.24   3
  -4   9 -10 2677.84 783.938   3
  -4   9 -11 7254.24 1320.42   3
  -4   9 -12 408.330 344.487   3
  -4   9 -13 1267.04 555.583   3
  -4   9 -14 329.502 382.834   3
  -4   9 -15 163.078 189.944   3
  -4   9 -16 763.352 567.625   3
  -4   9 -17 11.5229 160.182   3
  -4   9 -18-61.1507 421.704   3
  -4   9 -19-667.272 486.634   3
  -4   9 -20 397.709 389.317   3
  -4   9 -21-39.6669 223.678   3
  -4   8  18-94.1670 225.763   7
  -4   8  17 1018.13 634.579   7
  -4   8  16 297.995 230.741   7
  -4   8  15 142.160 205.287   7
  -4   8  14 96.2806 227.512   7
  -4   8  13 324.241 436.029   7
  -4   8  12 1973.45 755.623   7
  -4   8  11 694.051 465.761   7
  -4   8  10 8840.32 1568.71   7
  -4   8   9-99.6774 117.990   7
  -4   8   8 4403.25 1035.06   7
  -4   8   7 1163.33 398.978   3
   4  -8  -7 865.322 222.398   6
  -4   8   7 595.489 372.801   7
  -4   8   6 1725.39 479.917   3
  -4   8   6 2848.39 771.519   7
  -4   8   5 210.956 208.280   3
  -4   8   5 197.309 281.274   7
  -4   8   4 1436.20 256.903   5
  -4   8   4 2082.30 513.600   3
  -4   8   4 2984.62 771.438   7
  -4   8   3 2295.72 533.595   3
  -4   8   3 2911.47 730.472   7
  -4   8   2 654.514 247.024   3
  -4   8   2 1006.63 463.465   7
  -4   8   1 1458.44 518.788   7
  -4   8   1 1869.39 501.401   3
   4  -8  -1 967.870 329.493   2
  -4   8   0 1425.15 447.145   3
  -4   8   0 1044.93 411.935   7
   4  -8   0 606.177 176.195   6
   4  -8   0 1324.41 391.738   2
   4  -8   1 2635.35 539.146   2
  -4   8  -1 2378.74 593.810   7
  -4   8  -1 3112.98 659.635   3
  -4   8  -1 1431.28 456.650   1
  -4   8  -2 8227.97 1115.59   3
  -4   8  -2 8105.88 1074.71   7
  -4   8  -2 9209.03 1175.43   1
  -4   8  -3 999.483 378.261   1
  -4   8  -3 937.536 380.734   3
  -4   8  -4 1716.09 587.360   1
  -4   8  -4 2805.98 716.564   3
  -4   8  -5 520.007 341.770   1
  -4   8  -5 511.133 316.857   3
  -4   8  -6-321.196 247.868   3
  -4   8  -7 950.569 451.538   3
  -4   8  -8 484.272 290.440   3
  -4   8  -9 0.99233 124.444   3
  -4   8 -10 219.505 265.575   3
  -4   8 -11 1222.86 565.012   3
  -4   8 -12 1834.81 638.302   3
  -4   8 -13 374.501 495.339   3
  -4   8 -14 1515.63 626.307   3
  -4   8 -15 1194.60 669.518   3
  -4   8 -16 760.959 535.689   3
  -4   8 -17 1622.92 700.332   3
  -4   8 -18 122.770 428.575   3
  -4   8 -19 409.254 373.171   3
  -4   8 -20 329.833 422.432   3
  -4   8 -21 212.060 370.548   3
  -4   8 -22-97.0547 217.505   3
  -4   7  20-731.480 580.399   7
  -4   7  19-864.894 613.547   7
  -4   7  18-251.188 244.246   7
  -4   7  17 579.462 441.319   7
  -4   7  16 426.634 269.075   7
  -4   7  15 471.514 440.219   7
  -4   7  14 563.293 507.480   7
  -4   7  13-310.734 324.074   7
  -4   7  12-329.297 417.848   7
  -4   7  11 2655.74 838.334   7
   4  -7 -10 13530.1 1066.33   6
  -4   7  10 13477.8 1880.87   7
   4  -7  -9 66.2477 65.3655   6
  -4   7   9 136.022 147.373   7
  -4   7   8 2788.90 804.097   7
   4  -7  -8 3401.96 460.295   6
  -4   7   7 11252.5 1526.47   7
   4  -7  -7 12176.6 788.276   6
  -4   7   7 12183.7 1192.32   3
  -4   7   6 17599.4 1869.87   7
  -4   7   6 16966.1 1403.72   3
   4  -7  -6 14721.7 788.020   6
  -4   7   5 33.5864 34.0098   5
   4  -7  -5 25.5218 18.5751   6
  -4   7   5-43.6576 122.102   3
  -4   7   5 137.591 85.6229   7
  -4   7   4 17472.0 863.528   5
  -4   7   4 19210.0 1821.16   7
  -4   7   4 20583.2 1529.05   3
  -4   7   3 9399.26 717.889   5
  -4   7   3 11510.8 1361.64   7
  -4   7   3 10832.0 1116.02   3
  -4   7   2 5040.64 861.006   7
  -4   7   2 5575.65 792.407   3
   4  -7  -1 2222.20 284.692   6
  -4   7   1 2221.51 538.529   7
   4  -7  -1 2344.91 517.632   2
  -4   7   1 1970.24 473.714   3
  -4   7   0 6213.72 922.024   7
  -4   7   0 7337.89 949.436   3
   4  -7   0 7026.64 873.087   2
   4  -7   0 6291.33 520.688   6
  -4   7  -1 8729.03 1044.81   3
   4  -7   1 8171.70 947.591   2
   4  -7   1 8123.33 651.347   6
  -4   7  -1 9000.57 1089.83   7
  -4   7  -2 8298.15 1034.23   3
  -4   7  -2 8666.64 1026.65   7
  -4   7  -3 7087.34 1014.24   3
  -4   7  -4 628.796 307.841   1
  -4   7  -4 337.397 158.378   3
  -4   7  -5 1782.93 513.219   3
  -4   7  -6 1458.35 512.862   3
  -4   7  -7 1532.69 509.598   3
  -4   7  -8 864.459 354.219   3
  -4   7  -9 2477.87 665.351   3
  -4   7 -10 704.891 422.177   3
  -4   7 -11 3386.36 841.166   3
  -4   7 -12-92.9752 251.721   3
  -4   7 -13 352.881 389.666   3
   4  -7  14 2362.88 618.635   7
  -4   7 -14 2151.38 741.578   3
  -4   7 -15 233.501 232.877   3
  -4   7 -16 482.671 327.138   3
  -4   7 -17-213.809 299.941   3
  -4   7 -18 760.084 483.003   3
  -4   7 -19-395.054 327.092   3
  -4   7 -20 43.6594 262.708   3
  -4   7 -21 154.862 253.862   3
  -4   7 -22 335.013 510.112   3
  -4   6  20 732.241 670.127   7
  -4   6  19 173.878 406.842   7
  -4   6  18-79.2175 198.230   7
  -4   6  17 268.203 392.190   7
  -4   6  16-141.883 216.127   7
  -4   6  15 1510.78 673.151   7
  -4   6  14 412.272 357.322   7
   4  -6 -13 250.567 210.016   6
  -4   6  13-66.9253 348.951   7
   4  -6 -12 367.651 185.711   6
  -4   6  12 112.633 306.951   7
   4  -6 -11 65.0752 86.0867   6
  -4   6  11-99.7484 176.029   7
  -4   6  10 14660.9 1850.96   7
   4  -6 -10 11342.3 973.498   6
  -4   6   9 20415.7 2135.09   7
   4  -6  -9 22171.7 1247.91   6
  -4   6   8 4490.77 977.419   7
   4  -6  -8 2868.09 405.552   6
   4  -6  -7 461.613 150.877   6
  -4   6   7 523.687 404.013   7
  -4   6   6 35069.4 2490.47   7
   4  -6  -6 30512.8 1055.30   6
  -4   6   6 32389.3 1737.34   3
  -4   6   5 1871.09 538.293   7
  -4   6   5 1837.97 428.429   3
   4  -6  -5 1928.53 226.651   6
  -4   6   4 9295.70 608.966   5
  -4   6   4 9685.66 1225.06   7
   4  -6  -4 8601.16 387.675   6
  -4   6   4 8839.02 907.857   3
  -4   6   3 1067.30 236.892   5
  -4   6   3 1015.55 315.783   3
  -4   6   3 1289.23 413.921   7
  -4   6   2 6171.81 610.907   5
  -4   6   2 5659.45 848.576   7
  -4   6   2 6376.45 792.004   3
  -4   6   1 4586.18 684.998   3
   4  -6  -1 4653.34 733.692   2
  -4   6   1 4284.49 728.043   7
   4  -6  -1 4014.72 317.080   6
  -4   6   0 3467.50 603.206   3
   4  -6   0 3636.11 632.490   2
  -4   6   0 3002.34 567.105   7
   4  -6   0 3260.59 333.820   6
  -4   6  -1 8141.17 937.279   3
  -4   6  -1 5989.20 789.057   7
   4  -6   1 7170.68 887.198   2
   4  -6   1 6806.20 544.223   6
   4  -6   2 1404.70 278.693   6
  -4   6  -2 1493.41 417.684   3
  -4   6  -2 1413.07 400.961   7
  -4   6  -3 25278.7 1775.52   3
  -4   6  -4 10480.5 1195.67   3
  -4   6  -5 11081.2 1258.65   3
  -4   6  -6 7334.25 1079.72   3
  -4   6  -7 5206.46 932.024   3
  -4   6  -7 6796.06 875.767   6
  -4   6  -8 1881.97 591.120   3
  -4   6  -8 1245.07 380.505   6
  -4   6  -9 1217.11 428.237   3
  -4   6  -9 891.372 327.225   6
  -4   6 -10 1390.23 487.260   3
  -4   6 -10 1013.78 358.651   6
  -4   6 -11 1319.21 492.045   3
  -4   6 -11 1191.18 432.167   6
  -4   6 -12 69.1558 99.8603   3
   4  -6  12 210.700 195.272   7
  -4   6 -12-141.264 342.393   6
  -4   6 -13 3060.52 827.254   3
   4  -6  13 4257.18 765.080   7
  -4   6 -13 3384.30 802.890   6
   4  -6  14 289.506 225.087   7
  -4   6 -14 129.591 308.711   3
  -4   6 -14 22.9192 197.398   6
  -4   6 -15 1507.87 621.961   3
  -4   6 -15 650.255 376.912   6
  -4   6 -16 102.705 203.079   6
  -4   6 -16 242.146 251.497   3
  -4   6 -17 2680.77 906.549   3
  -4   6 -17 2305.96 750.815   6
  -4   6 -18-50.9630 148.796   6
  -4   6 -18 290.692 175.329   3
  -4   6 -19-255.273 282.311   6
  -4   6 -19-273.258 361.952   3
  -4   6 -20-487.904 409.632   3
  -4   6 -20 302.128 268.851   6
  -4   6 -21 640.067 466.512   3
  -4   6 -22 509.134 480.500   3
  -4   6 -23-487.457 436.009   3
  -4   5  21 1066.75 716.797   7
  -4   5  20 834.421 579.642   7
  -4   5  19 848.373 576.375   7
  -4   5  18 299.714 372.514   7
  -4   5  17 783.322 385.002   7
  -4   5  16 2476.07 946.500   7
   4  -5 -16 1461.98 486.764   6
  -4   5  15-248.213 285.299   7
   4  -5 -15 220.675 189.638   6
  -4   5  14 1798.49 707.268   7
   4  -5 -14 1895.26 511.556   6
  -4   5  13 823.771 414.390   7
   4  -5 -13 659.167 277.000   6
   4  -5 -12 374.222 191.738   6
  -4   5  12 166.732 285.567   7
  -4   5  11-5.64221 148.903   7
   4  -5 -11 107.986 106.449   6
   4  -5 -10 375.336 181.777   6
  -4   5  10 460.008 310.320   7
   4  -5  -9 148.930 114.647   6
  -4   5   9 334.088 314.833   7
   4  -5  -8 303.360 150.382   6
  -4   5   8 304.097 195.525   7
   4  -5  -7 2910.09 366.206   6
  -4   5   7 2168.74 589.558   7
  -4   5   6 2617.39 440.220   3
  -4   5   6 2083.16 600.619   7
   4  -5  -6 2151.16 270.850   6
  -4   5   5 3132.23 277.335   5
  -4   5   5 5633.84 912.602   7
   4  -5  -5 3977.79 294.671   6
  -4   5   5 4362.90 561.394   3
  -4   5   4 6595.85 691.326   3
  -4   5   4 7854.36 1035.32   7
  -4   5   4 6059.34 490.689   5
  -4   5   3 44717.6 1842.25   3
  -4   5   3 45276.2 2366.36   7
  -4   5   3 43144.6 1464.85   5
  -4   5   2 6990.67 748.168   3
  -4   5   2 6172.73 599.708   5
  -4   5   2 6827.45 868.883   7
  -4   5   1 2001.88 413.611   3
  -4   5   1 2345.94 487.645   7
  -4   5   0 5095.62 669.449   3
  -4   5   0 5954.38 750.368   7
   4  -5   0 5677.87 779.680   2
   4  -5   0 5723.88 400.928   6
  -4   5  -1 26918.3 1601.64   3
   4  -5   1 25851.9 1674.88   2
  -4   5  -1 27582.0 1558.10   7
   4  -5   1 26127.7 1006.85   6
  -4   5  -2 4462.34 690.236   3
  -4   5  -2 4831.80 624.419   7
   4  -5   2 4746.19 495.194   6
  -4   5  -3 14398.6 1276.43   3
  -4   5  -4 21018.1 1264.84   6
  -4   5  -4 21838.6 1626.87   3
  -4   5  -5 15671.6 1422.04   3
  -4   5  -5 16916.7 1214.01   6
  -4   5  -6 24956.0 1879.57   3
  -4   5  -6 22334.4 1478.93   6
  -4   5  -7 255.678 211.259   3
  -4   5  -7 12.8954 118.201   6
  -4   5  -8-31.6385 237.630   3
  -4   5  -8-110.792 229.192   6
  -4   5  -9 2181.74 596.795   3
  -4   5  -9 2349.78 549.720   6
  -4   5 -10 247.229 124.511   3
   4  -5  10 165.763 152.093   7
  -4   5 -10 247.385 144.273   6
   4  -5  11 65.7599 57.6047   7
  -4   5 -11 213.580 245.222   3
  -4   5 -11-74.7561 107.175   6
   4  -5  12 231.714 204.206   7
  -4   5 -12 151.500 144.351   3
  -4   5 -12-85.4770 185.395   6
   4  -5  13 2508.76 578.580   7
  -4   5 -13 1739.25 600.540   3
  -4   5 -13 1955.41 589.825   6
   4  -5  14 239.967 154.131   7
  -4   5 -14 100.247 154.120   3
  -4   5 -15 4823.80 1143.29   3
  -4   5 -15 5028.18 1056.53   6
  -4   5 -16 33.6233 248.391   6
  -4   5 -16 81.2251 123.179   3
  -4   5 -17 3869.61 1034.09   3
  -4   5 -17 3105.46 847.096   6
  -4   5 -18 65.2131 401.541   6
  -4   5 -18 87.3252 210.838   3
  -4   5 -19-141.969 466.903   3
  -4   5 -19-302.023 360.605   6
  -4   5 -20 384.540 401.310   3
  -4   5 -20-361.138 346.597   6
  -4   5 -21 177.923 274.621   3
  -4   5 -21-1160.89 617.641   6
  -4   5 -22 0.87509 253.327   3
  -4   5 -22 1255.93 692.606   6
  -4   5 -23 249.657 218.103   3
  -4   4  22-187.615 309.612   7
  -4   4  21-361.554 396.111   7
  -4   4  20 1142.68 686.339   7
  -4   4  19 437.373 400.591   7
  -4   4  18 900.677 558.334   7
   4  -4 -18 1782.91 617.029   6
  -4   4  17 591.028 613.143   7
   4  -4 -17 732.220 376.571   6
  -4   4  16 114.760 186.720   7
   4  -4 -16 214.590 118.174   6
  -4   4  15 875.798 520.661   7
   4  -4 -15 665.649 287.611   6
  -4   4  14 5232.45 1235.82   7
   4  -4 -14 4478.10 780.513   6
  -4   4  13-207.864 109.353   7
   4  -4 -13 157.647 144.092   6
  -4   4  12 1767.67 642.770   7
   4  -4 -12 1042.57 345.265   6
  -4   4  11 24041.9 2299.27   7
   4  -4 -11 21624.7 1450.47   6
  -4   4  10 8930.47 1366.33   7
   4  -4 -10 9541.18 895.370   6
   4  -4  -9 403.150 150.884   3
  -4   4   9 89.9087 219.950   7
   4  -4  -9 431.644 161.053   6
   4  -4  -8-32.8971 42.9327   3
   4  -4  -8 25.3969 54.7179   6
  -4   4   8 79.6840 157.635   7
   4  -4  -7 49.6197 42.9408   3
   4  -4  -7-21.6950 38.9009   6
   4  -4  -6 22447.5 1044.09   3
  -4   4   6 21577.4 1774.82   7
  -4   4   6 22640.1 1094.58   3
  -4   4   5 68718.8 3037.96   7
   4  -4  -5 68786.6 1840.60   3
  -4   4   5 70972.1 1942.09   3
   4  -4  -4 1689.19 297.084   3
  -4   4   4 1898.05 280.834   5
  -4   4   4 1585.59 292.767   3
  -4   4   4 1949.59 506.352   7
  -4   4   3 2636.93 363.494   5
   4  -4  -3 3256.62 426.901   3
  -4   4   3 2763.69 546.040   7
  -4   4   3 2992.91 421.603   3
  -4   4   2 76128.9 2181.05   3
   4  -4  -2 73497.7 2133.39   3
  -4   4   2 72726.8 2091.32   5
  -4   4   2 72904.1 2652.28   7
  -4   4   1 9117.57 779.843   5
  -4   4   1 10521.9 946.160   7
  -4   4   1 10296.1 845.830   3
  -4   4   0 732.904 244.190   3
   4  -4   0 784.282 308.243   2
  -4   4   0 832.549 243.047   7
  -4   4  -1 6643.24 748.828   3
   4  -4   1 6085.28 828.999   2
  -4   4  -1 6488.61 660.291   7
  -4   4  -1 5703.30 461.355   6
  -4   4  -2 502.756 196.019   7
  -4   4  -2 202.526 179.349   3
   4  -4   2 465.690 256.094   2
  -4   4  -2 325.264 131.064   6
  -4   4  -3 10730.3 1052.61   3
  -4   4  -3 9757.60 746.756   7
  -4   4  -3 9630.92 767.481   6
  -4   4  -4 824.856 338.661   3
  -4   4  -4 743.426 275.109   6
  -4   4  -4 348.054 158.365   7
  -4   4  -5 62967.6 1897.94   7
  -4   4  -5 62444.5 2282.27   6
  -4   4  -6 247.646 161.267   6
  -4   4  -6 25.6296 38.3834   7
  -4   4  -7 70837.0 2791.03   6
  -4   4  -7 66925.6 2050.38   7
   4  -4   8 22420.0 1261.69   7
  -4   4  -8 19445.8 1160.42   7
  -4   4  -8 21839.9 1638.07   6
  -4   4  -9 604.169 293.968   6
   4  -4   9 692.613 236.263   7
  -4   4 -10 2581.55 644.920   6
   4  -4  10 2966.04 519.454   7
  -4   4 -11 3465.05 753.763   6
   4  -4  11 3285.13 571.258   7
  -4   4 -12 136.365 142.715   6
   4  -4  12 227.764 182.475   7
  -4   4 -13 2120.05 653.459   6
   4  -4  13 2053.43 506.435   7
   4  -4  14 8913.69 1113.56   7
  -4   4 -14 9470.31 1397.44   6
   4  -4  15 1139.84 445.852   7
  -4   4 -15 1148.14 493.605   6
  -4   4 -16 1215.70 545.193   6
  -4   4 -17 929.630 508.251   6
  -4   4 -18 1940.49 764.493   6
  -4   4 -19-343.317 326.114   6
  -4   4 -20 582.500 521.504   6
  -4   4 -21-544.363 436.735   3
  -4   4 -21 244.196 283.720   6
  -4   4 -22 449.125 407.433   3
  -4   4 -22-52.0970 163.165   6
  -4   4 -23-21.9945 141.476   3
  -4   3  23-834.427 614.485   7
  -4   3  22 700.882 624.920   7
  -4   3  21 761.473 568.483   7
  -4   3  20 623.911 487.260   7
  -4   3  19-803.641 541.955   7
  -4   3  18 411.758 348.374   7
  -4   3  17-296.682 325.301   7
  -4   3  16 356.715 237.772   7
   4  -3 -16 285.061 257.871   6
  -4   3  15 333.532 345.355   7
   4  -3 -15 183.685 222.348   6
  -4   3  14 86.9605 199.840   7
   4  -3 -14 147.683 190.187   6
  -4   3  13 4621.78 1044.13   7
   4  -3 -13 4609.14 766.963   6
  -4   3  12 12692.9 1703.01   7
   4  -3 -12 12867.5 1205.92   6
  -4   3  11-165.512 289.194   7
   4  -3 -11 76.9351 104.540   6
   4  -3 -10 4188.22 596.439   6
   4  -3 -10 3175.12 365.096   5
  -4   3  10 3317.85 793.665   7
   4  -3 -10 3309.14 399.404   3
   4  -3  -9 1842.36 264.437   5
  -4   3   9 2054.42 611.536   7
   4  -3  -9 2111.88 296.851   3
   4  -3  -8 9977.01 586.386   5
  -4   3   8 9880.45 1269.47   7
   4  -3  -8 10274.9 605.187   3
   4  -3  -7 4580.39 387.369   3
   4  -3  -7 4187.45 373.553   5
  -4   3   7 5004.62 868.419   7
   4  -3  -6 59285.2 1419.43   5
  -4   3   6 65988.4 2979.70   7
   4  -3  -6 58475.2 1341.63   3
   4  -3  -5 1566.46 220.491   3
   4  -3  -5 1807.36 266.856   5
  -4   3   5 2156.26 273.375   3
  -4   3   5 1856.22 492.338   7
   4  -3  -4 85495.2 1871.78   5
   4  -3  -4 87209.6 1743.26   3
  -4   3   4 80911.8 1958.49   5
  -4   3   4 82595.8 3001.16   7
  -4   3   4 84509.6 1767.17   3
  -4   3   3 18122.6 874.051   3
   4  -3  -3 18358.0 951.653   5
  -4   3   3 18673.4 1010.20   5
  -4   3   3 19829.7 1354.28   7
  -4   3   2 18714.7 966.622   3
   4  -3  -2 18688.0 1011.26   5
  -4   3   2 18171.7 1051.57   5
  -4   3   2 19612.0 1256.50   7
   4  -3  -1 2356.48 372.924   5
   4  -3  -1 3107.51 457.766   7
  -4   3   1 2461.95 375.113   3
  -4   3   1 2095.13 376.410   5
  -4   3   1 2444.59 407.875   7
  -4   3   1 2283.34 193.975   6
  -4   3   0 9758.06 800.821   3
   4  -3   0 9717.39 815.442   5
  -4   3   0 8759.67 724.832   7
   4  -3   0 9073.52 729.783   7
  -4   3   0 9448.47 502.003   6
   4  -3   1 5724.07 656.258   5
  -4   3  -1 5052.78 599.622   3
  -4   3  -1 5263.26 512.876   7
  -4   3  -1 5739.49 469.803   6
   4  -3   2 2025.96 407.663   5
  -4   3  -2 1886.16 280.689   7
  -4   3  -2 2146.59 326.052   6
  -4   3  -3-30.2923 63.9299   6
  -4   3  -3-19.4360 36.6216   7
  -4   3  -4 20540.9 860.774   7
  -4   3  -4 20680.1 1225.87   6
  -4   3  -5 11878.6 657.695   7
  -4   3  -5 12117.6 1009.23   6
  -4   3  -6 534.395 231.188   6
  -4   3  -6 314.685 109.746   7
  -4   3  -7 1692.70 442.442   6
   4  -3   7 1827.14 303.015   7
  -4   3  -7 1453.78 265.475   7
  -4   3  -8 3148.23 605.004   6
  -4   3  -8 3060.56 417.328   7
   4  -3   8 4202.78 500.158   7
  -4   3  -9-77.5008 145.189   6
   4  -3   9 52.1207 35.3556   7
  -4   3  -9 25.4364 38.9997   7
   4  -3  10 440.067 187.595   7
  -4   3 -10 415.502 226.001   6
  -4   3 -11 2408.99 597.437   6
   4  -3  11 1810.94 408.211   7
  -4   3 -12 914.398 420.334   6
   4  -3  12 1082.09 341.845   7
  -4   3 -13 370.621 400.568   6
   4  -3  13 45.6731 92.0189   7
  -4   3 -14 154.443 203.572   6
   4  -3  14 83.7265 72.8997   7
  -4   3 -15 139.839 251.542   6
   4  -3  15 335.328 253.205   7
  -4   3 -16 175.418 133.255   6
  -4   3 -17 122.819 229.454   6
  -4   3 -18 438.674 393.138   6
  -4   3 -19-269.620 291.187   6
  -4   3 -20-263.792 295.133   6
  -4   3 -21 305.808 354.652   6
  -4   3 -22 653.181 528.958   6
  -4   2  23 37.4797 171.034   7
  -4   2  22 475.507 399.453   7
  -4   2  21-551.924 472.993   7
  -4   2  20-726.261 517.200   7
  -4   2  19 2537.84 980.674   7
  -4   2  18 2756.49 988.724   7
  -4   2  17-62.3618 202.901   7
  -4   2  16 681.752 430.183   7
  -4   2  15-533.457 384.353   7
  -4   2  14 2597.32 840.222   7
  -4   2  13 19117.6 2116.48   7
  -4   2  12 760.822 412.940   7
  -4   2  11 9518.07 1413.87   7
   4  -2 -11 6723.47 578.059   3
  -4   2  10 5025.97 977.675   7
   4  -2 -10 3662.06 382.599   3
   4  -2  -9 859.411 163.632   3
  -4   2   9 868.399 338.688   7
  -4   2   8 5492.24 927.470   7
   4  -2  -8 3295.91 267.509   3
  -4   2   7 739.234 188.561   6
   4  -2  -7 637.740 187.346   5
  -4   2   7 336.322 297.681   7
  -4   2   6 25.7940 51.8219   6
   4  -2  -6 29.4287 94.7663   5
  -4   2   6-24.8100 124.042   7
   4  -2  -5 52090.3 1650.39   5
  -4   2   5 52885.4 2419.95   7
  -4   2   5 52844.0 1283.86   6
   4  -2  -4 41.5780 76.6298   5
  -4   2   4 39.8041 34.5059   3
  -4   2   4 52.1587 51.7417   7
  -4   2   4 59.1367 32.1076   6
  -4   2   3 69088.9 1422.73   3
   4  -2  -3 68638.4 1995.07   5
  -4   2   3 65243.5 1975.38   5
  -4   2   3 69005.8 2397.04   7
   4  -2  -2 5664.94 590.109   5
  -4   2   2 4859.38 569.885   5
  -4   2   2 5547.21 466.497   3
  -4   2   2 5563.26 632.017   7
   4  -2  -2 5610.59 612.085   7
   4  -2  -1 39205.6 1609.84   5
  -4   2   1 41585.2 1725.99   5
  -4   2   1 38208.1 1503.95   7
   4  -2  -1 40610.5 1489.74   7
  -4   2   0 9800.39 678.608   7
   4  -2   0 10313.0 671.897   7
   4  -2   0 10625.8 871.878   5
   4  -2   1 36311.0 1667.57   5
  -4   2  -1 36036.1 1101.90   7
   4  -2   1 37429.8 1108.15   7
  -4   2  -2 37624.7 920.235   7
   4  -2   2 40958.9 1862.26   5
   4  -2   3 16184.7 1213.06   5
  -4   2  -3 13140.3 919.368   6
   4  -2   4 89842.9 2960.87   5
  -4   2  -4 82551.6 2501.38   6
   4  -2   5 42968.9 2150.52   5
  -4   2  -5 41738.9 2047.67   1
  -4   2  -5 37868.3 1804.83   6
  -4   2  -6 3375.95 572.935   6
  -4   2  -6 3008.53 293.823   7
   4  -2   6 2762.36 301.660   7
  -4   2  -7 26372.5 1016.02   7
   4  -2   7 26495.8 1079.07   7
  -4   2  -7 28818.6 1787.72   6
  -4   2  -8 5899.61 545.467   7
   4  -2   8 6019.31 586.458   7
  -4   2  -8 6889.63 926.314   6
   4  -2   9 10635.7 866.992   7
  -4   2  -9 10317.5 797.250   7
  -4   2  -9 11997.0 1274.71   6
   4  -2  10 9476.89 890.109   7
  -4   2 -10 9547.08 1192.49   6
   4  -2  11 7650.61 863.483   7
  -4   2 -11 8357.53 1162.75   6
  -4   2 -12-145.749 287.581   6
   4  -2  12-89.7228 145.496   7
   4  -2  13 2781.39 572.841   7
  -4   2 -13 2316.66 657.474   6
  -4   2 -14 3041.18 814.924   6
   4  -2  14 2872.61 627.520   7
  -4   2 -15 496.042 330.767   6
   4  -2  15 753.954 354.871   7
  -4   2 -16 1496.59 573.590   6
  -4   2 -17 8.50263 155.773   6
  -4   2 -18 69.0045 281.877   6
  -4   2 -19 221.341 252.775   6
  -4   2 -20 557.905 411.929   6
  -4   2 -21 12.7777 126.788   6
  -4   2 -22 109.018 210.859   6
  -4   1  24 648.257 542.799   7
  -4   1  23 467.547 471.989   7
  -4   1  22 378.670 566.770   7
  -4   1  21-346.962 376.083   7
  -4   1  20-392.584 534.091   7
  -4   1  19 5011.19 1333.26   7
  -4   1  18 2523.34 953.476   7
  -4   1  17-29.4945 134.524   7
  -4   1  16-22.8663 326.231   7
  -4   1  15 5484.59 1213.14   7
  -4   1  14 1487.25 544.818   7
  -4   1  13-177.258 362.767   7
  -4   1  12 463.881 162.014   7
   4  -1 -11 6094.85 525.058   3
  -4   1  11 6273.38 1126.74   7
   4  -1 -10 753.405 156.185   3
  -4   1  10 1112.91 432.913   7
   4  -1  -9 3115.09 273.024   3
  -4   1   9 4323.76 854.903   7
  -4   1   8 2721.89 635.234   7
  -4   1   7-79.7796 99.0903   7
   4  -1  -6 42436.8 1679.66   5
  -4   1   6 42918.4 2274.56   7
  -4   1   6 41175.8 1435.89   6
   4  -1  -5 16293.8 1038.46   5
  -4   1   5 17872.6 1366.29   7
   4  -1  -4 99.3103 45.8329   5
  -4   1   4-45.0314 63.3073   7
  -4   1   3 1654.77 332.561   5
  -4   1   3 1923.50 391.854   7
   4  -1  -3 1684.90 339.919   5
   4  -1  -2 29488.4 1449.48   5
  -4   1   2 30113.0 1473.22   5
  -4   1   2 27891.8 1353.73   7
   4  -1  -2 32067.8 1398.25   7
   4  -1  -1 931.614 257.048   5
   4  -1  -1 965.179 215.436   7
  -4   1   1 1080.20 244.992   7
  -4   1   0 20395.6 882.896   7
   4  -1   0 21785.3 1306.10   5
   4  -1   0 20983.9 864.885   7
   4  -1   1 94440.7 2805.98   5
  -4   1  -1 90996.9 1488.43   7
   4  -1   1 88159.6 1409.93   7
   4  -1   2 12955.5 1080.16   5
   4  -1   3 71881.3 2604.07   5
  -4   1  -3 69873.8 2441.23   1
  -4   1  -4 13472.7 1069.62   1
   4  -1   4 13933.8 1188.02   5
   4  -1   5 20340.1 1488.13   5
  -4   1  -5 18228.0 1259.34   1
   4  -1   6 10322.8 1093.41   5
  -4   1  -6 8717.56 508.572   7
   4  -1   6 10010.1 576.631   7
   4  -1   7 18126.1 1486.67   5
   4  -1   7 15285.0 851.556   7
  -4   1  -7 13521.5 745.237   7
  -4   1  -7 14752.9 1308.12   6
  -4   1  -8 412.398 215.433   6
   4  -1   8 593.435 192.660   7
  -4   1  -8 571.432 177.015   7
  -4   1  -9 963.074 342.300   6
   4  -1   9 965.583 276.092   7
  -4   1  -9 739.857 218.241   7
  -4   1 -10 53.0250 82.7546   6
   4  -1  10-60.8356 91.3633   7
  -4   1 -11 468.247 255.003   6
   4  -1  11 309.469 192.234   7
   4  -1  12 176.718 133.754   7
  -4   1 -12 43.0590 218.278   6
   4  -1  13 12705.5 1287.59   7
  -4   1 -13 13116.4 1568.70   6
  -4   1 -14-162.874 314.093   6
   4  -1  14-21.8753 127.183   7
  -4   1 -15 4077.71 951.580   6
   4  -1  15 4349.03 837.183   7
  -4   1 -16 1226.52 549.035   6
  -4   1 -17 286.500 100.750   6
  -4   1 -18-460.838 427.649   6
  -4   1 -19 489.315 382.518   6
  -4   1 -20 188.002 239.545   6
  -4   1 -21 766.011 540.626   6
  -4   1 -22-562.779 446.696   6
  -4   0  24-745.116 574.570   7
  -4   0  23-322.698 373.633   7
  -4   0  22 381.206 455.948   7
  -4   0  21 35.2828 376.459   7
  -4   0  20 262.294 157.895   7
  -4   0  19 922.822 581.517   7
  -4   0  18 2764.19 962.593   7
  -4   0  17 710.349 469.720   7
  -4   0  16 5985.14 1294.74   7
   4   0 -15 2586.18 466.357   3
  -4   0  15 3134.28 894.580   7
   4   0 -14 1019.55 274.163   3
  -4   0  14 2002.47 715.170   7
  -4   0  13 8677.57 1378.30   7
   4   0 -13 6352.22 659.485   3
   4   0 -12 887.673 225.584   3
  -4   0  12 1182.96 458.877   7
   4   0 -11 4299.01 458.642   3
  -4   0  11 3870.84 875.073   7
   4   0 -10 5800.91 478.047   3
  -4   0  10 5454.14 981.639   7
   4   0  -9 17.9513 34.2878   3
  -4   0   9-154.765 198.494   7
   4   0  -8 7823.79 414.972   3
  -4   0   8 9619.90 1184.20   7
  -4   0   7 11464.8 1227.66   7
  -4   0   6-270.742 293.958   7
  -4   0   5 7464.82 870.061   7
   4   0  -5 7183.84 744.068   5
  -4   0   4 10411.7 956.732   7
   4   0  -4 10890.6 919.111   5
  -4   0   4 10214.0 501.821   3
   4   0  -3 18037.3 1184.86   5
   4   0  -3 17766.9 1146.51   7
  -4   0   3 17523.2 1159.83   7
   4   0  -2 1759.45 339.231   7
   4   0  -2 1649.14 374.415   5
  -4   0   2 1769.99 332.323   7
   4   0  -1 2141.56 324.698   7
   4   0  -1 1809.20 402.897   5
  -4   0   1 2092.74 325.449   7
   4   0   0 1568.60 245.363   7
   4   0   0 1227.96 342.475   5
  -4   0   0 1324.52 231.161   7
   4   0   1 12826.6 1091.95   5
  -4   0  -1 13300.4 621.118   7
   4   0   1 14090.1 624.855   7
   4   0   2 23549.7 1508.48   5
   4   0   3 45775.8 2159.42   5
  -4   0  -3 48232.4 1895.74   1
   4   0   4 665.987 336.392   5
   4   0   4 416.746 103.170   7
  -4   0  -4 706.226 267.089   1
   4   0   5 43117.4 2201.97   5
   4   0   5 45187.8 1205.89   7
   4   0   5 45130.5 2313.64   4
  -4   0  -5 48447.0 1911.71   1
   4   0   6 1072.19 416.004   4
   4   0   6 1866.92 474.362   5
   4   0   6 1213.65 229.445   7
   4   0   7 267.331 185.690   5
   4   0   7 61.2657 138.713   4
  -4   0  -7 171.967 75.0011   7
   4   0   7 200.805 113.077   7
  -4   0  -8 9495.79 779.609   7
   4   0   8 11010.1 1249.29   4
   4   0   8 8558.58 779.483   7
   4   0   8 10574.9 1171.77   5
  -4   0  -9 159.874 195.967   6
   4   0   9 324.174 274.823   4
   4   0   9 80.9495 109.705   7
   4   0  10 10894.5 1030.11   7
   4   0  10 10400.5 1263.36   4
  -4   0 -10 11023.7 1316.29   6
   4   0  11 1440.50 487.692   4
   4   0  11 1690.16 416.508   7
  -4   0 -11 2646.48 709.996   6
  -4   0 -12 4714.17 918.405   6
   4   0  12 3050.04 730.338   4
   4   0  12 4158.77 733.691   7
  -4   0 -13 564.156 201.484   6
   4   0  13 335.083 240.820   7
   4   0  13 576.599 323.837   4
  -4   0 -14 1757.09 602.645   6
   4   0  14 2171.78 655.731   4
   4   0  14 1831.65 528.690   7
  -4   0 -15-112.146 367.775   6
   4   0  15 62.8024 90.0016   7
   4   0  15-308.049 254.534   4
  -4   0 -16 3472.90 920.151   6
   4   0  16 2406.30 709.726   4
  -4   0 -17 167.095 192.388   6
   4   0  17-576.947 359.619   4
  -4   0 -18 711.968 403.627   6
   4   0  18-384.004 302.219   4
  -4   0 -19-417.451 356.800   6
  -4   0 -20-443.912 378.894   6
  -4   0 -21 315.363 327.640   6
  -4  -1  24-77.2823 200.470   7
  -4  -1  23-254.074 366.044   7
  -4  -1  22-181.258 280.115   7
  -4  -1  21-44.4836 329.085   7
  -4  -1  20-34.3379 335.403   7
  -4  -1  19 439.716 398.102   7
  -4  -1  18-51.6279 261.588   7
  -4  -1  17 1538.13 678.147   7
  -4  -1  16 214.353 139.823   7
   4   1 -16 329.338 239.018   3
  -4  -1  15 1983.54 652.333   7
   4   1 -15 1627.61 388.823   3
   4   1 -14 8026.88 833.624   3
  -4  -1  14 9127.28 1500.34   7
   4   1 -13 960.089 273.058   3
  -4  -1  13 1027.95 332.833   7
  -4  -1  12 2982.74 771.587   7
   4   1 -12 3528.64 490.710   3
  -4  -1  11 736.704 353.220   7
   4   1 -11 779.634 215.854   3
  -4  -1  10 787.839 469.462   7
   4   1 -10 492.449 155.184   3
   4   1  -9 25249.5 1045.40   3
  -4  -1   9 27916.9 2098.17   7
  -4  -1   8 3884.84 765.242   7
   4   1  -8 4307.30 403.315   3
  -4  -1   7 42753.2 1178.36   3
  -4  -1   7 46920.0 2476.71   7
   4   1  -7 43387.0 1213.21   3
  -4  -1   6 7771.07 493.117   3
  -4  -1   6 6920.29 884.629   7
   4   1  -6 8168.58 521.637   3
  -4  -1   5 76830.4 1623.75   3
  -4  -1   5 77857.0 2837.50   7
   4   1  -5 79187.5 1683.79   3
  -4  -1   4 47598.1 2076.66   7
   4   1  -4 48422.6 2051.86   5
  -4  -1   4 50617.6 1402.59   3
   4   1  -3 33870.9 1727.30   5
  -4  -1   3 35889.7 1689.50   7
  -4  -1   3 35805.7 1297.80   3
   4   1  -2 23103.2 1249.62   7
  -4  -1   2 23085.8 1263.14   7
   4   1  -2 25864.1 1529.08   5
   4   1  -1 7840.54 856.069   5
   4   1  -1 7846.33 668.722   7
  -4  -1   1 7093.59 643.512   7
   4   1   0 9169.76 942.675   5
   4   1   0 8965.24 668.577   7
  -4  -1   0 8874.74 678.677   7
   4   1   1-114.383 161.289   5
   4   1   1 56.7127 108.139   4
   4   1   2 6341.93 819.185   5
   4   1   2 6232.08 501.553   7
   4   1   2 5830.87 773.597   4
  -4  -1  -3 873.811 242.942   1
   4   1   3 1123.36 361.985   5
   4   1   3 1200.27 216.246   7
   4   1   3 1075.16 362.350   4
  -4  -1  -4 38001.0 1554.79   1
   4   1   4 40222.1 1292.85   7
   4   1   4 41086.3 2147.70   5
   4   1   4 38626.4 2115.95   4
   4   1   5 536.849 196.062   5
   4   1   5 824.062 319.567   4
   4   1   5 783.733 191.797   7
   4   1   6 3526.38 651.781   5
   4   1   6 2961.75 418.997   7
   4   1   6 3352.18 673.323   4
   4   1   7 12035.1 916.993   7
   4   1   7 13206.8 1294.46   5
   4   1   7 13783.0 1378.29   4
   4   1   8 216.625 172.018   5
   4   1   8 339.563 134.810   4
   4   1   8 568.150 228.644   7
   4   1   9 488.137 230.063   5
   4   1   9 62.7814 165.104   4
   4   1   9 256.624 182.265   7
   4   1  10 139.011 240.419   4
   4   1  10 37.6229 74.5799   7
   4   1  11 117.363 241.869   4
  -4  -1 -11 94.7433 314.875   6
   4   1  11 176.247 191.917   7
   4   1  12 9544.72 1151.73   7
   4   1  12 9226.78 1287.08   4
  -4  -1 -12 9994.92 1360.75   6
  -4  -1 -13 128.869 207.724   6
   4   1  13 384.984 249.507   7
   4   1  13 582.108 357.084   4
  -4  -1 -14 1472.69 581.347   6
   4   1  14 1880.08 562.921   7
   4   1  14 1243.41 516.137   4
  -4  -1 -15 1885.41 675.009   6
   4   1  15 2058.80 629.966   7
   4   1  15 1474.48 551.453   4
  -4  -1 -16 941.144 518.027   6
   4   1  16 995.751 511.181   4
  -4  -1 -17 52.9918 167.964   6
   4   1  17-182.715 140.781   4
   4   1  18-42.0686 125.859   4
  -4  -1 -18-131.879 435.427   6
  -4  -1 -19 209.234 188.968   6
  -4  -1 -20 52.7033 162.969   6
  -4  -1 -21 219.551 244.179   6
  -4  -2  25-574.943 513.407   7
  -4  -2  24 94.1379 227.435   7
  -4  -2  23-305.686 363.717   7
  -4  -2  22 461.474 447.112   7
  -4  -2  21-82.7960 255.759   7
  -4  -2  20-223.860 511.772   7
  -4  -2  19 24.1561 218.749   7
  -4  -2  18-125.837 263.149   7
  -4  -2  17 1227.01 597.356   7
   4   2 -17 345.149 215.385   3
  -4  -2  16 2352.01 785.285   7
   4   2 -16 1721.50 455.229   3
  -4  -2  15 12656.8 1776.40   7
   4   2 -15 12876.1 1168.02   3
  -4  -2  14 389.246 272.138   7
   4   2 -14 1113.85 340.290   3
  -4  -2  13 1909.17 656.888   7
   4   2 -13 2240.61 431.540   3
   4   2 -12 5695.99 672.789   3
  -4  -2  12 5113.80 1015.67   7
   4   2 -11 5984.37 660.662   3
  -4  -2  11 5590.82 1028.56   7
  -4  -2  10-630.698 331.859   7
   4   2 -10 160.616 121.928   3
   4   2  -9 4666.54 527.982   3
  -4  -2   9 4992.11 889.397   7
  -4  -2   8 2652.01 640.508   7
  -4  -2   8 2155.86 332.294   3
   4   2  -8 2042.29 349.536   3
  -4  -2   7 6885.67 964.156   7
  -4  -2   7 6997.12 589.156   3
   4   2  -7 8121.42 664.766   3
  -4  -2   6 117548. 2418.67   3
  -4  -2   6 124592. 3878.14   7
   4   2  -6 116836. 2492.17   3
  -4  -2   5 13961.6 1244.20   7
  -4  -2   5 13068.4 944.316   4
   4   2  -5 12767.9 840.423   3
  -4  -2   5 13109.1 828.540   3
  -4  -2   4 32516.7 1785.69   7
   4   2  -4 30733.6 1347.80   3
  -4  -2   4 31376.3 1329.96   3
  -4  -2   3 13014.3 1074.00   7
   4   2  -3 13503.3 1159.47   5
  -4  -2   3 13226.6 914.107   3
   4   2  -2 40730.7 2020.04   5
  -4  -2   2 39922.8 1790.85   7
  -4  -2   1 14938.9 1033.18   7
   4   2  -1 15701.1 1049.82   7
   4   2  -1 14557.5 1221.49   5
   4   2  -1 14701.8 1184.09   2
   4   2  -1 15712.4 1191.22   4
   4   2   0 1668.13 461.702   2
   4   2   0 1014.29 260.924   7
   4   2   0 598.582 283.317   5
   4   2   0 1020.52 328.117   4
   4   2   1 24527.7 1643.24   5
   4   2   1 25466.5 1248.10   7
   4   2   1 26071.2 1630.56   4
   4   2   2 538.576 174.672   7
   4   2   2 747.798 306.760   5
   4   2   2 785.154 313.091   4
   4   2   3 10439.0 1104.55   5
  -4  -2  -3 12123.8 791.225   1
   4   2   3 11802.8 1157.22   4
   4   2   4 16310.2 1394.26   5
  -4  -2  -4 17729.2 949.214   1
   4   2   4 17565.2 1061.71   7
   4   2   4 19993.5 1560.05   4
   4   2   5 26531.4 1805.34   5
   4   2   5 25189.5 1312.57   7
   4   2   5 26931.6 1857.71   4
   4   2   6 6859.68 941.132   5
   4   2   6 5968.78 677.276   7
   4   2   6 7851.74 1022.49   4
   4   2   7 24538.7 1818.24   5
   4   2   7 25522.9 1479.21   7
   4   2   7 23846.8 1859.73   4
   4   2   8 152.904 212.631   5
   4   2   8 19.3294 101.779   7
   4   2   8 421.364 278.660   4
   4   2   9 14448.3 1426.76   5
   4   2   9 13656.1 1229.64   7
   4   2   9 14854.2 1556.24   4
   4   2  10 1058.25 406.913   5
   4   2  10 951.733 333.397   4
   4   2  10 1169.89 371.278   7
   4   2  11 4136.01 860.554   4
   4   2  11 3638.62 700.802   7
   4   2  12 136.300 177.696   7
   4   2  12 78.7725 124.075   4
  -4  -2 -13 1630.30 565.640   6
   4   2  13 2123.18 589.922   7
   4   2  13 2182.80 657.384   4
  -4  -2 -14 255.500 335.504   6
   4   2  14-63.7922 199.023   7
   4   2  14-36.3884 95.1219   4
   4   2  15 56.0065 116.815   7
   4   2  15-23.1300 92.6462   4
  -4  -2 -16 5092.99 1129.74   6
   4   2  16 4544.77 1079.94   4
  -4  -2 -17 3088.66 935.651   6
   4   2  17 2822.98 902.578   4
  -4  -2 -18-50.8851 115.073   6
   4   2  18 80.8826 191.869   4
  -4  -2 -19 538.969 321.988   6
   4   2  19-216.759 251.722   4
  -4  -2 -20 298.262 331.285   6
  -4  -2 -21 266.701 309.802   6
  -4  -3  25 57.4169 201.023   7
  -4  -3  24-320.482 379.872   7
  -4  -3  23 546.229 546.397   7
  -4  -3  22-716.009 527.679   7
  -4  -3  21 928.034 538.316   7
  -4  -3  20 628.290 435.266   7
  -4  -3  19 511.251 481.352   7
  -4  -3  18 1457.93 587.954   7
  -4  -3  17 207.561 241.086   7
   4   3 -17 149.594 185.316   3
  -4  -3  16 533.661 459.243   7
   4   3 -16 650.350 305.486   3
   4   3 -15 5692.87 824.680   3
  -4  -3  15 5146.84 1149.84   7
  -4  -3  14 467.194 352.652   7
   4   3 -14 884.089 318.782   3
   4   3 -13 8110.74 905.810   3
  -4  -3  13 9378.80 1434.99   7
   4   3 -12 12929.6 1101.78   3
  -4  -3  12 12714.1 1604.05   7
  -4  -3  11 1672.83 607.465   7
   4   3 -11 1815.38 411.365   3
  -4  -3  11 1221.65 219.054   4
   4   3 -10 22397.6 1355.57   3
  -4  -3  10 20441.8 1923.44   7
  -4  -3  10 18125.6 892.042   4
  -4  -3   9 8484.15 1190.79   7
  -4  -3   9 6452.78 555.962   4
   4   3  -9 6795.99 729.540   3
   4   3  -8 2782.61 455.030   3
  -4  -3   8 2490.92 637.077   7
  -4  -3   8 2775.83 379.998   4
  -4  -3   7 72005.1 3220.20   7
  -4  -3   7 63857.3 1903.40   4
   4   3  -7 65005.7 2168.44   3
  -4  -3   6 16495.8 1462.90   7
  -4  -3   6 15042.7 948.920   4
   4   3  -6 14828.6 1034.63   3
  -4  -3   5 1013.19 307.476   7
   4   3  -5 1213.96 293.480   3
  -4  -3   5 1929.56 358.629   4
  -4  -3   4 5329.35 755.496   7
   4   3  -4 4302.84 579.902   3
  -4  -3   3 21817.1 1479.81   7
   4   3  -3 22557.1 1362.74   3
   4   3  -3 20621.0 1324.18   4
  -4  -3   2 3038.00 537.252   7
   4   3  -2 3544.34 657.165   5
   4   3  -2 2550.04 483.804   2
   4   3  -2 4376.68 631.621   4
   4   3  -1 55829.4 2235.12   2
  -4  -3   1 56765.7 2227.67   7
   4   3  -1 52843.7 2450.12   5
   4   3  -1 56229.3 2292.11   4
   4   3   0 5480.00 798.964   5
   4   3   0 6729.67 794.926   2
   4   3   0 5530.60 745.094   4
   4   3   1 13650.4 1267.75   5
   4   3   1 13463.5 1188.96   4
   4   3   2 54564.9 2579.57   5
   4   3   2 58382.7 2569.56   4
   4   3   3 29598.4 1931.18   5
  -4  -3  -3 30158.6 1089.17   1
   4   3   3 32147.6 1981.79   4
   4   3   4 44069.6 2406.98   5
   4   3   4 43893.4 1926.92   7
   4   3   4 47462.1 2482.54   4
   4   3   5 15022.7 1167.21   7
   4   3   5 14189.8 1369.12   5
   4   3   5 16182.1 1495.17   4
   4   3   6 88.0647 149.161   5
   4   3   6 31.3485 109.120   7
   4   3   6 44.9416 109.287   4
   4   3   7 1923.32 521.008   5
   4   3   7 2921.04 574.175   7
   4   3   7 3110.70 698.168   4
   4   3   8 4713.47 820.996   5
   4   3   8 4151.83 541.119   1
   4   3   8 4662.34 732.775   7
   4   3   8 4862.59 905.032   4
   4   3   9 5224.00 862.596   5
   4   3   9 5066.16 805.182   7
   4   3   9 3686.32 832.512   4
   4   3  10 18751.3 1609.36   7
   4   3  10 16723.4 1581.23   5
   4   3  10 19957.3 1920.60   4
   4   3  11 10204.1 1265.15   5
   4   3  11 7988.31 1103.44   7
   4   3  11 9360.55 1364.46   4
   4   3  12 150.837 242.956   7
   4   3  12 155.846 248.370   4
  -4  -3 -13-152.495 363.583   6
   4   3  13-116.527 282.091   4
   4   3  13 310.778 230.608   7
   4   3  14 32.9323 156.323   4
   4   3  14 107.449 108.046   7
   4   3  15 42.4001 124.364   7
  -4  -3 -15 215.746 418.535   6
   4   3  15-66.6320 181.439   4
  -4  -3 -16 1161.70 572.905   6
   4   3  16 858.784 575.122   7
   4   3  16 679.320 536.942   4
  -4  -3 -17 1123.16 576.963   6
   4   3  17 439.584 344.694   4
  -4  -3 -18 508.028 515.347   6
   4   3  18 536.562 389.483   4
  -4  -3 -19 20.2168 198.519   6
   4   3  19 151.509 118.732   4
  -4  -3 -20 11.1167 189.511   6
  -4  -4  25-435.754 453.284   7
  -4  -4  24-618.470 520.698   7
  -4  -4  23-239.779 323.261   7
  -4  -4  22 108.003 233.017   7
  -4  -4  21 265.423 291.825   7
  -4  -4  20 725.035 504.877   7
  -4  -4  19 2098.81 813.224   7
   4   4 -18 563.361 288.484   3
  -4  -4  18 565.517 356.928   7
  -4  -4  17 190.942 284.042   7
   4   4 -17 22.1405 69.6234   3
   4   4 -16 116.237 168.812   3
  -4  -4  16 326.165 196.661   7
  -4  -4  15 414.713 173.487   7
   4   4 -15 886.296 362.702   3
  -4  -4  14 2054.96 750.449   7
   4   4 -14 1211.33 410.694   3
  -4  -4  13 2722.36 764.369   7
   4   4 -13 3364.23 617.008   3
  -4  -4  12 172.370 325.335   7
   4   4 -12 351.782 191.424   3
   4   4 -11 9999.86 1026.55   3
  -4  -4  11 10859.4 1514.83   7
  -4  -4  10 23768.8 2123.29   7
   4   4 -10 23266.3 1530.13   3
  -4  -4   9 37823.4 2575.47   7
   4   4  -9 35874.2 1853.76   3
  -4  -4   8 2420.60 630.475   7
   4   4  -8 2794.49 510.643   3
  -4  -4   7 6448.68 1005.96   7
   4   4  -7 5524.80 710.072   3
  -4  -4   6 21653.4 1742.26   7
   4   4  -6 19249.1 1334.34   3
  -4  -4   5 25830.4 1850.13   7
   4   4  -5 24458.0 1397.39   4
   4   4  -5 27114.4 1586.93   3
   4   4  -4 2093.17 452.073   3
  -4  -4   4 3285.49 634.276   7
   4   4  -4 2950.49 504.901   4
  -4  -4   3 5323.74 784.311   7
   4   4  -3 4395.01 628.943   4
   4   4  -3 4689.85 679.264   3
   4   4  -2 1962.68 453.510   3
   4   4  -2 1659.29 465.980   5
  -4  -4   2 1372.91 393.159   7
   4   4  -2 1727.37 410.359   4
   4   4  -2 1447.54 353.938   2
   4   4  -1 46775.9 2014.97   2
   4   4  -1 47696.0 2444.31   5
   4   4  -1 50396.5 2258.55   4
   4   4   0 48656.1 2306.27   4
   4   4   0 45206.2 2393.17   5
   4   4   1 693.001 272.791   5
   4   4   1 683.461 323.160   4
   4   4   2 5572.03 836.734   4
   4   4   2 3903.57 715.791   5
   4   4   3 34421.5 2154.30   5
  -4  -4  -3 31138.2 889.002   1
   4   4   4 8067.84 1043.52   5
   4   4   4 8978.39 961.813   7
   4   4   5 7598.44 930.590   7
   4   4   5 7185.43 995.908   5
   4   4   6 1402.72 456.950   5
   4   4   6 1397.32 410.405   7
   4   4   7 322.567 202.603   5
   4   4   7 237.465 210.871   7
   4   4   8 12697.2 1369.35   5
   4   4   8 13996.2 1376.02   7
   4   4   9 3264.71 698.703   5
   4   4   9 4135.89 779.769   7
   4   4   9 4576.82 921.047   4
   4   4  10 2131.11 577.897   5
   4   4  10 1686.76 509.788   7
   4   4  10 2228.96 636.164   4
   4   4  11 2211.63 590.340   5
   4   4  11 1764.78 542.469   7
   4   4  11 2638.42 742.554   4
   4   4  12 4906.31 888.347   5
   4   4  12 6245.54 1070.51   7
   4   4  12 5699.60 1115.73   4
   4   4  13 1440.67 531.601   7
   4   4  13 1533.01 616.508   4
  -4  -4 -14-42.8631 209.556   6
   4   4  14 111.678 166.111   7
   4   4  14 413.708 349.423   4
  -4  -4 -15-249.308 339.340   6
   4   4  15 463.138 380.013   7
   4   4  15-123.777 190.567   4
  -4  -4 -16-901.590 491.226   6
   4   4  16-236.690 259.165   4
   4   4  16-168.935 208.855   7
  -4  -4 -17 382.563 322.571   6
   4   4  17-37.8193 133.877   4
  -4  -4 -18-443.007 368.898   6
   4   4  18 32.7334 205.633   4
  -4  -4 -19-357.478 340.909   6
   4   4  19 205.170 258.672   4
  -4  -4 -20-597.333 449.800   6
  -4  -5  25-93.6649 413.780   7
  -4  -5  24 223.585 329.634   7
  -4  -5  23 770.232 619.420   7
  -4  -5  22 261.169 508.539   7
  -4  -5  21 325.824 337.783   7
  -4  -5  20 297.995 383.642   7
  -4  -5  19 985.454 599.109   7
  -4  -5  18 9.14731 105.073   7
   4   5 -18 574.065 344.027   3
   4   5 -17 1241.38 445.344   3
  -4  -5  17 965.442 541.415   7
   4   5 -16 1536.49 513.980   3
  -4  -5  16 1420.68 644.736   7
   4   5 -15 400.257 293.620   3
  -4  -5  15 376.570 260.876   7
   4   5 -14 95.9713 205.310   3
  -4  -5  14 242.616 377.329   7
  -4  -5  13 162.638 181.993   7
   4   5 -13 158.476 79.9626   3
  -4  -5  12 985.525 508.306   7
   4   5 -12 878.355 321.527   3
   4   5 -11 5247.59 805.026   3
  -4  -5  11 5171.13 1043.30   7
   4   5 -10 6918.91 891.941   3
  -4  -5  10 7156.37 1176.13   7
  -4  -5   9 14877.0 1682.67   7
   4   5  -9 15418.4 1337.36   3
  -4  -5   8 14853.5 1604.06   7
   4   5  -8 13032.1 1212.04   3
  -4  -5   7 91074.0 3880.48   7
   4   5  -7 81000.4 2435.01   4
   4   5  -7 89975.0 3149.46   3
   4   5  -6 8681.38 830.613   4
   4   5  -6 7370.83 902.622   3
  -4  -5   6 8332.64 1135.85   7
   4   5  -5 315.407 196.286   3
  -4  -5   5 97.9726 141.796   7
   4   5  -5 165.507 84.0994   4
   4   5  -4 888.506 325.710   3
  -4  -5   4 1237.66 429.133   7
   4   5  -4 1170.26 334.232   4
  -4  -5   3 22837.6 1759.08   7
   4   5  -3 24056.7 1442.98   2
   4   5  -3 24565.9 1547.46   4
   4   5  -3 23265.8 1672.54   3
   4   5  -2 930.428 281.544   2
   4   5  -2 906.270 314.898   3
   4   5  -2 1372.26 414.958   4
   4   5  -1-61.1531 195.351   5
   4   5  -1 303.658 293.684   3
   4   5   0 25398.5 1878.63   5
   4   5   1 12857.2 1348.00   5
   4   5   2 3248.51 680.906   5
   4   5   3 3846.36 739.979   5
   4   5   4 222.141 214.849   5
   4   5   4 40.6863 161.315   7
   4   5   5 179.860 196.227   5
   4   5   5 353.406 248.040   7
   4   5   6 29.0674 67.3278   5
   4   5   6-32.6548 129.681   7
   4   5   7 7417.19 1070.53   5
   4   5   7 9595.93 1186.46   7
   4   5   8 3762.76 749.440   5
   4   5   8 3544.71 748.643   7
   4   5   9 3.01125 124.225   5
   4   5   9 287.794 216.355   7
   4   5  10-161.659 179.555   5
   4   5  10 39.2092 207.845   7
   4   5  11 185.448 164.530   5
   4   5  11 533.776 310.081   7
   4   5  12 264.171 253.348   5
   4   5  12-286.115 244.194   7
   4   5  12-65.1400 110.043   4
   4   5  13-32.1659 128.117   7
   4   5  13-270.388 213.208   4
  -4  -5 -14 960.158 529.614   6
   4   5  14 723.161 450.915   7
   4   5  14 1436.11 631.392   4
  -4  -5 -15 120.011 246.185   6
   4   5  15 543.653 410.136   7
   4   5  15 821.927 482.892   4
  -4  -5 -16-282.156 286.510   6
   4   5  16-132.617 207.729   4
   4   5  16 86.9307 172.330   7
   4   5  17 487.730 349.724   4
  -4  -5 -17-639.217 433.968   6
  -4  -5 -18 383.580 436.503   6
   4   5  18 513.785 454.622   4
  -4  -5 -19 495.706 380.561   6
   4   5  19 8.92753 202.522   4
   4   5  20 288.433 324.396   4
  -4  -6  25 80.8024 227.657   7
  -4  -6  24-4.27216 327.643   7
  -4  -6  23 586.836 516.813   7
  -4  -6  22-159.142 282.516   7
  -4  -6  21 502.443 571.924   7
  -4  -6  20 643.032 561.495   7
  -4  -6  19 276.300 303.124   7
   4   6 -19 1235.79 490.941   3
  -4  -6  18 503.739 457.860   7
   4   6 -18 291.365 362.710   3
  -4  -6  17 677.345 350.920   7
   4   6 -17-34.2874 181.788   3
  -4  -6  16 560.365 415.742   7
   4   6 -16 1210.33 445.037   3
   4   6 -15 61.8138 152.691   3
  -4  -6  15-407.477 496.499   7
   4   6 -14-29.5670 82.5484   3
  -4  -6  14 1262.36 623.652   7
  -4  -6  13 2285.84 732.916   7
   4   6 -13 2630.70 633.868   3
  -4  -6  12 1008.48 459.613   7
   4   6 -12 1001.23 384.412   3
  -4  -6  11 549.121 398.767   7
   4   6 -11 116.175 185.137   3
  -4  -6  10 4037.66 945.582   7
   4   6 -10 4376.43 776.812   3
  -4  -6   9 3532.21 823.375   7
   4   6  -9 2854.54 616.453   3
  -4  -6   8 13825.4 1605.06   7
   4   6  -8 13538.4 997.329   4
   4   6  -8 13650.0 1344.76   3
   4   6  -7 3608.13 541.624   4
   4   6  -7 3340.03 645.994   3
  -4  -6   7 3664.94 789.961   7
   4   6  -6-27.2067 101.486   3
  -4  -6   6 100.061 198.370   7
   4   6  -6 83.0694 132.547   4
   4   6  -5 23923.0 1520.92   4
  -4  -6   5 25978.8 2068.23   7
   4   6  -5 26793.3 1888.28   3
  -4  -6   4 7794.66 1106.21   7
   4   6  -4 8621.28 935.685   4
   4   6  -4 7020.86 980.535   3
   4   6  -3 5320.55 855.686   3
   4   6  -3 6162.77 712.160   2
   4   6  -2 1670.21 456.820   3
   4   6  -2 1955.76 391.108   2
   4   6  -1 25683.9 1949.88   5
   4   6  -1 26023.7 1980.17   3
   4   6   0 15537.4 1517.90   5
   4   6   1 5382.00 913.660   5
   4   6   2 11349.7 1297.39   5
   4   6   3 32437.0 2241.25   5
   4   6   4 22012.1 1874.62   5
   4   6   4 25481.9 1950.97   7
   4   6   5 2795.03 654.625   7
   4   6   5 2851.33 668.052   5
   4   6   6 1056.13 403.355   5
   4   6   6 1147.47 421.447   7
   4   6   7 11665.7 1366.80   5
   4   6   7 11852.7 1400.26   7
   4   6   8 11220.5 1349.32   5
   4   6   8 10727.3 1380.40   7
   4   6   9 3363.54 748.094   5
   4   6   9 2351.36 657.180   7
   4   6  10 125.473 183.007   5
   4   6  10 427.952 256.018   7
   4   6  11-35.8663 79.9053   5
   4   6  11 178.398 262.526   7
   4   6  12 971.034 403.599   5
   4   6  12 1233.36 539.267   7
   4   6  13 57.3037 152.896   5
   4   6  13 282.638 281.163   7
   4   6  14 1477.50 596.903   7
   4   6  14 1758.38 723.471   4
   4   6  15 244.180 187.646   4
   4   6  15-97.1454 265.059   7
  -4  -6 -16 119.973 248.190   6
   4   6  16 49.5921 174.405   4
  -4  -6 -17 595.902 461.132   6
   4   6  17 219.657 311.262   4
  -4  -6 -18-282.930 309.432   6
   4   6  18-170.586 250.467   4
  -4  -6 -19 404.870 432.940   6
   4   6  19 566.343 449.283   4
   4   6  20 474.313 403.353   4
  -4  -7  24-1.07864 261.253   7
  -4  -7  23 346.244 488.897   7
  -4  -7  22 692.879 657.919   7
  -4  -7  21 298.543 354.193   7
  -4  -7  20-198.039 286.957   7
  -4  -7  19 2187.60 855.835   7
   4   7 -19 1944.62 649.088   3
  -4  -7  18 406.206 387.953   7
   4   7 -18 224.415 191.703   3
   4   7 -17 580.305 374.308   3
  -4  -7  17 768.981 493.399   7
  -4  -7  16 267.247 287.893   7
   4   7 -16 54.8745 214.499   3
  -4  -7  15 1513.68 592.574   7
   4   7 -15 2380.03 667.503   3
   4   7 -14 1441.59 511.256   3
  -4  -7  14-24.0688 178.749   7
  -4  -7  13 1564.81 608.381   7
   4   7 -13 1568.94 518.103   3
   4   7 -12 408.056 169.760   3
  -4  -7  12 521.720 353.123   7
  -4  -7  11 165.617 213.559   7
   4   7 -11-141.017 233.223   3
  -4  -7  10-127.090 176.118   7
   4   7 -10-108.613 276.097   3
  -4  -7   9-205.616 291.766   7
   4   7  -9 140.599 125.618   4
   4   7  -8 196.300 137.481   3
   4   7  -8 351.779 189.284   4
  -4  -7   8-16.1936 114.165   7
   4   7  -7 5962.20 960.557   3
  -4  -7   7 7033.88 1162.51   7
   4   7  -7 6767.88 795.057   4
  -4  -7   6 145.739 124.409   7
   4   7  -6 109.588 153.300   3
   4   7  -6 416.343 233.263   4
   4   7  -5 31160.7 2206.88   3
   4   7  -4 15923.6 1123.32   2
   4   7  -4 15806.6 1577.31   3
   4   7  -3-52.1575 221.565   3
   4   7  -3-90.3862 125.187   2
   4   7  -2 261.087 214.447   3
   4   7  -1 1330.08 456.836   3
   4   7  -1 1560.03 523.786   5
   4   7   0 2336.48 607.727   5
   4   7   0 1723.39 532.887   3
  -4  -7  -1 12687.9 484.344   1
   4   7   1 18937.3 1761.65   5
   4   7   2 10798.7 1325.17   5
   4   7   3 1536.13 519.481   5
   4   7   4 3009.50 683.578   5
   4   7   4 2178.95 633.242   7
   4   7   5 9626.92 1275.31   5
   4   7   5 9451.89 1311.25   7
   4   7   6 11840.8 1423.83   5
   4   7   6 14313.8 1622.21   7
   4   7   7 1510.66 538.230   5
   4   7   7 406.224 317.294   7
   4   7   8 8026.11 1178.24   5
   4   7   8 9496.99 1351.64   7
   4   7   9 100.417 166.271   5
   4   7   9-199.490 321.203   7
   4   7  10 42.7671 187.284   5
   4   7  10 354.036 340.244   7
   4   7  11-227.621 201.934   5
   4   7  11-72.7317 266.620   7
   4   7  12 637.064 352.293   5
   4   7  12 446.058 383.791   7
   4   7  13 56.8965 152.312   7
   4   7  14-10.0877 99.8575   7
  -4  -7 -15 460.191 410.575   6
   4   7  15 4.27066 190.818   7
   4   7  15 242.290 237.209   4
  -4  -7 -16 263.951 200.423   6
   4   7  16 514.497 450.312   4
  -4  -7 -17 208.800 490.648   6
   4   7  17 255.278 301.108   4
   4   7  18 407.172 386.571   4
  -4  -7 -18 587.717 442.475   6
   4   7  19 0.92626 335.552   4
  -4  -8  24-822.204 610.489   7
  -4  -8  23 350.954 383.063   7
  -4  -8  22-129.313 254.050   7
  -4  -8  21-877.461 588.825   7
   4   8 -20-390.726 315.562   3
  -4  -8  20-578.552 469.654   7
  -4  -8  19-824.884 545.898   7
   4   8 -19-115.501 179.137   3
   4   8 -18 106.039 173.038   3
  -4  -8  18 321.168 164.004   7
  -4  -8  17 799.962 469.550   7
   4   8 -17-175.768 209.088   3
  -4  -8  16 65.4214 277.986   7
   4   8 -16 347.091 272.214   3
   4   8 -15 34.2874 318.216   3
  -4  -8  15 330.271 426.333   7
  -4  -8  14 865.945 465.111   7
   4   8 -14 566.046 391.025   3
  -4  -8  13 1591.69 637.448   7
   4   8 -13 306.120 196.244   3
  -4  -8  12 985.632 562.117   7
   4   8 -12 934.860 439.966   3
  -4  -8  11 256.447 311.439   7
   4   8 -11 106.840 90.6951   3
   4   8 -10-98.7522 217.203   3
  -4  -8  10 433.195 434.533   7
   4   8 -10 165.398 119.856   4
  -4  -8   9 2668.16 825.702   7
   4   8  -9 2988.89 712.161   3
   4   8  -9 1838.02 420.100   4
  -4  -8   8 2200.11 717.103   7
   4   8  -8 1133.88 452.798   3
   4   8  -8 1629.94 399.763   4
   4   8  -7 681.514 331.774   3
  -4  -8   7 645.988 359.322   7
   4   8  -6 243.935 247.556   3
   4   8  -5 85.5134 240.931   3
   4   8  -5-51.7211 41.7236   2
   4   8  -4 4026.87 919.295   3
   4   8  -4 3600.46 502.125   2
   4   8  -3-68.5516 267.167   3
   4   8  -2-353.663 378.824   3
   4   8  -1 486.720 271.137   3
   4   8  -1 943.336 359.191   5
   4   8   0 2009.77 593.494   5
  -4  -8   0 1408.19 229.076   1
   4   8   0 1804.08 624.688   3
   4   8   1-9.92357 241.921   5
   4   8   2 98.6491 144.604   5
   4   8   3 3323.49 774.738   5
   4   8   4 5664.37 1047.98   7
   4   8   4 4396.84 899.002   5
   4   8   5 1449.13 468.226   5
   4   8   5 1598.17 584.896   7
   4   8   6 1598.34 583.050   7
   4   8   6 782.106 362.511   5
   4   8   7 1871.36 570.860   5
   4   8   7 2272.28 738.695   7
   4   8   8 8319.96 1240.52   5
   4   8   8 9842.40 1486.34   7
   4   8   9 101.110 167.171   5
   4   8   9-36.8976 279.645   7
   4   8  10 1707.45 559.658   5
   4   8  10 2058.52 696.102   7
   4   8  11 117.202 233.921   7
   4   8  12 296.719 266.877   7
   4   8  13 184.712 241.882   7
   4   8  14 128.029 165.296   7
   4   8  15 1754.32 787.846   7
  -4  -8 -16 1074.02 602.135   6
   4   8  16 1102.94 655.696   4
   4   8  17 0.90660 331.446   4
  -4  -8 -17-26.0517 135.197   6
  -4  -9  23-834.669 609.031   7
  -4  -9  22 516.277 472.706   7
  -4  -9  21-99.7087 220.346   7
  -4  -9  20 49.0728 234.672   7
   4   9 -20-453.239 352.113   3
  -4  -9  19 93.0514 195.945   7
   4   9 -19 284.280 362.394   3
  -4  -9  18-126.248 265.727   7
   4   9 -18 42.9653 183.510   3
   4   9 -17-774.351 433.094   3
  -4  -9  17 592.979 483.528   7
   4   9 -16 474.235 329.060   3
  -4  -9  16 147.317 226.362   7
  -4  -9  15-95.6305 353.561   7
   4   9 -15 714.698 371.401   3
   4   9 -14 117.556 153.563   3
  -4  -9  14-205.974 288.614   7
  -4  -9  13-48.8684 359.185   7
   4   9 -13 216.401 281.701   3
   4   9 -12 1178.11 547.134   3
  -4  -9  12 817.936 446.020   7
  -4  -9  11 181.199 241.927   7
   4   9 -11 423.904 236.768   3
  -4  -9  10 2762.53 858.254   7
   4   9 -10 3561.57 836.626   3
   4   9 -10 2260.96 439.739   4
  -4  -9   9 7841.28 1408.05   7
   4   9  -9 6229.26 1127.64   3
   4   9  -9 7153.54 850.333   4
   4   9  -8 8486.46 1305.98   3
   4   9  -7-259.830 291.841   3
   4   9  -6 16.7115 136.390   3
   4   9  -6-18.2296 69.5106   2
   4   9  -5 2027.31 354.168   2
   4   9  -5 2604.24 709.057   3
   4   9  -4 8802.53 1325.48   3
   4   9  -3 640.249 375.031   3
   4   9  -2 1276.54 525.699   3
   4   9  -1 28428.3 2335.68   5
   4   9  -1 25415.1 2368.07   3
   4   9   0 12819.5 1581.84   5
   4   9   0 14290.9 1795.47   3
   4   9   1 5367.25 1005.72   5
   4   9   2 2795.85 738.166   5
   4   9   3 1600.39 527.900   5
   4   9   3 1209.14 448.727   7
   4   9   4 2066.61 671.914   7
   4   9   4 1954.91 595.898   5
   4   9   5 308.791 193.204   5
   4   9   5 497.127 375.393   7
   4   9   6 560.444 352.302   5
   4   9   6 724.506 310.285   7
   4   9   7 330.313 293.913   5
   4   9   7 986.539 505.685   7
   4   9   8-31.7756 268.810   7
   4   9   8 697.945 388.684   5
   4   9   9-124.283 321.067   7
   4   9   9-1.35606 139.573   5
   4   9  10 717.283 506.317   7
   4   9  11-205.389 121.044   7
   4   9  12 181.534 162.509   7
   4   9  13-144.562 227.099   7
   4   9  14 175.528 272.256   7
   4   9  15-65.1583 171.717   7
  -4  -9 -16 860.874 597.528   6
  -4  -9 -17-1222.46 636.945   6
  -4 -10  23-329.283 400.065   7
  -4 -10  22-213.248 323.061   7
  -4 -10  21 57.5354 193.308   7
   4  10 -20-74.4919 169.807   3
  -4 -10  20 678.691 557.373   7
  -4 -10  19 1872.28 986.058   7
   4  10 -19 1855.96 696.987   3
  -4 -10  18-199.343 288.192   7
   4  10 -18 209.535 254.222   3
  -4 -10  17-47.8344 155.309   7
   4  10 -17 192.197 131.114   3
  -4 -10  16 230.428 233.840   7
   4  10 -16 862.781 534.899   3
  -4 -10  15 3180.07 1006.06   7
   4  10 -15 1475.04 597.657   3
  -4 -10  14 124.929 220.624   7
   4  10 -14 149.787 133.830   3
   4  10 -13 382.311 248.017   3
  -4 -10  13 904.365 448.274   7
  -4 -10  12-16.5156 219.922   7
   4  10 -12 208.080 264.189   3
   4  10 -11 4081.20 952.109   3
  -4 -10  11 3678.71 1039.76   7
   4  10 -10 2943.81 804.832   3
   4  10 -10 3983.28 651.075   4
   4  10  -9 1064.41 480.529   3
   4  10  -8 1211.46 508.916   3
   4  10  -7 5164.02 1072.33   3
   4  10  -6 7987.75 1280.75   3
   4  10  -5 3584.31 885.359   3
   4  10  -4 438.667 464.407   3
   4  10  -3 6157.88 1195.78   3
   4  10  -2 2173.32 728.199   3
   4  10  -1 268.999 184.194   3
   4  10  -1 889.161 516.008   5
   4  10   0 9504.07 1411.51   5
   4  10   0 10569.7 1637.81   3
   4  10   1 778.696 407.757   5
   4  10   2 1755.72 573.244   5
   4  10   3 1399.39 589.179   7
   4  10   3 968.997 426.612   5
   4  10   4 3149.95 818.467   5
   4  10   4 3775.16 991.952   7
   4  10   5 1672.67 668.641   7
   4  10   5 1159.44 432.331   5
   4  10   6 19.4907 163.464   7
   4  10   6-457.930 308.572   5
   4  10   7 10.8571 181.876   5
   4  10   7 221.514 292.456   7
   4  10   8-255.339 272.671   7
   4  10   9 481.356 474.722   7
   4  10  10 619.165 506.267   7
   4  10  11 318.358 209.437   7
   4  10  12 133.127 293.874   7
   4  10  13-57.6999 210.424   7
   4  10  14 740.991 520.019   7
   4  10  15 0.90459 387.847   7
  -4 -10 -16 581.017 518.235   6
  -4 -11  22-365.743 420.722   7
  -4 -11  21 474.324 504.054   7
   4  11 -21 65.7199 168.008   3
   4  11 -20-916.143 533.221   3
  -4 -11  20-523.505 478.653   7
  -4 -11  19 158.970 383.048   7
   4  11 -19-720.768 469.674   3
  -4 -11  18 2821.60 1108.75   7
   4  11 -18 1041.68 546.680   3
  -4 -11  17 836.484 622.412   7
   4  11 -17 2854.61 917.615   3
  -4 -11  16-204.377 290.372   7
   4  11 -16 208.160 288.195   3
  -4 -11  15 4808.41 1311.37   7
   4  11 -15 1912.27 748.096   3
  -4 -11  14 175.154 336.644   7
   4  11 -14 523.687 396.345   3
   4  11 -13-96.4028 140.622   3
  -4 -11  13-107.280 243.822   7
   4  11 -12-64.8429 191.142   3
   4  11 -11 759.153 486.823   3
   4  11 -10 1263.50 534.727   3
   4  11  -9 7353.22 1332.34   3
   4  11  -8 3237.18 940.954   3
   4  11  -7 999.492 628.918   3
   4  11  -6 2212.88 720.697   3
   4  11  -5 1642.21 650.846   3
   4  11  -4 4744.59 1109.35   3
   4  11  -3 539.947 428.325   3
   4  11  -2 2332.93 785.894   3
   4  11  -1 1168.22 556.423   3
   4  11  -1 1410.19 533.259   5
   4  11   0 266.729 438.786   3
   4  11   0 742.368 408.042   5
   4  11   1-175.348 291.247   5
   4  11   2 227.081 285.821   5
   4  11   3 6958.20 1385.90   7
   4  11   3 6745.40 1212.41   5
   4  11   4 1186.28 563.978   5
   4  11   4 1955.92 695.194   7
   4  11   5 603.514 412.822   5
   4  11   5 965.439 529.448   7
   4  11   6 349.434 323.664   5
   4  11   6 419.658 426.295   7
   4  11   7-37.9780 191.509   7
   4  11   8 206.963 182.211   7
   4  11   9-9.81402 192.292   7
   4  11  10 184.080 250.955   7
   4  11  11 991.052 537.118   7
   4  11  12-960.918 580.259   7
   4  11  13-105.019 175.783   7
   4  11  14 808.258 613.481   7
  -4 -12  21 10.0141 121.540   7
   4  12 -21 115.382 218.733   3
  -4 -12  20 428.208 477.122   7
   4  12 -20-483.980 409.330   3
  -4 -12  19 466.107 530.567   7
   4  12 -19-7.97036 115.641   3
   4  12 -18 333.998 340.239   3
  -4 -12  18 878.452 543.790   7
  -4 -12  17 190.499 197.432   7
   4  12 -17 91.6220 199.129   3
  -4 -12  16 557.005 534.133   7
   4  12 -16 1087.35 687.034   3
  -4 -12  15 855.636 528.535   7
   4  12 -15 693.638 432.739   3
   4  12 -14 1275.55 609.061   3
   4  12 -13 138.830 224.396   3
   4  12 -12 1236.17 582.872   3
   4  12 -11 1557.38 636.058   3
   4  12 -10 399.474 292.987   3
   4  12  -9-1114.86 554.007   3
   4  12  -8-472.720 465.795   3
   4  12  -7 106.298 264.475   3
   4  12  -6 330.354 366.636   3
   4  12  -5-47.5323 154.129   3
   4  12  -4 819.045 513.832   3
   4  12  -3 1318.62 624.715   3
   4  12  -2 169.027 122.355   3
   4  12  -1 407.518 377.351   5
   4  12  -1-58.3032 333.155   3
   4  12   0 1554.07 615.656   5
   4  12   0 1872.92 751.420   3
   4  12   1 804.695 419.157   5
   4  12   2-148.658 303.297   5
   4  12   2 108.954 246.657   7
   4  12   3 7.53224 262.752   5
   4  12   3 198.368 135.156   7
   4  12   4 322.235 333.965   5
   4  12   4 99.3475 406.528   7
   4  12   5 101.246 171.215   7
   4  12   6 15.3878 221.950   7
   4  12   7 683.115 480.411   7
   4  12   8 630.757 460.024   7
   4  12   9-28.1471 194.382   7
   4  12  10 244.424 181.057   7
   4  12  11-57.3979 177.741   7
   4  12  12-440.949 417.869   7
   4  12  13 0.97227 657.456   7
   4  13 -21 115.001 221.467   3
   4  13 -20 556.396 454.554   3
  -4 -13  20-419.223 450.579   7
  -4 -13  19 613.617 622.295   7
   4  13 -19 269.540 316.529   3
   4  13 -18-405.884 378.617   3
   4  13 -17 597.070 508.649   3
   4  13 -16-198.400 271.400   3
   4  13 -15 477.526 353.150   3
   4  13 -14-240.734 293.532   3
   4  13 -13-440.805 384.243   3
   4  13 -12 571.104 561.530   3
   4  13 -11 2590.06 879.273   3
   4  13 -10 762.561 523.979   3
   4  13  -9-121.124 165.437   3
   4  13  -8 48.3699 160.719   3
   4  13  -7-100.501 151.408   3
   4  13  -6 481.881 389.289   3
   4  13  -5 152.604 236.078   3
   4  13  -4 186.974 568.749   3
   4  13  -3 5067.57 1247.87   3
   4  13  -2 6419.20 1389.26   3
   4  13  -2 4651.74 1100.78   5
   4  13  -1 582.584 432.689   5
   4  13  -1-530.777 423.257   3
   4  13   0 1816.06 689.237   5
   4  13   0 2368.64 857.980   3
   4  13   1 383.879 402.497   5
   4  13   2 35.1271 184.564   5
   4  13   2 357.621 404.115   7
   4  13   3-115.802 202.638   5
   4  13   3 447.903 436.883   7
   4  13   4 1010.31 635.511   7
   4  13   5 119.612 161.894   7
   4  13   6-972.151 580.765   7
   4  13   7 391.030 478.949   7
   4  13   8-32.6133 118.217   7
   4  13   9 479.533 429.241   7
   4  13  10 448.497 517.957   7
   4  13  11-46.8229 179.859   7
   4  14 -20 434.253 484.019   3
   4  14 -19 660.028 659.404   3
   4  14 -18 221.845 437.857   3
   4  14 -17 1221.50 716.875   3
   4  14 -16 481.381 582.022   3
   4  14 -15 20.6400 371.407   3
   4  14 -14 377.032 415.550   3
   4  14 -13 3188.01 1084.06   3
   4  14 -12-3.29235 290.487   3
   4  14 -11 143.453 212.521   3
   4  14 -10 703.285 612.620   3
   4  14  -9 44.4747 141.381   3
   4  14  -8 184.210 223.983   3
   4  14  -7 86.5081 162.129   3
   4  14  -6 1.62124 389.216   3
   4  14  -5 103.426 155.493   3
   4  14  -4 115.317 210.316   3
   4  14  -3-0.82508 119.150   3
   4  14  -2-54.2723 313.508   3
   4  14  -2 1425.68 657.273   5
   4  14  -1-65.2763 268.521   3
   4  14  -1 148.178 192.838   5
   4  14   0 579.070 407.376   5
   4  14   1 409.202 344.554   5
   4  14   1 76.9871 167.336   7
   4  14   2-812.968 533.969   7
   4  14   3 681.989 631.359   7
   4  14   4 666.985 537.294   7
   4  14   5 11.7558 249.492   7
   4  14   6 381.337 483.501   7
   4  14   7-743.314 540.615   7
   4  14   8 58.6512 184.055   7
   4  14   9 70.0691 195.712   7
   4  15 -18-960.425 622.558   3
   4  15 -17 300.384 453.639   3
   4  15 -16 222.943 310.724   3
   4  15 -15 0.93297 251.165   3
   4  15 -14 158.227 254.029   3
   4  15 -13-191.543 342.582   3
   4  15 -12 44.1523 206.320   3
   4  15 -11-130.455 245.264   3
   4  15 -10 785.666 515.584   3
   4  15  -9 1203.83 737.728   3
   4  15  -8 1341.00 662.600   3
   4  15  -7 441.984 402.643   3
   4  15  -6 1354.97 648.692   3
   4  15  -5 551.700 418.568   3
   4  15  -4 168.393 218.887   3
   4  15  -3 315.434 366.477   3
   4  15  -3 1091.62 571.611   5
   4  15  -2-262.386 388.116   3
   4  15  -2 265.772 291.431   5
   4  15  -1-43.5843 257.509   3
   4  15  -1 50.0281 137.029   5
   4  15   0 418.750 426.336   5
   4  15   0 288.401 401.030   7
   4  15   1 29.5246 158.289   7
   4  15   2 253.668 347.189   7
   4  15   3 170.942 329.810   7
   4  15   4-122.036 240.205   7
   4  15   5-78.0370 198.306   7
   4  15   6-1.00532 109.767   7
   4  16 -14 43.9898 169.547   3
   4  16 -13-405.826 414.748   3
   4  16 -12-255.708 333.868   3
   4  16 -11 804.365 530.038   3
   4  16 -10 873.777 601.195   3
   4  16  -9 789.294 691.033   3
   4  16  -8 560.668 514.181   3
   4  16  -7 191.042 243.418   3
   4  16  -6 695.933 617.336   3
   4  16  -5 810.989 505.869   3
   4  16  -4-379.545 405.384   3
   4  16  -3 591.062 547.516   3
   4  16  -3 921.785 639.370   5
   4  16  -2-343.409 387.572   3
   4  16  -2 494.573 340.407   5
   4  16  -1-182.956 367.119   3
   4  16   0 1404.00 804.951   7
   4  16   1 182.705 322.486   7
   4  16   2 869.620 671.711   7
   4  17  -4-43.9025 147.703   5
  -5  17   2 308.412 353.972   3
  -5  17   1 663.907 664.793   3
  -5  17   0-586.460 469.132   3
  -5  17   0-477.039 439.533   7
  -5  17  -1 170.096 391.425   3
  -5  17  -1-318.586 362.063   7
  -5  17  -2-311.055 348.342   3
  -5  17  -2 525.663 428.278   7
  -5  17  -3 312.370 342.910   3
  -5  17  -3 573.855 461.951   7
  -5  17  -4 182.986 251.903   3
  -5  17  -4 43.4213 122.601   7
  -5  17  -5-21.8164 147.895   3
  -5  17  -5 307.290 250.945   7
  -5  17  -6 634.059 704.945   3
  -5  17  -6-401.140 387.785   7
  -5  17  -7 498.878 543.011   7
  -5  17  -8 143.810 351.822   7
  -5  16   4 559.541 394.371   7
  -5  16   3-344.092 344.077   3
  -5  16   3 261.192 187.727   7
  -5  16   2 403.898 458.684   3
  -5  16   2 1192.55 685.649   7
  -5  16   1 267.562 387.823   3
  -5  16   1-244.035 310.706   7
  -5  16   0 256.133 301.391   3
  -5  16   0 126.360 209.456   7
  -5  16  -1-169.554 256.405   3
  -5  16  -1-267.943 317.584   7
  -5  16  -2 372.400 320.175   3
  -5  16  -2-471.301 410.887   7
  -5  16  -3 519.702 375.482   3
  -5  16  -3-61.3738 172.966   7
  -5  16  -4 487.692 422.204   3
  -5  16  -4 1189.26 650.793   7
  -5  16  -5 135.240 228.488   7
  -5  16  -5 295.811 254.406   3
  -5  16  -6 316.359 309.716   3
  -5  16  -6-108.301 203.805   7
  -5  16  -7 631.122 554.818   3
  -5  16  -7 542.651 463.734   7
  -5  16  -8 742.004 514.475   7
  -5  16  -8 197.227 109.717   3
  -5  16  -9 570.028 473.509   3
  -5  16  -9 296.283 226.659   7
  -5  16 -10-194.971 289.853   3
  -5  15   6 7.78784 118.325   7
  -5  15   5-188.388 282.031   7
  -5  15   4 369.414 357.585   3
  -5  15   4 474.564 337.403   7
  -5  15   3 426.230 376.779   3
  -5  15   3-365.179 370.563   7
  -5  15   2 286.337 208.538   3
  -5  15   2 1005.59 591.190   7
  -5  15   1 125.303 214.820   3
  -5  15   1-39.9427 167.865   7
  -5  15   0 54.5605 162.073   7
  -5  15   0 289.471 298.973   3
  -5  15  -1-179.466 221.845   7
  -5  15  -1 316.318 233.522   3
  -5  15  -2-227.701 215.464   3
  -5  15  -2-662.274 461.729   7
  -5  15  -3-337.048 334.256   3
  -5  15  -3 22.2140 118.753   7
  -5  15  -4 298.691 549.650   3
  -5  15  -4 101.578 196.416   7
  -5  15  -5-228.336 273.226   7
  -5  15  -5-464.017 398.547   3
  -5  15  -6-162.563 232.942   7
  -5  15  -6 59.6027 173.339   3
  -5  15  -7 605.100 374.168   3
  -5  15  -7 1302.69 631.262   7
  -5  15  -8 1364.81 758.097   3
  -5  15  -8 106.723 90.4967   7
  -5  15  -9 144.343 101.144   3
  -5  15 -10 272.836 325.700   3
  -5  15 -11 257.711 350.245   3
  -5  15 -12 41.4881 216.995   3
  -5  14   9 1003.35 616.432   7
  -5  14   8 110.845 236.526   7
  -5  14   7-190.638 284.225   7
  -5  14   6-24.2157 131.116   7
  -5  14   5 329.291 287.350   3
  -5  14   5-391.210 375.076   7
  -5  14   4-618.511 414.775   3
  -5  14   4-359.940 353.843   7
  -5  14   3 428.774 503.700   7
  -5  14   3 238.468 175.669   3
  -5  14   2 84.7047 360.965   3
  -5  14   2-227.997 286.973   7
  -5  14   1 92.7502 186.336   3
  -5  14   1 353.824 387.853   7
  -5  14   1-207.596 217.678   1
  -5  14   0-160.734 90.7221   3
  -5  14   0-37.8775 150.193   7
  -5  14  -1-183.621 149.595   7
  -5  14  -1-259.397 282.200   3
  -5  14  -2-13.9779 244.095   3
  -5  14  -2 319.705 126.836   7
  -5  14  -3 716.409 470.394   3
  -5  14  -3 1439.36 703.063   7
  -5  14  -4 689.278 433.279   3
  -5  14  -4 1292.33 524.731   7
  -5  14  -5-192.684 254.873   3
  -5  14  -5-62.8296 150.617   7
  -5  14  -6-342.482 217.434   3
  -5  14  -6 120.212 134.365   7
  -5  14  -7 1337.36 604.218   3
  -5  14  -7 1204.92 581.408   7
  -5  14  -8 82.7206 259.461   3
  -5  14  -9 496.413 457.670   3
  -5  14 -10-46.4886 210.581   3
  -5  14 -11 103.976 260.192   3
  -5  14 -12 515.305 476.283   3
  -5  14 -13-673.469 501.939   3
  -5  14 -14 79.3065 352.536   3
  -5  13  11-549.567 486.661   7
  -5  13  10-411.531 414.590   7
  -5  13   9-489.167 436.811   7
  -5  13   8 1195.94 697.142   7
  -5  13   7 695.627 512.824   7
  -5  13   6-111.831 214.584   3
  -5  13   6-379.200 361.625   7
  -5  13   5 579.061 286.328   3
  -5  13   5 758.569 517.986   7
  -5  13   4 2839.30 902.754   7
  -5  13   4 2578.38 805.618   3
  -5  13   3 410.604 349.256   3
  -5  13   3 344.629 277.782   1
  -5  13   3 356.474 307.320   7
  -5  13   2 53.7275 130.480   1
  -5  13   2 387.359 195.230   3
  -5  13   2-157.620 170.769   7
  -5  13   1 567.005 338.979   3
  -5  13   1 482.655 370.458   7
  -5  13   1 184.475 177.018   1
  -5  13   0 2237.51 694.999   1
  -5  13   0 3074.81 898.853   3
  -5  13   0 2440.14 835.648   7
  -5  13  -1 4373.93 1039.66   3
  -5  13  -1 3210.67 828.105   1
  -5  13  -1 4356.66 1080.44   7
  -5  13  -2 2840.53 853.783   3
  -5  13  -2 1844.11 659.894   7
  -5  13  -3 260.864 303.377   3
  -5  13  -3-3.75781 139.142   7
  -5  13  -4 994.432 561.322   3
  -5  13  -4 179.396 256.685   7
  -5  13  -5 920.935 469.319   3
  -5  13  -5 1160.19 539.033   7
  -5  13  -6 360.699 307.883   3
  -5  13  -6 148.536 192.603   7
  -5  13  -7 7441.35 1550.75   3
  -5  13  -8-84.9848 288.329   3
  -5  13  -9-337.650 332.780   3
  -5  13 -10-532.194 415.206   3
  -5  13 -11 467.850 116.468   3
  -5  13 -12-382.136 368.220   3
  -5  13 -13 225.975 421.957   3
  -5  13 -14 294.306 256.811   3
  -5  13 -15 843.364 699.425   3
  -5  13 -16 90.3928 346.557   3
  -5  12  13 335.751 567.547   7
  -5  12  12 451.643 585.639   7
  -5  12  11 508.472 408.385   7
  -5  12  10 468.093 370.282   7
  -5  12   9 250.831 147.252   7
  -5  12   8 233.855 268.110   7
  -5  12   7-348.283 364.714   7
  -5  12   6 11.4719 105.041   3
  -5  12   6-293.311 311.176   7
  -5  12   6-128.853 169.500   1
  -5  12   5-279.750 257.319   3
  -5  12   5 203.480 240.633   1
  -5  12   5 230.545 250.687   7
  -5  12   4 1216.89 499.126   3
  -5  12   4 1816.14 626.755   1
  -5  12   3 206.201 190.995   3
  -5  12   3 651.385 358.128   1
  -5  12   3 524.340 422.445   7
  -5  12   2 81.1985 202.299   1
  -5  12   2 469.961 269.723   3
  -5  12   2 280.878 326.401   7
  -5  12   1 1465.38 532.443   1
  -5  12   1 1874.89 629.364   3
  -5  12   1 784.092 371.671   7
  -5  12   0-54.3556 128.901   1
  -5  12   0 89.5679 158.228   3
  -5  12   0-192.357 185.296   7
  -5  12  -1 994.401 445.051   1
  -5  12  -1 617.978 359.251   7
  -5  12  -1 718.133 414.339   3
  -5  12  -2 362.818 399.083   1
  -5  12  -2 489.541 469.848   3
  -5  12  -2-98.0016 212.905   7
  -5  12  -3 3297.49 828.414   1
  -5  12  -3 2983.32 903.682   3
  -5  12  -3 2089.36 742.689   7
  -5  12  -4 296.994 217.799   3
  -5  12  -4 288.794 305.974   7
  -5  12  -5 1091.82 459.534   3
  -5  12  -5 123.625 180.673   7
  -5  12  -6 482.709 366.919   3
  -5  12  -6-88.1444 181.986   7
  -5  12  -7 1361.29 616.940   3
  -5  12  -8 3866.48 1046.18   3
  -5  12  -9 37.9408 184.000   3
  -5  12 -10 1648.88 678.170   3
  -5  12 -11-42.9274 256.819   3
  -5  12 -12 182.616 252.463   3
  -5  12 -13 719.873 531.881   3
  -5  12 -14-285.329 326.417   3
  -5  12 -15-61.8735 318.759   3
  -5  12 -16 54.4877 383.550   3
  -5  12 -17 56.6581 355.917   3
  -5  11  14 1073.72 695.005   7
  -5  11  13-28.4578 138.735   7
  -5  11  12 351.151 374.146   7
  -5  11  11 535.176 438.918   7
  -5  11  10-135.646 325.604   7
  -5  11   9-301.171 226.082   7
  -5  11   8 128.215 201.372   7
  -5  11   7-209.810 238.276   3
  -5  11   7-162.953 161.644   7
  -5  11   6-40.6994 220.227   3
  -5  11   6-33.6424 193.469   1
  -5  11   6-422.475 353.229   7
  -5  11   5 1343.62 550.313   3
  -5  11   5 1961.87 725.015   7
  -5  11   5 1727.27 625.207   1
  -5  11   4-206.610 221.189   3
  -5  11   4 804.971 424.726   7
  -5  11   4 302.401 250.440   1
  -5  11   3-617.327 350.272   1
  -5  11   3 4.33091 168.316   3
  -5  11   3-323.350 323.651   7
  -5  11   2 468.713 341.141   3
  -5  11   2-31.2375 260.818   1
  -5  11   2 506.397 306.617   7
  -5  11   1-200.727 148.395   1
   5 -11  -1-25.5966 75.3874   2
  -5  11   1-83.4385 178.073   3
  -5  11   1-150.479 310.110   7
   5 -11   0 158.522 209.114   2
  -5  11   0 118.439 220.971   3
  -5  11   0 67.7681 248.925   7
  -5  11   0-569.769 339.583   1
  -5  11  -1 1710.81 548.842   1
  -5  11  -1 1261.99 517.552   3
  -5  11  -1 823.598 416.387   7
  -5  11  -2 3692.56 857.607   1
  -5  11  -2 3410.89 849.200   3
  -5  11  -2 1754.61 630.950   7
  -5  11  -3 2128.97 662.705   1
  -5  11  -3 3242.84 838.139   3
  -5  11  -3 4717.45 999.845   7
  -5  11  -4 2541.58 715.314   1
  -5  11  -4 1904.25 616.585   7
  -5  11  -4 1567.22 552.426   3
  -5  11  -5 4762.55 968.854   7
  -5  11  -5 4085.86 986.032   3
  -5  11  -6 4377.61 1020.62   3
  -5  11  -7 366.080 263.437   3
  -5  11  -8 271.535 266.749   3
  -5  11  -9 1400.33 637.448   3
  -5  11 -10 991.367 581.474   3
  -5  11 -11 217.700 199.087   3
  -5  11 -12 48.3477 330.045   3
  -5  11 -13 228.641 232.594   3
  -5  11 -14-124.642 321.639   3
  -5  11 -15-294.746 332.316   3
  -5  11 -16 173.575 315.710   3
  -5  11 -17 421.222 429.687   3
  -5  11 -18-115.489 234.165   3
  -5  10  16-127.622 253.716   7
  -5  10  15 471.975 441.593   7
  -5  10  14-56.9604 230.160   7
  -5  10  13 1907.42 894.618   7
  -5  10  12 211.243 257.970   7
  -5  10  11 553.503 284.093   7
  -5  10  10 506.008 454.691   7
  -5  10   9 505.776 399.001   7
  -5  10   8 187.622 270.495   7
  -5  10   7 9377.00 1626.98   7
  -5  10   7 8451.45 1210.53   3
  -5  10   6 6255.36 1040.05   3
  -5  10   6 4756.91 1116.61   7
  -5  10   5 613.774 335.928   3
  -5  10   5 686.217 427.927   7
  -5  10   4 2812.76 702.530   3
  -5  10   4 4104.08 854.611   1
  -5  10   4 3411.38 887.247   7
  -5  10   3 1197.97 450.283   3
   5 -10  -3 910.725 375.283   2
  -5  10   3 1148.49 516.585   7
  -5  10   3 885.189 397.439   1
  -5  10   2 4600.52 924.000   1
   5 -10  -2 3649.57 742.374   2
  -5  10   2 4353.19 962.305   7
  -5  10   2 5184.21 945.088   3
   5 -10  -1 9537.76 1157.17   2
  -5  10   1 8432.86 1332.96   7
  -5  10   1 11528.5 1459.66   1
  -5  10   1 10194.3 1343.14   3
   5 -10   0 4302.27 777.078   2
  -5  10   0 5996.01 1040.74   3
  -5  10   0 4113.84 904.597   1
  -5  10   0 4819.33 996.963   7
  -5  10  -1-91.6420 81.9229   3
  -5  10  -1 44.6803 174.332   7
  -5  10  -1 72.8539 102.128   1
  -5  10  -2-11.1632 229.443   1
  -5  10  -2-254.291 279.617   7
  -5  10  -2 30.7740 121.705   3
  -5  10  -3 3849.28 869.442   3
  -5  10  -3 3648.88 819.592   7
  -5  10  -3 3918.41 870.787   1
  -5  10  -4-124.228 151.526   1
  -5  10  -4-95.0006 338.072   3
  -5  10  -4 103.010 181.697   7
  -5  10  -5 3019.09 748.868   3
  -5  10  -5 3323.05 768.243   7
  -5  10  -6 415.468 267.084   3
  -5  10  -7 159.945 141.913   3
  -5  10  -8 184.363 173.574   3
  -5  10  -9 4319.82 1019.13   3
  -5  10 -10 2331.57 785.450   3
  -5  10 -11 1416.80 614.636   3
  -5  10 -12 1158.55 580.698   3
  -5  10 -13 234.623 216.801   3
  -5  10 -14 634.639 518.444   3
  -5  10 -15 124.226 303.795   3
  -5  10 -16 495.697 538.962   3
  -5  10 -17 125.453 235.697   3
  -5  10 -18 1089.21 694.179   3
  -5  10 -19 260.819 440.545   3
  -5   9  17 320.752 366.985   7
  -5   9  16 110.936 241.489   7
  -5   9  15 1160.73 613.826   7
  -5   9  14-8.15911 447.870   7
  -5   9  13-794.290 530.501   7
  -5   9  12 275.636 376.711   7
  -5   9  11-28.3138 146.232   7
  -5   9  10 595.683 480.919   7
  -5   9   9 379.020 290.246   7
  -5   9   8 11.6353 184.788   7
  -5   9   7-38.1044 201.488   3
  -5   9   7 610.704 448.188   7
  -5   9   6 1516.08 477.650   3
  -5   9   6 486.093 310.407   7
  -5   9   5 1144.04 440.122   3
  -5   9   5 1101.13 498.539   7
  -5   9   4 7869.63 1307.93   7
  -5   9   4 8012.96 1102.23   3
  -5   9   3 1714.42 547.450   3
  -5   9   3 2233.54 689.343   7
   5  -9  -2 6277.83 978.460   2
  -5   9   2 7253.29 1172.48   7
  -5   9   2 7265.72 1138.08   1
  -5   9   2 7233.92 1056.69   3
  -5   9   1 8639.72 1253.08   1
  -5   9   1 9148.60 1214.21   3
   5  -9  -1 6695.78 985.801   2
  -5   9   1 7498.31 1187.70   7
  -5   9   0 16837.2 1661.64   3
   5  -9   0 13509.2 1366.01   2
  -5   9   0 14773.9 1638.08   1
  -5   9   0 14600.5 1618.28   7
   5  -9   1 938.532 326.190   2
  -5   9  -1 982.797 383.768   1
  -5   9  -1 640.814 301.649   3
  -5   9  -1 879.540 426.613   7
  -5   9  -2-50.9289 224.995   3
  -5   9  -2 355.951 249.137   7
  -5   9  -2 370.113 223.431   1
  -5   9  -3 118.226 203.448   7
  -5   9  -3 261.470 176.293   1
  -5   9  -3-69.0336 209.437   3
  -5   9  -4 3577.93 804.095   1
  -5   9  -4 2741.63 714.033   3
  -5   9  -4 2864.97 680.603   7
  -5   9  -5 4683.37 957.095   3
  -5   9  -5 3774.05 857.053   1
  -5   9  -6 1069.88 495.184   3
  -5   9  -7 118.354 210.548   3
  -5   9  -8 300.499 259.840   3
  -5   9  -9 1506.16 568.428   3
  -5   9 -10 15.8542 339.526   3
  -5   9 -11 3432.27 943.491   3
  -5   9 -12 5983.43 1245.73   3
  -5   9 -13-87.9395 223.311   3
  -5   9 -14 919.262 515.214   3
  -5   9 -15-174.643 235.227   3
  -5   9 -16 403.630 403.516   3
  -5   9 -17-530.279 426.726   3
  -5   9 -18 430.846 477.798   3
  -5   9 -19 44.3017 279.617   3
  -5   9 -20-299.426 352.399   3
  -5   8  18 28.8992 159.713   7
  -5   8  17 638.181 650.816   7
  -5   8  16 506.916 497.505   7
  -5   8  15 232.489 351.526   7
  -5   8  14 805.922 561.739   7
  -5   8  13-38.5952 128.947   7
  -5   8  12-43.1344 286.361   7
  -5   8  11 4121.33 1103.41   7
  -5   8  10 2913.72 895.203   7
  -5   8   9-59.9817 347.836   7
  -5   8   8 184.509 192.013   7
  -5   8   7 6466.13 1210.31   7
  -5   8   7 7356.12 981.956   3
  -5   8   6 1358.27 412.380   3
  -5   8   6 1767.02 558.039   7
  -5   8   5 3542.17 657.707   3
  -5   8   5 4033.89 913.508   7
  -5   8   4 1069.71 369.917   3
  -5   8   4 828.287 363.252   7
  -5   8   3 3511.44 794.642   7
  -5   8   3 4733.89 773.920   3
   5  -8  -2 10860.7 1300.23   2
  -5   8   2 11026.2 1373.34   7
  -5   8   2 12935.8 1320.38   3
  -5   8   1 10988.8 1236.90   3
   5  -8  -1 10001.5 1217.34   2
  -5   8   1 9863.41 1310.00   1
  -5   8   1 10044.6 1268.99   7
  -5   8   0 396.891 341.093   1
   5  -8   0 366.642 212.601   2
   5  -8   0 505.234 146.650   6
  -5   8   0 397.355 194.629   3
  -5   8   0 862.900 386.717   7
   5  -8   1 155.260 110.955   2
  -5   8  -1 355.516 271.573   1
  -5   8  -1 583.054 245.470   3
  -5   8  -1-127.930 137.904   7
  -5   8  -2 851.278 406.923   1
  -5   8  -2 1121.17 405.248   7
  -5   8  -2 1546.52 489.247   3
  -5   8  -3 16898.4 1643.08   3
  -5   8  -3 15670.6 1646.40   1
  -5   8  -3 15891.8 1478.16   7
  -5   8  -4 2151.06 620.998   1
  -5   8  -4 2188.47 641.896   3
  -5   8  -4 1381.87 423.951   7
  -5   8  -5 14823.2 1652.78   3
  -5   8  -5 16100.9 1693.26   1
  -5   8  -6 7733.77 1219.50   3
  -5   8  -6 4989.17 985.217   1
  -5   8  -7 1347.38 581.382   3
  -5   8  -8 6301.59 1158.05   3
  -5   8  -9 3094.07 821.001   3
  -5   8 -10 282.798 321.200   3
  -5   8 -11 326.872 439.321   3
  -5   8 -12 3741.67 928.642   3
  -5   8 -13 3393.14 964.205   3
  -5   8 -14-27.5430 238.626   3
  -5   8 -15 63.4908 182.095   3
  -5   8 -16 103.733 400.954   3
  -5   8 -17 488.555 381.834   3
  -5   8 -18 454.771 356.446   3
  -5   8 -19-658.927 484.426   3
  -5   8 -20-583.883 469.640   3
  -5   8 -21-400.872 403.724   3
  -5   7  19-500.421 472.789   7
  -5   7  18 616.785 493.038   7
  -5   7  17-581.811 484.645   7
  -5   7  16-480.983 524.525   7
  -5   7  15 594.850 459.519   7
  -5   7  14 125.898 186.337   7
  -5   7  13 1393.48 741.172   7
  -5   7  12-180.244 363.955   7
  -5   7  11 2551.50 786.901   7
  -5   7  10-267.094 458.407   7
  -5   7   9 1136.91 492.046   7
  -5   7   8 2832.81 777.701   7
  -5   7   7-10.4596 116.155   3
  -5   7   7 349.255 238.450   7
  -5   7   6 11638.5 1524.46   7
  -5   7   6 9548.34 1004.31   3
  -5   7   5 14.8473 119.663   7
  -5   7   5-53.9171 71.8355   3
  -5   7   5-5.31342 28.0016   5
  -5   7   4 428.243 158.955   5
  -5   7   4 255.488 188.448   3
  -5   7   4-154.575 255.633   7
  -5   7   3 1456.25 385.728   3
  -5   7   3 1559.37 509.309   7
  -5   7   2 3913.86 671.179   3
  -5   7   2 3048.38 688.745   7
  -5   7   1 1227.00 386.378   3
   5  -7  -1 1078.82 387.105   2
  -5   7   1 1013.14 344.050   7
  -5   7   0 10314.1 1133.99   3
   5  -7   0 10247.0 1192.55   2
  -5   7   0 11301.9 1229.64   7
  -5   7   0 9097.04 1204.75   1
   5  -7   0 9640.03 579.521   6
  -5   7  -1 3618.04 759.744   1
   5  -7   1 3051.44 654.790   2
  -5   7  -1 3455.77 678.692   3
  -5   7  -1 3637.14 694.772   7
   5  -7   1 3222.22 396.004   6
  -5   7  -2 298.264 247.462   1
  -5   7  -2 497.671 256.834   7
  -5   7  -2 976.748 366.401   3
  -5   7  -3 2712.47 682.620   1
  -5   7  -3 2009.69 492.022   7
  -5   7  -3 2746.05 624.799   3
  -5   7  -4 4995.05 886.214   3
  -5   7  -4 6259.63 840.915   7
  -5   7  -5 195.143 130.248   3
  -5   7  -5 198.350 274.494   1
  -5   7  -6 12310.7 1470.79   3
  -5   7  -6 13778.4 1540.41   1
  -5   7  -7 375.147 392.546   3
  -5   7  -8 5781.27 1071.51   3
  -5   7  -9 171.105 183.151   3
  -5   7 -10 1807.26 633.084   3
  -5   7 -10 1115.65 429.202   6
  -5   7 -11 2966.93 843.278   3
  -5   7 -11 3333.13 761.369   6
  -5   7 -12 3042.55 870.730   3
  -5   7 -12 2222.97 652.593   6
  -5   7 -13 634.452 362.690   3
  -5   7 -13 607.796 346.202   6
  -5   7 -14 50.9925 314.415   3
  -5   7 -14-174.393 312.993   6
  -5   7 -15 430.434 364.282   3
  -5   7 -15 56.9819 183.187   6
  -5   7 -16 862.760 557.332   3
  -5   7 -16 1797.62 723.836   6
  -5   7 -17 397.078 482.663   3
  -5   7 -17-161.841 226.055   6
  -5   7 -18 857.734 604.179   3
  -5   7 -19-253.889 307.982   3
  -5   7 -20 85.6776 203.687   3
  -5   7 -21 0.91676 285.279   3
  -5   6  20 1374.39 861.470   7
  -5   6  19 233.752 412.309   7
  -5   6  18-30.9857 159.249   7
  -5   6  17 759.603 582.118   7
  -5   6  16-414.028 514.259   7
  -5   6  15 1876.24 810.391   7
  -5   6  14 924.513 514.975   7
  -5   6  13-139.282 339.528   7
  -5   6  12 12280.0 1854.34   7
  -5   6  11 8118.72 1460.98   7
  -5   6  10-324.871 439.860   7
   5  -6 -10 110.222 109.145   6
  -5   6   9 500.564 287.416   7
  -5   6   8 1404.59 560.197   7
  -5   6   7 1364.74 341.434   3
  -5   6   7 1373.19 523.922   7
  -5   6   6 3627.25 560.505   3
  -5   6   6 3872.69 852.480   7
  -5   6   5 7556.12 578.679   5
  -5   6   5 8159.06 1182.67   7
  -5   6   5 8879.27 877.512   3
  -5   6   4 7671.63 670.137   5
  -5   6   4 9606.39 1221.65   7
  -5   6   4 8026.48 848.623   3
  -5   6   3 2098.36 435.307   3
  -5   6   3 1537.53 464.994   7
  -5   6   2 980.964 307.094   3
  -5   6   2 1205.32 391.693   7
  -5   6   1 30630.5 1773.81   3
   5  -6  -1 29833.0 2066.59   2
  -5   6   1 32125.8 1976.59   7
  -5   6   0 57.2359 125.094   3
  -5   6   0-36.3530 134.534   7
   5  -6   0 90.3880 105.782   2
   5  -6   1 3879.12 731.860   2
  -5   6  -1 3380.16 613.641   7
  -5   6  -1 4316.99 716.236   3
  -5   6  -2 3398.53 647.866   3
   5  -6   2 2227.61 551.906   2
  -5   6  -2 3314.52 576.540   7
  -5   6  -3 2939.43 644.391   3
  -5   6  -3 2889.88 523.878   7
  -5   6  -4 10785.3 1253.91   3
  -5   6  -4 11101.4 1011.84   7
  -5   6  -5 140.507 146.148   3
  -5   6  -5 555.738 230.702   6
  -5   6  -6 387.802 245.758   3
  -5   6  -6 550.864 224.855   6
  -5   6  -7 5148.32 958.770   3
  -5   6  -7 4446.39 722.884   6
  -5   6  -8 5716.32 1007.99   3
  -5   6  -8 5649.78 862.460   6
  -5   6  -9 3819.47 835.026   3
  -5   6  -9 2965.07 656.940   6
  -5   6 -10 188.391 176.975   3
  -5   6 -10 171.882 193.298   6
  -5   6 -11 1191.36 441.360   3
  -5   6 -11 1766.83 563.395   6
  -5   6 -12 4733.39 1045.60   3
  -5   6 -12 4243.40 899.051   6
  -5   6 -13-154.443 149.869   3
  -5   6 -13 304.853 227.939   6
  -5   6 -14 1191.65 550.049   3
  -5   6 -14 893.254 433.091   6
  -5   6 -15 401.171 379.694   3
  -5   6 -15 1290.36 540.610   6
  -5   6 -16 186.147 136.268   3
  -5   6 -16 32.3307 119.998   6
  -5   6 -17 1188.16 648.622   3
  -5   6 -17 230.398 248.071   6
  -5   6 -18 249.302 324.290   3
  -5   6 -18 273.041 288.881   6
  -5   6 -19-471.178 403.915   3
  -5   6 -19-428.199 366.363   6
  -5   6 -20-199.447 281.069   3
  -5   6 -20-819.142 514.184   6
  -5   6 -21-1046.23 619.879   3
  -5   6 -21-50.2893 157.774   6
  -5   6 -22 132.079 248.983   3
  -5   5  21-196.485 317.819   7
  -5   5  20 851.869 596.725   7
  -5   5  19 620.714 542.426   7
  -5   5  18 1096.63 669.722   7
  -5   5  17-35.6763 147.011   7
  -5   5  16 245.489 294.175   7
  -5   5  15 1298.33 654.024   7
  -5   5  14 387.390 147.960   7
  -5   5  13 469.708 284.217   7
  -5   5  12 7228.66 1420.59   7
  -5   5  11 1959.08 690.857   7
  -5   5  10 1571.85 564.148   7
  -5   5   9 1585.93 548.880   7
  -5   5   8-143.166 248.928   7
  -5   5   7-79.3651 246.635   7
   5  -5  -7 195.183 120.209   3
  -5   5   6 2808.97 427.040   3
   5  -5  -6 3055.26 426.865   3
  -5   5   6 3851.19 793.898   7
  -5   5   5 5943.72 537.051   5
  -5   5   5 6146.45 989.106   7
   5  -5  -5 5735.25 601.301   3
  -5   5   5 6533.20 665.200   3
  -5   5   4 1463.68 306.434   3
  -5   5   4 1241.05 272.254   5
  -5   5   4 1311.42 434.407   7
  -5   5   3 53845.6 2030.05   3
  -5   5   3 49553.9 1877.12   5
  -5   5   3 56799.1 2691.09   7
  -5   5   2 53821.1 2112.29   3
  -5   5   2 55539.3 2544.68   7
   5  -5  -1 1685.52 528.675   2
  -5   5   1 1648.45 420.842   7
  -5   5   1 1847.75 410.505   3
  -5   5   0 90.3821 142.748   7
   5  -5   0-10.0624 220.006   2
  -5   5   0 96.5104 93.8615   3
  -5   5  -1 816.211 286.166   3
   5  -5   1 796.216 375.247   2
  -5   5  -1 1048.33 292.961   7
  -5   5  -2 80.1700 147.803   3
   5  -5   2 134.780 62.0713   2
  -5   5  -2-47.5592 84.6484   7
  -5   5  -2-73.9438 105.019   6
  -5   5  -3 704.385 334.770   3
  -5   5  -3 673.431 215.576   7
  -5   5  -3 392.437 151.411   6
  -5   5  -4 36883.6 1658.23   7
  -5   5  -4 38433.9 1628.29   7
  -5   5  -4 40339.1 2332.82   3
  -5   5  -4 39137.5 1771.95   6
  -5   5  -5 10371.3 857.896   7
  -5   5  -5 12078.8 1334.01   3
  -5   5  -5 10303.7 979.355   6
  -5   5  -6 549.877 231.620   6
  -5   5  -6 506.188 176.442   7
  -5   5  -7 1240.04 375.988   6
  -5   5  -7 836.649 347.602   3
  -5   5  -7 734.978 212.130   7
  -5   5  -8 457.345 273.856   6
  -5   5  -8 112.536 95.5162   7
  -5   5  -8 503.957 328.026   3
  -5   5  -9-7.90314 168.999   6
  -5   5 -10 80.2451 180.996   6
  -5   5 -11 2441.03 657.764   6
  -5   5 -12 203.357 204.267   6
   5  -5  12 349.079 172.633   7
  -5   5 -13 3839.23 848.003   6
  -5   5 -14 704.787 403.439   6
  -5   5 -15 1181.07 530.740   6
  -5   5 -16-835.133 456.095   6
  -5   5 -17 73.1893 206.175   3
  -5   5 -17-74.9384 216.348   6
  -5   5 -18 432.343 319.529   3
  -5   5 -18-285.592 292.842   6
  -5   5 -19 263.260 309.212   3
  -5   5 -19-700.278 463.031   6
  -5   5 -20 40.8326 158.500   3
  -5   5 -20-309.096 323.605   6
  -5   5 -21-176.197 275.096   3
  -5   5 -21 165.596 229.586   6
  -5   5 -22-370.538 387.441   3
  -5   4  22 349.740 412.894   7
  -5   4  21 291.804 156.824   7
  -5   4  20-683.881 533.419   7
  -5   4  19 542.396 512.826   7
  -5   4  18 1856.92 740.650   7
  -5   4  17 171.585 327.123   7
  -5   4  16 139.790 218.494   7
  -5   4  15 646.419 384.334   7
  -5   4  14 8474.55 1575.84   7
  -5   4  13-259.855 398.580   7
  -5   4  12 81.1561 134.450   7
  -5   4  11 7793.42 1363.01   7
  -5   4  10 9983.12 1448.94   7
   5  -4  -9 20567.2 885.399   3
  -5   4   9 22541.8 2121.09   7
   5  -4  -8 1361.46 180.521   5
  -5   4   8 1376.99 538.925   7
   5  -4  -8 1233.53 214.717   3
   5  -4  -7 2971.41 299.988   5
   5  -4  -7 2709.29 319.521   3
  -5   4   7 3021.27 698.457   7
  -5   4   6 272.721 103.670   3
   5  -4  -6 221.524 92.3273   5
   5  -4  -6 132.274 70.5881   3
  -5   4   6 93.6805 76.1884   7
   5  -4  -5 12489.4 751.164   5
  -5   4   5 11826.6 810.116   5
  -5   4   5 11954.6 1306.40   7
  -5   4   5 11912.1 757.396   3
  -5   4   4 931.636 226.315   3
   5  -4  -4 1167.17 256.580   5
  -5   4   4 1030.67 256.450   5
  -5   4   4 1329.31 385.572   7
  -5   4   3 5228.26 567.222   3
   5  -4  -3 5393.01 578.237   5
  -5   4   3 5308.12 624.524   5
  -5   4   3 6001.39 828.235   7
   5  -4  -2 8277.28 743.412   5
  -5   4   2 8309.29 915.484   7
  -5   4   2 7417.78 718.202   3
  -5   4   1 787.032 248.767   3
   5  -4  -1 1248.18 313.048   5
   5  -4  -1 629.022 304.226   2
  -5   4   1 1102.59 323.470   7
  -5   4   1 772.132 127.540   6
   5  -4   0 2566.54 470.203   5
  -5   4   0 2680.76 485.382   3
  -5   4   0 1845.84 379.261   7
   5  -4   0 2329.27 560.173   2
  -5   4   0 2267.48 273.713   6
  -5   4  -1 1330.56 243.115   6
   5  -4   1 1067.67 357.912   2
  -5   4  -1 1072.08 303.048   3
  -5   4  -1 1495.99 325.173   7
  -5   4  -2 3669.88 464.309   7
  -5   4  -2 3979.19 649.080   3
   5  -4   2 3504.57 710.454   2
  -5   4  -2 3552.62 446.280   6
  -5   4  -3 61806.0 2696.87   3
  -5   4  -3 58378.8 1750.23   7
  -5   4  -3 59179.5 1993.74   6
  -5   4  -4 82454.6 2053.98   7
  -5   4  -4 80459.3 1944.17   7
  -5   4  -4 86105.1 2620.90   6
  -5   4  -5 9375.47 667.239   7
  -5   4  -5 9252.33 638.223   7
  -5   4  -5 9779.23 954.423   6
  -5   4  -6 1283.77 372.264   6
  -5   4  -6 464.631 152.110   7
  -5   4  -7 20331.2 986.314   7
  -5   4  -7 22807.6 1620.08   6
  -5   4  -8 27696.3 1210.30   7
  -5   4  -8 33072.4 2057.90   6
  -5   4  -9 12796.1 871.989   7
  -5   4  -9 13492.8 1389.69   6
  -5   4 -10 23.4050 185.158   6
   5  -4  10 90.6767 86.0592   7
  -5   4 -11 525.192 231.162   6
   5  -4  11 1295.04 324.567   7
  -5   4 -12 4557.99 903.291   6
   5  -4  12 3783.99 592.629   7
  -5   4 -13 644.892 351.687   6
  -5   4 -14 861.335 405.171   6
  -5   4 -15 59.3052 110.482   6
  -5   4 -16 555.006 362.902   6
  -5   4 -17 134.849 252.922   6
  -5   4 -18-158.162 227.260   6
  -5   4 -19 3.66407 96.2118   6
  -5   4 -20 97.0884 181.036   6
  -5   4 -21-132.638 231.451   6
  -5   4 -22-204.589 294.886   3
  -5   3  22 51.5810 176.456   7
  -5   3  21-517.972 474.209   7
  -5   3  20-46.9764 268.012   7
  -5   3  19-19.8688 142.889   7
  -5   3  18 224.410 308.956   7
  -5   3  17-125.513 281.466   7
  -5   3  16 2390.60 885.945   7
  -5   3  15 5028.60 1269.11   7
  -5   3  14 663.181 608.083   7
  -5   3  13 6488.37 1291.85   7
  -5   3  12 3135.73 844.571   7
   5  -3 -12 1783.71 324.601   5
   5  -3 -11 16721.7 957.023   5
  -5   3  11 17586.2 1975.32   7
   5  -3 -10 1010.55 147.257   3
  -5   3  10 1368.49 600.465   7
   5  -3  -9 725.943 185.357   5
  -5   3   9 907.710 447.097   7
   5  -3  -8 5968.12 555.946   5
  -5   3   8 5317.56 957.808   7
  -5   3   7 350.615 117.814   6
   5  -3  -7 371.085 142.526   5
  -5   3   7 375.337 238.757   7
   5  -3  -6 6054.46 591.160   5
  -5   3   6 5369.93 895.279   7
  -5   3   6 4783.18 341.160   3
  -5   3   6 5331.04 401.319   6
   5  -3  -5 20486.3 1106.47   5
  -5   3   5 20774.1 1638.17   7
  -5   3   5 17656.6 612.185   6
  -5   3   5 18724.0 766.292   3
   5  -3  -4 132.583 69.5893   5
  -5   3   4 77.5140 53.1356   3
  -5   3   4 73.1288 68.9309   5
  -5   3   4-21.8141 153.151   7
  -5   3   3 14261.6 832.145   3
   5  -3  -3 15198.4 1016.16   5
  -5   3   3 16532.7 1286.76   7
  -5   3   2 22982.6 1423.72   7
   5  -3  -2 24944.6 1355.41   5
  -5   3   2 25103.2 1208.18   3
   5  -3  -1 33758.6 1636.41   5
  -5   3   1 30107.9 1527.31   7
  -5   3   1 32451.9 1476.29   3
   5  -3   0 4693.06 633.551   5
  -5   3   0 4398.78 532.344   7
   5  -3   0 4185.76 506.368   7
  -5   3   0 4614.64 418.697   6
  -5   3  -1 10.0714 46.3574   6
  -5   3  -1-16.1637 88.6792   7
   5  -3   2 5924.09 787.984   5
  -5   3  -2 4739.21 523.451   6
  -5   3  -2 5910.12 494.840   7
  -5   3  -3 3235.77 476.930   6
   5  -3   3 4159.73 681.226   5
  -5   3  -3 3551.23 332.915   7
  -5   3  -4 265.577 139.522   6
   5  -3   4 620.855 322.504   5
  -5   3  -4 195.842 79.7226   7
  -5   3  -4 166.976 71.1513   7
  -5   3  -5 3588.77 587.496   6
  -5   3  -6 1154.26 324.129   6
  -5   3  -6 1215.95 166.473   7
  -5   3  -6 1298.29 389.424   1
  -5   3  -7 4033.10 342.015   7
  -5   3  -7 5144.06 773.376   6
  -5   3  -8 14207.1 732.334   7
  -5   3  -8 16104.8 1451.67   6
  -5   3  -9 3132.03 672.361   6
   5  -3   9 2514.18 360.282   7
  -5   3  -9 2045.31 310.814   7
  -5   3 -10 681.127 350.911   6
   5  -3  10 326.512 160.274   7
  -5   3 -11 5551.58 978.798   6
   5  -3  11 5304.48 635.699   7
  -5   3 -12 402.430 301.187   6
   5  -3  12 172.259 96.0433   7
  -5   3 -13 5932.91 1078.72   6
  -5   3 -14 8054.64 1314.09   6
  -5   3 -15 312.943 315.351   6
  -5   3 -16 23.7126 111.124   6
  -5   3 -17 1090.02 499.908   6
  -5   3 -18 1365.78 587.265   6
  -5   3 -19-314.008 315.205   6
  -5   3 -20-24.8919 145.250   6
  -5   3 -21 32.3419 154.319   6
  -5   2  23-152.283 276.176   7
  -5   2  22 213.705 320.939   7
  -5   2  21-571.630 490.828   7
  -5   2  20-945.491 596.970   7
  -5   2  19 2387.68 971.508   7
  -5   2  18-273.310 348.562   7
  -5   2  17 1521.81 774.146   7
  -5   2  16 5641.44 1318.88   7
  -5   2  15 5335.18 1200.99   7
  -5   2  14 121.813 162.618   7
  -5   2  13 3151.14 851.957   7
   5  -2 -12 64.1279 44.9232   3
  -5   2  12 100.449 200.240   7
  -5   2  11 786.772 426.000   7
  -5   2  10 179.005 129.623   7
   5  -2 -10 69.7177 62.2246   5
   5  -2  -9 9382.70 824.548   5
  -5   2   9 9457.22 1342.26   7
   5  -2  -8 24810.0 1345.39   5
  -5   2   8 27337.1 2142.92   7
  -5   2   7 178.020 103.781   6
   5  -2  -7 100.617 62.4815   5
  -5   2   7 368.900 205.202   7
  -5   2   6-23.1976 199.902   7
   5  -2  -6 7.20132 44.1269   5
  -5   2   6 57.0520 39.6269   6
   5  -2  -5 17737.6 1126.49   5
  -5   2   5 16768.2 1413.99   7
  -5   2   4 8032.60 487.082   3
   5  -2  -4 8077.53 783.163   5
  -5   2   4 8247.34 937.370   7
   5  -2  -3 83263.6 2583.88   5
  -5   2   3 85138.6 1866.59   3
  -5   2   3 88952.8 2860.66   7
   5  -2  -2 26532.3 1484.07   5
  -5   2   2 28735.0 1508.37   7
   5  -2  -1-19.7897 106.758   5
  -5   2   1 54.3668 46.9214   7
   5  -2  -1 221.334 123.732   7
   5  -2   0 1547.76 381.255   5
  -5   2   0 1234.45 253.304   7
   5  -2   0 1068.91 227.844   7
   5  -2   1 20277.3 1408.65   5
  -5   2  -1 19609.5 880.267   7
   5  -2   1 21131.0 874.859   7
   5  -2   2 4178.30 650.253   5
  -5   2  -2 3946.33 313.622   7
   5  -2   3 10426.4 1091.81   5
   5  -2   4 125247. 3841.24   5
  -5   2  -4 124433. 3784.26   1
   5  -2   5 13553.4 1314.11   5
  -5   2  -5 12523.2 1209.14   1
  -5   2  -5 12280.9 1103.49   6
  -5   2  -6 1154.01 350.567   6
   5  -2   6 745.947 316.680   5
  -5   2  -6 1260.74 386.430   1
  -5   2  -7 20626.1 1592.31   6
   5  -2   8 8257.03 548.681   7
  -5   2  -8 7249.85 489.622   7
  -5   2  -8 10003.9 1164.75   6
  -5   2  -9 3471.71 711.384   6
  -5   2  -9 3069.49 372.001   7
   5  -2   9 3624.25 429.584   7
  -5   2 -10 476.265 322.911   6
   5  -2  10 506.511 169.590   7
  -5   2 -11 164.252 111.178   6
   5  -2  11-5.06169 125.185   7
  -5   2 -12 288.430 274.225   6
   5  -2  12 148.378 103.387   7
  -5   2 -13 7959.23 1249.51   6
  -5   2 -14 370.686 255.779   6
  -5   2 -15 949.792 470.062   6
  -5   2 -16 220.371 268.998   6
  -5   2 -17-83.4640 162.811   6
  -5   2 -18 0.68291 100.120   6
  -5   2 -19-45.9541 214.503   6
  -5   2 -20 216.001 324.340   6
  -5   2 -21 187.651 196.556   6
  -5   1  23 137.358 259.828   7
  -5   1  22 32.4660 222.325   7
  -5   1  21 47.9259 256.469   7
  -5   1  20 293.257 569.758   7
  -5   1  19 568.001 482.575   7
  -5   1  18 496.713 340.990   7
  -5   1  17 1543.39 744.054   7
  -5   1  16-92.3925 193.145   7
  -5   1  15 2397.58 811.793   7
  -5   1  14 3948.16 1010.83   7
   5  -1 -13 2488.35 308.207   3
  -5   1  13 2905.58 893.985   7
  -5   1  12 108.014 268.362   7
   5  -1 -12 116.447 51.4646   3
  -5   1  11 2176.50 665.078   7
  -5   1  10 744.967 336.678   7
  -5   1   9 5441.14 987.296   7
   5  -1  -8 8069.25 830.515   5
  -5   1   8 7943.70 1109.08   7
   5  -1  -7 1015.00 298.936   5
  -5   1   7 1093.07 393.233   7
  -5   1   6 553.790 291.822   7
   5  -1  -6 346.113 201.132   5
   5  -1  -5 27864.7 1544.26   5
  -5   1   5 28433.7 1805.36   7
  -5   1   4 743.467 276.731   7
   5  -1  -4 1007.97 283.921   5
   5  -1  -3 5190.13 681.116   5
  -5   1   3 4734.32 639.939   7
   5  -1  -2 13726.7 1136.90   5
  -5   1   2 12467.5 958.149   7
   5  -1  -2 12288.9 917.073   7
  -5   1   1 4193.34 504.975   7
   5  -1  -1 3541.95 591.691   5
   5  -1  -1 4063.66 480.962   7
  -5   1   0 49004.7 1524.84   7
   5  -1   0 52399.7 2312.76   5
   5  -1   0 50004.4 1458.23   7
   5  -1   1 308.799 237.639   5
  -5   1  -1 344.800 105.795   7
   5  -1   1 374.222 105.373   7
   5  -1   2 86047.6 3087.30   5
   5  -1   3 41209.3 2187.03   5
  -5   1  -3 41534.6 2073.59   1
   5  -1   4 22342.7 1654.32   5
  -5   1  -4 20452.1 1448.52   1
   5  -1   5 8476.75 1054.81   5
  -5   1  -5 10262.2 1059.42   1
   5  -1   6 9272.59 1119.66   5
  -5   1  -6 8111.75 929.660   1
   5  -1   7 13937.6 1397.84   5
   5  -1   7 12669.2 616.840   7
  -5   1  -8 1510.65 442.215   6
   5  -1   8 1215.74 413.126   5
   5  -1   8 1094.29 221.787   7
  -5   1  -8 984.762 201.083   7
  -5   1  -9 2162.83 581.913   6
   5  -1   9 1597.05 304.710   7
  -5   1  -9 1369.80 267.431   7
  -5   1 -10 355.457 272.465   6
   5  -1  10 1.06128 46.2866   7
  -5   1 -11 3568.08 786.286   6
   5  -1  11 2198.72 435.139   7
  -5   1 -12 1179.75 490.340   6
   5  -1  12 852.977 297.060   7
  -5   1 -13-257.394 322.588   6
  -5   1 -14 768.406 436.183   6
  -5   1 -15 3510.59 892.973   6
  -5   1 -16 194.105 222.703   6
  -5   1 -17-66.3186 395.421   6
  -5   1 -18-6.88324 197.047   6
  -5   1 -19-341.002 330.494   6
  -5   1 -20 307.805 227.209   6
  -5   1 -21 208.812 506.309   6
  -5   0  24-808.691 606.706   7
  -5   0  23-150.354 268.649   7
  -5   0  22 188.655 391.042   7
  -5   0  21 241.533 315.380   7
  -5   0  20 1240.69 685.258   7
  -5   0  19-211.638 238.966   7
  -5   0  18-319.021 326.818   7
  -5   0  17 1401.92 718.313   7
  -5   0  16 1327.28 640.590   7
  -5   0  15 16046.1 2072.47   7
  -5   0  14 102.091 192.521   7
   5   0 -13 15735.4 856.753   3
  -5   0  13 17698.7 2024.99   7
  -5   0  12-57.1984 161.348   7
   5   0 -12-5.15850 26.7746   3
  -5   0  11 13351.5 1639.05   7
   5   0 -11 11391.2 568.488   3
  -5   0  10 491.398 253.220   7
  -5   0   9 532.833 287.897   7
  -5   0   8 3120.39 677.295   7
  -5   0   7-81.8874 263.413   7
   5   0  -6 146449. 3778.75   5
  -5   0   6 149725. 4374.06   7
   5   0  -5 16239.8 1251.03   5
  -5   0   5 16268.0 1345.17   7
  -5   0   5 14349.1 627.075   3
   5   0  -4 1676.68 410.128   5
  -5   0   4 1876.65 266.661   3
  -5   0   4 1693.61 405.454   7
  -5   0   3 1363.84 344.350   7
   5   0  -3 1339.62 370.470   5
   5   0  -2 89.6312 100.485   5
  -5   0   2 140.879 111.702   7
   5   0  -2 260.205 132.150   7
   5   0  -1 2359.52 372.605   7
  -5   0   1 2337.01 374.202   7
   5   0  -1 2729.30 528.158   5
   5   0   0 3596.34 406.259   7
  -5   0   0 3157.57 396.193   7
   5   0   0 3784.72 644.909   5
  -5   0  -1 180.611 92.6514   7
   5   0   1 220.081 143.069   5
   5   0   1 469.588 125.570   7
   5   0   2 19566.7 1533.59   5
   5   0   2 17596.8 666.155   7
   5   0   3 70475.7 2937.90   5
  -5   0  -3 67603.6 2504.39   1
   5   0   4 43417.5 2350.72   5
  -5   0  -4 43508.0 2000.00   1
   5   0   5 3678.62 705.571   5
  -5   0  -5 3450.30 583.101   1
   5   0   5 2589.56 249.634   7
   5   0   6 11551.3 1262.10   5
  -5   0  -6 11532.9 1048.57   1
   5   0   6 10643.0 607.158   7
   5   0   7-81.6853 282.819   5
   5   0   7-50.8615 36.4225   7
   5   0   8 18328.8 1666.37   5
   5   0   8 18217.1 1034.54   7
   5   0   8 19028.1 1770.86   4
  -5   0  -9 1466.05 568.667   6
   5   0   9 1338.69 447.438   5
   5   0   9 2023.70 377.355   7
   5   0   9 1431.50 507.296   4
   5   0  10 21272.1 1347.92   7
   5   0  10 21259.6 1952.02   4
  -5   0 -10 20742.1 1874.86   6
  -5   0 -11 288.666 318.175   6
   5   0  11 46.1339 131.921   7
   5   0  11-128.239 168.244   4
  -5   0 -12 2381.46 687.856   6
   5   0  12 2372.10 516.813   7
   5   0  12 1559.73 520.304   4
  -5   0 -13-930.676 441.608   6
   5   0  13 461.156 240.620   7
   5   0  13-726.918 388.901   4
  -5   0 -14-109.231 115.732   6
   5   0  14 109.310 106.661   4
  -5   0 -15-17.7569 245.494   6
  -5   0 -16 20.8583 208.091   6
  -5   0 -17 932.807 555.152   6
  -5   0 -18 283.540 300.069   6
  -5   0 -19 87.7023 205.753   6
  -5   0 -20 151.942 317.048   6
  -5   0 -21 6701.27 1696.18   6
  -5  -1  24 241.651 594.191   7
  -5  -1  23 246.118 257.961   7
  -5  -1  22-0.97700 479.148   7
  -5  -1  21-171.459 225.020   7
  -5  -1  20 1684.95 805.808   7
  -5  -1  19 1031.81 612.845   7
  -5  -1  18-6.14400 157.703   7
  -5  -1  17 186.543 169.674   7
  -5  -1  16 299.565 467.724   7
  -5  -1  15 112.303 276.295   7
   5   1 -14 6840.03 676.137   3
  -5  -1  14 7537.32 1408.18   7
   5   1 -13 5313.91 563.742   3
  -5  -1  13 7138.03 1269.12   7
   5   1 -12 4681.83 491.068   3
  -5  -1  12 4585.77 987.113   7
  -5  -1  11 3048.92 762.373   7
   5   1 -11 3191.81 379.759   3
   5   1 -10 308.879 116.784   3
  -5  -1  10 534.293 213.657   7
  -5  -1   9 15092.8 1592.33   7
   5   1  -9 13250.5 684.583   3
  -5  -1   8 22068.7 1830.75   7
  -5  -1   8 21113.0 827.191   3
   5   1  -8 21701.8 864.974   3
  -5  -1   7 46722.9 1250.82   3
  -5  -1   7 48774.9 2631.24   7
  -5  -1   6 3744.84 370.554   3
  -5  -1   6 4396.13 730.097   7
   5   1  -5 77237.0 2884.25   5
  -5  -1   5 71361.5 2845.74   7
  -5  -1   5 72012.4 1775.94   3
  -5  -1   4 536.289 166.402   3
  -5  -1   4 626.372 247.723   7
   5   1  -4 486.518 239.599   5
   5   1  -3 14902.8 1283.55   5
  -5  -1   3 13296.5 897.335   3
  -5  -1   3 14444.3 1132.32   7
   5   1  -2 22370.9 1585.72   5
  -5  -1   2 21042.6 1296.98   7
   5   1  -1 11043.8 1128.30   5
  -5  -1   1 11606.4 896.149   7
   5   1  -1 10777.2 847.353   7
  -5  -1   0 1670.50 326.353   7
   5   1   0 2009.48 341.396   7
   5   1   0 1853.49 453.656   5
   5   1   1 16095.1 1417.59   5
   5   1   1 15747.6 889.111   7
   5   1   2 8677.01 1055.23   5
   5   1   2 8721.31 625.707   7
   5   1   3 864.527 191.682   7
   5   1   3 840.575 370.255   5
   5   1   3 463.344 241.981   4
  -5  -1  -3 790.866 248.113   1
   5   1   4 2454.44 334.455   7
  -5  -1  -4 2912.60 487.234   1
   5   1   4 3075.50 642.646   5
   5   1   4 2465.03 320.055   7
   5   1   4 2604.43 586.841   4
   5   1   5 368.983 172.640   5
  -5  -1  -5 530.278 221.790   1
   5   1   5 81.5986 63.9556   4
   5   1   5 371.081 134.183   7
   5   1   6 16530.0 1548.47   5
   5   1   6 14956.8 1522.77   4
   5   1   6 15629.9 913.197   7
   5   1   7-36.6014 114.954   5
   5   1   7 131.685 114.500   7
   5   1   7-118.204 191.654   4
   5   1   8-63.5132 104.612   4
   5   1   8-87.3814 207.675   5
   5   1   8 21.0960 77.6821   7
   5   1   9 83.8148 65.3107   7
   5   1   9-187.368 307.548   5
   5   1   9-47.7614 252.410   4
   5   1  10 1639.66 539.242   5
   5   1  10 1608.88 400.584   7
   5   1  10 1282.47 468.225   4
  -5  -1 -11 1391.93 545.228   6
   5   1  11 518.657 231.054   7
   5   1  11 567.652 329.874   4
   5   1  12 20164.5 1601.07   7
   5   1  12 23238.3 2189.49   4
  -5  -1 -12 24493.0 2215.60   6
   5   1  13 8.91753 81.9683   7
   5   1  13 169.871 305.807   4
  -5  -1 -14 1289.06 549.623   6
   5   1  14 1672.12 635.260   4
  -5  -1 -15 5352.99 1155.83   6
   5   1  15 277.553 132.799   4
   5   1  16-994.414 499.424   4
  -5  -1 -16 871.194 599.935   6
  -5  -1 -17 1716.05 693.289   6
   5   1  17 1155.34 538.291   4
  -5  -1 -18 510.889 402.026   6
   5   1  18-18.8577 109.378   4
  -5  -1 -19 208.978 126.838   6
  -5  -1 -20 240.337 255.745   6
  -5  -2  24-45.4208 389.985   7
  -5  -2  23 348.047 466.834   7
  -5  -2  22-96.7760 221.013   7
  -5  -2  21-187.297 279.728   7
  -5  -2  20-530.500 443.469   7
  -5  -2  19 368.186 370.778   7
  -5  -2  18 1848.04 766.555   7
  -5  -2  17 752.593 455.427   7
  -5  -2  16-357.302 433.629   7
  -5  -2  15 10.6925 152.309   7
   5   2 -15 77.8776 133.930   3
  -5  -2  14 124.074 214.460   7
   5   2 -14 801.355 266.086   3
  -5  -2  13 1448.10 576.191   7
   5   2 -13 1893.04 384.123   3
  -5  -2  12 4660.80 1019.77   7
   5   2 -12 4237.45 541.528   3
   5   2 -11 1746.96 324.738   3
  -5  -2  11 604.836 299.834   7
  -5  -2  10 13627.0 1583.23   7
   5   2 -10 11726.2 829.412   3
  -5  -2   9 214.463 106.353   3
   5   2  -9 97.4940 62.3987   3
  -5  -2   9 325.408 184.449   7
  -5  -2   8 22327.1 1072.43   3
  -5  -2   8 21269.3 1836.03   7
   5   2  -8 21086.2 1086.66   3
  -5  -2   7 37246.7 1396.28   3
  -5  -2   7 35328.8 2266.80   7
   5   2  -7 32993.1 1369.43   3
  -5  -2   6 41679.1 1532.63   3
  -5  -2   6 46074.9 2471.26   7
   5   2  -6 43845.4 1616.43   3
  -5  -2   5 8154.39 996.699   7
  -5  -2   5 7755.54 687.860   3
   5   2  -4 12654.9 1241.29   5
  -5  -2   4 11466.5 1127.64   7
  -5  -2   3 2890.11 533.510   7
   5   2  -3 2454.23 539.599   5
  -5  -2   2 671.563 262.511   7
   5   2  -2 724.744 298.039   5
   5   2  -2 1039.30 374.349   2
   5   2  -1 1818.10 458.352   2
  -5  -2   1 1622.69 362.919   7
   5   2  -1 1326.21 395.485   5
   5   2   0 66411.3 2924.60   5
  -5  -2   0 62784.4 2163.59   7
   5   2   0 64733.1 2804.98   4
   5   2   0 65343.3 2791.92   2
   5   2   0 59719.8 2081.70   7
   5   2   1 19067.5 1588.03   5
   5   2   1 17995.7 1097.17   7
   5   2   1 17906.4 1508.69   4
   5   2   2 28.7794 85.0841   5
   5   2   2 179.367 126.070   7
   5   2   2 346.798 187.180   4
  -5  -2  -3 4021.42 532.571   1
   5   2   3 3959.33 509.310   7
   5   2   3 4705.07 816.564   5
   5   2   3 4070.55 737.352   4
   5   2   4 485.866 149.988   7
   5   2   4 349.994 198.516   5
  -5  -2  -4 498.801 178.949   1
   5   2   4 219.135 88.3499   4
   5   2   5 11011.5 1270.04   5
   5   2   5 10779.2 852.599   7
   5   2   5 11079.7 1321.98   4
  -5  -2  -5 11375.6 885.644   1
   5   2   6 9907.87 1224.00   5
   5   2   6 10353.2 868.751   7
   5   2   6 10305.5 1296.99   4
   5   2   7 484.954 340.279   5
   5   2   7 210.793 135.686   7
   5   2   7 491.348 285.028   4
   5   2   8 2387.16 632.372   5
   5   2   8 1711.45 411.553   7
   5   2   8 3495.33 789.628   4
   5   2   9 9651.44 1255.64   5
   5   2   9 10759.5 1057.79   7
   5   2   9 10485.6 1405.35   4
   5   2  10 345.764 323.434   5
   5   2  10-84.7146 188.839   7
   5   2  10-225.382 255.494   4
   5   2  11 5816.44 1025.50   5
   5   2  11 6199.11 898.736   7
   5   2  11 5393.55 1061.16   4
  -5  -2 -12 2426.31 701.034   6
   5   2  12 2649.78 596.833   7
   5   2  12 2806.51 789.685   4
  -5  -2 -13 4996.64 1042.23   6
   5   2  13 4306.02 824.097   7
   5   2  13 4961.44 1078.88   4
   5   2  14 307.769 292.311   4
  -5  -2 -14 200.333 257.678   6
  -5  -2 -15-499.540 359.271   6
   5   2  15 278.585 356.715   4
  -5  -2 -16 373.561 397.125   6
   5   2  16-439.304 346.052   4
  -5  -2 -17 467.285 442.000   6
   5   2  17 583.620 440.198   4
  -5  -2 -18-49.4993 150.870   6
   5   2  18 165.977 209.562   4
  -5  -2 -19-335.954 335.492   6
   5   2  19-366.465 337.452   4
  -5  -2 -20-100.086 200.210   6
  -5  -3  24 553.094 415.299   7
  -5  -3  23 94.9783 413.502   7
  -5  -3  22-858.034 587.245   7
  -5  -3  21 561.114 518.642   7
  -5  -3  20-296.267 339.524   7
  -5  -3  19-380.566 389.760   7
  -5  -3  18 97.0630 301.863   7
  -5  -3  17 87.0038 295.471   7
   5   3 -16 8315.62 967.001   3
  -5  -3  16 8214.30 1478.39   7
  -5  -3  15 2880.32 918.654   7
   5   3 -15 2703.98 539.766   3
  -5  -3  14 92.1285 121.169   7
   5   3 -14 259.927 156.004   3
  -5  -3  13 3202.58 829.157   7
   5   3 -13 2312.36 465.147   3
  -5  -3  12 1859.35 590.858   7
   5   3 -12 1464.67 364.312   3
  -5  -3  12 1273.03 276.347   4
  -5  -3  11 4863.82 549.530   4
  -5  -3  11 5492.63 1081.47   7
   5   3 -11 5177.86 655.212   3
  -5  -3  10 43274.8 2857.81   7
  -5  -3  10 40439.6 1651.79   4
   5   3 -10 46171.8 1916.51   3
  -5  -3   9 9568.54 1314.05   7
   5   3  -9 11422.4 935.747   3
   5   3  -8 2522.28 440.630   3
  -5  -3   8 2188.71 608.498   7
  -5  -3   7 7129.55 1039.74   7
   5   3  -7 6914.02 737.203   3
  -5  -3   6 37540.8 2306.00   7
   5   3  -6 36872.7 1723.84   3
   5   3  -5 3269.51 510.229   3
  -5  -3   5 3336.69 676.466   7
   5   3  -4-10.3545 141.522   5
  -5  -3   4-89.2880 198.684   7
   5   3  -3 8397.86 1063.10   5
  -5  -3   3 5788.24 799.825   7
   5   3  -2 23113.2 1768.63   5
  -5  -3   2 24292.5 1574.18   7
   5   3  -2 22750.5 1647.95   2
   5   3  -2 24989.5 1669.56   4
  -5  -3   1 19344.9 1374.16   7
   5   3  -1 18010.8 1568.02   5
   5   3  -1 18011.5 1467.87   4
   5   3  -1 18854.0 1472.50   2
   5   3   0 18965.0 1626.33   5
   5   3   0 19034.9 1482.11   2
   5   3   0 19621.3 1559.13   4
   5   3   1 992.275 395.409   5
   5   3   1 1313.91 421.576   4
   5   3   2 24537.1 1894.37   5
   5   3   2 21498.6 1735.65   4
   5   3   3 14719.1 1497.58   5
  -5  -3  -3 12509.7 864.799   1
   5   3   3 14626.9 1473.16   4
  -5  -3  -4 1691.24 314.461   1
   5   3   4 1164.15 454.250   5
   5   3   4 1896.76 605.786   4
   5   3   4 1995.86 429.475   7
   5   3   5 9797.50 1222.69   5
   5   3   5 11770.2 1026.20   7
   5   3   5 13159.2 1441.37   4
   5   3   6 7807.37 1115.36   5
   5   3   6 9339.69 938.635   7
   5   3   6 7393.53 1125.81   4
   5   3   7 3056.56 740.018   5
   5   3   7 2708.81 537.669   7
   5   3   7 2294.68 615.133   4
   5   3   8 10883.1 1347.90   5
   5   3   8 10880.2 1101.67   7
   5   3   8 12765.7 1524.46   4
   5   3   9 4001.00 828.646   5
   5   3   9 4713.90 758.463   7
   5   3   9 3870.33 894.344   4
   5   3  10 3335.06 754.671   5
   5   3  10 2683.54 603.200   7
   5   3  10 3270.03 806.213   4
   5   3  11 802.764 396.207   5
   5   3  11 599.715 270.753   7
   5   3  11 464.236 294.412   4
   5   3  12 1666.53 562.328   5
   5   3  12 1187.55 445.144   7
   5   3  12 1657.88 603.325   4
  -5  -3 -13 57.9363 117.716   6
   5   3  13 427.349 258.306   7
   5   3  13 178.539 227.780   4
  -5  -3 -14 707.133 449.777   6
   5   3  14 557.253 351.877   4
  -5  -3 -15-12.5325 122.782   6
   5   3  15-213.964 103.583   4
  -5  -3 -16 526.989 404.235   6
   5   3  16-36.9003 124.760   4
  -5  -3 -17-453.865 369.787   6
   5   3  17-356.851 326.357   4
  -5  -3 -18 216.478 234.395   6
   5   3  18 173.180 267.632   4
  -5  -3 -19 189.285 325.986   6
   5   3  19 670.967 541.491   4
  -5  -3 -20 90.7007 198.670   6
  -5  -4  24 668.731 546.839   7
  -5  -4  23-317.632 374.555   7
  -5  -4  22-11.6939 142.391   7
  -5  -4  21-472.164 425.240   7
  -5  -4  20 505.678 414.327   7
  -5  -4  19 334.345 168.688   7
  -5  -4  18 25.5882 240.246   7
  -5  -4  17 89.1934 250.659   7
   5   4 -16 2800.06 603.651   3
  -5  -4  16 2401.40 789.765   7
   5   4 -15-608.308 274.719   3
  -5  -4  15-200.738 421.600   7
   5   4 -14 1226.67 363.574   3
  -5  -4  14 669.329 404.355   7
  -5  -4  13 258.862 361.410   7
   5   4 -13 313.045 175.611   3
  -5  -4  12 9776.66 1477.31   7
   5   4 -12 11037.6 1082.09   3
  -5  -4  11 9261.42 1385.87   7
  -5  -4  11 7828.50 630.445   4
   5   4 -11 9109.54 975.317   3
  -5  -4  10 11241.3 1518.07   7
  -5  -4  10 8635.02 703.692   4
   5   4 -10 9220.90 953.206   3
   5   4  -9 3696.71 599.782   3
  -5  -4   9 2979.41 735.995   7
  -5  -4   8 13543.0 1520.24   7
   5   4  -8 11507.2 1054.38   3
   5   4  -7 434.998 243.593   3
  -5  -4   7 387.838 257.107   7
  -5  -4   6 54485.2 2901.34   7
   5   4  -6 54043.5 2326.69   3
   5   4  -5 196.954 122.212   3
  -5  -4   5 341.604 238.007   7
  -5  -4   4 11028.7 1205.15   7
   5   4  -4 9022.61 995.770   4
   5   4  -4 10546.7 1056.40   3
   5   4  -3 9918.13 1187.43   5
   5   4  -3 10412.3 1085.95   2
  -5  -4   3 11267.2 1190.96   7
   5   4  -3 9180.60 1014.43   4
   5   4  -2 2845.72 634.542   5
  -5  -4   2 3476.17 649.277   7
   5   4  -2 2377.45 532.841   4
   5   4  -2 2091.43 489.449   2
   5   4  -1 4826.62 769.905   4
   5   4  -1 4448.49 800.662   5
   5   4  -1 4950.97 744.839   2
   5   4   0 4935.85 843.771   5
   5   4   0 5623.93 857.270   4
   5   4   1 572.296 245.316   5
   5   4   1 2054.32 554.111   4
   5   4   2 14166.4 1479.64   5
   5   4   2 15344.7 1470.22   4
  -5  -4  -3 1219.63 232.635   1
   5   4   3 927.454 375.820   5
   5   4   3 1527.33 509.217   4
   5   4   4 12017.9 1394.28   5
  -5  -4  -4 11739.3 683.760   1
   5   4   4 11029.4 1095.39   7
   5   4   4 12605.3 1432.20   4
   5   4   5 319.099 241.040   5
   5   4   5 237.345 144.152   7
   5   4   5-131.534 157.850   4
   5   4   6 30555.2 2248.77   5
   5   4   6 29891.7 1870.48   7
   5   4   6 31278.3 2364.51   4
   5   4   7 1608.03 602.058   5
   5   4   7 2072.60 498.810   7
   5   4   7 2127.93 600.863   4
   5   4   8 12252.3 1468.04   5
   5   4   8 12458.6 1275.83   7
   5   4   8 14215.4 1670.52   4
   5   4   9 2485.51 679.761   5
   5   4   9 1526.65 591.884   4
   5   4   9 1647.23 473.787   7
   5   4  10 211.401 92.6358   5
   5   4  10 183.908 138.623   7
   5   4  10 190.566 133.518   4
   5   4  11 1987.36 635.140   5
   5   4  11 2418.65 635.484   7
   5   4  11 1774.63 653.395   4
   5   4  12 5909.92 1048.56   5
   5   4  12 5183.34 955.950   7
   5   4  12 5072.54 1098.46   4
   5   4  13 3786.28 869.614   7
   5   4  13 4102.73 1010.35   4
  -5  -4 -14-141.068 340.243   6
   5   4  14 225.295 249.976   4
  -5  -4 -15 104.009 304.737   6
   5   4  15 275.083 355.324   4
  -5  -4 -16 77.1101 230.489   6
   5   4  16 593.956 533.062   4
  -5  -4 -17 49.5016 193.606   6
   5   4  17 1234.13 641.556   4
  -5  -4 -18 1018.67 559.018   6
   5   4  18-218.836 276.261   4
  -5  -4 -19-138.152 224.733   6
   5   4  19 44.3189 291.884   4
  -5  -5  24-157.003 280.051   7
  -5  -5  23 265.910 337.253   7
  -5  -5  22 332.470 381.031   7
  -5  -5  21 113.500 233.053   7
  -5  -5  20-383.834 381.292   7
  -5  -5  19 442.365 509.484   7
  -5  -5  18-285.583 299.035   7
  -5  -5  17 2634.96 934.520   7
   5   5 -17 2284.57 600.621   3
  -5  -5  16 2782.56 923.523   7
   5   5 -16 1996.54 546.803   3
  -5  -5  15 5362.70 1195.75   7
   5   5 -15 5372.25 873.361   3
  -5  -5  14 688.601 495.736   7
   5   5 -14 563.206 263.901   3
  -5  -5  13 4025.35 1016.00   7
   5   5 -13 2053.69 543.026   3
  -5  -5  12 5149.71 1093.68   7
   5   5 -12 4223.68 715.768   3
  -5  -5  11 19178.5 2089.90   7
   5   5 -11 19924.8 1557.25   3
  -5  -5  10 8088.41 1282.55   7
   5   5 -10 8276.66 991.064   3
   5   5  -9-102.130 113.623   3
  -5  -5   9 171.298 193.518   7
   5   5  -8 270.844 154.933   3
  -5  -5   8 614.034 352.531   7
  -5  -5   7 29374.9 2267.05   7
   5   5  -7 28089.5 1824.26   3
   5   5  -6 28153.4 1697.85   4
  -5  -5   6 31451.9 2287.67   7
   5   5  -6 29650.4 1876.34   3
   5   5  -5 1284.98 440.364   3
  -5  -5   5 1743.36 533.914   7
   5   5  -5 1502.48 396.979   4
  -5  -5   4 20088.0 1742.18   7
   5   5  -4 21132.1 1553.90   4
   5   5  -4 20529.6 1617.07   3
   5   5  -3 718.278 315.532   3
  -5  -5   3 641.843 342.343   7
   5   5  -3 1236.86 482.219   5
   5   5  -3 484.063 149.666   2
   5   5  -3 509.846 295.350   4
   5   5  -2 30919.8 2210.45   5
   5   5  -2 29722.2 1800.05   2
   5   5  -2 31985.2 1997.34   4
   5   5  -1 18341.4 1731.94   5
   5   5  -1 19757.9 1472.91   2
   5   5  -1 21530.4 1677.41   4
   5   5   0 21261.6 1851.06   5
   5   5   0 23107.5 1800.86   4
   5   5   1 17828.9 1709.34   5
   5   5   1 17680.9 1619.49   4
   5   5   2 10992.2 1351.01   5
   5   5   2 12452.6 1394.59   4
   5   5   3 5041.07 939.285   4
   5   5   3 3738.30 805.726   5
  -5  -5  -3 3440.60 313.242   1
   5   5   4 145.979 191.932   4
   5   5   4 102.636 124.614   5
   5   5   4-34.1449 118.460   7
   5   5   5 1446.43 500.920   5
   5   5   5 1393.72 430.075   7
   5   5   5 1494.73 531.457   4
   5   5   6 2226.14 637.129   5
   5   5   6 2162.03 549.921   7
   5   5   6 2793.96 725.579   4
   5   5   7 3964.41 858.954   5
   5   5   7 4090.80 760.820   7
   5   5   7 4903.86 1001.54   4
   5   5   8 1018.23 414.504   5
   5   5   8 1475.93 513.356   7
   5   5   8 1518.73 567.063   4
   5   5   9 1967.82 648.890   5
   5   5   9 2162.84 697.411   4
   5   5   9 2855.11 690.980   7
   5   5  10-29.3045 204.896   5
   5   5  10 150.629 80.1542   7
   5   5  10-361.322 346.751   4
   5   5  11 123.414 92.7136   5
   5   5  11 355.145 284.050   7
   5   5  11 540.132 313.784   4
   5   5  12-47.6761 121.165   5
   5   5  12 211.273 235.635   7
   5   5  12-169.924 112.349   4
   5   5  13 216.552 249.854   5
   5   5  13 299.256 308.540   4
   5   5  13 221.289 192.175   7
   5   5  14-173.914 235.332   4
  -5  -5 -15 444.658 424.106   6
   5   5  15 112.673 241.735   4
  -5  -5 -16 78.5601 294.866   6
   5   5  16-182.934 246.827   4
  -5  -5 -17-284.754 304.476   6
   5   5  17 54.2725 371.575   4
  -5  -5 -18 614.718 363.787   6
   5   5  18 1125.08 616.735   4
   5   5  19-91.1314 194.907   4
  -5  -6  24-272.332 360.419   7
  -5  -6  23 298.071 511.919   7
  -5  -6  22 29.0440 126.255   7
  -5  -6  21-212.146 306.477   7
  -5  -6  20 33.4144 204.759   7
  -5  -6  19 382.157 392.148   7
  -5  -6  18 8.12379 306.965   7
   5   6 -17 1430.13 464.118   3
  -5  -6  17 1571.16 726.087   7
   5   6 -16-87.7485 243.252   3
  -5  -6  16-14.5889 288.672   7
  -5  -6  15 189.821 267.813   7
   5   6 -15 93.6154 117.660   3
  -5  -6  14 3633.59 993.642   7
   5   6 -14 5492.28 934.366   3
  -5  -6  13 5137.50 1128.35   7
   5   6 -13 5322.42 905.114   3
  -5  -6  12 13508.6 1840.47   7
   5   6 -12 13006.3 1369.49   3
  -5  -6  11 4739.71 1042.72   7
   5   6 -11 5425.48 866.979   3
  -5  -6  10 93.4367 238.013   7
   5   6 -10 1605.63 485.446   3
   5   6  -9 3316.51 682.983   3
  -5  -6   9 3036.70 767.828   7
   5   6  -8 2866.42 630.507   3
  -5  -6   8 2572.17 693.946   7
   5   6  -7 789.847 332.622   3
  -5  -6   7 887.079 458.150   7
   5   6  -7 912.898 285.612   4
   5   6  -6 2316.54 586.543   3
   5   6  -6 2118.88 471.647   4
  -5  -6   6 3037.76 701.945   7
   5   6  -5 3356.25 710.603   3
  -5  -6   5 3507.30 774.204   7
   5   6  -5 3389.98 602.924   4
  -5  -6   4 19483.2 1846.04   7
   5   6  -4 16302.2 1363.15   2
   5   6  -4 17416.5 1447.45   4
   5   6  -4 17193.9 1588.69   3
   5   6  -3 2123.16 565.392   3
   5   6  -3 2190.84 629.781   5
   5   6  -3 2706.51 592.637   4
   5   6  -3 2474.89 504.638   2
   5   6  -2 34054.6 2413.17   5
   5   6  -2 31239.7 2065.80   4
   5   6  -2 32266.7 1836.76   2
   5   6  -2 33631.5 2309.44   3
   5   6  -1 1493.52 516.834   5
   5   6  -1 1904.07 503.373   4
   5   6   0 1993.09 615.751   5
   5   6   0 2428.69 602.736   4
   5   6   1 5074.99 933.873   5
   5   6   1 5004.83 907.004   4
   5   6   2 11937.7 1471.46   5
  -5  -6  -2 9274.49 470.273   1
   5   6   3 777.361 365.316   5
   5   6   4 1278.37 411.389   7
   5   6   4 1019.03 363.559   5
   5   6   5 937.712 439.501   5
   5   6   5 1023.90 425.642   7
   5   6   6 128.262 186.638   5
   5   6   6 198.353 207.073   7
   5   6   7 260.020 257.163   5
   5   6   7 367.889 202.814   7
   5   6   8 6113.50 1075.37   5
   5   6   8 5012.93 943.465   7
   5   6   8 5769.38 1165.04   4
   5   6   9 13527.7 1606.49   5
   5   6   9 13397.4 1589.04   7
   5   6   9 17683.0 2068.48   4
   5   6  10-1.84701 179.361   5
   5   6  10-79.6441 168.565   4
   5   6  11 51.7405 209.342   5
   5   6  11 211.811 181.009   7
   5   6  11 302.347 297.481   4
   5   6  12-207.913 219.611   7
   5   6  12 208.610 258.241   5
   5   6  12 362.396 358.236   4
   5   6  13-210.408 208.569   5
   5   6  13 84.5729 118.358   7
   5   6  14 8.08929 161.275   4
  -5  -6 -15-45.2252 178.471   6
   5   6  15 812.310 573.456   4
  -5  -6 -16-37.9478 154.365   6
   5   6  16-54.8994 163.025   4
  -5  -6 -17-124.232 214.523   6
   5   6  17-525.069 427.789   4
  -5  -6 -18 873.633 623.166   6
   5   6  18-418.723 397.220   4
   5   6  19 40.1652 149.053   4
  -5  -7  24 998.606 784.520   7
  -5  -7  23 675.328 587.372   7
  -5  -7  22-408.541 423.309   7
  -5  -7  21 277.676 327.500   7
  -5  -7  20-299.900 483.666   7
  -5  -7  19 107.641 401.925   7
   5   7 -18 363.442 167.278   3
  -5  -7  18-39.1200 374.768   7
  -5  -7  17 211.455 369.519   7
   5   7 -17-61.3047 260.396   3
   5   7 -16-128.067 181.640   3
  -5  -7  16-280.970 527.600   7
   5   7 -15-518.281 308.132   3
  -5  -7  15-305.267 340.341   7
  -5  -7  14 182.141 493.544   7
   5   7 -14 927.403 470.489   3
  -5  -7  13 476.123 374.596   7
   5   7 -13 11.9546 163.360   3
   5   7 -12 739.019 316.698   3
  -5  -7  12 895.729 353.087   7
   5   7 -11 1801.12 554.923   3
  -5  -7  11 1507.69 526.540   7
   5   7 -10 2232.85 573.775   3
  -5  -7  10 3185.73 868.987   7
   5   7  -9 400.339 243.002   3
  -5  -7   9 471.219 234.371   7
   5   7  -8 932.599 394.651   3
  -5  -7   8 1687.85 619.046   7
   5   7  -8 716.859 300.813   4
   5   7  -7 975.062 319.185   3
   5   7  -7 764.797 302.265   4
  -5  -7   7 1024.70 489.584   7
   5   7  -6 1053.56 441.987   3
  -5  -7   6 613.557 404.114   7
   5   7  -6 288.731 183.159   4
   5   7  -5 2024.63 608.872   3
   5   7  -5 1330.55 380.066   2
   5   7  -5 1556.27 436.419   4
   5   7  -4 3355.58 745.584   3
   5   7  -4 2819.63 525.323   2
   5   7  -4 2575.48 593.926   4
   5   7  -3 25054.9 1574.85   2
   5   7  -3 26348.0 1923.68   4
   5   7  -3 24877.3 2079.62   3
   5   7  -2 1204.50 439.670   3
   5   7  -2 1341.67 450.260   4
   5   7  -2 1661.03 551.692   5
   5   7  -1 2763.64 707.566   5
   5   7   0 1629.82 536.394   5
   5   7   1-43.8560 273.588   5
   5   7   2 9089.93 1308.01   5
   5   7   3 4973.13 953.165   5
   5   7   4 58.7564 167.639   5
   5   7   4 72.1363 145.882   7
   5   7   5 2013.60 648.237   5
   5   7   5 1389.36 515.731   7
   5   7   6 250.511 100.056   5
   5   7   6 3.13592 212.695   7
   5   7   7 509.184 341.056   5
   5   7   7 659.988 372.656   7
   5   7   8 133.255 185.758   5
   5   7   8 204.885 291.355   7
   5   7   9-58.6231 317.932   5
   5   7   9-147.608 252.823   7
   5   7  10 342.289 263.904   7
   5   7  10 1215.85 500.235   5
   5   7  11 459.763 304.160   5
   5   7  11 464.849 424.338   7
   5   7  11 216.701 216.158   4
   5   7  12-150.252 160.573   4
   5   7  12-369.124 303.612   7
   5   7  12-12.5540 92.8585   5
   5   7  13 1697.84 655.896   7
   5   7  13-300.570 317.368   4
   5   7  14 415.553 386.286   4
   5   7  15 342.909 375.329   4
  -5  -7 -16 1095.31 600.930   6
   5   7  16 776.280 567.114   4
  -5  -7 -17 400.961 604.207   6
   5   7  17 278.879 325.786   4
   5   7  18-43.3665 155.020   4
  -5  -8  23-604.691 522.134   7
  -5  -8  22 498.271 231.361   7
  -5  -8  21-247.191 342.190   7
  -5  -8  20 146.893 256.830   7
  -5  -8  19-638.268 493.873   7
   5   8 -18 8.09550 172.811   3
  -5  -8  18 287.293 321.901   7
   5   8 -17 273.990 295.086   3
  -5  -8  17 916.174 614.952   7
  -5  -8  16 1364.60 716.273   7
   5   8 -16 908.774 413.659   3
  -5  -8  15 2916.97 938.327   7
   5   8 -15 3072.84 782.294   3
   5   8 -14 6604.38 1136.01   3
  -5  -8  14 7007.01 1452.41   7
   5   8 -13 1537.55 561.559   3
  -5  -8  13 1659.35 678.702   7
  -5  -8  12-317.216 408.189   7
   5   8 -12 408.655 336.657   3
   5   8 -11 3285.12 768.216   3
  -5  -8  11 3607.73 952.770   7
   5   8 -10 5764.38 1018.67   3
  -5  -8  10 4984.43 1071.06   7
   5   8 -10 4925.77 688.868   4
   5   8  -9 119.328 182.832   3
  -5  -8   9 253.451 315.992   7
   5   8  -9 70.4213 141.315   4
   5   8  -8 7289.79 911.156   4
  -5  -8   8 8643.57 1416.73   7
   5   8  -8 8068.95 1199.05   3
   5   8  -7 299.348 267.876   3
  -5  -8   7 99.5198 408.126   7
   5   8  -7 146.215 117.210   4
   5   8  -6 17204.6 1480.59   4
   5   8  -6 19234.9 1882.75   3
   5   8  -5 9944.09 1006.96   2
   5   8  -5 9862.08 1157.39   4
   5   8  -5 9228.12 1317.67   3
   5   8  -4 995.200 499.055   3
   5   8  -4 292.993 179.025   2
   5   8  -4 682.168 253.384   4
   5   8  -3 4011.21 872.924   3
   5   8  -2 17256.4 1858.75   5
   5   8  -2 16245.9 1829.61   3
   5   8  -1 10016.2 1397.01   5
   5   8   0-16.9790 284.100   5
   5   8   1-86.1565 321.329   5
   5   8   2 2282.11 640.013   5
   5   8   3-336.474 268.569   5
   5   8   4 7670.86 1257.61   5
   5   8   4 6150.87 1119.84   7
   5   8   5 1635.17 571.462   5
   5   8   5 2003.79 656.181   7
   5   8   6-190.047 129.048   5
   5   8   6-167.641 287.318   7
   5   8   7 2335.34 705.757   5
   5   8   7 2706.02 730.213   7
   5   8   8 1298.16 544.976   5
   5   8   8 1669.62 615.612   7
   5   8   9 512.417 347.061   5
   5   8   9 1327.41 520.912   7
   5   8  10 50.9298 357.568   5
   5   8  10 115.454 199.244   7
   5   8  11-124.047 101.566   5
   5   8  11 140.260 206.728   7
   5   8  12-308.266 294.083   7
   5   8  12 831.994 546.233   4
   5   8  13 776.749 469.167   7
   5   8  13 776.373 556.103   4
   5   8  14-150.848 248.130   4
   5   8  15-148.920 246.966   4
  -5  -8 -16 329.590 345.960   6
   5   8  16 362.330 420.529   4
  -5  -9  23 569.362 621.283   7
  -5  -9  22-831.841 607.762   7
  -5  -9  21-245.090 339.358   7
  -5  -9  20 361.032 501.838   7
   5   9 -19 255.725 281.193   3
  -5  -9  19 1177.96 715.110   7
   5   9 -18 2111.70 692.904   3
  -5  -9  18 2200.10 946.638   7
   5   9 -17 156.460 338.846   3
  -5  -9  17 490.476 492.033   7
  -5  -9  16 227.219 196.559   7
   5   9 -16 1076.20 491.962   3
  -5  -9  15 2776.38 944.157   7
   5   9 -15 2420.64 731.117   3
  -5  -9  14-190.905 234.461   7
   5   9 -14 113.856 244.983   3
  -5  -9  13 1181.99 561.110   7
   5   9 -13 104.276 221.797   3
   5   9 -12-119.723 98.7343   3
  -5  -9  12 127.697 189.647   7
   5   9 -11 2270.38 684.160   3
  -5  -9  11 4260.51 1108.58   7
  -5  -9  10 2226.94 737.021   7
   5   9 -10 1903.37 631.294   3
   5   9 -10 1405.89 407.331   4
   5   9  -9 409.558 331.420   3
  -5  -9   9 518.111 394.866   7
   5   9  -9 315.789 183.864   4
   5   9  -8 6933.75 1182.70   3
   5   9  -8 8017.90 996.700   4
   5   9  -7 293.470 329.556   3
   5   9  -7 492.462 279.365   4
   5   9  -6 25631.9 1595.75   2
   5   9  -6 29678.4 2080.28   4
   5   9  -6 30170.9 2526.78   3
   5   9  -5-82.0366 137.677   2
   5   9  -5-35.5780 201.512   3
   5   9  -4 11674.4 1577.70   3
   5   9  -3 6657.79 1206.18   3
   5   9  -2 6640.75 1211.05   3
   5   9  -2 7755.29 1299.19   5
   5   9  -1 6801.71 1199.39   5
   5   9  -1 4602.82 1013.02   3
   5   9   0 2050.28 668.175   5
   5   9   1-292.147 278.601   5
   5   9   2 1147.69 454.723   5
   5   9   3 1806.93 582.831   5
   5   9   4 331.111 259.345   5
   5   9   4 199.385 222.533   7
   5   9   5 187.420 113.118   5
   5   9   5 807.502 470.007   7
   5   9   6 584.786 435.059   5
   5   9   6 675.283 374.641   7
   5   9   7 490.718 318.326   5
   5   9   7 289.197 98.8430   7
   5   9   8 427.622 312.841   5
   5   9   8 383.716 222.226   7
   5   9   9 316.332 331.786   5
   5   9   9 214.028 219.630   7
   5   9  10 254.895 319.673   7
   5   9  11-307.112 298.158   7
   5   9  12 215.824 345.489   7
   5   9  13-325.361 324.537   7
   5   9  13 75.5326 343.473   4
   5   9  14 330.276 346.612   4
   5   9  15 560.521 546.548   4
  -5 -10  22-603.033 529.411   7
  -5 -10  21-78.8422 224.641   7
  -5 -10  20 369.405 314.459   7
   5  10 -19 536.161 463.204   3
  -5 -10  19 297.393 357.219   7
  -5 -10  18 220.466 322.075   7
   5  10 -18 85.7275 183.534   3
  -5 -10  17-720.625 524.646   7
   5  10 -17-444.268 345.750   3
  -5 -10  16-78.3175 273.191   7
   5  10 -16 29.6032 107.624   3
  -5 -10  15 142.959 188.198   7
   5  10 -15 848.424 459.978   3
  -5 -10  14 1370.44 684.527   7
   5  10 -14 1628.27 612.867   3
   5  10 -13 135.016 320.451   3
  -5 -10  13 337.314 453.016   7
   5  10 -12-182.185 311.079   3
  -5 -10  12-114.637 144.392   7
  -5 -10  11-111.025 238.577   7
   5  10 -11-37.6659 157.817   3
   5  10 -10 212.975 205.487   3
  -5 -10  10-144.063 246.231   7
   5  10  -9 652.991 275.289   3
   5  10  -9 800.091 331.513   4
   5  10  -8 1418.03 475.682   3
   5  10  -8 1891.60 509.316   4
   5  10  -7 481.518 429.531   3
   5  10  -7 111.466 84.4503   4
   5  10  -6 764.330 405.213   3
   5  10  -5 55.6516 207.419   3
   5  10  -4 2028.19 669.399   3
   5  10  -3 5634.62 1151.20   3
   5  10  -2 7347.34 1357.55   3
   5  10  -2 7732.60 1343.17   5
   5  10  -1 5395.96 1119.31   5
   5  10  -1 7394.92 1357.99   3
   5  10   0 222.651 143.252   5
   5  10   1 653.369 308.005   5
   5  10   2 2375.43 737.400   5
   5  10   3 4542.00 1011.67   5
   5  10   3 4584.82 1064.64   7
   5  10   4 1012.96 504.218   5
   5  10   4 1286.04 598.419   7
   5  10   5 1231.69 512.689   5
   5  10   5 2255.41 782.168   7
   5  10   6-37.1137 235.404   5
   5  10   6-585.816 394.345   7
   5  10   7 95.1111 249.201   5
   5  10   7-122.342 147.354   7
   5  10   8 752.664 464.207   5
   5  10   8 481.941 453.604   7
   5  10   9-237.696 268.234   7
   5  10  10 370.475 372.408   7
   5  10  11-79.7524 216.517   7
   5  10  12-268.645 302.935   7
   5  10  13 349.275 350.937   7
  -5 -11  21-388.095 426.280   7
  -5 -11  20-146.075 328.503   7
  -5 -11  19-839.784 599.661   7
   5  11 -19 466.159 446.100   3
  -5 -11  18 1159.47 684.019   7
   5  11 -18 1620.15 695.299   3
  -5 -11  17 573.070 601.537   7
   5  11 -17 559.474 408.012   3
  -5 -11  16 1079.33 682.983   7
   5  11 -16-407.394 342.808   3
  -5 -11  15-417.643 396.933   7
   5  11 -15 31.9196 371.099   3
  -5 -11  14 41.9341 295.990   7
   5  11 -14-480.846 366.011   3
  -5 -11  13 1468.95 745.948   7
   5  11 -13 1268.97 533.992   3
   5  11 -12 289.785 288.498   3
  -5 -11  12 347.502 130.236   7
   5  11 -11 2644.11 819.496   3
   5  11 -10 369.148 361.490   3
   5  11  -9 184.844 259.248   3
   5  11  -9 185.000 167.068   4
   5  11  -8 600.622 421.082   3
   5  11  -8 774.978 397.158   4
   5  11  -7 353.372 305.891   3
   5  11  -6 8982.96 1528.64   3
   5  11  -5 16405.5 2073.81   3
   5  11  -4 127.957 128.729   3
   5  11  -3 1902.00 723.512   3
   5  11  -3 1549.21 559.014   5
   5  11  -2 2705.71 843.476   3
   5  11  -2 2603.83 806.605   5
   5  11  -1 378.687 358.169   5
   5  11  -1 461.722 269.991   3
   5  11   0 1071.25 456.904   5
   5  11   1 398.048 322.695   5
   5  11   2 698.263 444.716   5
   5  11   3 1048.14 498.706   5
   5  11   3 821.635 450.312   7
   5  11   4 424.887 343.795   5
   5  11   4 143.688 262.239   7
   5  11   5 151.199 208.745   5
   5  11   5 449.155 404.897   7
   5  11   6 114.391 236.454   7
   5  11   6 326.149 218.646   5
   5  11   7 5.79265 85.8683   7
   5  11   8-101.561 196.158   7
   5  11   9 432.736 482.167   7
   5  11  10 257.283 183.057   7
   5  11  11 413.693 377.296   7
   5  11  12-376.197 369.443   7
   5  11  13 632.032 568.460   7
   5  12 -20 68.9623 290.135   3
  -5 -12  20 585.314 515.372   7
   5  12 -19 255.343 315.634   3
  -5 -12  19-559.768 503.065   7
  -5 -12  18 773.477 641.915   7
   5  12 -18-431.288 334.012   3
  -5 -12  17 295.121 204.474   7
   5  12 -17 54.5682 212.397   3
  -5 -12  16 143.629 360.223   7
   5  12 -16-565.330 426.980   3
  -5 -12  15 156.888 279.250   7
   5  12 -15 65.5132 370.203   3
   5  12 -14 404.715 378.273   3
   5  12 -13 758.722 528.978   3
   5  12 -12-6.26347 278.160   3
   5  12 -11-232.997 493.608   3
   5  12 -10 829.565 512.560   3
   5  12  -9-184.210 384.006   3
   5  12  -8-125.103 202.510   3
   5  12  -7 339.704 249.874   3
   5  12  -6 250.372 339.541   3
   5  12  -5 368.656 385.597   3
   5  12  -4 871.607 526.267   3
   5  12  -3-243.184 190.995   3
   5  12  -3 208.643 186.665   5
   5  12  -2-256.050 211.917   3
   5  12  -2-306.942 297.191   5
   5  12  -1 398.932 374.287   5
   5  12  -1 533.431 451.636   3
   5  12   0-9.76804 275.410   5
   5  12   1 1131.65 562.436   5
   5  12   2 177.630 223.307   5
   5  12   2 96.8330 172.248   7
   5  12   3 423.704 291.716   5
   5  12   3-72.4114 179.291   7
   5  12   4 247.024 260.419   5
   5  12   4-402.745 355.165   7
   5  12   5-158.718 210.277   5
   5  12   5 224.106 191.722   7
   5  12   6-341.231 339.109   7
   5  12   7-151.288 239.478   7
   5  12   8-82.9596 185.485   7
   5  12   9-11.6606 319.167   7
   5  12  10 1149.89 647.196   7
   5  12  11-221.851 302.101   7
   5  12  12-308.023 358.356   7
   5  13 -20 266.269 311.506   3
  -5 -13  19 317.535 399.655   7
   5  13 -19-135.130 242.972   3
  -5 -13  18 509.768 490.586   7
   5  13 -18 646.073 516.147   3
   5  13 -17 256.542 295.612   3
   5  13 -16 291.369 430.518   3
   5  13 -15 231.419 245.488   3
   5  13 -14-369.104 354.068   3
   5  13 -13 267.377 335.595   3
   5  13 -12 1507.82 625.582   3
   5  13 -11 505.176 416.966   3
   5  13 -10 897.570 564.567   3
   5  13  -9-417.533 401.336   3
   5  13  -8 1593.33 717.152   3
   5  13  -7 1514.36 655.691   3
   5  13  -6 4224.02 1155.76   3
   5  13  -5 5098.61 1268.71   3
   5  13  -4 2422.42 934.405   3
   5  13  -3-130.072 294.888   3
   5  13  -3 583.296 445.141   5
   5  13  -2 199.233 280.018   5
   5  13  -2-23.9165 188.196   3
   5  13  -1 2902.99 901.968   5
   5  13   0-69.0892 162.007   5
   5  13   1 409.085 368.158   5
   5  13   2 2170.85 767.449   5
   5  13   2 2529.73 921.721   7
   5  13   3 1034.67 574.113   5
   5  13   3 130.910 103.898   7
   5  13   4 76.1937 184.787   7
   5  13   5 715.089 458.280   7
   5  13   6 183.176 157.723   7
   5  13   7 362.403 370.513   7
   5  13   8 661.585 559.269   7
   5  13   9 237.534 374.047   7
   5  13  10-476.663 433.612   7
   5  13  11-120.191 240.920   7
   5  14 -19 194.214 290.805   3
   5  14 -18 1138.72 650.985   3
   5  14 -17 3.58114 138.748   3
   5  14 -16 576.333 466.935   3
   5  14 -15 289.880 248.268   3
   5  14 -14 8.57196 128.442   3
   5  14 -13-749.896 514.186   3
   5  14 -12 334.642 545.109   3
   5  14 -11 252.613 290.672   3
   5  14 -10 333.033 428.164   3
   5  14  -9 884.419 573.528   3
   5  14  -8 2370.89 903.776   3
   5  14  -7 1744.39 887.514   3
   5  14  -6-18.4209 445.229   3
   5  14  -5-18.5140 360.709   3
   5  14  -4 129.951 206.327   3
   5  14  -4-199.434 266.885   5
   5  14  -3-697.857 502.818   3
   5  14  -3 213.511 228.691   5
   5  14  -2 249.667 312.361   5
   5  14  -2-302.939 367.028   3
   5  14  -1 929.092 598.978   5
   5  14   0 406.583 272.072   5
   5  14   1-341.662 323.522   5
   5  14   1 558.842 372.642   7
   5  14   2-382.855 340.228   5
   5  14   2 81.7331 195.950   7
   5  14   3 37.9038 276.651   7
   5  14   4 347.259 271.355   7
   5  14   5 71.5106 186.210   7
   5  14   6 802.719 578.085   7
   5  14   7 714.566 528.683   7
   5  14   8 421.606 393.376   7
   5  15 -18-0.98653 375.110   3
   5  15 -17 135.951 256.136   3
   5  15 -16-305.640 361.396   3
   5  15 -15 174.202 244.501   3
   5  15 -14 236.939 323.694   3
   5  15 -13-508.436 445.706   3
   5  15 -12-724.599 527.358   3
   5  15 -11 534.645 487.563   3
   5  15 -10 224.082 258.896   3
   5  15  -9 829.488 608.634   3
   5  15  -8-115.041 295.933   3
   5  15  -7 744.633 662.636   3
   5  15  -6-160.171 263.847   3
   5  15  -5 19.3357 403.080   3
   5  15  -4-4.64463 355.532   3
   5  15  -4 301.628 285.599   5
   5  15  -3 182.369 304.176   3
   5  15  -3 780.062 539.785   5
   5  15  -2-658.202 466.913   5
   5  15  -2 471.361 487.692   3
   5  15  -1 184.354 255.847   5
   5  15   0 69.9123 94.3048   5
   5  15   1 890.954 609.612   7
   5  15   2 407.405 693.004   7
   5  15   3 177.625 245.825   7
   5  15   4-517.002 461.236   7
   5  15   5-498.362 460.132   7
   5  16 -13 79.9330 489.929   3
   5  16 -12 470.073 517.095   3
   5  16 -11 609.579 700.657   3
   5  16 -10 2637.18 1074.88   3
   5  16  -9 728.467 626.489   3
   5  16  -8-450.975 438.073   3
   5  16  -7-40.8093 167.160   3
   5  16  -6 466.062 561.119   3
   5  16  -5-433.930 477.815   3
   5  16  -5 355.465 366.700   5
   5  16  -4 816.973 623.075   5
   5  16  -4 500.521 465.004   3
   5  16  -3 827.895 568.906   3
   5  16  -3 595.646 557.470   5
   5  16  -2-0.86870 113.902   5
   5  16   0 150.610 398.878   7
   5  17  -6-32.5089 149.147   5
   5  17  -5 160.984 259.409   5
   5  17  -4 698.457 565.879   5
  -6  17   0 532.354 441.439   3
  -6  17  -1 0.90786 342.763   3
  -6  17  -1 592.100 529.728   7
  -6  17  -2-33.8529 154.487   3
  -6  17  -2-0.92356 176.928   7
  -6  17  -3-260.497 321.063   3
  -6  17  -3 69.0754 300.925   7
  -6  17  -4-153.619 263.255   3
  -6  17  -4-377.718 377.733   7
  -6  17  -5 219.142 415.647   3
  -6  17  -5 737.492 515.407   7
  -6  17  -6 549.247 428.298   7
  -6  16   3 379.252 404.773   7
  -6  16   2 196.488 226.003   7
  -6  16   1-1.63947 200.531   3
  -6  16   1-442.376 405.360   7
  -6  16   0-364.258 356.213   3
  -6  16   0 138.573 216.609   7
  -6  16  -1 495.796 468.341   3
  -6  16  -1 147.086 180.404   7
  -6  16  -2 459.224 492.047   3
  -6  16  -2 992.729 633.870   7
  -6  16  -3 116.386 263.404   3
  -6  16  -3 165.789 176.011   7
  -6  16  -4 380.896 391.219   7
  -6  16  -4 520.730 461.471   3
  -6  16  -5 156.165 229.737   3
  -6  16  -5-203.610 269.881   7
  -6  16  -6 80.0781 275.240   3
  -6  16  -6-305.993 320.495   7
  -6  16  -7 340.997 362.689   3
  -6  16  -7 16.4179 100.705   7
  -6  16  -8 296.188 105.595   3
  -6  16  -9 203.360 299.648   3
  -6  15   6 518.280 500.659   7
  -6  15   5-1.90202 78.2759   7
  -6  15   4-594.344 472.518   7
  -6  15   3 219.010 245.021   7
  -6  15   2-45.9243 137.035   3
  -6  15   2 297.726 331.950   7
  -6  15   1-311.194 316.740   3
  -6  15   1-360.940 357.499   7
  -6  15   0 183.796 249.046   3
  -6  15   0 80.9166 186.532   7
  -6  15   0 698.948 482.518   1
  -6  15  -1-65.3481 162.673   3
  -6  15  -1 436.629 421.584   7
  -6  15  -2 474.145 438.185   3
  -6  15  -2-18.5944 121.105   7
  -6  15  -3 1492.81 710.067   3
  -6  15  -3 950.806 590.074   7
  -6  15  -4 237.758 292.592   3
  -6  15  -4 159.501 227.816   7
  -6  15  -5 946.317 573.301   3
  -6  15  -5 633.305 502.106   7
  -6  15  -6 647.539 459.063   3
  -6  15  -6 1052.26 622.563   7
  -6  15  -7 3.41275 113.196   3
  -6  15  -7 211.781 333.583   7
  -6  15  -8 318.118 173.980   3
  -6  15  -9 549.922 514.402   3
  -6  15 -10-859.409 567.619   3
  -6  15 -11-76.3231 193.699   3
  -6  14   8 319.994 387.141   7
  -6  14   7-435.293 418.075   7
  -6  14   6 1110.66 652.585   7
  -6  14   5 1362.80 716.803   7
  -6  14   4-28.6145 126.871   7
  -6  14   3-685.611 433.513   3
  -6  14   3 428.422 250.243   7
  -6  14   2-272.257 277.253   3
  -6  14   2-82.9595 139.802   1
  -6  14   2-416.909 368.215   7
  -6  14   1-408.476 341.392   3
  -6  14   1-52.9276 160.073   7
  -6  14   1 239.688 273.812   1
  -6  14   0 549.041 424.666   3
  -6  14   0 188.058 263.399   1
  -6  14   0 282.508 297.830   7
  -6  14  -1-144.114 201.240   1
  -6  14  -1-41.0986 235.285   7
  -6  14  -1-238.839 269.961   3
  -6  14  -2 182.598 242.712   3
  -6  14  -2 351.726 211.862   7
  -6  14  -3 482.902 271.050   3
  -6  14  -3 85.5483 333.230   7
  -6  14  -4 62.2931 162.813   3
  -6  14  -4 123.515 196.167   7
  -6  14  -5-65.3304 168.975   3
  -6  14  -5 204.247 237.842   7
  -6  14  -6 126.164 130.507   3
  -6  14  -6 96.2097 180.780   7
  -6  14  -7-325.971 335.169   3
  -6  14  -7 180.969 299.103   7
  -6  14  -8 746.731 480.090   7
  -6  14  -8-743.509 496.983   3
  -6  14  -9 834.808 537.332   3
  -6  14 -10 191.989 345.153   3
  -6  14 -11 384.237 429.408   3
  -6  14 -12-114.902 300.201   3
  -6  14 -13-382.425 393.950   3
  -6  13  10-488.707 452.226   7
  -6  13   9 156.530 288.880   7
  -6  13   8 155.339 416.606   7
  -6  13   7-145.308 248.545   7
  -6  13   6 229.887 306.165   7
  -6  13   5-622.753 454.371   7
  -6  13   4-183.145 88.1706   3
  -6  13   4-387.226 308.307   1
  -6  13   4-121.093 208.609   7
  -6  13   3 429.938 314.648   3
  -6  13   3-27.3962 123.394   7
  -6  13   3 450.062 350.466   1
  -6  13   2 536.893 388.362   3
  -6  13   2 1269.66 640.880   7
  -6  13   2 402.210 344.655   1
  -6  13   1 136.076 279.832   1
  -6  13   1 199.457 420.077   3
  -6  13   1 70.8651 195.957   7
  -6  13   0-199.518 248.448   3
  -6  13   0-79.8479 197.815   7
  -6  13  -1 286.410 267.272   1
  -6  13  -1 381.941 402.695   3
  -6  13  -1-19.6172 302.251   7
  -6  13  -2 266.672 259.571   1
  -6  13  -2-31.4649 241.549   3
  -6  13  -2-102.705 178.696   7
  -6  13  -3 717.062 435.338   1
  -6  13  -3 1642.83 679.274   3
  -6  13  -3 1011.76 472.074   7
  -6  13  -4 814.931 470.971   3
  -6  13  -4 383.127 333.346   7
  -6  13  -5 119.162 223.754   3
  -6  13  -5-244.132 341.135   7
  -6  13  -6-252.250 184.758   3
  -6  13  -6-264.738 220.710   7
  -6  13  -7 318.510 321.292   7
  -6  13  -7 715.199 525.450   3
  -6  13  -8 233.011 355.802   3
  -6  13  -8 542.520 410.765   7
  -6  13  -9-143.326 202.171   3
  -6  13 -10-233.917 286.114   3
  -6  13 -11-143.472 234.791   3
  -6  13 -12-245.977 304.182   3
  -6  13 -13-449.573 407.353   3
  -6  13 -14 197.761 421.885   3
  -6  13 -15 404.360 518.698   3
  -6  12  12 1329.27 758.127   7
  -6  12  11 216.656 303.484   7
  -6  12  10-128.697 341.758   7
  -6  12   9 808.718 410.304   7
  -6  12   8 225.355 397.951   7
  -6  12   7-425.520 320.487   1
  -6  12   7-352.426 348.508   7
  -6  12   6 1242.76 613.866   7
  -6  12   6 812.325 435.489   1
  -6  12   5 102.705 190.426   3
  -6  12   5 151.153 391.686   7
  -6  12   5 124.268 203.210   1
  -6  12   4 10.8366 74.6500   1
  -6  12   4-35.1847 145.904   3
  -6  12   3 317.982 252.318   3
  -6  12   3-637.194 384.584   1
  -6  12   3 725.398 524.323   7
  -6  12   2 594.652 368.070   3
  -6  12   2 281.260 106.376   1
  -6  12   2-194.138 316.651   7
  -6  12   1 2029.43 699.220   3
  -6  12   1 3944.23 955.756   1
  -6  12   1 3281.02 926.493   7
  -6  12   0 481.098 402.005   1
  -6  12   0 679.657 440.561   3
  -6  12   0 679.715 371.087   7
  -6  12  -1 2420.32 748.324   1
  -6  12  -1 1473.12 558.257   3
  -6  12  -1 1240.45 576.967   7
  -6  12  -2 6921.69 1244.04   1
  -6  12  -2 4641.15 1055.30   3
  -6  12  -2 3756.15 937.132   7
  -6  12  -3 567.116 340.136   3
  -6  12  -3 360.381 320.013   7
  -6  12  -3-40.6059 122.670   1
  -6  12  -4 863.710 461.823   3
  -6  12  -4 1628.37 693.702   1
  -6  12  -4 1815.70 677.557   7
  -6  12  -5 330.278 233.140   7
  -6  12  -5-26.5363 255.251   3
  -6  12  -6 2786.65 902.053   3
  -6  12  -6 2107.78 663.982   7
  -6  12  -7 378.385 373.760   3
  -6  12  -7 10.7732 95.6623   7
  -6  12  -8 1046.35 627.435   3
  -6  12  -8 612.454 431.644   7
  -6  12  -9 553.851 401.601   3
  -6  12 -10 522.668 395.688   3
  -6  12 -11 348.167 510.958   3
  -6  12 -12 720.599 505.419   3
  -6  12 -13-32.4021 231.677   3
  -6  12 -14 4.31794 221.268   3
  -6  12 -15 468.611 539.644   3
  -6  12 -16 57.9313 207.488   3
  -6  11  14 164.624 281.406   7
  -6  11  13 263.414 337.215   7
  -6  11  12 313.796 365.735   7
  -6  11  11-16.2958 206.049   7
  -6  11  10-321.237 343.253   7
  -6  11   9 586.342 483.820   7
  -6  11   8 259.996 319.240   7
  -6  11   7 260.110 278.945   7
  -6  11   6 712.821 390.340   3
  -6  11   6 1347.11 628.299   7
  -6  11   5 300.421 198.136   3
  -6  11   5-100.669 195.105   1
  -6  11   5-104.131 130.295   7
  -6  11   4 3196.48 805.377   3
  -6  11   4 2594.82 804.559   7
  -6  11   4 3066.52 836.437   1
  -6  11   3 290.399 247.051   1
  -6  11   3 108.891 249.114   3
   6 -11  -3 646.682 378.625   2
  -6  11   3 685.141 399.426   7
  -6  11   2 385.821 310.375   3
  -6  11   2 450.481 231.773   1
  -6  11   2 671.221 361.734   7
   6 -11  -2 748.851 377.553   2
   6 -11  -1-275.211 219.059   2
  -6  11   1 162.341 240.198   1
  -6  11   1-59.5525 91.3289   3
  -6  11   1-239.000 377.097   7
   6 -11   0 504.587 287.553   2
  -6  11   0 178.237 216.837   3
  -6  11   0 130.461 124.466   1
  -6  11   0 272.502 250.825   7
  -6  11  -1 438.644 327.199   7
  -6  11  -1 555.589 326.819   3
  -6  11  -2 1120.72 499.182   3
  -6  11  -2 1333.26 548.210   1
  -6  11  -2 559.482 318.448   7
  -6  11  -3 41.5446 223.474   1
  -6  11  -3 297.917 251.328   3
  -6  11  -3 172.272 265.848   7
  -6  11  -4 731.789 359.810   3
  -6  11  -4 79.7609 108.683   7
  -6  11  -4 614.356 398.634   1
  -6  11  -5 653.640 406.703   1
  -6  11  -5 1138.72 497.330   3
  -6  11  -5 149.750 94.4183   7
  -6  11  -6 1607.32 567.684   7
  -6  11  -6 1624.28 586.382   3
  -6  11  -7-16.1401 117.605   3
  -6  11  -7 402.790 297.543   7
  -6  11  -8 1158.63 505.602   3
  -6  11  -9 276.695 361.232   3
  -6  11 -10-123.399 306.798   3
  -6  11 -11-71.9227 275.647   3
  -6  11 -12 214.248 119.809   3
  -6  11 -13 65.4339 119.200   3
  -6  11 -14 315.334 427.536   3
  -6  11 -15 92.4259 328.066   3
  -6  11 -16 645.466 509.653   3
  -6  11 -17-388.391 397.184   3
  -6  10  15 803.040 597.397   7
  -6  10  14 264.066 192.675   7
  -6  10  13 52.5336 138.938   7
  -6  10  12 740.634 419.093   7
  -6  10  11-491.587 416.331   7
  -6  10  10 196.065 298.478   7
  -6  10   9-198.003 307.743   7
  -6  10   8-190.153 309.888   7
  -6  10   7 1437.06 640.520   7
  -6  10   6 4590.53 876.211   3
  -6  10   6 4046.85 1064.28   7
  -6  10   5 79.6524 111.958   7
  -6  10   5-206.061 148.715   3
  -6  10   4 4434.19 834.636   3
   6 -10  -4 5304.59 1014.70   2
  -6  10   4 3968.66 985.003   7
  -6  10   3 308.800 180.325   3
   6 -10  -3 520.559 318.125   2
  -6  10   3 652.121 392.668   1
  -6  10   3 218.461 285.032   7
  -6  10   2 199.265 139.990   3
   6 -10  -2 2.60315 57.3592   2
  -6  10   2 16.1118 169.752   1
   6 -10  -1-34.8668 84.1882   2
  -6  10   1-139.402 96.2413   1
  -6  10   1-327.848 328.735   3
  -6  10   1 50.9493 104.129   7
   6 -10   0 1829.57 569.663   2
  -6  10   0 1894.46 592.103   3
  -6  10   0 1777.89 636.896   7
  -6  10   0 2420.21 732.977   1
  -6  10  -1 9758.97 1359.75   3
  -6  10  -1 9731.05 1366.13   7
  -6  10  -1 9070.03 1389.73   1
  -6  10  -2 3704.40 883.284   3
  -6  10  -2 4045.06 860.368   7
  -6  10  -2 2459.82 716.086   1
  -6  10  -3 276.150 332.120   1
  -6  10  -3 267.207 223.331   3
  -6  10  -3 478.852 308.413   7
  -6  10  -4 469.672 479.481   1
  -6  10  -4 497.148 449.059   3
  -6  10  -4 643.157 354.472   7
  -6  10  -5 187.258 245.781   1
  -6  10  -5-157.484 235.741   3
  -6  10  -5 19.3133 95.9819   7
  -6  10  -6 1070.94 553.338   3
  -6  10  -6 951.315 372.070   7
  -6  10  -7 4434.50 979.580   3
  -6  10  -7 4676.08 893.308   7
  -6  10  -8-306.006 385.707   3
  -6  10  -9 1341.09 613.156   3
  -6  10 -10 523.027 391.530   3
  -6  10 -11-495.857 380.133   3
  -6  10 -12 343.335 210.858   3
  -6  10 -13 436.575 462.819   3
  -6  10 -14 1691.34 780.855   3
  -6  10 -15-83.2548 372.529   3
  -6  10 -16 2622.24 1035.44   3
  -6  10 -17 806.845 526.743   3
  -6  10 -18 660.770 522.335   3
  -6   9  17 993.175 767.500   7
  -6   9  16 371.119 405.600   7
  -6   9  15 63.2887 119.728   7
  -6   9  14 202.741 292.495   7
  -6   9  13-261.569 324.275   7
  -6   9  12 123.885 382.175   7
  -6   9  11 830.756 584.384   7
  -6   9  10 14.8639 145.289   7
  -6   9   9 440.660 270.426   7
  -6   9   8 539.269 388.698   7
  -6   9   7 3892.51 994.604   7
  -6   9   7 3621.36 725.854   3
  -6   9   6 2995.82 649.735   3
  -6   9   6 3672.37 941.567   7
  -6   9   5 709.233 360.756   3
  -6   9   5 852.172 433.909   7
  -6   9   4 40.3511 80.2103   3
  -6   9   4 457.298 336.378   7
   6  -9  -3 4046.59 870.957   2
  -6   9   3 3071.69 723.088   3
  -6   9   3 4184.62 904.627   7
  -6   9   2 716.453 316.735   3
  -6   9   2 905.491 397.216   1
   6  -9  -2 797.025 345.691   2
  -6   9   2 806.495 380.555   7
  -6   9   1 631.999 293.086   3
  -6   9   1 484.442 317.638   7
  -6   9   1 1122.27 483.476   1
   6  -9  -1 711.845 337.685   2
  -6   9   0 1747.40 605.514   1
   6  -9   0 1363.70 480.911   2
  -6   9   0 2532.04 633.623   3
  -6   9   0 2440.54 660.721   7
  -6   9  -1 224.624 307.127   1
   6  -9   1-6.78098 131.170   2
  -6   9  -1 165.055 223.277   3
  -6   9  -1 67.3230 125.822   7
  -6   9  -2 565.289 253.630   7
  -6   9  -2 490.047 332.146   1
  -6   9  -2 1411.90 508.847   3
  -6   9  -3 327.771 300.668   3
  -6   9  -3 112.096 93.1042   7
  -6   9  -4 1185.40 540.314   3
  -6   9  -4 1136.61 467.556   1
  -6   9  -4 980.550 374.212   7
  -6   9  -5 880.111 436.335   1
  -6   9  -5 1432.25 445.132   7
  -6   9  -5 1680.56 586.564   3
  -6   9  -6 5532.23 1069.49   1
  -6   9  -6 5371.51 873.911   7
  -6   9  -6 5245.51 1034.63   3
  -6   9  -7 2078.03 708.327   3
  -6   9  -8 2595.71 812.299   3
  -6   9  -9 1724.45 668.246   3
  -6   9 -10 610.814 399.021   3
  -6   9 -11 833.650 405.252   3
  -6   9 -12-37.9361 130.181   3
  -6   9 -13 450.683 339.941   3
  -6   9 -14 1402.15 682.998   3
  -6   9 -15 104.350 292.523   3
  -6   9 -16 411.032 513.210   3
  -6   9 -17 317.638 396.006   3
  -6   9 -18 806.108 460.355   3
  -6   9 -19 587.157 403.236   3
  -6   8  18 312.302 381.084   7
  -6   8  17 154.986 279.271   7
  -6   8  16 772.579 533.481   7
  -6   8  15 486.877 356.498   7
  -6   8  14 273.482 135.183   7
  -6   8  13 2235.42 846.887   7
  -6   8  12 2205.32 897.333   7
  -6   8  11 49.9689 229.722   7
  -6   8  10 1798.36 668.904   7
  -6   8   9 150.646 346.438   7
  -6   8   8 106.881 191.539   7
  -6   8   8 168.015 274.721   3
  -6   8   7-185.669 155.161   3
  -6   8   7-65.3098 242.855   7
  -6   8   6 261.072 184.417   3
  -6   8   6 329.669 315.735   7
  -6   8   5 323.664 151.537   3
  -6   8   5 76.8806 141.691   7
  -6   8   4 2663.85 582.377   3
  -6   8   4 1626.81 565.704   7
  -6   8   3 525.463 294.565   3
  -6   8   3 606.043 296.117   7
   6  -8  -2 10464.5 1360.29   2
  -6   8   2 10408.9 1354.42   7
  -6   8   2 8893.64 1097.58   3
  -6   8   1 106.872 210.421   3
  -6   8   1 431.694 217.236   1
  -6   8   1 296.586 272.347   7
  -6   8   0 8886.32 1145.56   3
   6  -8   0 7239.86 1104.86   2
  -6   8   0 9291.16 1343.60   1
  -6   8   0 7080.12 1045.17   7
  -6   8  -1 3820.75 823.486   1
   6  -8   1 4669.13 879.153   2
  -6   8  -1 4649.59 849.710   3
  -6   8  -1 4348.21 813.173   7
  -6   8  -2 35715.3 2407.41   3
  -6   8  -2 35807.5 2622.55   1
  -6   8  -2 31058.6 2114.73   7
  -6   8  -3 3157.01 792.141   1
  -6   8  -3 2478.25 579.165   7
  -6   8  -3 2624.98 671.952   3
  -6   8  -4 10392.9 1369.03   3
  -6   8  -4 8118.17 1272.32   1
  -6   8  -4 9185.04 1086.85   7
  -6   8  -5 945.673 464.744   3
  -6   8  -5 742.651 464.652   1
  -6   8  -5 751.372 303.816   7
  -6   8  -6 1262.11 571.862   3
  -6   8  -6 1440.85 547.928   1
  -6   8  -6 1008.37 348.841   7
  -6   8  -7-139.861 175.691   3
  -6   8  -8 612.201 382.533   3
  -6   8  -9 2588.45 805.623   3
  -6   8 -10-28.6743 210.334   3
  -6   8 -11 1159.71 550.409   3
  -6   8 -12 467.897 268.346   3
  -6   8 -13 114.059 195.362   3
  -6   8 -14 193.262 278.532   3
  -6   8 -15-186.463 260.244   3
  -6   8 -16 1864.52 863.180   3
  -6   8 -17 1638.84 875.895   3
  -6   8 -18-535.439 443.993   3
  -6   8 -19 214.886 405.670   3
  -6   8 -20-675.397 516.487   3
  -6   7  19 1267.97 856.053   7
  -6   7  18 584.744 544.467   7
  -6   7  17 887.204 662.937   7
  -6   7  16-683.776 518.869   7
  -6   7  15 840.920 570.383   7
  -6   7  14 882.145 504.326   7
  -6   7  13 392.716 501.210   7
  -6   7  12-798.396 494.881   7
  -6   7  11 1.37788 192.434   7
  -6   7  10 1876.92 723.571   7
  -6   7   9-34.0252 359.903   7
  -6   7   8 811.556 421.390   7
  -6   7   7 686.105 249.277   3
  -6   7   7 647.964 240.539   7
  -6   7   6 341.874 239.703   7
  -6   7   6 162.580 57.9428   3
  -6   7   5 1178.43 331.469   3
  -6   7   5 1363.55 499.108   7
  -6   7   4 1491.68 474.680   7
  -6   7   4 1535.41 420.130   3
  -6   7   3 86.6519 148.317   7
  -6   7   3-29.1016 154.888   3
   6  -7  -2 1435.68 500.881   2
  -6   7   2 1313.43 399.280   3
  -6   7   2 1541.51 469.180   7
  -6   7   1 473.078 245.504   3
  -6   7   1 368.173 211.770   7
   6  -7  -1 433.344 159.666   2
   6  -7   0 1346.07 489.058   2
  -6   7   0 1472.04 482.385   1
  -6   7   0 1516.24 450.025   3
  -6   7   0 1643.39 475.918   7
   6  -7   1 3763.97 783.922   2
  -6   7  -1 3305.21 671.350   7
  -6   7  -1 3914.17 735.674   3
  -6   7  -1 3106.73 773.774   1
  -6   7  -2 3224.46 745.642   1
  -6   7  -2 3715.84 673.468   7
  -6   7  -2 4754.75 841.464   3
  -6   7  -3 1165.36 416.728   3
  -6   7  -3 1123.04 434.575   1
  -6   7  -3 1129.19 358.233   7
  -6   7  -4 2028.96 585.635   3
  -6   7  -4 1856.25 448.646   7
  -6   7  -4 1616.36 592.896   1
  -6   7  -5 1101.11 407.284   3
  -6   7  -5 1661.56 569.178   1
  -6   7  -5 1182.51 347.321   7
  -6   7  -6 127.598 175.682   3
  -6   7  -6 183.808 866.781   1
  -6   7  -6 107.475 141.180   7
  -6   7  -7 559.396 388.481   3
  -6   7  -7-336.019 414.560   1
  -6   7  -7 311.667 190.606   6
  -6   7  -8 536.176 345.291   3
  -6   7  -8 443.183 254.016   6
  -6   7  -9-64.4916 259.189   3
  -6   7  -9 265.450 111.896   6
  -6   7 -10 3888.80 942.906   3
  -6   7 -10 4663.38 886.646   6
  -6   7 -11 1695.92 670.764   3
  -6   7 -11 1230.49 431.691   6
  -6   7 -12-268.832 425.513   3
  -6   7 -12-446.958 301.115   6
  -6   7 -13 97.4716 286.525   3
  -6   7 -13-591.429 358.427   6
  -6   7 -14-97.1360 311.092   3
  -6   7 -14 332.826 323.848   6
  -6   7 -15-349.501 299.811   3
  -6   7 -15 354.302 271.434   6
  -6   7 -16 213.583 303.518   3
  -6   7 -16 1141.17 576.921   6
  -6   7 -17-315.183 194.555   3
  -6   7 -17 64.9872 323.392   6
  -6   7 -18-203.088 286.109   3
  -6   7 -18 122.447 207.920   6
  -6   7 -19 429.111 358.586   3
  -6   7 -19 270.580 301.933   6
  -6   7 -20 200.517 294.590   3
  -6   7 -20-24.6939 132.456   6
  -6   6  20 577.453 467.042   7
  -6   6  19 1343.96 785.188   7
  -6   6  18 1159.07 699.343   7
  -6   6  17 303.036 300.936   7
  -6   6  16 597.985 467.192   7
  -6   6  15 22.5822 200.891   7
  -6   6  14-39.2856 291.106   7
  -6   6  13 334.556 447.387   7
  -6   6  12 441.840 140.061   7
  -6   6  11 237.893 290.920   7
  -6   6  10 642.102 212.827   7
  -6   6   9 9583.08 1511.43   7
  -6   6   8 7085.60 1238.09   7
  -6   6   7 4592.71 967.659   7
  -6   6   7 3755.05 537.281   3
  -6   6   6 18421.3 1873.80   7
  -6   6   6 17730.4 1201.49   3
  -6   6   5 400.974 180.606   3
  -6   6   5 385.200 264.202   7
  -6   6   4-59.9607 130.496   3
  -6   6   4-135.054 173.586   7
  -6   6   3 2173.82 597.747   7
  -6   6   3 2222.66 462.254   3
   6  -6  -2 2308.39 658.425   2
  -6   6   2 3577.24 597.102   3
  -6   6   2 2762.05 615.604   7
   6  -6  -1 3639.28 750.656   2
  -6   6   1 3658.17 689.462   7
  -6   6   1 3716.41 657.023   3
  -6   6   0 2713.08 573.616   7
  -6   6   0 2343.80 526.546   3
   6  -6   0 2159.88 594.916   2
  -6   6  -1 707.169 239.913   3
   6  -6   1 480.732 253.397   2
  -6   6  -1 469.826 262.442   7
  -6   6  -2 21852.0 1724.20   3
  -6   6  -2 21108.6 1442.12   7
   6  -6   2 22852.7 1927.09   2
  -6   6  -3 6955.36 1028.59   3
  -6   6  -3 5606.03 732.574   7
  -6   6  -3 5291.97 643.131   6
  -6   6  -4 8461.37 1142.84   3
  -6   6  -4 8098.51 832.420   7
  -6   6  -4 8955.21 890.672   6
  -6   6  -5 9008.98 1216.97   3
  -6   6  -5 7849.98 801.178   7
  -6   6  -5 8324.64 918.722   6
  -6   6  -6 1612.48 543.487   1
  -6   6  -6 1389.50 501.365   3
  -6   6  -6 1129.10 287.572   7
  -6   6  -6 1283.56 381.819   6
  -6   6  -7-166.123 165.540   1
  -6   6  -7-105.198 191.113   3
  -6   6  -7-176.747 196.576   6
  -6   6  -8 7212.97 1192.31   3
  -6   6  -8 6868.57 998.093   6
  -6   6  -9 6957.77 1204.12   3
  -6   6  -9 5857.23 951.887   6
  -6   6 -10 17.3418 217.790   3
  -6   6 -10 142.809 142.005   6
  -6   6 -11 2086.92 704.054   3
  -6   6 -11 1946.85 607.685   6
  -6   6 -12 2100.24 723.930   3
  -6   6 -12 2028.62 633.563   6
  -6   6 -13 222.448 276.851   3
  -6   6 -13-155.753 224.528   6
  -6   6 -14 759.936 511.524   3
  -6   6 -14 646.467 349.030   6
  -6   6 -15 463.592 388.481   3
  -6   6 -15 500.694 263.161   6
  -6   6 -16 352.582 363.083   3
  -6   6 -16 531.265 393.656   6
  -6   6 -17 2108.67 862.776   3
  -6   6 -17 325.761 414.051   6
  -6   6 -18 445.503 470.152   3
  -6   6 -18 173.350 268.479   6
  -6   6 -19 94.2269 212.709   3
  -6   6 -19-161.453 244.049   6
  -6   6 -20 344.999 425.349   3
  -6   6 -20 919.336 563.542   6
  -6   5  20-274.461 360.690   7
  -6   5  19-464.773 449.829   7
  -6   5  18-19.0697 141.544   7
  -6   5  17 312.834 509.572   7
  -6   5  16 239.384 427.473   7
  -6   5  15 703.916 570.988   7
  -6   5  14 1993.65 804.146   7
  -6   5  13 4319.05 1114.48   7
  -6   5  12 10396.4 1668.27   7
  -6   5  11 1357.68 633.327   7
  -6   5  10 202.280 242.943   7
  -6   5   9 2254.51 734.177   7
  -6   5   8 476.429 226.916   7
  -6   5   7 256.725 123.779   3
  -6   5   7 234.266 166.180   7
  -6   5   6 8784.31 1233.72   7
  -6   5   6 8753.62 723.628   3
  -6   5   5 3.23297 117.460   3
  -6   5   5 69.7668 57.6053   5
  -6   5   5 29.1071 243.162   7
  -6   5   4 1636.05 347.520   3
  -6   5   4 1683.12 522.213   7
  -6   5   3 5032.06 623.499   3
  -6   5   3 5685.02 867.049   7
  -6   5   2 3785.20 576.714   3
  -6   5   2 4295.77 713.797   7
   6  -5  -2 2743.99 684.340   2
  -6   5   1 7030.68 831.605   3
  -6   5   1 6863.92 865.069   7
   6  -5  -1 8288.60 1166.69   2
  -6   5   0-28.7597 113.926   3
  -6   5   0 121.817 82.8505   6
  -6   5   0 147.811 150.436   7
   6  -5   0 321.018 220.543   2
  -6   5  -1 12452.1 1193.99   3
  -6   5  -1 11106.3 991.557   7
   6  -5   1 11373.7 1339.40   2
  -6   5  -1 10950.6 738.175   6
  -6   5  -2 1578.30 323.275   6
  -6   5  -2 2521.17 569.285   3
   6  -5   2 2078.05 582.833   2
  -6   5  -2 1615.34 367.776   7
  -6   5  -3 5766.84 876.492   3
  -6   5  -3 4012.49 526.399   7
  -6   5  -3 6013.69 674.265   6
  -6   5  -4 5202.49 595.293   7
  -6   5  -4 5635.01 893.192   3
  -6   5  -4 4781.19 547.163   7
  -6   5  -4 4928.04 655.955   6
  -6   5  -5 2289.44 491.479   6
  -6   5  -5 2335.71 382.617   7
  -6   5  -5 2725.25 681.250   3
  -6   5  -5 2389.17 365.927   7
  -6   5  -6 5203.96 542.307   7
  -6   5  -6 5764.67 996.534   3
  -6   5  -6 5222.14 523.146   7
  -6   5  -6 5450.76 967.741   1
  -6   5  -6 5629.95 788.600   6
  -6   5  -7 3895.31 692.681   6
  -6   5  -7 2760.84 382.716   7
  -6   5  -7 3058.57 742.931   1
  -6   5  -7 3331.39 412.202   7
  -6   5  -8 11532.6 1275.59   6
  -6   5  -9 1178.89 428.082   6
  -6   5 -10 1419.03 489.102   6
  -6   5 -11 299.922 263.312   6
  -6   5 -12 286.037 238.015   6
  -6   5 -13 833.397 419.761   6
  -6   5 -14 63.6661 94.2569   6
  -6   5 -15-238.822 265.121   6
  -6   5 -16 721.379 434.460   6
  -6   5 -17 384.726 324.385   6
  -6   5 -18-636.525 436.780   6
  -6   5 -19 388.875 383.154   3
  -6   5 -19-411.452 367.522   6
  -6   5 -20 844.477 577.514   3
  -6   5 -20 521.315 423.282   6
  -6   5 -21 303.351 393.630   3
  -6   4  21 135.557 199.098   7
  -6   4  20 239.910 155.791   7
  -6   4  19 897.859 625.447   7
  -6   4  18-235.020 313.073   7
  -6   4  17 11.1976 411.381   7
  -6   4  16 261.678 390.739   7
  -6   4  15 5313.62 1296.73   7
  -6   4  14 3534.21 1041.22   7
  -6   4  13 160.197 315.441   7
  -6   4  12 1926.93 687.596   7
  -6   4  11 204.011 115.451   7
  -6   4  10 1050.97 493.984   7
   6  -4  -9-134.203 77.1389   5
  -6   4   9-119.220 263.803   7
   6  -4  -8 10249.9 705.047   5
  -6   4   8 11315.5 1478.61   7
   6  -4  -7 2337.26 355.929   5
  -6   4   7 2020.05 635.388   7
   6  -4  -6 12917.1 886.983   5
  -6   4   6 12720.5 1439.72   7
  -6   4   6 12140.1 705.901   3
   6  -4  -5 3997.57 520.858   5
  -6   4   5 4015.18 802.331   7
  -6   4   5 3572.18 419.535   3
  -6   4   4 20246.1 1082.62   3
   6  -4  -4 20879.3 1248.14   5
  -6   4   4 19608.5 1627.69   7
  -6   4   3 7594.82 713.093   3
  -6   4   3 8618.43 1021.79   7
   6  -4  -3 7517.64 781.536   5
   6  -4  -2 45215.0 1975.60   5
  -6   4   2 45113.9 1857.04   3
  -6   4   2 44154.0 2173.84   7
   6  -4  -2 42876.2 2665.83   2
  -6   4   1 212.927 78.2025   6
  -6   4   1 130.810 138.333   3
   6  -4  -1 458.286 224.377   5
  -6   4   1 382.202 200.838   7
   6  -4  -1-57.7975 160.796   2
   6  -4   0 17541.0 1340.33   5
  -6   4   0 19565.0 1387.56   3
  -6   4   0 17469.8 1210.60   7
   6  -4   0 18608.9 1719.50   2
  -6   4   0 17819.7 860.065   6
   6  -4   1 12604.4 1424.83   2
   6  -4   1 11736.1 1129.57   5
  -6   4  -1 11759.3 1136.51   3
  -6   4  -1 12123.9 926.703   7
  -6   4  -1 11243.4 780.430   6
   6  -4   2 4096.59 729.919   5
   6  -4   2 3932.59 804.021   2
  -6   4  -2 4039.10 495.713   7
  -6   4  -2 3909.39 506.840   6
  -6   4  -3 2797.60 459.700   6
  -6   4  -3 2870.69 375.917   7
  -6   4  -4 488.690 203.855   6
  -6   4  -4 283.331 117.707   7
  -6   4  -4 370.878 122.357   7
  -6   4  -5 241.819 190.761   6
  -6   4  -5 299.904 110.321   7
  -6   4  -5 201.352 85.9349   7
  -6   4  -6-3.26368 121.110   6
  -6   4  -6-81.2938 78.8673   1
  -6   4  -6-12.1459 13.6985   7
  -6   4  -6 39.8661 28.3653   7
  -6   4  -7 184.862 219.288   6
  -6   4  -7 132.325 221.088   1
  -6   4  -7 16.4922 27.9580   7
  -6   4  -8 4087.90 331.223   7
  -6   4  -8 6007.46 909.719   6
  -6   4  -9 1494.59 474.656   6
  -6   4 -10 5047.14 915.991   6
  -6   4 -11 2758.28 701.254   6
  -6   4 -12 3528.99 816.418   6
  -6   4 -13 824.213 424.940   6
  -6   4 -14 240.831 325.664   6
  -6   4 -15 863.576 553.820   6
  -6   4 -16-17.4602 118.561   6
  -6   4 -17-223.680 258.546   6
  -6   4 -18 153.400 227.604   6
  -6   4 -19 415.974 367.007   6
  -6   4 -20-318.832 336.699   6
  -6   3  22-190.460 311.364   7
  -6   3  21-141.314 276.167   7
  -6   3  20 657.690 430.196   7
  -6   3  19 654.306 516.245   7
  -6   3  18 895.017 596.687   7
  -6   3  17 696.728 548.976   7
  -6   3  16 101.944 217.883   7
  -6   3  15 1099.94 651.775   7
  -6   3  14 2211.44 832.599   7
  -6   3  13 2136.62 728.573   7
  -6   3  12 1556.82 609.092   7
   6  -3 -11 58.1910 99.3876   5
  -6   3  11-34.3376 213.254   7
   6  -3 -10 482.364 194.594   5
  -6   3  10 764.394 382.873   7
   6  -3  -9 174.071 110.792   5
  -6   3   9-148.366 278.693   7
  -6   3   8 278.297 101.745   6
   6  -3  -8 528.017 205.696   5
  -6   3   8-3.06699 249.590   7
  -6   3   7 44.1266 27.2221   6
   6  -3  -7-42.9845 106.414   5
  -6   3   7-136.206 273.121   7
  -6   3   6 36.7170 46.1695   6
  -6   3   6 41.5126 20.4483   3
   6  -3  -6 113.988 102.454   5
  -6   3   6 178.340 173.052   7
   6  -3  -5 360.064 152.434   5
  -6   3   5 400.842 123.548   3
  -6   3   5 420.144 258.360   7
  -6   3   5 329.623 98.3017   6
  -6   3   4 5960.06 522.495   3
   6  -3  -4 6661.06 758.368   5
  -6   3   4 6776.52 907.695   7
   6  -3  -3 15424.0 1191.06   5
  -6   3   3 14034.4 910.297   3
  -6   3   3 13425.4 1239.96   7
   6  -3  -2 14921.4 1191.14   5
  -6   3   2 15742.8 1230.05   7
  -6   3   2 14931.1 1012.82   3
   6  -3  -1 3890.84 626.811   5
  -6   3   1 3219.77 515.752   7
   6  -3   0 451.442 230.208   5
  -6   3   0 429.255 191.616   7
   6  -3   0 433.358 175.331   7
   6  -3   1 12133.8 1169.11   5
  -6   3  -1 10655.3 775.376   7
   6  -3   2 21193.3 1590.61   5
  -6   3  -2 20461.1 935.290   7
  -6   3  -2 21062.6 1224.64   6
   6  -3   3 23399.9 1725.69   5
  -6   3  -3 20776.8 762.213   7
  -6   3  -3 23071.5 1380.87   6
  -6   3  -4 298.588 192.165   6
   6  -3   4 120.797 152.077   5
  -6   3  -4-65.8009 152.055   1
  -6   3  -5 755.751 240.200   6
   6  -3   5 841.341 316.485   5
  -6   3  -5 1309.17 449.077   1
  -6   3  -6 7008.25 1046.95   1
  -6   3  -6 5989.12 846.938   6
  -6   3  -7-16.6305 150.747   6
  -6   3  -7 139.975 202.802   1
  -6   3  -8 35.7969 191.529   6
  -6   3  -9 1959.98 551.354   6
  -6   3 -10 63.7437 96.8339   6
  -6   3 -11 11171.7 1425.24   6
  -6   3 -12 3852.45 883.513   6
  -6   3 -13 469.880 269.558   6
  -6   3 -14 1169.26 541.760   6
  -6   3 -15 748.393 416.200   6
  -6   3 -16 485.150 454.746   6
  -6   3 -17 129.594 157.812   6
  -6   3 -18 795.676 549.821   6
  -6   3 -19 1030.04 580.519   6
  -6   3 -20 242.965 403.367   6
  -6   2  22-300.230 381.385   7
  -6   2  21-84.3533 217.815   7
  -6   2  20 110.266 140.557   7
  -6   2  19-662.992 498.578   7
  -6   2  18 163.269 302.261   7
  -6   2  17 638.841 390.659   7
  -6   2  16 337.870 344.393   7
  -6   2  15 210.336 234.684   7
  -6   2  14 1543.10 626.107   7
   6  -2 -13 8607.58 916.311   5
  -6   2  13 9297.43 1547.86   7
   6  -2 -12 10791.8 1004.40   5
  -6   2  12 11602.2 1660.89   7
   6  -2 -11 9744.40 941.453   5
  -6   2  11 9350.67 1441.25   7
  -6   2  10 12986.9 1680.16   7
   6  -2 -10 12196.8 1050.33   5
   6  -2  -9 680.126 248.626   5
  -6   2   9 450.230 392.004   7
   6  -2  -8 17432.9 1254.25   5
  -6   2   8 20181.9 1884.42   7
  -6   2   7 4097.44 464.165   6
   6  -2  -7 6011.08 740.298   5
  -6   2   7 5031.50 905.321   7
   6  -2  -6 2590.62 487.800   5
  -6   2   6 2729.97 602.806   7
  -6   2   5 2977.55 292.655   3
   6  -2  -5 3626.75 583.570   5
  -6   2   5 3242.94 633.741   7
  -6   2   4 3463.45 373.912   3
   6  -2  -4 3632.67 596.142   5
  -6   2   4 3574.56 641.811   7
   6  -2  -3-50.0301 52.6674   5
  -6   2   3 80.2290 120.660   7
   6  -2  -2 6024.25 792.798   5
  -6   2   2 5807.35 714.880   7
   6  -2  -1 745.266 293.617   5
  -6   2   1 1086.90 293.903   7
   6  -2  -1 799.606 228.898   7
   6  -2   0 20547.3 1527.93   5
  -6   2   0 18727.1 1073.08   7
   6  -2   0 19433.4 1013.22   7
  -6   2  -1 2304.89 321.709   7
   6  -2   1 2585.92 564.240   5
   6  -2   1 1810.33 269.207   7
  -6   2  -2 16891.6 672.440   7
   6  -2   2 20404.6 1606.08   5
   6  -2   3 14228.0 1372.65   5
  -6   2  -3 14134.5 1372.23   1
   6  -2   4 7251.20 1006.60   5
  -6   2  -4 7282.78 994.594   1
   6  -2   5 2503.98 601.492   5
  -6   2  -5 2551.19 573.161   1
  -6   2  -6 4412.46 726.389   6
   6  -2   6 5333.07 878.322   5
  -6   2  -6 5155.68 825.308   1
  -6   2  -7 336.180 241.451   6
   6  -2   7 452.694 303.337   5
  -6   2  -7 758.976 365.415   1
  -6   2  -8 514.437 242.536   6
  -6   2  -9 1649.40 540.416   6
  -6   2 -10 1496.49 507.937   6
  -6   2 -11 2133.19 633.626   6
  -6   2 -12 467.680 312.931   6
  -6   2 -13 646.134 309.322   6
  -6   2 -14-141.962 208.350   6
  -6   2 -15 638.911 417.448   6
  -6   2 -16-440.361 347.056   6
  -6   2 -17 356.499 344.718   6
  -6   2 -18-118.282 211.012   6
  -6   2 -19 94.1790 173.243   6
  -6   2 -20-357.011 355.900   6
  -6   1  23 43.1842 175.329   7
  -6   1  22 176.998 249.508   7
  -6   1  21 1144.98 737.572   7
  -6   1  20 394.600 371.339   7
  -6   1  19-203.335 400.898   7
  -6   1  18 1082.58 593.942   7
  -6   1  17-357.844 257.580   7
  -6   1  16 612.319 428.586   7
  -6   1  15 2219.54 862.253   7
  -6   1  14 4887.36 1137.31   7
  -6   1  13 4970.33 1111.81   7
  -6   1  12 1995.76 668.844   7
   6  -1 -11 7800.90 925.879   5
  -6   1  11 6679.80 1194.77   7
   6  -1 -10 10736.3 1087.01   5
  -6   1  10 13450.4 1625.18   7
  -6   1   9 1270.08 480.696   7
   6  -1  -9 1149.75 365.575   5
   6  -1  -8 1601.41 404.765   5
  -6   1   8 2425.11 647.734   7
   6  -1  -7 905.453 321.414   5
  -6   1   7 866.641 343.077   7
   6  -1  -6 12116.3 1122.64   5
  -6   1   6 13329.9 1363.92   7
   6  -1  -5 12890.0 1167.77   5
  -6   1   5 14675.8 1346.64   7
   6  -1  -4 212.275 194.114   5
  -6   1   4 233.833 187.593   7
   6  -1  -3 802.694 271.653   5
  -6   1   3 980.279 311.014   7
   6  -1  -2 5506.00 785.621   5
  -6   1   2 5485.67 677.484   7
   6  -1  -1 967.529 343.220   5
  -6   1   1 782.238 240.703   7
   6  -1  -1 1238.78 275.853   7
  -6   1   0 1544.15 285.049   7
   6  -1   0 1822.79 485.151   5
   6  -1   0 1367.53 256.728   7
  -6   1  -1 59.1565 46.6075   7
   6  -1   1 271.522 241.937   5
   6  -1   1 87.5772 64.1585   7
   6  -1   2-151.034 246.753   5
   6  -1   3 13239.0 1351.83   5
  -6   1  -3 14761.7 1343.70   1
  -6   1  -4 1312.35 380.251   1
   6  -1   4 995.348 405.860   5
   6  -1   5 531.732 278.761   5
  -6   1  -5 549.054 273.772   1
   6  -1   6 8308.99 1129.66   5
  -6   1  -6 12000.2 1224.33   1
   6  -1   7 4804.71 878.434   5
  -6   1  -7 5882.87 854.308   1
  -6   1  -8 2064.87 552.383   6
   6  -1   8 2418.56 689.498   5
   6  -1   9 15343.6 736.262   7
  -6   1  -9 18094.8 1756.55   6
  -6   1 -10 3652.78 807.884   6
  -6   1 -11 2961.35 754.913   6
  -6   1 -12 985.095 403.299   6
  -6   1 -13 2007.33 726.693   6
  -6   1 -14 363.855 340.648   6
  -6   1 -15 233.507 114.407   6
  -6   1 -16 820.994 522.611   6
  -6   1 -17-494.355 377.958   6
  -6   1 -18 642.378 477.052   6
  -6   1 -19 858.684 570.111   6
  -6   1 -20 476.156 479.078   6
  -6   0  23-554.800 502.905   7
  -6   0  22 1328.23 818.360   7
  -6   0  21 396.683 416.383   7
  -6   0  20 199.342 485.263   7
  -6   0  19 304.064 340.570   7
  -6   0  18 269.208 342.690   7
  -6   0  17 1800.44 711.858   7
  -6   0  16 712.218 505.338   7
  -6   0  15 158.179 260.754   7
  -6   0  14-234.350 222.951   7
  -6   0  13 1213.22 539.717   7
  -6   0  12 10463.1 1580.71   7
  -6   0  11 7921.54 1282.86   7
  -6   0  10 4427.06 923.150   7
   6   0  -9 23045.4 1667.04   5
  -6   0   9 24318.9 2137.32   7
   6   0  -8 13468.4 1252.72   5
  -6   0   8 14518.4 1547.79   7
   6   0  -7 2312.04 527.865   5
  -6   0   7 2481.44 594.510   7
   6   0  -6 22994.8 1640.42   5
  -6   0   6 19864.4 1653.90   7
  -6   0   6 17696.2 730.110   3
  -6   0   5 691.822 170.011   3
   6   0  -5 852.175 242.533   5
  -6   0   5 1101.98 383.570   7
   6   0  -4 5029.81 773.137   5
  -6   0   4 4223.19 672.607   7
  -6   0   3 610.208 240.991   7
   6   0  -3 676.227 274.495   5
   6   0  -2 14715.3 1363.39   5
  -6   0   2 13163.5 1041.15   7
  -6   0   1 1160.27 282.847   7
   6   0  -1 1037.01 373.604   5
   6   0  -1 1226.13 292.471   7
   6   0   0 409.994 253.437   5
   6   0   0 783.285 204.667   7
  -6   0   0 730.092 206.508   7
   6   0   1 88.4111 194.904   5
  -6   0  -1 199.731 93.9417   7
   6   0   1 154.696 86.2479   7
   6   0   2 15416.0 1491.06   5
   6   0   2 15910.6 699.982   7
   6   0   3 31957.4 2169.26   5
  -6   0  -3 31147.6 1865.33   1
  -6   0  -4 1731.77 442.238   1
   6   0   4 1814.33 554.708   5
   6   0   5 1731.19 525.574   5
  -6   0  -5 2287.01 505.166   1
   6   0   6 39726.9 2524.02   5
  -6   0  -6 38988.7 2093.45   1
   6   0   7 3888.62 800.178   5
   6   0   7 4505.42 375.522   7
   6   0   8 6788.12 1088.43   5
   6   0   8 6350.24 529.869   7
   6   0   9 6807.20 1148.77   5
   6   0   9 5754.86 573.097   7
  -6   0 -10 563.027 361.705   6
   6   0  10 762.457 362.052   5
   6   0  10 47.7651 77.2767   7
  -6   0 -11-240.011 265.926   6
  -6   0 -12 225.274 262.181   6
  -6   0 -13-160.565 232.838   6
  -6   0 -14 2906.55 816.839   6
  -6   0 -15 689.581 416.863   6
  -6   0 -16-105.596 198.440   6
  -6   0 -17 509.839 369.863   6
  -6   0 -18 719.214 521.127   6
  -6   0 -19 367.141 334.291   6
  -6   0 -20 562.775 502.909   6
  -6  -1  23 664.440 537.806   7
  -6  -1  22 86.9975 345.275   7
  -6  -1  21 996.728 679.466   7
  -6  -1  20 1159.61 700.082   7
  -6  -1  19 51.8346 389.307   7
  -6  -1  18-1161.83 619.431   7
  -6  -1  17-488.885 398.124   7
  -6  -1  16 1787.07 722.062   7
  -6  -1  15 376.393 511.151   7
  -6  -1  14 639.982 486.062   7
  -6  -1  13 4909.79 1078.58   7
   6   1 -12 530.322 134.507   3
  -6  -1  12 343.116 198.129   7
   6   1 -11-15.3684 30.1947   3
  -6  -1  11-22.5323 243.378   7
  -6  -1  10 9005.00 1346.49   7
  -6  -1   9 18667.8 1850.99   7
  -6  -1   8 218.973 86.5197   3
  -6  -1   8 11.4453 186.770   7
  -6  -1   7 8207.20 568.025   3
   6   1  -7 10490.6 1157.45   5
  -6  -1   7 9659.14 1212.53   7
   6   1  -6 16891.6 1475.89   5
  -6  -1   6 16940.8 1529.36   7
  -6  -1   6 16463.6 882.652   3
  -6  -1   5 325.986 114.099   3
  -6  -1   5 235.177 97.5960   7
   6   1  -5 113.687 141.304   5
  -6  -1   4 386.528 167.490   3
  -6  -1   4 459.373 205.802   7
   6   1  -4 580.042 302.097   5
  -6  -1   3 3404.30 577.434   7
   6   1  -3 4231.14 770.853   5
  -6  -1   2 4860.28 659.466   7
   6   1  -2 5368.33 855.065   5
   6   1  -1 11271.3 1268.45   5
   6   1  -1 10403.6 890.804   7
  -6  -1   1 11233.2 933.046   7
  -6  -1   0 3426.25 484.872   7
   6   1   0 3050.40 442.713   7
   6   1   0 2851.11 631.870   5
   6   1   1 2362.97 566.472   5
   6   1   1 3124.54 418.860   7
   6   1   2 12161.3 1345.45   5
   6   1   2 12087.9 770.065   7
   6   1   3 7955.07 1113.79   5
   6   1   3 6662.58 549.564   7
  -6  -1  -3 6313.89 796.585   1
   6   1   4 7232.11 1090.62   5
   6   1   4 4827.35 461.251   7
  -6  -1  -4 6787.45 819.015   1
   6   1   4 5189.30 470.950   7
  -6  -1  -5 579.064 258.124   1
   6   1   5 560.687 282.017   5
   6   1   5 488.839 149.019   7
   6   1   5 388.698 132.780   7
   6   1   6 3648.25 781.096   5
  -6  -1  -6 4748.66 686.602   1
   6   1   6 3334.93 396.721   7
   6   1   6 3601.14 429.873   7
   6   1   6 3262.29 744.152   4
   6   1   7 17571.6 1737.37   5
   6   1   7 16497.6 953.909   7
   6   1   7 14806.6 1667.00   4
   6   1   8 3643.08 794.740   5
   6   1   8 5203.01 585.979   7
   6   1   8 4848.56 962.939   4
   6   1   9 1443.26 535.541   5
   6   1   9 1483.56 332.460   7
   6   1   9 1758.50 592.650   4
   6   1  10 482.862 240.683   5
   6   1  10 243.231 156.200   7
   6   1  10 265.239 274.230   4
  -6  -1 -11 409.115 396.388   6
   6   1  11 296.730 262.966   4
  -6  -1 -12 107.479 261.025   6
   6   1  12 528.764 357.403   4
  -6  -1 -13 893.655 481.092   6
   6   1  13 581.926 351.959   4
  -6  -1 -14 791.153 451.830   6
   6   1  14-588.196 388.564   4
  -6  -1 -15 2315.59 779.716   6
   6   1  15 1176.72 520.866   4
  -6  -1 -16 997.417 550.062   6
   6   1  16 505.132 378.696   4
  -6  -1 -17 204.943 302.499   6
  -6  -1 -18-233.143 281.654   6
  -6  -1 -19 153.134 197.433   6
  -6  -2  24 367.250 423.106   7
  -6  -2  23 510.752 478.714   7
  -6  -2  22 456.351 452.897   7
  -6  -2  21 215.213 323.348   7
  -6  -2  20-277.516 336.582   7
  -6  -2  19 150.289 199.923   7
  -6  -2  18 276.732 490.869   7
  -6  -2  17-32.9246 295.257   7
  -6  -2  16 3036.71 897.155   7
  -6  -2  15-223.767 343.059   7
  -6  -2  14 356.956 347.796   7
  -6  -2  13 13270.7 1798.72   7
   6   2 -13 14243.8 941.115   3
  -6  -2  12 3703.20 942.982   7
   6   2 -12 4323.99 503.118   3
  -6  -2  11 10350.4 1503.95   7
   6   2 -11 10905.0 784.959   3
  -6  -2  10 4293.59 898.989   7
  -6  -2  10 3112.44 401.841   3
   6   2 -10 3762.55 455.973   3
  -6  -2   9 867.251 209.491   3
   6   2  -9 1065.49 245.363   3
  -6  -2   9 607.184 276.706   7
  -6  -2   8 2011.52 570.356   7
  -6  -2   8 1589.86 296.128   3
  -6  -2   7 16303.2 985.266   3
  -6  -2   7 16949.6 1619.34   7
   6   2  -6 11597.1 1278.54   5
  -6  -2   6 12433.0 1339.00   7
   6   2  -5 6691.54 977.635   5
  -6  -2   5 5708.54 859.717   7
  -6  -2   4 4467.97 743.238   7
   6   2  -4 5113.41 851.815   5
   6   2  -3 7936.61 1060.96   5
  -6  -2   3 7013.62 878.463   7
   6   2  -3 6624.39 1009.00   2
   6   2  -2-12.9167 99.0315   2
  -6  -2   2 134.930 131.321   7
  -6  -2   1 1478.16 371.864   7
   6   2  -1 937.143 360.227   5
   6   2  -1 1631.19 468.891   2
   6   2   0 4530.88 814.987   5
  -6  -2   0 3347.21 532.387   7
   6   2   1 14888.4 1515.66   5
   6   2   1 12870.9 980.396   7
   6   2   2-17.8360 232.962   5
   6   2   2 168.685 115.362   7
   6   2   2 260.446 199.817   4
   6   2   3 367.676 148.452   7
  -6  -2  -3 312.361 86.1746   1
   6   2   3 273.544 121.285   5
   6   2   3 219.519 113.121   4
  -6  -2  -4 2627.57 465.294   1
   6   2   4 2471.26 649.982   5
   6   2   4 2065.38 377.185   7
   6   2   4 2728.63 435.696   7
   6   2   4 2407.91 638.623   4
   6   2   5 22471.5 1224.84   7
   6   2   5 24898.9 2056.34   5
   6   2   5 20098.0 1193.50   7
   6   2   5 22799.7 2016.11   4
  -6  -2  -5 23011.5 1409.44   1
   6   2   6 2640.04 703.647   5
   6   2   6 2987.89 736.166   4
   6   2   6 2245.93 402.443   7
   6   2   7 36490.4 2572.08   5
   6   2   7 36353.0 1676.42   7
   6   2   7 41976.6 2855.47   4
   6   2   8-152.302 143.301   5
   6   2   8-61.2386 45.6738   7
   6   2   8 70.9858 220.267   4
   6   2   9 21646.2 2018.27   5
   6   2   9 20379.9 1404.71   7
   6   2   9 21088.5 2145.93   4
   6   2  10 2653.39 716.751   5
   6   2  10 2442.64 526.887   7
   6   2  10 1910.88 633.734   4
   6   2  11 2119.86 690.885   5
   6   2  11 1442.20 573.086   4
   6   2  12-18.4797 120.841   5
   6   2  12-163.808 133.246   4
  -6  -2 -13 687.744 519.979   6
   6   2  13-289.059 232.649   4
  -6  -2 -14-48.3004 312.622   6
   6   2  14 419.385 359.698   4
  -6  -2 -15 195.156 465.405   6
   6   2  15 170.536 187.331   4
  -6  -2 -16-80.3967 175.459   6
   6   2  16-359.261 330.348   4
  -6  -2 -17 37.1501 311.171   6
   6   2  17-321.278 318.836   4
  -6  -2 -18 632.019 385.053   6
   6   2  18 512.049 404.429   4
  -6  -2 -19 56.5056 196.523   6
   6   2  19-283.517 314.870   4
  -6  -3  24 481.794 475.907   7
  -6  -3  23 99.6506 237.201   7
  -6  -3  22-618.314 509.504   7
  -6  -3  21 398.262 376.144   7
  -6  -3  20 821.287 599.448   7
  -6  -3  19 1250.07 692.932   7
  -6  -3  18 2787.24 995.692   7
  -6  -3  17-171.475 237.548   7
  -6  -3  16 359.733 137.374   7
  -6  -3  15 935.123 531.183   7
   6   3 -14 3480.93 547.539   3
  -6  -3  14 4927.03 1164.20   7
   6   3 -13 12.8107 71.0070   3
  -6  -3  13-953.704 486.375   7
  -6  -3  12 5473.40 1105.01   7
   6   3 -12 6156.14 710.579   3
   6   3 -11 2032.61 390.380   3
  -6  -3  11 1511.76 534.455   7
   6   3 -10 1630.49 353.904   3
  -6  -3  10 1472.08 519.842   7
  -6  -3   9 5464.03 1116.53   7
   6   3  -9 3179.65 522.736   3
  -6  -3   8 4753.10 920.328   7
   6   3  -8 3483.37 532.179   3
   6   3  -7 989.912 296.021   3
  -6  -3   7 1037.07 421.777   7
  -6  -3   6 62834.8 3127.13   7
   6   3  -6 63111.3 3116.04   5
   6   3  -5 5859.84 983.941   5
  -6  -3   5 6785.71 979.284   7
   6   3  -4 14586.9 1499.24   5
  -6  -3   4 14536.6 1377.37   7
  -6  -3   3 3407.95 640.063   7
   6   3  -3 3513.08 754.755   5
   6   3  -3 2199.65 579.627   2
   6   3  -2 2109.11 604.719   5
   6   3  -2 2024.10 548.981   2
  -6  -3   2 1910.01 465.291   7
   6   3  -1 19194.9 1765.92   5
  -6  -3   1 19600.5 1441.02   7
   6   3  -1 18632.5 1639.46   2
   6   3  -1 20040.6 1676.11   4
   6   3   0 16408.7 1691.01   5
   6   3   0 15201.3 1576.55   4
   6   3   1 466.053 302.512   5
   6   3   1 318.180 115.048   4
   6   3   2 2020.57 581.210   5
   6   3   2 2037.80 589.065   4
   6   3   3 3963.00 804.754   5
  -6  -3  -3 4586.00 600.621   1
   6   3   3 5293.43 954.914   4
   6   3   4-49.1360 95.0788   5
  -6  -3  -4 121.464 101.127   1
   6   3   4 287.131 101.487   4
   6   3   4 217.467 158.173   7
   6   3   5 3144.39 746.769   5
  -6  -3  -5 3807.32 522.385   1
   6   3   5 3228.93 787.115   4
   6   3   5 2760.02 505.830   7
   6   3   6 42.4559 160.395   5
   6   3   6-130.846 227.387   4
   6   3   6 165.610 139.255   7
   6   3   7 3764.92 806.582   5
   6   3   7 3961.49 624.738   7
   6   3   7 3732.83 882.964   4
   6   3   8 53.6894 116.714   5
   6   3   8 349.470 169.910   7
   6   3   8 119.556 182.109   4
   6   3   9 553.274 315.903   5
   6   3   9 875.751 341.416   7
   6   3   9 966.092 498.504   4
   6   3  10 1134.43 490.367   5
   6   3  10 954.309 343.875   7
   6   3  10 1266.53 461.419   4
   6   3  11 1896.76 670.419   5
   6   3  11 1187.09 399.873   7
   6   3  11 2095.55 717.860   4
   6   3  12-153.197 269.265   5
   6   3  12-453.683 343.985   4
  -6  -3 -13 864.038 478.597   6
   6   3  13 1276.20 608.660   4
  -6  -3 -14 779.652 450.536   6
   6   3  14 417.323 363.332   4
  -6  -3 -15 64.4923 103.999   6
   6   3  15 604.565 447.776   4
  -6  -3 -16 105.132 166.998   6
   6   3  16 237.614 121.174   4
  -6  -3 -17 544.306 406.060   6
   6   3  17 655.998 321.822   4
  -6  -3 -18 334.153 339.963   6
   6   3  18-574.356 440.082   4
  -6  -3 -19 132.494 177.254   6
   6   3  19-577.526 450.226   4
  -6  -4  24 637.342 464.713   7
  -6  -4  23-770.666 587.689   7
  -6  -4  22-575.805 493.340   7
  -6  -4  21-514.512 459.063   7
  -6  -4  20-759.205 535.925   7
  -6  -4  19 26.5985 279.658   7
  -6  -4  18 1536.03 703.938   7
  -6  -4  17-1037.13 572.320   7
  -6  -4  16 2126.77 767.627   7
  -6  -4  15 6197.45 1340.88   7
   6   4 -15 7200.96 903.506   3
  -6  -4  14 144.902 246.773   7
   6   4 -14 964.109 333.120   3
   6   4 -13 2845.06 548.524   3
  -6  -4  13 2790.44 879.093   7
  -6  -4  12 773.964 377.404   7
   6   4 -12 975.005 317.986   3
   6   4 -11-9.04791 70.9875   3
  -6  -4  11-139.077 198.245   7
   6   4 -10 570.749 187.919   3
  -6  -4  10 112.381 230.377   7
   6   4  -9 1044.69 337.507   3
  -6  -4   9 669.949 395.281   7
   6   4  -8 3492.83 596.656   3
  -6  -4   8 4160.89 887.025   7
   6   4  -7 252.315 180.545   3
  -6  -4   7 533.408 318.324   7
   6   4  -6-10.0518 111.561   3
  -6  -4   6-146.024 168.346   7
  -6  -4   5-234.127 267.858   7
   6   4  -5-134.844 181.017   5
  -6  -4   4 3801.09 742.649   7
   6   4  -4 4110.85 822.908   5
   6   4  -3 13858.0 1517.07   5
  -6  -4   3 13512.5 1353.03   7
   6   4  -3 13372.5 1374.40   2
   6   4  -3 13335.2 1342.92   4
  -6  -4   2 1415.80 447.055   7
   6   4  -2 1503.37 571.459   5
   6   4  -2 368.891 271.506   4
   6   4  -1 50311.9 2927.72   5
   6   4  -1 51032.1 2759.13   4
   6   4  -1 53700.3 2714.05   2
   6   4   0 2216.55 663.186   5
   6   4   0 1720.46 567.656   4
   6   4   1 9175.30 1281.46   5
   6   4   1 8880.68 1208.35   4
   6   4   2 5964.95 1021.45   5
   6   4   2 5849.85 1002.38   4
   6   4   3 79.5018 199.936   5
   6   4   3 378.205 404.714   4
  -6  -4  -3 533.630 191.400   1
   6   4   4 5158.91 980.524   5
  -6  -4  -4 6210.59 604.693   1
   6   4   4 6568.29 849.682   7
   6   4   5 5288.21 980.728   5
   6   4   5 7004.53 1163.24   4
   6   4   5 6711.43 877.484   7
   6   4   6 752.640 390.110   5
   6   4   6 319.889 243.338   4
   6   4   6 497.514 254.916   7
   6   4   7 4621.84 970.079   5
   6   4   7 4927.45 767.362   7
   6   4   7 6085.47 1135.57   4
   6   4   8-263.402 301.519   5
   6   4   8-150.363 213.690   7
   6   4   8-218.203 201.360   4
   6   4   9 12437.0 1582.14   5
   6   4   9 10396.0 1193.10   7
   6   4   9 9744.77 1526.38   4
   6   4  10 2449.21 674.779   5
   6   4  10 2318.56 575.846   7
   6   4  10 1808.40 720.485   4
   6   4  11 6203.68 1124.85   5
   6   4  11 5328.93 916.227   7
   6   4  11 6784.35 1329.64   4
   6   4  12 4297.53 977.709   5
   6   4  12 5910.87 1255.61   4
   6   4  13-365.127 324.456   5
   6   4  13 628.925 510.188   4
   6   4  14-70.2630 256.892   4
  -6  -4 -14 284.474 225.049   6
   6   4  15 85.9630 226.759   4
  -6  -4 -15 149.473 221.386   6
  -6  -4 -16 879.536 611.599   6
   6   4  16 520.447 463.227   4
  -6  -4 -17 322.684 325.085   6
   6   4  17 475.457 380.570   4
  -6  -4 -18 298.673 322.056   6
   6   4  18 431.533 467.923   4
   6   4  19 85.3224 200.562   4
  -6  -5  24-385.520 438.127   7
  -6  -5  23 60.5477 194.933   7
  -6  -5  22 493.988 524.574   7
  -6  -5  21-641.423 513.968   7
  -6  -5  20-797.878 555.988   7
  -6  -5  19 751.879 509.480   7
  -6  -5  18-130.321 268.930   7
  -6  -5  17 317.509 376.423   7
  -6  -5  16 827.049 549.930   7
   6   5 -15 12.4649 81.5936   3
  -6  -5  15 607.041 380.687   7
   6   5 -14 2217.49 534.444   3
  -6  -5  14 2989.82 899.925   7
   6   5 -13 1494.30 442.920   3
  -6  -5  13 804.760 435.954   7
   6   5 -12 2153.02 514.217   3
  -6  -5  12 2921.46 864.266   7
  -6  -5  11 18635.7 2077.15   7
   6   5 -11 18163.2 1491.07   3
   6   5 -10 3624.04 668.092   3
  -6  -5  10 4208.09 961.223   7
   6   5  -9 2945.07 604.838   3
  -6  -5   9 2832.78 737.648   7
   6   5  -8 3558.33 665.984   3
  -6  -5   8 3109.59 742.860   7
   6   5  -7 167.004 106.149   3
  -6  -5   7 101.294 216.319   7
   6   5  -6-86.5490 94.8230   3
  -6  -5   6-66.6776 269.938   7
  -6  -5   5 7505.77 1119.67   7
   6   5  -5 7512.95 983.955   4
   6   5  -5 8219.24 1049.32   3
  -6  -5   4 96.7912 81.6273   7
   6   5  -4-484.358 263.824   2
   6   5  -4-324.859 247.134   5
   6   5  -4 301.246 214.895   4
  -6  -5   3 7901.11 1109.18   7
   6   5  -3 8608.22 1251.16   5
   6   5  -3 7718.68 1027.77   2
   6   5  -3 7983.10 1060.66   4
   6   5  -2 1070.89 364.957   2
   6   5  -2 1045.32 432.595   5
   6   5  -2 248.016 160.896   4
   6   5  -1 5686.16 882.994   2
   6   5  -1 5849.82 1028.96   5
   6   5  -1 6340.19 990.346   4
   6   5   0 1130.65 485.663   5
   6   5   0 1733.88 570.008   4
   6   5   1 1061.26 441.784   5
   6   5   1 1537.11 478.862   4
   6   5   2 7483.19 1204.28   5
   6   5   2 7467.36 1154.01   4
  -6  -5  -3 1021.82 223.678   1
   6   5   3 530.692 302.353   5
   6   5   3 1239.29 485.331   4
   6   5   4-201.456 311.340   5
   6   5   4-195.679 192.295   4
  -6  -5  -4 14.9264 17.2384   1
   6   5   4-149.507 217.558   7
   6   5   5 6484.51 1154.65   5
   6   5   5 6229.97 1130.28   4
   6   5   5 5518.61 852.260   7
   6   5   6 30.2956 85.2543   5
   6   5   6 56.5855 94.6647   7
   6   5   6-194.581 278.165   4
   6   5   7 6980.88 1195.08   5
   6   5   7 7838.67 1061.40   7
   6   5   7 7500.79 1301.78   4
   6   5   8-150.636 240.724   5
   6   5   8 586.203 334.150   7
   6   5   8-331.283 413.895   4
   6   5   9 4104.51 909.381   5
   6   5   9 3335.85 732.401   7
   6   5   9 4187.11 997.078   4
   6   5  10 2091.45 648.581   5
   6   5  10 3460.40 758.447   7
   6   5  10 3315.45 906.401   4
   6   5  11 771.917 454.327   5
   6   5  11 877.412 400.200   7
   6   5  11 1133.09 526.043   4
   6   5  12 217.905 216.168   5
   6   5  12-167.208 395.651   4
   6   5  13-35.4894 186.577   5
   6   5  13-57.3715 203.890   4
   6   5  14 320.300 414.223   4
  -6  -5 -15 62.5748 170.647   6
   6   5  15 1173.81 603.727   4
  -6  -5 -16 1147.66 582.087   6
   6   5  16 22.5212 140.510   4
  -6  -5 -17-201.897 271.793   6
   6   5  17 188.988 137.903   4
   6   5  18-0.91498 209.406   4
   6   5  19-231.083 308.718   4
  -6  -6  23 531.932 585.376   7
  -6  -6  22 778.724 613.962   7
  -6  -6  21 390.529 409.294   7
  -6  -6  20 799.413 518.838   7
  -6  -6  19 975.417 612.280   7
  -6  -6  18 274.592 174.173   7
  -6  -6  17 660.600 459.073   7
   6   6 -16 6.64313 116.058   3
  -6  -6  16-78.6121 272.148   7
   6   6 -15 619.629 303.908   3
  -6  -6  15 1297.72 640.267   7
   6   6 -14-4.79610 143.320   3
  -6  -6  14-347.612 321.961   7
   6   6 -13 537.439 285.857   3
  -6  -6  13 837.463 527.241   7
   6   6 -12 937.892 376.569   3
  -6  -6  12 978.314 484.333   7
   6   6 -11 1393.26 427.294   3
  -6  -6  11 2853.84 816.634   7
   6   6 -10 82.0367 166.987   3
  -6  -6  10-990.841 481.298   7
   6   6  -9 1918.44 522.774   3
  -6  -6   9 2467.55 754.888   7
   6   6  -8 3372.79 705.460   3
  -6  -6   8 3196.02 835.803   7
   6   6  -7 913.427 381.482   3
  -6  -6   7 2067.72 665.828   7
  -6  -6   6 16094.1 1788.42   7
   6   6  -6 14150.4 1373.04   4
   6   6  -6 15303.0 1523.63   3
  -6  -6   5 17701.6 1809.31   7
   6   6  -5 16857.3 1542.33   2
   6   6  -5 16128.1 1493.69   4
   6   6  -5 16681.0 1605.99   3
   6   6  -4 335.460 122.901   4
  -6  -6   4 662.087 337.171   7
   6   6  -4 756.220 472.172   5
   6   6  -4 429.788 231.909   2
   6   6  -4 387.869 318.335   3
   6   6  -3 1367.36 433.283   2
   6   6  -3 924.463 372.577   5
   6   6  -3 1904.93 530.485   4
   6   6  -2 2213.48 518.843   2
   6   6  -2 1675.15 518.765   4
   6   6  -2 1902.95 600.082   5
   6   6  -1 1245.85 480.928   5
   6   6  -1 370.459 269.401   4
   6   6   0 1390.94 499.401   5
   6   6   0 1526.80 510.419   4
   6   6   1 830.231 530.310   5
   6   6   1 1025.33 450.537   4
   6   6   2 1772.94 626.947   5
   6   6   2 3111.90 783.714   4
   6   6   3 18012.2 1913.52   5
   6   6   3 18650.8 1927.42   4
   6   6   4-5.48186 147.393   5
   6   6   4 467.403 402.925   4
   6   6   4 326.242 222.462   7
   6   6   5 9157.80 1375.20   5
   6   6   5 8877.25 1189.50   7
   6   6   5 7869.86 1289.32   4
   6   6   6 3947.53 960.709   5
   6   6   6 3073.54 853.744   4
   6   6   6 3060.04 762.469   7
   6   6   7 671.589 372.314   5
   6   6   7-65.1155 162.304   7
   6   6   7 153.375 324.953   4
   6   6   8 548.705 315.174   5
   6   6   8 637.357 306.666   7
   6   6   8 444.386 405.424   4
   6   6   9 1567.63 573.030   5
   6   6   9 1047.87 419.203   7
   6   6   9 1786.73 674.528   4
   6   6  10 382.081 252.494   5
   6   6  10 317.209 250.385   7
   6   6  10 785.664 554.499   4
   6   6  11 1494.89 611.349   5
   6   6  11 1540.06 552.027   7
   6   6  11 2058.44 768.840   4
   6   6  12 562.510 367.898   5
   6   6  12 1118.24 587.932   4
   6   6  13-364.211 288.430   5
   6   6  13-776.926 495.617   4
   6   6  14 231.607 265.665   5
   6   6  14-67.6869 106.486   4
  -6  -6 -15 558.036 563.950   6
   6   6  15 1151.86 759.520   4
  -6  -6 -16 902.544 621.292   6
   6   6  16 738.243 580.066   4
  -6  -6 -17 300.408 325.794   6
   6   6  17 130.822 273.406   4
   6   6  18 761.895 548.103   4
  -6  -7  23 870.733 656.587   7
  -6  -7  22 557.004 536.830   7
  -6  -7  21-210.118 316.108   7
  -6  -7  20 973.222 727.929   7
  -6  -7  19 401.013 369.508   7
  -6  -7  18 776.746 590.771   7
  -6  -7  17 214.145 384.348   7
   6   7 -17 73.2286 136.409   3
  -6  -7  16 711.853 528.947   7
   6   7 -16 903.187 426.805   3
   6   7 -15 1119.94 465.841   3
  -6  -7  15 352.552 496.792   7
   6   7 -14 922.095 398.326   3
  -6  -7  14 647.134 402.619   7
   6   7 -13 1486.91 466.615   3
  -6  -7  13 1657.47 674.529   7
   6   7 -12 6076.08 1036.29   3
  -6  -7  12 6061.05 1288.87   7
   6   7 -11 566.476 282.190   3
  -6  -7  11 662.692 459.601   7
   6   7 -10 3916.76 798.757   3
  -6  -7  10 4171.16 1054.32   7
   6   7  -9 1113.71 412.489   3
  -6  -7   9 627.118 403.163   7
  -6  -7   8 21171.5 2216.30   7
   6   7  -8 18569.5 1518.64   4
   6   7  -8 20137.1 1822.96   3
   6   7  -7 6365.80 1030.38   3
  -6  -7   7 6912.65 1211.50   7
   6   7  -7 7272.36 980.706   4
   6   7  -6 5797.03 992.376   3
  -6  -7   6 6867.53 1205.76   7
   6   7  -6 4823.42 820.712   4
   6   7  -5 5031.58 925.082   3
   6   7  -5 5592.04 903.137   4
   6   7  -5 3545.98 690.028   2
   6   7  -4 1645.36 529.234   3
   6   7  -4 2876.55 786.625   5
   6   7  -4 2335.75 642.695   4
   6   7  -4 2036.64 500.189   2
   6   7  -3 9901.41 1438.55   5
   6   7  -3 6859.99 935.154   2
   6   7  -3 7156.79 1070.21   4
   6   7  -2 292.762 224.283   5
   6   7  -2 497.336 297.194   4
   6   7  -1 1716.33 573.372   5
   6   7  -1 1869.12 576.822   4
   6   7   0 3026.58 838.292   5
   6   7   0 3050.48 751.803   4
   6   7   1 1726.16 642.817   5
   6   7   1 3068.84 768.177   4
   6   7   2 1883.57 615.695   5
  -6  -7  -2 1261.79 169.162   1
   6   7   2 2014.67 649.851   4
   6   7   3 260.920 268.495   5
   6   7   3 544.487 336.600   4
   6   7   4 1039.53 372.071   5
   6   7   4 1741.36 664.394   4
   6   7   4 1308.69 465.908   7
   6   7   5 48.4695 192.982   5
   6   7   5 215.245 108.933   4
   6   7   6 1040.38 478.943   5
   6   7   6 782.331 386.727   7
   6   7   6 992.627 442.410   4
   6   7   7 144.360 146.680   5
   6   7   7 157.419 229.326   7
   6   7   8 121.962 195.343   5
   6   7   8 178.901 211.592   7
   6   7   8-108.455 305.724   4
   6   7   9 76.4323 84.7417   5
   6   7   9 153.759 229.029   7
   6   7   9-77.3841 190.402   4
   6   7  10 185.480 189.799   5
   6   7  10 959.161 470.404   7
   6   7  10 642.511 419.723   4
   6   7  11 818.309 495.831   5
   6   7  11 644.275 422.924   7
   6   7  11 543.847 435.896   4
   6   7  12 428.713 348.635   5
   6   7  12 854.851 454.743   4
   6   7  13 459.703 310.253   5
   6   7  13 735.338 517.118   4
   6   7  14 1104.05 640.362   4
   6   7  15-209.639 291.225   4
  -6  -7 -16 650.699 422.770   6
   6   7  16 88.4660 206.529   4
   6   7  17 445.150 548.728   4
  -6  -8  23 58.7456 298.040   7
  -6  -8  22 286.080 145.801   7
  -6  -8  21 633.162 528.394   7
  -6  -8  20 363.607 604.601   7
  -6  -8  19 745.250 607.183   7
  -6  -8  18 476.424 436.735   7
  -6  -8  17 364.046 615.340   7
   6   8 -17 1114.12 473.598   3
  -6  -8  16-89.4168 252.390   7
   6   8 -16 862.864 434.513   3
   6   8 -15 693.138 364.426   3
  -6  -8  15 421.488 255.891   7
   6   8 -14 2045.55 640.505   3
  -6  -8  14 2517.75 869.590   7
   6   8 -13-144.205 132.292   3
  -6  -8  13 543.925 454.747   7
   6   8 -12 2808.80 720.114   3
  -6  -8  12 2546.48 841.671   7
   6   8 -11 626.492 353.895   3
  -6  -8  11 1344.33 625.088   7
   6   8 -10 637.259 398.692   3
  -6  -8  10 1607.20 753.397   7
  -6  -8   9 0.61238 277.726   7
   6   8  -9-122.947 170.526   4
   6   8  -8 1057.01 483.058   3
  -6  -8   8 578.485 457.722   7
   6   8  -8 504.469 212.465   4
   6   8  -7 2369.64 668.021   3
   6   8  -7 1841.02 522.191   4
  -6  -8   7 1910.72 722.163   7
   6   8  -6 5608.92 1034.31   3
   6   8  -6 4465.60 774.061   2
   6   8  -6 5873.24 955.635   4
   6   8  -5 15156.3 1388.59   2
   6   8  -5 16149.7 1594.87   4
   6   8  -5 17719.1 1884.85   3
   6   8  -4 1623.61 573.985   3
   6   8  -4 1091.01 350.628   2
   6   8  -4 1780.35 599.946   5
   6   8  -4 1805.33 577.559   4
   6   8  -3 4997.96 1049.27   5
   6   8  -3 5040.80 928.242   4
   6   8  -3 4453.85 948.179   3
   6   8  -2 4992.70 1052.14   5
   6   8  -2 3631.13 842.117   4
   6   8  -1 4780.02 987.513   5
   6   8  -1 5322.70 1005.43   4
   6   8   0 1924.24 674.394   5
   6   8   0 1405.90 585.259   4
   6   8   1-61.0529 326.147   5
   6   8   1-329.399 395.654   4
   6   8   2 65.9517 140.364   5
   6   8   2 260.143 190.179   4
   6   8   3 144.817 137.788   5
   6   8   3 281.324 210.068   4
   6   8   4 2568.62 751.578   5
   6   8   4 4667.00 989.242   7
   6   8   4 4724.23 1053.90   4
   6   8   5 856.740 457.676   5
   6   8   5 562.628 327.783   7
   6   8   5 827.595 475.069   4
   6   8   6 50.8872 106.359   5
   6   8   6 140.494 229.189   7
   6   8   6 208.221 183.495   4
   6   8   7 743.731 368.758   7
   6   8   7 1660.60 683.370   4
   6   8   7 620.858 408.885   5
   6   8   8 163.315 151.898   5
   6   8   8 502.861 433.704   7
   6   8   8 285.924 288.251   4
   6   8   9 694.759 449.322   5
   6   8   9 508.786 353.149   7
   6   8   9 1558.66 692.819   4
   6   8  10 106.024 119.185   5
   6   8  10 545.165 458.703   7
   6   8  10 150.368 275.647   4
   6   8  11-152.750 197.767   5
   6   8  11 352.825 301.348   7
   6   8  11 542.359 428.968   4
   6   8  12-154.132 246.535   4
   6   8  13 1217.74 709.994   4
   6   8  14 765.196 624.175   4
   6   8  15-163.963 264.404   4
  -6  -9  22-904.023 643.068   7
  -6  -9  21-244.603 347.127   7
  -6  -9  20 916.479 630.084   7
  -6  -9  19-871.740 594.796   7
  -6  -9  18 426.028 321.886   7
  -6  -9  17 448.169 519.088   7
   6   9 -17-441.394 227.072   3
   6   9 -16 338.869 274.774   3
  -6  -9  16 323.127 295.095   7
   6   9 -15 415.194 379.681   3
  -6  -9  15 326.871 520.413   7
  -6  -9  14 370.101 347.423   7
   6   9 -14-42.2318 158.231   3
   6   9 -13-191.034 266.981   3
  -6  -9  13-200.872 393.593   7
   6   9 -12 735.045 416.984   3
  -6  -9  12 805.282 473.926   7
   6   9 -11-233.407 310.699   3
  -6  -9  11-170.346 306.192   7
   6   9 -10 277.909 118.642   3
   6   9 -10 712.608 299.413   4
   6   9  -9-159.918 309.219   3
  -6  -9   9 1044.46 605.198   7
   6   9  -9 725.662 313.787   4
   6   9  -8 762.864 451.414   3
   6   9  -8 185.692 211.078   4
   6   9  -7 5389.28 1069.99   3
   6   9  -7 4271.29 762.404   2
   6   9  -7 4913.83 859.906   4
   6   9  -6 448.141 438.992   3
   6   9  -6 573.275 362.390   4
   6   9  -6 68.0809 101.521   2
   6   9  -5 16009.9 1639.95   4
   6   9  -5 15233.8 1821.00   3
   6   9  -5 14136.5 1288.36   2
   6   9  -4 1795.23 744.073   3
   6   9  -4 2676.82 866.775   5
   6   9  -4 2405.69 673.101   4
   6   9  -3 7747.61 1381.07   5
   6   9  -3 6818.78 1150.88   4
   6   9  -3 7954.62 1352.55   3
   6   9  -2 975.774 470.712   5
   6   9  -2 488.229 321.250   4
   6   9  -1 24.3771 170.458   5
   6   9  -1 342.233 238.867   4
   6   9   0 677.260 428.859   5
   6   9   0 315.375 239.966   4
   6   9   1 85.6546 85.7734   5
   6   9   2 2056.49 705.104   5
   6   9   3 4023.93 1007.60   5
   6   9   4 1021.86 428.453   7
   6   9   4 47.3455 234.085   5
   6   9   5 683.141 410.851   5
   6   9   5 1094.12 540.339   7
   6   9   6 568.101 409.022   5
   6   9   6 151.610 172.606   7
   6   9   7 745.208 443.774   7
   6   9   7 558.910 311.731   5
   6   9   7 745.436 673.035   4
   6   9   8 1247.83 573.290   5
   6   9   8 1491.74 606.228   7
   6   9   8 1609.25 737.494   4
   6   9   9 509.766 302.133   5
   6   9   9 661.494 401.812   7
   6   9   9 1102.52 652.663   4
   6   9  10 49.9814 129.465   5
   6   9  10 122.530 194.508   7
   6   9  10 219.942 196.527   4
   6   9  11 451.584 367.631   7
   6   9  11-99.2528 357.494   4
   6   9  12 2202.46 948.838   4
   6   9  13 534.240 507.781   4
   6   9  14 567.175 511.399   4
  -6 -10  21-54.1663 204.373   7
  -6 -10  20-228.434 329.710   7
  -6 -10  19 41.8320 191.029   7
   6  10 -18 172.910 244.647   3
  -6 -10  18 430.100 475.333   7
   6  10 -17 216.832 251.306   3
  -6 -10  17 639.689 590.925   7
   6  10 -16 411.219 263.968   3
  -6 -10  16 1353.89 658.352   7
   6  10 -15 133.080 295.786   3
  -6 -10  15-142.122 286.262   7
   6  10 -14 19.0462 206.578   3
  -6 -10  14 543.759 454.123   7
   6  10 -13 127.027 140.107   3
  -6 -10  13 260.606 365.298   7
   6  10 -12 378.771 331.933   3
  -6 -10  12 1007.32 595.099   7
   6  10 -11 201.452 199.842   3
  -6 -10  11 26.5185 324.096   7
   6  10 -10 3265.94 889.177   3
  -6 -10  10 2266.14 839.690   7
   6  10  -9 864.440 460.774   3
   6  10  -9 1155.67 442.521   4
   6  10  -8 478.872 451.218   3
   6  10  -8 488.565 271.429   4
   6  10  -7 2008.25 695.257   3
   6  10  -7 2498.10 662.858   4
   6  10  -6 190.083 170.863   3
   6  10  -6 89.5649 220.400   4
   6  10  -5 308.499 387.086   3
   6  10  -5 622.346 367.059   4
   6  10  -4 5332.30 1152.98   3
   6  10  -4 5729.40 1234.13   5
   6  10  -4 5495.66 1042.86   4
   6  10  -3 3262.41 908.776   3
   6  10  -3 4001.18 1018.57   5
   6  10  -3 3834.48 895.061   4
   6  10  -2-240.777 379.504   5
   6  10  -2-29.6708 266.742   4
   6  10  -1 238.439 268.797   5
   6  10   0 2503.96 819.421   5
   6  10   1 481.695 172.008   5
   6  10   2 1732.75 675.360   5
   6  10   3 4216.39 1028.03   5
   6  10   3 2530.48 787.405   7
   6  10   4 948.120 482.346   5
   6  10   4 767.862 387.830   7
   6  10   5 583.993 408.047   5
   6  10   5 1320.48 635.455   7
   6  10   6-115.715 147.304   5
   6  10   6 277.502 404.817   7
   6  10   7-183.620 225.407   5
   6  10   7-9.91613 175.818   7
   6  10   8-204.731 236.188   5
   6  10   8 776.293 473.379   7
   6  10   9 231.135 116.270   7
   6  10   9 262.304 347.469   4
   6  10  10 585.380 478.163   7
   6  10  10 586.506 423.277   4
   6  10  11-378.615 344.605   7
   6  10  11 76.4371 161.846   4
   6  10  12 277.190 336.557   4
  -6 -11  20 1216.69 903.056   7
  -6 -11  19 1982.33 979.075   7
   6  11 -18 72.8138 171.483   3
  -6 -11  18 232.792 332.569   7
  -6 -11  17 154.156 469.103   7
   6  11 -17 216.064 317.474   3
   6  11 -16 53.6677 155.299   3
  -6 -11  16 18.1086 198.424   7
   6  11 -15 151.720 173.407   3
  -6 -11  15 596.512 497.422   7
   6  11 -14 491.706 389.118   3
  -6 -11  14 181.707 295.184   7
   6  11 -13 442.481 239.290   3
  -6 -11  13 555.211 383.135   7
  -6 -11  12 629.337 559.695   7
   6  11 -12 745.592 449.139   3
   6  11 -11 249.912 138.389   3
   6  11 -10 2304.40 796.333   3
   6  11  -9 1494.01 652.081   3
   6  11  -9 2205.87 631.807   4
   6  11  -8 1537.62 699.323   3
   6  11  -8 1182.05 466.131   4
   6  11  -7 1765.12 623.716   3
   6  11  -7 1886.19 595.182   4
   6  11  -6 65.2353 248.806   3
   6  11  -6 360.222 283.891   4
   6  11  -5 1055.15 562.869   3
   6  11  -5 1317.98 523.867   4
   6  11  -4-35.5074 309.759   3
   6  11  -4-0.67525 145.515   5
   6  11  -4 199.013 142.022   4
   6  11  -3 3456.83 961.880   5
   6  11  -3 2435.14 808.598   3
   6  11  -2 112.406 177.552   5
   6  11  -1 2558.05 836.878   5
   6  11   0 474.823 429.177   5
   6  11   1 49.8149 260.532   5
   6  11   2-55.7619 250.320   5
   6  11   3 901.727 494.538   5
   6  11   3 520.070 369.428   7
   6  11   4-130.265 203.033   5
   6  11   4-237.420 208.582   7
   6  11   5 216.414 299.243   5
   6  11   5 929.661 514.972   7
   6  11   6 1320.53 574.671   5
   6  11   6 861.600 508.051   7
   6  11   7 350.913 265.532   5
   6  11   7 319.831 375.802   7
   6  11   8 778.654 498.749   7
   6  11   9 209.873 228.685   7
   6  11   9-280.068 332.337   4
   6  11  10 486.563 368.479   7
   6  11  10 92.0885 106.783   4
   6  11  11 927.897 607.452   4
  -6 -12  19-269.515 375.255   7
   6  12 -18-113.505 205.840   3
  -6 -12  18-107.649 256.322   7
   6  12 -17 9.85306 109.737   3
  -6 -12  17-509.310 477.757   7
   6  12 -16 328.561 366.507   3
  -6 -12  16 405.388 475.655   7
   6  12 -15 266.584 282.268   3
  -6 -12  15 716.150 511.134   7
   6  12 -14 283.827 304.165   3
   6  12 -13 307.680 227.017   3
   6  12 -12 121.774 147.727   3
   6  12 -11-259.845 441.761   3
   6  12 -10 458.169 426.394   3
   6  12  -9 402.685 387.007   3
   6  12  -8 148.602 326.553   3
   6  12  -8 336.625 259.150   4
   6  12  -7 258.488 335.200   3
   6  12  -7 209.828 302.449   4
   6  12  -6 1940.34 734.397   3
   6  12  -6 2024.22 669.431   4
   6  12  -5 2542.85 860.733   3
   6  12  -5 2477.33 748.155   4
   6  12  -4 70.0645 264.696   3
   6  12  -4 877.649 582.747   5
   6  12  -3 652.662 391.767   5
   6  12  -3 281.457 229.036   3
   6  12  -2 1565.63 701.349   5
   6  12  -1 1401.69 629.702   5
   6  12   0 63.9577 286.697   5
   6  12   1-371.009 333.716   5
   6  12   2-490.034 379.909   5
   6  12   3 804.643 485.565   5
   6  12   3 485.871 358.599   7
   6  12   4 70.2768 130.135   5
   6  12   4 160.378 301.621   7
   6  12   5 85.3464 166.809   5
   6  12   5-240.782 285.017   7
   6  12   6 377.324 320.557   7
   6  12   7 350.897 350.871   7
   6  12   8 874.128 535.233   7
   6  12   9 20.9395 129.783   7
   6  12  10 800.644 520.282   7
   6  13 -19 283.364 364.531   3
  -6 -13  18 224.374 331.972   7
   6  13 -18-0.84215 177.978   3
   6  13 -17 0.82859 246.316   3
   6  13 -16-339.999 347.830   3
   6  13 -15 12.1133 154.590   3
   6  13 -14 519.047 490.100   3
   6  13 -13-16.6674 237.818   3
   6  13 -12 435.255 443.412   3
   6  13 -11 189.360 383.221   3
   6  13 -10 328.664 327.401   3
   6  13  -9 25.9073 206.165   3
   6  13  -8 443.854 566.248   3
   6  13  -7 3230.52 1055.11   3
   6  13  -7 3179.97 885.366   4
   6  13  -6 2524.35 921.270   3
   6  13  -6 3956.14 955.034   4
   6  13  -5-78.4057 239.215   3
   6  13  -5 574.826 578.151   5
   6  13  -5 462.970 394.027   4
   6  13  -4 493.649 339.278   3
   6  13  -4 1017.56 589.526   5
   6  13  -3 705.165 555.547   5
   6  13  -3 92.9221 255.688   3
   6  13  -2 1081.08 624.454   5
   6  13  -1 716.181 518.575   5
   6  13   0-50.7739 154.187   5
   6  13   1 406.719 260.893   5
   6  13   2-170.933 235.977   5
   6  13   2 516.416 467.829   7
   6  13   3 25.3775 378.051   7
   6  13   3-194.969 251.408   5
   6  13   4-82.9229 173.626   5
   6  13   4 1232.55 613.554   7
   6  13   5-158.932 249.915   7
   6  13   6 133.500 233.269   7
   6  13   7 189.710 285.778   7
   6  13   8 316.848 350.815   7
   6  13   9 359.537 375.762   7
   6  14 -19 34.3983 157.306   3
   6  14 -18 137.510 198.211   3
   6  14 -17-11.7650 144.176   3
   6  14 -16 65.2698 190.523   3
   6  14 -15 19.4582 249.079   3
   6  14 -14-67.4489 187.716   3
   6  14 -13-361.509 371.344   3
   6  14 -12 469.083 566.465   3
   6  14 -11 156.155 487.891   3
   6  14 -10 460.274 478.353   3
   6  14  -9 254.754 318.094   3
   6  14  -8 240.046 309.552   3
   6  14  -7-147.536 251.128   3
   6  14  -6 218.918 230.673   3
   6  14  -6 75.7291 156.001   4
   6  14  -5-53.4887 342.237   3
   6  14  -5 853.228 633.144   5
   6  14  -4-97.6364 501.605   3
   6  14  -4-529.440 429.317   5
   6  14  -3-284.282 320.747   5
   6  14  -2 65.6554 327.746   5
   6  14  -1 914.367 597.933   5
   6  14   0-443.621 385.027   5
   6  14   1 1178.74 616.241   5
   6  14   1 749.233 581.944   7
   6  14   2 1305.30 712.477   5
   6  14   2 710.909 520.367   7
   6  14   3 1954.72 906.181   7
   6  14   4-904.147 581.779   7
   6  14   5 433.279 509.748   7
   6  14   6 306.774 353.435   7
   6  14   7 205.895 297.301   7
   6  14   8 4.88262 443.307   7
   6  15 -17-955.641 619.801   3
   6  15 -16 167.616 221.797   3
   6  15 -15-582.255 483.976   3
   6  15 -14 371.372 173.157   3
   6  15 -13-438.075 424.716   3
   6  15 -12 1101.51 628.098   3
   6  15 -11 887.786 669.394   3
   6  15 -10 492.312 739.325   3
   6  15  -9-1025.86 629.925   3
   6  15  -8 759.857 670.443   3
   6  15  -7-241.384 321.925   3
   6  15  -6 373.979 538.684   3
   6  15  -6 412.230 541.556   5
   6  15  -5 626.765 508.139   3
   6  15  -5 904.047 602.470   5
   6  15  -4 92.7177 200.224   5
   6  15  -4 387.411 426.768   3
   6  15  -3 1632.49 788.996   5
   6  15  -2 605.898 383.087   5
   6  15  -1-209.287 281.419   5
   6  15   0-1414.98 696.588   5
   6  15   1 460.935 532.806   7
   6  15   2 251.522 329.184   7
   6  15   3 377.945 416.166   7
   6  15   4 71.8341 131.839   7
   6  16 -11-193.122 301.588   3
   6  16 -10 188.372 407.571   3
   6  16  -9 261.605 433.399   3
   6  16  -8 561.497 486.763   3
   6  16  -7 626.723 585.993   3
   6  16  -7 235.641 316.946   5
   6  16  -6 478.854 157.996   3
   6  16  -6 709.915 572.502   5
   6  16  -5-173.255 294.085   3
   6  16  -5-176.986 275.978   5
   6  16  -4 315.696 355.843   5
   6  16  -3 85.6433 194.251   5
   6  16  -2-107.791 213.634   5
   6  16  -1 380.592 335.371   5
   6  17  -6 399.103 505.876   5
   6  17  -5 832.082 586.364   5
   6  17  -4-387.645 406.636   5
  -7  17  -1-190.485 281.573   7
  -7  17  -2 14.7031 114.011   3
  -7  17  -2-503.034 432.489   7
  -7  17  -3 471.670 430.785   3
  -7  16   3 403.582 449.753   7
  -7  16   2 786.059 658.378   7
  -7  16   1-236.689 300.253   7
  -7  16   0 900.829 468.264   3
  -7  16   0 738.073 518.804   7
  -7  16  -1 1081.38 665.201   3
  -7  16  -1 640.663 506.137   7
  -7  16  -2 456.174 441.081   3
  -7  16  -2 500.160 475.206   7
  -7  16  -3 288.704 563.810   3
  -7  16  -3-77.3886 182.943   7
  -7  16  -4-318.018 342.464   3
  -7  16  -4 50.8808 294.663   7
  -7  16  -5-961.581 591.651   3
  -7  16  -6 570.548 389.854   3
  -7  16  -7 220.719 297.075   3
  -7  15   6 902.533 637.537   7
  -7  15   5 52.1064 297.782   7
  -7  15   4-120.007 225.833   7
  -7  15   3-350.195 361.287   7
  -7  15   2 972.831 660.936   7
  -7  15   1 17.0510 242.671   3
  -7  15   1 55.2784 246.671   1
  -7  15   1 642.647 489.142   7
  -7  15   0 368.542 380.305   1
  -7  15   0 437.167 462.068   3
  -7  15   0-319.978 330.628   7
  -7  15  -1 112.383 119.478   1
  -7  15  -1 497.892 483.965   3
  -7  15  -2 981.194 577.052   3
  -7  15  -2 297.899 312.454   7
  -7  15  -3 274.035 305.917   3
  -7  15  -3 536.728 422.777   7
  -7  15  -4 216.793 394.389   3
  -7  15  -4-174.488 235.952   7
  -7  15  -5 290.064 321.720   3
  -7  15  -6 91.2301 139.207   3
  -7  15  -7 52.4492 172.944   3
  -7  15  -8 387.563 505.637   3
  -7  15  -9-137.667 245.932   3
  -7  15 -10 457.022 331.360   3
  -7  14   8 446.469 275.580   7
  -7  14   7-236.857 314.620   7
  -7  14   6 614.170 527.094   7
  -7  14   5 294.715 332.021   7
  -7  14   4-334.899 346.385   7
  -7  14   3-140.700 230.795   7
  -7  14   3 237.979 330.709   1
  -7  14   2 426.340 437.942   1
  -7  14   2 164.139 206.605   3
  -7  14   2 1035.78 558.999   7
  -7  14   1 954.449 590.682   3
  -7  14   1 472.422 396.520   1
  -7  14   1 815.643 550.673   7
  -7  14   0 1441.12 657.751   7
  -7  14   0 1686.99 696.415   3
  -7  14   0 2024.39 774.587   1
  -7  14  -1 684.670 450.928   3
  -7  14  -1 100.086 158.163   1
  -7  14  -1 657.673 468.503   7
  -7  14  -2 544.716 431.809   3
  -7  14  -2 194.047 176.171   1
  -7  14  -2 22.3339 107.600   7
  -7  14  -3 98.6999 187.321   3
  -7  14  -3 593.984 423.291   7
  -7  14  -4 205.406 307.198   3
  -7  14  -4 51.4256 377.842   7
  -7  14  -5 1495.14 648.340   7
  -7  14  -5 1399.56 691.634   3
  -7  14  -6-527.118 418.793   3
  -7  14  -7 562.776 455.300   3
  -7  14  -8 22.4584 135.823   3
  -7  14  -9 1317.97 627.373   3
  -7  14 -10-458.190 413.215   3
  -7  14 -11 643.934 465.271   3
  -7  14 -12 398.997 397.452   3
  -7  13  10 53.9228 179.405   7
  -7  13   9 16.5242 263.381   7
  -7  13   8 53.1136 156.467   7
  -7  13   7-363.514 370.537   7
  -7  13   6 543.642 453.662   7
  -7  13   5 331.613 282.279   1
  -7  13   5 60.6492 180.492   7
  -7  13   4 362.942 260.859   1
  -7  13   4 405.816 348.346   7
  -7  13   3 352.088 226.896   3
  -7  13   3 960.833 491.862   1
  -7  13   3 959.355 511.337   7
  -7  13   2 230.277 262.428   3
  -7  13   2 428.969 381.996   1
  -7  13   2 521.937 396.741   7
  -7  13   1 437.424 401.092   3
  -7  13   1 463.326 224.689   7
  -7  13   1 396.594 360.537   1
  -7  13   0 457.634 341.026   1
  -7  13   0 235.097 302.207   3
  -7  13   0-647.494 421.697   7
  -7  13  -1 762.678 474.276   1
  -7  13  -1 939.902 485.764   7
  -7  13  -1 346.163 169.122   3
  -7  13  -2 2707.69 861.260   1
  -7  13  -2 1478.05 691.949   3
  -7  13  -2 2348.80 783.648   7
  -7  13  -3 1544.00 670.181   1
  -7  13  -3 1748.40 628.625   3
  -7  13  -3 1034.30 509.650   7
  -7  13  -4 606.442 395.640   1
  -7  13  -4 454.274 385.168   3
  -7  13  -4 509.251 360.916   7
  -7  13  -5-446.312 368.773   3
  -7  13  -5 166.870 107.696   7
  -7  13  -6-275.333 298.814   3
  -7  13  -6-71.1728 140.770   7
  -7  13  -7 23.9722 300.303   3
  -7  13  -8 709.926 458.786   3
  -7  13  -9 286.725 386.743   3
  -7  13 -10 419.785 428.910   3
  -7  13 -11 704.210 530.804   3
  -7  13 -12 548.089 432.864   3
  -7  13 -13 711.941 612.938   3
  -7  13 -14 494.121 500.098   3
  -7  12  12 194.886 322.934   7
  -7  12  11 242.229 329.201   7
  -7  12  10 102.450 148.854   7
  -7  12   9-665.016 496.266   7
  -7  12   8-1010.15 595.621   7
  -7  12   7 64.4581 146.296   1
  -7  12   7-98.9643 199.291   7
  -7  12   6-221.539 251.732   1
  -7  12   6 377.050 363.717   7
  -7  12   5-112.900 321.298   7
  -7  12   5-462.184 350.841   1
  -7  12   4 337.030 299.889   1
  -7  12   4-599.927 422.518   7
  -7  12   3 33.3667 181.885   1
  -7  12   3-429.703 306.349   3
  -7  12   3 159.426 266.188   7
  -7  12   2-530.627 371.040   1
  -7  12   2-198.332 143.565   3
  -7  12   2 198.023 239.728   7
  -7  12   1 354.060 334.277   3
  -7  12   1 422.421 344.796   1
  -7  12   1 638.497 483.767   7
  -7  12   0 181.953 197.317   3
  -7  12   0 5.45860 216.353   7
  -7  12   0 76.8099 161.497   1
  -7  12  -1 2146.04 755.623   1
  -7  12  -1 2874.16 814.182   3
  -7  12  -1 3232.70 886.643   7
  -7  12  -2 4881.68 1140.56   1
  -7  12  -2 3906.32 1011.50   3
  -7  12  -2 3437.85 889.976   7
  -7  12  -3 125.677 263.508   1
  -7  12  -3 114.203 255.780   3
  -7  12  -3 356.609 292.452   7
  -7  12  -4 26.6514 173.772   1
  -7  12  -4 89.1929 185.003   3
  -7  12  -4 144.744 250.435   7
  -7  12  -5-227.260 257.805   1
  -7  12  -5 149.209 145.495   3
  -7  12  -5 428.863 322.657   7
  -7  12  -6 190.242 177.068   3
  -7  12  -6 278.820 278.140   7
  -7  12  -7 56.9383 293.302   3
  -7  12  -8 127.486 112.815   3
  -7  12  -9 356.271 411.772   3
  -7  12 -10-219.379 271.101   3
  -7  12 -11 12.8824 272.203   3
  -7  12 -12 558.954 438.858   3
  -7  12 -13 1100.47 623.264   3
  -7  12 -14 162.011 222.253   3
  -7  12 -15-536.755 462.108   3
  -7  11  13 251.839 311.974   7
  -7  11  12-1008.79 634.571   7
  -7  11  11 42.7384 180.207   7
  -7  11  10-326.634 420.905   7
  -7  11   9 129.514 221.036   7
  -7  11   8 135.121 119.549   7
  -7  11   7 450.713 419.873   7
  -7  11   6 678.027 489.285   7
  -7  11   5 1095.08 531.822   1
   7 -11  -5 1203.47 522.119   2
  -7  11   5 1829.11 692.797   7
  -7  11   4 309.211 157.285   3
   7 -11  -4 600.463 391.241   2
  -7  11   4 399.166 333.543   7
  -7  11   4 912.598 481.817   1
  -7  11   3 226.336 253.505   3
  -7  11   3 291.429 350.791   7
   7 -11  -3 327.987 320.616   2
  -7  11   3 265.433 316.597   1
   7 -11  -2-112.228 180.883   2
  -7  11   2-281.751 272.721   1
  -7  11   2 270.686 288.788   3
  -7  11   2-291.488 298.024   7
   7 -11  -1-426.011 291.570   2
  -7  11   1-479.701 349.582   1
  -7  11   1 200.498 220.304   3
  -7  11   1 59.3939 134.484   7
   7 -11   0 524.137 400.879   2
  -7  11   0 479.969 336.799   1
  -7  11   0 145.939 122.496   3
  -7  11   0-99.3363 254.171   7
  -7  11  -1-188.988 172.122   3
  -7  11  -1 119.562 156.562   1
  -7  11  -1 148.815 150.510   7
  -7  11  -2 1262.77 536.661   1
  -7  11  -2 1596.06 584.722   3
  -7  11  -2 1573.44 540.549   7
  -7  11  -3 1755.76 664.621   1
  -7  11  -3 1536.19 581.398   3
  -7  11  -3 1370.21 542.049   7
  -7  11  -4 197.750 270.192   1
  -7  11  -4 198.953 210.976   3
  -7  11  -4-382.810 275.194   7
  -7  11  -5 393.893 302.403   1
  -7  11  -5 55.2435 181.566   3
  -7  11  -5-64.7170 203.660   7
  -7  11  -6 10.6124 219.685   3
  -7  11  -6 172.089 185.260   7
  -7  11  -7-288.633 462.123   3
  -7  11  -8 91.1016 196.965   3
  -7  11  -9 221.318 338.622   3
  -7  11 -10 507.176 401.534   3
  -7  11 -11 375.465 237.249   3
  -7  11 -12 228.112 333.765   3
  -7  11 -13-267.513 407.387   3
  -7  11 -14 577.153 385.704   3
  -7  11 -15 932.907 627.097   3
  -7  11 -16 315.943 360.444   3
  -7  10  15 470.536 462.337   7
  -7  10  14 673.606 627.439   7
  -7  10  13-834.407 574.819   7
  -7  10  12 264.963 285.727   7
  -7  10  11-318.787 346.531   7
  -7  10  10 328.347 307.018   7
  -7  10   9-221.001 274.573   7
  -7  10   8 702.226 521.671   7
  -7  10   7 2229.48 747.341   7
  -7  10   6-22.6881 242.784   7
  -7  10   5 124.084 195.701   3
  -7  10   5 84.8128 123.769   7
  -7  10   4 3593.39 776.286   3
   7 -10  -4 3454.95 873.186   2
  -7  10   4 2303.91 752.681   7
  -7  10   3 809.801 356.589   3
  -7  10   3 699.743 360.768   1
   7 -10  -3 306.816 293.305   2
  -7  10   2 1458.09 502.565   3
  -7  10   2 1768.02 636.450   7
  -7  10   2 1408.62 597.010   1
   7 -10  -2 1678.32 593.925   2
  -7  10   1-163.453 182.296   1
   7 -10  -1-124.636 199.467   2
  -7  10   1-99.1385 126.801   3
  -7  10   1 90.0445 74.1622   7
  -7  10   0 3986.87 952.680   1
   7 -10   0 4081.88 868.586   2
  -7  10   0 4207.06 898.108   3
  -7  10   0 4292.68 936.008   7
  -7  10  -1 2647.53 786.480   1
  -7  10  -1 3310.10 803.403   3
  -7  10  -1 3054.76 779.850   7
  -7  10  -2 986.393 436.524   1
  -7  10  -2 834.710 416.852   7
  -7  10  -2 1480.35 476.984   3
  -7  10  -3 4751.73 1047.58   1
  -7  10  -3 4075.63 895.865   3
  -7  10  -3 4873.52 939.016   7
  -7  10  -4 279.393 243.613   1
  -7  10  -4 216.886 147.442   7
  -7  10  -5 2235.34 752.199   1
  -7  10  -5 2143.32 600.652   7
  -7  10  -5 1371.34 498.241   3
  -7  10  -6 3.53912 260.846   1
  -7  10  -6 178.181 198.739   7
  -7  10  -6-243.324 294.965   3
  -7  10  -7 630.088 353.614   3
  -7  10  -8-5.71925 169.146   3
  -7  10  -9 1241.45 627.943   3
  -7  10 -10 739.561 483.110   3
  -7  10 -11-252.717 390.411   3
  -7  10 -12 863.398 523.702   3
  -7  10 -13-50.5066 134.683   3
  -7  10 -14 119.245 120.720   3
  -7  10 -15 1011.12 638.424   3
  -7  10 -16-464.960 425.314   3
  -7  10 -17 545.391 532.133   3
  -7   9  16 539.299 518.037   7
  -7   9  15-88.3287 211.404   7
  -7   9  14 1129.68 666.085   7
  -7   9  13 136.263 190.303   7
  -7   9  12 65.4595 299.874   7
  -7   9  11 413.085 430.880   7
  -7   9  10 202.692 185.337   7
  -7   9   9 670.726 396.229   7
  -7   9   8 783.899 502.458   7
  -7   9   7 1203.87 575.678   7
  -7   9   6 151.173 62.0763   3
  -7   9   6 492.993 391.079   7
  -7   9   5-175.605 227.413   3
  -7   9   5-229.217 239.779   7
  -7   9   4 2022.25 530.184   3
   7  -9  -4 713.542 377.870   2
  -7   9   4 2321.80 741.660   7
  -7   9   3 3105.44 687.580   3
   7  -9  -3 3583.87 872.163   2
  -7   9   3 3850.43 930.880   7
  -7   9   2 180.595 179.521   3
  -7   9   2-83.2178 190.568   1
  -7   9   2 172.931 283.185   7
   7  -9  -2-90.1115 271.023   2
   7  -9  -1 3089.70 779.043   2
  -7   9   1 3809.92 785.621   3
  -7   9   1 2518.07 686.701   7
  -7   9   1 3383.97 855.630   1
  -7   9   0 768.194 421.288   1
   7  -9   0 839.391 450.477   2
  -7   9   0 446.477 277.220   3
  -7   9   0 1061.73 424.655   7
  -7   9  -1 3794.63 901.938   1
   7  -9   1 2968.61 746.001   2
  -7   9  -1 3091.16 735.211   3
  -7   9  -1 3393.18 752.314   7
  -7   9  -2 5238.55 1086.39   1
  -7   9  -2 5827.28 1029.53   3
  -7   9  -2 5385.48 927.202   7
  -7   9  -3 10214.2 1415.04   3
  -7   9  -3 8099.32 1116.10   7
  -7   9  -3 9293.11 1428.14   1
  -7   9  -4 116.674 109.406   1
  -7   9  -4 380.878 168.885   7
  -7   9  -4-6.45227 208.221   3
  -7   9  -5 5124.58 864.514   7
  -7   9  -5 4996.10 1074.16   1
  -7   9  -5 4499.89 976.842   3
  -7   9  -6 87.6177 88.0130   7
  -7   9  -6-98.1271 146.226   3
  -7   9  -7 580.387 368.430   3
  -7   9  -7 432.403 174.967   1
  -7   9  -7 234.399 197.588   7
  -7   9  -8 158.588 316.338   3
  -7   9  -9 699.609 485.925   3
  -7   9 -10-202.862 272.667   3
  -7   9 -11-202.266 308.506   3
  -7   9 -12 621.979 518.831   3
  -7   9 -13-24.8282 289.222   3
  -7   9 -14 262.375 273.869   3
  -7   9 -15 242.536 361.946   3
  -7   9 -16-487.012 427.158   3
  -7   9 -17 432.796 497.301   3
  -7   9 -18 199.406 427.324   3
  -7   8  17 276.349 257.495   7
  -7   8  16-1205.60 704.314   7
  -7   8  15 355.248 613.660   7
  -7   8  14 796.666 567.669   7
  -7   8  13 136.609 160.813   7
  -7   8  12 924.805 470.202   7
  -7   8  11 431.424 289.370   7
  -7   8  10-339.143 502.965   7
  -7   8   9 5.40643 287.674   7
  -7   8   8 2973.86 866.753   7
  -7   8   7 430.554 252.228   7
  -7   8   6-43.3907 90.3015   3
  -7   8   6 411.752 385.278   7
  -7   8   5 2322.62 544.094   3
  -7   8   5 2024.00 661.161   7
  -7   8   4 3.10829 96.9548   3
  -7   8   4 315.088 396.792   7
   7  -8  -3 6992.22 1201.80   2
  -7   8   3 6897.04 1165.01   7
  -7   8   3 6302.04 916.468   3
  -7   8   2 388.831 269.724   3
   7  -8  -2-154.108 368.011   2
  -7   8   2 397.141 264.225   7
  -7   8   1 3291.84 707.595   3
  -7   8   1 3479.40 788.560   7
   7  -8  -1 3059.11 755.026   2
  -7   8   0 35013.9 2329.35   3
  -7   8   0 35408.9 2386.23   7
   7  -8   0 32376.9 2528.05   2
  -7   8   0 35018.7 2777.17   1
  -7   8  -1 12366.3 1419.45   3
  -7   8  -1 12258.0 1350.50   7
   7  -8   1 11787.8 1493.65   2
  -7   8  -1 12450.9 1624.30   1
  -7   8  -2 675.122 288.589   1
  -7   8  -2 901.365 380.553   7
  -7   8  -2 498.678 307.490   3
  -7   8  -3 188.292 342.428   1
  -7   8  -3 430.182 229.430   7
  -7   8  -3 88.4706 255.305   3
  -7   8  -4 857.586 405.530   3
  -7   8  -4 771.605 315.266   7
  -7   8  -4 1894.17 640.615   1
  -7   8  -5 9818.59 1397.79   3
  -7   8  -5 9953.14 1085.95   7
  -7   8  -5 11573.8 1586.59   1
  -7   8  -6 13477.5 1667.96   3
  -7   8  -6 12962.7 1220.00   7
  -7   8  -6 14585.3 1775.08   1
  -7   8  -7 2662.14 785.160   3
  -7   8  -7 1848.92 625.940   1
  -7   8  -7 1450.78 412.752   7
  -7   8  -8 41.2043 290.664   3
  -7   8  -9 1057.79 493.799   3
  -7   8 -10 1238.74 551.821   3
  -7   8 -11-123.863 195.144   3
  -7   8 -12-92.2671 114.590   3
  -7   8 -12 427.481 323.862   6
  -7   8 -13 110.628 141.259   3
  -7   8 -13 396.798 321.728   6
  -7   8 -14-126.754 203.879   3
  -7   8 -14 665.893 441.000   6
  -7   8 -15-125.837 251.876   3
  -7   8 -15 330.051 339.033   6
  -7   8 -16 1086.83 650.917   3
  -7   8 -17-461.557 421.415   3
  -7   8 -18 91.7741 211.748   3
  -7   7  18-401.021 428.446   7
  -7   7  17-48.9128 169.078   7
  -7   7  16-796.792 563.831   7
  -7   7  15 87.4598 165.395   7
  -7   7  14 568.401 600.539   7
  -7   7  13 1212.30 625.437   7
  -7   7  12 412.098 324.621   7
  -7   7  11 2835.76 889.890   7
  -7   7  10 15082.3 2051.04   7
  -7   7   9 3083.65 902.709   7
  -7   7   8-140.820 318.711   7
  -7   7   7 272.806 159.198   3
  -7   7   7 28.3028 142.408   7
  -7   7   6 1092.86 317.603   3
  -7   7   6 1340.81 576.757   7
  -7   7   5 9585.43 1394.58   7
  -7   7   5 9347.23 979.850   3
  -7   7   4 864.196 316.978   3
  -7   7   4 999.120 428.179   7
   7  -7  -3 45.9297 146.423   2
  -7   7   3-152.056 139.504   3
  -7   7   3-147.625 253.607   7
  -7   7   2 704.181 324.972   3
   7  -7  -2 223.021 212.394   2
  -7   7   2 381.494 247.568   7
  -7   7   1 1582.80 498.435   7
  -7   7   1 2396.84 563.739   3
   7  -7  -1 1155.62 483.903   2
   7  -7   0 91.5701 159.035   2
  -7   7   0 49.4608 141.483   1
  -7   7   0 329.321 252.973   7
  -7   7   0 291.303 187.440   3
   7  -7   1-25.3967 165.705   2
  -7   7  -1-127.936 164.135   7
  -7   7  -1 56.4634 205.972   1
  -7   7  -1-257.542 203.243   3
  -7   7  -2 1722.98 540.896   3
  -7   7  -2 1602.00 616.725   1
  -7   7  -2 1641.87 428.177   7
  -7   7  -3 303.576 208.006   3
  -7   7  -3 241.280 243.373   1
  -7   7  -3-120.226 110.435   7
  -7   7  -4 103.018 104.396   3
  -7   7  -4-101.144 220.176   1
  -7   7  -4 217.253 132.235   7
  -7   7  -5-97.3299 233.723   3
  -7   7  -5 279.645 339.775   1
  -7   7  -5 130.136 132.167   7
  -7   7  -5 12.0592 82.9347   6
  -7   7  -6 3902.07 884.976   3
  -7   7  -6 3498.91 554.210   7
  -7   7  -6 4745.47 1019.95   1
  -7   7  -6 3919.95 703.228   6
  -7   7  -7 7252.27 1222.29   3
  -7   7  -7 6711.79 1178.14   1
  -7   7  -7 5639.33 681.301   7
  -7   7  -7 5322.91 849.726   6
  -7   7  -8 1448.71 584.013   3
  -7   7  -8 872.540 362.471   6
  -7   7  -9 239.024 290.615   3
  -7   7  -9-211.779 182.644   6
  -7   7 -10-111.380 184.440   3
  -7   7 -10-171.338 286.716   6
  -7   7 -11 987.405 523.473   3
  -7   7 -11 203.988 188.841   6
  -7   7 -12 274.134 206.385   3
  -7   7 -12-57.7147 180.530   6
  -7   7 -13 75.6427 199.674   3
  -7   7 -13 276.341 250.973   6
  -7   7 -14 1713.18 718.418   3
  -7   7 -14 2033.65 721.165   6
  -7   7 -15-352.528 147.631   3
  -7   7 -15-114.579 279.225   6
  -7   7 -16 157.144 183.776   3
  -7   7 -16 23.4271 174.140   6
  -7   7 -17-414.753 390.214   3
  -7   7 -17 573.756 387.619   6
  -7   7 -18-376.092 384.209   3
  -7   7 -18 161.019 238.320   6
  -7   7 -19-363.975 388.813   3
  -7   7 -19-205.723 269.269   6
  -7   6  19-68.4455 199.104   7
  -7   6  18 801.184 633.837   7
  -7   6  17-259.285 322.371   7
  -7   6  16 139.384 258.845   7
  -7   6  15 278.770 424.708   7
  -7   6  14-4.88954 237.277   7
  -7   6  13-29.1411 195.003   7
  -7   6  12 3659.89 1037.45   7
  -7   6  11 4756.18 1177.19   7
  -7   6  10 193.736 322.045   7
  -7   6   9 781.605 342.516   7
  -7   6   8-185.970 348.285   7
  -7   6   7 920.469 247.875   3
  -7   6   7 803.803 391.090   7
  -7   6   6 12023.9 1534.69   7
  -7   6   6 11614.2 945.490   3
  -7   6   5 5529.33 997.407   7
  -7   6   5 5456.76 676.932   3
  -7   6   4-44.9766 112.956   3
  -7   6   4 53.1988 180.213   7
  -7   6   3 4702.07 684.390   3
   7  -6  -3 3669.74 845.352   2
  -7   6   3 4829.41 879.596   7
   7  -6  -2-126.181 264.421   2
  -7   6   2 317.175 170.385   7
  -7   6   2 312.381 189.637   3
  -7   6   1 15438.2 1344.83   3
  -7   6   1 15603.1 1442.82   7
   7  -6  -1 16552.8 1781.25   2
  -7   6   0 12657.1 1272.55   3
  -7   6   0 13628.5 1292.08   7
   7  -6   0 12788.9 1554.08   2
  -7   6  -1 41398.3 2385.88   3
  -7   6  -1 42626.6 2162.53   7
  -7   6  -1 40483.4 2819.90   1
   7  -6   1 42269.4 2814.20   2
  -7   6  -2 407.818 258.477   3
   7  -6   2 306.870 176.160   2
  -7   6  -2 667.905 273.149   7
  -7   6  -2 1091.14 525.997   1
  -7   6  -2 426.236 170.418   6
  -7   6  -3 7306.08 1184.22   1
  -7   6  -3 7888.34 1110.50   3
  -7   6  -3 7040.94 799.472   7
  -7   6  -3 7517.63 787.660   6
  -7   6  -4 7563.17 1138.23   3
  -7   6  -4 6843.03 736.197   7
  -7   6  -4 7143.70 1206.94   1
  -7   6  -4 6892.48 812.713   6
  -7   6  -5 33594.5 2447.87   3
  -7   6  -5 30926.9 1474.22   7
  -7   6  -5 36522.7 2692.05   1
  -7   6  -5 32094.3 1863.16   6
  -7   6  -6 4461.76 928.438   3
  -7   6  -6 5166.60 568.935   7
  -7   6  -6 2729.16 768.206   1
  -7   6  -6 4889.20 767.573   6
  -7   6  -7 395.931 217.522   6
  -7   6  -7 454.284 271.943   3
  -7   6  -7 433.045 400.946   1
  -7   6  -7 363.343 149.238   7
  -7   6  -8 62.3915 130.857   6
  -7   6  -8 122.656 192.767   3
  -7   6  -9 5607.07 1126.36   3
  -7   6  -9 7203.69 1076.91   6
  -7   6 -10 5974.84 1018.94   6
  -7   6 -10 5088.91 1155.75   3
  -7   6 -11 394.722 268.702   6
  -7   6 -11 396.915 320.360   3
  -7   6 -12 217.992 260.627   6
  -7   6 -12-900.061 496.301   3
  -7   6 -13 1653.40 645.683   3
  -7   6 -13 1359.05 554.404   6
  -7   6 -14-537.468 447.872   3
  -7   6 -14-217.315 202.562   6
  -7   6 -15 135.350 362.091   3
  -7   6 -15 151.776 223.696   6
  -7   6 -16-742.187 502.806   3
  -7   6 -16 142.166 261.807   6
  -7   6 -17-696.903 497.204   3
  -7   6 -17-720.145 458.427   6
  -7   6 -18 227.681 372.515   3
  -7   6 -18 138.655 230.537   6
  -7   6 -19 841.639 588.944   3
  -7   6 -19-169.105 255.234   6
  -7   5  20-172.366 297.050   7
  -7   5  19-282.144 364.765   7
  -7   5  18 1096.23 587.846   7
  -7   5  17-429.413 416.926   7
  -7   5  16 472.334 400.728   7
  -7   5  15 128.753 250.168   7
  -7   5  14 366.379 330.058   7
  -7   5  13 53.9957 224.530   7
  -7   5  12 468.940 332.908   7
  -7   5  11-169.572 300.369   7
  -7   5  10 1232.88 486.863   7
  -7   5   9 2648.02 812.845   7
   7  -5  -8 1571.56 285.052   5
  -7   5   8 1499.55 551.931   7
  -7   5   7 260.745 114.203   3
   7  -5  -7 450.696 163.346   5
  -7   5   7 406.068 366.712   7
   7  -5  -6 1633.56 339.574   5
  -7   5   6 1240.58 280.473   3
  -7   5   6 1014.59 421.919   7
   7  -5  -5 1679.71 369.182   5
  -7   5   5 1960.81 370.204   3
  -7   5   5 1924.33 595.434   7
  -7   5   4 9725.19 870.184   3
   7  -5  -4 10822.0 973.694   5
  -7   5   4 10770.9 1290.08   7
   7  -5  -3 2162.25 453.971   5
  -7   5   3 2371.93 590.214   7
  -7   5   3 2203.46 426.690   3
   7  -5  -2 4691.63 695.847   5
  -7   5   2 5485.57 725.133   3
  -7   5   2 4811.20 793.719   7
   7  -5  -2 4579.58 930.971   2
  -7   5   1 1137.28 348.143   3
   7  -5  -1 1358.50 424.994   5
  -7   5   1 1112.38 356.567   7
   7  -5  -1 558.101 183.078   2
  -7   5   1 799.873 159.315   6
  -7   5   0 26364.3 1762.98   3
  -7   5   0 26277.7 1664.79   7
   7  -5   0 29828.2 2350.93   2
  -7   5   0 24868.4 1056.10   6
  -7   5  -1 23288.5 1715.19   3
  -7   5  -1 22589.6 1436.71   7
   7  -5   1 23353.7 2125.78   2
  -7   5  -1 21974.5 1136.75   6
  -7   5  -2 6968.24 975.939   3
   7  -5   2 6628.54 1121.35   2
  -7   5  -2 6375.07 717.487   7
  -7   5  -2 5490.79 623.002   6
  -7   5  -3 910.634 272.902   6
  -7   5  -3 1069.48 367.907   3
  -7   5  -3 1712.54 344.794   7
  -7   5  -4 514.546 237.648   6
  -7   5  -4 693.773 310.574   3
  -7   5  -4 570.448 187.320   7
  -7   5  -4 725.237 376.888   1
  -7   5  -4 270.232 121.376   7
  -7   5  -5 3611.79 625.635   6
  -7   5  -5 2781.23 356.006   7
  -7   5  -5 2368.05 350.596   7
  -7   5  -5 4385.18 913.911   1
  -7   5  -6 9518.16 585.384   7
  -7   5  -6 11145.8 1432.69   1
  -7   5  -6 12125.2 1206.23   6
  -7   5  -7 8176.52 1269.40   1
  -7   5  -7 7169.91 1002.52   6
  -7   5  -8 2634.95 632.858   6
  -7   5  -8 1676.35 587.086   1
  -7   5  -9 4661.98 882.731   6
  -7   5 -10 633.693 378.454   6
  -7   5 -11 584.697 316.373   6
  -7   5 -12-126.329 195.619   6
  -7   5 -13 936.560 457.712   6
  -7   5 -14-406.489 315.268   6
  -7   5 -15-31.9007 163.331   6
  -7   5 -16 313.938 324.124   6
  -7   5 -17 344.920 303.632   6
  -7   5 -18-631.658 444.317   6
  -7   5 -19-842.858 525.716   6
  -7   4  21 474.707 348.648   7
  -7   4  20-394.576 421.387   7
  -7   4  19 738.001 572.635   7
  -7   4  18-11.3364 233.798   7
  -7   4  17 407.633 466.940   7
  -7   4  16-927.313 566.991   7
  -7   4  15 440.598 328.549   7
  -7   4  14 309.412 303.073   7
  -7   4  13 431.297 261.153   7
  -7   4  12 11495.8 1777.52   7
  -7   4  11 1760.19 657.131   7
  -7   4  10 9756.26 1516.36   7
   7  -4  -9 6430.30 648.423   5
  -7   4   9 6958.42 1224.23   7
   7  -4  -8-81.4177 90.2558   5
  -7   4   8-145.100 288.025   7
   7  -4  -7 3637.61 535.680   5
  -7   4   7 3092.90 762.157   7
  -7   4   7 2700.73 266.867   3
  -7   4   6 576.165 156.530   3
   7  -4  -6 943.251 286.019   5
  -7   4   6 632.250 320.105   7
  -7   4   5 4367.53 479.871   3
   7  -4  -5 4591.29 649.457   5
  -7   4   5 5076.70 895.990   7
   7  -4  -4 0.23295 123.738   5
  -7   4   4 227.688 182.360   7
  -7   4   4 116.171 119.990   3
  -7   4   3 414.668 184.755   3
  -7   4   3 459.334 91.9914   6
   7  -4  -3 464.943 175.792   5
  -7   4   3 717.702 313.118   7
   7  -4  -2 4938.68 717.489   5
  -7   4   2 3695.59 569.521   3
  -7   4   2 4831.77 755.802   7
   7  -4  -2 4742.16 959.438   2
  -7   4   2 4450.68 364.124   6
  -7   4   1 1757.69 268.904   6
   7  -4  -1 1665.13 438.170   5
  -7   4   1 1963.10 455.065   3
  -7   4   1 2137.83 484.647   7
   7  -4  -1 1887.68 598.703   2
   7  -4   0 613.549 365.710   2
  -7   4   0 138.126 80.9548   6
   7  -4   0 343.827 262.134   5
  -7   4   0 93.0012 124.986   3
  -7   4   0 184.209 101.847   7
   7  -4   1 15949.3 1425.73   5
  -7   4  -1 14019.3 1024.59   7
   7  -4   1 15424.2 1699.34   2
  -7   4  -1 14689.0 969.036   6
   7  -4   2 3882.12 727.378   5
   7  -4   2 3377.56 821.632   2
  -7   4  -2 2983.58 426.698   7
  -7   4  -2 4176.86 566.991   6
   7  -4   3 6511.37 978.389   5
  -7   4  -3 5350.25 500.142   7
  -7   4  -3 5942.82 721.877   6
  -7   4  -4 5865.35 1014.01   1
  -7   4  -4 4885.51 407.463   7
  -7   4  -4 6060.49 427.332   7
  -7   4  -4 5850.59 766.137   6
  -7   4  -5 797.231 332.336   6
  -7   4  -5 659.330 346.270   1
  -7   4  -6 2018.99 472.981   6
  -7   4  -6 2274.99 645.533   1
  -7   4  -7 2469.98 581.267   6
  -7   4  -7 2993.26 732.891   1
  -7   4  -8 4358.87 810.615   6
  -7   4  -8 5378.03 1020.12   1
  -7   4  -9 3855.70 790.662   6
  -7   4 -10 48.4482 135.437   6
  -7   4 -11 168.016 182.201   6
  -7   4 -12 1099.48 441.012   6
  -7   4 -13 931.439 402.003   6
  -7   4 -14 1149.04 556.420   6
  -7   4 -15-25.1019 115.803   6
  -7   4 -16 796.298 474.559   6
  -7   4 -17 842.269 528.176   6
  -7   4 -18 806.680 494.660   6
  -7   4 -19-259.814 301.051   6
  -7   3  21-247.540 339.396   7
  -7   3  20 472.030 476.640   7
  -7   3  19-220.090 312.452   7
  -7   3  18 356.229 376.661   7
  -7   3  17 835.940 500.701   7
  -7   3  16-4.03630 200.823   7
  -7   3  15 530.812 396.158   7
  -7   3  14 9611.00 1692.70   7
  -7   3  13 177.764 181.715   7
  -7   3  12 5133.58 1185.61   7
   7  -3 -11 303.183 121.948   5
  -7   3  11 549.266 390.767   7
   7  -3 -10 1400.60 334.779   5
  -7   3  10 1612.44 615.973   7
  -7   3   9-11.0399 160.303   7
   7  -3  -9 358.006 152.578   5
   7  -3  -8 2882.96 516.263   5
  -7   3   8 2645.40 719.565   7
   7  -3  -7 3725.46 594.005   5
  -7   3   7 2805.66 704.511   7
  -7   3   7 3195.51 359.976   6
   7  -3  -6 2163.65 474.040   5
  -7   3   6 2549.42 658.409   7
  -7   3   6 2482.61 302.273   6
  -7   3   6 1779.56 227.663   3
   7  -3  -5 376.670 194.386   5
  -7   3   5 200.695 197.191   7
  -7   3   5 165.664 93.5939   3
   7  -3  -4 4459.77 695.862   5
  -7   3   4 4020.59 475.940   3
  -7   3   4 4277.20 752.261   7
  -7   3   3 1106.38 279.530   3
   7  -3  -3 984.301 286.267   5
  -7   3   3 759.520 268.337   7
   7  -3  -2 1734.48 435.776   5
  -7   3   2 2229.26 483.336   7
   7  -3  -1 1211.27 404.241   5
  -7   3   1 1688.79 387.074   7
   7  -3   0-124.308 170.851   5
  -7   3   0 116.984 100.239   7
   7  -3   0-35.1596 54.7724   7
   7  -3   1 352.806 238.464   5
  -7   3  -1 264.420 124.074   7
   7  -3   1 486.837 172.133   7
   7  -3   2 281.422 229.764   5
  -7   3  -2-10.2158 32.8278   7
  -7   3  -3 2794.77 516.350   6
   7  -3   3 2906.70 670.238   5
  -7   3  -3 2953.77 706.917   1
  -7   3  -4 175.893 106.769   6
   7  -3   4 530.160 280.282   5
  -7   3  -4 122.461 176.960   1
   7  -3   5 5170.22 921.825   5
  -7   3  -5 4979.75 916.014   1
  -7   3  -5 5790.51 824.073   6
   7  -3   6 7493.94 1138.56   5
  -7   3  -6 5784.10 975.400   1
  -7   3  -6 6758.69 917.855   6
  -7   3  -7 579.752 268.783   6
  -7   3  -7 966.323 424.675   1
  -7   3  -8 692.779 302.083   6
  -7   3  -9 1093.19 416.890   6
  -7   3 -10 61.2722 250.001   6
  -7   3 -11 55.9138 187.689   6
  -7   3 -12 2371.05 697.636   6
  -7   3 -13-234.556 140.078   6
  -7   3 -14 1327.21 585.359   6
  -7   3 -15-296.559 283.593   6
  -7   3 -16 5.27229 110.142   6
  -7   3 -17 576.433 498.671   6
  -7   3 -18-162.063 236.201   6
  -7   3 -19 64.7001 216.517   6
  -7   2  22-405.200 436.865   7
  -7   2  21 1140.58 628.593   7
  -7   2  20-1138.56 681.276   7
  -7   2  19 264.144 335.876   7
  -7   2  18 1218.74 846.147   7
  -7   2  17 490.272 335.709   7
  -7   2  16 167.235 151.248   7
  -7   2  15 248.016 308.986   7
  -7   2  14 7815.86 1450.96   7
  -7   2  13 13049.6 1880.20   7
   7  -2 -12-149.196 73.8550   5
  -7   2  12-1.20113 115.849   7
   7  -2 -11 5274.48 751.881   5
  -7   2  11 4627.30 1040.41   7
   7  -2 -10 3445.93 598.178   5
  -7   2  10 4225.63 1025.77   7
   7  -2  -9 24173.2 1631.30   5
  -7   2   9 27916.3 2372.85   7
   7  -2  -8-0.79991 65.2572   5
  -7   2   8-51.5311 142.903   7
   7  -2  -7 11511.8 1139.51   5
  -7   2   7 10732.9 1379.22   7
   7  -2  -6 681.377 255.739   5
  -7   2   6 303.762 261.596   7
  -7   2   6 392.657 94.3787   3
   7  -2  -5 9394.90 1047.22   5
  -7   2   5 8201.94 573.465   3
  -7   2   5 8698.41 1098.85   7
   7  -2  -4 4742.68 754.345   5
  -7   2   4 4384.86 730.921   7
   7  -2  -3 12416.5 1242.46   5
  -7   2   3 13216.1 1206.98   7
   7  -2  -2 16607.6 1454.81   5
  -7   2   2 16335.1 1257.89   7
   7  -2  -1 636.262 273.290   5
  -7   2   1 905.304 267.159   7
   7  -2   0 14333.9 1409.15   5
  -7   2   0 12465.3 918.170   7
   7  -2   0 13510.6 886.174   7
   7  -2   1 10410.9 1208.97   5
  -7   2  -1 8871.57 660.385   7
   7  -2   1 9024.94 629.237   7
   7  -2   2 267.272 179.094   5
  -7   2  -2 41.3304 41.2629   7
   7  -2   3 8269.27 1131.67   5
  -7   2  -3 6651.80 1007.90   1
  -7   2  -4 234.230 239.812   1
   7  -2   4 96.5228 89.1694   5
   7  -2   5 2017.60 562.294   5
  -7   2  -5 2675.20 647.680   1
   7  -2   6 1293.43 440.513   5
  -7   2  -6 2215.93 596.217   1
  -7   2  -7 4906.51 854.109   6
   7  -2   7 4684.39 896.462   5
  -7   2  -7 4800.64 886.497   1
  -7   2  -8 279.953 255.058   6
   7  -2   8-221.224 335.890   5
  -7   2  -9 12138.0 1434.03   6
  -7   2 -10-136.171 175.111   6
  -7   2 -11 3225.32 812.991   6
  -7   2 -12-11.2308 154.488   6
  -7   2 -13-509.719 345.181   6
  -7   2 -14 57.4261 117.052   6
  -7   2 -15 472.594 349.422   6
  -7   2 -16 1869.63 739.889   6
  -7   2 -17 380.171 388.225   6
  -7   2 -18 337.500 339.737   6
  -7   2 -19 406.667 370.908   6
  -7   1  22-584.711 516.021   7
  -7   1  21 279.568 427.990   7
  -7   1  20 891.467 539.698   7
  -7   1  19 1843.05 748.996   7
  -7   1  18 2032.80 892.744   7
  -7   1  17 83.4646 112.627   7
  -7   1  16-693.900 471.131   7
  -7   1  15-78.6287 225.667   7
  -7   1  14 1356.25 691.762   7
   7  -1 -14 261.079 226.308   5
   7  -1 -13 9665.35 1129.56   5
  -7   1  13 10128.5 1610.88   7
  -7   1  12-35.6084 265.097   7
   7  -1 -12 20.0687 82.9787   5
  -7   1  11 2097.76 655.283   7
   7  -1 -11 2735.46 580.450   5
   7  -1 -10 3450.88 665.164   5
  -7   1  10 4395.80 974.391   7
   7  -1  -9 558.296 223.734   5
  -7   1   9 470.483 302.849   7
   7  -1  -8 7974.25 989.420   5
  -7   1   8 5982.26 1020.09   7
   7  -1  -7 507.984 271.264   5
  -7   1   7 364.312 197.903   7
   7  -1  -6 10030.7 1125.69   5
  -7   1   6 8751.68 1142.40   7
  -7   1   6 8217.04 507.585   3
   7  -1  -5 12558.0 1274.06   5
  -7   1   5 13135.9 1336.81   7
   7  -1  -4 10700.2 1192.79   5
  -7   1   4 11463.1 1167.83   7
  -7   1   3 117.834 180.776   7
   7  -1  -3 179.531 129.019   5
   7  -1  -2 23922.7 1831.57   5
  -7   1   2 22607.0 1448.19   7
  -7   1   1 151.404 116.070   7
   7  -1  -1-8.87370 49.3138   7
  -7   1   0 2979.89 434.369   7
   7  -1   0 3817.23 756.566   5
   7  -1   0 3626.28 449.433   7
   7  -1   1 37469.5 2386.47   5
  -7   1  -1 35218.4 1274.43   7
   7  -1   1 33357.3 1164.79   7
   7  -1   2 17796.1 1680.07   5
  -7   1  -2 13794.9 586.186   7
   7  -1   2 13942.2 561.403   7
   7  -1   3 5490.43 937.612   5
  -7   1  -3 5790.53 896.986   1
   7  -1   4 13835.8 1514.14   5
  -7   1  -4 12925.2 1367.32   1
   7  -1   5 7638.63 1147.95   5
  -7   1  -5 7609.53 1039.37   1
   7  -1   6 144.548 125.442   5
  -7   1  -6 454.416 262.343   1
   7  -1   7 913.610 398.299   5
  -7   1  -7 369.432 154.811   1
   7  -1   8 2645.45 766.062   5
  -7   1  -9 6461.08 1067.24   6
   7  -1   9 9054.33 1358.57   5
  -7   1 -10 231.736 269.218   6
  -7   1 -11 109.103 174.730   6
  -7   1 -12 2057.93 642.378   6
  -7   1 -13-13.4506 188.545   6
  -7   1 -14-203.680 285.233   6
  -7   1 -15 93.0748 261.756   6
  -7   1 -16 1902.32 760.676   6
  -7   1 -17 107.124 305.894   6
  -7   1 -18 412.154 445.888   6
  -7   1 -19 194.689 318.069   6
  -7   0  23-426.484 453.186   7
  -7   0  22-887.417 623.469   7
  -7   0  21 75.4147 207.314   7
  -7   0  20-40.8286 155.924   7
  -7   0  19 1019.87 673.549   7
  -7   0  18 869.084 585.493   7
  -7   0  17 354.166 377.467   7
  -7   0  16 2389.09 884.854   7
  -7   0  15 4022.56 1066.84   7
  -7   0  14 35996.3 3125.51   7
  -7   0  13 11701.5 1733.87   7
  -7   0  12 2307.10 747.712   7
   7   0 -12 1941.24 537.888   5
  -7   0  11 33.6459 222.181   7
   7   0 -11 316.128 255.528   5
  -7   0  10 5483.79 1073.40   7
   7   0 -10 4821.68 817.485   5
   7   0  -9 7546.68 1032.24   5
  -7   0   9 7137.30 1167.45   7
  -7   0   8-116.987 249.682   7
   7   0  -8 152.247 144.499   5
  -7   0   7 871.687 166.877   3
  -7   0   7 1951.40 590.941   7
   7   0  -7 2183.60 574.866   5
   7   0  -6 3458.02 692.435   5
  -7   0   6 2700.95 604.220   7
  -7   0   6 2482.61 328.098   3
  -7   0   5 101.988 52.6080   3
  -7   0   5-97.9299 128.711   7
   7   0  -5-105.258 241.971   5
   7   0  -4 958.985 384.372   5
  -7   0   4 1256.39 386.350   7
   7   0  -3 27.6176 90.1678   5
  -7   0   3-46.3860 138.380   7
   7   0  -2 736.084 284.596   5
  -7   0   2 761.300 253.953   7
  -7   0   1 37.1219 44.2178   7
   7   0  -1 49.9755 160.466   5
  -7   0   0 696.910 212.830   7
   7   0   0 578.039 313.675   5
   7   0   0 710.110 208.369   7
   7   0   1 2241.67 619.724   5
  -7   0  -1 1038.17 228.972   7
   7   0   1 1381.08 261.157   7
   7   0   2 6805.59 1070.96   5
   7   0   2 5757.05 449.538   7
   7   0   3 2755.27 668.734   5
  -7   0  -3 2379.90 546.095   1
  -7   0  -4 2526.86 566.975   1
   7   0   4 3275.79 768.235   5
   7   0   5 8131.01 1194.87   5
  -7   0  -5 9468.66 1112.05   1
   7   0   6 4462.95 924.813   5
  -7   0  -6 3232.39 649.922   1
   7   0   7 331.246 382.163   5
  -7   0  -7 100.434 67.8851   1
   7   0   8 1665.83 591.021   5
   7   0   9 3608.84 863.495   5
   7   0  10 16629.0 1861.81   5
  -7   0 -10 19422.8 1975.64   6
  -7   0 -11 7058.69 1260.52   6
  -7   0 -12 220.318 232.137   6
  -7   0 -13-192.834 275.716   6
  -7   0 -14 168.779 314.684   6
  -7   0 -15 316.447 422.608   6
  -7   0 -16-111.594 316.491   6
  -7   0 -17-205.046 104.378   6
  -7   0 -18 604.767 429.236   6
  -7   0 -19 142.723 375.947   6
  -7  -1  23 259.155 495.871   7
  -7  -1  22 706.747 511.622   7
  -7  -1  21 470.953 606.968   7
  -7  -1  20 23.4208 153.725   7
  -7  -1  19 483.670 426.017   7
  -7  -1  18 230.097 329.267   7
  -7  -1  17-107.554 117.282   7
  -7  -1  16 448.185 289.959   7
  -7  -1  15-258.797 482.371   7
  -7  -1  14 376.752 242.340   7
  -7  -1  13-182.157 379.303   7
  -7  -1  12-231.600 316.508   7
  -7  -1  11 7303.81 1279.68   7
  -7  -1  10 790.588 472.429   7
   7   1 -10 382.089 235.648   5
   7   1  -9 39439.5 2462.24   5
  -7  -1   9 33041.5 1014.39   3
  -7  -1   9 40780.9 2791.31   7
  -7  -1   8 7397.95 541.571   3
   7   1  -8 8187.80 1105.23   5
  -7  -1   8 7765.07 1173.42   7
  -7  -1   7 1796.03 550.097   7
   7   1  -7 2368.07 592.308   5
  -7  -1   7 2254.59 331.646   3
   7   1  -6 25055.1 1953.56   5
  -7  -1   6 26733.1 1993.16   7
  -7  -1   6 24234.8 1198.32   3
   7   1  -5 24914.1 1950.84   5
  -7  -1   5 21959.6 1718.24   7
   7   1  -4 33.1137 168.089   5
  -7  -1   4-37.8655 134.420   7
   7   1  -3 721.892 335.954   5
  -7  -1   3 898.452 318.780   7
   7   1  -2 9350.32 1228.85   5
  -7  -1   2 8517.04 923.808   7
  -7  -1   1 170.301 125.155   7
   7   1  -1 100.155 146.274   5
   7   1   0 1808.57 366.046   7
  -7  -1   0 1109.18 285.361   7
   7   1   0 2545.82 643.622   5
   7   1   1 11016.3 1387.78   5
   7   1   1 10562.7 812.503   7
   7   1   2 21153.1 1920.63   5
   7   1   2 17346.6 964.971   7
   7   1   3 1079.66 432.384   5
   7   1   3 1241.40 237.580   7
  -7  -1  -4 956.844 337.057   1
   7   1   4 881.484 292.030   5
   7   1   4 1006.35 206.041   7
   7   1   4 671.254 166.757   7
   7   1   5 687.081 363.897   5
   7   1   5 931.863 196.727   7
  -7  -1  -5 894.228 329.059   1
   7   1   5 1003.14 190.934   7
   7   1   6 44.7089 58.0551   7
  -7  -1  -6 153.328 124.194   1
   7   1   7 857.219 453.485   5
   7   1   7 786.099 184.921   7
   7   1   8 1789.41 565.166   5
   7   1   9 1218.06 564.462   5
   7   1  10 14269.9 1742.55   5
   7   1  11 1181.04 519.016   5
  -7  -1 -12 847.714 439.571   6
  -7  -1 -13 247.929 317.928   6
  -7  -1 -14 2240.84 768.160   6
  -7  -1 -15 185.527 208.375   6
  -7  -1 -16 250.067 407.462   6
  -7  -1 -17 1375.71 707.846   6
  -7  -1 -18 71.9907 403.439   6
  -7  -2  23 208.770 453.690   7
  -7  -2  22 308.849 448.307   7
  -7  -2  21 1111.29 685.027   7
  -7  -2  20-283.913 347.291   7
  -7  -2  19-217.191 429.123   7
  -7  -2  18-453.912 479.403   7
  -7  -2  17-188.527 159.310   7
  -7  -2  16 658.558 291.401   7
  -7  -2  15-103.929 194.579   7
  -7  -2  14 319.569 286.403   7
  -7  -2  13 11537.3 1684.39   7
  -7  -2  12 4318.66 1000.94   7
  -7  -2  11 2242.77 705.669   7
  -7  -2  10 891.632 219.328   3
  -7  -2  10 494.359 331.091   7
  -7  -2   9 796.501 223.944   7
   7   2  -9 572.891 343.492   5
  -7  -2   9 631.831 197.770   3
  -7  -2   8 1251.29 490.630   7
   7   2  -8 533.055 290.298   5
  -7  -2   8 906.825 225.471   3
  -7  -2   7 15104.4 1617.14   7
   7   2  -7 14378.5 1529.51   5
  -7  -2   6 1171.84 412.929   7
   7   2  -6 1418.65 480.422   5
  -7  -2   5-2.41393 208.200   7
   7   2  -5 259.693 212.766   5
   7   2  -4 11398.9 1372.39   5
  -7  -2   4 11047.3 1189.56   7
   7   2  -3 15306.1 1592.53   5
  -7  -2   3 14366.8 1306.87   7
   7   2  -2 14138.6 1566.89   5
  -7  -2   2 14060.8 1237.85   7
  -7  -2   1 6314.20 794.302   7
   7   2  -1 6177.29 1031.36   5
   7   2   0 667.154 226.176   5
   7   2   1 9907.05 1349.71   5
   7   2   2 1062.42 440.144   5
   7   2   2 1127.21 289.066   7
   7   2   3 9823.07 1370.71   5
   7   2   3 6905.79 694.748   7
   7   2   4 4362.78 540.534   7
   7   2   4 5291.41 988.966   5
  -7  -2  -4 4869.29 736.573   1
   7   2   4 5272.03 580.643   7
   7   2   5 13820.1 1657.30   5
   7   2   5 14886.6 972.437   7
  -7  -2  -5 15246.3 1260.40   1
   7   2   5 15076.5 1747.18   4
   7   2   6 13424.0 1630.65   5
   7   2   6 15440.7 1013.82   7
   7   2   6 15936.8 1835.97   4
  -7  -2  -6 14355.6 1205.93   1
   7   2   7 4825.38 984.119   5
   7   2   7 4234.80 542.960   7
   7   2   7 4004.74 928.722   4
   7   2   8 3353.31 846.810   5
   7   2   8 3848.02 545.330   7
   7   2   8 3794.99 921.394   4
   7   2   9 11328.6 1591.93   5
   7   2   9 14403.0 1858.23   4
   7   2  10 11367.2 1581.42   5
   7   2  10 9403.60 1556.23   4
   7   2  11 2353.48 713.469   5
   7   2  11 1286.10 603.801   4
   7   2  12-179.907 94.9948   5
   7   2  12-1013.46 526.112   4
  -7  -2 -13-29.2249 123.834   6
   7   2  13 113.939 196.845   4
  -7  -2 -14 2537.47 833.392   6
   7   2  14 3444.67 1022.70   4
  -7  -2 -15 600.194 442.134   6
   7   2  15 310.383 215.344   4
  -7  -2 -16-587.395 425.043   6
   7   2  16 138.580 281.249   4
  -7  -2 -17 780.847 550.933   6
  -7  -2 -18 215.564 316.766   6
  -7  -3  23 1767.57 990.543   7
  -7  -3  22 937.711 687.265   7
  -7  -3  21 377.323 401.364   7
  -7  -3  20 1150.82 739.047   7
  -7  -3  19 1181.06 695.037   7
  -7  -3  18 1343.64 690.291   7
  -7  -3  17 507.609 434.745   7
  -7  -3  16-72.0124 157.194   7
  -7  -3  15 2737.83 849.642   7
  -7  -3  14 1320.81 606.663   7
  -7  -3  13 1470.76 598.910   7
   7   3 -12 315.000 126.559   3
  -7  -3  12 77.7694 219.435   7
   7   3 -11-21.7243 103.405   3
  -7  -3  11 108.321 192.957   7
   7   3 -10 525.426 174.711   3
  -7  -3  10 575.364 353.242   7
  -7  -3   9 3999.65 938.681   7
  -7  -3   8 3142.36 744.981   7
   7   3  -8 2561.05 673.481   5
  -7  -3   7 241.442 167.959   7
   7   3  -7 302.412 351.821   5
   7   3  -6 24.4052 116.208   5
  -7  -3   6-117.835 165.266   7
  -7  -3   5 4901.27 865.607   7
   7   3  -5 3995.37 843.632   5
   7   3  -4 565.887 372.224   5
  -7  -3   4 664.800 319.491   7
   7   3  -3 8318.06 1233.80   5
  -7  -3   3 9604.40 1132.10   7
  -7  -3   2 5132.17 815.769   7
   7   3  -2 4782.74 910.227   5
  -7  -3   1 7083.53 903.791   7
   7   3  -1 7122.89 1121.89   5
   7   3   0 3106.07 776.740   5
   7   3   1 1724.01 563.061   5
   7   3   1 2722.63 719.532   4
   7   3   2 1449.71 520.923   5
   7   3   2 838.241 398.909   4
  -7  -3  -3 1190.39 352.606   1
   7   3   3 2372.29 727.864   4
   7   3   3 2555.44 686.732   5
   7   3   4 5643.03 1057.95   5
  -7  -3  -4 5517.52 717.456   1
   7   3   4 6274.63 745.298   7
   7   3   4 6596.67 1170.09   4
   7   3   5 5730.73 1116.16   5
   7   3   5 6336.00 748.985   7
  -7  -3  -5 6484.07 760.592   1
   7   3   5 5594.92 1109.23   4
   7   3   6 747.028 369.839   5
   7   3   6 1330.39 577.721   4
   7   3   6 1133.91 306.528   7
   7   3   7 843.801 431.263   5
   7   3   7 901.395 400.491   4
   7   3   7 913.031 301.629   7
   7   3   8 3302.49 857.435   5
   7   3   8 4967.58 1086.19   4
   7   3   8 3373.17 586.171   7
   7   3   9 80.5239 120.559   5
   7   3   9 410.254 428.115   4
   7   3  10 765.583 451.037   5
   7   3  10 388.282 367.006   4
   7   3  11 362.421 285.377   5
   7   3  11 816.764 464.590   4
   7   3  12 666.177 386.302   5
   7   3  12 1248.16 525.635   4
   7   3  13 115.461 319.531   5
   7   3  13 254.384 331.741   4
  -7  -3 -14-164.745 190.907   6
   7   3  14-208.950 270.260   4
  -7  -3 -15-126.617 213.323   6
   7   3  15-493.604 400.958   4
  -7  -3 -16-106.343 176.161   6
   7   3  16-843.525 531.267   4
  -7  -3 -17 304.631 327.306   6
   7   3  17 830.521 538.533   4
   7   3  18-456.082 414.303   4
   7   3  19-640.548 492.696   4
  -7  -4  23 547.360 481.130   7
  -7  -4  22 123.110 327.570   7
  -7  -4  21 331.433 178.199   7
  -7  -4  20 353.003 430.069   7
  -7  -4  19-370.268 375.738   7
  -7  -4  18-5.09236 425.081   7
  -7  -4  17 330.810 326.473   7
  -7  -4  16 2748.01 920.037   7
  -7  -4  15 119.291 223.415   7
  -7  -4  14-193.141 372.081   7
   7   4 -13 565.576 241.934   3
  -7  -4  13 343.932 221.426   7
   7   4 -12 375.841 223.759   3
  -7  -4  12-64.2001 234.651   7
   7   4 -11 425.042 210.038   3
  -7  -4  11 272.699 286.494   7
  -7  -4  10 6089.39 1158.02   7
   7   4 -10 7053.47 853.282   3
  -7  -4   9 7792.07 1268.01   7
   7   4  -9 7346.28 886.665   3
  -7  -4   8 2705.66 745.901   7
   7   4  -8 2522.35 519.810   3
   7   4  -7 11083.1 1454.06   5
  -7  -4   7 10873.9 1408.09   7
  -7  -4   6 721.896 392.324   7
   7   4  -6 620.171 376.842   5
   7   4  -5 20099.6 1946.41   5
  -7  -4   5 19120.5 1769.74   7
  -7  -4   4 3402.70 729.378   7
   7   4  -4 4226.07 902.557   5
  -7  -4   3 92.7657 160.158   7
   7   4  -3 218.112 277.881   5
  -7  -4   2 2265.52 567.608   7
   7   4  -2 891.529 480.707   5
   7   4  -1 235.596 257.097   4
   7   4  -1-227.169 320.400   5
   7   4   0 609.913 580.176   5
   7   4   0 495.617 283.613   4
   7   4   1 468.984 215.981   5
   7   4   1 70.7698 123.726   4
   7   4   2 25.8917 197.793   5
   7   4   2-137.569 356.734   4
  -7  -4  -3 927.705 294.151   1
   7   4   3 1100.85 465.549   4
   7   4   3 774.167 405.108   5
   7   4   4 1049.94 375.774   5
  -7  -4  -4 1537.53 354.060   1
   7   4   4 1299.34 477.701   4
   7   4   4 915.063 346.793   7
   7   4   5 2956.70 799.637   5
  -7  -4  -5 3990.44 539.522   1
   7   4   5 3981.67 937.124   4
   7   4   5 3579.99 631.760   7
   7   4   6 11794.5 1636.87   5
   7   4   6 12720.5 1215.58   7
   7   4   6 13456.6 1755.86   4
   7   4   7 593.217 446.198   4
   7   4   7 130.831 124.859   7
   7   4   8 14629.4 1825.41   5
   7   4   8 15023.3 1370.14   7
   7   4   8 14773.8 1921.67   4
   7   4   9 168.524 373.165   5
   7   4   9 672.981 403.797   4
   7   4  10 3111.24 871.506   5
   7   4  10 4624.99 1130.79   4
   7   4  11 363.901 198.281   5
   7   4  11 231.644 304.298   4
   7   4  12 95.1159 182.732   5
   7   4  12-354.714 332.941   4
   7   4  13 327.616 317.451   5
   7   4  13-634.650 445.685   4
  -7  -4 -14 29.8306 136.276   6
   7   4  14-732.789 491.005   4
  -7  -4 -15 150.719 378.163   6
   7   4  15-64.5297 177.233   4
  -7  -4 -16 88.8934 343.555   6
   7   4  16-53.6354 163.882   4
  -7  -4 -17 311.985 492.853   6
   7   4  17-510.979 437.652   4
   7   4  18-793.896 549.047   4
   7   4  19-750.729 546.725   4
  -7  -5  23-168.171 307.142   7
  -7  -5  22 181.251 214.212   7
  -7  -5  21 729.481 555.665   7
  -7  -5  20 525.350 416.717   7
  -7  -5  19 173.517 374.984   7
  -7  -5  18 965.146 644.886   7
  -7  -5  17-42.7132 296.844   7
  -7  -5  16 988.031 433.619   7
  -7  -5  15-675.810 456.636   7
   7   5 -14 84.3925 144.690   3
  -7  -5  14 480.446 290.175   7
  -7  -5  13 9457.06 1599.88   7
   7   5 -13 10206.6 1128.75   3
   7   5 -12 3290.62 648.249   3
  -7  -5  12 4242.56 1058.55   7
   7   5 -11 144.789 176.949   3
  -7  -5  11-80.8793 378.386   7
  -7  -5  10 5556.90 1143.61   7
   7   5 -10 5617.45 836.146   3
  -7  -5   9 10387.3 1507.33   7
   7   5  -9 8878.96 1073.14   3
   7   5  -8 175.170 186.740   3
  -7  -5   8 373.477 349.233   7
  -7  -5   7 4466.10 960.740   7
   7   5  -7 3931.07 730.102   3
  -7  -5   6 8304.62 1251.18   7
   7   5  -6 7039.80 1184.50   5
   7   5  -5 11761.2 1537.35   5
  -7  -5   5 11107.1 1412.32   7
   7   5  -4 2959.92 746.356   5
  -7  -5   4 3269.53 721.027   7
  -7  -5   3 6080.84 996.613   7
   7   5  -3 6028.14 1108.44   5
   7   5  -3 5390.97 938.609   4
   7   5  -2 778.201 448.422   5
   7   5  -2 593.789 336.573   4
   7   5  -1 18257.2 1958.01   5
   7   5  -1 18323.8 1829.06   4
   7   5   0 8050.14 1287.83   5
   7   5   0 8507.80 1268.61   4
   7   5   1-212.954 378.227   5
   7   5   1 135.228 201.133   4
   7   5   2-286.309 280.461   5
   7   5   2-1010.87 457.019   4
  -7  -5  -3 3159.18 467.517   1
   7   5   3 2812.81 774.239   5
   7   5   3 2929.44 742.918   4
  -7  -5  -4 906.355 232.137   1
   7   5   4 275.149 165.985   5
   7   5   4 533.159 314.175   4
   7   5   4 604.738 292.983   7
   7   5   5 7.00083 154.135   5
   7   5   5 125.478 270.654   4
   7   5   5 336.555 280.977   7
   7   5   6 354.898 366.452   5
   7   5   6 468.576 336.858   4
   7   5   6 114.975 76.5160   7
   7   5   7 3228.73 857.319   5
   7   5   7 3933.17 1011.71   4
   7   5   7 3401.71 705.148   7
   7   5   8 2302.11 723.576   5
   7   5   8 2779.09 642.687   7
   7   5   8 4171.18 1083.08   4
   7   5   9-217.301 307.217   5
   7   5   9 636.726 539.994   4
   7   5  10 1631.26 617.735   5
   7   5  10 197.551 362.179   4
   7   5  11 426.632 379.228   5
   7   5  11 692.356 578.589   4
   7   5  12 1404.50 591.232   5
   7   5  12 480.057 425.844   4
   7   5  13-413.009 320.854   5
   7   5  13 454.311 389.115   4
   7   5  14 1151.35 564.003   5
   7   5  14 118.985 338.952   4
  -7  -5 -15 327.930 477.728   6
   7   5  15-280.347 326.833   4
  -7  -5 -16 123.544 299.133   6
   7   5  16 683.750 598.196   4
   7   5  17-455.355 419.579   4
   7   5  18 156.625 212.217   4
  -7  -6  23 159.707 230.148   7
  -7  -6  22-278.384 361.319   7
  -7  -6  21-69.8542 238.023   7
  -7  -6  20-62.5623 190.081   7
  -7  -6  19 901.027 553.034   7
  -7  -6  18 571.693 463.822   7
  -7  -6  17-153.732 188.730   7
  -7  -6  16-1007.17 577.189   7
  -7  -6  15-18.1679 276.420   7
   7   6 -14 40.9849 115.899   3
  -7  -6  14-145.226 354.894   7
   7   6 -13 755.754 339.981   3
  -7  -6  13 1941.20 742.087   7
   7   6 -12-196.363 172.379   3
  -7  -6  12-236.668 304.055   7
   7   6 -11 1537.60 491.969   3
  -7  -6  11 1914.12 703.911   7
  -7  -6  10 877.798 411.482   7
   7   6 -10 1025.04 379.737   3
   7   6  -9 5136.43 889.368   3
  -7  -6   9 4422.15 1014.80   7
  -7  -6   8 15357.8 1865.56   7
   7   6  -8 13157.6 1427.11   3
   7   6  -7 454.880 261.331   3
  -7  -6   7 304.600 216.966   7
  -7  -6   6 923.014 514.410   7
   7   6  -6 1489.44 574.403   5
   7   6  -6 1286.53 415.411   3
   7   6  -5 13381.0 1716.37   5
  -7  -6   5 11436.0 1503.69   7
   7   6  -5 11802.3 1390.95   4
   7   6  -4 30056.6 2537.71   5
  -7  -6   4 28429.4 2312.87   7
   7   6  -4 27321.7 2144.10   4
   7   6  -3 1066.77 451.915   5
   7   6  -3 1438.41 555.328   4
   7   6  -2 8999.75 1396.59   5
   7   6  -2 9068.49 1278.98   4
   7   6  -1 5143.03 1047.42   5
   7   6  -1 4195.38 903.127   4
   7   6   0 720.629 423.055   5
   7   6   0 714.995 310.781   4
   7   6   1 12199.2 1648.97   5
   7   6   1 12133.8 1596.80   4
   7   6   2 2919.08 789.024   5
   7   6   2 3154.21 839.243   4
  -7  -6  -3 19.2296 41.1816   1
   7   6   3-226.641 368.182   5
   7   6   3 50.3725 189.384   4
   7   6   4 536.194 345.430   5
   7   6   4 1120.77 499.859   4
   7   6   4 334.611 221.081   7
   7   6   5 2088.55 705.639   5
   7   6   5 2829.33 837.949   4
   7   6   5 3278.95 734.045   7
   7   6   6 621.131 347.099   5
   7   6   6 1370.55 573.513   4
   7   6   6 699.835 349.036   7
   7   6   7 1413.97 575.040   5
   7   6   7 1227.29 558.132   4
   7   6   7 1303.09 467.514   7
   7   6   8 2279.33 750.538   5
   7   6   8 1895.59 556.114   7
   7   6   8 2422.92 790.043   4
   7   6   9 47.3945 261.616   5
   7   6   9 85.9354 191.114   7
   7   6   9-77.6756 228.632   4
   7   6  10 1434.44 583.703   5
   7   6  10 845.662 531.155   4
   7   6  11-308.563 281.244   5
   7   6  11 301.713 511.861   4
   7   6  12 481.195 335.653   5
   7   6  12 1363.34 622.715   4
   7   6  13-197.536 231.882   5
   7   6  13-831.402 536.348   4
   7   6  14 554.677 467.355   5
   7   6  14-138.343 242.435   4
   7   6  15 171.591 326.485   4
  -7  -6 -16 327.814 292.371   6
   7   6  16 244.571 376.847   4
   7   6  17-184.165 288.172   4
  -7  -7  22 140.043 268.110   7
  -7  -7  21 30.2697 161.436   7
  -7  -7  20 101.537 121.555   7
  -7  -7  19 166.104 387.079   7
  -7  -7  18 497.961 451.219   7
  -7  -7  17 2677.04 1000.74   7
  -7  -7  16 273.274 428.027   7
   7   7 -15 115.397 147.546   3
  -7  -7  15 467.913 486.175   7
   7   7 -14 1611.11 529.377   3
  -7  -7  14 1842.71 760.060   7
   7   7 -13 1500.89 517.246   3
  -7  -7  13 1304.97 720.067   7
   7   7 -12 1412.64 462.133   3
  -7  -7  12 2156.57 757.630   7
   7   7 -11 681.870 372.460   3
  -7  -7  11 869.868 540.757   7
  -7  -7  10 10239.6 1624.13   7
   7   7 -10 10847.6 1373.71   3
  -7  -7   9 26864.2 2580.59   7
   7   7  -9 27565.2 2189.16   3
   7   7  -8 2910.50 730.034   3
  -7  -7   8 3374.03 902.235   7
   7   7  -7 6489.43 1105.68   3
  -7  -7   7 7507.71 1346.72   7
   7   7  -6 3976.71 850.564   3
  -7  -7   6 3011.91 839.176   7
   7   7  -6 3746.79 941.214   5
   7   7  -6 2548.06 616.088   4
   7   7  -5 2406.59 724.429   5
   7   7  -5 1784.32 552.637   4
   7   7  -4 4985.77 1072.39   5
   7   7  -4 4357.79 889.278   4
   7   7  -3 589.230 438.702   5
   7   7  -3 162.704 141.144   4
   7   7  -2 4985.49 1071.54   5
   7   7  -2 4032.70 901.075   4
   7   7  -1-157.652 390.627   5
   7   7  -1 139.517 183.402   4
   7   7   0 7633.82 1331.55   5
   7   7   0 8553.79 1357.60   4
   7   7   1 6095.53 1221.13   5
   7   7   1 5514.85 1084.21   4
   7   7   2 289.465 351.926   5
   7   7   2 363.153 332.452   4
   7   7   3 279.969 186.388   5
   7   7   3 536.012 312.606   4
   7   7   4 259.706 200.807   5
   7   7   4 132.214 273.575   4
   7   7   4 457.811 290.857   7
   7   7   5 5737.82 1174.23   5
   7   7   5 3994.98 1044.72   4
   7   7   5 5151.05 978.323   7
   7   7   6 14877.8 1914.08   5
   7   7   6 15780.8 1715.87   7
   7   7   6 18319.2 2227.68   4
   7   7   7 7256.36 1349.56   5
   7   7   7 7813.43 1230.13   7
   7   7   7 6775.68 1391.42   4
   7   7   8 111.108 214.093   5
   7   7   8 700.289 368.717   7
   7   7   8 803.090 530.092   4
   7   7   9 930.507 497.823   5
   7   7   9 401.003 309.849   7
   7   7   9 228.124 182.525   4
   7   7  10-17.2291 223.300   5
   7   7  10-269.160 355.089   4
   7   7  11 136.962 234.715   5
   7   7  11 227.871 288.331   4
   7   7  12-382.391 313.895   5
   7   7  12-325.833 340.853   4
   7   7  13 235.227 317.665   5
   7   7  13 71.6039 297.237   4
   7   7  14 890.352 582.275   4
   7   7  15 493.801 600.483   4
  -7  -8  22-526.462 501.249   7
  -7  -8  21 288.275 396.593   7
  -7  -8  20 6.14688 359.544   7
  -7  -8  19 195.932 308.848   7
  -7  -8  18 245.373 256.157   7
  -7  -8  17-315.216 351.637   7
   7   8 -16 313.811 306.211   3
  -7  -8  16 32.5426 170.002   7
   7   8 -15 491.299 306.459   3
  -7  -8  15-10.6651 222.089   7
  -7  -8  14 634.019 502.473   7
   7   8 -14 94.1099 123.030   3
   7   8 -13-296.073 247.390   3
  -7  -8  13 65.6996 245.580   7
   7   8 -12 1367.14 475.881   3
  -7  -8  12 1416.07 587.932   7
   7   8 -11 2053.40 631.306   3
  -7  -8  11 1587.45 727.367   7
   7   8 -10 5723.86 1076.85   3
  -7  -8  10 7796.53 1459.08   7
  -7  -8   9 16432.7 2100.65   7
   7   8  -9 17132.0 1843.86   3
   7   8  -8 3848.77 883.725   3
  -7  -8   8 3781.94 974.649   7
   7   8  -8 3091.30 688.172   4
   7   8  -7 1021.56 392.026   3
  -7  -8   7 551.007 380.305   7
   7   8  -7 500.162 224.629   4
   7   8  -6 385.507 269.317   3
   7   8  -6 698.800 484.775   5
   7   8  -6 47.8306 158.739   4
   7   8  -5 5795.52 1207.45   5
   7   8  -5 4987.18 925.634   4
   7   8  -5 4025.02 908.472   3
   7   8  -4 10001.2 1569.99   5
   7   8  -4 10959.5 1449.04   4
   7   8  -3 7632.85 1374.46   5
   7   8  -3 7699.90 1227.54   4
   7   8  -2 1454.98 610.186   5
   7   8  -2 554.098 346.637   4
   7   8  -1 326.080 267.685   5
   7   8  -1 269.406 247.558   4
   7   8   0 90.4587 167.364   5
   7   8   0 708.054 305.550   4
   7   8   1 496.857 386.569   5
   7   8   1 2001.89 703.870   4
   7   8   2 1359.72 621.638   5
   7   8   2 1318.37 537.064   4
   7   8   3 179.271 210.164   5
   7   8   3 365.000 192.550   4
   7   8   4 264.925 208.508   5
   7   8   4 432.980 348.488   4
   7   8   4 343.965 161.305   7
   7   8   5-131.680 317.472   5
   7   8   5 358.981 228.730   4
   7   8   5-58.4227 171.412   7
   7   8   6-72.7090 310.570   5
   7   8   6 312.525 246.282   7
   7   8   6-178.390 288.240   4
   7   8   7 708.634 380.700   5
   7   8   7 247.307 104.945   7
   7   8   7 1013.41 624.560   4
   7   8   8 827.598 543.467   5
   7   8   8 445.131 341.748   7
   7   8   8-223.440 305.199   4
   7   8   9-179.628 190.656   5
   7   8   9 14.0242 83.3233   7
   7   8   9-17.2302 189.174   4
   7   8  10 2.54815 252.772   5
   7   8  10 583.872 450.561   4
   7   8  11 171.561 217.330   5
   7   8  11 55.5059 267.759   4
   7   8  12 7.14951 199.160   4
   7   8  13 711.901 525.447   4
   7   8  14 833.060 610.366   4
  -7  -9  21-421.060 447.531   7
  -7  -9  20-236.189 402.248   7
  -7  -9  19 878.339 682.931   7
  -7  -9  18 328.434 208.490   7
  -7  -9  17 1080.72 640.136   7
   7   9 -16-159.179 156.650   3
  -7  -9  16-171.617 482.015   7
   7   9 -15 26.3595 113.746   3
  -7  -9  15-100.185 402.038   7
   7   9 -14 164.937 248.093   3
  -7  -9  14 209.152 283.808   7
   7   9 -13 407.944 304.905   3
  -7  -9  13 245.115 374.652   7
   7   9 -12-522.016 343.739   3
  -7  -9  12-118.258 103.873   7
   7   9 -11 510.970 334.219   3
  -7  -9  11-156.845 262.058   7
   7   9 -10 70.0616 235.160   3
  -7  -9  10 683.978 487.679   7
   7   9  -9 4460.04 1039.16   3
  -7  -9   9 4901.33 1182.26   7
   7   9  -9 4190.29 807.847   4
   7   9  -8 1892.47 687.063   3
   7   9  -8 1664.81 506.846   4
   7   9  -7 760.160 389.074   3
   7   9  -7 105.911 146.727   4
   7   9  -6 978.396 560.526   3
   7   9  -6 735.492 416.659   5
   7   9  -6 916.492 436.928   4
   7   9  -5 15827.0 2037.67   5
   7   9  -5 14782.1 1720.71   4
   7   9  -5 16448.1 1964.21   3
   7   9  -4 8044.66 1473.38   5
   7   9  -4 7441.86 1241.20   4
   7   9  -3 4869.36 1123.87   5
   7   9  -3 3152.01 790.315   4
   7   9  -2 1783.75 662.275   5
   7   9  -2 2045.36 671.161   4
   7   9  -1 1041.10 493.890   5
   7   9  -1 1711.95 667.745   4
   7   9   0 3566.25 977.808   5
   7   9   0 4870.86 1062.37   4
   7   9   1 279.955 265.897   5
   7   9   1 453.861 423.695   4
   7   9   2 1272.96 556.832   5
   7   9   2 1578.15 655.810   4
   7   9   3 2211.27 771.106   5
   7   9   3 2565.53 840.120   4
   7   9   4 1303.23 574.925   5
   7   9   4 1234.23 629.504   4
   7   9   4 482.021 280.524   7
   7   9   5 221.391 352.929   5
   7   9   5 465.779 382.332   4
   7   9   5 587.162 430.426   7
   7   9   6 1145.16 576.168   5
   7   9   6 1598.74 634.462   7
   7   9   6 864.011 510.867   4
   7   9   7 587.952 594.835   5
   7   9   7 1.79664 227.513   7
   7   9   7 966.908 543.537   4
   7   9   8-50.0426 134.676   7
   7   9   8 87.5157 342.886   4
   7   9   8-251.389 128.230   5
   7   9   9-373.852 322.321   5
   7   9   9 226.503 213.280   4
   7   9  10-71.9370 156.788   5
   7   9  10 394.910 514.364   4
   7   9  11 364.381 344.130   4
   7   9  12-34.2378 218.748   4
  -7 -10  20 1334.54 812.409   7
  -7 -10  19 424.871 381.337   7
  -7 -10  18 171.132 255.735   7
  -7 -10  17 478.378 507.474   7
   7  10 -16 170.115 153.608   3
  -7 -10  16 50.9567 449.694   7
   7  10 -15-346.516 303.624   3
  -7 -10  15 31.7743 261.644   7
   7  10 -14 850.053 485.826   3
  -7 -10  14 1641.43 778.566   7
   7  10 -13 814.468 486.612   3
  -7 -10  13 349.441 343.713   7
   7  10 -12 241.872 294.497   3
  -7 -10  12 768.154 599.611   7
   7  10 -11 263.146 209.881   3
  -7 -10  11 569.599 543.743   7
   7  10 -10 559.683 436.995   3
  -7 -10  10-374.763 397.106   7
   7  10  -9 829.864 435.708   3
   7  10  -9 422.908 319.105   4
   7  10  -8 2883.89 831.162   3
   7  10  -8 3293.56 762.801   4
   7  10  -7 167.724 175.558   3
   7  10  -7 97.2671 155.059   4
   7  10  -6 3099.68 848.949   3
   7  10  -6 2608.90 831.690   5
   7  10  -6 2278.12 672.263   4
   7  10  -5 316.695 345.405   3
   7  10  -5 408.838 152.413   5
   7  10  -5 318.534 186.410   4
   7  10  -4 2674.22 880.107   5
   7  10  -4 2249.89 667.307   4
   7  10  -3 80.7767 193.234   5
   7  10  -3 233.914 337.611   4
   7  10  -2 453.315 422.621   5
   7  10  -2 120.986 138.174   4
   7  10  -1 88.1562 187.235   5
   7  10  -1 229.493 289.216   4
   7  10   0 242.081 229.082   5
   7  10   0 258.324 305.157   4
   7  10   1 579.051 402.849   5
   7  10   1 473.960 386.589   4
   7  10   2 778.725 444.079   5
   7  10   2 1723.89 737.715   4
   7  10   3 748.011 491.070   5
   7  10   3 1745.38 776.279   4
   7  10   3 717.288 492.361   7
   7  10   4 1514.39 650.880   5
   7  10   4 1700.80 774.285   4
   7  10   4 686.928 452.877   7
   7  10   5-643.662 431.225   5
   7  10   5-334.167 299.401   7
   7  10   5 202.784 369.343   4
   7  10   6 396.567 294.311   5
   7  10   6 387.763 381.857   7
   7  10   6 898.988 619.820   4
   7  10   7 225.789 149.046   5
   7  10   7 327.107 236.941   7
   7  10   7 429.218 416.976   4
   7  10   8 484.006 389.247   5
   7  10   8-140.583 326.829   7
   7  10   8 10.3101 139.408   4
   7  10   9 209.229 148.047   5
   7  10   9 135.595 258.106   4
   7  10  10-410.989 403.807   4
   7  10  11-136.361 248.204   4
  -7 -11  19 448.805 458.027   7
  -7 -11  18 887.112 847.594   7
   7  11 -17 991.885 547.782   3
  -7 -11  17 2030.07 907.864   7
   7  11 -16 124.499 260.712   3
  -7 -11  16 166.482 288.112   7
   7  11 -15 1665.84 691.255   3
  -7 -11  15 1491.06 717.693   7
   7  11 -14 811.107 533.236   3
  -7 -11  14 315.201 415.375   7
   7  11 -13 397.248 443.944   3
  -7 -11  13 41.2920 324.146   7
   7  11 -12 185.871 303.391   3
  -7 -11  12-26.1137 220.373   7
   7  11 -11 1438.24 700.867   3
   7  11 -10 1113.26 571.577   3
   7  11  -9 732.143 869.752   3
   7  11  -8 1402.04 645.956   3
   7  11  -8 312.922 156.943   4
   7  11  -7 873.914 389.794   3
   7  11  -7 444.654 353.742   4
   7  11  -6 48.6729 198.390   3
   7  11  -6 1065.02 610.006   5
   7  11  -6 566.542 351.114   4
   7  11  -5-229.228 154.483   5
   7  11  -5-136.704 166.133   4
   7  11  -4 1924.69 817.869   5
   7  11  -4 2545.10 754.223   4
   7  11  -3 20.5194 177.364   5
   7  11  -3 703.016 476.022   4
   7  11  -2 1201.47 609.644   5
   7  11  -2 698.601 394.357   4
   7  11  -1-293.600 307.454   5
   7  11  -1 331.796 356.503   4
   7  11   0-93.8777 265.431   5
   7  11   0 610.946 572.749   4
   7  11   1 2066.14 782.288   5
   7  11   1 1574.21 709.713   4
   7  11   2 2343.27 820.330   5
   7  11   2 1570.50 689.437   4
   7  11   3-34.3740 125.687   5
   7  11   3-85.7018 150.441   7
   7  11   4 7.31706 97.7343   5
   7  11   4 305.416 323.333   7
   7  11   4 201.103 334.561   4
   7  11   5-57.8276 145.519   5
   7  11   5 235.470 403.236   7
   7  11   5-10.6541 306.103   4
   7  11   6-123.871 203.641   5
   7  11   6 435.058 419.856   7
   7  11   6 566.079 319.469   4
   7  11   7-356.005 327.719   5
   7  11   7-49.5324 140.414   7
   7  11   7 178.199 336.307   4
   7  11   8-97.6264 187.779   7
   7  11   8 1029.92 737.631   4
   7  11   9 726.655 748.393   4
  -7 -12  18 1010.37 679.022   7
   7  12 -17 91.9845 195.032   3
  -7 -12  17 130.770 203.257   7
   7  12 -16 549.247 423.010   3
  -7 -12  16 925.438 694.306   7
   7  12 -15 2129.59 890.597   3
  -7 -12  15 2534.24 1038.58   7
   7  12 -14 555.758 310.256   3
   7  12 -13-76.4646 246.786   3
   7  12 -12 306.538 369.498   3
   7  12 -11 198.546 305.702   3
   7  12 -10 385.627 336.871   3
   7  12  -9 182.173 170.887   3
   7  12  -8 819.503 479.131   3
   7  12  -8 2057.19 651.503   4
   7  12  -7 80.5977 141.015   3
   7  12  -7 125.852 135.351   4
   7  12  -6 676.671 571.137   3
   7  12  -6 1007.20 562.135   5
   7  12  -6 248.784 124.104   4
   7  12  -5 2793.31 926.817   5
   7  12  -5 3508.84 925.209   4
   7  12  -5 3527.06 1067.69   3
   7  12  -4 335.942 277.334   5
   7  12  -4 645.529 416.192   4
   7  12  -3 211.303 271.719   5
   7  12  -3 68.6967 154.354   4
   7  12  -2-7.01156 148.384   5
   7  12  -2 288.155 291.799   4
   7  12  -1 22.5037 179.589   5
   7  12  -1-170.088 323.630   4
   7  12   0 277.027 300.076   5
   7  12   0 409.982 383.269   4
   7  12   1-64.1042 170.005   5
   7  12   1 629.713 553.322   4
   7  12   2-662.524 459.828   5
   7  12   2 366.476 390.452   4
   7  12   3 140.591 375.681   5
   7  12   3-221.693 274.944   7
   7  12   3-146.917 335.283   4
   7  12   4-276.677 302.853   5
   7  12   4 92.4337 267.129   7
   7  12   4 638.990 457.717   4
   7  12   5-481.149 393.309   5
   7  12   5 248.466 347.317   7
   7  12   5 597.075 467.836   4
   7  12   6-301.183 314.093   5
   7  12   6 206.279 424.087   7
   7  12   6 519.534 464.801   4
   7  12   7 146.320 183.837   7
   7  12   7 4.77051 105.360   4
   7  12   8-56.9842 168.705   7
   7  13 -17 29.4597 147.928   3
  -7 -13  17-296.099 380.932   7
   7  13 -16-250.073 310.740   3
   7  13 -15-540.941 431.707   3
   7  13 -14 140.965 254.244   3
   7  13 -13 957.836 551.305   3
   7  13 -12-370.443 361.833   3
   7  13 -11 1682.80 798.714   3
   7  13 -10 549.830 394.315   3
   7  13  -9-38.0721 306.426   3
   7  13  -8 209.934 241.070   3
   7  13  -7 793.584 597.144   3
   7  13  -7 1112.87 644.198   5
   7  13  -7-393.604 313.468   4
   7  13  -6 901.573 553.676   3
   7  13  -6 685.836 551.704   5
   7  13  -6 503.238 431.697   4
   7  13  -5 146.308 241.096   5
   7  13  -5 686.226 485.275   4
   7  13  -5 173.585 284.172   3
   7  13  -4-57.9534 458.526   5
   7  13  -4 364.807 414.558   4
   7  13  -3 120.353 382.667   5
   7  13  -3 1410.32 667.890   4
   7  13  -2 2837.51 986.055   5
   7  13  -2 4690.66 1191.76   4
   7  13  -1 776.924 512.692   5
   7  13  -1 1312.90 590.930   4
   7  13   0 92.8214 193.137   5
   7  13   0 463.539 353.942   4
   7  13   1-678.762 477.295   5
   7  13   1 885.674 607.344   4
   7  13   2-293.505 318.745   5
   7  13   2 334.922 354.144   4
   7  13   3 86.3740 194.377   5
   7  13   3 580.878 452.651   7
   7  13   3 76.6339 170.491   4
   7  13   4-299.443 318.339   5
   7  13   4 48.3185 259.067   7
   7  13   5 25.8736 135.981   7
   7  13   5-583.842 477.366   4
   7  13   6 131.623 245.549   7
   7  13   6 595.922 506.720   4
   7  13   7-34.7010 151.192   7
   7  13   8 254.387 314.245   7
   7  14 -17-119.446 238.734   3
   7  14 -16 543.385 576.994   3
   7  14 -15 0.90450 163.294   3
   7  14 -14 126.624 240.351   3
   7  14 -13 860.131 639.274   3
   7  14 -12 718.874 532.776   3
   7  14 -11 349.719 371.306   3
   7  14 -10-120.494 233.673   3
   7  14  -9 112.637 126.277   3
   7  14  -8-496.452 434.568   3
   7  14  -7-346.542 372.422   3
   7  14  -7 565.882 609.120   5
   7  14  -6-97.0238 217.732   3
   7  14  -6-40.9832 238.675   5
   7  14  -6 192.718 263.413   4
   7  14  -5 144.652 128.586   5
   7  14  -5 395.812 349.567   4
   7  14  -5-12.8158 119.618   3
   7  14  -4 736.479 623.591   5
   7  14  -4 598.704 521.410   4
   7  14  -3 2684.29 1049.61   5
   7  14  -3 1801.95 774.703   4
   7  14  -2 873.430 612.141   5
   7  14  -2 552.531 438.870   4
   7  14  -1-747.052 516.228   5
   7  14  -1 230.911 288.865   4
   7  14   0 910.048 581.968   5
   7  14   0 691.994 569.934   4
   7  14   1-220.905 290.053   5
   7  14   1 45.0229 251.673   4
   7  14   1-182.209 275.623   7
   7  14   2 393.327 377.896   5
   7  14   2 625.552 628.328   7
   7  14   2 1192.33 825.926   4
   7  14   3 522.687 536.135   7
   7  14   3-1212.44 683.920   4
   7  14   4 698.485 636.098   7
   7  14   5-12.2532 122.315   7
   7  14   6-591.780 484.181   7
   7  15 -16 348.250 385.386   3
   7  15 -15 609.560 499.228   3
   7  15 -14-167.372 271.861   3
   7  15 -13-2.92302 123.444   3
   7  15 -12 443.548 427.605   3
   7  15 -11-4.83648 123.119   3
   7  15 -10 5.79976 218.733   3
   7  15  -9 501.474 549.731   3
   7  15  -8 1740.33 822.623   3
   7  15  -8 1766.74 842.077   5
   7  15  -7 320.554 312.435   3
   7  15  -7 664.450 610.761   5
   7  15  -6 164.589 249.342   5
   7  15  -6-450.377 438.245   3
   7  15  -5 506.372 447.189   5
   7  15  -5-405.684 359.132   4
   7  15  -4 1154.06 665.511   5
   7  15  -4 454.645 430.659   4
   7  15  -3 29.3393 140.586   5
   7  15  -3 656.904 475.126   4
   7  15  -2 595.033 478.606   5
   7  15  -2 557.064 611.549   4
   7  15  -1-662.401 499.221   5
   7  15  -1 936.199 672.334   4
   7  15   0 26.6886 182.821   5
   7  15   0 154.651 326.072   4
   7  15   1 267.975 359.965   5
   7  15   1 190.503 297.730   7
   7  15   1 68.6649 194.623   4
   7  15   2-716.403 538.104   7
   7  15   3-56.8902 185.529   7
   7  16  -8 1459.64 789.165   5
   7  16  -7 167.778 377.683   5
   7  16  -6 239.570 327.016   5
   7  16  -5 557.276 606.072   5
   7  16  -4 176.591 395.873   5
   7  16  -4 1285.35 701.843   4
   7  16  -3 426.523 420.306   5
   7  16  -3 486.783 523.904   4
   7  16  -2 437.623 421.915   5
   7  16  -2 482.451 458.873   4
   7  16  -1-174.719 274.863   5
   7  16  -1 550.657 417.767   4
  -8  16   2 6.67344 100.703   7
  -8  16   1 694.843 543.866   7
  -8  16   0-566.036 452.996   7
  -8  16  -1-55.1797 162.841   7
  -8  16  -2-647.872 479.147   3
  -8  16  -3 142.737 237.702   3
  -8  16  -4 107.370 291.758   3
  -8  16  -5-427.745 401.053   3
  -8  16  -6 647.584 645.615   3
  -8  15   5-627.971 501.463   7
  -8  15   4-249.962 313.678   7
  -8  15   3-133.887 144.860   7
  -8  15   2 709.018 578.595   1
  -8  15   2-303.067 334.473   7
  -8  15   1 120.982 216.704   7
  -8  15   1 126.623 309.614   1
  -8  15   0 280.064 411.334   1
  -8  15   0 518.654 440.018   7
  -8  15  -1-67.7271 159.283   1
  -8  15  -1 0.77496 237.666   3
  -8  15  -1 383.007 386.613   7
  -8  15  -2 168.321 232.933   3
  -8  15  -2 104.276 235.740   1
  -8  15  -2 686.422 464.989   7
  -8  15  -3 305.947 106.157   3
  -8  15  -4 162.567 244.101   3
  -8  15  -5 113.330 342.818   3
  -8  15  -6 271.155 321.320   3
  -8  15  -7 45.7229 151.495   3
  -8  15  -8 162.086 236.898   3
  -8  15  -9 309.748 386.121   3
  -8  14   7-31.3906 159.451   7
  -8  14   6 84.9260 193.216   7
  -8  14   5-269.057 319.905   7
  -8  14   4 14.8280 100.511   1
  -8  14   4 40.0311 118.047   7
  -8  14   3-227.187 266.455   1
  -8  14   3-20.9589 121.472   7
  -8  14   2-100.032 190.433   7
  -8  14   2 124.317 142.527   1
  -8  14   1 848.348 583.169   1
  -8  14   1 572.808 551.217   7
  -8  14   0 175.301 304.496   3
  -8  14   0 309.584 278.709   1
  -8  14   0-0.74773 161.572   7
  -8  14  -1-458.393 374.922   1
  -8  14  -1 341.785 322.079   3
  -8  14  -1-222.515 260.351   7
  -8  14  -2-230.979 253.740   3
  -8  14  -2 379.606 327.918   1
  -8  14  -2 38.2046 211.095   7
  -8  14  -3 220.306 337.376   1
  -8  14  -3 484.106 392.631   3
  -8  14  -4 231.615 173.543   3
  -8  14  -5 176.682 141.227   3
  -8  14  -6-415.756 375.216   3
  -8  14  -7-7.51086 99.8615   3
  -8  14  -8 274.134 328.126   3
  -8  14  -9 260.291 227.478   3
  -8  14 -10-152.476 259.046   3
  -8  14 -11-699.847 521.885   3
  -8  13   9-275.680 340.342   7
  -8  13   8-240.745 318.946   7
  -8  13   7 222.434 352.550   7
  -8  13   6 207.249 284.644   1
  -8  13   6 1076.01 633.802   7
  -8  13   5 102.773 190.750   1
  -8  13   5 543.207 433.979   7
  -8  13   4 12.2415 98.8262   1
  -8  13   4-44.1252 335.134   7
  -8  13   3 396.401 405.581   1
  -8  13   3 1115.57 593.443   7
  -8  13   2 1883.18 766.913   1
  -8  13   2 1807.38 707.751   7
  -8  13   1 1187.72 563.674   3
  -8  13   1 283.681 287.298   7
  -8  13   1 706.215 482.987   1
  -8  13   0-535.275 397.019   1
  -8  13   0-380.544 317.877   3
  -8  13   0-553.943 392.781   7
  -8  13  -1-158.063 229.116   1
  -8  13  -1 400.161 362.759   3
  -8  13  -1 538.489 416.338   7
  -8  13  -2 140.167 141.380   7
  -8  13  -2 82.4697 105.138   1
  -8  13  -3 46.7003 143.310   1
  -8  13  -3 58.6538 150.581   3
  -8  13  -3 166.912 180.687   7
  -8  13  -4 177.938 180.830   3
  -8  13  -4 165.248 333.362   1
  -8  13  -5 281.948 225.200   3
  -8  13  -6 389.617 351.486   3
  -8  13  -7 640.594 478.199   3
  -8  13  -8 189.060 269.056   3
  -8  13  -9 226.985 290.852   3
  -8  13 -10 481.312 427.866   3
  -8  13 -11-713.223 513.700   3
  -8  13 -12 264.008 591.747   3
  -8  12  11-238.493 323.499   7
  -8  12  10 372.667 423.869   7
  -8  12   9 466.551 446.155   7
  -8  12   8 550.623 458.529   7
  -8  12   7-5.90628 182.557   7
  -8  12   6-8.06890 99.7410   7
  -8  12   6 22.8176 260.251   1
  -8  12   5 890.995 450.665   7
  -8  12   5 430.561 423.532   1
  -8  12   4 556.618 400.115   7
  -8  12   4 1203.49 657.788   1
  -8  12   3 169.257 282.059   1
  -8  12   3 217.501 209.276   7
  -8  12   2-47.6225 144.490   1
  -8  12   2 278.500 225.210   7
  -8  12   2 76.6373 169.612   3
  -8  12   1 221.142 223.166   1
  -8  12   1-101.900 87.1593   7
  -8  12   0 509.741 382.411   3
  -8  12   0 124.904 213.216   1
  -8  12   0 43.1494 178.788   7
  -8  12  -1-41.8230 126.763   3
  -8  12  -1 97.9139 162.829   7
  -8  12  -1 333.388 335.376   1
  -8  12  -2 833.382 472.369   1
  -8  12  -2 522.258 341.020   3
  -8  12  -2 422.649 310.243   7
  -8  12  -3 746.323 394.912   3
  -8  12  -3 1421.38 647.230   1
  -8  12  -3 622.638 407.356   7
  -8  12  -4 169.151 120.484   1
  -8  12  -4 79.2149 280.961   3
  -8  12  -5 404.549 326.033   3
  -8  12  -5 456.248 373.326   1
  -8  12  -6 421.876 415.173   3
  -8  12  -7 669.379 415.993   3
  -8  12  -8 322.869 289.000   3
  -8  12  -9 1248.92 626.051   3
  -8  12 -10 979.377 587.238   3
  -8  12 -11 49.8072 255.458   3
  -8  12 -12-16.6914 130.137   3
  -8  12 -13 384.769 337.910   3
  -8  12 -14-81.7193 293.362   3
  -8  11  13-651.174 537.198   7
  -8  11  12-206.555 301.043   7
  -8  11  11-436.229 421.263   7
  -8  11  10-52.6713 180.211   7
  -8  11   9-343.967 356.197   7
  -8  11   8-0.82234 221.655   7
  -8  11   7 215.878 219.508   7
  -8  11   6 538.853 425.497   7
   8 -11  -5-100.001 202.784   2
  -8  11   5-119.192 273.053   7
  -8  11   4 308.005 310.971   7
  -8  11   4 310.788 288.012   1
   8 -11  -4 949.794 498.529   2
  -8  11   3 1277.77 515.434   3
  -8  11   3 2235.88 788.490   7
  -8  11   3 1620.79 709.607   1
   8 -11  -3 1933.51 700.230   2
  -8  11   2 2596.93 817.133   1
   8 -11  -2 738.569 407.136   2
  -8  11   2 1170.46 484.871   3
  -8  11   2 1056.86 538.815   7
  -8  11   1 222.180 257.433   1
   8 -11  -1-244.747 240.831   2
  -8  11   1-106.944 163.364   3
  -8  11   1-50.9294 126.919   7
   8 -11   0 81.5605 145.009   2
  -8  11   0-302.139 295.254   1
  -8  11   0-244.741 253.542   3
  -8  11   0-6.12738 271.569   7
  -8  11  -1 202.446 83.6245   3
  -8  11  -1 461.557 416.564   1
  -8  11  -1 167.075 293.172   7
  -8  11  -2-348.135 288.438   3
  -8  11  -2-53.4438 197.423   1
  -8  11  -3 91.2639 143.554   1
  -8  11  -3-105.005 169.224   3
  -8  11  -3 38.6414 119.929   7
  -8  11  -4-62.7749 98.9054   3
  -8  11  -4 402.728 261.676   1
  -8  11  -4 110.447 198.453   7
  -8  11  -5 132.582 164.241   1
  -8  11  -5-236.935 191.726   3
  -8  11  -6 2727.55 856.312   1
  -8  11  -6 1272.26 629.309   3
  -8  11  -7 124.593 128.743   3
  -8  11  -8-73.1412 124.397   3
  -8  11  -9-501.193 396.985   3
  -8  11 -10 308.438 474.822   3
  -8  11 -11 947.027 582.058   3
  -8  11 -12 114.624 268.987   3
  -8  11 -13 1699.47 775.560   3
  -8  11 -14 396.376 577.886   3
  -8  11 -15 874.393 629.358   3
  -8  10  14 384.661 413.204   7
  -8  10  13 63.0378 465.226   7
  -8  10  12 789.453 475.242   7
  -8  10  11-48.3655 168.411   7
  -8  10  10-687.456 490.481   7
  -8  10   9-67.7149 174.056   7
  -8  10   8-363.942 346.988   7
  -8  10   7 46.4325 169.049   7
  -8  10   6 455.293 411.262   7
   8 -10  -5-54.8866 193.469   2
  -8  10   5-95.7612 176.912   7
   8 -10  -4-33.3977 117.565   2
  -8  10   4 18.5769 105.264   7
  -8  10   3 4346.31 874.987   3
  -8  10   3 3215.80 918.182   1
  -8  10   3 3739.37 964.215   7
   8 -10  -3 3603.98 924.079   2
  -8  10   2 448.883 308.808   3
  -8  10   2 959.138 506.278   7
  -8  10   2 602.020 486.644   1
   8 -10  -2 43.3048 152.532   2
  -8  10   1 2035.39 742.131   1
   8 -10  -1 1543.36 593.778   2
  -8  10   1 2443.33 676.529   3
  -8  10   1 1898.15 627.910   7
  -8  10   0-69.0099 260.903   1
   8 -10   0 14.2296 233.464   2
  -8  10   0 148.917 162.433   3
  -8  10   0-271.574 241.015   7
  -8  10  -1 611.087 162.153   3
  -8  10  -1 608.828 341.483   7
  -8  10  -2 267.848 297.101   1
  -8  10  -2-225.151 226.389   3
  -8  10  -2-37.3239 117.995   7
  -8  10  -3 269.404 209.798   7
  -8  10  -3 199.655 167.695   3
  -8  10  -3 607.246 315.897   1
  -8  10  -4 76.4184 171.115   1
  -8  10  -4-23.0683 84.1782   7
  -8  10  -4 103.956 265.211   3
  -8  10  -5 349.685 321.962   1
  -8  10  -5 60.5050 310.101   3
  -8  10  -6-415.680 337.277   1
  -8  10  -6 357.953 273.658   3
  -8  10  -7 214.845 313.525   1
  -8  10  -7 14.1315 156.190   3
  -8  10  -8 319.374 381.890   3
  -8  10  -9 912.694 518.966   3
  -8  10 -10 790.243 555.536   3
  -8  10 -11 11.4716 284.948   3
  -8  10 -12 1205.00 627.253   3
  -8  10 -13 305.049 302.075   3
  -8  10 -14 815.159 516.132   3
  -8  10 -15 437.837 458.949   3
  -8  10 -16 190.163 391.906   3
  -8   9  15 556.729 599.291   7
  -8   9  14-170.685 279.834   7
  -8   9  13-251.404 242.679   7
  -8   9  12 280.693 372.515   7
  -8   9  11 286.190 402.303   7
  -8   9  10 152.716 144.252   7
  -8   9   9 98.5361 335.048   7
  -8   9   8 75.3739 294.282   7
  -8   9   7 145.128 208.307   7
  -8   9   6 987.337 453.520   7
   8  -9  -5-101.824 269.188   2
  -8   9   5 49.1359 244.653   7
  -8   9   4 347.140 287.098   3
   8  -9  -4 458.799 344.323   2
  -8   9   4 715.051 447.102   7
  -8   9   3 69.9746 66.8498   3
  -8   9   3 525.480 393.458   7
   8  -9  -3 426.784 344.765   2
  -8   9   2-182.436 254.209   3
  -8   9   2 90.1044 146.468   7
   8  -9  -2 52.0778 105.416   2
   8  -9  -1 916.084 458.951   2
  -8   9   1 1202.14 473.227   3
  -8   9   1 1967.54 610.185   7
  -8   9   1 1095.83 536.334   1
   8  -9   0 2489.65 736.928   2
  -8   9   0 3495.10 787.735   3
  -8   9   0 2052.15 603.627   7
  -8   9   0 3713.91 971.429   1
  -8   9  -1 278.166 201.139   1
   8  -9   1 544.791 399.237   2
  -8   9  -1-128.894 231.564   7
  -8   9  -1 43.4403 204.126   3
  -8   9  -2 365.696 338.396   1
  -8   9  -2 77.8983 136.766   7
  -8   9  -2 840.258 390.503   3
  -8   9  -3 2371.02 789.007   1
  -8   9  -3 2701.33 654.541   7
  -8   9  -3 3380.02 813.668   3
  -8   9  -4 1462.84 591.422   1
  -8   9  -4 727.261 300.779   7
  -8   9  -4 722.548 433.723   3
  -8   9  -5-3.05994 173.461   1
  -8   9  -5 66.7441 165.144   3
  -8   9  -6 225.879 208.953   3
  -8   9  -6 238.408 339.482   1
  -8   9  -7-269.326 270.864   3
  -8   9  -7 72.5249 240.781   1
  -8   9  -8 48.1418 132.968   3
  -8   9  -9-23.2321 300.730   3
  -8   9 -10 617.572 371.208   3
  -8   9 -11 152.279 294.976   3
  -8   9 -12 817.993 553.170   3
  -8   9 -13-257.235 352.097   3
  -8   9 -14 209.044 395.239   3
  -8   9 -15 327.234 237.616   3
  -8   9 -16-159.247 263.306   3
  -8   8  17 263.586 356.039   7
  -8   8  16-743.544 570.112   7
  -8   8  15 243.957 389.819   7
  -8   8  14 76.8694 203.816   7
  -8   8  13-23.0893 120.572   7
  -8   8  12 941.730 597.684   7
  -8   8  11 791.825 544.265   7
  -8   8  10-374.857 347.247   7
  -8   8   9 252.493 307.306   7
  -8   8   8 46.3013 216.930   7
  -8   8   7-404.753 327.156   7
  -8   8   6-68.6721 336.936   7
  -8   8   5 93.1815 84.9318   3
  -8   8   5 682.871 441.444   7
  -8   8   4 225.641 172.703   3
   8  -8  -4-49.1154 175.685   2
  -8   8   4-261.652 240.484   7
   8  -8  -3-9.18475 218.587   2
  -8   8   3 275.140 189.098   3
  -8   8   3 617.538 378.503   7
  -8   8   2 209.556 134.864   3
  -8   8   2-25.4069 146.234   7
   8  -8  -1 8865.15 1404.73   2
  -8   8   1 8225.95 1113.17   3
  -8   8   1 9649.11 1315.27   7
  -8   8   0 10454.9 1302.33   3
  -8   8   0 9757.17 1257.99   7
   8  -8   0 13087.4 1694.33   2
  -8   8   0 11813.3 1681.75   1
  -8   8  -1 2186.01 741.306   1
   8  -8   1 1369.80 540.802   2
  -8   8  -1 1525.60 481.033   7
  -8   8  -1 1762.90 591.080   3
  -8   8  -2 2440.27 750.290   1
  -8   8  -2 2986.23 642.482   7
  -8   8  -2 3566.38 811.013   3
  -8   8  -3 5934.25 1097.31   3
  -8   8  -3 6451.51 1230.40   1
  -8   8  -3 5748.46 864.356   7
  -8   8  -4 5638.69 1095.28   3
  -8   8  -4 4130.51 715.607   7
  -8   8  -4 5006.84 1110.87   1
  -8   8  -5 2619.37 760.610   3
  -8   8  -5 5208.25 1120.64   1
  -8   8  -6 6597.87 1251.68   3
  -8   8  -6 5294.49 1121.70   1
  -8   8  -7 615.083 450.966   1
  -8   8  -7 774.446 438.266   3
  -8   8  -8 583.265 449.368   3
  -8   8  -9 1136.19 533.239   3
  -8   8  -9 672.074 368.830   6
  -8   8 -10 266.492 281.048   3
  -8   8 -10-110.224 154.221   6
  -8   8 -11-117.573 205.665   3
  -8   8 -11-92.1149 266.637   6
  -8   8 -12 1758.61 719.999   3
  -8   8 -12 755.205 453.638   6
  -8   8 -13 174.353 384.804   3
  -8   8 -13 164.176 233.941   6
  -8   8 -14 1960.66 880.857   3
  -8   8 -14 1522.65 619.313   6
  -8   8 -15 539.567 463.504   3
  -8   8 -15 44.7230 138.931   6
  -8   8 -16 146.693 422.650   3
  -8   8 -16 971.700 573.584   6
  -8   8 -17 588.518 538.126   3
  -8   8 -17 720.759 517.403   6
  -8   8 -18 562.554 596.378   6
  -8   7  18-119.706 261.307   7
  -8   7  17 938.387 563.348   7
  -8   7  16 509.504 462.164   7
  -8   7  15 1355.97 750.215   7
  -8   7  14 582.044 531.250   7
  -8   7  13 844.234 519.222   7
  -8   7  12-160.205 379.085   7
  -8   7  11 558.230 456.354   7
  -8   7  10 405.196 381.842   7
  -8   7   9 315.461 282.454   7
  -8   7   8 1204.46 570.005   7
  -8   7   7 261.944 284.098   7
  -8   7   6 679.730 306.782   7
  -8   7   5 6603.96 1176.34   7
  -8   7   5 5659.05 759.886   3
  -8   7   4 185.932 120.192   3
   8  -7  -4-144.507 131.025   2
  -8   7   4 329.686 228.364   7
  -8   7   3 208.492 208.178   3
   8  -7  -3 100.813 230.756   2
  -8   7   3 43.1546 86.3594   7
  -8   7   2 15.8985 84.9228   7
  -8   7   2-64.4348 135.595   3
   8  -7  -2-23.7153 214.304   2
  -8   7   1 53.6015 121.064   7
  -8   7   1 575.475 322.314   3
   8  -7  -1 440.009 349.837   2
   8  -7   0 1871.80 668.737   2
  -8   7   0 1475.27 456.994   7
  -8   7   0 1715.56 503.522   3
  -8   7  -1 3596.03 760.568   3
   8  -7   1 2669.45 766.305   2
  -8   7  -1 3412.24 659.391   7
  -8   7  -1 2937.29 784.221   1
  -8   7  -2 1870.21 576.951   3
  -8   7  -2 1187.08 496.061   1
  -8   7  -2 1258.11 373.967   7
  -8   7  -3 2277.18 680.396   3
  -8   7  -3 1343.55 562.690   1
  -8   7  -3 1274.85 378.332   7
  -8   7  -4 9864.32 1378.79   3
  -8   7  -4 10070.4 996.069   7
  -8   7  -4 9385.74 1460.88   1
  -8   7  -4 9541.35 977.016   6
  -8   7  -5-251.440 289.852   1
  -8   7  -5 345.374 382.235   3
  -8   7  -6-311.510 287.339   3
  -8   7  -6-290.601 361.092   1
  -8   7  -6-14.8094 70.3949   6
  -8   7  -7-41.6731 88.4693   3
  -8   7  -7 80.2852 225.914   1
  -8   7  -7 180.491 166.622   6
  -8   7  -8-197.363 228.670   3
  -8   7  -8-84.8836 325.755   1
  -8   7  -8-138.687 213.157   6
  -8   7  -9-44.5965 165.235   3
  -8   7  -9-115.999 215.081   6
  -8   7 -10-86.8926 312.137   3
  -8   7 -10-92.3831 177.477   6
  -8   7 -11 1030.55 591.065   3
  -8   7 -11 43.8173 161.912   6
  -8   7 -12-146.429 222.040   3
  -8   7 -12 161.715 203.513   6
  -8   7 -13-73.6057 138.644   3
  -8   7 -13 12.5738 147.884   6
  -8   7 -14 66.3024 406.768   3
  -8   7 -14-246.799 257.979   6
  -8   7 -15 1493.91 653.009   3
  -8   7 -15 701.997 489.102   6
  -8   7 -16 1755.27 698.569   3
  -8   7 -16 1038.41 540.156   6
  -8   7 -17-769.119 538.854   3
  -8   7 -17-1060.90 567.523   6
  -8   7 -18 36.3033 391.365   3
  -8   7 -18 246.631 376.119   6
  -8   7 -19-252.444 301.561   6
  -8   6  18-563.527 497.977   7
  -8   6  17 42.2040 126.817   7
  -8   6  16 297.385 393.170   7
  -8   6  15 209.833 404.220   7
  -8   6  14 28.7918 131.527   7
  -8   6  13 220.452 313.619   7
  -8   6  12 924.512 504.920   7
  -8   6  11 3278.47 973.443   7
  -8   6  10 259.886 212.477   7
  -8   6   9 1036.02 503.932   7
  -8   6   8 1336.06 562.486   7
  -8   6   7-116.403 246.513   7
  -8   6   6 384.211 157.090   3
  -8   6   6 499.256 226.199   7
  -8   6   5 6486.07 1112.48   7
  -8   6   5 6529.68 756.176   3
  -8   6   4 2457.01 485.526   3
  -8   6   4 1870.87 597.132   7
   8  -6  -3 819.348 247.634   2
  -8   6   3 1098.62 365.336   7
  -8   6   3 1668.47 424.758   3
  -8   6   2 3273.57 707.477   7
   8  -6  -2 2510.21 726.544   2
  -8   6   2 2474.47 556.622   3
  -8   6   1 22434.8 1694.34   3
  -8   6   1 21756.6 1737.99   7
   8  -6  -1 22679.7 2226.98   2
  -8   6   0 12659.8 1321.48   3
  -8   6   0 10697.0 1161.65   7
   8  -6   0 10206.4 1492.52   2
  -8   6  -1 573.237 324.650   3
   8  -6   1 11.5476 283.670   2
  -8   6  -1 85.3876 191.224   1
  -8   6  -1 380.373 168.517   7
  -8   6  -1 186.973 114.363   6
  -8   6  -2 2520.05 643.235   3
  -8   6  -2 2351.84 491.947   7
  -8   6  -2 3238.70 860.918   1
  -8   6  -2 2513.28 432.114   6
  -8   6  -3 485.797 210.129   6
  -8   6  -3 501.321 390.670   1
  -8   6  -3 744.626 368.173   3
  -8   6  -3 719.893 246.568   7
  -8   6  -4 17390.5 1764.88   3
  -8   6  -4 16846.5 1106.62   7
  -8   6  -4 19034.3 2049.59   1
  -8   6  -4 18700.2 1375.85   6
  -8   6  -5 433.098 239.925   6
  -8   6  -5 1062.64 447.374   3
  -8   6  -5 840.177 482.153   1
  -8   6  -6 4326.75 772.867   6
  -8   6  -6 6594.00 1188.40   1
  -8   6  -6 4845.86 991.956   3
  -8   6  -7 222.663 231.623   6
  -8   6  -7 149.446 139.140   1
  -8   6  -7 413.031 426.025   3
  -8   6  -8 84.7030 122.296   6
  -8   6  -8 0.56536 297.592   3
  -8   6  -9 479.546 297.118   6
  -8   6  -9 631.323 411.075   3
  -8   6 -10-96.3839 194.455   6
  -8   6 -10-184.199 231.211   3
  -8   6 -11 62.7790 163.540   6
  -8   6 -11 7.32177 291.700   3
  -8   6 -12-109.764 105.925   6
  -8   6 -12-246.310 268.359   3
  -8   6 -13 218.800 276.587   6
  -8   6 -13-311.225 266.093   3
  -8   6 -14 1031.11 542.214   6
  -8   6 -14-112.841 490.653   3
  -8   6 -15 2658.20 937.385   3
  -8   6 -15 931.988 485.777   6
  -8   6 -16-799.517 537.714   3
  -8   6 -16 69.5394 165.001   6
  -8   6 -17-4.52407 128.863   3
  -8   6 -17-455.549 378.293   6
  -8   6 -18 1054.27 647.323   3
  -8   6 -18 907.471 596.845   6
  -8   6 -19 597.447 523.754   6
  -8   5  19 460.262 404.578   7
  -8   5  18 411.833 308.560   7
  -8   5  17 505.388 401.512   7
  -8   5  16 604.726 564.650   7
  -8   5  15 772.101 506.181   7
  -8   5  14 217.359 350.359   7
  -8   5  13-20.5055 227.317   7
  -8   5  12 748.205 520.091   7
  -8   5  11 1963.75 739.883   7
  -8   5  10 1918.87 732.098   7
  -8   5   9 2172.97 742.119   7
  -8   5   8 1262.24 476.984   7
   8  -5  -7 128.089 117.213   5
  -8   5   7 135.585 133.578   7
   8  -5  -6 789.069 267.197   5
  -8   5   6 812.718 223.645   3
  -8   5   6 1087.72 487.317   7
   8  -5  -5 215.901 144.408   5
  -8   5   5 429.849 172.218   3
  -8   5   5 641.659 348.273   7
   8  -5  -4 1706.25 439.355   5
  -8   5   4 1763.27 549.449   7
  -8   5   4 887.610 264.274   3
   8  -5  -3-28.8224 134.906   5
   8  -5  -3-47.4633 267.208   2
  -8   5   3-45.2796 159.491   7
  -8   5   3-80.7724 134.839   3
  -8   5   2 3762.02 637.900   3
   8  -5  -2 4037.54 705.414   5
  -8   5   2 2427.05 586.728   7
   8  -5  -2 2513.22 740.356   2
  -8   5   2 2598.95 249.823   6
  -8   5   1 7.10941 40.7903   6
  -8   5   1-143.606 153.003   3
   8  -5  -1 318.357 245.114   5
  -8   5   1 31.5949 127.420   7
   8  -5  -1 67.1939 165.800   2
   8  -5   0 2173.44 694.142   2
   8  -5   0 2834.83 637.330   5
  -8   5   0 1880.70 482.052   3
  -8   5   0 2361.25 519.705   7
  -8   5   0 2550.76 372.289   6
  -8   5  -1 1360.72 295.406   6
   8  -5   1 1389.28 438.597   5
   8  -5   1 545.779 396.606   2
  -8   5  -1 1484.51 453.883   3
  -8   5  -1 1144.43 318.449   7
  -8   5  -2 401.974 178.347   6
  -8   5  -2 900.555 362.360   3
  -8   5  -2 549.914 205.996   7
  -8   5  -2 79.1990 207.636   1
  -8   5  -3 2433.80 652.021   1
  -8   5  -3 2328.24 470.701   6
  -8   5  -3 2361.69 613.153   3
  -8   5  -3 2561.08 403.654   7
  -8   5  -4 65.1013 109.196   6
  -8   5  -4 218.085 214.153   1
  -8   5  -4-3.72331 21.6963   7
  -8   5  -5 1110.91 379.016   6
  -8   5  -5 575.415 260.661   1
  -8   5  -6 344.715 198.644   6
  -8   5  -6-31.0693 149.954   1
  -8   5  -7 1420.32 431.804   6
  -8   5  -7 1050.81 497.510   1
  -8   5  -8 197.028 87.8541   6
  -8   5  -8 291.941 329.634   1
  -8   5  -9 2825.78 686.773   6
  -8   5 -10 1264.72 482.165   6
  -8   5 -11-76.7684 106.022   6
  -8   5 -12 279.116 253.438   6
  -8   5 -13-88.9371 269.080   6
  -8   5 -14 898.406 472.047   6
  -8   5 -15 633.351 379.557   6
  -8   5 -16-323.290 308.832   6
  -8   5 -17 75.1617 328.807   6
  -8   5 -18 258.421 441.433   6
  -8   5 -19 152.159 333.403   6
  -8   4  20-88.4494 422.047   7
  -8   4  19-92.0563 226.195   7
  -8   4  18-0.97789 160.297   7
  -8   4  17-72.0142 357.258   7
  -8   4  16-65.3998 307.744   7
  -8   4  15 145.583 271.076   7
  -8   4  14 33.2975 115.864   7
  -8   4  13 2198.12 820.198   7
  -8   4  12 1737.40 716.562   7
  -8   4  11 4748.61 1136.24   7
  -8   4  10 2081.27 721.011   7
   8  -4  -9 6570.45 766.353   5
  -8   4   9 6749.00 1259.87   7
   8  -4  -8 5455.50 720.413   5
  -8   4   8 6569.37 1189.49   7
   8  -4  -7 466.040 243.589   5
  -8   4   7 1447.07 534.383   7
   8  -4  -6 611.657 242.095   5
  -8   4   6 214.834 99.7294   3
  -8   4   6 93.5244 218.545   7
  -8   4   5 3816.04 477.442   3
   8  -4  -5 3622.80 641.435   5
  -8   4   5 4275.97 855.514   7
  -8   4   4 30535.4 1518.07   3
   8  -4  -4 31266.2 1931.03   5
  -8   4   4 29430.2 2136.20   7
  -8   4   3 2984.79 515.261   3
   8  -4  -3 3295.39 633.536   5
   8  -4  -3 2896.19 816.385   2
  -8   4   3 2221.77 582.993   7
  -8   4   2 2596.16 505.037   3
   8  -4  -2 2739.49 575.796   5
  -8   4   2 2714.75 589.531   7
   8  -4  -2 2471.93 726.182   2
   8  -4  -1 11566.1 1249.26   5
  -8   4   1 12852.7 1188.79   7
  -8   4   1 12054.5 1161.43   3
   8  -4  -1 11580.9 1583.59   2
  -8   4   1 10581.9 761.369   6
   8  -4   0 3757.33 891.457   2
   8  -4   0 5836.83 922.826   5
  -8   4   0 4017.63 620.627   7
  -8   4   0 4802.06 769.759   3
  -8   4   0 3584.14 495.175   6
   8  -4   1 15167.5 1508.78   5
  -8   4  -1 14119.4 1056.13   7
   8  -4   1 14334.5 1779.91   2
  -8   4  -1 15960.2 1099.70   6
  -8   4  -2-22.1743 67.1501   6
  -8   4  -2 61.4705 60.5818   7
   8  -4   3 14425.2 1542.01   5
  -8   4  -3 13069.1 730.543   7
  -8   4  -3 14330.1 1666.04   1
  -8   4  -3 13551.8 1171.73   6
   8  -4   4 9736.46 1311.54   5
  -8   4  -4 9115.23 1316.09   1
  -8   4  -4 7825.78 936.424   6
  -8   4  -5 206.038 188.115   6
  -8   4  -5-93.2610 278.148   1
  -8   4  -6 10513.8 1432.40   1
  -8   4  -6 8941.34 1103.18   6
  -8   4  -7 2765.38 642.539   6
  -8   4  -7 1667.16 596.738   1
  -8   4  -8 4250.97 846.651   6
  -8   4  -8 4533.11 990.267   1
  -8   4  -9 69.3237 178.567   6
  -8   4 -10 2269.45 647.349   6
  -8   4 -11-65.0075 253.929   6
  -8   4 -12-14.2555 185.814   6
  -8   4 -13 864.283 468.600   6
  -8   4 -14 845.678 517.949   6
  -8   4 -15 28.4793 189.580   6
  -8   4 -16-335.849 315.365   6
  -8   4 -17-276.865 296.928   6
  -8   4 -18-350.539 340.934   6
  -8   4 -19 488.934 492.141   6
  -8   3  21-1.11729 552.041   7
  -8   3  20-401.886 428.188   7
  -8   3  19 889.763 781.534   7
  -8   3  18 1328.10 780.956   7
  -8   3  17 3011.70 1084.36   7
  -8   3  16 100.037 343.423   7
  -8   3  15 68.0319 394.247   7
  -8   3  14-219.230 407.195   7
  -8   3  13 1715.14 684.785   7
  -8   3  12 2093.61 745.608   7
  -8   3  11 821.159 483.351   7
   8  -3 -10 188.132 182.695   5
  -8   3  10 681.419 414.920   7
   8  -3  -9 14082.2 1260.35   5
  -8   3   9 12376.2 1661.40   7
   8  -3  -8 50.2969 115.623   5
  -8   3   8 51.6233 147.916   7
   8  -3  -7 12437.3 1210.16   5
  -8   3   7 12978.7 1578.76   7
   8  -3  -6 340.021 234.033   5
  -8   3   6 660.875 339.966   7
  -8   3   6 339.121 113.845   3
  -8   3   5 2132.43 341.436   3
   8  -3  -5 2404.96 553.790   5
  -8   3   5 1915.40 523.858   7
  -8   3   4 603.252 204.003   3
   8  -3  -4 658.320 242.859   5
  -8   3   4 544.305 269.293   7
   8  -3  -3 985.365 354.389   5
  -8   3   3 1169.83 303.006   3
   8  -3  -3 2360.24 678.553   2
  -8   3   3 1384.87 408.751   7
   8  -3  -2 3426.54 692.016   5
  -8   3   2 4119.07 683.901   7
   8  -3  -2 3240.71 896.426   2
   8  -3  -1 6369.88 965.244   5
  -8   3   1 6456.56 785.745   7
   8  -3  -1 6089.31 1149.06   2
   8  -3   0-86.7857 308.790   2
   8  -3   0 530.414 245.115   5
  -8   3   0 183.816 120.813   7
   8  -3   1 411.541 268.216   2
   8  -3   1 281.420 155.037   5
  -8   3  -1 481.710 171.438   7
   8  -3   1 623.732 185.412   7
   8  -3   2 974.326 410.411   5
  -8   3  -2 1328.72 237.438   7
   8  -3   3 334.446 251.554   5
  -8   3  -3-43.2555 256.687   1
  -8   3  -4 117.255 188.012   6
  -8   3  -4-20.5116 228.377   1
   8  -3   4 122.705 246.023   5
  -8   3  -5 804.211 314.723   6
   8  -3   5 1450.56 503.564   5
  -8   3  -5 938.410 438.146   1
  -8   3  -6 1271.77 511.106   1
  -8   3  -6 1464.14 463.288   6
   8  -3   6 1861.65 594.133   5
  -8   3  -7 262.815 212.266   6
   8  -3   7 80.5901 178.500   5
  -8   3  -7 77.0591 235.892   1
  -8   3  -8 138.215 77.7048   6
  -8   3  -8 13.4787 181.011   1
  -8   3  -9 118.695 155.916   6
  -8   3 -10 1029.61 449.682   6
  -8   3 -11 374.666 303.472   6
  -8   3 -12 69.2968 147.628   6
  -8   3 -13 6.90387 287.929   6
  -8   3 -14-185.103 209.506   6
  -8   3 -15-64.1504 239.124   6
  -8   3 -16-237.774 275.944   6
  -8   3 -17 228.759 267.294   6
  -8   3 -18-391.928 365.374   6
  -8   2  21-259.775 353.880   7
  -8   2  20 42.2032 327.020   7
  -8   2  19 194.432 271.700   7
  -8   2  18-172.576 264.069   7
  -8   2  17 287.277 414.841   7
  -8   2  16-498.449 465.047   7
  -8   2  15 1097.75 607.089   7
  -8   2  14 273.397 284.997   7
  -8   2  13 4526.73 1113.33   7
   8  -2 -12 64.6347 62.5392   5
  -8   2  12-54.9206 213.132   7
   8  -2 -11 5653.02 842.183   5
  -8   2  11 5193.79 1136.11   7
   8  -2 -10 1580.53 468.500   5
  -8   2  10 2213.86 764.460   7
   8  -2  -9 6635.83 941.005   5
  -8   2   9 6264.05 1177.01   7
   8  -2  -8 7476.63 984.084   5
  -8   2   8 7395.96 1213.88   7
   8  -2  -7 1768.71 503.899   5
  -8   2   7 1474.80 505.036   7
  -8   2   6 391.382 119.816   3
   8  -2  -6 483.589 305.301   5
  -8   2   6 359.438 186.777   7
   8  -2  -5 5918.70 904.992   5
  -8   2   5 4877.58 511.994   3
  -8   2   5 5050.74 864.418   7
  -8   2   4 1464.08 459.956   7
   8  -2  -4 1305.55 429.552   5
  -8   2   3-91.7687 123.698   7
   8  -2  -3 264.630 191.099   5
   8  -2  -2 4939.08 885.808   5
  -8   2   2 4179.31 651.427   7
   8  -2  -1 8818.84 1178.28   5
  -8   2   1 7895.43 843.808   7
   8  -2   0 5378.29 910.651   5
  -8   2   0 4979.09 602.607   7
   8  -2   0 4055.41 502.335   7
   8  -2   1 3608.29 774.091   5
  -8   2  -1 2993.87 398.646   7
   8  -2   1 3707.38 419.047   7
   8  -2   2 187.434 235.410   5
  -8   2  -2 132.695 62.1100   7
   8  -2   3 2195.92 628.643   5
  -8   2  -3 2098.92 606.751   1
  -8   2  -4 399.347 253.917   1
   8  -2   4 828.693 425.617   5
   8  -2   5 10023.9 1370.11   5
  -8   2  -5 8297.08 1197.00   1
  -8   2  -6 64.5187 174.137   1
   8  -2   6 591.158 452.408   5
  -8   2  -7 823.531 391.229   6
   8  -2   7 1721.34 601.828   5
  -8   2  -7 1849.88 583.499   1
  -8   2  -8 581.993 364.562   6
  -8   2  -8 734.220 389.653   1
   8  -2   8 429.992 397.427   5
  -8   2  -9 592.596 336.653   6
  -8   2 -10 772.778 427.834   6
  -8   2 -11 4948.96 1015.18   6
  -8   2 -12 336.343 350.724   6
  -8   2 -13-36.8920 151.783   6
  -8   2 -14-13.1262 132.750   6
  -8   2 -15 1013.46 533.216   6
  -8   2 -16-792.055 474.242   6
  -8   2 -17-106.113 198.425   6
  -8   2 -18 516.801 466.446   6
  -8   1  22 535.808 474.776   7
  -8   1  21 2.12223 92.1285   7
  -8   1  20 237.883 327.811   7
  -8   1  19-539.964 465.361   7
  -8   1  18 274.959 222.382   7
  -8   1  17 1886.40 798.736   7
  -8   1  16 269.832 457.194   7
  -8   1  15 1518.43 715.632   7
  -8   1  14 54.0510 143.860   7
  -8   1  13 317.730 329.944   7
   8  -1 -13 190.772 214.739   5
   8  -1 -12 219.386 183.223   5
  -8   1  12 55.3713 130.555   7
   8  -1 -11 249.434 180.603   5
  -8   1  11 699.885 366.696   7
   8  -1 -10 1649.36 459.048   5
  -8   1  10 2138.70 672.088   7
   8  -1  -9 5699.21 905.760   5
  -8   1   9 4416.92 943.801   7
   8  -1  -8 11971.2 1316.20   5
  -8   1   8 12677.2 1547.22   7
   8  -1  -7 8361.65 1116.44   5
  -8   1   7 5668.34 371.069   3
  -8   1   7 7764.86 1159.52   7
  -8   1   6-46.4931 70.8299   3
   8  -1  -6 95.3521 141.644   5
  -8   1   6-57.7414 251.059   7
  -8   1   5 2060.08 552.281   7
   8  -1  -5 2027.02 558.477   5
   8  -1  -4 931.838 365.679   5
  -8   1   4 1354.64 425.580   7
   8  -1  -3 1974.94 588.121   5
  -8   1   3 2213.24 511.698   7
  -8   1   2 6373.04 800.986   7
   8  -1  -2 6196.19 999.923   5
   8  -1  -1 920.674 436.507   5
  -8   1   1 719.677 237.286   7
   8  -1   0 7876.94 1142.37   5
  -8   1   0 7185.97 716.211   7
   8  -1   0 6864.02 652.703   7
   8  -1   1 8537.51 1220.41   5
  -8   1  -1 7863.53 635.715   7
   8  -1   1 7328.76 576.733   7
   8  -1   2 5072.55 962.153   5
   8  -1   2 2957.59 270.214   7
   8  -1   3 2334.49 673.162   5
  -8   1  -3 1246.56 458.511   1
  -8   1  -4 3440.79 769.591   1
   8  -1   4 5334.59 1041.06   5
   8  -1   5 3905.20 882.903   5
  -8   1  -5 4934.44 896.530   1
  -8   1  -6 2632.41 637.989   1
   8  -1   6 2824.81 773.012   5
   8  -1   7 6517.74 1165.85   5
  -8   1  -7 6279.31 1012.49   1
   8  -1   8 1123.75 520.502   5
  -8   1  -8 615.093 356.250   1
  -8   1  -9 1225.15 503.693   6
   8  -1   9 2030.88 689.149   5
  -8   1 -10 1172.98 494.397   6
   8  -1  10 825.460 480.584   5
  -8   1 -11-628.302 374.508   6
  -8   1 -12 133.488 165.198   6
  -8   1 -13 82.3826 106.600   6
  -8   1 -14 131.696 218.264   6
  -8   1 -15-177.258 237.035   6
  -8   1 -16-462.531 378.166   6
  -8   1 -17-167.337 338.617   6
  -8   1 -18 277.275 458.337   6
  -8   0  22 2037.69 931.573   7
  -8   0  21 13.5537 125.292   7
  -8   0  20 62.1616 321.518   7
  -8   0  19-633.981 497.447   7
  -8   0  18 42.2265 144.255   7
  -8   0  17 4.14688 412.072   7
  -8   0  16 1455.06 652.515   7
  -8   0  15 1449.77 669.939   7
   8   0 -15 817.888 431.012   5
  -8   0  14 3332.60 984.169   7
   8   0 -14 1683.32 538.943   5
  -8   0  13 1298.66 579.459   7
   8   0 -13 277.413 207.813   5
  -8   0  12 1722.27 654.072   7
   8   0 -12 638.674 296.354   5
  -8   0  11 1827.33 625.609   7
   8   0 -11 2730.62 673.849   5
  -8   0  10 2421.89 711.422   7
   8   0 -10 3339.41 719.940   5
  -8   0   9 3534.61 867.760   7
   8   0  -9 3296.12 725.661   5
  -8   0   8 1717.10 206.226   3
   8   0  -8 3133.32 702.900   5
  -8   0   8 3413.31 824.987   7
   8   0  -7 2297.16 610.630   5
  -8   0   7 2892.40 696.978   7
  -8   0   7 2853.20 351.616   3
   8   0  -6 5752.93 956.558   5
  -8   0   6 5585.17 933.795   7
  -8   0   6 4694.47 526.834   3
   8   0  -5 350.067 236.239   5
  -8   0   5 4117.44 774.618   7
  -8   0   4 142.413 94.7922   7
   8   0  -4-85.9137 160.368   5
   8   0  -3 1854.66 579.794   5
  -8   0   3 2125.94 472.250   7
  -8   0   2 3436.88 599.126   7
   8   0  -2 3411.93 751.908   5
   8   0  -1 492.985 289.748   5
  -8   0   1 150.513 54.5739   7
   8   0   0 835.297 314.950   5
  -8   0   0 497.363 193.029   7
   8   0   0 459.284 184.700   7
   8   0   1-38.1007 257.387   5
  -8   0  -1-68.1456 103.521   7
   8   0   1-102.290 75.9494   7
   8   0   2 2645.57 711.265   5
   8   0   2 1980.48 275.135   7
   8   0   3 93.6446 139.423   5
  -8   0  -3 189.388 223.474   1
   8   0   4 18506.7 1902.09   5
  -8   0  -4 15430.7 1523.83   1
   8   0   5 6761.68 1175.36   5
  -8   0  -5 5975.82 943.828   1
   8   0   6 18969.2 1996.55   5
  -8   0  -6 17635.0 1631.95   1
   8   0   7 965.973 464.052   5
  -8   0  -7 344.060 269.017   1
   8   0   8 5654.22 1110.02   5
   8   0   9 5118.48 1064.18   5
   8   0  10 1749.64 647.013   5
  -8   0 -11 111.631 124.388   6
   8   0  11 209.353 360.600   5
  -8   0 -12 1164.13 542.587   6
  -8   0 -13 424.189 280.087   6
  -8   0 -14-789.197 465.057   6
  -8   0 -15 708.774 482.507   6
  -8   0 -16-634.408 227.161   6
  -8   0 -17-576.515 433.026   6
  -8   0 -18 245.001 216.954   6
  -8  -1  22 594.879 457.948   7
  -8  -1  21 15.4487 144.415   7
  -8  -1  20 1741.58 826.445   7
  -8  -1  19 694.346 518.530   7
  -8  -1  18 316.542 302.563   7
  -8  -1  17 1094.33 659.783   7
  -8  -1  16 583.605 518.351   7
  -8  -1  15 1773.57 701.945   7
  -8  -1  14 6831.62 1387.43   7
  -8  -1  13 1417.96 599.624   7
   8   1 -13 1719.49 595.271   5
  -8  -1  12 886.567 560.532   7
   8   1 -12 1462.75 516.980   5
   8   1 -11 11816.8 1442.29   5
  -8  -1  11 12663.0 1718.02   7
  -8  -1  10 3413.77 888.646   7
   8   1 -10 2280.30 666.362   5
   8   1  -9 22594.3 1976.82   5
  -8  -1   9 19048.4 1971.94   7
  -8  -1   8 1840.87 613.982   7
   8   1  -8 2306.66 656.025   5
  -8  -1   8 1757.02 292.301   3
  -8  -1   7 4706.60 884.613   7
   8   1  -7 6340.47 1041.98   5
  -8  -1   6 1969.65 571.366   7
   8   1  -6 1540.13 491.769   5
  -8  -1   5 753.756 328.602   7
   8   1  -5 754.279 454.370   5
   8   1  -4 4422.64 905.935   5
  -8  -1   4 3844.71 716.419   7
   8   1  -4 4263.18 961.549   2
  -8  -1   3 419.392 232.314   7
   8   1  -3 704.672 384.725   5
   8   1  -3-27.9724 176.286   2
  -8  -1   2 6033.15 805.521   7
   8   1  -2 5946.88 1039.70   5
   8   1  -2 5855.46 1095.24   2
   8   1  -1 20.1069 300.671   2
  -8  -1   1 57.9111 96.3160   7
   8   1  -1 443.515 308.350   5
   8   1   0 3670.76 895.319   2
  -8  -1   0 4441.38 615.456   7
   8   1   0 4008.76 887.644   5
   8   1   1-87.1690 178.120   5
   8   1   1 389.260 167.974   7
   8   1   2 2345.56 743.539   5
   8   1   2 1491.75 289.630   7
   8   1   3 14763.3 1725.74   5
   8   1   3 12217.9 762.684   7
  -8  -1  -4 1568.48 444.361   1
   8   1   4 2310.59 657.755   5
   8   1   4 1588.78 246.792   7
   8   1   5 840.312 382.577   5
  -8  -1  -5 1056.64 367.230   1
   8   1   6 3285.27 843.696   5
  -8  -1  -6 2639.05 600.424   1
  -8  -1  -7 392.855 208.268   1
   8   1   7-114.479 184.275   5
   8   1   8 2224.50 725.158   5
   8   1   9 23.7673 215.566   5
   8   1  10 126.192 180.405   5
   8   1  11 732.338 457.052   5
  -8  -1 -12 832.966 483.810   6
   8   1  12 989.520 515.280   5
  -8  -1 -13 911.909 514.123   6
  -8  -1 -14 143.443 375.093   6
  -8  -1 -15 431.849 272.674   6
  -8  -1 -16-151.927 234.342   6
  -8  -1 -17 361.812 352.624   6
  -8  -2  22 513.156 515.979   7
  -8  -2  21-4.09611 114.836   7
  -8  -2  20-282.804 447.767   7
  -8  -2  19-351.857 373.490   7
  -8  -2  18 309.198 447.728   7
  -8  -2  17-69.5206 216.224   7
  -8  -2  16 1270.06 668.443   7
  -8  -2  15 2821.43 943.734   7
  -8  -2  14-122.528 267.532   7
  -8  -2  13-344.295 439.339   7
  -8  -2  12 692.037 436.173   7
   8   2 -12 820.354 396.864   5
  -8  -2  11 510.137 192.512   7
   8   2 -11 860.213 428.470   5
  -8  -2  10 128.055 252.772   7
   8   2 -10 397.648 347.414   5
  -8  -2   9 1172.28 440.414   7
   8   2  -9 2581.22 699.161   5
  -8  -2   8 1070.25 453.652   7
   8   2  -8 1314.15 496.038   5
  -8  -2   7 153.202 148.673   7
   8   2  -7-68.3456 243.618   5
  -8  -2   6 1712.48 553.784   7
   8   2  -6 949.494 439.506   5
  -8  -2   5 1987.18 547.011   7
   8   2  -5 1352.09 490.814   5
  -8  -2   4 799.355 344.665   7
   8   2  -4 1095.21 411.557   5
   8   2  -4 1142.19 559.961   2
  -8  -2   3 5439.12 855.265   7
   8   2  -3 5828.74 1055.47   5
   8   2  -3 5392.13 1038.95   2
  -8  -2   2 2729.67 574.801   7
   8   2  -2 2866.75 762.378   5
   8   2  -2 1867.88 574.576   2
   8   2  -1 171.691 198.035   2
  -8  -2   1 42.6668 95.6713   7
   8   2  -1 238.867 349.215   5
   8   2   0 2352.06 681.372   2
   8   2   0 2502.10 714.056   5
   8   2   1 1232.38 481.539   5
   8   2   2-26.4276 215.106   5
   8   2   3 1035.39 498.203   5
  -8  -2  -4 2687.21 591.991   1
   8   2   4 3999.43 890.321   5
   8   2   4 3507.57 479.575   7
   8   2   5 6381.53 1157.87   5
   8   2   5 6072.23 610.442   7
  -8  -2  -5 6565.84 894.157   1
   8   2   6 437.831 285.648   5
  -8  -2  -6-101.719 116.289   1
   8   2   7 8249.31 1365.01   5
   8   2   8 4603.90 1029.18   5
   8   2   9 4494.74 1073.93   5
   8   2  10 334.006 149.705   5
   8   2  11 94.1460 148.178   5
   8   2  12 990.833 557.704   5
  -8  -2 -13 436.223 348.925   6
  -8  -2 -14 876.829 503.220   6
  -8  -2 -15 106.996 262.038   6
  -8  -2 -16-77.5559 188.254   6
  -8  -2 -17 451.906 507.813   6
  -8  -3  22 36.8687 162.787   7
  -8  -3  21 295.548 369.580   7
  -8  -3  20 262.667 286.158   7
  -8  -3  19 2017.17 870.204   7
  -8  -3  18 283.464 309.148   7
  -8  -3  17 422.342 207.490   7
  -8  -3  16 7.01571 221.520   7
  -8  -3  15-147.208 328.265   7
  -8  -3  14-309.095 461.775   7
  -8  -3  13-392.584 483.293   7
  -8  -3  12 671.126 370.559   7
  -8  -3  11 1082.53 482.513   7
   8   3 -10 19934.5 2022.75   5
  -8  -3  10 19399.5 2134.60   7
  -8  -3   9-52.2111 212.869   7
   8   3  -9 615.478 312.266   5
  -8  -3   8 273.033 262.154   7
   8   3  -8 786.447 383.054   5
  -8  -3   7 1065.56 437.598   7
   8   3  -7 1267.57 495.807   5
  -8  -3   6 3314.60 743.217   7
   8   3  -6 3516.06 832.134   5
  -8  -3   5 3005.63 697.321   7
   8   3  -5 2626.90 733.396   2
   8   3  -5 3399.01 817.073   5
  -8  -3   4 318.325 232.391   7
   8   3  -4 517.575 358.997   5
   8   3  -4 324.412 222.014   2
  -8  -3   3 3908.84 737.410   7
   8   3  -3 4786.10 977.679   5
   8   3  -3 4241.61 930.676   2
   8   3  -2 425.190 362.568   2
  -8  -3   2 843.267 331.786   7
   8   3  -2 663.050 394.353   5
   8   3  -1-126.498 296.998   2
  -8  -3   1 189.660 200.882   7
   8   3  -1-70.8970 254.047   5
   8   3   0 969.462 404.769   2
   8   3   0 1678.95 592.595   5
   8   3   1 156.813 167.074   5
   8   3   2 7266.76 1253.40   5
   8   3   3 6066.88 1188.49   5
  -8  -3  -3 4278.57 709.540   1
  -8  -3  -4 1948.77 471.720   1
   8   3   4 1331.88 500.608   5
   8   3   4 1518.00 617.402   4
   8   3   4 1873.84 438.317   7
   8   3   5 2634.82 733.293   5
   8   3   5 1867.77 706.524   4
   8   3   5 2522.28 471.986   7
  -8  -3  -5 2364.93 500.374   1
   8   3   6-280.806 588.347   5
  -8  -3  -6 826.203 296.555   1
   8   3   6 92.7023 118.057   4
   8   3   7-109.799 349.878   5
   8   3   7-77.8182 317.431   4
   8   3   8-17.9515 208.118   5
   8   3   8-308.568 424.233   4
   8   3   9 67.3649 192.260   5
   8   3   9-291.686 532.040   4
   8   3  10 525.959 372.098   5
   8   3  10 286.270 176.549   4
   8   3  11 588.374 416.195   5
   8   3  11 121.633 381.723   4
   8   3  12 681.473 419.250   5
   8   3  12 351.088 274.222   4
   8   3  13 1857.92 734.805   5
   8   3  13 878.275 546.055   4
  -8  -3 -14 79.9235 219.630   6
   8   3  14-24.8302 124.078   4
  -8  -3 -15 106.990 170.626   6
   8   3  15-720.729 506.043   4
  -8  -3 -16-222.947 281.507   6
  -8  -4  22 549.553 596.209   7
  -8  -4  21-399.363 423.914   7
  -8  -4  20 466.995 429.408   7
  -8  -4  19 200.444 342.985   7
  -8  -4  18-1422.66 715.676   7
  -8  -4  17 117.806 416.900   7
  -8  -4  16 255.590 234.904   7
  -8  -4  15 495.900 418.006   7
  -8  -4  14 1052.26 553.887   7
  -8  -4  13 202.308 204.588   7
   8   4 -12 1279.18 378.533   3
  -8  -4  12 2866.97 875.126   7
  -8  -4  11 813.385 511.026   7
  -8  -4  10 4483.62 1059.82   7
  -8  -4   9-291.621 341.871   7
   8   4  -9 154.758 256.039   5
   8   4  -8 11447.1 1564.04   5
  -8  -4   8 13974.3 1703.11   7
   8   4  -7 11619.3 1590.43   5
  -8  -4   7 12506.9 1575.44   7
  -8  -4   6 270.038 254.094   7
   8   4  -6 160.491 315.074   5
  -8  -4   5 7473.90 1140.19   7
   8   4  -5 6375.05 1159.56   5
   8   4  -5 7429.34 1241.31   2
  -8  -4   4 3689.37 771.703   7
   8   4  -4 3700.89 908.511   5
   8   4  -4 3798.38 868.620   2
  -8  -4   3 4747.70 858.481   7
   8   4  -3 3954.56 938.435   5
   8   4  -3 4675.02 967.997   2
   8   4  -2 481.232 195.961   2
  -8  -4   2 567.795 296.726   7
   8   4  -2 593.269 148.201   5
   8   4  -1 6900.44 1146.03   2
   8   4  -1 8552.28 1386.36   5
   8   4   0 17201.3 1980.43   5
   8   4   1 2517.08 716.855   5
   8   4   1 3002.65 792.849   4
   8   4   2 4492.32 1023.68   5
   8   4   2 4945.71 1041.89   4
   8   4   3-12.8548 265.731   5
   8   4   3-135.278 109.229   4
  -8  -4  -3 47.8799 81.7168   1
   8   4   4 19284.5 2135.97   5
  -8  -4  -4 18181.1 1331.46   1
   8   4   4 19004.6 1473.65   7
   8   4   4 18166.6 2084.49   4
   8   4   5 2292.81 784.969   5
  -8  -4  -5 2200.28 452.211   1
   8   4   5 1872.51 709.126   4
   8   4   5 1533.43 413.902   7
   8   4   6 2690.19 827.634   5
   8   4   6 3981.81 1018.87   4
   8   4   6 3161.10 599.321   7
   8   4   7 2.94120 170.924   5
   8   4   7-166.706 251.952   4
   8   4   8 1747.40 650.743   5
   8   4   8 1529.30 630.343   4
   8   4   9 1620.19 645.229   5
   8   4   9 3160.16 967.284   4
   8   4  10 484.482 338.717   5
   8   4  10-84.4266 338.449   4
   8   4  11 41.9987 163.644   5
   8   4  11 304.500 289.306   4
   8   4  12 1357.20 593.428   5
   8   4  12 1596.73 711.738   4
   8   4  13 1498.99 656.536   5
   8   4  13 2591.16 953.759   4
   8   4  14 251.751 324.657   5
   8   4  14-26.8566 149.726   4
  -8  -4 -15 300.845 267.998   6
   8   4  15-267.459 323.110   4
  -8  -4 -16 94.9330 118.399   6
   8   4  16 283.459 176.138   4
   8   4  17-256.342 327.798   4
   8   4  18-1.01484 188.323   4
  -8  -5  22 225.825 195.313   7
  -8  -5  21 806.816 607.424   7
  -8  -5  20 252.402 353.578   7
  -8  -5  19 1301.33 709.399   7
  -8  -5  18 2498.81 952.973   7
  -8  -5  17-511.050 433.363   7
  -8  -5  16 26.9073 339.719   7
  -8  -5  15 88.1485 253.495   7
  -8  -5  14-165.008 119.618   7
  -8  -5  13 2079.06 741.101   7
   8   5 -12-78.7891 79.5209   3
  -8  -5  12 218.539 101.019   7
   8   5 -11 3913.48 705.351   3
  -8  -5  11 5317.52 1149.21   7
  -8  -5  10 5653.21 1183.24   7
   8   5 -10 5043.76 816.272   3
  -8  -5   9-50.4558 233.436   7
   8   5  -9-260.526 106.680   5
  -8  -5   8 9424.93 1440.15   7
   8   5  -8 7834.32 1343.38   5
  -8  -5   7 238.292 312.734   7
   8   5  -7 389.230 331.411   5
   8   5  -6 1819.69 626.832   2
   8   5  -6 2395.50 718.846   5
  -8  -5   6 3542.67 852.739   7
  -8  -5   5 1781.11 570.915   7
   8   5  -5 2987.53 870.819   5
   8   5  -5 1883.25 635.400   2
  -8  -5   4 11041.5 1402.63   7
   8   5  -4 10896.1 1449.68   2
   8   5  -4 8697.11 1407.35   5
  -8  -5   3 1305.11 502.976   7
   8   5  -3 1563.23 616.517   5
   8   5  -2 4420.49 903.603   2
   8   5  -2 5486.59 1098.37   5
   8   5  -1-112.132 456.841   5
   8   5  -1 238.578 240.347   4
   8   5   0 1716.31 662.246   5
   8   5   0 2489.00 728.638   4
   8   5   1-211.026 324.559   5
   8   5   1-164.039 350.707   4
   8   5   2 804.566 441.015   5
   8   5   2 894.323 465.575   4
   8   5   3 4965.62 1108.21   5
  -8  -5  -3 6419.25 753.613   1
   8   5   3 6880.04 1279.03   4
   8   5   4 95.8999 182.264   5
  -8  -5  -4 220.451 153.045   1
   8   5   4 46.4131 123.749   7
   8   5   5 3703.36 944.055   5
   8   5   5 4225.08 1063.52   4
   8   5   5 3835.14 734.099   7
   8   5   6-33.3221 193.380   5
   8   5   6-6.08120 54.9212   7
   8   5   7 473.454 333.539   5
   8   5   7 645.513 463.071   4
   8   5   8 342.866 294.244   5
   8   5   8-241.003 138.758   4
   8   5   9-22.6850 204.471   5
   8   5   9 777.940 498.570   4
   8   5  10 539.088 358.978   5
   8   5  10 555.918 404.075   4
   8   5  11 1005.11 482.694   5
   8   5  11 328.884 254.710   4
   8   5  12-231.481 261.301   5
   8   5  12-14.2209 111.837   4
   8   5  13 186.281 237.166   5
   8   5  13 636.880 500.983   4
   8   5  14-310.773 302.213   5
   8   5  14 189.279 269.431   4
  -8  -5 -15 354.911 439.586   6
   8   5  15 120.515 239.249   4
   8   5  16 99.6184 224.481   4
  -8  -6  22 23.5112 168.051   7
  -8  -6  21 386.318 540.604   7
  -8  -6  20 649.714 681.095   7
  -8  -6  19-230.479 270.485   7
  -8  -6  18 108.806 132.545   7
  -8  -6  17 221.780 297.282   7
  -8  -6  16-328.336 339.393   7
  -8  -6  15-145.948 228.764   7
  -8  -6  14-86.0434 174.883   7
   8   6 -13 750.787 331.427   3
  -8  -6  13 1034.75 578.697   7
   8   6 -12 810.835 324.875   3
  -8  -6  12 704.800 431.218   7
   8   6 -11 323.679 165.502   3
  -8  -6  11 99.8043 172.158   7
   8   6 -10 162.769 111.544   3
  -8  -6  10 1203.19 509.090   7
  -8  -6   9 1634.42 710.499   7
   8   6  -9 780.891 363.009   3
  -8  -6   8 4980.10 1095.32   7
   8   6  -8 6660.23 1302.56   5
  -8  -6   7 699.681 390.755   7
   8   6  -7-113.552 176.730   5
  -8  -6   6 1652.15 629.889   7
   8   6  -6 605.286 472.945   5
   8   6  -6 583.248 333.526   2
  -8  -6   5 499.105 340.370   7
   8   6  -5 593.961 328.890   5
   8   6  -5 189.836 170.731   2
   8   6  -4 15058.2 1898.89   5
   8   6  -4 12242.3 1539.74   2
   8   6  -3 20213.2 2230.93   5
   8   6  -3 17346.0 1786.58   2
   8   6  -3 16751.1 1848.60   4
   8   6  -2 1420.49 519.495   2
   8   6  -2 591.224 400.466   5
   8   6  -2 1095.61 489.773   4
   8   6  -1 2376.53 742.715   5
   8   6  -1 1395.26 584.646   4
   8   6   0 1742.51 615.549   5
   8   6   0 1937.79 612.652   4
   8   6   1 1026.96 447.438   5
   8   6   1 1883.96 660.031   4
   8   6   2 1523.98 544.826   5
   8   6   2 1910.89 680.806   4
   8   6   3-95.9224 184.289   5
   8   6   3-220.789 348.758   4
   8   6   4 2054.77 760.231   5
   8   6   4 1811.27 675.362   4
   8   6   4 1131.35 430.789   7
   8   6   5 2529.67 832.972   5
   8   6   5 2219.05 712.296   4
   8   6   5 3604.96 779.633   7
   8   6   6 1491.98 616.600   5
   8   6   6 578.040 307.627   4
   8   6   6 1009.03 408.283   7
   8   6   7 2501.29 852.120   5
   8   6   7 1260.33 560.422   4
   8   6   8-210.435 298.713   5
   8   6   8 578.297 506.208   4
   8   6   9-465.863 358.843   5
   8   6   9-397.476 364.267   4
   8   6  10 117.544 197.962   5
   8   6  10-687.086 477.931   4
   8   6  11-911.377 496.617   5
   8   6  11-288.519 324.320   4
   8   6  12 122.762 183.652   5
   8   6  12-161.772 256.732   4
   8   6  13-17.1452 100.318   5
   8   6  13-631.568 492.742   4
   8   6  14 429.953 347.263   5
   8   6  14-64.0532 220.104   4
   8   6  15-368.026 393.068   4
  -8  -7  22 637.128 638.209   7
  -8  -7  21-20.6093 155.867   7
  -8  -7  20 1337.72 742.830   7
  -8  -7  19 2181.08 970.574   7
  -8  -7  18 69.8766 267.393   7
  -8  -7  17 98.2454 268.283   7
  -8  -7  16-337.341 144.538   7
  -8  -7  15 716.093 454.756   7
   8   7 -14-81.9083 170.381   3
  -8  -7  14 77.7649 336.255   7
   8   7 -13 56.9115 82.2995   3
  -8  -7  13-85.5503 251.269   7
   8   7 -12 55.2376 92.7358   3
  -8  -7  12 448.191 442.938   7
   8   7 -11 3763.67 800.934   3
  -8  -7  11 3087.79 925.467   7
  -8  -7  10 10672.3 1732.32   7
   8   7 -10 9340.67 1308.77   3
   8   7  -9 74.1673 178.261   3
  -8  -7   9-390.402 391.460   7
  -8  -7   8 169.573 268.650   7
   8   7  -8 13.8830 419.732   5
   8   7  -8 133.436 247.913   3
  -8  -7   7 136.050 249.016   7
   8   7  -7-302.271 251.201   2
  -8  -7   6 196.144 206.988   7
   8   7  -6-10.5552 236.579   5
   8   7  -6-14.9389 180.668   2
   8   7  -5 3735.53 963.193   5
   8   7  -5 2447.87 697.412   4
   8   7  -5 3342.16 762.365   2
   8   7  -4 14960.8 1970.03   5
   8   7  -4 14006.3 1589.85   2
   8   7  -4 10853.9 1491.67   4
   8   7  -3 4945.44 939.962   2
   8   7  -3 4833.48 1139.61   5
   8   7  -3 5401.43 1080.53   4
   8   7  -2 454.321 290.678   5
   8   7  -2 1185.81 588.052   4
   8   7  -1 278.180 267.278   5
   8   7  -1 367.526 328.382   4
   8   7   0 7377.94 1385.33   5
   8   7   0 6844.93 1297.79   4
   8   7   1 2737.82 882.258   5
   8   7   1 2964.61 836.151   4
   8   7   2 213.959 258.956   5
   8   7   2-9.84773 150.893   4
   8   7   3 214.522 141.844   5
   8   7   3 332.163 354.855   4
   8   7   4 5.91468 390.896   5
   8   7   4 403.206 296.764   4
   8   7   4-134.364 117.976   7
   8   7   5 1761.06 675.547   5
   8   7   5 1497.79 637.619   4
   8   7   5 1322.51 536.473   7
   8   7   6 815.797 500.314   5
   8   7   6 957.013 508.115   4
   8   7   6 759.855 437.005   7
   8   7   7-146.636 253.569   5
   8   7   7-225.570 402.439   4
   8   7   8-236.003 310.653   5
   8   7   8-562.637 433.720   4
   8   7   9 304.853 375.607   5
   8   7   9 1506.23 815.250   4
   8   7  10 288.336 292.444   5
   8   7  10-315.113 337.760   4
   8   7  11 338.301 399.723   5
   8   7  11 181.301 258.745   4
   8   7  12 2.77308 269.129   5
   8   7  12-24.9986 131.052   4
   8   7  13 2.10213 306.272   5
   8   7  13 409.108 442.513   4
   8   7  14-239.334 327.856   4
  -8  -8  21-66.7845 216.224   7
  -8  -8  20 901.462 628.953   7
  -8  -8  19-150.910 152.017   7
  -8  -8  18-813.837 576.823   7
  -8  -8  17 50.4379 325.777   7
  -8  -8  16 1500.42 775.189   7
  -8  -8  15 276.106 412.757   7
   8   8 -14 614.550 371.110   3
  -8  -8  14-31.3086 226.691   7
   8   8 -13-70.4496 166.290   3
  -8  -8  13 29.2608 254.581   7
   8   8 -12 147.351 143.535   3
  -8  -8  12 280.316 308.755   7
   8   8 -11 611.657 409.781   3
  -8  -8  11 233.726 410.875   7
   8   8 -10 3234.30 821.936   3
  -8  -8  10 3274.82 966.970   7
   8   8  -9 1088.68 523.164   3
  -8  -8   9 1904.71 727.002   7
   8   8  -8 5197.70 1053.71   3
  -8  -8   8 4777.99 1105.68   7
   8   8  -8 4842.82 967.087   2
   8   8  -8 6235.78 1339.72   5
  -8  -8   7 2567.70 835.558   7
   8   8  -7 2188.54 748.927   5
   8   8  -7 1780.63 559.872   2
   8   8  -6 2596.17 848.321   5
   8   8  -6 2728.93 711.495   4
   8   8  -6 3356.10 782.187   2
   8   8  -5 474.833 244.339   2
   8   8  -5 1214.52 620.670   5
   8   8  -5 529.361 217.915   4
   8   8  -4 4379.87 861.054   2
   8   8  -4 5835.08 1267.95   5
   8   8  -4 3380.80 833.956   4
   8   8  -3 2663.03 836.033   5
   8   8  -3 2962.63 833.734   4
   8   8  -2-776.598 463.609   5
   8   8  -2-181.578 189.363   4
   8   8  -1 64.3759 114.204   5
   8   8  -1-55.8470 132.381   4
   8   8   0 352.615 149.210   5
   8   8   0 103.058 347.000   4
   8   8   1 194.104 201.858   5
   8   8   1 460.012 327.547   4
   8   8   2 570.277 436.604   5
   8   8   2 212.637 329.554   4
   8   8   3 1533.39 634.826   5
   8   8   3 1405.72 641.265   4
   8   8   4 252.842 220.079   5
   8   8   4-81.3443 413.070   4
   8   8   4 583.905 374.195   7
   8   8   5 706.453 457.557   5
   8   8   5 781.681 545.456   4
   8   8   5 129.476 121.243   7
   8   8   6 185.697 321.484   5
   8   8   6 246.944 345.371   4
   8   8   6 566.426 352.851   7
   8   8   7 1211.16 616.594   5
   8   8   7 931.506 533.784   4
   8   8   8 1017.30 542.496   5
   8   8   8 1568.66 749.635   4
   8   8   9 199.021 216.258   5
   8   8   9 133.938 380.472   4
   8   8  10 374.858 343.605   5
   8   8  10 274.189 409.572   4
   8   8  11 184.708 266.357   5
   8   8  11 1128.02 627.715   4
   8   8  12 179.043 136.986   5
   8   8  12 155.592 266.870   4
   8   8  13 438.402 630.999   4
  -8  -9  20 59.4201 208.103   7
  -8  -9  19 755.874 692.448   7
  -8  -9  18 66.0109 138.588   7
  -8  -9  17 686.823 528.780   7
  -8  -9  16 231.679 409.182   7
   8   9 -15 369.365 339.154   3
  -8  -9  15 104.515 281.502   7
   8   9 -14 66.3592 142.678   3
  -8  -9  14 491.534 543.918   7
   8   9 -13-29.4802 227.383   3
  -8  -9  13-196.845 246.721   7
   8   9 -12 529.175 358.398   3
  -8  -9  12-363.047 504.333   7
   8   9 -11 222.591 236.474   3
  -8  -9  11 273.312 356.599   7
   8   9 -10 5033.71 1069.64   3
  -8  -9  10 5090.45 1255.23   7
   8   9  -9 1470.90 627.859   3
  -8  -9   9 1945.76 794.072   7
   8   9  -9 1229.77 499.035   2
   8   9  -8 1215.69 544.627   3
   8   9  -8 621.038 548.312   5
   8   9  -8 1391.57 497.575   2
   8   9  -7 911.218 531.962   5
   8   9  -7 249.916 210.884   4
   8   9  -7 207.443 243.198   2
   8   9  -7 277.313 300.973   3
   8   9  -6 3703.19 801.064   2
   8   9  -6 2973.81 910.589   5
   8   9  -6 4670.05 995.094   4
   8   9  -5 103.637 229.157   5
   8   9  -5 31.4513 221.508   4
   8   9  -4 11772.3 1874.71   5
   8   9  -4 11978.5 1648.62   4
   8   9  -3 3340.05 991.121   5
   8   9  -3 3828.00 961.047   4
   8   9  -2 73.8325 303.428   5
   8   9  -2 294.202 301.177   4
   8   9  -1 591.922 316.368   5
   8   9  -1 690.455 429.264   4
   8   9   0 954.796 480.198   5
   8   9   0 1681.23 682.082   4
   8   9   1 4899.68 1196.00   5
   8   9   1 4848.97 1176.02   4
   8   9   2 465.202 461.200   5
   8   9   2 389.488 279.579   4
   8   9   3-144.135 291.152   5
   8   9   3-591.765 423.319   4
   8   9   4 1286.98 603.580   5
   8   9   4 1400.39 720.699   4
   8   9   4 1163.25 529.728   7
   8   9   5 972.277 511.469   5
   8   9   5 732.304 545.523   4
   8   9   5 631.423 376.664   7
   8   9   6 198.292 332.779   5
   8   9   6 131.709 224.237   4
   8   9   6 689.045 328.115   7
   8   9   7 443.946 347.131   5
   8   9   7 259.067 395.819   4
   8   9   8 185.940 190.612   5
   8   9   8 436.464 483.284   4
   8   9   9 380.941 377.131   5
   8   9   9 89.1693 152.849   4
   8   9  10 98.6851 189.566   5
   8   9  10 201.524 188.183   4
   8   9  11-87.1677 205.008   4
  -8 -10  19 77.0480 212.327   7
  -8 -10  18-37.0843 423.901   7
  -8 -10  17 291.737 491.204   7
  -8 -10  16 256.313 484.724   7
   8  10 -15 1004.30 541.231   3
  -8 -10  15 760.571 542.508   7
   8  10 -14-394.184 326.069   3
  -8 -10  14-232.640 314.806   7
   8  10 -13-176.184 284.250   3
  -8 -10  13-615.526 473.574   7
   8  10 -12 159.029 100.629   3
  -8 -10  12 604.355 573.316   7
   8  10 -11 470.354 289.750   3
  -8 -10  11 657.740 593.150   7
   8  10 -10 198.562 463.392   3
  -8 -10  10 12.8056 321.241   7
   8  10  -9 1043.34 569.153   3
   8  10  -8-41.4235 179.568   3
   8  10  -8-105.880 335.083   5
   8  10  -8 83.2747 145.227   4
   8  10  -7 382.938 372.737   5
   8  10  -7 229.765 187.266   4
   8  10  -7 449.661 237.463   3
   8  10  -6 296.209 272.459   5
   8  10  -6-125.662 256.799   4
   8  10  -5 826.820 479.067   5
   8  10  -5 148.731 164.783   4
   8  10  -4 107.386 215.345   5
   8  10  -4 263.480 92.1404   4
   8  10  -3 339.781 361.433   5
   8  10  -3 366.837 360.376   4
   8  10  -2 1445.91 607.529   5
   8  10  -2 1078.40 461.075   4
   8  10  -1 281.999 183.194   5
   8  10  -1 484.380 432.647   4
   8  10   0-75.6885 257.806   5
   8  10   0 58.3480 265.883   4
   8  10   1-113.014 205.491   5
   8  10   1-236.624 435.009   4
   8  10   2 271.230 382.047   5
   8  10   2 368.114 334.104   4
   8  10   3-12.8966 234.742   5
   8  10   3 299.267 289.246   4
   8  10   3-20.4147 112.560   7
   8  10   4-260.337 293.817   5
   8  10   4 188.539 172.750   4
   8  10   4 53.8602 150.757   7
   8  10   5-273.982 302.581   5
   8  10   5-100.521 319.039   4
   8  10   5-284.122 282.391   7
   8  10   6 463.715 273.546   5
   8  10   6-300.736 331.336   4
   8  10   6 685.442 437.809   7
   8  10   7-373.841 346.873   5
   8  10   7 40.0848 265.039   4
   8  10   8 168.265 231.356   5
   8  10   8 425.897 448.504   4
   8  10   9 117.148 310.833   5
   8  10   9-90.8414 207.870   4
  -8 -11  18 512.005 508.512   7
  -8 -11  17 395.848 447.327   7
  -8 -11  16 857.955 570.368   7
   8  11 -15 310.949 271.439   3
  -8 -11  15 271.977 183.922   7
   8  11 -14 1076.37 505.096   3
  -8 -11  14 910.867 616.821   7
   8  11 -13 509.922 373.511   3
  -8 -11  13-959.902 605.426   7
   8  11 -12 479.648 423.242   3
  -8 -11  12 617.412 402.097   7
   8  11 -11 751.717 486.256   3
   8  11 -10-232.459 131.631   3
   8  11  -9-309.415 124.069   3
   8  11  -8 400.077 244.427   3
   8  11  -8 592.633 452.633   5
   8  11  -8 190.097 91.2160   4
   8  11  -7 503.140 484.216   5
   8  11  -7 430.935 325.048   4
   8  11  -7 609.546 528.058   3
   8  11  -6 260.465 185.980   5
   8  11  -6-352.471 296.128   4
   8  11  -5 398.759 410.172   5
   8  11  -5 901.412 519.536   4
   8  11  -4 409.673 273.937   5
   8  11  -4 89.9349 220.240   4
   8  11  -3-848.841 529.676   5
   8  11  -3 542.542 461.501   4
   8  11  -2 3414.77 1017.36   5
   8  11  -2 2456.32 817.051   4
   8  11  -1 781.182 565.437   5
   8  11  -1 7.69365 215.293   4
   8  11   0-130.213 222.928   5
   8  11   0-201.658 223.326   4
   8  11   1-321.878 518.204   5
   8  11   1 369.920 416.236   4
   8  11   2-35.9760 298.040   5
   8  11   2-54.1757 253.119   4
   8  11   3-418.370 375.856   5
   8  11   3 30.2041 150.726   4
   8  11   3 235.119 284.838   7
   8  11   4-157.134 241.428   5
   8  11   4 369.948 349.770   4
   8  11   4 440.245 271.552   7
   8  11   5 268.484 302.492   5
   8  11   5 112.860 310.890   4
   8  11   5 491.833 402.068   7
   8  11   6-180.317 256.896   5
   8  11   6-3.66838 252.654   7
   8  11   6 68.7000 359.352   4
   8  11   7 163.566 198.641   5
   8  11   7 462.357 418.398   4
   8  11   8 328.024 410.102   4
  -8 -12  17 1105.64 836.423   7
   8  12 -16 1096.28 575.060   3
  -8 -12  16 1266.06 740.062   7
   8  12 -15 633.156 482.733   3
  -8 -12  15 510.386 702.996   7
   8  12 -14 426.866 363.539   3
   8  12 -13-878.921 525.560   3
   8  12 -12 75.2593 276.261   3
   8  12 -11-98.0891 347.494   3
   8  12 -10-273.365 384.234   3
   8  12  -9 609.367 494.358   3
   8  12  -8-86.7914 200.771   3
   8  12  -8 1998.86 909.426   5
   8  12  -7 452.559 434.355   5
   8  12  -7 461.321 246.677   4
   8  12  -7 304.737 211.244   3
   8  12  -6 1035.20 661.316   5
   8  12  -6 718.938 396.822   4
   8  12  -5-144.807 102.725   5
   8  12  -5 140.080 149.918   4
   8  12  -4 271.758 282.037   5
   8  12  -4 142.475 255.897   4
   8  12  -3 196.674 272.433   5
   8  12  -3-303.663 302.746   4
   8  12  -2 6.75472 202.219   5
   8  12  -2 193.706 142.889   4
   8  12  -1 189.476 267.407   5
   8  12  -1 260.397 328.123   4
   8  12   0 504.490 504.537   5
   8  12   0 560.477 519.482   4
   8  12   1-7.57918 101.680   5
   8  12   1-235.998 296.537   4
   8  12   2-15.1784 374.033   5
   8  12   2-54.8849 175.555   4
   8  12   3-239.063 295.890   5
   8  12   3 674.508 632.769   4
   8  12   3-246.406 318.997   7
   8  12   4 673.999 470.213   5
   8  12   4 781.494 505.836   4
   8  12   4 480.451 506.345   7
   8  12   5 204.666 274.788   5
   8  12   5 276.096 302.969   4
   8  12   5 333.452 365.782   7
   8  12   6 277.603 277.430   5
   8  12   6 1354.12 761.617   4
   8  13 -16 312.441 531.125   3
   8  13 -15 689.058 463.679   3
   8  13 -14 971.359 591.375   3
   8  13 -13-510.332 424.983   3
   8  13 -12 97.6387 212.031   3
   8  13 -11-6.68450 120.333   3
   8  13 -10 219.509 203.611   3
   8  13  -9 225.914 264.642   3
   8  13  -9 364.452 203.646   5
   8  13  -8 321.834 327.286   3
   8  13  -8 1730.39 848.560   5
   8  13  -7 407.004 610.196   5
   8  13  -7 54.8890 135.182   3
   8  13  -6-129.432 239.336   5
   8  13  -6-19.0119 269.955   4
   8  13  -5-425.910 405.765   5
   8  13  -5-125.344 206.811   4
   8  13  -4-476.823 425.883   5
   8  13  -4-7.26095 271.305   4
   8  13  -3 582.779 467.941   5
   8  13  -3 666.527 424.192   4
   8  13  -2-423.835 401.106   5
   8  13  -2 537.564 428.542   4
   8  13  -1 1393.32 667.537   5
   8  13  -1 1819.41 792.367   4
   8  13   0 661.059 470.911   5
   8  13   0 1015.29 593.743   4
   8  13   1-397.429 397.884   5
   8  13   1-58.6856 295.245   4
   8  13   2 259.002 318.053   5
   8  13   2 804.794 603.089   4
   8  13   2 507.547 417.710   7
   8  13   3-418.735 391.280   5
   8  13   3 397.305 267.140   4
   8  13   3 454.116 416.418   7
   8  13   4 51.1627 162.573   5
   8  13   4 219.290 364.835   4
   8  13   4 510.908 431.886   7
   8  13   5-549.007 447.979   7
   8  14 -16 254.336 258.938   3
   8  14 -15 658.992 554.762   3
   8  14 -14 297.455 347.521   3
   8  14 -13 299.910 347.134   3
   8  14 -12-195.358 293.711   3
   8  14 -11 196.370 290.381   3
   8  14 -10-233.774 312.238   3
   8  14  -9 182.345 279.754   3
   8  14  -9-238.563 325.835   5
   8  14  -8 311.075 177.144   3
   8  14  -8 46.8854 248.210   5
   8  14  -7-155.936 261.198   5
   8  14  -6 566.636 436.417   5
   8  14  -6 447.986 360.808   4
   8  14  -5 292.189 427.755   5
   8  14  -5-679.352 460.119   4
   8  14  -4 78.0231 203.579   5
   8  14  -4 144.622 247.795   4
   8  14  -3 291.442 339.112   5
   8  14  -3 437.915 408.446   4
   8  14  -2-357.013 377.519   5
   8  14  -2-82.6953 189.797   4
   8  14  -1-56.6356 178.525   5
   8  14  -1 661.055 546.286   4
   8  14   0 39.4754 153.211   5
   8  14   0 3.63681 95.9506   4
   8  14   1-366.520 379.236   5
   8  14   1 582.161 478.570   4
   8  14   1 352.095 381.608   7
   8  14   2 507.589 450.351   5
   8  14   2 586.202 552.537   4
   8  14   2 85.0510 210.237   7
   8  14   3-657.193 497.669   5
   8  14   3-131.132 243.016   7
   8  14   4-44.3735 165.418   7
   8  15 -15 3.01137 209.546   3
   8  15 -14 1376.40 761.687   3
   8  15 -13 747.092 554.597   3
   8  15 -12 298.563 363.888   3
   8  15 -11 393.440 249.429   3
   8  15 -10 1565.84 802.211   3
   8  15  -9 857.914 653.441   3
   8  15  -9 1140.37 703.666   5
   8  15  -8-128.402 248.358   5
   8  15  -8-259.968 346.766   3
   8  15  -7-150.261 262.284   5
   8  15  -6-72.8881 197.014   5
   8  15  -5 579.616 566.787   5
   8  15  -5 228.766 482.943   4
   8  15  -4-298.358 360.985   5
   8  15  -4 481.342 458.997   4
   8  15  -3 319.918 368.470   5
   8  15  -3-254.850 314.231   4
   8  15  -2-455.912 436.540   5
   8  15  -2-286.711 337.271   4
   8  15  -1 122.502 232.731   5
   8  15  -1-105.689 218.125   4
   8  15   0-299.304 351.950   5
   8  15   0 85.1748 203.040   4
   8  15   1-610.078 492.989   5
   8  15   1 295.460 372.212   7
   8  16  -3 0.94355 529.438   4
  -9  15   4-256.200 327.727   7
  -9  15   3-136.634 236.823   7
  -9  15   2-48.1611 143.532   1
  -9  15   2-167.392 257.253   7
  -9  15   1 567.000 600.701   1
  -9  15   1 868.012 578.694   7
  -9  15   0-131.997 216.107   1
  -9  15  -1 437.742 499.731   1
  -9  15  -2 97.5167 190.966   1
  -9  15  -3 384.547 366.920   3
  -9  15  -3 257.114 303.167   1
  -9  15  -4 1184.31 652.108   3
  -9  15  -5-6.12863 99.4619   3
  -9  15  -6 105.306 266.370   3
  -9  15  -7-260.342 325.174   3
  -9  14   7 42.1105 173.967   7
  -9  14   6-371.700 381.554   7
  -9  14   5 61.1865 158.814   1
  -9  14   5-703.868 516.656   7
  -9  14   4 244.877 405.301   1
  -9  14   4 187.212 424.980   7
  -9  14   3 22.6416 216.145   1
  -9  14   3 422.377 375.913   7
  -9  14   2 163.029 169.790   7
  -9  14   2-460.539 392.060   1
  -9  14   1 104.049 397.250   1
  -9  14   1-321.951 326.933   7
  -9  14   0 201.757 416.610   1
  -9  14  -1-123.413 217.558   1
  -9  14  -2 20.9398 269.428   1
  -9  14  -2-137.892 214.985   3
  -9  14  -3 2023.42 874.785   1
  -9  14  -3 671.323 472.911   3
  -9  14  -4 268.949 304.686   3
  -9  14  -4 1008.85 623.187   1
  -9  14  -5-260.900 304.531   3
  -9  14  -6 343.667 224.947   3
  -9  14  -7-376.331 370.981   3
  -9  14  -8-1175.54 648.010   3
  -9  14  -9 503.350 597.188   3
  -9  13   9 503.376 510.845   7
  -9  13   8 165.443 266.033   7
  -9  13   7-786.262 545.861   7
  -9  13   7 21.2433 113.062   1
  -9  13   6-105.339 218.563   7
  -9  13   6 249.088 411.159   1
  -9  13   5-339.815 338.745   1
  -9  13   5 207.771 259.224   7
  -9  13   4 146.706 221.141   1
  -9  13   4 358.368 358.057   7
  -9  13   3-87.7511 185.958   1
  -9  13   3-111.518 202.099   7
  -9  13   2-301.771 237.566   1
  -9  13   2-429.668 365.687   7
  -9  13   1 120.952 275.602   1
  -9  13   1 61.2855 232.653   7
  -9  13   0 328.032 307.852   7
  -9  13   0-74.0216 172.338   1
  -9  13  -1 113.892 221.700   1
  -9  13  -1 263.821 241.691   3
  -9  13  -2 80.0109 281.266   3
  -9  13  -2-90.0370 185.355   1
  -9  13  -3 198.022 441.417   1
  -9  13  -3 14.2221 116.194   3
  -9  13  -4 126.795 211.664   3
  -9  13  -4 0.78297 137.780   1
  -9  13  -5 342.503 328.771   1
  -9  13  -5-248.080 286.939   3
  -9  13  -6-425.162 376.253   3
  -9  13  -7 131.415 214.323   3
  -9  13  -8-228.840 287.534   3
  -9  13  -9-44.1800 154.468   3
  -9  13 -10 129.294 291.560   3
  -9  13 -11 873.408 576.619   3
  -9  12  11 231.368 321.377   7
  -9  12  10 628.174 510.405   7
  -9  12   9-477.087 432.339   7
  -9  12   8 449.925 325.214   7
  -9  12   7 184.379 330.494   7
  -9  12   6-725.255 482.672   1
  -9  12   6 216.133 237.228   7
  -9  12   5-0.79118 299.070   7
  -9  12   5 379.139 482.278   1
  -9  12   4 255.553 323.918   7
  -9  12   4-614.202 440.699   1
  -9  12   3 823.091 594.841   1
  -9  12   3 650.294 433.792   7
  -9  12   2 1276.66 679.138   1
  -9  12   2 2230.67 796.150   7
  -9  12   1-417.870 364.388   1
  -9  12   1-53.2655 181.086   7
  -9  12   0-286.325 216.304   3
  -9  12   0 112.276 251.507   1
  -9  12   0 126.794 127.024   7
  -9  12  -1-65.1691 314.897   3
  -9  12  -1-185.438 227.701   7
  -9  12  -1-553.093 416.412   1
  -9  12  -2 658.909 459.709   1
  -9  12  -2 759.163 523.207   3
  -9  12  -3 546.989 396.730   1
  -9  12  -3 549.262 382.778   3
  -9  12  -4 95.2030 185.848   1
  -9  12  -4 350.885 282.577   3
  -9  12  -5 352.116 419.189   1
  -9  12  -5 85.8093 175.223   3
  -9  12  -6 1252.22 661.647   1
  -9  12  -6 1868.29 710.714   3
  -9  12  -7-242.113 291.628   3
  -9  12  -8 94.6538 139.483   3
  -9  12  -9 1342.45 899.833   3
  -9  12 -10 2201.99 909.066   3
  -9  12 -11 968.475 655.166   3
  -9  12 -12-483.979 433.436   3
  -9  11  12-406.883 424.025   7
  -9  11  11-224.577 307.252   7
  -9  11  10 940.992 668.206   7
  -9  11   9-268.308 321.157   7
  -9  11   8 251.766 309.429   7
  -9  11   7-182.682 255.154   7
   9 -11  -6-321.866 314.413   2
  -9  11   6 851.754 563.668   7
  -9  11   5-183.312 240.209   7
   9 -11  -5-0.70434 214.367   2
  -9  11   4 56.8513 148.440   7
  -9  11   4-233.014 280.817   1
   9 -11  -4-56.5731 134.587   2
   9 -11  -3 323.322 335.370   2
  -9  11   3 153.792 339.091   7
  -9  11   3-47.8797 154.069   1
  -9  11   2 213.232 319.552   1
   9 -11  -2 411.617 303.426   2
  -9  11   2-231.055 251.201   7
  -9  11   1 690.006 602.199   1
   9 -11  -1 520.386 363.900   2
  -9  11   1 766.378 442.954   3
  -9  11   1-40.0121 200.083   7
  -9  11   0 340.998 279.411   1
  -9  11   0 815.691 439.465   3
  -9  11   0 796.799 442.461   7
  -9  11  -1 1349.19 734.391   1
  -9  11  -1 751.928 374.609   3
  -9  11  -1 1110.40 499.634   7
  -9  11  -2 22.2448 150.186   3
  -9  11  -2 293.872 205.798   1
  -9  11  -3 972.250 523.617   1
  -9  11  -3 736.278 401.795   3
  -9  11  -4 557.349 422.457   1
  -9  11  -4-210.699 222.776   3
  -9  11  -5 306.668 360.753   1
  -9  11  -5 646.093 427.470   3
  -9  11  -6 179.492 271.532   1
  -9  11  -6 634.492 440.014   3
  -9  11  -7-40.8628 267.722   3
  -9  11  -8-169.209 242.871   3
  -9  11  -9-24.1868 315.593   3
  -9  11 -10 257.719 384.345   3
  -9  11 -11 212.585 421.974   3
  -9  11 -12 869.912 577.503   3
  -9  11 -13-480.368 432.296   3
  -9  10  14 443.673 566.798   7
  -9  10  13 536.201 480.417   7
  -9  10  12 215.622 304.538   7
  -9  10  11-1079.61 641.539   7
  -9  10  10 256.088 428.799   7
  -9  10   9-244.387 297.097   7
  -9  10   8-177.925 341.155   7
  -9  10   7 900.124 537.143   7
   9 -10  -6 1728.42 716.807   2
  -9  10   6 3449.27 1012.63   7
   9 -10  -5-231.585 265.303   2
  -9  10   5-204.586 204.313   7
  -9  10   4-263.508 266.308   7
   9 -10  -4 3.38360 206.194   2
  -9  10   3-349.471 329.333   1
  -9  10   3-242.438 250.572   7
   9 -10  -3 380.317 375.998   2
   9 -10  -2 559.273 410.305   2
  -9  10   2 364.980 263.641   3
  -9  10   2 17.6973 197.470   7
  -9  10   2 818.806 561.192   1
   9 -10  -1 46.5759 305.899   2
  -9  10   1 23.2561 91.2732   3
  -9  10   1 273.541 195.772   7
  -9  10   1 10.5266 101.880   1
  -9  10   0-9.77717 191.377   1
   9 -10   0 314.453 269.245   2
  -9  10   0 185.317 255.010   3
  -9  10   0 14.2851 67.2391   7
  -9  10  -1 1079.84 573.905   1
  -9  10  -1 1127.08 464.075   3
  -9  10  -1 707.934 391.858   7
  -9  10  -2 1093.31 609.144   1
  -9  10  -2 1373.50 511.690   3
  -9  10  -3 810.642 373.768   3
  -9  10  -3-477.754 374.249   1
  -9  10  -4 41.7643 154.915   1
  -9  10  -4-74.6954 329.819   3
  -9  10  -5 619.569 386.118   1
  -9  10  -5 121.162 119.567   3
  -9  10  -6 1914.64 758.396   1
  -9  10  -6 2237.16 748.284   3
  -9  10  -7 1391.49 634.349   1
  -9  10  -7-72.0437 233.088   3
  -9  10  -8 349.124 416.735   3
  -9  10  -9 124.127 247.369   3
  -9  10 -10 453.704 537.165   3
  -9  10 -11 285.305 554.366   3
  -9  10 -12 67.4307 179.019   3
  -9  10 -13 973.461 650.740   3
  -9  10 -14 69.8141 190.206   3
  -9   9  15-508.594 480.937   7
  -9   9  14 484.195 509.268   7
  -9   9  13 21.3931 157.605   7
  -9   9  12 358.736 382.054   7
  -9   9  11 67.4233 200.717   7
  -9   9  10 598.116 452.661   7
  -9   9   9-1016.62 570.923   7
  -9   9   8 114.081 201.539   7
  -9   9   7 797.594 483.555   7
   9  -9  -6 126.676 303.119   2
  -9   9   6 316.769 230.957   7
   9  -9  -5-57.3502 197.509   2
  -9   9   5 154.965 193.597   7
  -9   9   4 351.663 300.389   7
   9  -9  -4-389.599 332.305   2
  -9   9   3 287.217 211.506   3
  -9   9   3 711.055 400.004   7
   9  -9  -3 113.333 131.512   2
  -9   9   2 238.724 145.877   3
  -9   9   2 129.505 100.705   7
   9  -9  -2 50.1860 163.087   2
   9  -9  -1-64.4439 190.657   2
  -9   9   1-315.755 323.078   3
  -9   9   1-0.48649 147.621   7
  -9   9   1 68.5813 233.986   1
   9  -9   0 348.275 364.813   2
  -9   9   0-107.221 149.448   7
  -9   9   0 108.267 155.762   3
  -9   9   0-117.244 253.127   1
  -9   9  -1 1920.69 738.095   1
  -9   9  -1 2310.93 634.987   7
  -9   9  -1 1983.42 634.841   3
  -9   9  -2 1991.63 768.072   1
  -9   9  -2 2030.83 652.112   3
  -9   9  -3 22.5016 117.207   1
  -9   9  -3-106.833 309.956   3
  -9   9  -4 890.882 498.742   1
  -9   9  -4 800.537 441.163   3
  -9   9  -5 2864.44 841.429   3
  -9   9  -5 3330.54 955.451   1
  -9   9  -6 2220.29 798.294   3
  -9   9  -6 1243.02 629.340   1
  -9   9  -7 1323.15 606.185   3
  -9   9  -7 1158.99 597.974   1
  -9   9  -8 708.045 483.214   3
  -9   9  -9 279.135 248.218   3
  -9   9 -10 510.860 489.979   3
  -9   9 -11 707.848 463.415   3
  -9   9 -12 1036.31 620.847   3
  -9   9 -13-45.8549 162.763   3
  -9   9 -14 561.981 521.593   3
  -9   9 -15 977.481 649.316   3
  -9   8  16-904.037 629.742   7
  -9   8  15 325.875 406.981   7
  -9   8  14 920.653 670.370   7
  -9   8  13-259.827 323.316   7
  -9   8  12-281.122 329.302   7
  -9   8  11 281.744 268.071   7
  -9   8  10-114.581 208.789   7
  -9   8   9 1425.21 669.674   7
  -9   8   8 2228.41 788.570   7
  -9   8   7-141.058 207.100   7
  -9   8   6-417.883 394.707   7
   9  -8  -5 469.677 385.308   2
  -9   8   5 200.564 229.238   7
   9  -8  -4 1046.45 525.697   2
  -9   8   4 1297.77 556.797   7
  -9   8   3 1567.44 477.277   3
  -9   8   3 959.288 443.064   7
   9  -8  -3 310.108 210.784   2
  -9   8   2 13140.1 1407.59   3
  -9   8   2 14720.8 1686.73   7
   9  -8  -2 13730.1 1890.63   2
   9  -8  -1 2217.86 723.716   2
  -9   8   1 2135.10 629.213   7
  -9   8   1 4091.04 813.280   3
  -9   8   0 7987.77 1177.33   3
   9  -8   0 8000.57 1407.16   2
  -9   8   0 7355.36 1093.71   7
  -9   8   0 8098.77 1437.21   1
   9  -8   1 1947.91 714.953   2
  -9   8  -1 1566.02 490.039   7
  -9   8  -1 1794.74 633.228   3
  -9   8  -1 2609.56 865.252   1
  -9   8  -2 1970.84 742.598   1
  -9   8  -2 2494.61 574.357   7
  -9   8  -2 1947.00 614.959   3
  -9   8  -3-189.771 257.930   3
  -9   8  -3-683.149 428.214   1
  -9   8  -4 151.845 76.3240   3
  -9   8  -4 428.535 362.745   1
  -9   8  -5 391.702 315.056   3
  -9   8  -5-174.544 355.813   1
  -9   8  -6 1705.22 645.632   3
  -9   8  -6 1937.90 720.462   1
  -9   8  -7 1590.52 641.908   3
  -9   8  -7 2033.58 721.666   1
  -9   8  -7 1818.81 532.008   6
  -9   8  -8 695.391 421.851   3
  -9   8  -8 412.578 283.384   1
  -9   8  -8 496.801 273.386   6
  -9   8  -9 2843.99 911.864   3
  -9   8  -9 1786.98 580.469   6
  -9   8 -10-4.27562 225.345   3
  -9   8 -10 343.890 219.700   6
  -9   8 -11 136.961 290.795   3
  -9   8 -11-6.24997 73.8371   6
  -9   8 -12 89.4972 234.214   3
  -9   8 -12 116.683 253.599   6
  -9   8 -13 111.117 252.204   3
  -9   8 -13 496.827 386.099   6
  -9   8 -14-157.935 257.904   3
  -9   8 -14 4.51228 108.334   6
  -9   8 -15-393.221 393.801   3
  -9   8 -15 6.88277 87.5532   6
  -9   8 -16 283.737 343.189   3
  -9   8 -16-325.479 318.410   6
  -9   8 -17-662.501 459.836   6
  -9   8 -18-397.041 369.107   6
  -9   7  17-144.493 269.181   7
  -9   7  16 209.112 312.080   7
  -9   7  15-140.405 262.541   7
  -9   7  14-457.144 422.067   7
  -9   7  13 233.307 276.708   7
  -9   7  12 588.782 409.767   7
  -9   7  11 652.213 453.368   7
  -9   7  10 1199.75 559.876   7
  -9   7   9-184.981 396.775   7
  -9   7   8-196.765 210.415   7
  -9   7   7 309.882 221.589   7
  -9   7   6-90.3359 309.926   7
   9  -7  -5 666.750 399.439   2
  -9   7   5 1536.11 587.713   7
  -9   7   4 4339.70 715.866   3
   9  -7  -4 4057.90 1044.82   2
  -9   7   4 3552.66 862.444   7
  -9   7   3 952.168 450.048   7
  -9   7   3 1105.81 382.236   3
   9  -7  -3-10.7755 253.052   2
  -9   7   2-202.543 277.535   7
  -9   7   2-136.393 173.529   3
   9  -7  -2-191.741 414.831   2
   9  -7  -1 5039.99 1134.62   2
  -9   7   1 6368.97 971.790   3
  -9   7   1 5644.73 941.933   7
  -9   7   0 6320.83 1010.73   3
   9  -7   0 7109.67 1328.48   2
  -9   7   0 6052.20 945.196   7
  -9   7  -1 352.067 284.051   3
   9  -7   1 425.695 284.679   2
  -9   7  -1-84.1713 179.729   7
  -9   7  -1 607.655 347.159   1
  -9   7  -2-219.169 367.605   1
  -9   7  -2 9.30127 223.812   3
  -9   7  -2-163.343 199.207   7
  -9   7  -3 4961.51 988.729   3
  -9   7  -3 4051.85 996.185   1
  -9   7  -4 7786.59 1266.99   3
  -9   7  -4 7496.12 1380.67   1
  -9   7  -4 6661.70 850.367   6
  -9   7  -5 7183.72 1271.20   3
  -9   7  -5 9184.50 1507.65   1
  -9   7  -5 7433.48 961.764   6
  -9   7  -6 3922.15 968.386   3
  -9   7  -6 3736.48 979.535   1
  -9   7  -6 4158.46 755.657   6
  -9   7  -7 744.973 478.404   1
  -9   7  -7 743.910 389.397   3
  -9   7  -7 434.772 277.089   6
  -9   7  -8 80.4534 188.032   3
  -9   7  -8 667.316 449.872   1
  -9   7  -8 587.221 324.113   6
  -9   7  -9 55.1849 272.821   3
  -9   7  -9-355.039 256.777   6
  -9   7 -10 134.384 105.402   3
  -9   7 -10 216.743 274.266   6
  -9   7 -11 217.094 258.791   3
  -9   7 -11 178.480 264.176   6
  -9   7 -12 481.585 486.965   3
  -9   7 -12 715.541 401.639   6
  -9   7 -13-173.659 254.055   3
  -9   7 -13-95.5363 292.308   6
  -9   7 -14 2.53235 130.291   3
  -9   7 -14-124.052 195.164   6
  -9   7 -15-100.066 246.987   3
  -9   7 -15 315.668 171.961   6
  -9   7 -16 47.3495 215.578   3
  -9   7 -16 5.87276 139.626   6
  -9   7 -17 0.78042 123.716   6
  -9   7 -18-568.420 444.154   6
  -9   6  18 861.527 619.403   7
  -9   6  17 929.602 693.122   7
  -9   6  16 201.923 312.556   7
  -9   6  15 424.950 406.151   7
  -9   6  14 488.614 426.104   7
  -9   6  13 367.735 360.758   7
  -9   6  12 635.783 434.544   7
  -9   6  11 2916.64 970.839   7
  -9   6  10 7476.70 1458.32   7
  -9   6   9 48.1491 271.591   7
  -9   6   8 981.593 486.468   7
  -9   6   7 5.12139 89.3471   7
  -9   6   6 201.562 223.284   7
  -9   6   5 832.730 366.974   7
   9  -6  -4-94.5599 310.272   2
  -9   6   4 287.033 231.378   7
  -9   6   4 246.656 176.805   3
  -9   6   3 75.3841 214.198   7
   9  -6  -3-130.438 285.936   2
  -9   6   3 62.5951 84.3372   3
  -9   6   2 6885.86 931.633   3
  -9   6   2 6153.57 985.860   7
   9  -6  -2 5470.73 1168.61   2
   9  -6  -1 9368.99 1514.74   2
  -9   6   1 9152.91 1126.62   3
  -9   6   1 6707.83 976.464   7
  -9   6   0 991.058 389.682   3
   9  -6   0 1109.97 625.050   2
  -9   6   0 1964.39 511.702   7
  -9   6  -1 1126.30 438.760   3
   9  -6   1 789.978 453.242   2
  -9   6  -1 908.068 475.361   1
  -9   6  -1 920.696 338.237   7
  -9   6  -1 1103.39 277.370   6
  -9   6  -2 11856.2 1432.91   3
  -9   6  -2 11880.8 1085.62   7
  -9   6  -2 12915.4 1767.20   1
  -9   6  -2 11923.5 997.276   6
  -9   6  -3 1957.72 434.311   6
  -9   6  -3 2825.62 817.259   1
  -9   6  -3 2668.84 712.472   3
  -9   6  -4 4519.87 930.334   3
  -9   6  -4 5410.87 772.076   6
  -9   6  -5 4256.51 734.509   6
  -9   6  -5 3699.68 871.715   3
  -9   6  -5 3649.91 944.907   1
  -9   6  -6 377.388 285.473   6
  -9   6  -6 84.5666 194.860   1
  -9   6  -6-86.8685 334.018   3
  -9   6  -7-193.603 235.111   6
  -9   6  -7 46.8809 262.492   3
  -9   6  -7 323.212 291.775   1
  -9   6  -8 486.309 286.486   6
  -9   6  -8 277.516 249.702   3
  -9   6  -8 686.214 455.475   1
  -9   6  -9 190.484 160.138   6
  -9   6  -9 629.825 460.843   3
  -9   6 -10 324.587 295.984   6
  -9   6 -10-104.803 218.509   3
  -9   6 -11 54.2030 161.540   6
  -9   6 -11-64.5030 315.802   3
  -9   6 -12 1153.02 510.106   6
  -9   6 -12-219.561 307.172   3
  -9   6 -13 1050.70 521.318   6
  -9   6 -13 633.382 471.697   3
  -9   6 -14 286.484 374.152   6
  -9   6 -14-607.691 463.744   3
  -9   6 -15 529.747 349.833   6
  -9   6 -15-146.441 249.713   3
  -9   6 -16 320.347 496.912   3
  -9   6 -16 15.3108 94.7783   6
  -9   6 -17 390.434 453.938   3
  -9   6 -17 633.183 449.773   6
  -9   6 -18-299.894 323.512   6
  -9   5  19 1152.98 762.500   7
  -9   5  18 613.185 498.737   7
  -9   5  17-90.5980 219.227   7
  -9   5  16-349.049 378.169   7
  -9   5  15 149.816 338.766   7
  -9   5  14 251.632 181.346   7
  -9   5  13 427.438 127.382   7
  -9   5  12 402.769 476.918   7
  -9   5  11 1391.76 662.297   7
  -9   5  10 274.210 235.143   7
  -9   5   9 6185.90 1251.92   7
  -9   5   8 4772.59 1067.83   7
   9  -5  -7 69.3634 128.493   5
  -9   5   7 162.630 373.035   7
   9  -5  -6 1973.75 458.331   5
  -9   5   6 1884.18 606.461   7
   9  -5  -5 272.946 162.377   5
  -9   5   5 174.727 144.392   7
  -9   5   5 412.542 164.766   3
  -9   5   4 11366.1 1023.15   3
   9  -5  -4 12759.2 1278.44   5
  -9   5   4 12768.0 1489.91   7
   9  -5  -4 12272.6 1800.61   2
   9  -5  -3 1642.40 497.207   5
  -9   5   3 1408.37 452.090   7
   9  -5  -3 1477.24 594.374   2
  -9   5   3 1752.27 431.678   3
  -9   5   2 2071.49 500.523   3
   9  -5  -2 1732.42 499.253   5
  -9   5   2 1685.59 504.014   7
   9  -5  -2 1914.11 671.040   2
  -9   5   1 100.654 68.1351   6
  -9   5   1 207.301 182.167   3
   9  -5  -1-123.903 192.117   5
  -9   5   1 86.6385 121.074   7
   9  -5  -1 27.9365 181.059   2
  -9   5   0 606.959 190.880   6
   9  -5   0 497.108 394.915   2
   9  -5   0 1073.66 473.376   5
  -9   5   0 523.134 290.241   3
  -9   5   0 947.421 317.946   7
  -9   5  -1 60.6804 49.9544   6
   9  -5   1-284.795 276.051   2
  -9   5  -1-63.6204 179.752   3
  -9   5  -1 108.621 121.050   7
  -9   5  -2 1068.97 308.906   6
   9  -5   2 1190.21 455.857   5
  -9   5  -2 529.952 256.608   3
  -9   5  -2 771.723 255.722   7
  -9   5  -2 728.144 373.339   1
  -9   5  -3 880.023 415.034   1
  -9   5  -3 1120.12 382.932   6
  -9   5  -3 1163.93 441.331   3
  -9   5  -4 3241.75 615.251   6
  -9   5  -4 3137.99 839.850   1
  -9   5  -5-190.363 59.7883   6
  -9   5  -5-215.751 375.155   1
  -9   5  -6 487.409 290.859   6
  -9   5  -6 218.212 220.230   1
  -9   5  -7 496.537 256.897   6
  -9   5  -7 1007.01 551.295   1
  -9   5  -8 781.012 390.320   1
  -9   5  -8 292.365 215.242   6
  -9   5  -9-129.424 162.386   6
  -9   5 -10 457.122 323.473   6
  -9   5 -11 212.736 154.074   6
  -9   5 -12 44.5350 153.007   6
  -9   5 -13 422.022 386.772   6
  -9   5 -14 79.8363 166.308   6
  -9   5 -15 321.323 308.331   6
  -9   5 -16 247.327 279.723   6
  -9   5 -17-160.364 241.753   6
  -9   5 -18 1159.69 640.907   6
  -9   4  19-492.314 461.868   7
  -9   4  18-709.572 546.724   7
  -9   4  17 700.238 631.529   7
  -9   4  16 155.847 120.399   7
  -9   4  15 453.823 407.374   7
  -9   4  14 383.004 514.633   7
  -9   4  13 149.546 220.602   7
  -9   4  12-13.5655 158.135   7
  -9   4  11-0.66988 269.430   7
  -9   4  10 1589.67 638.955   7
  -9   4   9 907.468 445.575   7
   9  -4  -8 4945.41 762.643   5
  -9   4   8 6397.40 1195.85   7
   9  -4  -7 2381.25 550.490   5
  -9   4   7 1289.28 575.221   7
   9  -4  -6 5266.71 814.660   5
  -9   4   6 4378.35 939.914   7
   9  -4  -5 120.032 164.772   5
  -9   4   5 286.513 299.556   7
  -9   4   5 80.4921 97.7806   3
   9  -4  -4 7071.10 1015.34   5
  -9   4   4 6922.75 771.331   3
  -9   4   4 7667.90 1112.97   7
   9  -4  -4 6195.13 1275.99   2
  -9   4   3 256.907 193.463   3
   9  -4  -3 285.431 159.456   5
  -9   4   3 298.866 224.647   7
   9  -4  -3 527.499 326.372   2
   9  -4  -2 3919.16 780.055   5
  -9   4   2 2814.42 561.505   3
  -9   4   2 3995.51 714.799   7
   9  -4  -2 2015.36 787.137   2
   9  -4  -1 3387.98 746.255   5
  -9   4   1 2518.26 559.970   3
  -9   4   1 3078.59 589.481   7
   9  -4  -1 2496.36 795.193   2
  -9   4   0-33.0553 83.7912   6
   9  -4   0-137.466 309.902   2
   9  -4   0 188.843 91.9198   5
  -9   4   0-66.4624 116.578   7
  -9   4  -1 187.555 131.509   6
   9  -4   1-87.3368 134.359   5
   9  -4   1-189.340 375.317   2
  -9   4  -1 398.947 182.482   7
  -9   4  -2 2276.22 469.414   6
   9  -4   2 3683.11 832.006   5
  -9   4  -2 2662.94 389.444   7
  -9   4  -2 2584.95 750.229   1
  -9   4  -3 2013.09 496.919   6
   9  -4   3 2349.14 667.978   5
  -9   4  -3 2169.42 693.630   1
   9  -4   4 9906.69 1390.54   5
  -9   4  -4 8301.19 1344.22   1
  -9   4  -4 9412.76 1082.70   6
   9  -4   5 5286.59 1041.66   5
  -9   4  -5 5952.27 1149.93   1
  -9   4  -5 5831.78 891.795   6
  -9   4  -6 755.214 424.197   1
  -9   4  -6 942.223 421.136   6
  -9   4  -7 2367.89 622.852   6
  -9   4  -7 1857.96 650.753   1
  -9   4  -8-32.5240 197.956   6
  -9   4  -8 193.486 251.079   1
  -9   4  -9-94.4524 122.629   6
  -9   4 -10 54.0363 233.729   6
  -9   4 -11-198.007 268.747   6
  -9   4 -12-99.3801 161.719   6
  -9   4 -13 62.1167 124.018   6
  -9   4 -14-164.106 222.870   6
  -9   4 -15-38.4480 139.380   6
  -9   4 -16 430.116 363.029   6
  -9   4 -17-0.77814 326.462   6
  -9   4 -18 93.6101 113.644   6
  -9   3  20-152.278 276.057   7
  -9   3  19 94.4369 174.331   7
  -9   3  18 932.377 686.086   7
  -9   3  17 247.499 291.956   7
  -9   3  16-174.138 388.276   7
  -9   3  15 1079.13 609.843   7
  -9   3  14 505.752 423.194   7
  -9   3  13 694.757 466.996   7
  -9   3  12 1354.74 591.476   7
  -9   3  11 1082.76 502.704   7
   9  -3 -10 2901.37 628.231   5
  -9   3  10 2675.76 785.897   7
   9  -3  -9 6779.86 956.036   5
  -9   3   9 9050.13 1454.28   7
   9  -3  -8 4820.34 802.444   5
  -9   3   8 5794.53 1128.88   7
   9  -3  -7-9.22730 139.769   5
  -9   3   7 43.6179 102.506   7
   9  -3  -6 915.505 344.857   5
  -9   3   6 988.784 423.648   7
  -9   3   6 938.697 222.251   3
  -9   3   5 436.541 182.867   3
  -9   3   5 33.0642 141.004   7
  -9   3   4 140.703 107.141   3
   9  -3  -4 162.514 195.725   2
  -9   3   4 113.684 172.014   7
   9  -3  -3 2795.95 656.947   5
  -9   3   3 2876.13 627.627   7
   9  -3  -3 2470.85 767.831   2
   9  -3  -2 3568.57 758.488   5
  -9   3   2 4136.48 705.002   7
   9  -3  -2 2226.30 746.758   2
   9  -3  -1 13563.1 1528.20   5
  -9   3   1 13620.5 1185.30   7
   9  -3  -1 14804.0 1883.80   2
   9  -3   0 410.205 247.871   2
  -9   3   0 372.499 185.152   7
   9  -3   1 2832.85 690.739   5
   9  -3   1 3802.61 961.631   2
  -9   3  -1 2595.39 409.519   7
   9  -3   2 2014.82 614.223   5
  -9   3  -2 1638.12 253.432   7
   9  -3   3 141.621 198.272   5
  -9   3  -3 44.0211 171.127   1
  -9   3  -4-229.454 270.670   1
  -9   3  -4-166.617 173.867   6
   9  -3   4 127.534 213.688   5
  -9   3  -5 4019.01 746.528   6
   9  -3   5 3044.03 843.455   5
  -9   3  -5 4062.50 927.758   1
  -9   3  -6 4487.76 849.161   6
   9  -3   6 5894.66 1143.47   5
  -9   3  -6 5921.70 1113.06   1
  -9   3  -7 695.945 331.285   6
   9  -3   7 732.177 434.983   5
  -9   3  -7 944.267 424.237   1
  -9   3  -8-34.9954 127.130   6
  -9   3  -8-34.3079 216.495   1
  -9   3  -9 1036.55 473.892   6
  -9   3 -10 1793.85 609.537   6
  -9   3 -11 802.288 443.884   6
  -9   3 -12 282.552 320.494   6
  -9   3 -13 941.777 486.430   6
  -9   3 -14-18.3532 102.451   6
  -9   3 -15-71.7262 144.612   6
  -9   3 -16 409.760 358.665   6
  -9   3 -17-425.952 379.749   6
  -9   2  20 55.4400 194.899   7
  -9   2  19 125.211 237.666   7
  -9   2  18 257.980 119.115   7
  -9   2  17 168.612 156.589   7
  -9   2  16 1024.92 651.343   7
  -9   2  15 226.000 108.859   7
  -9   2  14 1742.35 741.987   7
  -9   2  13 566.976 447.493   7
  -9   2  12 1596.59 746.576   7
   9  -2 -11 3140.83 688.565   5
  -9   2  11 2725.14 817.593   7
   9  -2 -10 7117.22 1036.72   5
  -9   2  10 5026.20 1094.80   7
   9  -2  -9 1338.04 477.113   5
  -9   2   9 2099.72 700.530   7
   9  -2  -8 9681.91 1221.48   5
  -9   2   8 10753.4 1490.14   7
   9  -2  -7 5555.53 938.112   5
  -9   2   7 6208.88 1085.23   7
  -9   2   6 50.0195 74.0735   3
   9  -2  -6 0.77293 153.498   5
   9  -2  -5 672.912 286.475   5
  -9   2   5 456.799 247.199   7
   9  -2  -4 5195.69 929.026   5
  -9   2   4 5090.88 858.651   7
   9  -2  -4 4791.98 1108.39   2
  -9   2   3 5271.09 819.150   7
   9  -2  -3 4807.78 894.344   5
   9  -2  -3 4622.78 1047.65   2
  -9   2   2 1193.01 353.342   7
   9  -2  -2 617.372 246.653   2
   9  -2  -1 1977.31 676.939   2
   9  -2  -1 1871.71 595.399   5
  -9   2   1 1672.75 386.675   7
   9  -2   0 1930.09 636.333   2
   9  -2   0 2667.08 693.107   5
  -9   2   0 2264.21 420.452   7
   9  -2   1 174.070 293.652   5
   9  -2   1 14.8322 221.239   2
  -9   2  -1 372.333 142.936   7
   9  -2   2-159.358 346.334   5
  -9   2  -2 136.956 64.9032   7
   9  -2   3 1625.44 583.779   5
  -9   2  -3 1336.97 519.741   1
  -9   2  -4 3498.89 851.360   1
   9  -2   4 2273.30 659.740   5
   9  -2   5 2877.14 788.813   5
  -9   2  -5 2828.40 760.135   1
   9  -2   6 1745.39 637.424   5
  -9   2  -6 1598.06 529.934   1
  -9   2  -7 5943.66 1049.57   6
   9  -2   7 8252.52 1368.19   5
  -9   2  -7 7602.10 1222.82   1
  -9   2  -8 3009.50 751.656   6
  -9   2  -8 4906.22 965.850   1
   9  -2   8 4917.53 1080.29   5
  -9   2  -9-384.247 282.497   6
   9  -2   9 503.493 340.486   5
  -9   2 -10 1223.23 516.330   6
  -9   2 -11 1962.17 683.197   6
  -9   2 -12 0.59011 198.087   6
  -9   2 -13 561.296 359.453   6
  -9   2 -14 187.586 242.564   6
  -9   2 -15 227.085 149.125   6
  -9   2 -16 61.8449 251.610   6
  -9   2 -17-232.314 290.179   6
  -9   1  21-75.9629 223.599   7
  -9   1  20-118.892 366.546   7
  -9   1  19 169.669 291.423   7
  -9   1  18 258.278 324.404   7
  -9   1  17-520.299 435.593   7
  -9   1  16 2654.25 920.429   7
  -9   1  15 1193.22 604.100   7
  -9   1  14-94.1916 137.437   7
   9  -1 -13 2195.28 612.945   5
  -9   1  13 1709.02 695.583   7
   9  -1 -12 15505.2 1603.39   5
  -9   1  12 17724.1 2168.94   7
   9  -1 -11-104.200 208.492   5
  -9   1  11 360.515 236.433   7
   9  -1 -10 1480.34 489.584   5
  -9   1  10 1526.72 597.353   7
   9  -1  -9 3026.92 725.515   5
  -9   1   9 1483.21 589.014   7
   9  -1  -8 15675.8 1639.54   5
  -9   1   8 16021.5 1798.83   7
   9  -1  -7 4247.70 868.706   5
  -9   1   7 3522.41 823.732   7
   9  -1  -6 1283.04 455.885   5
  -9   1   6 1501.05 492.492   7
   9  -1  -5 3856.77 821.395   5
  -9   1   5 2926.61 677.568   7
   9  -1  -4 2581.69 649.411   5
  -9   1   4 1929.61 529.317   7
   9  -1  -4 2707.42 820.466   2
   9  -1  -3 3464.79 808.662   5
  -9   1   3 3717.91 679.980   7
   9  -1  -3 2323.25 699.442   2
   9  -1  -2 1276.13 494.297   5
  -9   1   2 1199.75 366.406   7
   9  -1  -2 1790.71 641.590   2
   9  -1  -1-94.0684 255.893   2
   9  -1  -1-99.1296 177.363   5
  -9   1   1 116.878 132.864   7
   9  -1   0 1016.93 551.386   2
   9  -1   0 583.215 405.381   5
  -9   1   0 333.845 159.862   7
   9  -1   1 2779.95 740.464   5
  -9   1  -1 2677.37 384.734   7
   9  -1   1 3315.13 924.042   2
   9  -1   2 51.7570 141.006   5
   9  -1   3 412.154 214.308   5
  -9   1  -3 253.454 137.978   1
  -9   1  -4 123.304 138.397   1
   9  -1   4-223.709 243.808   5
   9  -1   5 813.214 465.407   5
  -9   1  -5 168.259 130.330   1
   9  -1   6 0.53523 146.576   5
  -9   1  -6-72.6862 221.427   1
   9  -1   7 1970.11 620.829   5
  -9   1  -7 1392.82 547.297   1
   9  -1   8 170.038 186.799   5
  -9   1  -8 902.368 440.294   1
  -9   1  -9 250.836 105.117   6
   9  -1   9 1310.83 535.065   5
  -9   1 -10 1205.29 577.088   6
   9  -1  10 801.664 483.032   5
  -9   1 -11 105.575 126.058   6
  -9   1 -12-10.3453 185.845   6
  -9   1 -13-42.5707 256.162   6
  -9   1 -14 407.558 354.083   6
  -9   1 -15 238.451 190.105   6
  -9   1 -16 9.22387 192.939   6
  -9   1 -17 264.855 380.756   6
  -9   0  21 250.007 430.367   7
  -9   0  20-94.3278 406.931   7
  -9   0  19 624.913 590.525   7
  -9   0  18 810.010 593.546   7
  -9   0  17-125.670 318.772   7
  -9   0  16 251.793 151.669   7
  -9   0  15 1810.66 779.393   7
  -9   0  14 334.748 186.477   7
   9   0 -14 5.89595 132.839   5
  -9   0  13 166.065 232.197   7
   9   0 -13 443.009 277.176   5
  -9   0  12 1883.19 722.538   7
   9   0 -12 1047.39 462.945   5
  -9   0  11-78.8197 238.747   7
   9   0 -11 99.6280 158.291   5
   9   0 -10 9339.51 1303.14   5
  -9   0  10 8793.30 1439.11   7
   9   0  -9 175.489 169.241   5
  -9   0   9 647.061 372.334   7
   9   0  -8 2015.09 599.398   5
  -9   0   8 2173.17 613.697   7
   9   0  -7 352.225 210.600   5
  -9   0   7 225.357 166.634   7
   9   0  -6 1656.97 612.881   5
  -9   0   6 1423.73 517.619   7
   9   0  -5 3216.01 776.124   5
  -9   0   5 2568.97 621.730   7
   9   0  -4 794.856 338.100   5
  -9   0   4 558.664 237.240   7
   9   0  -4 150.128 127.682   2
  -9   0   3 37.7842 49.6913   7
   9   0  -3 228.238 150.650   2
   9   0  -2 131.306 190.210   5
  -9   0   2 50.6446 66.6462   7
   9   0  -2-137.888 290.276   2
   9   0  -1 2546.67 795.202   2
   9   0  -1 2417.59 719.566   5
  -9   0   1 3158.25 546.529   7
   9   0   0 1754.70 660.632   2
   9   0   0 2091.41 703.929   5
  -9   0   0 1000.72 282.626   7
   9   0   1 2176.29 667.638   5
   9   0   1 1858.19 657.695   2
   9   0   2 1729.56 579.635   5
   9   0   3 3183.24 917.683   5
  -9   0  -3 2177.16 605.320   1
  -9   0  -4 70.9384 102.499   1
   9   0   4-85.8234 203.887   5
   9   0   5 2344.25 787.417   5
  -9   0  -5 1488.66 516.415   1
  -9   0  -6 461.229 277.888   1
   9   0   6 531.267 392.168   5
  -9   0  -7 1560.34 489.943   1
   9   0   7 868.086 475.664   5
  -9   0  -8 1124.50 440.290   1
   9   0   8 1167.77 551.125   5
   9   0   9 1918.49 687.385   5
   9   0  10 1592.29 684.087   5
  -9   0 -11 8547.45 1455.27   6
   9   0  11 8052.11 1454.54   5
  -9   0 -12 1734.40 687.564   6
  -9   0 -13 1499.15 615.534   6
  -9   0 -14 389.054 298.740   6
  -9   0 -15 362.093 338.184   6
  -9   0 -16-291.901 314.890   6
  -9   0 -17 313.845 352.425   6
  -9  -1  21 738.548 620.602   7
  -9  -1  20 1140.20 770.625   7
  -9  -1  19 848.050 534.879   7
  -9  -1  18 429.680 369.762   7
  -9  -1  17 593.828 452.983   7
  -9  -1  16 2404.10 871.765   7
   9   1 -16 3339.05 839.984   5
  -9  -1  15 1897.07 861.613   7
   9   1 -15 1970.00 661.142   5
  -9  -1  14 2779.60 936.055   7
   9   1 -14 1860.84 636.990   5
  -9  -1  13-349.730 405.113   7
   9   1 -13-344.468 323.596   5
  -9  -1  12-109.236 235.068   7
   9   1 -12 165.003 343.990   5
  -9  -1  11 2202.61 732.030   7
   9   1 -11 1823.29 603.032   5
  -9  -1  10-434.596 323.498   7
   9   1 -10 203.450 265.866   5
  -9  -1   9-44.6955 221.309   7
   9   1  -9 437.144 325.820   5
  -9  -1   8-198.329 309.473   7
   9   1  -8-195.061 202.838   5
  -9  -1   7-10.7899 161.407   7
   9   1  -7 389.613 203.696   5
  -9  -1   6 2431.13 641.417   7
   9   1  -6 1770.34 565.043   5
  -9  -1   5 2037.05 553.486   7
   9   1  -5 2161.69 731.835   2
   9   1  -5 2120.24 715.815   5
  -9  -1   4 217.584 271.826   7
   9   1  -4 33.5477 130.509   5
   9   1  -4-195.665 322.835   2
  -9  -1   3 2137.32 526.642   7
   9   1  -3 2006.26 628.030   5
   9   1  -3 941.997 440.803   2
  -9  -1   2 1946.90 482.502   7
   9   1  -2 2913.46 753.473   5
   9   1  -2 1496.27 601.901   2
   9   1  -1 2953.75 875.317   2
  -9  -1   1 3178.33 570.391   7
   9   1  -1 4453.54 957.628   5
   9   1   0 3147.52 858.334   2
  -9  -1   0 2265.80 454.714   7
   9   1   0 1007.96 525.446   5
   9   1   1 243.271 278.915   5
   9   1   2 1076.29 470.955   5
   9   1   3 5325.77 1101.00   5
  -9  -1  -3 3912.09 784.056   1
  -9  -1  -4 4728.65 862.167   1
   9   1   4 5453.78 1126.97   5
   9   1   5-17.3883 143.501   5
  -9  -1  -5-13.6521 90.9471   1
  -9  -1  -6 849.397 372.728   1
   9   1   6 620.019 452.397   5
   9   1   7 5016.73 1106.64   5
  -9  -1  -7 3832.91 758.312   1
   9   1   8 4953.03 1104.89   5
   9   1   9 401.611 402.547   5
   9   1  10 62.4223 387.024   5
   9   1  11 72.3740 155.750   5
  -9  -1 -12 845.019 483.796   6
   9   1  12 908.627 538.718   5
  -9  -1 -13 240.899 334.389   6
  -9  -1 -14 353.291 369.357   6
  -9  -1 -15 413.925 369.809   6
  -9  -1 -16 499.676 413.760   6
  -9  -2  22 249.381 359.126   7
  -9  -2  21 272.760 273.484   7
  -9  -2  20 259.689 522.805   7
  -9  -2  19 192.299 336.280   7
  -9  -2  18 10.8689 153.685   7
  -9  -2  17 801.905 616.230   7
  -9  -2  16-119.018 220.510   7
   9   2 -16 270.081 142.332   5
  -9  -2  15 400.857 279.102   7
   9   2 -15 479.022 329.633   5
  -9  -2  14 1781.33 744.600   7
   9   2 -14 1145.34 511.545   5
  -9  -2  13 3823.65 1028.68   7
   9   2 -13 4545.01 966.682   5
  -9  -2  12 3037.61 882.931   7
   9   2 -12 4239.96 949.200   5
  -9  -2  11 3595.30 968.607   7
   9   2 -11 2679.76 787.248   5
  -9  -2  10 744.680 341.150   7
   9   2 -10 1552.57 581.696   5
  -9  -2   9 3231.44 833.090   7
   9   2  -9 5112.61 1036.62   5
  -9  -2   8 258.691 218.525   7
   9   2  -8-80.7587 142.032   5
  -9  -2   7 241.641 293.525   7
   9   2  -7 463.328 385.152   5
  -9  -2   6 4214.03 866.743   7
   9   2  -6 4023.12 915.876   5
  -9  -2   5 165.060 186.634   7
   9   2  -5 219.634 246.968   5
   9   2  -5 457.317 420.010   2
  -9  -2   4 3197.91 686.823   7
   9   2  -4 3026.07 857.924   5
   9   2  -4 1695.40 633.221   2
  -9  -2   3 155.506 152.129   7
   9   2  -3-11.4529 185.464   5
   9   2  -3 53.2197 204.012   2
   9   2  -2 452.380 398.374   2
  -9  -2   2 717.025 301.017   7
   9   2  -2 675.893 491.586   5
   9   2  -1 872.577 457.112   2
  -9  -2   1 453.333 254.416   7
   9   2  -1 613.301 343.222   5
   9   2   0 2802.02 811.061   2
   9   2   0 2967.76 825.281   5
   9   2   1 289.616 282.108   5
   9   2   2 679.572 371.993   5
   9   2   3 24668.5 2414.59   5
  -9  -2  -3 21884.5 1821.47   1
   9   2   4 9765.16 1549.13   5
  -9  -2  -4 8741.92 1130.53   1
   9   2   5 5913.71 1196.66   5
  -9  -2  -5 5693.53 896.891   1
   9   2   6 71.3251 125.733   5
  -9  -2  -6 403.254 293.681   1
   9   2   7 9262.19 1536.81   5
  -9  -2  -7 8505.23 1071.89   1
   9   2   8-554.501 383.428   5
   9   2   9 537.983 372.774   5
   9   2  10 1038.57 598.611   5
   9   2  11 245.671 169.109   5
   9   2  12 193.956 151.613   5
  -9  -2 -13 602.499 404.620   6
   9   2  13 783.815 502.246   5
  -9  -2 -14-654.572 533.159   6
  -9  -2 -15 917.522 588.090   6
  -9  -2 -16 418.588 375.156   6
  -9  -3  22 15.8025 155.307   7
  -9  -3  21 12.8697 149.304   7
  -9  -3  20 1049.40 669.325   7
  -9  -3  19 419.213 444.716   7
  -9  -3  18-184.536 405.054   7
  -9  -3  17-2.59611 149.992   7
  -9  -3  16 1415.37 710.353   7
  -9  -3  15 100.170 241.880   7
  -9  -3  14 997.613 658.718   7
   9   3 -14 1315.65 592.100   5
  -9  -3  13-345.249 377.158   7
   9   3 -13 89.2158 229.186   5
  -9  -3  12 255.399 154.949   7
   9   3 -12 774.741 420.484   5
  -9  -3  11 383.637 281.177   7
   9   3 -11 397.694 369.443   5
  -9  -3  10 6425.51 1266.61   7
   9   3 -10 6359.13 1205.40   5
  -9  -3   9 4727.05 1038.05   7
   9   3  -9 5923.70 1163.83   5
  -9  -3   8 49.9283 135.771   7
   9   3  -8-174.974 169.158   5
  -9  -3   7 248.991 243.061   7
   9   3  -7 255.118 247.300   5
  -9  -3   6 1240.35 460.390   7
   9   3  -6 1063.59 518.061   5
  -9  -3   5 754.835 372.777   7
   9   3  -5-60.4373 330.400   5
   9   3  -5 532.261 403.670   2
   9   3  -4 10175.1 1519.49   5
  -9  -3   4 10502.3 1306.37   7
   9   3  -4 8420.85 1413.96   2
  -9  -3   3 6697.03 1016.01   7
   9   3  -3 7622.63 1339.89   5
   9   3  -3 6590.01 1227.51   2
  -9  -3   2 496.169 284.755   7
   9   3  -2 118.006 202.443   2
   9   3  -2 592.594 359.066   5
   9   3  -1 456.350 128.025   2
   9   3  -1 869.214 570.757   5
   9   3   0 2103.99 754.980   5
   9   3   1 1722.77 645.860   5
   9   3   2-980.634 492.683   5
   9   3   3 880.640 413.063   5
  -9  -3  -3 40.2166 108.488   1
  -9  -3  -4 3332.51 652.815   1
   9   3   4 2953.05 843.956   5
  -9  -3  -5 6323.08 898.967   1
   9   3   5 7000.32 1335.74   5
  -9  -3  -6 2071.64 503.635   1
   9   3   6 548.667 418.947   5
   9   3   7 104.610 259.295   5
   9   3   8-57.8000 175.966   5
   9   3   9 215.935 224.284   5
   9   3  10-52.3702 136.640   5
   9   3  11-104.592 188.397   5
   9   3  12-4.17710 98.3359   5
   9   3  13 331.859 395.562   5
  -9  -3 -14 254.620 334.631   6
  -9  -3 -15-401.599 375.589   6
  -9  -4  21 13.0118 142.536   7
  -9  -4  20 16.4929 120.786   7
  -9  -4  19 310.443 365.120   7
  -9  -4  18-16.7375 483.846   7
  -9  -4  17 875.436 610.894   7
  -9  -4  16-67.0288 188.170   7
  -9  -4  15 153.279 272.664   7
  -9  -4  14 555.299 477.492   7
  -9  -4  13 2152.00 811.967   7
   9   4 -13 1570.35 583.195   5
  -9  -4  12 3641.14 1001.72   7
   9   4 -12 4048.42 993.091   5
  -9  -4  11 3908.63 991.258   7
   9   4 -11 3331.43 902.199   5
  -9  -4  10 200.625 206.688   7
   9   4 -10 472.749 346.367   5
  -9  -4   9 3994.63 973.856   7
   9   4  -9 3978.05 943.739   5
  -9  -4   8 1794.45 600.868   7
   9   4  -8 1282.59 508.561   5
  -9  -4   7 942.756 473.932   7
   9   4  -7 1714.19 673.718   5
  -9  -4   6 1930.87 628.031   7
   9   4  -6 3709.57 933.834   5
   9   4  -6 2709.60 842.152   2
  -9  -4   5 2279.74 661.925   7
   9   4  -5 2104.80 710.016   5
   9   4  -5 2564.35 755.955   2
  -9  -4   4 311.153 199.900   7
   9   4  -4 101.041 143.718   5
   9   4  -4 34.5755 191.487   2
   9   4  -3 1496.21 556.125   2
  -9  -4   3 1419.48 470.388   7
   9   4  -3 1406.05 567.519   5
   9   4  -2 4125.85 913.114   2
   9   4  -2 4354.70 1046.12   5
   9   4  -1 5129.79 1079.34   2
   9   4  -1 2997.47 844.141   5
   9   4   0 36.5199 413.210   5
   9   4   1-114.881 328.495   5
   9   4   2 1185.56 497.365   5
   9   4   3 3051.13 831.927   5
  -9  -4  -3 2396.91 549.249   1
  -9  -4  -4 2173.21 496.501   1
   9   4   4 1388.64 605.888   5
  -9  -4  -5 118.695 119.079   1
   9   4   5 11.4555 194.169   5
   9   4   5-18.7122 276.935   4
   9   4   6 45.0851 146.469   5
   9   4   6-735.463 459.239   4
   9   4   7 1727.41 679.493   5
   9   4   7 1004.61 538.964   4
   9   4   8 99.7409 136.780   5
   9   4   8-348.068 437.452   4
   9   4   9 3478.59 998.109   5
   9   4   9 2852.71 967.282   4
   9   4  10-684.099 440.957   5
   9   4  10 437.460 379.094   4
   9   4  11 1628.82 682.636   5
   9   4  11 390.975 396.296   4
   9   4  12 277.761 328.066   5
   9   4  12 509.469 379.989   4
   9   4  13 93.3191 188.014   5
   9   4  13-1226.73 673.729   4
   9   4  14 28.5454 119.121   5
   9   4  14-306.484 351.333   4
  -9  -5  21 513.844 571.655   7
  -9  -5  20 542.481 430.339   7
  -9  -5  19-314.740 366.505   7
  -9  -5  18-198.354 298.914   7
  -9  -5  17-176.823 271.772   7
  -9  -5  16 1047.85 678.035   7
  -9  -5  15-359.954 408.259   7
  -9  -5  14 55.4204 248.443   7
  -9  -5  13 1988.92 810.619   7
  -9  -5  12 617.225 368.499   7
   9   5 -12 1176.18 545.647   5
  -9  -5  11 613.980 369.308   7
   9   5 -11 85.2529 173.089   5
  -9  -5  10 1200.52 571.261   7
   9   5 -10 1434.20 635.043   5
  -9  -5   9 81.8711 157.287   7
   9   5  -9-261.950 422.706   5
  -9  -5   8 2261.23 709.527   7
   9   5  -8 1856.22 693.249   5
   9   5  -7 142.696 168.928   2
  -9  -5   7 313.331 180.124   7
  -9  -5   6 45.5210 103.755   7
   9   5  -6 118.939 174.676   5
   9   5  -6 182.762 210.734   2
  -9  -5   5-1.94345 200.853   7
   9   5  -5 295.485 469.525   5
   9   5  -5-152.708 290.761   2
  -9  -5   4 1701.66 594.143   7
   9   5  -4 1193.10 502.789   5
   9   5  -4 1877.16 627.651   2
   9   5  -3 4588.88 1018.26   2
   9   5  -3 6755.09 1326.37   5
   9   5  -2 143.007 214.361   2
   9   5  -2-102.426 316.843   5
   9   5  -1 12431.7 1799.03   5
   9   5   0 1769.73 721.111   5
   9   5   1 5622.17 1164.48   5
   9   5   1 7342.45 1366.54   4
   9   5   2 715.580 477.204   5
   9   5   2 878.067 477.437   4
   9   5   3 5746.78 1266.03   5
   9   5   3 8014.95 1458.01   4
   9   5   4 3915.89 1021.99   5
   9   5   4 3352.39 970.707   4
   9   5   5 307.544 377.623   5
   9   5   5-586.455 513.999   4
   9   5   6-92.2511 235.557   5
   9   5   6-518.134 401.318   4
   9   5   7 614.615 389.272   5
   9   5   7 105.293 281.485   4
   9   5   8 23.4364 230.361   5
   9   5   8-497.240 174.137   4
   9   5   9-329.453 319.217   5
   9   5   9 125.178 252.193   4
   9   5  10 946.654 577.101   5
   9   5  10 635.537 469.234   4
   9   5  11 625.701 400.822   5
   9   5  11 1114.11 566.816   4
   9   5  12-421.279 367.239   5
   9   5  12-387.239 390.509   4
   9   5  13 182.677 243.742   5
   9   5  13-476.578 434.928   4
   9   5  14 13.6986 96.5206   5
   9   5  14 70.3182 180.273   4
   9   5  15 163.441 121.882   4
  -9  -6  21 594.794 554.159   7
  -9  -6  20 209.310 344.814   7
  -9  -6  19 297.389 298.885   7
  -9  -6  18-205.675 149.255   7
  -9  -6  17 149.136 302.879   7
  -9  -6  16 655.239 482.857   7
  -9  -6  15 505.983 421.309   7
  -9  -6  14 292.226 311.557   7
  -9  -6  13 257.436 402.294   7
  -9  -6  12 847.852 516.718   7
  -9  -6  11-60.4468 250.774   7
   9   6 -11 302.519 280.941   5
  -9  -6  10 3835.59 1035.22   7
   9   6 -10 4151.70 1073.23   5
  -9  -6   9 7296.77 1368.07   7
   9   6  -9 10046.1 1676.36   5
  -9  -6   8 755.318 379.292   7
   9   6  -8 74.0392 225.251   5
  -9  -6   7 3314.06 880.572   7
   9   6  -7 5608.71 1222.46   5
   9   6  -7 4855.10 1050.43   2
  -9  -6   6 1076.92 472.555   7
   9   6  -6 2667.72 831.816   5
   9   6  -6 2354.15 712.529   2
  -9  -6   5 1485.31 602.858   7
   9   6  -5 1608.10 689.484   5
   9   6  -5 1308.69 505.670   2
   9   6  -4 327.784 262.051   2
   9   6  -4 1094.71 603.513   5
   9   6  -3 5726.14 1097.63   2
   9   6  -3 4463.24 1048.65   5
   9   6  -2 0.65086 242.580   5
   9   6  -1 339.695 372.595   5
   9   6  -1 1201.17 541.968   4
   9   6   0 57.6825 174.108   5
   9   6   0 16.4837 286.017   4
   9   6   1 1985.46 745.076   5
   9   6   1 2226.02 772.803   4
   9   6   2 321.438 330.308   5
   9   6   2 481.636 418.042   4
   9   6   3 1590.66 672.095   5
   9   6   3 1460.66 578.928   4
   9   6   4 997.404 507.778   5
   9   6   4 784.948 416.074   4
   9   6   5 4250.63 1081.63   5
   9   6   5 3770.08 1076.71   4
   9   6   6 1845.21 805.986   5
   9   6   6 551.008 569.768   4
   9   6   7 458.292 343.039   5
   9   6   7 1169.33 654.221   4
   9   6   8 108.469 234.451   5
   9   6   8 11.4462 214.475   4
   9   6   9-551.988 410.618   5
   9   6   9-185.939 267.063   4
   9   6  10 267.865 221.193   5
   9   6  10 586.165 535.167   4
   9   6  11 277.785 214.755   5
   9   6  11 726.409 640.022   4
   9   6  12 159.706 264.786   5
   9   6  12 992.015 629.181   4
   9   6  13-181.048 249.459   5
   9   6  13 1149.25 714.188   4
   9   6  14 91.1102 183.920   5
   9   6  14-648.720 529.763   4
  -9  -7  21 353.056 404.645   7
  -9  -7  20 314.844 509.738   7
  -9  -7  19-184.478 291.445   7
  -9  -7  18-69.9255 209.125   7
  -9  -7  17 176.024 142.122   7
  -9  -7  16 2188.23 873.163   7
  -9  -7  15 475.979 424.816   7
  -9  -7  14 1487.14 662.009   7
  -9  -7  13 1039.32 573.372   7
   9   7 -12 1240.60 478.867   3
  -9  -7  12 2188.44 830.073   7
  -9  -7  11 6246.16 1369.43   7
   9   7 -11 5145.37 1220.09   5
  -9  -7  10 748.378 450.637   7
   9   7 -10 1373.01 719.179   5
  -9  -7   9 213.327 339.101   7
   9   7  -9-848.091 498.724   5
  -9  -7   8 1930.88 684.326   7
   9   7  -8 3437.99 902.322   2
   9   7  -8 3064.03 983.066   5
  -9  -7   7 2805.43 828.693   7
   9   7  -7 4308.93 1108.85   5
   9   7  -7 3197.61 834.487   2
  -9  -7   6 185.022 135.782   7
   9   7  -6-74.0019 307.418   5
   9   7  -6 438.530 324.897   2
   9   7  -5 239.560 223.459   2
   9   7  -5-966.267 527.692   5
   9   7  -4 9495.98 1682.20   5
   9   7  -4 9078.26 1380.48   2
   9   7  -3 4358.09 938.608   2
   9   7  -3 4777.96 1190.58   5
   9   7  -3 4365.92 1031.98   4
   9   7  -2 3479.64 1005.86   5
   9   7  -2 2851.40 866.402   4
   9   7  -1 10044.2 1696.73   5
   9   7  -1 8051.28 1439.90   4
   9   7   0 3218.33 983.342   5
   9   7   0 4477.14 1110.39   4
   9   7   1 2012.55 752.588   5
   9   7   1 1307.82 715.116   4
   9   7   2 1846.42 707.932   5
   9   7   2 2083.94 767.207   4
   9   7   3 623.449 430.837   5
   9   7   3 935.012 560.803   4
   9   7   4 585.245 394.301   5
   9   7   4 886.685 513.015   4
   9   7   4 1200.65 482.782   7
   9   7   5 214.330 223.886   5
   9   7   5 303.854 252.508   4
   9   7   6-215.620 309.602   5
   9   7   6 568.898 418.962   4
   9   7   7 167.648 208.545   5
   9   7   7 27.2570 339.646   4
   9   7   8-486.689 390.861   5
   9   7   8 28.4438 118.027   4
   9   7   9-0.74797 317.993   5
   9   7   9 946.176 630.740   4
   9   7  10 80.8987 175.970   5
   9   7  10-506.619 443.260   4
   9   7  11 20.5597 321.885   5
   9   7  11-167.418 275.940   4
   9   7  12-218.549 272.364   5
   9   7  12 672.757 524.753   4
   9   7  13 127.718 87.0187   5
  -9  -8  20-158.445 292.712   7
  -9  -8  19-505.235 470.643   7
  -9  -8  18 626.371 523.664   7
  -9  -8  17-194.828 482.053   7
  -9  -8  16 1012.27 548.823   7
  -9  -8  15 1131.72 618.743   7
  -9  -8  14-355.387 472.058   7
   9   8 -13-103.633 280.846   3
  -9  -8  13-10.7761 154.124   7
   9   8 -12 276.980 227.742   3
  -9  -8  12 932.557 594.755   7
  -9  -8  11 592.447 550.842   7
   9   8 -11-122.018 193.157   3
  -9  -8  10 419.475 219.833   7
   9   8 -10 515.197 346.725   5
  -9  -8   9 2225.29 785.578   7
   9   8  -9 793.369 401.342   2
   9   8  -9 1560.69 707.889   5
  -9  -8   8-67.1568 348.576   7
   9   8  -8 320.912 350.611   5
   9   8  -8 450.325 316.627   2
  -9  -8   7-270.800 277.401   7
   9   8  -7-129.330 317.516   5
   9   8  -7 357.651 280.358   2
   9   8  -6 1037.28 566.630   5
   9   8  -6 1310.10 550.049   2
   9   8  -5 1680.58 577.150   2
   9   8  -5 1881.46 764.867   5
   9   8  -5 848.460 435.943   4
   9   8  -4-53.1512 148.633   2
   9   8  -4 398.698 300.382   5
   9   8  -4 489.352 311.834   4
   9   8  -3 2478.04 816.445   5
   9   8  -3 1848.93 659.842   4
   9   8  -2 2808.43 925.980   5
   9   8  -2 761.825 402.150   4
   9   8  -1 370.773 324.632   5
   9   8  -1 310.582 281.554   4
   9   8   0-734.251 477.472   5
   9   8   0-219.303 289.622   4
   9   8   1 387.624 452.868   5
   9   8   1 123.924 148.771   4
   9   8   2-124.077 298.374   5
   9   8   2 409.398 336.043   4
   9   8   3 496.087 454.451   5
   9   8   3 1225.96 626.273   4
   9   8   4 925.723 519.919   5
   9   8   4 643.585 397.483   4
   9   8   4 1931.25 631.139   7
   9   8   5 1463.16 656.988   5
   9   8   5 1333.59 677.510   4
   9   8   6 111.640 177.663   5
   9   8   6-491.674 417.738   4
   9   8   7 795.371 510.557   5
   9   8   7-423.623 397.778   4
   9   8   8 286.185 496.057   5
   9   8   8 273.211 345.917   4
   9   8   9 240.890 406.610   5
   9   8   9 448.931 334.873   4
   9   8  10 157.947 240.889   5
   9   8  10-63.6835 189.303   4
   9   8  11-506.229 405.731   5
   9   8  11-70.4542 195.605   4
   9   8  12 182.177 317.050   5
  -9  -9  19 217.922 408.398   7
  -9  -9  18 492.612 396.021   7
  -9  -9  17 375.067 405.448   7
  -9  -9  16-554.574 477.715   7
  -9  -9  15-12.2238 318.539   7
  -9  -9  14 877.395 611.576   7
   9   9 -13 481.822 465.880   3
  -9  -9  13-276.341 328.043   7
   9   9 -12 2948.37 823.879   3
  -9  -9  12 3521.53 1151.79   7
   9   9 -11 6877.11 1278.21   3
  -9  -9  11 6720.37 1523.77   7
  -9  -9  10 1590.50 819.427   7
   9   9 -10 2568.02 780.790   2
   9   9 -10 2331.68 963.647   5
   9   9 -10 3014.07 853.255   3
  -9  -9   9 429.204 344.474   7
   9   9  -9 59.1955 126.877   5
   9   9  -9 197.609 195.665   2
   9   9  -8 543.016 375.787   5
   9   9  -8-117.243 204.261   2
   9   9  -7 2377.51 850.350   5
   9   9  -7 3143.77 802.815   2
   9   9  -6 705.122 386.490   2
   9   9  -6 433.607 263.766   4
   9   9  -5 298.678 299.304   2
   9   9  -5 343.226 125.881   5
   9   9  -5 412.708 255.192   4
   9   9  -4 228.514 310.187   5
   9   9  -4 592.980 373.794   4
   9   9  -3 98.4565 161.222   5
   9   9  -3-250.052 438.531   4
   9   9  -2 196.322 446.713   5
   9   9  -2 41.1512 181.801   4
   9   9  -1 347.692 199.132   5
   9   9  -1 516.045 333.513   4
   9   9   0 139.943 282.797   5
   9   9   0 187.826 459.470   4
   9   9   1 783.730 469.453   5
   9   9   1 297.897 218.513   4
   9   9   2-109.306 212.590   5
   9   9   2-21.4171 303.815   4
   9   9   3-210.783 329.613   5
   9   9   3 744.605 551.738   4
   9   9   4-366.913 406.012   4
   9   9   4-143.115 195.601   7
   9   9   5 739.532 449.247   5
   9   9   5 960.187 509.128   4
   9   9   6-253.806 294.380   5
   9   9   6 227.661 343.950   4
   9   9   7-395.878 363.257   5
   9   9   7 1044.36 598.665   4
   9   9   8 121.748 164.688   5
   9   9   8 32.6792 161.726   4
   9   9   9 543.191 499.287   5
   9   9   9-503.000 457.118   4
   9   9  10 144.715 292.827   5
  -9 -10  18 633.413 541.441   7
  -9 -10  17 513.703 396.168   7
  -9 -10  16-46.0158 452.180   7
  -9 -10  15-10.8363 189.297   7
  -9 -10  14 347.008 428.346   7
   9  10 -13 393.570 275.001   3
  -9 -10  13 787.240 598.991   7
   9  10 -12 56.4775 216.039   3
  -9 -10  12 328.258 348.737   7
   9  10 -11-139.236 211.268   3
  -9 -10  11 396.305 258.983   7
   9  10 -10 488.072 400.138   5
   9  10 -10 13.7259 137.783   3
   9  10  -9-270.771 148.311   5
   9  10  -8 99.1618 388.369   5
   9  10  -7 626.020 465.714   5
   9  10  -7 842.040 466.470   4
   9  10  -6 233.904 473.294   5
   9  10  -6 407.624 271.759   4
   9  10  -5 318.825 386.301   5
   9  10  -5-173.113 302.288   4
   9  10  -4 1537.87 695.421   5
   9  10  -4 551.392 469.249   4
   9  10  -3 1503.72 714.812   5
   9  10  -3 513.029 346.263   4
   9  10  -2-48.9036 160.344   5
   9  10  -2-112.662 342.860   4
   9  10  -1-240.068 281.779   5
   9  10  -1-145.778 309.353   4
   9  10   0-423.388 384.196   5
   9  10   0 761.144 492.775   4
   9  10   1 810.606 540.029   5
   9  10   1 613.288 482.943   4
   9  10   2 145.476 161.503   5
   9  10   2 897.839 555.633   4
   9  10   3 242.686 234.014   5
   9  10   3 173.643 327.027   4
   9  10   3 130.981 342.350   7
   9  10   4-198.623 272.767   5
   9  10   4 398.097 401.073   4
   9  10   5-453.498 399.081   5
   9  10   5 658.475 514.249   4
   9  10   6-269.802 309.587   5
   9  10   6 308.943 512.764   4
   9  10   7 429.247 448.852   5
   9  10   7 1041.01 723.892   4
   9  10   8 897.856 534.209   5
   9  10   8 722.242 593.900   4
   9  10   9 667.383 602.774   5
  -9 -11  17 44.3215 318.170   7
  -9 -11  16 1259.29 754.576   7
  -9 -11  15 365.835 346.822   7
   9  11 -14-459.796 371.956   3
  -9 -11  14-244.077 327.368   7
   9  11 -13 983.992 586.419   3
  -9 -11  13 105.100 237.299   7
   9  11 -12-634.973 436.789   3
   9  11 -11 560.274 496.210   3
   9  11 -10 667.156 522.134   5
   9  11 -10-388.223 444.886   3
   9  11  -9 482.552 304.748   5
   9  11  -8 1443.88 732.847   5
   9  11  -8 1643.55 616.921   4
   9  11  -7 737.341 669.444   5
   9  11  -7 245.618 249.508   4
   9  11  -6 823.095 668.163   5
   9  11  -6 565.482 504.696   4
   9  11  -5 1918.11 799.616   5
   9  11  -5 1639.01 701.729   4
   9  11  -4 76.2754 346.070   5
   9  11  -4-77.6975 163.069   4
   9  11  -3 485.821 424.869   5
   9  11  -3 235.126 230.342   4
   9  11  -2-305.460 339.643   5
   9  11  -2-29.3084 258.984   4
   9  11  -1 70.7809 253.967   5
   9  11  -1 45.8120 148.567   4
   9  11   0-5.19562 104.639   5
   9  11   0 182.015 379.896   4
   9  11   1 324.888 388.678   5
   9  11   1 79.9394 302.981   4
   9  11   2 682.166 532.092   5
   9  11   2 35.2339 159.523   4
   9  11   3-6.10326 97.3301   5
   9  11   3 65.1194 314.375   4
   9  11   3 269.465 289.494   7
   9  11   4-185.171 267.919   5
   9  11   4 324.026 484.703   4
   9  11   5 327.561 461.573   5
   9  11   5 619.597 592.610   4
   9  11   6 204.129 268.770   5
   9  11   6 254.115 655.039   4
   9  11   7 0.86698 316.076   5
   9  11   8 161.278 195.269   5
  -9 -12  16 473.353 683.602   7
  -9 -12  15 1032.71 762.247   7
   9  12 -14 193.898 271.013   3
   9  12 -13-295.891 320.693   3
   9  12 -12 880.643 588.694   3
   9  12 -11-1111.92 598.645   3
   9  12 -11 903.551 552.414   5
   9  12 -10 900.122 712.993   5
   9  12 -10-298.335 324.292   3
   9  12  -9 2747.79 1046.90   5
   9  12  -8 607.433 505.432   5
   9  12  -7 449.523 450.565   5
   9  12  -7-378.273 326.991   4
   9  12  -6 457.735 427.246   5
   9  12  -6 930.583 522.616   4
   9  12  -5 1137.59 727.244   5
   9  12  -5 347.139 313.184   4
   9  12  -4 585.679 497.993   5
   9  12  -4-152.029 233.223   4
   9  12  -3 118.162 231.308   5
   9  12  -3 1381.24 691.405   4
   9  12  -2 2030.89 864.008   5
   9  12  -2 817.251 600.764   4
   9  12  -1 860.176 583.647   5
   9  12  -1 394.256 395.149   4
   9  12   0 150.743 322.280   5
   9  12   0 4.27459 343.099   4
   9  12   1 548.900 455.382   5
   9  12   1 1.77481 93.2740   4
   9  12   2 61.1934 151.416   5
   9  12   2 602.214 578.673   4
   9  12   2-717.744 482.556   7
   9  12   3 583.360 421.480   5
   9  12   3 694.189 575.827   4
   9  12   3-59.2848 161.065   7
   9  12   4-185.497 273.544   5
   9  12   4 311.764 363.738   4
   9  12   5 35.5455 144.113   5
   9  12   6-307.679 348.833   5
   9  13 -14 375.966 409.934   3
   9  13 -13 173.550 258.903   3
   9  13 -12-340.679 468.595   3
   9  13 -11 366.528 368.148   3
   9  13 -11 121.453 241.506   5
   9  13 -10 394.954 419.392   5
   9  13 -10-90.7396 206.840   3
   9  13  -9 88.1737 207.014   5
   9  13  -8 687.177 608.375   5
   9  13  -7-463.540 441.011   5
   9  13  -6-257.128 331.081   5
   9  13  -6 86.3125 314.227   4
   9  13  -5 139.315 252.887   5
   9  13  -5-97.4123 188.239   4
   9  13  -4-336.198 377.649   5
   9  13  -4-578.061 439.713   4
   9  13  -3-694.320 527.679   5
   9  13  -3 97.8320 310.940   4
   9  13  -2 229.820 313.703   5
   9  13  -2 494.173 415.071   4
   9  13  -1-503.834 446.512   5
   9  13  -1 160.012 255.965   4
   9  13   0 103.998 217.339   5
   9  13   0 178.916 278.761   4
   9  13   1 59.5328 189.354   4
   9  13   1 827.866 671.751   5
   9  13   2 634.908 461.381   5
   9  13   2 467.395 479.945   4
   9  13   2-89.8997 202.176   7
   9  13   3 678.230 464.959   5
   9  13   3 536.370 430.311   7
   9  13   4 842.237 618.278   5
   9  14 -14 140.882 352.279   3
   9  14 -13-527.237 453.197   3
   9  14 -12-677.364 513.622   3
   9  14 -11 842.352 679.104   3
   9  14 -10 857.627 584.462   5
   9  14 -10-54.2743 182.146   3
   9  14  -9 909.334 647.224   5
   9  14  -8 245.787 382.718   5
   9  14  -7-663.910 537.838   5
   9  14  -6-671.357 536.334   5
   9  14  -5 823.725 705.765   5
   9  14  -5-323.755 334.413   4
   9  14  -4-534.573 477.155   5
   9  14  -4 303.369 380.812   4
   9  14  -3-832.647 589.016   5
   9  14  -3 131.972 209.051   4
   9  14  -2 699.979 508.461   5
   9  14  -2-342.018 367.765   4
   9  14  -1-315.948 370.486   5
   9  14  -1 415.725 485.431   4
   9  14   0-552.495 480.528   5
   9  14   0 35.1862 289.104   4
   9  14   1 321.098 407.365   5
   9  14   1-133.613 236.221   7
   9  14   2-444.739 433.015   5
   9  14   2 440.686 545.311   7
   9  15 -12 611.034 513.480   3
   9  15 -11-414.319 430.458   3
   9  15  -4 333.131 362.609   4
   9  15  -3 839.540 567.760   4
   9  15  -2-656.636 515.424   4
 -10  15  -6 928.828 623.005   3
 -10  14   6 2.95327 356.702   7
 -10  14   5-183.410 266.623   1
 -10  14   5 12.2650 101.030   7
 -10  14   4 123.947 411.613   1
 -10  14   4-0.90569 115.130   7
 -10  14   3 348.826 509.449   1
 -10  14   2 184.367 355.243   1
 -10  14   1-873.835 556.421   1
 -10  14   0 213.285 444.673   1
 -10  14  -1 414.649 513.597   1
 -10  14  -2 137.470 234.643   1
 -10  14  -3 219.812 234.918   3
 -10  14  -3 422.590 392.327   1
 -10  14  -4 620.358 529.717   1
 -10  14  -4 295.908 318.033   3
 -10  14  -5 25.2267 130.381   3
 -10  14  -6-4.34367 98.0389   3
 -10  14  -7 38.5081 341.516   3
 -10  14  -8-239.863 312.213   3
 -10  13   8 1.00234 276.043   7
 -10  13   8 728.399 513.126   1
 -10  13   7 125.462 241.201   7
 -10  13   7 883.975 691.428   1
 -10  13   6-366.127 374.187   7
 -10  13   6-179.164 262.605   1
 -10  13   5-297.921 331.240   1
 -10  13   5 953.269 634.391   7
 -10  13   4-217.821 287.629   1
 -10  13   4-143.148 235.218   7
 -10  13   3 0.85908 420.182   1
 -10  13   3-873.817 531.941   7
 -10  13   2-655.160 477.589   1
 -10  13   1 234.903 319.074   1
 -10  13   0-142.074 236.191   1
 -10  13  -1-409.866 383.554   1
 -10  13  -2 242.387 298.848   1
 -10  13  -2-321.435 310.321   3
 -10  13  -3-234.125 269.716   3
 -10  13  -3-13.6238 112.623   1
 -10  13  -4 574.826 478.100   1
 -10  13  -4 198.472 299.462   3
 -10  13  -5 517.196 418.621   3
 -10  13  -5 783.637 537.449   1
 -10  13  -6-65.8499 179.305   3
 -10  13  -7 190.087 226.604   3
 -10  13  -8 17.4450 121.964   3
 -10  13  -9 337.823 430.046   3
 -10  12  10-153.972 278.626   7
 -10  12   9 212.810 250.926   7
 -10  12   8 479.865 460.148   7
 -10  12   7-360.648 367.093   7
 -10  12   6 287.852 393.083   1
 -10  12   6-62.2293 277.802   7
 -10  12   5 9.77056 96.5187   7
 -10  12   5 151.914 265.525   1
 -10  12   4 1662.00 743.248   7
 -10  12   4 991.211 701.309   1
 -10  12   3 848.286 604.210   1
 -10  12   3 776.749 473.252   7
 -10  12   2 46.3851 162.173   1
 -10  12   2-42.1791 130.163   7
 -10  12   1-879.161 366.060   1
 -10  12   0 373.012 463.680   1
 -10  12  -1 233.001 277.162   3
 -10  12  -1 38.3767 138.916   1
 -10  12  -2 670.016 518.764   1
 -10  12  -2 291.834 347.786   3
 -10  12  -3 214.896 180.467   1
 -10  12  -3 351.612 377.165   3
 -10  12  -4 31.8862 128.430   3
 -10  12  -4 1138.42 702.677   1
 -10  12  -5 331.287 471.851   1
 -10  12  -5 308.143 364.127   3
 -10  12  -6 839.931 605.266   1
 -10  12  -6 97.2509 191.853   3
 -10  12  -7 117.044 310.452   3
 -10  12  -8 1154.04 650.200   3
 -10  12  -9-716.356 503.606   3
 -10  12 -10 308.794 452.093   3
 -10  12 -11 413.858 553.996   3
 -10  11  11 65.3896 184.432   7
 -10  11  10 280.657 341.269   7
 -10  11   9 470.625 458.683   7
 -10  11   8-85.2526 198.163   7
 -10  11   7-180.372 257.562   7
 -10  11   6-978.605 558.835   7
  10 -11  -6 36.0363 124.562   2
 -10  11   5-286.012 301.076   7
  10 -11  -5 74.4762 71.0975   2
 -10  11   4 402.387 445.888   7
 -10  11   4 1600.74 809.070   1
  10 -11  -4 742.099 545.668   2
  10 -11  -3 3.67719 83.1600   2
 -10  11   3-119.606 193.145   7
 -10  11   3 403.501 396.268   1
 -10  11   2-118.495 215.709   1
  10 -11  -2 4.32328 78.5879   2
 -10  11   2 317.425 324.465   7
 -10  11   1 122.109 134.237   1
  10 -11  -1 520.588 384.768   2
 -10  11   0 836.481 537.472   1
 -10  11  -1 58.1166 164.694   1
 -10  11  -1 277.045 301.679   3
 -10  11  -2 354.406 244.701   3
 -10  11  -2 33.7653 396.337   1
 -10  11  -3-485.685 400.516   1
 -10  11  -3 118.182 137.417   3
 -10  11  -4 1565.85 764.593   1
 -10  11  -4 660.444 490.617   3
 -10  11  -5-403.661 369.745   1
 -10  11  -5 179.706 333.812   3
 -10  11  -6 231.128 121.500   3
 -10  11  -6 505.147 488.284   1
 -10  11  -7 104.429 257.134   1
 -10  11  -7-915.151 532.413   3
 -10  11  -8-130.336 223.819   3
 -10  11  -9 704.921 489.928   3
 -10  11 -10 38.6172 150.331   3
 -10  11 -11 8.05473 117.177   3
 -10  11 -12 258.335 444.528   3
 -10  10  13-476.828 460.216   7
 -10  10  12-23.2539 130.275   7
 -10  10  11-370.931 391.977   7
 -10  10  10-340.175 365.172   7
 -10  10   9 44.3420 169.116   7
  10 -10  -8-489.209 412.923   2
 -10  10   8 513.151 110.500   7
  10 -10  -7 672.264 551.243   2
 -10  10   7-145.608 234.938   7
  10 -10  -6-117.629 208.353   2
 -10  10   6 79.5797 174.584   7
 -10  10   5 364.330 546.210   7
  10 -10  -5 565.414 428.524   2
 -10  10   4 1626.82 698.854   7
  10 -10  -4 861.925 475.570   2
  10 -10  -3 893.040 515.861   2
 -10  10   3 720.888 439.367   1
 -10  10   3 1470.85 606.468   7
  10 -10  -2 252.575 338.709   2
 -10  10   2 433.262 383.376   7
 -10  10   2 347.747 319.059   1
  10 -10  -1 622.543 319.284   2
 -10  10   1 1253.82 542.363   7
 -10  10   1 268.797 388.650   1
 -10  10   0 103.838 302.720   1
 -10  10   0-3.10257 58.6519   3
 -10  10  -1 978.420 604.823   1
 -10  10  -1 1069.63 441.182   3
 -10  10  -2-523.642 406.413   1
 -10  10  -2-123.535 177.555   3
 -10  10  -3 558.580 460.307   1
 -10  10  -3 1292.78 587.931   3
 -10  10  -4 188.353 355.999   1
 -10  10  -4 276.843 316.236   3
 -10  10  -5 775.905 552.395   1
 -10  10  -5 334.330 288.770   3
 -10  10  -6-336.602 336.404   1
 -10  10  -6 498.119 430.757   3
 -10  10  -7 1575.56 680.685   3
 -10  10  -7 2073.42 822.495   1
 -10  10  -8 1408.11 797.821   3
 -10  10  -9 495.974 545.051   3
 -10  10 -10 797.587 455.108   3
 -10  10 -11 389.370 453.516   3
 -10  10 -12 1612.78 832.544   3
 -10  10 -13 337.503 427.230   3
 -10   9  14-39.2118 158.530   7
 -10   9  13-243.829 324.348   7
 -10   9  12 255.804 327.968   7
 -10   9  11-272.690 329.061   7
 -10   9  10 37.8129 168.180   7
 -10   9   9 123.864 218.461   7
 -10   9   8-812.209 508.575   7
  10  -9  -7-246.292 294.522   2
 -10   9   7 380.825 373.695   7
  10  -9  -6-120.855 186.654   2
 -10   9   6-559.952 401.079   7
 -10   9   5-531.608 377.181   7
  10  -9  -5 114.279 141.244   2
 -10   9   4-281.985 268.265   7
  10  -9  -4 60.0922 154.527   2
 -10   9   3 117.970 161.716   7
  10  -9  -3 315.270 409.505   2
  10  -9  -2-276.208 289.511   2
 -10   9   2-563.734 419.354   1
 -10   9   2 148.504 100.361   7
  10  -9  -1 70.0366 168.697   2
 -10   9   1 111.879 239.115   7
 -10   9   1 213.818 204.554   3
 -10   9   1 56.0670 253.409   1
  10  -9   0 249.549 170.150   2
 -10   9   0-36.8542 125.742   3
 -10   9   0 235.755 230.678   1
 -10   9  -1 72.4200 179.527   1
 -10   9  -1-55.1964 129.058   3
 -10   9  -2 713.613 433.766   1
 -10   9  -2 318.221 242.200   3
 -10   9  -3-432.581 400.854   1
 -10   9  -3-189.892 216.418   3
 -10   9  -4-584.077 422.146   1
 -10   9  -4 197.518 206.409   3
 -10   9  -5 413.542 325.558   3
 -10   9  -5 1036.19 579.190   1
 -10   9  -6 125.661 132.849   3
 -10   9  -6 27.1075 132.797   1
 -10   9  -7 46.6166 183.777   3
 -10   9  -7 125.718 205.206   1
 -10   9  -8 398.893 326.380   3
 -10   9  -8 320.359 352.814   1
 -10   9  -9 474.491 427.974   3
 -10   9 -10 323.368 323.742   3
 -10   9 -11 50.3520 166.711   3
 -10   9 -12 848.849 572.840   3
 -10   9 -13 1968.40 874.672   3
 -10   9 -14 32.0719 372.939   3
 -10   8  15 821.433 632.091   7
 -10   8  14 304.043 524.024   7
 -10   8  13 1.91109 434.159   7
 -10   8  12 60.6133 115.419   7
 -10   8  11-319.462 342.792   7
 -10   8  10 507.496 483.675   7
 -10   8   9 149.883 182.897   7
 -10   8   8-123.410 363.157   7
 -10   8   7 334.068 350.005   7
  10  -8  -6 284.166 287.689   2
 -10   8   6-329.795 301.062   7
  10  -8  -5 130.956 271.103   2
 -10   8   5-99.8198 139.080   7
 -10   8   4 8.45063 83.7538   7
  10  -8  -4 224.250 328.239   2
 -10   8   3-351.272 277.936   7
  10  -8  -3-432.077 360.253   2
  10  -8  -2 181.282 271.223   2
 -10   8   2-72.3097 233.284   7
 -10   8   2 307.555 245.434   3
  10  -8  -1 3652.03 1021.77   2
 -10   8   1 4477.09 1172.78   1
 -10   8   1 3649.27 796.285   7
 -10   8   1 4772.63 895.693   3
  10  -8   0 712.935 449.089   2
 -10   8   0 946.628 509.676   1
 -10   8   0 1052.43 449.983   3
 -10   8  -1-148.754 208.264   3
 -10   8  -1-68.1996 190.208   1
 -10   8  -2 633.875 365.828   3
 -10   8  -2-0.69768 121.137   1
 -10   8  -3 397.308 271.568   3
 -10   8  -3 273.129 282.100   1
 -10   8  -4 347.552 328.645   3
 -10   8  -4 855.515 377.486   1
 -10   8  -5 2038.90 743.647   1
 -10   8  -5 2243.17 731.839   3
 -10   8  -6 170.869 198.529   3
 -10   8  -6 1261.38 600.710   1
 -10   8  -7 704.264 511.473   3
 -10   8  -7-281.750 296.262   1
 -10   8  -8 938.591 513.238   3
 -10   8  -8 215.635 405.612   1
 -10   8  -9 1027.23 698.697   3
 -10   8 -10 279.211 308.282   3
 -10   8 -10 800.641 402.129   6
 -10   8 -11-309.599 369.285   3
 -10   8 -11 4.38571 190.936   6
 -10   8 -12 970.612 585.215   3
 -10   8 -12 395.354 364.784   6
 -10   8 -13-751.301 522.666   3
 -10   8 -13-430.760 335.125   6
 -10   8 -14 393.721 235.579   3
 -10   8 -14-331.301 305.681   6
 -10   8 -15 218.436 241.372   6
 -10   8 -16-503.137 397.567   6
 -10   8 -17-525.052 420.037   6
 -10   7  16 312.510 375.789   7
 -10   7  15 1104.00 695.853   7
 -10   7  14 502.359 429.001   7
 -10   7  13 26.3153 177.268   7
 -10   7  12 394.925 426.132   7
 -10   7  11 166.335 388.783   7
 -10   7  10 39.0515 175.007   7
 -10   7   9 349.137 325.961   7
 -10   7   8 1596.53 606.221   7
 -10   7   7 2278.42 789.454   7
  10  -7  -6-654.950 453.818   2
 -10   7   6 254.782 319.956   7
  10  -7  -5 1388.06 685.128   2
 -10   7   5 1557.80 597.128   7
 -10   7   4 340.273 340.104   7
  10  -7  -4-542.167 407.757   2
 -10   7   3 3122.54 781.796   7
  10  -7  -3 3460.03 971.098   2
 -10   7   2 1326.44 494.856   7
 -10   7   2 1640.75 484.195   3
  10  -7  -2 1804.56 754.742   2
  10  -7  -1 2191.97 817.006   2
 -10   7   1 1941.66 549.935   7
 -10   7   1 2356.46 633.912   3
 -10   7   0 2890.36 692.672   3
  10  -7   0 4082.65 1045.63   2
 -10   7   0 2527.13 824.765   1
 -10   7  -1 1124.15 394.544   3
  10  -7   1 492.983 296.641   2
 -10   7  -1 828.842 431.873   1
 -10   7  -2 522.532 419.386   1
 -10   7  -2-8.13740 246.603   3
 -10   7  -3 186.175 199.294   3
 -10   7  -3-481.600 369.566   1
 -10   7  -4 1327.19 534.072   3
 -10   7  -4 1243.07 653.506   1
 -10   7  -5 1006.89 371.081   3
 -10   7  -5 2019.63 775.542   1
 -10   7  -6-511.227 361.599   3
 -10   7  -6 202.783 157.815   1
 -10   7  -7-259.593 291.837   1
 -10   7  -7 59.8438 186.867   3
 -10   7  -7 143.079 169.467   6
 -10   7  -8 397.841 363.066   1
 -10   7  -8 20.8103 295.989   3
 -10   7  -8 196.273 194.448   6
 -10   7  -9 275.288 176.245   3
 -10   7  -9 274.450 240.604   6
 -10   7 -10 250.730 299.474   3
 -10   7 -10-6.60819 202.023   6
 -10   7 -11 140.685 241.705   3
 -10   7 -11 260.110 71.8734   6
 -10   7 -12-93.9481 296.227   3
 -10   7 -12-266.758 259.235   6
 -10   7 -13-362.245 367.012   3
 -10   7 -13 603.989 398.887   6
 -10   7 -14 39.8816 161.653   3
 -10   7 -14-206.534 290.406   6
 -10   7 -15 887.946 661.536   3
 -10   7 -15-370.121 333.942   6
 -10   7 -16-18.4576 391.270   6
 -10   7 -17 35.1727 331.578   6
 -10   6  17 1.07496 217.181   7
 -10   6  16 537.830 508.649   7
 -10   6  15 743.895 561.939   7
 -10   6  14-42.1127 158.106   7
 -10   6  13 731.101 543.934   7
 -10   6  12 408.956 428.501   7
 -10   6  11 894.973 478.416   7
 -10   6  10 1582.38 642.528   7
 -10   6   9-149.079 253.351   7
 -10   6   8 99.5605 139.615   7
 -10   6   7-12.5444 146.709   7
 -10   6   6 1460.91 554.630   7
  10  -6  -5 5431.80 846.889   5
  10  -6  -5 4564.55 1195.34   2
 -10   6   5 6781.98 1190.30   7
  10  -6  -4-11.4696 126.186   5
 -10   6   4 266.754 247.589   7
  10  -6  -4-290.763 453.220   2
 -10   6   3 6592.35 903.312   3
  10  -6  -3 7857.09 1098.42   5
 -10   6   3 6191.76 1043.00   7
  10  -6  -3 6469.98 1348.71   2
 -10   6   2 1001.27 391.551   7
  10  -6  -2 1022.35 545.684   2
 -10   6   2 1591.60 473.643   3
 -10   6   1 2858.57 654.354   3
  10  -6  -1 3002.21 920.901   2
 -10   6   1 3597.56 722.901   7
 -10   6   0 1607.04 504.040   3
  10  -6   0 1439.22 618.811   2
 -10   6  -1 1001.26 423.296   3
  10  -6   1 1637.18 682.817   2
 -10   6  -1 1258.25 591.116   1
 -10   6  -2 288.925 164.208   3
 -10   6  -2 684.931 392.331   1
 -10   6  -3 6402.71 1278.14   1
 -10   6  -3 3990.16 887.285   3
 -10   6  -4-41.9058 46.4235   6
 -10   6  -4-83.6412 199.821   3
 -10   6  -4-63.0338 245.514   1
 -10   6  -5 4463.34 778.670   6
 -10   6  -5 3002.83 832.315   3
 -10   6  -5 3981.83 1025.99   1
 -10   6  -6 799.500 361.923   6
 -10   6  -6 694.606 470.209   1
 -10   6  -6 715.686 460.215   3
 -10   6  -7 3176.99 735.343   6
 -10   6  -7 3324.63 918.669   3
 -10   6  -7 3726.21 975.139   1
 -10   6  -8 2042.28 603.874   6
 -10   6  -8 2316.44 786.604   3
 -10   6  -8 2713.02 809.887   1
 -10   6  -9 310.719 235.326   6
 -10   6  -9-244.534 274.504   3
 -10   6 -10 664.058 411.357   6
 -10   6 -10-294.057 422.256   3
 -10   6 -11 200.742 283.211   6
 -10   6 -11-67.1219 326.533   3
 -10   6 -12-361.653 298.850   6
 -10   6 -12-750.227 500.597   3
 -10   6 -13-174.849 223.963   6
 -10   6 -13-10.2239 214.221   3
 -10   6 -14 216.805 282.352   6
 -10   6 -14-1217.76 665.433   3
 -10   6 -15 471.935 448.374   6
 -10   6 -15-891.651 587.499   3
 -10   6 -16 260.309 276.537   6
 -10   6 -17 312.025 412.185   6
 -10   5  18-582.694 510.249   7
 -10   5  17-337.862 384.421   7
 -10   5  16 39.1383 240.681   7
 -10   5  15-61.9980 252.893   7
 -10   5  14 286.255 143.366   7
 -10   5  13-111.643 214.945   7
 -10   5  12 405.428 405.914   7
 -10   5  11 1778.28 749.932   7
 -10   5  10 370.759 344.961   7
 -10   5   9 768.820 445.115   7
 -10   5   8 4706.97 1064.88   7
 -10   5   7 3731.19 912.932   7
  10  -5  -6 386.554 233.221   5
 -10   5   6 646.006 425.640   7
  10  -5  -5-7.03716 60.1645   5
 -10   5   5-173.918 233.482   7
  10  -5  -4 4193.06 793.603   5
 -10   5   4 4795.83 944.531   7
  10  -5  -4 3580.55 1045.42   2
  10  -5  -3 14996.7 1554.08   5
 -10   5   3 14045.0 1280.88   3
 -10   5   3 13939.4 1521.29   7
  10  -5  -3 13139.7 1929.90   2
  10  -5  -2 20364.1 1839.29   5
 -10   5   2 15725.9 1438.07   3
 -10   5   2 16252.0 1554.78   7
  10  -5  -2 18271.2 2270.11   2
  10  -5  -1 476.859 427.905   2
  10  -5  -1 952.119 414.167   5
 -10   5   1 1044.11 366.474   3
 -10   5   1 1158.52 410.844   7
  10  -5   0 2516.80 678.166   5
  10  -5   0 1125.65 571.329   2
 -10   5   0 1477.09 474.295   3
 -10   5   0 1531.74 425.834   7
 -10   5  -1 335.731 178.259   6
  10  -5   1 164.369 273.944   5
 -10   5  -1 522.451 358.815   3
  10  -5   1 343.062 198.981   2
 -10   5  -2 3417.44 591.252   6
  10  -5   2 3940.21 876.144   5
 -10   5  -2 4266.38 879.997   3
 -10   5  -2 3995.38 995.337   1
 -10   5  -3 925.452 464.264   1
 -10   5  -3 1017.23 329.087   6
 -10   5  -4 49.2255 132.230   6
 -10   5  -4 21.9204 186.221   1
 -10   5  -5 1424.72 465.367   6
 -10   5  -5 1597.52 625.508   1
 -10   5  -6 2876.34 880.749   1
 -10   5  -6 2461.00 623.345   6
 -10   5  -7-451.363 277.157   6
 -10   5  -7 256.960 384.980   1
 -10   5  -8 359.430 285.583   6
 -10   5  -8 152.311 204.691   1
 -10   5  -9-209.466 249.874   6
 -10   5  -9 289.462 352.930   1
 -10   5 -10 757.393 447.238   6
 -10   5 -11 323.984 274.048   6
 -10   5 -12 436.701 334.224   6
 -10   5 -13 14.5708 124.623   6
 -10   5 -14 190.413 352.593   6
 -10   5 -15 418.880 480.565   6
 -10   5 -16 527.150 391.362   6
 -10   5 -17 148.636 268.459   6
 -10   4  19 100.964 240.074   7
 -10   4  18-242.884 338.501   7
 -10   4  17 185.252 295.969   7
 -10   4  16-150.790 167.330   7
 -10   4  15 414.231 393.927   7
 -10   4  14 51.3077 126.268   7
 -10   4  13 659.363 430.059   7
 -10   4  12 478.083 413.954   7
 -10   4  11 4700.64 1174.25   7
 -10   4  10-412.793 338.033   7
 -10   4   9 175.483 300.903   7
  10  -4  -8 1322.68 475.158   5
 -10   4   8 2893.00 834.880   7
  10  -4  -7 926.562 414.876   5
 -10   4   7 903.895 482.812   7
  10  -4  -6 761.445 358.940   5
 -10   4   6 1369.09 536.601   7
  10  -4  -5 3477.90 718.623   5
  10  -4  -5 2907.21 925.268   2
 -10   4   5 2393.67 661.933   7
 -10   4   4-17.3323 91.8480   3
  10  -4  -4-91.7725 104.314   5
 -10   4   4-2.46724 105.811   7
  10  -4  -4-160.520 363.990   2
  10  -4  -3 9988.41 1303.61   5
 -10   4   3 9250.13 1018.45   3
 -10   4   3 10036.1 1242.82   7
  10  -4  -3 11090.7 1743.75   2
  10  -4  -2 3075.78 737.374   5
 -10   4   2 3394.45 655.319   3
 -10   4   2 2566.51 576.389   7
  10  -4  -2 3887.23 1078.42   2
  10  -4  -1-307.697 400.263   2
  10  -4  -1 219.959 135.625   5
 -10   4   1-108.313 225.174   3
 -10   4   0 2061.21 446.156   6
  10  -4   0 2686.48 899.940   2
  10  -4   0 2157.65 653.061   5
 -10   4   0 1367.72 372.576   7
  10  -4   1 15267.0 1732.25   5
  10  -4   1 15068.8 2029.90   2
 -10   4  -1 12636.9 1142.04   6
  10  -4   2 9218.00 1345.85   5
 -10   4  -2 6701.53 1280.42   1
 -10   4  -2 8799.66 1005.04   6
 -10   4  -3 231.241 149.783   6
  10  -4   3 150.662 124.454   5
 -10   4  -3 621.131 389.463   1
 -10   4  -4-100.484 225.120   6
  10  -4   4 35.1197 172.034   5
 -10   4  -4-114.006 92.0470   1
 -10   4  -5 1117.61 408.896   6
  10  -4   5 1674.86 631.077   5
 -10   4  -5 1200.80 535.406   1
 -10   4  -6 2833.91 671.367   6
 -10   4  -6 3322.44 894.754   1
 -10   4  -7 3458.63 785.065   6
 -10   4  -7 2552.88 800.201   1
 -10   4  -8 976.792 407.743   6
 -10   4  -8 441.858 378.498   1
 -10   4  -9-116.172 215.231   6
 -10   4  -9-203.140 231.619   1
 -10   4 -10-179.716 329.463   6
 -10   4 -11 348.043 209.138   6
 -10   4 -12-191.664 283.926   6
 -10   4 -13-653.476 418.016   6
 -10   4 -14 141.719 283.958   6
 -10   4 -15 1097.85 621.444   6
 -10   4 -16 782.337 576.024   6
 -10   4 -17 436.576 462.187   6
 -10   3  19-77.6001 204.240   7
 -10   3  18 708.085 569.933   7
 -10   3  17-111.058 233.868   7
 -10   3  16 304.907 347.281   7
 -10   3  15-13.7849 169.140   7
 -10   3  14 45.4908 254.172   7
 -10   3  13-103.180 240.753   7
 -10   3  12 2383.29 844.756   7
 -10   3  11 1107.58 589.619   7
 -10   3  10 30.8880 214.538   7
  10  -3  -9-23.5474 130.611   5
 -10   3   9-109.391 128.064   7
  10  -3  -8 4686.82 857.945   5
 -10   3   8 5647.97 1131.24   7
  10  -3  -7 11870.3 1382.91   5
 -10   3   7 10661.2 1491.28   7
  10  -3  -6 384.461 251.769   5
 -10   3   6 1020.35 483.958   7
 -10   3   5 1407.11 331.414   3
  10  -3  -5 1467.78 497.214   5
 -10   3   5 1042.91 432.968   7
  10  -3  -5 646.455 418.251   2
  10  -3  -4 4576.26 895.571   5
 -10   3   4 5470.84 725.066   3
 -10   3   4 5745.86 959.117   7
  10  -3  -4 4639.55 1138.13   2
  10  -3  -3 5339.71 977.673   5
 -10   3   3 6092.88 933.982   7
  10  -3  -3 4595.92 1117.24   2
  10  -3  -2 444.875 249.411   5
 -10   3   2 328.137 238.073   7
  10  -3  -2 205.949 210.961   2
  10  -3  -1 164.506 197.703   5
 -10   3   1 106.987 39.4106   7
  10  -3   0-285.436 243.505   2
  10  -3   0 169.042 221.437   5
 -10   3   0 72.6352 102.618   7
  10  -3   1 2108.43 648.942   5
  10  -3   1 1942.33 705.100   2
  10  -3   2 10992.5 1528.09   5
  10  -3   3 883.846 477.654   5
 -10   3  -3 278.530 255.276   1
 -10   3  -4 5013.82 1074.26   1
  10  -3   4 5846.34 1162.89   5
 -10   3  -5 4425.86 848.705   6
  10  -3   5 4492.61 1004.21   5
 -10   3  -5 4728.39 1037.10   1
 -10   3  -6 1716.88 522.628   6
  10  -3   6 2520.05 753.134   5
 -10   3  -6 2299.35 739.222   1
 -10   3  -7 209.851 199.774   6
  10  -3   7 82.2409 212.948   5
 -10   3  -8 8.57344 284.467   6
 -10   3  -8 44.0650 147.235   1
 -10   3  -9 945.440 412.062   6
 -10   3 -10 372.201 293.585   6
 -10   3 -11-138.858 189.003   6
 -10   3 -12-345.721 308.450   6
 -10   3 -13 263.341 401.432   6
 -10   3 -14-391.087 345.664   6
 -10   3 -15 11.1094 103.500   6
 -10   3 -16 320.065 349.713   6
 -10   2  20 973.245 663.166   7
 -10   2  19 2.09668 100.187   7
 -10   2  18 449.951 233.050   7
 -10   2  17 811.704 610.547   7
 -10   2  16 423.610 502.900   7
 -10   2  15 103.904 155.576   7
 -10   2  14 550.722 529.767   7
 -10   2  13 831.016 572.978   7
 -10   2  12 2326.38 878.596   7
  10  -2 -11-105.553 179.300   5
 -10   2  11-25.5072 283.136   7
  10  -2 -10 733.708 379.268   5
 -10   2  10 979.305 474.180   7
  10  -2  -9 5179.67 961.762   5
 -10   2   9 6759.32 1261.73   7
  10  -2  -8-56.2582 211.210   5
 -10   2   8-2.64228 119.909   7
  10  -2  -7 2285.63 662.759   5
 -10   2   7 1978.35 622.655   7
  10  -2  -6 1444.26 517.831   5
 -10   2   6 966.043 396.637   7
  10  -2  -5 2998.66 753.055   5
 -10   2   5 2961.93 719.319   7
  10  -2  -5 2069.46 788.673   2
  10  -2  -4 139.944 83.3735   5
 -10   2   4-74.6767 176.069   7
  10  -2  -4-168.123 307.994   2
  10  -2  -3 1760.36 624.324   5
 -10   2   3 1791.06 497.127   7
  10  -2  -3 310.379 271.337   2
  10  -2  -2 2086.61 638.052   5
 -10   2   2 1032.73 341.552   7
  10  -2  -2 1924.26 761.560   2
  10  -2  -1 20.4966 186.984   2
  10  -2  -1 138.227 187.684   5
 -10   2   1 99.7283 95.9463   7
  10  -2   0 5266.77 1190.33   2
  10  -2   0 6036.37 1118.79   5
 -10   2   0 5017.23 638.371   7
  10  -2   1 27119.5 2390.03   5
  10  -2   1 32419.6 2948.05   2
  10  -2   2 10514.4 1535.80   5
  10  -2   3 2060.22 682.582   5
 -10   2  -3 2146.85 726.553   1
 -10   2  -4 162.915 183.469   1
  10  -2   4 494.978 269.977   5
  10  -2   5 1587.47 627.367   5
 -10   2  -5 2133.74 675.433   1
  10  -2   6 1166.73 489.671   5
 -10   2  -6 787.727 421.238   1
 -10   2  -7 47.1952 255.152   6
  10  -2   7-577.187 383.719   5
 -10   2  -7-250.433 237.210   1
 -10   2  -8 156.751 164.245   6
  10  -2   8 487.704 332.836   5
 -10   2  -8 37.6284 204.464   1
 -10   2  -9-71.4099 156.668   6
  10  -2   9-139.342 335.940   5
 -10   2 -10 197.218 221.053   6
 -10   2 -11 461.677 388.704   6
 -10   2 -12 228.776 282.932   6
 -10   2 -13 284.082 326.402   6
 -10   2 -14 1018.51 588.559   6
 -10   2 -15 502.732 385.563   6
 -10   2 -16 352.664 323.632   6
 -10   1  20-137.689 254.170   7
 -10   1  19 218.849 122.373   7
 -10   1  18 59.3158 238.513   7
 -10   1  17 1132.87 690.879   7
 -10   1  16 100.752 127.978   7
 -10   1  15 868.139 453.604   7
 -10   1  14 401.975 342.326   7
 -10   1  13 1973.89 711.996   7
  10  -1 -12 264.377 222.649   5
 -10   1  12 416.972 298.668   7
  10  -1 -11 803.753 428.235   5
 -10   1  11 176.175 146.164   7
  10  -1 -10 213.158 183.617   5
 -10   1  10-238.712 351.641   7
  10  -1  -9 857.989 338.251   5
 -10   1   9 33.9273 203.140   7
  10  -1  -8 3786.45 837.357   5
 -10   1   8 2527.82 749.666   7
  10  -1  -7 1740.62 586.142   5
 -10   1   7 3547.86 821.160   7
  10  -1  -6 1252.15 515.351   5
 -10   1   6 903.076 392.078   7
  10  -1  -5 3238.05 800.154   5
 -10   1   5 2736.18 671.525   7
  10  -1  -5 3003.40 926.058   2
  10  -1  -4 9805.20 1411.48   5
 -10   1   4 9419.20 1188.96   7
  10  -1  -4 8748.55 1557.03   2
  10  -1  -3 486.207 379.939   5
 -10   1   3-57.1118 188.556   7
  10  -1  -3-320.749 417.203   2
  10  -1  -2-87.6326 158.726   5
 -10   1   2-40.4153 190.009   7
  10  -1  -2 71.8637 341.918   2
  10  -1  -1 323.178 209.687   2
  10  -1  -1 518.322 329.419   5
 -10   1   1 506.280 233.342   7
  10  -1   0 1274.73 658.623   2
  10  -1   0 406.200 204.056   5
 -10   1   0 951.395 270.521   7
  10  -1   1-200.791 375.573   5
  10  -1   1 0.63820 220.056   2
  10  -1   2 115.387 298.178   5
  10  -1   3 657.073 424.063   5
 -10   1  -3 30.1220 243.273   1
 -10   1  -4-8.99564 225.910   1
  10  -1   4 91.0193 104.765   5
  10  -1   5 185.747 154.495   5
 -10   1  -5 117.251 110.524   1
  10  -1   6-43.6032 131.250   5
 -10   1  -6 122.151 146.043   1
  10  -1   7 231.782 364.023   5
 -10   1  -7-182.374 223.862   1
 -10   1  -8 2865.47 749.397   1
  10  -1   8 3303.43 956.754   5
 -10   1  -9 634.775 322.672   6
  10  -1   9 507.390 374.767   5
 -10   1 -10 397.267 199.359   6
  10  -1  10 918.798 579.210   5
 -10   1 -11-194.927 231.798   6
 -10   1 -12 68.7055 109.273   6
 -10   1 -13-284.934 291.500   6
 -10   1 -14 253.317 276.561   6
 -10   1 -15 6.18450 251.331   6
 -10   1 -16-490.709 407.852   6
 -10   0  20 185.673 221.171   7
 -10   0  19-153.662 267.010   7
 -10   0  18-393.398 476.845   7
 -10   0  17 27.1600 147.170   7
 -10   0  16 157.385 251.815   7
 -10   0  15-464.119 399.658   7
 -10   0  14 582.682 329.473   7
  10   0 -14-91.4286 124.650   5
 -10   0  13-270.573 311.842   7
  10   0 -13-71.3417 136.905   5
  10   0 -12 1732.08 592.591   5
 -10   0  12 953.467 571.861   7
  10   0 -11 1645.23 575.763   5
 -10   0  11 1328.83 626.487   7
  10   0 -10 5033.33 1042.79   5
 -10   0  10 5529.67 1153.62   7
  10   0  -9 3233.80 834.412   5
 -10   0   9 3715.87 929.770   7
  10   0  -8-87.5707 311.504   5
 -10   0   8 164.678 246.060   7
  10   0  -7 642.717 389.774   5
 -10   0   7 358.273 232.039   7
  10   0  -6 53.3296 199.442   5
 -10   0   6-100.525 97.4419   7
  10   0  -5 642.643 389.225   5
 -10   0   5 561.165 249.990   7
  10   0  -5 688.016 374.022   2
  10   0  -4 464.878 336.889   5
 -10   0   4 575.508 319.396   7
  10   0  -4 873.557 507.928   2
  10   0  -3 2045.34 698.242   5
 -10   0   3 1415.28 447.646   7
  10   0  -3 1627.84 656.488   2
  10   0  -2 42.6804 134.441   2
  10   0  -2 172.311 268.667   5
 -10   0   2-40.2380 69.1550   7
  10   0  -1-350.047 309.867   2
  10   0  -1 43.9106 308.344   5
 -10   0   1-36.2718 120.225   7
  10   0   0 586.816 429.523   2
  10   0   0 1439.32 648.503   5
 -10   0   0 504.404 217.570   7
  10   0   1-96.3564 163.350   5
  10   0   2 789.635 340.997   5
  10   0   3 367.158 265.632   5
 -10   0  -3-178.207 190.234   1
 -10   0  -4 2031.42 611.677   1
  10   0   4 2609.98 822.262   5
  10   0   5 302.231 349.955   5
 -10   0  -5 782.722 375.154   1
  10   0   6 2455.04 761.112   5
 -10   0  -6 2847.06 726.210   1
  10   0   7-97.3492 304.027   5
 -10   0  -7-249.584 221.766   1
 -10   0  -8 1238.09 459.893   1
  10   0   8 557.465 406.793   5
  10   0   9 175.818 327.876   5
  10   0  10 635.669 384.566   5
 -10   0 -11-430.408 342.855   6
  10   0  11 278.333 330.315   5
 -10   0 -12 44.7415 249.899   6
 -10   0 -13-502.352 387.459   6
 -10   0 -14 15.0862 264.815   6
 -10   0 -15 612.423 506.013   6
 -10  -1  21 1912.49 1000.21   7
 -10  -1  20 282.995 370.589   7
 -10  -1  19 740.936 571.084   7
 -10  -1  18 285.539 336.634   7
 -10  -1  17 530.599 384.103   7
 -10  -1  16 549.193 490.012   7
 -10  -1  15 1216.12 685.883   7
  10   1 -15 1322.02 549.244   5
 -10  -1  14 2642.61 872.822   7
  10   1 -14 1313.25 588.199   5
 -10  -1  13 3851.29 1058.28   7
  10   1 -13 4631.45 1015.96   5
 -10  -1  12 621.830 436.678   7
  10   1 -12 509.873 429.082   5
 -10  -1  11 1715.62 627.475   7
  10   1 -11 1753.46 647.913   5
 -10  -1  10 269.300 299.454   7
  10   1 -10 350.431 274.560   5
 -10  -1   9 653.754 356.769   7
  10   1  -9 646.189 349.148   5
 -10  -1   8 135.813 240.691   7
  10   1  -8 271.421 143.763   5
 -10  -1   7 1527.46 519.005   7
  10   1  -7 1416.01 600.019   5
  10   1  -6-69.5556 147.586   5
 -10  -1   6-305.505 242.475   7
  10   1  -6-28.3907 348.177   2
  10   1  -5 61.2839 191.841   5
 -10  -1   5 75.0785 72.6629   7
  10   1  -5-202.417 381.187   2
  10   1  -4-4.38814 336.581   5
 -10  -1   4 166.810 167.696   7
  10   1  -4 299.527 394.655   2
  10   1  -3 648.533 452.990   5
 -10  -1   3 633.924 318.203   7
  10   1  -3 428.647 256.493   2
  10   1  -2 1240.15 615.900   2
 -10  -1   2 794.942 342.539   7
  10   1  -2 784.030 419.932   5
  10   1  -1 6532.19 1326.98   2
 -10  -1   1 6891.37 870.111   7
  10   1  -1 6443.44 1243.34   5
  10   1   0 959.498 542.395   5
  10   1   0 1208.89 582.306   2
  10   1   1 993.010 452.561   5
  10   1   2 3292.82 995.665   5
  10   1   3 1263.51 563.965   5
 -10  -1  -3 2227.56 644.345   1
 -10  -1  -4 5127.25 957.681   1
  10   1   4 4147.13 1014.00   5
  10   1   5 3279.01 926.818   5
 -10  -1  -5 3481.23 776.534   1
 -10  -1  -6 761.299 382.999   1
  10   1   6 410.108 411.801   5
 -10  -1  -7-23.5076 105.430   1
  10   1   7 48.0873 229.155   5
  10   1   8-35.9174 139.614   5
  10   1   9 804.053 455.167   5
  10   1  10 1153.81 574.674   5
  10   1  11 500.157 534.985   5
 -10  -1 -12 913.036 541.501   6
  10   1  12 400.283 356.304   5
 -10  -1 -13-240.712 283.557   6
 -10  -1 -14 195.764 351.093   6
 -10  -1 -15 381.391 360.834   6
 -10  -2  21-305.630 385.071   7
 -10  -2  20 213.842 440.486   7
 -10  -2  19-243.914 433.561   7
 -10  -2  18-49.2874 164.133   7
 -10  -2  17 306.200 339.292   7
 -10  -2  16 146.190 264.727   7
  10   2 -16 855.550 446.603   5
 -10  -2  15 387.399 337.598   7
  10   2 -15-203.030 232.027   5
 -10  -2  14 174.998 250.387   7
  10   2 -14-599.781 381.279   5
 -10  -2  13 251.939 340.111   7
  10   2 -13 130.218 205.734   5
 -10  -2  12-330.435 422.484   7
  10   2 -12-115.624 150.907   5
 -10  -2  11 3497.12 945.587   7
  10   2 -11 4604.36 1044.43   5
 -10  -2  10 117.738 113.670   7
  10   2 -10 1203.24 521.946   5
 -10  -2   9 1632.05 603.208   7
  10   2  -9 1508.42 571.757   5
 -10  -2   8 2956.63 774.298   7
  10   2  -8 1998.77 672.419   5
  10   2  -7 10163.3 1568.73   5
 -10  -2   7 10509.2 1483.07   7
  10   2  -6 13834.8 1795.15   5
 -10  -2   6 12247.9 1528.76   7
  10   2  -6 12221.7 1851.34   2
 -10  -2   5 6054.81 1035.06   7
  10   2  -5 6787.93 1297.08   5
  10   2  -5 6270.66 1291.39   2
 -10  -2   4-47.9249 145.366   7
  10   2  -4 227.021 284.870   5
 -10  -2   3 367.658 227.332   7
  10   2  -3 788.793 335.484   5
  10   2  -3 506.383 309.675   2
  10   2  -2 408.962 342.117   2
 -10  -2   2 1055.83 366.750   7
  10   2  -2 1266.05 527.699   5
  10   2  -1 1139.23 570.133   2
 -10  -2   1 1187.09 409.623   7
  10   2  -1 1091.26 531.230   5
  10   2   0 2318.48 783.616   5
  10   2   0 1983.39 761.011   2
  10   2   1 1042.62 530.315   5
  10   2   2 2846.85 932.067   5
  10   2   3-43.9854 216.011   5
 -10  -2  -3-38.1008 203.740   1
 -10  -2  -4 2283.61 618.635   1
  10   2   4 2355.21 768.572   5
  10   2   5 566.687 467.816   5
 -10  -2  -5 21.4176 100.463   1
 -10  -2  -6 167.551 237.826   1
  10   2   6 128.039 179.200   5
  10   2   7 274.815 304.795   5
 -10  -2  -7 34.2192 106.808   1
  10   2   8 1830.11 735.693   5
  10   2   9 154.141 306.569   5
  10   2  10 2202.65 811.103   5
  10   2  11 87.1521 255.363   5
  10   2  12 2131.17 816.196   5
 -10  -2 -13-55.5682 157.143   6
  10   2  13 322.350 419.323   5
 -10  -2 -14-474.089 403.440   6
 -10  -3  21 679.016 498.292   7
 -10  -3  20 429.668 371.746   7
 -10  -3  19-398.092 414.220   7
 -10  -3  18 69.0632 186.169   7
 -10  -3  17 314.856 178.184   7
  10   3 -17 456.514 304.840   5
 -10  -3  16 705.671 541.096   7
  10   3 -16-92.8030 209.576   5
 -10  -3  15-563.343 435.975   7
  10   3 -15-12.7669 193.525   5
 -10  -3  14-69.1394 364.571   7
  10   3 -14-202.443 281.732   5
 -10  -3  13 53.6323 247.444   7
  10   3 -13 494.941 404.080   5
 -10  -3  12-175.119 262.932   7
  10   3 -12 294.230 149.342   5
 -10  -3  11-41.9652 340.083   7
  10   3 -11 801.516 462.704   5
 -10  -3  10 2165.42 747.862   7
  10   3 -10 1997.09 721.887   5
 -10  -3   9 352.868 150.550   7
  10   3  -9 696.294 479.383   5
 -10  -3   8 691.080 374.766   7
  10   3  -8 2032.14 742.751   5
  10   3  -7 18226.2 2135.47   5
 -10  -3   7 18927.3 1997.22   7
 -10  -3   6 7968.26 1254.84   7
  10   3  -6 7942.46 1418.67   5
  10   3  -6 8488.92 1548.56   2
 -10  -3   5 228.631 152.751   7
  10   3  -5 73.1059 300.896   5
  10   3  -5-40.3567 282.323   2
  10   3  -4 96.8466 277.918   5
  10   3  -4-196.253 202.380   2
  10   3  -3 245.547 224.357   2
 -10  -3   3 138.709 135.784   7
  10   3  -3 89.7457 217.069   5
  10   3  -2 1975.68 708.072   2
 -10  -3   2 2082.51 564.250   7
  10   3  -2 2410.27 771.342   5
  10   3  -1 404.488 330.655   2
  10   3  -1-98.5647 345.150   5
  10   3   0 50.2500 269.266   5
  10   3   1 2429.87 841.554   5
  10   3   2 9915.47 1665.36   5
  10   3   3 3805.20 1039.58   5
 -10  -3  -3 3775.14 777.998   1
 -10  -3  -4-257.794 229.309   1
  10   3   4 975.950 518.629   5
  10   3   5 680.479 401.973   5
 -10  -3  -5 547.223 304.481   1
  10   3   6 2057.88 826.275   5
  10   3   7-994.181 535.682   5
  10   3   8 538.245 410.616   5
  10   3   9-56.3889 194.912   5
  10   3  10 754.329 519.736   5
  10   3  11 325.013 381.213   5
  10   3  12 616.257 527.103   5
  10   3  13-144.087 230.771   5
 -10  -3 -14 124.513 199.035   6
 -10  -4  21 710.441 620.101   7
 -10  -4  20 394.609 598.533   7
 -10  -4  19-272.104 354.151   7
 -10  -4  18 925.894 619.818   7
  10   4 -18 82.3287 175.331   5
 -10  -4  17-160.821 263.119   7
  10   4 -17 211.465 229.683   5
 -10  -4  16 288.773 174.376   7
  10   4 -16 242.284 327.039   5
 -10  -4  15 650.763 479.966   7
  10   4 -15 317.683 277.610   5
 -10  -4  14 799.334 468.775   7
  10   4 -14 2042.35 758.579   5
 -10  -4  13 106.384 314.399   7
  10   4 -13 461.427 333.172   5
 -10  -4  12 833.267 518.368   7
  10   4 -12 1412.71 604.602   5
 -10  -4  11 501.083 387.450   7
  10   4 -11 477.427 466.163   5
 -10  -4  10 928.736 417.919   7
  10   4 -10 629.237 385.900   5
 -10  -4   9 64.1484 149.009   7
  10   4  -9 1.27568 330.094   5
 -10  -4   8 1153.25 506.128   7
  10   4  -8 807.757 464.812   5
  10   4  -7 15228.7 2012.64   5
 -10  -4   7 15410.1 1855.98   7
  10   4  -7 12088.4 1830.19   2
  10   4  -6 10545.0 1690.78   5
 -10  -4   6 10270.1 1463.91   7
  10   4  -6 9172.60 1559.67   2
 -10  -4   5 729.350 373.335   7
  10   4  -5 1034.68 463.026   5
  10   4  -5 120.203 117.882   2
 -10  -4   4 1451.55 536.783   7
  10   4  -4 860.565 512.125   5
  10   4  -4 949.328 498.103   2
  10   4  -3 2229.53 705.983   2
 -10  -4   3 2657.17 677.480   7
  10   4  -3 2547.03 857.366   5
  10   4  -2 3010.34 809.772   2
  10   4  -2 2786.92 894.813   5
  10   4  -1-407.368 465.176   5
  10   4   0 2880.59 916.802   5
  10   4   1-4.03701 251.335   5
  10   4   2 5924.23 1301.31   5
  10   4   3 1255.31 488.089   5
 -10  -4  -3 940.917 393.643   1
  10   4   4 61.7869 264.603   5
  10   4   5 2154.82 833.965   5
  10   4   6 2103.11 790.471   5
  10   4   7 114.772 239.578   5
  10   4   8-443.960 447.545   5
  10   4   9 267.572 363.127   5
  10   4  10-517.837 407.272   5
  10   4  11 172.525 209.306   5
  10   4  12 925.719 549.566   5
  10   4  13 249.981 322.115   5
  10   4  14 342.700 478.383   5
 -10  -5  20-194.389 181.007   7
 -10  -5  19-632.331 523.534   7
 -10  -5  18-112.351 403.157   7
 -10  -5  17 1461.17 694.388   7
 -10  -5  16-160.686 183.418   7
  10   5 -16 392.994 312.311   5
 -10  -5  15 443.682 434.363   7
  10   5 -15 1861.22 753.581   5
 -10  -5  14-153.147 242.846   7
  10   5 -14-536.904 404.074   5
 -10  -5  13 2131.81 803.476   7
  10   5 -13 2827.13 861.762   5
 -10  -5  12 4042.41 1107.50   7
  10   5 -12 4647.27 1136.69   5
 -10  -5  11 775.470 539.228   7
  10   5 -11 610.634 391.377   5
 -10  -5  10 273.617 265.448   7
  10   5 -10 60.0346 191.453   5
 -10  -5   9-65.1594 210.888   7
  10   5  -9 229.613 327.492   5
 -10  -5   8 1552.71 634.639   7
  10   5  -8 952.471 554.101   2
  10   5  -8 1999.58 670.709   5
 -10  -5   7 7469.77 1319.26   7
  10   5  -7 8746.14 1558.87   5
  10   5  -7 6841.67 1347.36   2
 -10  -5   6 1889.31 592.990   7
  10   5  -6 1738.71 689.214   5
  10   5  -6 1731.49 643.925   2
 -10  -5   5 2287.63 693.358   7
  10   5  -5 2928.39 907.785   5
  10   5  -5 2858.37 800.646   2
  10   5  -4 837.709 520.313   2
 -10  -5   4 1774.34 612.115   7
  10   5  -4 2105.09 827.436   5
  10   5  -3 22526.1 2493.46   5
  10   5  -3 22525.1 2360.84   2
  10   5  -2 17414.1 2260.23   5
  10   5  -2 16843.4 2015.22   2
  10   5  -1 366.236 179.231   5
  10   5   0 266.476 170.278   5
  10   5   1 1679.77 681.177   5
  10   5   2 6830.84 1414.75   5
  10   5   3 1066.24 553.497   5
  10   5   4-651.633 447.801   5
  10   5   5 178.598 245.228   5
  10   5   6 78.9813 295.094   5
  10   5   7 85.5696 285.744   5
  10   5   7 241.692 303.528   4
  10   5   8 229.542 263.597   5
  10   5   8-745.071 516.786   4
  10   5   9-97.0940 194.773   5
  10   5   9-101.499 145.842   4
  10   5  10 28.8060 220.768   5
  10   5  10-612.331 487.788   4
  10   5  11 323.320 441.807   5
  10   5  11 4.79003 164.872   4
  10   5  12 190.689 313.697   5
  10   5  13-453.813 391.130   5
  10   5  14-501.752 415.257   5
 -10  -6  20-1433.56 796.833   7
 -10  -6  19-28.3410 147.069   7
 -10  -6  18 356.409 125.714   7
 -10  -6  17 538.880 259.026   7
 -10  -6  16-682.328 505.630   7
 -10  -6  15-477.036 416.135   7
  10   6 -15 81.8293 176.684   5
 -10  -6  14 471.851 404.270   7
  10   6 -14 786.432 521.878   5
 -10  -6  13-152.282 239.327   7
  10   6 -13 667.095 487.599   5
 -10  -6  12 75.7158 338.081   7
  10   6 -12-146.708 285.184   5
 -10  -6  11 1542.28 726.232   7
  10   6 -11 1143.68 641.143   5
 -10  -6  10 1867.51 788.490   7
  10   6 -10 3498.42 999.015   5
 -10  -6   9 483.746 356.814   7
  10   6  -9-208.286 352.202   5
 -10  -6   8 5953.10 1250.88   7
  10   6  -8 4477.78 1134.94   5
  10   6  -8 5429.53 1227.43   2
 -10  -6   7 2855.31 835.770   7
  10   6  -7 1868.22 765.750   5
  10   6  -7 2137.29 720.477   2
 -10  -6   6 671.572 359.345   7
  10   6  -6 434.964 270.390   5
  10   6  -6 435.586 224.937   2
 -10  -6   5 66.0818 124.608   7
  10   6  -5 26.9679 245.168   5
  10   6  -4 259.152 293.702   2
  10   6  -4 392.299 394.699   5
  10   6  -3 2175.20 735.629   2
  10   6  -3 1968.07 821.108   5
  10   6  -2 1211.43 637.984   5
  10   6  -1 739.789 520.707   5
  10   6   0 49.0548 299.419   5
  10   6   1-145.738 394.322   5
  10   6   2-127.710 228.605   5
  10   6   2-372.279 353.797   4
  10   6   3 1209.64 604.746   5
  10   6   3 947.070 592.670   4
  10   6   4 169.287 133.502   5
  10   6   4 1249.56 655.224   4
  10   6   5 2247.23 832.640   5
  10   6   5 1383.21 652.538   4
  10   6   6 1937.51 766.019   5
  10   6   6 2244.26 838.347   4
  10   6   7-154.638 278.043   5
  10   6   7-607.765 473.143   4
  10   6   8 306.956 394.590   5
  10   6   8 265.840 267.053   4
  10   6   9-28.6332 132.088   5
  10   6   9 765.892 579.670   4
  10   6  10 376.459 332.334   5
  10   6  10-1384.69 738.047   4
  10   6  11 779.566 559.941   5
  10   6  11-135.692 249.473   4
  10   6  12-533.978 425.972   5
  10   6  12-56.2851 188.042   4
  10   6  13 1.66505 222.854   5
  10   6  14-64.3794 169.155   5
 -10  -7  20 48.2550 192.981   7
 -10  -7  19 97.7258 221.642   7
 -10  -7  18 122.261 122.870   7
 -10  -7  17 92.4458 224.775   7
 -10  -7  16 528.977 400.640   7
 -10  -7  15 620.555 481.447   7
 -10  -7  14 402.500 378.174   7
  10   7 -14 751.942 471.655   5
 -10  -7  13 1187.98 709.598   7
  10   7 -13 1224.86 686.917   5
 -10  -7  12 1153.43 622.078   7
  10   7 -12 392.710 283.495   5
 -10  -7  11 853.081 546.387   7
  10   7 -11 511.630 453.587   5
 -10  -7  10-567.605 417.414   7
  10   7 -10-661.777 463.402   5
 -10  -7   9 1108.59 587.134   7
  10   7  -9 1476.88 637.801   2
  10   7  -9 636.222 418.592   5
 -10  -7   8 863.864 469.886   7
  10   7  -8 1242.90 649.894   5
  10   7  -8 2073.95 770.430   2
 -10  -7   7 573.406 359.100   7
  10   7  -7 308.133 452.783   5
  10   7  -7 41.8115 260.037   2
 -10  -7   6 2556.95 807.976   7
  10   7  -6 2694.74 947.643   5
  10   7  -6 2303.88 744.282   2
  10   7  -5 641.850 351.958   2
  10   7  -5 1053.36 604.647   5
  10   7  -4-228.648 242.243   2
  10   7  -4-93.8492 355.362   5
  10   7  -3 6490.64 1404.26   5
  10   7  -2 5842.81 1355.29   5
  10   7  -1 65.6711 244.192   5
  10   7   0 3235.25 955.111   5
  10   7   0 3049.50 907.541   4
  10   7   1 41.0627 255.363   5
  10   7   1-81.6865 127.006   4
  10   7   2 5211.13 1317.73   5
  10   7   2 4951.84 1280.08   4
  10   7   3 883.311 524.968   5
  10   7   3 410.639 232.569   4
  10   7   4 29.4679 218.912   5
  10   7   4 342.357 166.733   4
  10   7   5 92.9284 374.763   5
  10   7   5 525.742 447.521   4
  10   7   6 267.414 303.111   5
  10   7   6 388.416 387.916   4
  10   7   7-15.3388 119.474   5
  10   7   7 1332.15 702.271   4
  10   7   8 109.776 213.174   5
  10   7   8-16.9451 257.644   4
  10   7   9 499.449 295.804   5
  10   7   9-149.732 267.735   4
  10   7  10 58.7833 166.851   5
  10   7  10-676.061 530.911   4
  10   7  11 284.702 321.411   5
  10   7  11-665.297 537.522   4
  10   7  12-137.335 229.947   5
  10   7  13 181.980 262.707   5
 -10  -8  19 359.033 412.331   7
 -10  -8  18-460.841 455.844   7
 -10  -8  17-152.584 161.244   7
 -10  -8  16 430.975 415.412   7
 -10  -8  15-20.6558 132.541   7
 -10  -8  14-343.197 366.186   7
 -10  -8  13 727.633 501.564   7
  10   8 -13-119.816 343.641   5
 -10  -8  12 10.8443 250.175   7
  10   8 -12 170.994 230.771   5
 -10  -8  11 798.330 566.289   7
  10   8 -11 841.870 658.819   5
 -10  -8  10 682.502 521.949   7
  10   8 -10 240.622 298.989   2
  10   8 -10 17.9337 286.975   5
 -10  -8   9 176.988 332.404   7
  10   8  -9-273.575 390.245   5
  10   8  -9-179.103 225.304   2
 -10  -8   8 556.522 506.595   7
  10   8  -8 271.283 256.615   2
  10   8  -7 1854.00 892.316   5
  10   8  -7 1257.22 565.590   2
  10   8  -6 1690.19 630.514   2
  10   8  -6 3842.65 1141.77   5
  10   8  -5 2251.98 731.906   2
  10   8  -5 2947.90 957.236   5
  10   8  -4 1278.33 627.892   5
  10   8  -3 114.414 260.997   5
  10   8  -2 111.795 384.692   5
  10   8  -2-642.481 432.364   4
  10   8  -1 57.0436 199.960   5
  10   8  -1 664.617 407.020   4
  10   8   0 380.087 446.233   5
  10   8   0-100.160 151.054   4
  10   8   1 443.866 348.363   5
  10   8   1 586.514 420.046   4
  10   8   2 554.394 493.512   5
  10   8   2 635.416 581.875   4
  10   8   3 240.703 371.376   5
  10   8   3 163.670 128.453   4
  10   8   4 339.571 315.873   5
  10   8   4 204.850 560.859   4
  10   8   5-377.303 367.871   5
  10   8   5 559.096 510.750   4
  10   8   6 549.257 532.348   5
  10   8   6 189.909 408.059   4
  10   8   7 264.678 382.070   5
  10   8   7-181.675 360.025   4
  10   8   8-52.3223 368.705   5
  10   8   8 230.081 141.037   4
  10   8   9-7.64339 99.7169   5
  10   8   9-133.703 250.267   4
  10   8  10 940.894 609.402   5
  10   8  11 528.610 568.423   5
 -10  -9  18 572.607 537.948   7
 -10  -9  17 2141.35 996.128   7
 -10  -9  16 100.918 231.511   7
 -10  -9  15 878.535 693.716   7
 -10  -9  14 2280.14 933.384   7
 -10  -9  13 277.581 160.102   7
  10   9 -13 217.825 313.662   5
 -10  -9  12 1456.87 803.417   7
  10   9 -12 1594.60 703.664   5
 -10  -9  11 420.993 373.044   7
  10   9 -11 416.919 544.182   5
 -10  -9  10 1278.00 619.853   7
  10   9 -10 1124.16 627.602   5
 -10  -9   9 636.539 453.433   7
  10   9  -9 48.0331 423.894   5
  10   9  -8 1328.35 648.040   5
  10   9  -7 2222.74 933.059   5
  10   9  -6 475.286 535.524   5
  10   9  -5-484.611 419.436   5
  10   9  -4 23.4853 221.024   5
  10   9  -4 502.317 412.588   4
  10   9  -3-287.561 420.771   5
  10   9  -3 126.787 240.648   4
  10   9  -2 67.3181 179.593   5
  10   9  -2-438.285 387.399   4
  10   9  -1 389.143 205.994   5
  10   9  -1 307.107 296.388   4
  10   9   0 1045.91 712.359   5
  10   9   0 122.138 225.889   4
  10   9   1 592.636 442.747   5
  10   9   1-118.977 284.605   4
  10   9   2 827.772 496.652   5
  10   9   2 760.343 430.292   4
  10   9   3 796.773 546.602   5
  10   9   3 1.74602 129.933   4
  10   9   4 194.342 310.276   5
  10   9   4 685.655 508.306   4
  10   9   5-167.069 260.147   5
  10   9   5-831.641 565.893   4
  10   9   6 87.7513 265.301   5
  10   9   6-1646.10 805.024   4
  10   9   7 431.603 396.986   5
  10   9   7-8.04599 134.762   4
  10   9   8 534.097 483.422   5
  10   9   8-386.833 419.827   4
  10   9   9 50.0870 245.898   5
  10   9  10-122.866 225.947   5
 -10 -10  17-224.028 332.094   7
 -10 -10  16 68.0819 201.247   7
 -10 -10  15-898.019 618.960   7
 -10 -10  14 130.768 175.270   7
 -10 -10  13 475.289 410.020   7
  10  10 -13 491.830 586.178   5
 -10 -10  12 398.238 401.821   7
  10  10 -12-71.6710 473.115   5
 -10 -10  11 696.239 561.689   7
  10  10 -11 1736.70 891.665   5
  10  10 -10 207.436 372.451   5
  10  10  -9-115.663 300.189   5
  10  10  -8 481.939 504.371   5
  10  10  -7 1100.90 742.820   5
  10  10  -6-324.129 354.167   5
  10  10  -5 295.168 203.007   5
  10  10  -5 7.02000 232.544   4
  10  10  -4-789.391 539.010   5
  10  10  -4-162.797 234.227   4
  10  10  -3 303.685 399.674   5
  10  10  -3 188.832 305.726   4
  10  10  -2-83.4195 473.279   5
  10  10  -2-79.4261 227.930   4
  10  10  -1 196.875 343.133   5
  10  10  -1 1064.14 572.460   4
  10  10   0 824.996 583.875   5
  10  10   0 561.905 476.394   4
  10  10   1 744.749 464.353   5
  10  10   1 1024.47 623.108   4
  10  10   2-218.804 299.901   5
  10  10   2 1222.61 674.163   4
  10  10   3 251.018 323.441   5
  10  10   3-1452.36 738.203   4
  10  10   4 59.0306 123.848   5
  10  10   4-590.963 488.129   4
  10  10   5 507.676 424.374   5
  10  10   5-286.988 350.668   4
  10  10   6-301.656 340.735   5
  10  10   6 316.938 525.404   4
  10  10   7-0.90665 264.176   5
  10  10   8-608.570 477.784   5
  10  10   9 275.982 204.176   5
 -10 -11  16 272.773 359.680   7
 -10 -11  15-210.278 320.506   7
 -10 -11  14 408.291 348.125   7
 -10 -11  13 56.6822 237.971   7
  10  11 -13 1110.86 743.255   5
  10  11 -12 775.122 671.940   5
  10  11 -11 100.589 272.824   5
  10  11 -10 169.552 140.818   5
  10  11  -9 262.906 306.738   5
  10  11  -8 870.949 476.402   5
  10  11  -7-149.465 436.874   5
  10  11  -6 1669.63 848.380   5
  10  11  -6 403.572 320.445   4
  10  11  -5-21.6443 133.485   5
  10  11  -5-4.46752 136.364   4
  10  11  -4 1256.75 635.708   5
  10  11  -4-36.1900 149.933   4
  10  11  -3 134.657 222.387   5
  10  11  -3-20.7317 196.340   4
  10  11  -2-4.68035 366.604   5
  10  11  -2-324.039 340.907   4
  10  11  -1 7.50764 183.037   5
  10  11  -1-170.460 265.754   4
  10  11   0 136.439 247.458   5
  10  11   0 230.654 173.348   4
  10  11   1 241.790 333.923   5
  10  11   1-555.815 459.493   4
  10  11   2 232.385 306.260   5
  10  11   2-330.150 371.368   4
  10  11   3 470.955 496.746   5
  10  11   3 154.352 260.249   4
  10  11   4 390.398 315.601   5
  10  11   4-171.075 285.129   4
  10  11   5-202.669 289.247   5
  10  11   6 416.977 400.955   5
  10  11   7 283.513 299.147   5
  10  12 -14 1179.20 688.921   5
  10  12 -13-58.4373 199.853   5
  10  12 -12 408.925 411.425   5
  10  12 -11 1153.03 775.014   5
  10  12 -10 839.457 600.486   5
  10  12  -9 719.646 589.041   5
  10  12  -8-48.8128 322.714   5
  10  12  -7 276.408 241.181   5
  10  12  -6-19.0328 283.312   5
  10  12  -6-558.740 420.084   4
  10  12  -5 672.107 540.109   5
  10  12  -5 587.349 473.140   4
  10  12  -4-68.4060 291.895   5
  10  12  -4-149.143 240.490   4
  10  12  -3 621.061 463.559   5
  10  12  -3 939.555 569.361   4
  10  12  -2 1141.13 676.053   5
  10  12  -2 565.616 516.895   4
  10  12  -1 532.567 422.891   5
  10  12  -1 1334.56 771.734   4
  10  12   0 65.2941 430.917   5
  10  12   0-371.017 390.583   4
  10  12   1-471.991 441.333   5
  10  12   1 730.431 708.892   4
  10  12   2 640.242 569.166   5
  10  12   2-782.944 569.853   4
  10  12   3 453.675 435.883   5
  10  12   4 432.861 588.888   5
  10  12   5 656.193 540.984   5
  10  13 -13 78.9771 207.808   3
  10  13 -10 253.724 350.458   5
  10  13  -9-66.4107 197.460   5
  10  13  -8-662.323 541.667   5
  10  13  -7-803.199 592.414   5
  10  13  -6 24.3788 151.023   5
  10  13  -6 287.861 208.960   4
  10  13  -5-445.400 444.850   5
  10  13  -5-507.949 421.458   4
  10  13  -4-695.306 544.929   5
  10  13  -4-13.0882 119.058   4
  10  13  -3-992.875 645.868   5
  10  13  -3 137.247 237.353   4
  10  13  -2 1656.10 907.148   5
  10  13  -2 138.124 263.589   4
  10  13  -1-312.966 373.690   5
  10  13  -1-466.717 437.222   4
  10  13   0 604.918 551.623   5
  10  13   0 193.882 297.128   4
  10  13   1-216.428 315.847   5
  10  13   2-312.391 370.359   5
  10  13   3 1786.52 952.332   5
  10  14  -5 1390.91 698.592   4
  10  14  -4-17.6612 130.398   4
  10  14  -3-284.572 342.069   4
  10  14  -2-528.667 468.840   4
 -11  13   7-781.470 558.368   7
 -11  13   7 108.599 228.539   1
 -11  13   6 0.94158 210.013   7
 -11  13   6 79.6204 114.800   1
 -11  13   5-78.0752 199.758   1
 -11  13   4-0.93885 339.332   1
 -11  13   3 743.273 575.793   1
 -11  13   2 19.4083 256.908   1
 -11  13   1 366.743 505.058   1
 -11  13   0 162.763 361.138   1
 -11  13  -1-238.634 308.605   1
 -11  13  -2 354.631 442.510   1
 -11  13  -3 916.739 582.894   1
 -11  13  -4 429.068 370.973   3
 -11  13  -5-202.084 271.658   3
 -11  13  -6-380.969 368.989   3
 -11  13  -7 304.786 441.136   3
 -11  13  -8-560.034 461.374   3
 -11  12   9 1631.08 816.713   7
 -11  12   8 683.135 522.578   7
 -11  12   7 200.076 370.465   1
 -11  12   7-379.903 386.535   7
 -11  12   6-343.889 356.473   7
 -11  12   6-5.58496 109.687   1
 -11  12   5 871.365 444.248   7
 -11  12   5 141.315 385.741   1
 -11  12   4-195.008 277.273   1
 -11  12   3-0.91078 114.015   1
 -11  12   2-195.379 279.651   1
 -11  12   1 0.89080 137.662   1
 -11  12   0 156.237 409.071   1
 -11  12  -1 350.524 310.285   1
 -11  12  -2-331.767 349.282   1
 -11  12  -3-172.947 260.637   1
 -11  12  -3 222.781 259.883   3
 -11  12  -4 161.206 137.876   3
 -11  12  -4 23.9800 287.937   1
 -11  12  -5 33.7598 132.092   1
 -11  12  -5 66.9898 167.866   3
 -11  12  -6 228.008 263.055   1
 -11  12  -6 133.298 228.655   3
 -11  12  -7-0.83632 277.348   3
 -11  12  -8 405.818 384.432   3
 -11  12  -9-262.016 319.217   3
 -11  11  11-515.337 478.541   7
 -11  11  10 410.155 543.261   7
 -11  11   9-246.647 317.569   7
 -11  11   8-448.110 411.822   7
 -11  11   7 486.290 494.497   7
 -11  11   6-83.2676 183.476   7
 -11  11   5-0.89074 104.257   1
 -11  11   5 415.178 489.469   7
  11 -11  -5 212.140 424.393   2
  11 -11  -4 131.995 146.417   2
 -11  11   4-327.375 349.352   1
  11 -11  -3 90.3427 225.420   2
 -11  11   3 92.1553 237.195   1
 -11  11   2 528.498 457.717   1
  11 -11  -2 280.470 277.911   2
 -11  11   1-26.7574 141.388   1
  11 -11  -1 219.432 274.393   2
 -11  11   0-306.123 337.453   1
 -11  11  -1 145.925 187.372   1
 -11  11  -2 465.532 332.088   3
 -11  11  -2 1255.34 657.409   1
 -11  11  -3 535.809 472.911   1
 -11  11  -3 654.176 445.732   3
 -11  11  -4 360.704 380.384   1
 -11  11  -4 439.017 400.587   3
 -11  11  -5-184.263 246.086   3
 -11  11  -5 347.233 486.054   1
 -11  11  -6 187.049 288.888   1
 -11  11  -6 139.262 219.306   3
 -11  11  -7 320.044 437.833   1
 -11  11  -7 98.3591 199.673   3
 -11  11  -8 215.253 284.473   3
 -11  11  -9 7.82643 94.6736   3
 -11  11 -10-146.879 252.168   3
 -11  10  12-258.286 342.319   7
 -11  10  11-774.209 557.982   7
 -11  10  10 606.095 537.008   7
  11 -10  -9-150.209 258.181   2
 -11  10   9 96.1317 205.284   7
  11 -10  -8 95.1089 205.915   2
 -11  10   8-406.370 381.652   7
 -11  10   7-298.296 320.627   7
  11 -10  -7-876.238 561.552   2
 -11  10   6-356.700 340.163   7
  11 -10  -6-509.684 426.754   2
 -11  10   5 813.585 526.830   7
  11 -10  -5 87.1630 298.513   2
 -11  10   4 634.188 372.540   7
  11 -10  -4 614.116 551.668   2
  11 -10  -3-23.4631 118.418   2
 -11  10   3 225.991 319.775   1
  11 -10  -2 0.79567 177.316   2
 -11  10   2 467.978 418.104   1
  11 -10  -1 2136.25 850.386   2
 -11  10   1 1426.95 718.460   1
 -11  10   0 307.988 338.714   1
 -11  10  -1 36.9525 153.880   1
 -11  10  -2 586.115 536.312   1
 -11  10  -2 126.754 229.272   3
 -11  10  -3 259.517 244.325   1
 -11  10  -3 215.521 331.582   3
 -11  10  -4-811.335 524.545   1
 -11  10  -4-113.088 187.805   3
 -11  10  -5 373.155 473.967   1
 -11  10  -5-4.18563 253.417   3
 -11  10  -6 1627.03 749.114   1
 -11  10  -6 969.992 593.936   3
 -11  10  -7 216.524 299.651   3
 -11  10  -7-298.522 331.001   1
 -11  10  -8 1128.47 631.677   3
 -11  10  -9-2.50000 92.5143   3
 -11  10 -10 492.858 437.243   3
 -11  10 -11-331.272 356.777   3
 -11   9  13 262.549 296.786   7
 -11   9  12 582.559 446.197   7
 -11   9  11 272.924 330.918   7
 -11   9  10 33.9289 149.548   7
 -11   9   9 21.9942 105.706   7
  11  -9  -8-94.5115 206.834   2
 -11   9   8 519.909 419.266   7
  11  -9  -7-94.5930 202.003   2
 -11   9   7-235.823 374.306   7
 -11   9   6-156.185 223.327   7
  11  -9  -6 50.6525 154.001   2
 -11   9   5 492.455 370.133   7
  11  -9  -5-330.156 343.029   2
 -11   9   4 327.692 309.675   7
  11  -9  -4 117.498 212.685   2
  11  -9  -3 216.593 273.504   2
  11  -9  -2 185.960 308.529   2
 -11   9   2 13.7412 127.845   1
  11  -9  -1 16.3872 108.513   2
 -11   9   1 132.017 153.817   1
  11  -9   0 304.982 419.531   2
 -11   9   0 150.094 187.523   1
 -11   9  -1-166.138 252.597   1
 -11   9  -1-215.018 223.335   3
 -11   9  -2-216.290 276.483   1
 -11   9  -2 5.70144 238.993   3
 -11   9  -3 624.566 536.376   1
 -11   9  -3 363.975 349.930   3
 -11   9  -4 370.276 327.725   3
 -11   9  -4 698.387 344.368   1
 -11   9  -5 751.973 530.340   3
 -11   9  -5 424.491 405.007   1
 -11   9  -6 207.671 252.520   3
 -11   9  -6 389.883 444.904   1
 -11   9  -7 526.359 309.127   3
 -11   9  -7 275.070 316.177   1
 -11   9  -8 18.3908 189.908   3
 -11   9  -8 285.649 436.828   1
 -11   9  -9-573.134 440.256   3
 -11   9 -10 258.760 316.996   3
 -11   9 -11-125.666 112.692   3
 -11   9 -12 1215.75 745.012   3
 -11   8  15-102.114 235.026   7
 -11   8  14-195.162 301.368   7
 -11   8  13 350.659 525.228   7
 -11   8  12-203.820 293.664   7
 -11   8  11 571.505 424.148   7
 -11   8  10-14.3262 181.762   7
 -11   8   9-457.205 389.366   7
  11  -8  -8 34.7947 196.841   2
 -11   8   8 184.858 133.177   7
  11  -8  -7 487.764 504.017   2
 -11   8   7-241.931 183.208   7
 -11   8   6 374.091 407.930   7
  11  -8  -6 959.565 616.766   2
 -11   8   5 92.8335 190.964   7
  11  -8  -5 232.018 333.862   2
 -11   8   4 1335.64 554.774   7
  11  -8  -4 1334.79 681.809   2
  11  -8  -3 736.406 566.955   2
  11  -8  -2 199.039 274.657   2
  11  -8  -1 138.080 167.211   2
 -11   8   1 735.340 519.129   1
  11  -8   0 781.286 552.716   2
 -11   8   0 645.711 516.810   1
 -11   8   0 351.041 343.724   3
 -11   8  -1 1237.11 636.410   1
 -11   8  -1 2011.18 656.101   3
 -11   8  -2 2266.21 689.464   3
 -11   8  -2 1609.03 689.993   1
 -11   8  -3 118.367 202.736   3
 -11   8  -3 75.7068 286.720   1
 -11   8  -4-353.418 186.860   3
 -11   8  -4-496.426 402.761   1
 -11   8  -5 3890.91 1119.96   1
 -11   8  -5 2814.90 882.343   3
 -11   8  -6 3543.46 1028.80   3
 -11   8  -6 3001.67 982.502   1
 -11   8  -7 700.286 507.040   3
 -11   8  -7-335.176 334.038   1
 -11   8  -8 242.275 233.893   3
 -11   8  -8 595.879 476.600   1
 -11   8  -9-248.801 295.092   3
 -11   8 -10 922.688 578.140   3
 -11   8 -11 138.473 296.375   3
 -11   8 -12 151.339 205.566   3
 -11   8 -13 33.7332 201.589   3
 -11   7  16-111.358 242.594   7
 -11   7  15 142.602 257.579   7
 -11   7  14 411.169 414.264   7
 -11   7  13-95.3196 157.401   7
 -11   7  12-110.777 215.566   7
 -11   7  11 210.193 419.491   7
 -11   7  10 947.023 645.455   7
 -11   7   9 1042.15 567.094   7
 -11   7   8 753.410 509.529   7
  11  -7  -7 417.607 368.571   2
 -11   7   7 116.171 256.321   7
 -11   7   6 576.435 324.902   7
  11  -7  -6-574.717 447.997   2
 -11   7   5 143.761 163.285   7
  11  -7  -5 664.816 516.950   2
 -11   7   4-41.9600 168.660   7
  11  -7  -4-822.477 519.867   2
 -11   7   3-259.403 233.108   7
  11  -7  -3 444.648 353.227   2
  11  -7  -2 183.012 284.115   2
  11  -7  -1 1485.73 730.299   2
 -11   7   1 1504.62 518.617   3
 -11   7   0 405.944 300.962   3
  11  -7   0-39.4999 270.363   2
 -11   7  -1-36.3710 186.691   3
 -11   7  -1 162.709 425.406   1
 -11   7  -2 1844.10 726.798   1
 -11   7  -2 973.935 474.205   3
 -11   7  -3 1883.31 637.750   3
 -11   7  -3 3302.96 998.100   1
 -11   7  -4 114.696 189.808   3
 -11   7  -4-104.662 194.758   1
 -11   7  -5 352.977 268.539   3
 -11   7  -5 5.08740 226.691   1
 -11   7  -6 968.589 589.533   1
 -11   7  -6 367.545 296.283   3
 -11   7  -7-268.967 286.309   3
 -11   7  -7 164.447 244.337   1
 -11   7  -8 315.703 373.512   1
 -11   7  -8-846.227 501.479   3
 -11   7  -9 79.0777 116.731   3
 -11   7 -10 328.190 363.671   3
 -11   7 -11 25.2478 141.315   3
 -11   7 -11 379.594 295.315   6
 -11   7 -12-517.104 437.294   3
 -11   7 -12-120.646 131.684   6
 -11   7 -13 23.1149 255.242   3
 -11   7 -13 60.0308 178.423   6
 -11   7 -14-493.377 380.455   6
 -11   7 -15-355.154 336.089   6
 -11   7 -16 178.442 212.576   6
 -11   6  16-463.910 449.056   7
 -11   6  15-620.213 507.958   7
 -11   6  14-87.4337 214.890   7
 -11   6  13 705.777 520.445   7
 -11   6  12-62.1316 169.824   7
 -11   6  11 603.394 573.547   7
 -11   6  10-163.453 281.862   7
 -11   6   9 273.292 165.531   7
 -11   6   8 179.452 94.8703   7
  11  -6  -7 1521.69 737.394   2
 -11   6   7 931.687 488.077   7
 -11   6   6 127.376 193.904   7
  11  -6  -6 401.816 464.700   2
 -11   6   5 2291.27 725.718   7
  11  -6  -5 639.759 456.484   2
  11  -6  -4 2689.56 695.287   5
 -11   6   4 3776.51 870.067   7
  11  -6  -4 2096.06 815.239   2
  11  -6  -3 378.286 281.423   5
 -11   6   3 558.697 335.132   7
  11  -6  -3-321.404 334.104   2
  11  -6  -2 687.739 324.581   2
  11  -6  -2 1471.82 530.315   5
 -11   6   1-258.869 210.145   3
  11  -6  -1-145.302 342.976   2
 -11   6   0 954.393 432.490   3
  11  -6   0 1238.73 650.975   2
 -11   6  -1 56.0266 124.789   3
 -11   6  -1-62.1746 313.663   1
 -11   6  -2 2249.47 696.523   3
 -11   6  -2 2520.56 866.175   1
 -11   6  -3 128.773 145.585   1
 -11   6  -3 471.582 342.377   3
 -11   6  -4 508.576 366.442   3
 -11   6  -4-429.161 360.594   1
 -11   6  -5 581.924 291.873   3
 -11   6  -5 593.757 461.088   1
 -11   6  -6-32.7720 219.177   1
 -11   6  -6 1253.93 567.531   3
 -11   6  -7 1396.90 530.943   6
 -11   6  -7 1460.32 604.523   3
 -11   6  -7 1407.32 659.957   1
 -11   6  -8 893.869 420.782   6
 -11   6  -8 1779.05 772.848   3
 -11   6  -8 784.724 470.040   1
 -11   6  -9 122.112 174.006   6
 -11   6  -9 68.3593 326.535   3
 -11   6  -9 471.089 475.805   1
 -11   6 -10 163.102 90.4572   6
 -11   6 -10-699.579 479.108   3
 -11   6 -11 9.92871 247.326   6
 -11   6 -11-177.528 324.543   3
 -11   6 -12 219.795 279.620   6
 -11   6 -12-802.058 537.484   3
 -11   6 -13 1348.14 629.683   6
 -11   6 -13 1268.51 720.268   3
 -11   6 -14 1.42425 242.891   6
 -11   6 -14-990.527 622.189   3
 -11   6 -15 145.565 410.168   6
 -11   6 -16 484.653 333.227   6
 -11   5  17-583.831 509.741   7
 -11   5  16 57.9160 183.328   7
 -11   5  15-586.324 484.722   7
 -11   5  14-184.083 272.229   7
 -11   5  13 191.968 274.900   7
 -11   5  12 419.151 569.219   7
 -11   5  11 156.751 158.262   7
 -11   5  10 802.939 539.264   7
 -11   5   9 3347.17 946.641   7
 -11   5   8 2589.13 821.461   7
 -11   5   7 221.621 334.476   7
  11  -5  -6 2267.28 617.245   5
 -11   5   6 1599.39 608.972   7
  11  -5  -6 1854.27 790.790   2
  11  -5  -5 761.667 355.387   5
 -11   5   5 348.866 147.382   7
  11  -5  -5 695.532 370.906   2
  11  -5  -4 1036.31 440.157   5
 -11   5   4 499.830 279.718   7
  11  -5  -4 480.203 372.266   2
  11  -5  -3 2213.38 621.774   5
 -11   5   3 1751.99 530.371   7
  11  -5  -3 1162.69 570.764   2
  11  -5  -2 2028.49 751.397   2
 -11   5   2 1699.91 518.447   3
  11  -5  -2 1626.40 546.558   5
  11  -5  -1 167.817 343.221   2
  11  -5  -1 526.554 348.680   5
 -11   5   1 331.814 221.409   3
  11  -5   0 1015.25 495.803   5
  11  -5   0 1039.69 607.809   2
 -11   5   0 1032.30 420.870   3
  11  -5   1 174.902 113.901   5
 -11   5  -1 70.4235 130.784   3
  11  -5   1-189.668 371.503   2
  11  -5   2 856.254 465.721   5
 -11   5  -2 1011.94 456.164   3
 -11   5  -2 832.936 549.691   1
 -11   5  -3 4189.70 1082.51   1
  11  -5   3 4836.96 1056.15   5
 -11   5  -4 1143.30 396.715   6
 -11   5  -4 97.0968 193.098   1
 -11   5  -5 557.796 304.620   6
 -11   5  -5 254.109 213.610   1
 -11   5  -6 712.129 369.595   1
 -11   5  -6 518.379 307.534   6
 -11   5  -7 839.129 373.530   6
 -11   5  -7 924.682 570.667   1
 -11   5  -8-420.100 288.428   6
 -11   5  -8 354.715 280.620   1
 -11   5  -9 103.837 160.203   6
 -11   5  -9-652.017 426.497   1
 -11   5 -10 88.5461 151.886   6
 -11   5 -11-68.6658 145.234   6
 -11   5 -12 631.255 399.191   6
 -11   5 -13 35.0312 201.532   6
 -11   5 -14 278.391 388.164   6
 -11   5 -15-165.542 240.598   6
 -11   5 -16 608.705 569.297   6
 -11   4  18-490.465 469.221   7
 -11   4  17-83.9310 206.334   7
 -11   4  16-470.027 444.114   7
 -11   4  15 567.328 479.853   7
 -11   4  14 819.926 497.319   7
 -11   4  13-108.404 208.227   7
 -11   4  12 1959.15 788.121   7
 -11   4  11 2160.26 880.294   7
 -11   4  10 116.906 188.780   7
 -11   4   9 1456.59 599.614   7
 -11   4   8 617.916 341.327   7
  11  -4  -7 422.079 273.007   5
 -11   4   7 207.243 105.486   7
  11  -4  -6 1086.38 444.646   5
 -11   4   6 1555.83 577.812   7
  11  -4  -6 759.504 521.990   2
  11  -4  -5 1792.13 616.637   5
 -11   4   5 1332.90 511.517   7
  11  -4  -5 1014.25 577.514   2
  11  -4  -4 7773.62 1203.86   5
 -11   4   4 7855.36 1183.77   7
  11  -4  -4 6819.34 1458.66   2
 -11   4   3-354.063 213.480   3
  11  -4  -3-270.842 193.753   5
 -11   4   3 287.219 236.678   7
  11  -4  -3-10.4648 354.290   2
  11  -4  -2 746.917 489.695   2
  11  -4  -2 1648.49 654.936   5
 -11   4   2 2120.03 543.664   3
  11  -4  -1 2189.12 803.248   2
  11  -4  -1 1749.17 619.224   5
 -11   4   1 2529.44 630.110   3
  11  -4   0 7182.33 1215.55   5
  11  -4   0 5713.22 1370.77   2
 -11   4  -1-35.5161 79.8850   6
  11  -4   1-89.2712 252.091   5
  11  -4   1 412.781 532.444   2
 -11   4  -2 1503.41 446.801   6
  11  -4   2 893.624 490.945   5
 -11   4  -2 517.089 324.226   1
 -11   4  -3-19.7180 98.2325   6
  11  -4   3 11.8609 279.833   5
 -11   4  -3-137.530 395.270   1
 -11   4  -4 2548.89 621.228   6
  11  -4   4 3406.46 897.734   5
 -11   4  -4 2213.19 757.446   1
 -11   4  -5 1221.73 444.304   6
  11  -4   5 2035.36 724.086   5
 -11   4  -5 1339.90 615.601   1
 -11   4  -6 173.051 92.1719   6
 -11   4  -6-432.888 341.157   1
 -11   4  -7 169.770 275.784   6
 -11   4  -7 652.929 402.218   1
 -11   4  -8 2876.79 771.067   6
 -11   4  -8 1518.90 690.670   1
 -11   4  -9 228.352 237.681   6
 -11   4  -9 230.240 328.936   1
 -11   4 -10 85.2032 125.242   6
 -11   4 -11-205.055 236.102   6
 -11   4 -12 386.514 402.713   6
 -11   4 -13-37.0526 129.679   6
 -11   4 -14-187.139 248.035   6
 -11   4 -15 371.800 439.936   6
 -11   3  18 141.102 271.713   7
 -11   3  17-157.847 266.419   7
 -11   3  16-27.6197 152.165   7
 -11   3  15 416.877 397.559   7
 -11   3  14-336.341 350.538   7
 -11   3  13 365.078 309.436   7
 -11   3  12 172.512 391.843   7
 -11   3  11 1862.49 775.482   7
 -11   3  10 411.452 399.353   7
  11  -3  -9 1795.33 565.446   5
 -11   3   9 1310.52 586.539   7
  11  -3  -8-152.342 170.473   5
 -11   3   8 51.2821 211.431   7
  11  -3  -7 2123.69 616.106   5
 -11   3   7 1984.39 650.391   7
  11  -3  -6 2064.58 629.348   5
 -11   3   6 867.406 411.892   7
  11  -3  -6 1168.36 625.728   2
  11  -3  -5 36.4669 92.8664   5
 -11   3   5 269.079 193.386   7
  11  -3  -4 966.487 433.426   5
 -11   3   4 1367.31 477.530   7
  11  -3  -4 991.353 623.120   2
  11  -3  -3 804.166 467.658   5
 -11   3   3 589.630 337.594   7
  11  -3  -3 343.408 312.919   2
  11  -3  -2 10963.3 1835.75   2
  11  -3  -2 11930.5 1573.91   5
  11  -3  -1 6340.39 1370.78   2
  11  -3  -1 5648.28 1106.35   5
  11  -3   0-26.8193 140.847   5
  11  -3   0 229.011 197.118   2
  11  -3   1-24.6677 263.633   5
  11  -3   2-588.127 400.008   5
 -11   3  -2-567.493 384.678   1
  11  -3   3-126.226 166.292   5
 -11   3  -3 255.183 125.949   1
 -11   3  -4 5.54279 154.164   6
 -11   3  -4-399.951 325.074   1
  11  -3   4 259.920 224.618   5
 -11   3  -5-124.188 192.908   6
  11  -3   5 594.909 426.831   5
 -11   3  -5 407.979 295.678   1
 -11   3  -6 421.745 284.502   6
  11  -3   6 332.385 372.978   5
 -11   3  -6 302.959 170.953   1
 -11   3  -7 41.1796 125.929   6
  11  -3   7-208.723 267.039   5
 -11   3  -7-69.8023 126.683   1
 -11   3  -8 72.3681 108.200   6
 -11   3  -8 205.178 340.838   1
 -11   3  -9 198.521 167.371   6
 -11   3  -9 341.245 333.366   1
 -11   3 -10 200.266 213.176   6
 -11   3 -11 313.292 392.836   6
 -11   3 -12-413.948 338.609   6
 -11   3 -13 170.502 209.636   6
 -11   3 -14-57.3077 160.392   6
 -11   3 -15 321.235 619.011   6
 -11   2  19-102.521 231.483   7
 -11   2  18 854.911 601.874   7
 -11   2  17 580.636 504.716   7
 -11   2  16 453.893 421.461   7
 -11   2  15 362.349 329.538   7
 -11   2  14 1111.55 630.054   7
 -11   2  13 1096.13 616.901   7
 -11   2  12 1344.51 611.483   7
 -11   2  11 1796.19 637.944   7
  11  -2 -10 3426.81 820.448   5
 -11   2  10 4429.56 1091.17   7
  11  -2  -9 5441.35 1027.78   5
 -11   2   9 6325.62 1269.17   7
  11  -2  -8 1407.02 536.505   5
 -11   2   8 1563.66 617.181   7
  11  -2  -7 36.1328 232.454   5
 -11   2   7 64.4547 193.458   7
  11  -2  -6 99.6611 183.197   5
 -11   2   6 548.298 363.209   7
  11  -2  -6 427.955 415.803   2
  11  -2  -5 746.922 395.194   5
 -11   2   5 482.443 279.823   7
  11  -2  -5 503.189 367.031   2
  11  -2  -4 239.309 287.713   5
 -11   2   4 358.467 220.157   7
  11  -2  -4 88.4039 219.578   2
  11  -2  -3 139.900 194.679   5
  11  -2  -3-107.650 299.409   2
  11  -2  -2 1020.50 631.678   2
 -11   2   2 1595.97 446.213   7
  11  -2  -2 1439.79 595.793   5
  11  -2  -1 3260.53 1008.42   2
  11  -2  -1 2847.63 794.743   5
  11  -2   0 11004.6 1596.58   5
  11  -2   0 8781.84 1609.56   2
  11  -2   1 1848.84 732.560   5
  11  -2   2 91.1176 145.590   5
  11  -2   3-22.0682 187.451   5
 -11   2  -3 183.607 264.677   1
 -11   2  -4-227.085 244.309   1
  11  -2   4 232.353 317.465   5
  11  -2   5 380.719 184.688   5
 -11   2  -5 45.5284 206.419   1
  11  -2   6 85.2936 139.442   5
 -11   2  -6 227.055 149.993   1
 -11   2  -7 202.372 287.638   6
  11  -2   7-68.6057 293.531   5
 -11   2  -7 186.155 202.807   1
 -11   2  -8 65.9741 70.6665   6
  11  -2   8 306.575 240.902   5
 -11   2  -8 180.483 245.434   1
 -11   2  -9 139.190 225.652   6
  11  -2   9 468.631 466.594   5
 -11   2 -10 577.944 372.776   6
 -11   2 -11 717.865 439.097   6
 -11   2 -12 181.554 237.465   6
 -11   2 -13 538.989 508.452   6
 -11   2 -14 270.626 298.655   6
 -11   2 -15 181.091 377.268   6
 -11   1  19 747.344 662.563   7
 -11   1  18 25.3429 192.025   7
 -11   1  17 654.736 598.593   7
 -11   1  16 825.484 564.525   7
 -11   1  15-124.403 225.095   7
 -11   1  14-297.870 412.152   7
 -11   1  13 445.269 408.845   7
 -11   1  12 287.471 431.986   7
  11  -1 -11 534.911 327.952   5
 -11   1  11-6.05302 169.732   7
  11  -1 -10 751.479 383.557   5
 -11   1  10 1377.16 655.785   7
  11  -1  -9 129.387 195.039   5
 -11   1   9-729.921 421.371   7
  11  -1  -8 179.002 241.491   5
 -11   1   8 78.6318 253.425   7
  11  -1  -7 3737.45 906.758   5
 -11   1   7 3369.35 823.803   7
  11  -1  -6 1805.12 605.926   5
 -11   1   6 1667.90 572.892   7
  11  -1  -6 2050.57 846.130   2
  11  -1  -5 1200.73 529.802   5
 -11   1   5 637.468 375.577   7
  11  -1  -5 1146.98 473.836   2
 -11   1   4-353.881 238.533   7
  11  -1  -4-1198.04 600.936   2
  11  -1  -3 2517.78 779.223   5
 -11   1   3 2605.84 609.584   7
  11  -1  -3 2262.97 755.285   2
  11  -1  -2 3646.04 1061.61   2
  11  -1  -2 3087.53 861.217   5
 -11   1   2 2477.86 556.760   7
  11  -1  -1 1396.96 701.535   2
  11  -1  -1 1858.59 725.887   5
  11  -1   0 10.4959 177.613   5
  11  -1   0 55.4058 265.143   2
  11  -1   1 1857.44 658.443   5
  11  -1   2 212.806 186.936   5
  11  -1   3 492.257 494.497   5
 -11   1  -3 58.7414 300.445   1
 -11   1  -4 309.077 196.566   1
  11  -1   4-149.263 338.210   5
  11  -1   5 313.905 392.526   5
 -11   1  -5 580.800 361.468   1
  11  -1   6-230.906 347.196   5
 -11   1  -6 543.299 325.144   1
  11  -1   7-353.261 328.527   5
 -11   1  -7 734.524 405.335   1
  11  -1   8 1121.43 648.306   5
 -11   1  -8 949.244 446.041   1
 -11   1  -9 371.775 198.461   6
  11  -1   9 660.085 397.031   5
 -11   1 -10 174.442 225.671   6
  11  -1  10 695.917 442.836   5
 -11   1 -11 131.303 341.420   6
 -11   1 -12 201.001 187.381   6
 -11   1 -13 823.056 532.017   6
 -11   1 -14 317.202 361.623   6
 -11   1 -15-558.595 437.605   6
 -11   0  20-311.005 385.414   7
 -11   0  19-791.787 585.739   7
 -11   0  18 729.803 539.870   7
 -11   0  17 1676.17 896.656   7
 -11   0  16-385.297 387.683   7
 -11   0  15 1141.52 624.164   7
 -11   0  14 63.1419 169.193   7
  11   0 -13 109.659 287.144   5
 -11   0  13 170.234 356.408   7
  11   0 -12 2753.48 808.392   5
 -11   0  12 2714.74 920.033   7
  11   0 -11-37.6911 103.287   5
 -11   0  11 120.426 186.771   7
  11   0 -10 114.551 177.619   5
 -11   0  10-140.203 287.985   7
  11   0  -9 6648.83 1246.64   5
 -11   0   9 4981.11 1097.44   7
  11   0  -8 7203.04 1317.11   5
 -11   0   8 3983.99 978.562   7
  11   0  -7 637.657 461.045   5
  11   0  -7 39.4823 306.227   2
 -11   0   7 233.153 241.469   7
  11   0  -6 1787.33 670.595   5
 -11   0   6 1745.70 566.694   7
  11   0  -6 1453.83 650.429   2
  11   0  -5-139.782 238.894   5
 -11   0   5-69.3981 128.182   7
  11   0  -5 219.641 353.841   2
  11   0  -4-151.249 361.915   5
 -11   0   4 2.34361 124.904   7
  11   0  -4-78.9882 201.410   2
  11   0  -3-142.473 169.999   5
 -11   0   3-97.8801 143.388   7
  11   0  -3 7.78098 364.356   2
  11   0  -2 74.5353 124.256   5
 -11   0   2 222.963 160.190   7
  11   0  -1 238.936 184.947   2
  11   0  -1 215.822 183.607   5
  11   0   0 3836.19 989.561   5
  11   0   0 6280.57 1353.05   2
  11   0   1 921.332 460.358   5
  11   0   2 5711.01 1224.74   5
  11   0   3 3598.94 974.230   5
 -11   0  -3 3484.88 874.424   1
 -11   0  -4 1301.58 586.739   1
  11   0   4 1641.90 688.814   5
  11   0   5 839.166 556.929   5
 -11   0  -5 641.094 407.300   1
  11   0   6 638.311 461.385   5
 -11   0  -6 1893.54 622.848   1
  11   0   7 1794.06 738.513   5
 -11   0  -7 690.144 307.401   1
  11   0   8-50.5303 273.002   5
 -11   0  -8 283.801 219.046   1
  11   0   9 281.046 166.001   5
 -11   0 -10 544.773 382.852   6
  11   0  10 1197.02 622.083   5
 -11   0 -11 655.407 416.962   6
  11   0  11 571.337 431.615   5
 -11   0 -12-107.818 207.064   6
 -11   0 -13 207.092 413.122   6
 -11   0 -14-54.0318 156.477   6
 -11  -1  20 445.151 452.589   7
 -11  -1  19-228.973 333.169   7
 -11  -1  18-710.219 540.423   7
 -11  -1  17 575.380 560.750   7
 -11  -1  16 581.305 534.544   7
 -11  -1  15 214.033 243.656   7
 -11  -1  14 1401.86 662.533   7
  11   1 -14 797.480 388.300   5
 -11  -1  13-209.710 228.625   7
  11   1 -13 530.384 372.680   5
 -11  -1  12 299.504 277.684   7
  11   1 -12 359.812 312.659   5
 -11  -1  11 869.291 486.262   7
  11   1 -11 897.731 425.008   5
 -11  -1  10 1135.36 566.278   7
  11   1 -10 1745.70 626.924   5
 -11  -1   9 262.068 138.625   7
  11   1  -9 176.212 222.225   5
  11   1  -8 125.060 289.574   5
 -11  -1   8-66.9303 250.276   7
  11   1  -7 424.918 361.184   5
 -11  -1   7 21.6218 263.272   7
  11   1  -7 160.475 176.190   2
  11   1  -6 3115.07 890.777   5
 -11  -1   6 2957.38 740.943   7
  11   1  -6 2968.46 951.680   2
  11   1  -5-100.809 337.908   5
 -11  -1   5-68.1870 128.443   7
  11   1  -5 559.723 433.420   2
  11   1  -4 4692.27 1085.80   5
 -11  -1   4 3737.74 773.822   7
  11   1  -4 3862.24 1112.71   2
  11   1  -3 286.563 433.420   2
  11   1  -3 1332.34 644.163   5
 -11  -1   3 421.422 261.758   7
  11   1  -2-101.569 305.986   2
 -11  -1   2 191.380 129.777   7
  11   1  -1 646.009 476.927   2
  11   1  -1 1041.03 508.476   5
  11   1   0-273.210 425.728   5
  11   1   0-640.573 433.703   2
  11   1   1 584.510 299.759   5
  11   1   2 3829.39 1055.98   5
  11   1   3 1857.59 693.452   5
 -11  -1  -3 2177.36 664.866   1
 -11  -1  -4-11.8597 143.977   1
  11   1   4 384.306 373.009   5
  11   1   5 619.246 474.175   5
 -11  -1  -5 822.087 440.164   1
 -11  -1  -6 351.369 280.720   1
  11   1   6 374.828 443.806   5
 -11  -1  -7 926.659 424.829   1
  11   1   7-193.065 327.208   5
  11   1   8 75.9601 199.294   5
  11   1   9 251.627 326.922   5
  11   1  10 1160.06 646.375   5
  11   1  11 955.290 607.264   5
 -11  -1 -12-351.960 337.300   6
  11   1  12 1067.15 602.771   5
 -11  -1 -13-158.804 241.430   6
 -11  -1 -14-0.83406 310.832   6
 -11  -2  20 251.385 342.387   7
 -11  -2  19-32.4825 155.347   7
 -11  -2  18 199.987 294.201   7
 -11  -2  17-29.2628 230.286   7
 -11  -2  16 1182.02 708.799   7
  11   2 -16 547.088 445.919   5
 -11  -2  15 63.6981 177.240   7
  11   2 -15-157.599 176.230   5
 -11  -2  14-1005.18 575.951   7
  11   2 -14 532.500 271.726   5
 -11  -2  13-562.537 421.326   7
  11   2 -13-204.203 238.901   5
 -11  -2  12 171.315 109.146   7
  11   2 -12 152.032 202.545   5
 -11  -2  11 16.3177 135.500   7
  11   2 -11 606.165 368.111   5
 -11  -2  10 429.625 369.218   7
  11   2 -10 523.896 322.038   5
 -11  -2   9 1298.21 585.495   7
  11   2  -9 246.609 263.023   5
 -11  -2   8 1222.06 529.276   7
  11   2  -8 1593.77 678.089   5
 -11  -2   7 1328.23 542.997   7
  11   2  -7 2017.38 740.283   5
  11   2  -7 1649.35 723.352   2
 -11  -2   6 3994.08 886.772   7
  11   2  -6 5406.40 1224.99   5
  11   2  -6 3512.31 1023.70   2
 -11  -2   5 243.731 205.914   7
  11   2  -5 55.4977 348.533   5
  11   2  -5 358.590 617.218   2
 -11  -2   4 1312.47 517.804   7
  11   2  -4 1110.88 583.369   5
  11   2  -4 461.674 222.987   2
  11   2  -3-118.186 277.309   2
 -11  -2   3-118.545 194.893   7
  11   2  -3 369.985 426.369   5
  11   2  -2-109.946 229.126   2
 -11  -2   2 27.9766 105.139   7
  11   2  -2-326.733 385.792   5
  11   2  -1 188.593 156.105   2
  11   2  -1 348.669 266.574   5
  11   2   0 177.595 116.736   5
  11   2   1-622.608 427.100   5
  11   2   2-30.1715 226.794   5
  11   2   3 7045.41 1434.84   5
 -11  -2  -3 5773.64 1063.13   1
 -11  -2  -4 1113.30 459.300   1
  11   2   4 670.888 443.053   5
  11   2   5 658.163 414.452   5
 -11  -2  -5 318.770 235.191   1
 -11  -2  -6 2059.37 619.196   1
  11   2   6 1392.07 671.977   5
  11   2   7 1364.29 626.560   5
  11   2   8-2.27339 252.942   5
  11   2   9 938.901 469.781   5
  11   2  10 400.693 401.164   5
  11   2  11-168.285 235.269   5
  11   2  12 412.893 459.418   5
 -11  -2 -13-633.355 463.254   6
  11   2  13-54.5283 164.323   5
 -11  -3  20-330.902 398.200   7
 -11  -3  19 147.898 215.633   7
 -11  -3  18-408.700 418.478   7
 -11  -3  17 207.523 389.678   7
  11   3 -17-494.522 382.894   5
 -11  -3  16-266.005 357.365   7
  11   3 -16-288.845 298.826   5
 -11  -3  15-158.638 249.557   7
  11   3 -15 151.195 168.975   5
 -11  -3  14 534.404 554.188   7
  11   3 -14 1161.75 572.030   5
 -11  -3  13-91.2960 300.202   7
  11   3 -13-21.7799 109.393   5
 -11  -3  12-130.300 169.245   7
  11   3 -12 481.216 426.878   5
 -11  -3  11-46.3152 211.072   7
  11   3 -11 350.737 291.511   5
 -11  -3  10 368.254 181.510   7
  11   3 -10 1.99745 237.927   5
 -11  -3   9-52.0742 257.872   7
  11   3  -9 19.2448 182.673   5
 -11  -3   8-212.067 260.266   7
  11   3  -8-213.917 307.001   2
  11   3  -8-116.043 375.908   5
 -11  -3   7 733.981 438.108   7
  11   3  -7 1105.71 549.948   5
  11   3  -7 293.349 166.827   2
 -11  -3   6 92.4152 307.448   7
  11   3  -6 324.622 487.845   5
  11   3  -6-425.004 346.518   2
 -11  -3   5 2735.57 743.571   7
  11   3  -5 2079.24 749.215   5
  11   3  -5 964.731 535.336   2
 -11  -3   4 7612.29 1181.83   7
  11   3  -4 9821.11 1666.99   5
  11   3  -4 9072.99 1609.23   2
  11   3  -3 4986.04 1202.07   2
 -11  -3   3 4467.18 880.338   7
  11   3  -3 4528.14 1126.35   5
  11   3  -2 533.339 363.415   2
  11   3  -2 2114.32 765.624   5
  11   3  -1 764.546 436.639   5
  11   3  -1 714.884 412.533   2
  11   3   0 5129.94 1183.18   5
  11   3   1 2687.48 898.114   5
  11   3   2 278.527 279.735   5
  11   3   3 408.590 306.811   5
 -11  -3  -3 29.9709 96.9704   1
 -11  -3  -4 1684.17 538.848   1
  11   3   4 2554.24 878.564   5
  11   3   5 1341.24 603.221   5
  11   3   6 977.666 596.080   5
  11   3   7 435.676 385.398   5
  11   3   8 1406.96 664.781   5
  11   3   9-109.257 301.241   5
  11   3  10 144.517 242.154   5
  11   3  11 357.250 459.905   5
  11   3  12-44.5625 159.752   5
  11   3  13 253.392 307.338   5
 -11  -4  20 338.274 399.045   7
 -11  -4  19 285.982 170.238   7
 -11  -4  18-538.477 482.866   7
  11   4 -18 355.738 367.307   5
 -11  -4  17-531.776 463.894   7
  11   4 -17-318.709 323.944   5
 -11  -4  16-352.186 408.530   7
  11   4 -16 55.7036 156.708   5
 -11  -4  15-333.648 355.268   7
  11   4 -15-223.382 271.065   5
 -11  -4  14-148.479 238.880   7
  11   4 -14 189.625 363.300   5
 -11  -4  13-220.354 354.638   7
  11   4 -13 302.430 312.346   5
 -11  -4  12 769.516 540.115   7
  11   4 -12 13.6054 231.601   5
 -11  -4  11 1291.06 572.577   7
  11   4 -11 1414.87 630.659   5
 -11  -4  10 1492.79 660.102   7
  11   4 -10 985.103 523.380   5
 -11  -4   9 342.132 279.644   7
  11   4  -9-254.808 450.179   5
 -11  -4   8 3578.13 947.120   7
  11   4  -8 3428.05 1054.09   5
  11   4  -8 2135.30 799.789   2
 -11  -4   7 1176.47 541.412   7
  11   4  -7 777.575 468.950   5
  11   4  -7 823.564 485.713   2
 -11  -4   6 4388.11 982.105   7
  11   4  -6 4194.62 1098.68   5
  11   4  -6 3624.50 1027.58   2
 -11  -4   5 3857.80 896.224   7
  11   4  -5 3024.69 943.279   5
  11   4  -5 3366.46 995.484   2
  11   4  -4 907.070 412.906   2
 -11  -4   4 1327.75 510.272   7
  11   4  -4 1316.21 555.916   5
  11   4  -3 516.246 345.067   2
 -11  -4   3 514.514 292.233   7
  11   4  -3 708.292 437.172   5
  11   4  -2 3219.64 954.473   2
  11   4  -2 2919.31 905.788   5
  11   4  -1 61.9417 334.903   5
  11   4   0 2036.06 764.638   5
  11   4   1 826.041 555.006   5
  11   4   2 467.967 452.217   5
  11   4   3 2247.17 873.238   5
  11   4   4 1285.53 695.067   5
  11   4   5 180.652 388.972   5
  11   4   6 651.248 448.827   5
  11   4   7 62.7552 148.944   5
  11   4   8 459.704 406.878   5
  11   4   9 382.737 420.886   5
  11   4  10-762.132 508.607   5
  11   4  11-233.406 294.875   5
  11   4  12 208.898 278.705   5
  11   4  13 179.097 266.769   5
 -11  -5  19 158.524 401.885   7
  11   5 -19-417.747 383.133   5
 -11  -5  18 1221.93 789.438   7
  11   5 -18 393.342 307.474   5
 -11  -5  17-112.617 437.985   7
  11   5 -17 464.410 433.422   5
 -11  -5  16 638.387 570.752   7
  11   5 -16 521.037 491.192   5
 -11  -5  15 165.180 268.350   7
  11   5 -15-642.383 460.595   5
 -11  -5  14 77.7533 178.251   7
  11   5 -14 418.585 326.548   5
 -11  -5  13-198.082 398.636   7
  11   5 -13-314.988 231.000   5
 -11  -5  12 82.7890 266.536   7
  11   5 -12 736.918 417.331   5
 -11  -5  11-198.594 308.287   7
  11   5 -11 53.4246 273.886   5
 -11  -5  10 454.191 283.779   7
  11   5 -10 212.780 291.686   5
  11   5  -9 244.116 231.898   2
  11   5  -9 263.485 338.187   5
 -11  -5   8 3804.16 986.970   7
  11   5  -8 4484.09 1163.95   5
  11   5  -8 3282.38 980.808   2
 -11  -5   7 78.0831 210.471   7
  11   5  -7 47.9729 128.718   5
 -11  -5   6 1370.49 576.065   7
  11   5  -6 2051.46 800.320   5
  11   5  -6 685.687 329.635   2
 -11  -5   5-188.700 196.236   7
  11   5  -5 142.344 156.662   5
  11   5  -4 2211.34 782.735   2
 -11  -5   4 2537.68 700.895   7
  11   5  -4 2380.75 876.314   5
  11   5  -3 2330.27 810.520   2
  11   5  -3 2830.47 991.784   5
  11   5  -2-211.231 323.409   5
  11   5  -1 677.847 451.118   5
  11   5   0 1528.97 615.719   5
  11   5   1 1248.21 676.473   5
  11   5   2 2265.03 889.782   5
  11   5   3 6348.27 1437.71   5
  11   5   4 632.172 589.059   5
  11   5   5 608.402 457.841   5
  11   5   6 313.778 275.874   5
  11   5   7 187.570 206.567   5
  11   5   8-607.342 461.943   5
  11   5   9 174.506 355.327   5
  11   5  10 12.7500 124.905   5
  11   5  11-597.884 461.586   5
  11   5  12 0.87382 213.552   5
  11   6 -20 199.851 285.170   5
 -11  -6  19-206.651 323.402   7
  11   6 -19-17.1181 132.516   5
 -11  -6  18-577.096 498.335   7
  11   6 -18-226.705 303.121   5
 -11  -6  17 839.175 621.067   7
  11   6 -17 444.949 423.319   5
 -11  -6  16-596.472 489.740   7
  11   6 -16 269.001 188.983   5
 -11  -6  15 146.787 254.799   7
  11   6 -15-55.9877 292.156   5
 -11  -6  14 934.362 557.346   7
  11   6 -14 589.786 602.112   5
 -11  -6  13 1834.78 824.789   7
  11   6 -13 2316.08 843.429   5
 -11  -6  12 1236.02 589.204   7
  11   6 -12-198.891 202.027   5
 -11  -6  11-340.321 293.196   7
  11   6 -11 111.585 404.232   5
 -11  -6  10-139.924 244.267   7
  11   6 -10 134.340 368.627   5
 -11  -6   9-735.604 458.685   7
  11   6  -9-284.865 316.228   5
  11   6  -9 451.583 340.968   2
  11   6  -8 95.2923 177.007   5
  11   6  -8 43.7137 142.777   2
  11   6  -7 9.34764 131.016   5
  11   6  -7 77.5493 186.383   2
 -11  -6   6 162.758 364.670   7
  11   6  -6-4.66928 243.504   5
  11   6  -6 394.866 338.258   2
  11   6  -5-96.0677 166.471   2
  11   6  -5-79.5065 207.734   5
  11   6  -4 229.801 241.694   2
  11   6  -4 191.055 227.709   5
  11   6  -3 265.118 275.090   2
  11   6  -3 14.9651 217.543   5
  11   6  -2 568.356 463.682   5
  11   6  -1 466.943 458.226   5
  11   6   0 458.858 277.102   5
  11   6   1 344.756 360.860   5
  11   6   2 274.469 321.711   5
  11   6   3 453.792 484.127   5
  11   6   4 399.422 478.515   5
  11   6   5 191.490 336.244   5
  11   6   6 370.813 471.345   5
  11   6   7 283.010 397.282   5
  11   6   8-278.770 326.627   5
  11   6   9 410.326 354.471   5
  11   6  10 421.829 395.792   5
  11   6  11-402.894 390.088   5
  11   6  12-582.701 462.588   5
  11   7 -20 548.348 466.812   5
 -11  -7  19 598.862 558.649   7
  11   7 -19 84.4520 285.902   5
 -11  -7  18-73.9985 203.254   7
  11   7 -18 1130.88 723.942   5
 -11  -7  17 153.033 275.674   7
  11   7 -17 502.073 358.128   5
 -11  -7  16 785.904 596.606   7
  11   7 -16-195.540 283.691   5
 -11  -7  15 557.305 490.715   7
  11   7 -15-371.981 373.358   5
 -11  -7  14 937.180 682.483   7
  11   7 -14-385.819 382.414   5
 -11  -7  13 13.0162 362.441   7
  11   7 -13 544.329 486.751   5
 -11  -7  12 1702.44 775.027   7
  11   7 -12 179.155 269.527   5
 -11  -7  11 1985.78 840.062   7
  11   7 -11 2859.56 1036.26   5
  11   7 -10 154.765 240.591   5
  11   7 -10 132.477 146.644   2
 -11  -7   9 1086.81 607.066   7
  11   7  -9 902.734 564.753   5
  11   7  -9 532.978 440.675   2
 -11  -7   8 2661.53 882.519   7
  11   7  -8 4771.27 1260.80   5
  11   7  -8 2858.47 934.715   2
 -11  -7   7 299.420 230.425   7
  11   7  -7 51.8112 235.845   5
  11   7  -7 375.667 243.522   2
  11   7  -6 2676.05 865.034   2
  11   7  -6 3877.65 1166.60   5
  11   7  -5 1623.31 670.558   2
  11   7  -5 862.813 598.627   5
  11   7  -4 43.1932 137.238   2
  11   7  -4 90.5513 176.249   5
  11   7  -3 1321.03 678.164   5
  11   7  -2 245.490 409.925   5
  11   7  -1-323.162 352.979   5
  11   7   0 169.214 132.019   5
  11   7   1 27.1470 203.816   5
  11   7   2 1181.67 617.741   5
  11   7   3 1894.41 803.473   5
  11   7   4-137.325 256.258   5
  11   7   4-5.36024 145.344   4
  11   7   5 68.7544 256.200   5
  11   7   5-229.281 312.600   4
  11   7   6 136.329 294.483   5
  11   7   6 247.843 422.380   4
  11   7   7 94.4423 211.554   5
  11   7   7 525.033 262.840   4
  11   7   8 3.55582 219.380   5
  11   7   8-335.374 384.214   4
  11   7   9-399.461 383.798   5
  11   7  10 570.529 692.567   5
  11   7  11 133.231 377.773   5
 -11  -8  18 653.955 544.200   7
  11   8 -18 178.667 270.965   5
 -11  -8  17-430.228 444.521   7
  11   8 -17 569.833 483.306   5
 -11  -8  16-674.977 537.186   7
  11   8 -16 1313.77 745.696   5
 -11  -8  15 366.519 268.864   7
  11   8 -15 208.492 302.222   5
 -11  -8  14-484.138 435.231   7
  11   8 -14-102.561 293.677   5
 -11  -8  13-425.680 409.345   7
  11   8 -13 456.972 424.789   5
 -11  -8  12-59.3368 355.283   7
  11   8 -12 672.578 438.500   5
 -11  -8  11 1864.68 805.560   7
  11   8 -11 1870.68 783.276   2
  11   8 -11 4313.70 1260.87   5
 -11  -8  10 679.887 451.474   7
  11   8 -10-31.8834 143.284   5
  11   8 -10 1158.71 624.412   2
 -11  -8   9 723.378 461.264   7
  11   8  -9 1376.45 700.238   5
  11   8  -9 477.270 459.989   2
 -11  -8   8 430.652 412.810   7
  11   8  -8 129.132 283.936   5
  11   8  -8-461.138 361.772   2
  11   8  -7 128.965 91.7810   2
  11   8  -7 921.491 606.195   5
  11   8  -6 162.397 250.286   2
  11   8  -6 123.852 151.495   5
  11   8  -5 10.9966 182.981   2
  11   8  -5 189.274 355.025   5
  11   8  -4-43.3035 278.232   5
  11   8  -3 557.318 547.919   5
  11   8  -2 512.075 411.149   5
  11   8  -1-131.488 152.296   5
  11   8   0 465.695 412.354   5
  11   8   1 330.546 289.330   5
  11   8   1 547.075 473.456   4
  11   8   2 92.1875 330.499   5
  11   8   2 158.802 251.335   4
  11   8   3-53.0505 168.139   5
  11   8   3 69.8694 196.038   4
  11   8   4 909.324 632.517   5
  11   8   4 61.0354 172.368   4
  11   8   5 696.710 453.347   5
  11   8   5 546.207 479.769   4
  11   8   6 183.743 272.762   5
  11   8   6 313.894 372.128   4
  11   8   7-91.0722 203.202   5
  11   8   7-417.657 434.966   4
  11   8   8 66.2697 273.391   5
  11   8   9-183.511 280.795   5
  11   8  10 316.493 393.544   5
  11   9 -18 334.717 270.681   5
 -11  -9  17-645.599 545.412   7
  11   9 -17 453.287 350.282   5
 -11  -9  16 547.437 495.037   7
  11   9 -16 1017.16 726.625   5
 -11  -9  15 591.495 529.319   7
  11   9 -15 872.939 719.144   5
 -11  -9  14 1090.91 638.779   7
  11   9 -14 962.570 684.732   5
 -11  -9  13 52.2412 165.758   7
  11   9 -13 193.373 321.395   5
 -11  -9  12 649.439 531.431   7
  11   9 -12 2217.70 947.851   5
 -11  -9  11 610.177 414.138   7
  11   9 -11 64.3582 411.497   5
 -11  -9  10 1.71205 386.956   7
  11   9 -10-205.426 166.867   5
  11   9  -9 494.370 196.564   5
  11   9  -8 62.7591 265.541   5
  11   9  -7 78.9240 169.704   5
  11   9  -6 426.047 334.421   5
  11   9  -5 78.4445 442.856   5
  11   9  -4 480.607 337.669   5
  11   9  -3 211.250 252.407   5
  11   9  -2 731.514 540.201   5
  11   9  -1 1540.53 759.724   5
  11   9  -1 372.574 401.630   4
  11   9   0 118.405 213.745   5
  11   9   0-748.342 520.616   4
  11   9   1-114.400 225.674   5
  11   9   1 38.4289 296.647   4
  11   9   2 8.40567 120.443   5
  11   9   2 235.225 262.222   4
  11   9   3 67.6605 191.005   5
  11   9   3-685.401 519.826   4
  11   9   4-31.1004 296.014   5
  11   9   4-133.060 228.910   4
  11   9   5-287.405 344.771   5
  11   9   5 58.1488 198.895   4
  11   9   6 278.202 416.989   5
  11   9   6-285.093 359.089   4
  11   9   7-319.930 355.961   5
  11   9   8 45.5174 156.858   5
 -11 -10  16-272.191 359.037   7
  11  10 -16 553.719 647.379   5
 -11 -10  15-393.108 427.187   7
  11  10 -15 627.545 630.425   5
 -11 -10  14 656.635 589.748   7
  11  10 -14-638.035 522.379   5
 -11 -10  13-232.833 327.454   7
  11  10 -13 483.729 604.724   5
 -11 -10  12 261.105 576.001   7
  11  10 -12 380.435 315.442   5
  11  10 -11-131.346 350.771   5
  11  10 -10 2625.58 1043.36   5
  11  10  -9 1919.75 947.582   5
  11  10  -8 1556.92 762.549   5
  11  10  -7 281.263 455.943   5
  11  10  -6-902.613 600.589   5
  11  10  -5 284.801 359.635   5
  11  10  -4-90.3253 350.717   5
  11  10  -3-332.029 367.353   5
  11  10  -2-243.207 326.080   5
  11  10  -2 19.6150 368.122   4
  11  10  -1 234.968 242.141   5
  11  10  -1-139.402 242.588   4
  11  10   0 233.599 315.976   5
  11  10   0 417.152 388.214   4
  11  10   1 165.404 242.973   5
  11  10   1 533.166 487.523   4
  11  10   2 212.288 348.468   5
  11  10   2 26.2741 193.504   4
  11  10   3 481.901 404.793   5
  11  10   3 534.627 673.963   4
  11  10   4 133.956 251.381   5
  11  10   4 763.339 696.167   4
  11  10   5-740.269 545.296   5
  11  10   6 188.156 238.373   5
  11  10   7 217.092 436.548   5
 -11 -11  14-211.773 324.262   7
  11  11 -14 783.724 602.727   5
  11  11 -13-132.438 265.774   5
  11  11 -12 744.757 575.154   5
  11  11 -11-7.43159 310.774   5
  11  11 -10 1784.90 958.489   5
  11  11  -9 199.786 200.095   5
  11  11  -8-368.494 403.214   5
  11  11  -7 1076.13 704.198   5
  11  11  -6 1672.83 870.219   5
  11  11  -5-22.3400 134.789   5
  11  11  -4 235.938 329.336   5
  11  11  -4 357.843 421.341   4
  11  11  -3-278.575 349.057   5
  11  11  -3 225.831 129.912   4
  11  11  -2 222.185 275.324   5
  11  11  -2-566.543 463.093   4
  11  11  -1 833.761 561.777   5
  11  11  -1 294.892 281.179   4
  11  11   0 667.475 552.842   5
  11  11   0 467.000 459.797   4
  11  11   1 1910.31 898.846   5
  11  11   1 1159.51 722.636   4
  11  11   2 4.08731 107.191   5
  11  11   2 256.234 341.000   4
  11  11   3 158.269 212.761   5
  11  11   4-110.667 242.868   5
  11  12 -10 428.203 480.159   5
  11  12  -9-488.553 471.754   5
  11  12  -8 495.303 523.140   5
  11  12  -7-120.167 251.798   5
  11  12  -6-965.076 650.229   5
  11  12  -5 259.040 347.719   5
  11  12  -5-651.823 482.065   4
  11  12  -4 259.241 412.976   5
  11  12  -4-295.482 339.410   4
  11  12  -3-605.511 321.441   5
  11  12  -3-466.986 425.267   4
  11  12  -2-242.052 333.480   5
  11  12  -2-1025.23 628.245   4
  11  12  -1 59.7609 207.458   5
  11  12  -1 454.271 432.061   4
  11  12   0-6.38775 118.389   5
  11  12   0-291.716 362.015   4
  11  12   1 634.512 620.385   5
  11  13  -5-666.308 500.034   4
  11  13  -4-291.358 342.438   4
  11  13  -3-456.868 430.376   4
  11  13  -2-4.04539 114.314   4
 -12  12   4 629.555 626.415   1
 -12  12   3 493.781 446.452   1
 -12  12   2 129.801 247.143   1
 -12  12   1 224.857 386.662   1
 -12  12   0 366.153 421.432   1
 -12  12  -5 315.137 350.673   3
 -12  12  -6 219.063 293.828   3
 -12  12  -7-831.954 543.959   3
 -12  12  -8 293.883 337.465   3
 -12  11  10-334.419 379.300   7
 -12  11   9-374.655 394.056   7
 -12  11   8 0.93717 279.809   7
  12 -11  -5 389.152 385.617   2
 -12  11   5 313.552 415.581   1
  12 -11  -4 388.679 480.847   2
 -12  11   4-15.3482 231.394   1
  12 -11  -3-243.843 303.811   2
 -12  11   3 3.81416 109.591   1
 -12  11   2 595.810 518.403   1
  12 -11  -2-0.88510 218.564   2
 -12  11   1 146.182 356.580   1
 -12  11   0 170.704 262.185   1
 -12  11  -1-111.939 218.080   1
 -12  11  -2 19.3831 122.922   1
 -12  11  -3 277.829 352.790   1
 -12  11  -4 1831.08 868.993   1
 -12  11  -4 503.402 397.175   3
 -12  11  -5 437.017 481.366   3
 -12  11  -5 278.207 312.691   1
 -12  11  -6 737.052 572.428   3
 -12  11  -7 42.2087 170.499   3
 -12  11  -8 3.52303 135.321   3
 -12  11  -9 755.862 602.525   3
  12 -10 -11-91.6500 213.227   2
 -12  10  11 1.02711 239.876   7
  12 -10 -10 147.373 257.340   2
 -12  10  10 390.835 527.731   7
 -12  10   9-253.392 320.821   7
  12 -10  -9-83.4063 198.409   2
 -12  10   8-617.322 470.780   7
  12 -10  -8-3.00193 157.015   2
  12 -10  -7 197.809 199.331   2
  12 -10  -6 661.816 580.301   2
  12 -10  -5 322.218 352.475   2
  12 -10  -4 359.909 368.084   2
  12 -10  -3 31.1695 136.560   2
 -12  10   3-4.59894 104.095   1
  12 -10  -2 0.87946 281.793   2
 -12  10   2 385.409 406.532   1
 -12  10   1 64.4950 117.893   1
  12 -10  -1-176.949 260.961   2
 -12  10   0-241.162 310.852   1
 -12  10  -1 149.892 212.994   1
 -12  10  -2-8.01974 93.1774   1
 -12  10  -3-762.264 528.550   1
 -12  10  -3 40.1214 210.728   3
 -12  10  -4 351.449 440.547   1
 -12  10  -4 662.263 453.123   3
 -12  10  -5 292.827 426.804   1
 -12  10  -5 683.758 452.996   3
 -12  10  -6 409.043 482.083   1
 -12  10  -6 158.797 324.891   3
 -12  10  -7 590.085 406.072   3
 -12  10  -7 112.622 180.822   1
 -12  10  -8 81.3907 194.407   3
 -12  10  -9 297.875 142.279   3
 -12  10 -10 572.372 553.230   3
 -12   9  13 196.118 304.895   7
 -12   9  12-86.0488 207.244   7
 -12   9  11 77.8213 198.675   7
  12  -9 -10-210.770 308.622   2
 -12   9  10 395.115 363.528   7
  12  -9  -9-66.9839 178.663   2
 -12   9   9-33.2467 102.763   7
 -12   9   8 345.538 424.578   7
  12  -9  -8-83.9515 202.453   2
 -12   9   7 338.796 317.807   7
  12  -9  -7 349.769 551.902   2
  12  -9  -6 840.974 594.393   2
  12  -9  -5 40.2746 241.465   2
  12  -9  -4 82.4221 175.109   2
  12  -9  -3-669.038 491.988   2
  12  -9  -2 397.748 436.980   2
 -12   9   2-206.281 289.884   1
  12  -9  -1 176.192 293.487   2
 -12   9   1 498.517 424.330   1
 -12   9   0 423.598 302.819   1
 -12   9  -1-225.708 293.458   1
 -12   9  -2-238.761 302.092   1
 -12   9  -3 51.5536 251.855   1
 -12   9  -3 708.774 460.323   3
 -12   9  -4-235.102 265.314   3
 -12   9  -4-64.2414 177.248   1
 -12   9  -5 982.176 571.223   3
 -12   9  -5 780.001 544.890   1
 -12   9  -6 339.475 456.864   3
 -12   9  -6 398.702 493.026   1
 -12   9  -7-169.859 244.190   3
 -12   9  -7 54.2607 393.355   1
 -12   9  -8 621.347 459.508   3
 -12   9  -8 483.616 452.355   1
 -12   9  -9-127.384 228.937   3
 -12   9 -10 0.89427 275.836   3
 -12   9 -11 364.561 429.493   3
 -12   8  14-11.8734 136.962   7
 -12   8  13-280.218 347.837   7
 -12   8  12 306.941 262.901   7
 -12   8  11 423.921 402.253   7
 -12   8  10 790.951 633.321   7
  12  -8  -9-0.99853 219.344   2
 -12   8   9 313.999 259.304   7
 -12   8   8 686.163 497.111   7
  12  -8  -8 255.676 439.282   2
 -12   8   7 58.6774 154.980   7
  12  -8  -7-164.895 268.041   2
  12  -8  -6 501.111 487.752   2
  12  -8  -5 32.5267 241.980   2
  12  -8  -4 187.605 274.408   2
  12  -8  -3 449.359 537.905   2
  12  -8  -2 1450.20 755.971   2
  12  -8  -1-680.844 488.489   2
 -12   8   1-127.446 122.546   1
  12  -8   0 236.159 296.627   2
 -12   8   0 166.975 107.590   1
 -12   8  -1 683.960 520.196   1
 -12   8  -2 287.936 267.567   3
 -12   8  -2 140.613 242.035   1
 -12   8  -3-360.331 304.634   3
 -12   8  -3 211.956 297.530   1
 -12   8  -4 883.164 500.054   3
 -12   8  -4 202.329 243.399   1
 -12   8  -5 1067.04 625.170   1
 -12   8  -5 948.488 526.885   3
 -12   8  -6 209.795 256.490   3
 -12   8  -6 1244.99 707.413   1
 -12   8  -7 275.044 194.212   1
 -12   8  -7 277.856 158.142   3
 -12   8  -8 332.953 344.041   3
 -12   8  -8 589.286 478.648   1
 -12   8  -9 38.2394 147.914   3
 -12   8 -10-281.504 331.957   3
 -12   8 -11-132.284 238.542   3
 -12   7  15-406.552 428.234   7
 -12   7  14 325.294 347.899   7
 -12   7  13-317.755 367.106   7
 -12   7  12-486.808 253.768   7
 -12   7  11 445.820 399.782   7
 -12   7  10-199.000 268.192   7
  12  -7  -9 555.933 474.734   2
 -12   7   9 818.635 529.460   7
  12  -7  -8 199.129 334.675   2
 -12   7   8 314.626 338.628   7
 -12   7   7 550.266 374.471   7
  12  -7  -7 886.041 526.866   2
 -12   7   6-318.397 292.697   7
  12  -7  -6 110.319 200.254   2
  12  -7  -5-682.694 502.034   2
  12  -7  -4 927.656 600.375   2
  12  -7  -3 377.916 364.776   2
  12  -7  -2 5.09909 315.280   2
  12  -7  -1 637.535 442.030   2
  12  -7   0 1572.45 776.516   2
 -12   7   0 2080.25 815.399   1
 -12   7  -1 2290.19 679.990   3
 -12   7  -1 1387.93 649.454   1
 -12   7  -2 120.839 128.759   1
 -12   7  -2 156.789 195.183   3
 -12   7  -3 1060.35 488.629   3
 -12   7  -3 336.150 314.469   1
 -12   7  -4 276.104 429.405   3
 -12   7  -4 780.758 459.180   1
 -12   7  -5 120.751 150.580   3
 -12   7  -5 591.959 438.914   1
 -12   7  -6 205.816 230.142   3
 -12   7  -6-772.645 503.055   1
 -12   7  -7 32.4263 211.547   3
 -12   7  -7 242.941 348.869   1
 -12   7  -8 404.060 149.422   3
 -12   7  -8 865.280 548.682   1
 -12   7  -9 647.901 460.639   1
 -12   7  -9-1058.18 594.218   3
 -12   7 -10-619.646 470.598   3
 -12   7 -11 60.1010 280.933   3
 -12   7 -12-39.4553 156.624   3
 -12   6  16-451.112 453.001   7
 -12   6  15 134.160 323.569   7
 -12   6  14 170.715 284.941   7
 -12   6  13 392.618 463.273   7
 -12   6  12 948.400 658.505   7
 -12   6  11-120.193 277.118   7
 -12   6  10 477.944 438.866   7
 -12   6   9 140.437 214.327   7
  12  -6  -8 1687.52 871.267   2
 -12   6   8 1286.97 619.285   7
 -12   6   7 1222.58 590.257   7
  12  -6  -7 685.252 491.706   2
 -12   6   6 348.210 266.674   7
  12  -6  -6 264.354 165.291   2
  12  -6  -5 2983.83 1046.78   2
  12  -6  -4 175.017 256.650   2
  12  -6  -3 443.822 377.284   2
  12  -6  -3 418.095 316.078   5
  12  -6  -2 134.391 256.079   2
  12  -6  -2 1557.85 598.345   5
  12  -6  -1 1183.35 636.192   2
 -12   6   0 946.324 493.160   3
  12  -6   0 1180.99 665.817   2
 -12   6   0 605.051 433.287   1
 -12   6  -1 1297.32 498.605   3
 -12   6  -1 589.183 506.536   1
 -12   6  -2-235.663 291.762   1
 -12   6  -2-35.8444 132.514   3
 -12   6  -3-776.099 495.435   1
 -12   6  -3 295.113 124.765   3
 -12   6  -4 464.923 362.978   3
 -12   6  -4 599.975 447.026   1
 -12   6  -5-33.4856 186.379   3
 -12   6  -5 76.6499 120.065   1
 -12   6  -6 175.501 257.283   1
 -12   6  -6 595.518 515.216   3
 -12   6  -7 55.5820 207.781   3
 -12   6  -7 395.322 353.511   1
 -12   6  -8-301.509 319.930   3
 -12   6  -8-12.9749 109.253   1
 -12   6  -9 886.991 564.437   1
 -12   6  -9 537.712 455.769   3
 -12   6 -10 203.797 135.808   3
 -12   6 -11 616.517 543.811   3
 -12   6 -12 16.5685 114.884   6
 -12   6 -12 650.962 585.157   3
 -12   6 -13 1116.70 608.160   6
 -12   6 -14 386.787 301.173   6
 -12   5  16 1005.02 690.595   7
 -12   5  15 479.573 427.691   7
 -12   5  14 524.068 562.214   7
 -12   5  13 383.611 380.603   7
 -12   5  12 396.925 443.450   7
 -12   5  11 534.392 439.384   7
 -12   5  10 5304.78 1266.66   7
 -12   5   9 2190.26 772.532   7
  12  -5  -8 560.678 346.478   2
 -12   5   8-171.598 148.021   7
 -12   5   7 187.295 280.195   7
  12  -5  -7-67.8090 120.975   2
 -12   5   6 515.305 358.975   7
  12  -5  -6 123.727 322.415   2
  12  -5  -5 60.8704 96.1480   5
  12  -5  -5-665.870 488.209   2
  12  -5  -4 114.505 122.850   5
  12  -5  -4-124.775 194.265   2
  12  -5  -3 55.1864 228.425   2
  12  -5  -3-96.7312 195.393   5
  12  -5  -2 1818.25 782.026   2
  12  -5  -2 1804.30 601.612   5
  12  -5  -1 1618.07 604.377   5
  12  -5  -1 906.993 567.877   2
  12  -5   0-87.6182 137.682   5
 -12   5   0-116.936 74.5161   3
 -12   5  -1-221.646 190.631   3
 -12   5  -1-56.4683 163.362   1
  12  -5   2-22.0921 123.220   5
 -12   5  -2 592.316 348.384   3
 -12   5  -2 431.748 274.107   1
 -12   5  -3 1048.75 562.454   1
  12  -5   3 1009.10 519.930   5
 -12   5  -4-188.806 249.718   1
 -12   5  -5 665.309 453.743   1
 -12   5  -6 116.415 208.239   1
 -12   5  -7 162.861 244.699   1
 -12   5  -8-386.134 288.309   6
 -12   5  -8 236.530 375.377   1
 -12   5  -9-65.4486 128.741   6
 -12   5  -9 128.125 165.624   1
 -12   5 -10 96.5691 259.365   6
 -12   5 -11 458.827 392.894   6
 -12   5 -12 25.5968 114.010   6
 -12   5 -13-372.875 333.459   6
 -12   5 -14 636.505 512.552   6
 -12   5 -15 429.146 485.945   6
 -12   4  17 590.070 493.243   7
 -12   4  16-235.083 321.618   7
 -12   4  15 515.644 458.154   7
 -12   4  14 536.286 380.595   7
 -12   4  13-82.1152 188.684   7
 -12   4  12-75.7898 280.987   7
 -12   4  11 224.687 278.484   7
 -12   4  10 53.2522 206.753   7
 -12   4   9 515.813 417.262   7
  12  -4  -8 839.912 527.493   2
 -12   4   8 1168.36 524.686   7
 -12   4   7 398.278 322.908   7
  12  -4  -7 347.631 388.153   2
  12  -4  -6-23.3486 114.598   5
 -12   4   6 30.1074 73.3886   7
  12  -4  -6 35.6499 196.759   2
  12  -4  -5 487.066 346.827   5
 -12   4   5 383.282 334.206   7
  12  -4  -5 396.624 370.642   2
  12  -4  -4 1472.25 537.375   5
  12  -4  -4 857.041 553.112   2
  12  -4  -3 282.740 380.193   2
  12  -4  -3-191.801 274.649   5
  12  -4  -2 660.532 413.518   2
  12  -4  -2 1278.22 543.843   5
  12  -4  -1 1319.91 604.502   2
  12  -4  -1 1501.92 528.394   5
 -12   4   1 1370.03 468.491   3
  12  -4   0-243.215 226.046   5
  12  -4   0 785.003 620.601   2
  12  -4   1 1143.43 454.903   5
  12  -4   2 20.0445 128.175   5
 -12   4  -2 254.340 293.895   1
 -12   4  -3 1941.37 770.883   1
  12  -4   3 1600.39 642.089   5
 -12   4  -4 231.878 159.973   6
 -12   4  -4 503.134 398.004   1
 -12   4  -5 951.303 420.770   6
  12  -4   5 1348.82 607.984   5
 -12   4  -5 1085.57 546.438   1
 -12   4  -6 305.542 269.381   6
 -12   4  -6-292.758 298.552   1
 -12   4  -7 21.5679 89.9969   6
 -12   4  -7-334.748 313.709   1
 -12   4  -8 61.1004 100.598   6
 -12   4  -8-458.902 363.620   1
 -12   4  -9 184.713 247.929   6
 -12   4  -9-458.688 362.699   1
 -12   4 -10-46.9846 130.093   6
 -12   4 -11-22.7324 106.279   6
 -12   4 -12-351.279 321.103   6
 -12   4 -13 257.095 287.839   6
 -12   4 -14 485.058 393.155   6
 -12   3  18 882.525 723.133   7
 -12   3  17 139.044 263.645   7
 -12   3  16-145.648 254.268   7
 -12   3  15-404.185 403.115   7
 -12   3  14 394.653 502.958   7
 -12   3  13 292.052 322.265   7
 -12   3  12-114.279 174.033   7
 -12   3  11-58.5097 225.189   7
 -12   3  10-137.360 212.969   7
 -12   3   9 414.807 380.374   7
  12  -3  -8 692.841 398.933   5
  12  -3  -8 1596.43 748.789   2
 -12   3   8 779.295 429.899   7
  12  -3  -7 42.3969 213.371   5
 -12   3   7 23.4690 221.972   7
  12  -3  -7 228.399 327.244   2
  12  -3  -6 2542.29 715.306   5
 -12   3   6 1879.30 607.133   7
  12  -3  -6 1297.26 642.188   2
  12  -3  -5 2321.62 728.341   5
 -12   3   5 1053.48 488.255   7
  12  -3  -5 1132.16 577.749   2
  12  -3  -4 349.752 355.962   5
  12  -3  -4 37.2129 264.209   2
  12  -3  -3 430.434 391.760   2
  12  -3  -3 400.939 261.728   5
  12  -3  -2 541.038 357.932   2
  12  -3  -2 2068.30 651.984   5
  12  -3  -1 7131.87 1557.09   2
  12  -3  -1 7511.64 1342.14   5
  12  -3   0 9801.99 1590.41   5
  12  -3   0 11116.4 1969.66   2
  12  -3   1 6828.20 1303.81   5
  12  -3   2 2752.15 848.848   5
 -12   3  -2 2163.95 782.130   1
  12  -3   3 1336.37 513.850   5
 -12   3  -3 2476.56 848.274   1
 -12   3  -4 210.329 238.466   6
 -12   3  -4-122.459 203.969   1
 -12   3  -5-36.6931 219.562   6
  12  -3   5 110.023 300.212   5
 -12   3  -5 103.081 195.875   1
 -12   3  -6 10.8804 161.068   6
  12  -3   6 1052.39 506.286   5
 -12   3  -6 1050.87 510.207   1
 -12   3  -7 17.3688 102.876   6
  12  -3   7-8.70429 164.060   5
 -12   3  -7 168.879 222.693   1
 -12   3  -8 566.107 386.504   6
 -12   3  -8-282.138 279.667   1
 -12   3  -9 1003.46 542.381   6
 -12   3  -9 1264.70 610.132   1
 -12   3 -10 438.561 357.292   6
 -12   3 -11-63.3500 151.543   6
 -12   3 -12-364.837 330.319   6
 -12   3 -13 173.705 241.526   6
 -12   3 -14-30.9165 135.353   6
 -12   2  18-578.178 506.642   7
 -12   2  17 621.173 465.896   7
 -12   2  16-469.390 433.362   7
 -12   2  15 756.278 458.733   7
 -12   2  14-408.241 383.765   7
 -12   2  13 919.285 595.940   7
 -12   2  12-45.2998 239.441   7
 -12   2  11 3.60366 210.747   7
 -12   2  10 1501.98 665.801   7
  12  -2  -9 691.701 412.508   5
 -12   2   9 865.809 517.588   7
  12  -2  -8-166.762 111.297   5
 -12   2   8 151.739 304.617   7
  12  -2  -7-4.40779 187.502   5
 -12   2   7-98.6743 154.975   7
  12  -2  -7 305.236 193.244   2
  12  -2  -6 1566.96 593.497   5
  12  -2  -6 1021.44 441.796   2
  12  -2  -5 944.440 483.558   5
  12  -2  -5 772.787 554.440   2
  12  -2  -4 3608.24 922.386   5
  12  -2  -4 3359.76 1027.54   2
  12  -2  -3 391.513 378.743   2
  12  -2  -3 1708.60 614.248   5
  12  -2  -2 2033.12 784.464   2
  12  -2  -2 1759.58 641.057   5
  12  -2  -1 1728.20 823.756   2
  12  -2  -1 1814.61 705.435   5
  12  -2   0-233.274 225.976   5
  12  -2   0 453.547 384.674   2
  12  -2   1 11.4336 212.130   5
  12  -2   2 191.524 277.280   5
 -12   2  -2 249.083 363.615   1
  12  -2   3 1704.65 688.263   5
 -12   2  -3 1530.25 637.347   1
 -12   2  -4 42.3304 108.594   1
  12  -2   4 389.858 354.767   5
  12  -2   5 1179.35 555.315   5
 -12   2  -5 1598.29 669.073   1
  12  -2   6 116.606 258.784   5
 -12   2  -6-50.4937 131.524   1
 -12   2  -7 495.320 399.514   6
  12  -2   7 260.292 280.508   5
 -12   2  -7 942.810 521.748   1
 -12   2  -8-177.595 175.690   6
  12  -2   8-425.836 388.336   5
 -12   2  -8-301.443 232.399   1
 -12   2  -9 223.417 242.823   6
  12  -2   9 878.516 548.278   5
 -12   2 -10 34.6253 180.975   6
 -12   2 -11-193.701 241.255   6
 -12   2 -12 879.298 576.691   6
 -12   2 -13 46.8438 243.550   6
 -12   2 -14 337.403 339.033   6
 -12   1  18-319.267 375.518   7
 -12   1  17 203.519 302.262   7
 -12   1  16-849.541 575.678   7
 -12   1  15-281.948 332.549   7
 -12   1  14 992.815 643.817   7
 -12   1  13-267.285 293.019   7
 -12   1  12 3302.34 988.080   7
  12  -1 -11 582.546 320.853   5
 -12   1  11 166.302 142.091   7
  12  -1 -10-200.965 271.883   5
 -12   1  10-156.431 353.763   7
  12  -1  -9 42.9979 107.710   5
 -12   1   9 141.706 229.993   7
  12  -1  -8 1652.93 659.456   5
  12  -1  -8 1314.27 657.023   2
 -12   1   8 730.028 413.295   7
  12  -1  -7 516.246 328.356   5
 -12   1   7 328.411 306.008   7
  12  -1  -7 61.2413 294.374   2
  12  -1  -6 1361.77 593.396   5
 -12   1   6 1598.57 595.201   7
  12  -1  -6 1533.09 715.802   2
  12  -1  -5 2248.13 778.428   5
 -12   1   5 1463.54 504.407   7
  12  -1  -5 2335.47 919.064   2
  12  -1  -4 235.910 125.309   5
  12  -1  -4 439.337 367.908   2
  12  -1  -3 337.983 350.113   2
  12  -1  -3 478.204 297.599   5
  12  -1  -2 2838.40 979.893   2
  12  -1  -2 2796.25 865.392   5
  12  -1  -1 7086.43 1520.62   2
  12  -1  -1 7617.87 1420.63   5
  12  -1   0 1846.93 740.295   5
  12  -1   0 1146.53 626.660   2
  12  -1   1 2066.68 752.481   5
  12  -1   2 384.706 399.890   5
 -12   1  -2 254.767 292.183   1
  12  -1   3 57.0542 186.043   5
 -12   1  -3 90.3776 231.634   1
 -12   1  -4 351.585 269.391   1
  12  -1   4 293.432 266.221   5
  12  -1   5 554.808 493.832   5
 -12   1  -5 700.611 425.791   1
  12  -1   6-276.903 265.706   5
 -12   1  -6 223.283 265.494   1
  12  -1   7 74.5921 293.377   5
 -12   1  -7 151.276 281.228   1
  12  -1   8 220.005 410.982   5
 -12   1  -8 331.910 283.864   1
 -12   1  -9-355.791 310.929   6
  12  -1   9-89.9137 212.544   5
 -12   1 -10 721.245 517.651   6
  12  -1  10 652.785 668.945   5
 -12   1 -11 191.728 227.112   6
 -12   1 -12-258.488 292.591   6
 -12   1 -13-424.693 378.515   6
 -12   0  19 125.218 411.869   7
 -12   0  18 35.4626 197.663   7
 -12   0  17-223.594 308.421   7
 -12   0  16 456.509 423.303   7
 -12   0  15 736.264 417.531   7
 -12   0  14 297.597 426.457   7
 -12   0  13 189.286 271.794   7
  12   0 -12 1086.07 578.428   5
 -12   0  12 489.734 307.171   7
  12   0 -11 59.5084 140.660   5
 -12   0  11 354.354 364.292   7
  12   0 -10 555.336 445.117   5
 -12   0  10 1639.52 654.759   7
  12   0  -9 627.650 403.830   5
 -12   0   9 664.680 409.149   7
 -12   0   8 885.224 475.070   7
  12   0  -8 364.803 219.258   2
  12   0  -7 2481.56 786.914   5
 -12   0   7 2106.08 678.877   7
  12   0  -7 4520.59 1225.71   2
  12   0  -6 3321.32 933.493   5
 -12   0   6 2351.93 696.012   7
  12   0  -6 2270.45 878.625   2
  12   0  -5 642.434 430.757   5
 -12   0   5 507.559 246.391   7
  12   0  -5 333.680 345.730   2
  12   0  -4 293.879 208.258   5
  12   0  -4 535.170 414.542   2
  12   0  -3 1779.33 722.420   2
  12   0  -3 2361.85 808.269   5
  12   0  -2 901.417 524.605   2
  12   0  -2 386.975 308.025   5
  12   0  -1 3528.12 1044.12   2
  12   0  -1 5445.14 1278.52   5
  12   0   0 1704.96 702.500   5
  12   0   1 102.958 197.157   5
  12   0   2 116.527 253.436   5
  12   0   3 1049.94 512.145   5
 -12   0  -3 1162.97 554.003   1
 -12   0  -4 570.232 313.930   1
  12   0   4 690.801 562.428   5
  12   0   5 215.924 218.139   5
 -12   0  -5 237.540 298.518   1
 -12   0  -6 185.220 280.299   1
  12   0   6 112.188 186.298   5
  12   0   7 768.895 537.772   5
 -12   0  -7 18.9576 88.9868   1
  12   0   8 1146.50 607.386   5
 -12   0  -8 93.3376 215.601   1
  12   0   9 1864.23 878.296   5
 -12   0 -10 837.653 505.564   6
  12   0  10 1283.38 656.800   5
 -12   0 -11 405.070 355.524   6
  12   0  11 257.183 184.762   5
 -12   0 -12 231.974 237.181   6
 -12   0 -13 148.309 303.128   6
 -12  -1  19-585.254 515.054   7
 -12  -1  18 629.679 548.359   7
 -12  -1  17-674.434 524.330   7
 -12  -1  16 1037.38 607.616   7
 -12  -1  15-44.2952 152.311   7
 -12  -1  14-152.905 328.577   7
  12   1 -14 684.310 432.323   5
 -12  -1  13 103.959 183.508   7
  12   1 -13 140.997 155.604   5
 -12  -1  12 33.7539 245.947   7
  12   1 -12 218.143 345.325   5
  12   1 -11 282.340 141.013   5
 -12  -1  11-41.0547 217.858   7
  12   1 -10 837.444 546.358   5
 -12  -1  10 128.191 95.4513   7
  12   1  -9 1082.30 517.075   5
 -12  -1   9 190.964 166.504   7
  12   1  -8-388.676 409.887   5
 -12  -1   8-777.348 431.933   7
  12   1  -8-204.748 336.954   2
  12   1  -7 1007.20 615.277   5
 -12  -1   7 661.998 393.405   7
  12   1  -7 563.037 379.325   2
  12   1  -6 5607.50 1261.57   5
 -12  -1   6 4286.34 936.976   7
  12   1  -6 5353.97 1354.80   2
  12   1  -5 5169.27 1185.55   5
 -12  -1   5 4131.20 882.992   7
  12   1  -5 5122.40 1304.36   2
  12   1  -4 372.174 145.113   5
 -12  -1   4 54.2850 122.642   7
  12   1  -4 174.154 223.233   2
  12   1  -3-920.028 547.469   2
  12   1  -3-52.8239 259.304   5
  12   1  -2 54.1159 246.754   2
  12   1  -2-173.897 392.846   5
  12   1  -1 2291.85 895.964   5
  12   1  -1 3152.65 1006.39   2
  12   1   0 892.692 595.494   5
  12   1   1 1641.48 698.938   5
  12   1   2 742.585 578.152   5
  12   1   3-144.530 308.216   5
 -12  -1  -3 147.609 151.830   1
 -12  -1  -4 18.0900 271.653   1
  12   1   4-215.291 446.913   5
  12   1   5 2029.73 747.490   5
 -12  -1  -5 1270.80 537.456   1
 -12  -1  -6 875.689 424.356   1
  12   1   6 1263.65 666.473   5
  12   1   7-130.253 342.162   5
  12   1   8 899.021 654.601   5
  12   1   9-32.8465 213.049   5
  12   1  10 773.745 551.896   5
 -12  -1 -11 72.8436 178.441   6
  12   1  11 443.546 469.295   5
 -12  -1 -12 144.841 187.356   6
  12   1  12 566.652 473.390   5
 -12  -2  19-871.964 621.236   7
 -12  -2  18-836.421 597.486   7
 -12  -2  17 225.190 462.478   7
 -12  -2  16 241.986 354.504   7
 -12  -2  15-332.779 355.015   7
  12   2 -15 617.128 461.791   5
 -12  -2  14 165.615 334.555   7
  12   2 -14 592.021 388.230   5
 -12  -2  13-125.487 135.187   7
  12   2 -13-493.902 380.397   5
 -12  -2  12 498.523 327.709   7
  12   2 -12 717.291 340.860   5
 -12  -2  11 236.527 167.883   7
  12   2 -11 333.719 315.786   5
 -12  -2  10 760.650 473.858   7
  12   2 -10 362.064 241.694   5
 -12  -2   9 501.086 378.209   7
  12   2  -9 67.5043 364.066   2
  12   2  -9 649.954 351.207   5
 -12  -2   8 614.151 419.534   7
  12   2  -8 1417.69 646.845   5
  12   2  -8 597.701 568.913   2
 -12  -2   7 309.464 192.289   7
  12   2  -7 980.266 586.199   5
  12   2  -7 180.598 364.934   2
 -12  -2   6 823.719 416.790   7
  12   2  -6 206.952 230.585   5
  12   2  -6 605.704 427.240   2
 -12  -2   5 1131.16 434.011   7
  12   2  -5 1252.65 670.628   5
  12   2  -5 1869.76 726.746   2
  12   2  -4-6.20700 260.796   2
 -12  -2   4 204.716 225.696   7
  12   2  -4 17.8195 324.652   5
  12   2  -3 756.852 498.103   2
  12   2  -3 3583.16 1064.73   5
  12   2  -2 152.613 297.542   2
  12   2  -2 490.634 580.678   5
  12   2  -1 3710.12 1070.34   5
  12   2  -1 2063.19 811.629   2
  12   2   0 1215.21 580.448   5
  12   2   1 670.042 482.087   5
  12   2   2 37.6596 288.703   5
  12   2   3 1918.26 811.224   5
 -12  -2  -3 2285.69 711.680   1
 -12  -2  -4 358.746 253.889   1
  12   2   4 715.071 597.457   5
  12   2   5-124.955 276.733   5
  12   2   6 238.490 267.930   5
  12   2   7 805.717 491.711   5
  12   2   8 587.448 453.179   5
  12   2   9 363.683 417.755   5
  12   2  10-480.245 413.691   5
  12   2  11 529.300 416.758   5
 -12  -2 -12-197.544 277.520   6
 -12  -3  19-243.284 340.920   7
 -12  -3  18-170.538 295.647   7
 -12  -3  17-366.471 392.004   7
 -12  -3  16 974.573 663.061   7
  12   3 -16 3171.92 1023.32   5
 -12  -3  15 1240.85 731.638   7
  12   3 -15 754.294 462.136   5
 -12  -3  14 488.005 465.531   7
  12   3 -14-306.658 313.135   5
 -12  -3  13 111.311 191.790   7
  12   3 -13 204.008 319.142   5
 -12  -3  12 446.144 309.319   7
  12   3 -12 806.360 497.119   5
 -12  -3  11 204.752 269.379   7
  12   3 -11-281.380 256.416   5
 -12  -3  10 1484.97 644.832   7
  12   3 -10 1420.07 649.183   5
 -12  -3   9 4966.63 1147.68   7
  12   3  -9 5362.09 1357.66   2
  12   3  -9 5374.07 1271.75   5
 -12  -3   8 4081.32 1013.59   7
  12   3  -8 4530.66 1159.76   5
  12   3  -8 4279.44 1204.42   2
 -12  -3   7 5284.93 1114.69   7
  12   3  -7 4650.99 1184.91   5
  12   3  -7 4513.70 1218.66   2
 -12  -3   6 8045.97 1333.09   7
  12   3  -6 8661.73 1615.77   5
  12   3  -6 11031.6 1882.46   2
 -12  -3   5 9088.83 1375.20   7
  12   3  -5 9180.31 1667.10   5
  12   3  -5 10351.2 1813.60   2
 -12  -3   4 135.709 220.455   7
  12   3  -4-113.279 170.199   5
  12   3  -3-309.839 441.624   2
  12   3  -3 1263.18 617.343   5
  12   3  -2-966.957 553.187   2
  12   3  -2 433.350 230.761   5
  12   3  -1 2564.58 913.791   5
  12   3   0 145.324 226.692   5
  12   3   1 298.487 337.247   5
  12   3   2-435.670 387.262   5
  12   3   3 1260.74 711.363   5
  12   3   4 477.300 396.812   5
  12   3   5 817.446 598.124   5
  12   3   6-43.8269 213.910   5
  12   3   7-17.6748 292.721   5
  12   3   8-179.256 272.105   5
  12   3   9 126.146 194.418   5
  12   3  10 617.283 538.448   5
  12   3  11 298.273 485.441   5
 -12  -4  19-648.487 542.667   7
 -12  -4  18 126.188 364.058   7
 -12  -4  17-9.08982 133.656   7
  12   4 -17 366.620 427.431   5
 -12  -4  16 13.4635 142.389   7
  12   4 -16-41.4603 146.078   5
 -12  -4  15 1088.24 688.264   7
  12   4 -15 870.610 609.272   5
 -12  -4  14-53.8452 280.899   7
  12   4 -14 285.016 263.862   5
 -12  -4  13-432.755 389.921   7
  12   4 -13 390.088 340.444   5
 -12  -4  12-79.0392 129.353   7
  12   4 -12-110.012 210.450   5
 -12  -4  11 1506.13 671.332   7
  12   4 -11 299.232 379.914   5
 -12  -4  10 420.648 315.730   7
  12   4 -10 1114.22 737.219   2
  12   4 -10 626.479 554.323   5
 -12  -4   9 694.952 487.540   7
  12   4  -9-153.118 135.489   5
  12   4  -9 492.178 479.158   2
 -12  -4   8 1693.57 666.831   7
  12   4  -8 1730.31 760.186   5
  12   4  -8 903.446 551.877   2
 -12  -4   7 1983.84 713.545   7
  12   4  -7 2418.04 879.724   5
  12   4  -7 2736.04 943.628   2
 -12  -4   6 616.807 376.302   7
  12   4  -6 363.046 418.570   5
  12   4  -6 246.355 317.012   2
  12   4  -5 665.238 482.878   2
 -12  -4   5 1000.64 506.903   7
  12   4  -5 1726.22 745.075   5
  12   4  -4 241.034 228.677   2
 -12  -4   4 485.976 318.862   7
  12   4  -4-185.811 289.838   5
  12   4  -3-92.0764 188.714   2
  12   4  -3 390.956 249.159   5
  12   4  -2 115.680 248.072   5
  12   4  -2 875.612 565.186   2
  12   4  -1-158.987 222.869   5
  12   4   0 79.8810 193.523   5
  12   4   1 126.360 306.108   5
  12   4   2 625.510 371.205   5
  12   4   3 186.719 205.378   5
  12   4   4-331.202 353.110   5
  12   4   5 332.828 288.364   5
  12   4   6-951.682 579.124   5
  12   4   7-130.759 185.504   5
  12   4   8 126.631 206.789   5
  12   4   9 27.6849 142.373   5
  12   4  10 245.910 422.448   5
 -12  -5  18-372.669 410.261   7
  12   5 -18 351.853 365.580   5
 -12  -5  17-628.632 515.789   7
  12   5 -17-242.551 303.910   5
 -12  -5  16 38.0041 309.261   7
  12   5 -16-25.0468 136.150   5
 -12  -5  15 522.574 408.971   7
  12   5 -15 35.7874 145.013   5
 -12  -5  14-812.112 543.936   7
  12   5 -14-26.9357 317.466   5
 -12  -5  13 147.121 244.789   7
  12   5 -13-282.342 329.447   5
 -12  -5  12 916.925 618.703   7
  12   5 -12 866.902 551.342   5
 -12  -5  11 270.029 296.723   7
  12   5 -11 84.3569 207.961   5
 -12  -5  10 658.110 421.857   7
  12   5 -10 936.344 573.499   5
  12   5 -10 310.874 310.406   2
 -12  -5   9 2659.42 864.584   7
  12   5  -9 2789.75 1006.11   5
  12   5  -9 2193.22 877.337   2
 -12  -5   8-30.5642 252.270   7
  12   5  -8 422.308 472.612   5
  12   5  -8 749.602 493.498   2
 -12  -5   7 181.068 344.030   7
  12   5  -7-380.598 351.920   5
  12   5  -7 32.9174 281.803   2
 -12  -5   6-115.569 252.937   7
  12   5  -6-439.175 510.335   5
  12   5  -6 39.2014 269.774   2
  12   5  -5 3984.69 1114.75   2
 -12  -5   5 4112.85 988.967   7
  12   5  -5 3664.59 1090.29   5
  12   5  -4 1643.88 662.447   2
  12   5  -4 1491.37 686.246   5
  12   5  -3 1680.34 755.616   2
  12   5  -3 1212.01 590.822   5
  12   5  -2 77.0526 251.418   5
  12   5  -1 826.603 598.557   5
  12   5   0-139.083 345.467   5
  12   5   1 845.721 601.741   5
  12   5   2 1330.68 775.626   5
  12   5   3 3632.43 1166.49   5
  12   5   4 4112.32 1256.60   5
  12   5   5-125.300 255.879   5
  12   5   6 990.398 530.998   5
  12   5   7-253.669 320.384   5
  12   5   8-37.1299 334.002   5
  12   5   9-98.3193 211.341   5
  12   5  10 139.613 232.643   5
  12   6 -19 314.011 445.756   5
 -12  -6  18 219.289 419.752   7
  12   6 -18 470.571 338.908   5
 -12  -6  17 51.1320 183.269   7
  12   6 -17-792.683 548.639   5
 -12  -6  16 447.301 608.639   7
  12   6 -16-598.996 477.320   5
 -12  -6  15-479.366 436.887   7
  12   6 -15 247.199 380.722   5
 -12  -6  14-313.105 353.019   7
  12   6 -14 427.078 456.755   5
 -12  -6  13 1005.24 576.717   7
  12   6 -13 682.058 438.298   5
 -12  -6  12 135.420 271.502   7
  12   6 -12 974.520 684.038   5
 -12  -6  11-353.797 348.509   7
  12   6 -11 54.1617 289.306   2
  12   6 -11-239.500 407.877   5
 -12  -6  10-723.455 476.755   7
  12   6 -10 764.631 637.472   5
  12   6 -10 710.834 506.980   2
 -12  -6   9-0.73174 240.990   7
  12   6  -9-367.525 355.195   5
  12   6  -9-307.325 327.957   2
 -12  -6   8-507.912 386.872   7
  12   6  -8 138.841 363.239   5
  12   6  -8-294.573 399.110   2
 -12  -6   7 639.052 381.329   7
  12   6  -7 262.845 472.567   5
  12   6  -7-267.034 299.616   2
  12   6  -6 270.342 324.343   2
 -12  -6   6-358.117 310.188   7
  12   6  -6 642.454 515.627   5
  12   6  -5 1986.71 830.798   2
  12   6  -5 1760.79 785.713   5
  12   6  -4 356.897 294.181   2
  12   6  -4-332.192 303.856   5
  12   6  -3 169.708 324.836   5
  12   6  -2 380.448 138.066   5
  12   6  -1 622.446 295.590   5
  12   6   0 254.137 441.046   5
  12   6   1 1737.72 814.310   5
  12   6   2 14.2590 229.785   5
  12   6   3 182.523 451.601   5
  12   6   4 778.275 636.751   5
  12   6   5-329.020 357.949   5
  12   6   6 301.134 344.595   5
  12   6   7 469.813 374.709   5
  12   6   8 481.762 436.132   5
  12   6   9-650.788 503.265   5
  12   7 -20 406.203 448.501   5
  12   7 -19 82.1830 205.146   5
  12   7 -18-142.840 264.504   5
 -12  -7  17 1848.27 998.011   7
  12   7 -17 1038.09 633.300   5
 -12  -7  16 949.045 544.221   7
  12   7 -16-121.931 243.250   5
 -12  -7  15 857.736 591.701   7
  12   7 -15-235.846 381.828   5
 -12  -7  14 267.133 368.698   7
  12   7 -14 1116.89 702.284   5
 -12  -7  13 1025.53 595.760   7
  12   7 -13 988.041 682.897   5
  12   7 -12 147.631 181.097   2
  12   7 -12 417.654 271.963   5
 -12  -7  11 1732.96 813.127   7
  12   7 -11 606.613 572.891   5
  12   7 -11 1158.61 644.349   2
 -12  -7  10 629.542 464.731   7
  12   7 -10-67.0864 271.719   5
  12   7 -10 225.051 328.486   2
 -12  -7   9 893.288 483.327   7
  12   7  -9 1200.37 677.614   5
  12   7  -9 970.310 608.281   2
  12   7  -8-72.6922 206.693   5
  12   7  -8 433.867 378.567   2
  12   7  -7 3605.50 1068.91   2
 -12  -7   7 2621.84 897.550   7
  12   7  -7 3728.55 1126.37   5
  12   7  -6 277.135 277.853   2
  12   7  -6-289.040 338.774   5
  12   7  -5-532.887 403.768   2
  12   7  -5-59.1959 177.539   5
  12   7  -4 422.973 606.694   5
  12   7  -3 1116.40 637.989   5
  12   7  -2 1901.45 859.210   5
  12   7  -1 733.945 476.739   5
  12   7   0 1252.87 751.101   5
  12   7   1 624.374 507.654   5
  12   7   2 739.755 665.722   5
  12   7   3 1921.59 896.254   5
  12   7   4 984.314 608.150   5
  12   7   5 168.115 444.878   5
  12   7   6-241.813 319.796   5
  12   7   7-450.544 424.451   5
  12   7   8-68.4329 176.810   5
  12   8 -18-124.667 256.476   5
 -12  -8  17-226.282 330.803   7
  12   8 -17 220.567 147.461   5
 -12  -8  16 129.122 341.375   7
  12   8 -16 120.991 161.261   5
 -12  -8  15 551.594 472.918   7
  12   8 -15 729.122 535.717   5
 -12  -8  14 425.050 462.507   7
  12   8 -14 718.355 485.947   5
 -12  -8  13 173.495 272.622   7
  12   8 -13-612.725 470.635   2
  12   8 -13-136.019 253.454   5
 -12  -8  12 285.158 375.560   7
  12   8 -12 155.888 251.105   5
  12   8 -12-14.6051 97.0669   2
 -12  -8  11 205.967 272.230   7
  12   8 -11 186.282 296.065   5
  12   8 -11-292.976 322.268   2
 -12  -8  10 306.775 382.317   7
  12   8 -10-833.219 573.707   5
  12   8 -10-385.587 360.875   2
 -12  -8   9 376.298 414.204   7
  12   8  -9 63.8689 162.840   2
  12   8  -8-176.056 242.838   2
  12   8  -8 620.380 528.924   5
  12   8  -7-313.898 312.776   2
  12   8  -7 939.425 506.557   5
  12   8  -6 460.136 329.521   2
  12   8  -6 237.060 540.115   5
  12   8  -5-146.938 418.563   5
  12   8  -4 1174.79 745.968   5
  12   8  -3 329.798 483.239   5
  12   8  -2 2667.41 1001.94   5
  12   8  -1 832.334 526.440   5
  12   8   0-120.102 209.851   5
  12   8   1 70.5518 201.053   5
  12   8   2-3.87814 215.024   5
  12   8   3 1208.43 835.589   5
  12   8   4-471.661 439.117   5
  12   8   5 144.244 200.869   5
  12   8   6-671.872 520.854   5
 -12  -9  16-344.168 407.346   7
  12   9 -16 231.720 377.684   5
 -12  -9  15 946.407 655.885   7
  12   9 -15 719.768 391.649   5
 -12  -9  14 566.956 578.764   7
  12   9 -14 651.451 536.558   5
 -12  -9  13-442.577 428.184   7
  12   9 -13 84.3186 347.759   5
 -12  -9  12 725.105 533.566   7
  12   9 -12 256.446 378.483   5
 -12  -9  11 918.202 644.994   7
  12   9 -11 1426.74 849.991   5
 -12  -9  10 247.310 221.126   7
  12   9 -10 74.7387 167.312   5
  12   9  -9 795.127 639.297   5
  12   9  -8 228.285 349.226   5
  12   9  -7-87.3248 228.871   5
  12   9  -6 129.596 182.888   5
  12   9  -5 260.266 278.984   5
  12   9  -4-189.370 301.047   5
  12   9  -3 164.927 194.944   5
  12   9  -2 183.062 294.915   5
  12   9  -1-88.8578 207.116   5
  12   9   0 215.929 319.708   5
  12   9   1-201.461 308.055   5
  12   9   2 229.784 481.163   5
  12   9   3 789.488 634.283   5
  12   9   4 204.811 244.808   5
  12   9   5 15.3210 136.583   5
 -12 -10  14 543.028 556.593   7
 -12 -10  13 259.985 344.639   7
  12  10 -13-715.284 569.742   5
 -12 -10  12 10.0652 130.493   7
  12  10 -12 1438.10 855.945   5
  12  10 -11 800.882 473.487   5
  12  10 -10-20.2624 266.074   5
  12  10  -9 4.23153 227.850   5
  12  10  -8 268.030 293.798   5
  12  10  -7-305.380 378.066   5
  12  10  -6-118.695 248.404   5
  12  10  -5-468.211 450.880   5
  12  10  -4-231.162 324.626   5
  12  10  -3-533.982 481.660   5
  12  10  -2-128.484 258.060   5
  12  10  -1 412.191 416.254   5
  12  10   0 395.518 433.532   5
  12  10   1-856.725 607.435   5
  12  10   2 335.158 391.501   5
  12  10   2-164.563 292.719   4
  12  11  -8-596.128 524.777   5
  12  11  -7 282.028 362.710   5
  12  11  -6 328.757 392.307   5
  12  11  -5 783.354 673.803   5
  12  11  -4 682.506 551.409   5
  12  11  -3-229.788 336.698   5
  12  11  -2 430.166 335.384   5
  12  11   0 285.610 453.941   4
  13 -11  -4-495.156 450.155   2
  13 -11  -3 17.6942 112.527   2
  13 -11  -2 167.437 398.186   2
  13 -10  -9 5.54078 217.756   2
  13 -10  -8 3.23344 314.261   2
  13 -10  -7 641.405 521.469   2
  13 -10  -6 197.075 295.152   2
  13 -10  -5 152.916 283.719   2
  13 -10  -4-373.731 391.436   2
 -13  10   4 8.03098 251.936   1
  13 -10  -3-95.7015 208.912   2
 -13  10   3 1126.58 674.121   1
  13 -10  -2 207.801 286.184   2
 -13  10   2-359.792 389.923   1
 -13  10   1 0.98558 111.206   1
 -13  10   0 307.407 375.303   1
 -13  10  -1 530.887 542.318   1
 -13  10  -2 646.556 602.669   1
 -13  10  -5 106.444 192.028   3
 -13  10  -6 126.440 240.893   3
 -13  10  -7-0.85997 349.026   3
 -13  10  -8 88.0273 105.463   3
  13  -9 -11 645.028 586.382   2
 -13   9  11-177.979 278.935   7
  13  -9 -10 41.6647 164.871   2
  13  -9  -9-373.538 414.268   2
  13  -9  -8-452.945 444.215   2
  13  -9  -7 71.8219 147.291   2
  13  -9  -6 689.314 622.837   2
  13  -9  -5 150.376 191.769   2
  13  -9  -4 352.127 380.175   2
  13  -9  -3-409.548 404.981   2
 -13   9   3-13.4572 123.903   1
  13  -9  -2 51.6865 366.393   2
 -13   9   2-85.1701 208.344   1
  13  -9  -1 191.379 248.311   2
 -13   9   1 834.309 590.107   1
 -13   9   0 206.497 288.088   1
 -13   9  -1 16.9070 301.574   1
 -13   9  -2-623.148 488.306   1
 -13   9  -3 853.185 615.207   1
 -13   9  -4 1328.45 772.943   1
 -13   9  -5 263.802 372.376   3
 -13   9  -5 199.141 422.983   1
 -13   9  -6-222.189 275.491   3
 -13   9  -6 87.2388 193.572   1
 -13   9  -7-223.072 283.377   3
 -13   9  -8 62.5461 355.224   3
 -13   9  -9 167.283 261.925   3
 -13   8  13 77.2321 490.719   7
 -13   8  12 1.00508 663.839   7
  13  -8 -11 886.699 755.549   2
 -13   8  11 18.1275 422.922   7
  13  -8 -10 1.11099 138.980   2
 -13   8  10-101.181 205.538   7
  13  -8  -9 271.709 455.002   2
  13  -8  -8-255.704 341.165   2
  13  -8  -7-779.012 569.941   2
  13  -8  -6 373.115 453.702   2
  13  -8  -5 13.7778 116.633   2
  13  -8  -4 13.5569 198.989   2
  13  -8  -3-200.693 289.523   2
  13  -8  -2 161.887 254.356   2
 -13   8   2 72.7418 300.595   1
  13  -8  -1 101.813 271.675   2
 -13   8   1-294.651 346.085   1
 -13   8   0 42.8566 269.172   1
 -13   8  -1-0.90574 154.939   1
 -13   8  -2 427.159 407.626   1
 -13   8  -3 2032.51 894.329   1
 -13   8  -4 127.460 234.706   3
 -13   8  -4 749.355 582.702   1
 -13   8  -5-454.956 414.206   1
 -13   8  -5 214.766 320.319   3
 -13   8  -6-20.7438 119.867   3
 -13   8  -6 425.002 437.152   1
 -13   8  -7-63.7523 162.530   3
 -13   8  -7 122.636 223.825   1
 -13   8  -8-105.825 211.572   3
 -13   8  -8 44.5706 129.837   1
 -13   8  -9 831.356 579.049   3
 -13   8 -10 285.324 370.253   3
 -13   7  14 613.838 517.407   7
 -13   7  13-579.783 491.283   7
 -13   7  12 113.221 221.653   7
 -13   7  11 199.768 257.528   7
  13  -7 -10-392.221 426.952   2
 -13   7  10-66.8644 176.342   7
 -13   7   9-98.5378 196.930   7
  13  -7  -9-384.873 420.482   2
  13  -7  -8 1.03812 150.201   2
  13  -7  -7-71.9241 198.426   2
  13  -7  -6 127.069 242.734   2
  13  -7  -5 1704.72 857.382   2
  13  -7  -4 51.6874 120.771   2
  13  -7  -3 222.971 213.570   2
  13  -7  -2-317.199 354.026   2
  13  -7  -1 364.997 475.102   2
 -13   7   1 7.94509 121.765   1
 -13   7   0-126.628 234.387   1
 -13   7  -1-198.155 283.207   1
 -13   7  -2 301.793 337.373   1
 -13   7  -3 93.0627 86.8416   3
 -13   7  -3 262.780 315.034   1
 -13   7  -4 1238.90 601.497   3
 -13   7  -4 832.488 698.416   1
 -13   7  -5-367.907 333.176   3
 -13   7  -5 523.522 495.596   1
 -13   7  -6 874.954 439.262   3
 -13   7  -6 48.9899 213.600   1
 -13   7  -7-185.000 264.357   1
 -13   7  -7-632.573 455.564   3
 -13   7  -8 95.9906 401.022   1
 -13   7  -8 55.6998 129.161   3
 -13   7  -9 5.23250 188.172   3
 -13   7 -10-416.554 400.318   3
 -13   6  15 326.680 524.402   7
 -13   6  14 383.769 235.069   7
 -13   6  13 315.034 468.304   7
 -13   6  12 64.2011 180.502   7
 -13   6  11 651.332 505.137   7
  13  -6 -10 307.175 345.788   2
 -13   6  10-13.0568 101.883   7
 -13   6   9 1099.53 566.984   7
  13  -6  -9 440.226 461.134   2
  13  -6  -8-6.14208 109.751   2
  13  -6  -7-94.9706 217.414   2
  13  -6  -6 490.454 475.298   2
  13  -6  -5 103.656 360.875   2
  13  -6  -4 141.470 355.891   2
  13  -6  -3 131.355 227.102   2
  13  -6  -3 218.211 217.167   5
  13  -6  -2 407.331 394.413   5
  13  -6  -2-121.077 239.944   2
  13  -6  -1 309.439 437.746   2
 -13   6   0-578.668 453.816   1
 -13   6  -1 1017.94 609.968   1
 -13   6  -2 744.334 545.884   1
 -13   6  -2 628.404 282.289   3
 -13   6  -3 57.3309 199.066   1
 -13   6  -3 3.75446 245.157   3
 -13   6  -4 452.420 323.161   3
 -13   6  -4 0.82543 106.352   1
 -13   6  -5 701.762 419.023   3
 -13   6  -5 527.890 552.235   1
 -13   6  -6-0.82570 119.925   1
 -13   6  -6-386.336 346.317   3
 -13   6  -7 924.379 609.481   3
 -13   6  -7 1549.70 854.744   1
 -13   6  -8 126.645 365.894   3
 -13   6  -8 172.905 249.567   1
 -13   6  -9-164.257 254.155   3
 -13   6  -9 804.834 607.249   1
 -13   6 -10 279.604 333.893   3
 -13   5  15-252.932 333.955   7
 -13   5  14-300.664 356.015   7
 -13   5  13 340.490 352.061   7
 -13   5  12 212.354 188.725   7
 -13   5  11-554.780 436.918   7
 -13   5  10-113.216 249.311   7
 -13   5   9-19.0274 152.960   7
  13  -5  -9-81.5202 207.852   2
  13  -5  -8 278.330 350.699   2
  13  -5  -7 116.077 213.840   2
  13  -5  -6 35.6413 371.665   2
  13  -5  -5-281.725 347.227   2
  13  -5  -4-73.3401 134.501   5
  13  -5  -4-146.349 262.163   2
  13  -5  -3 26.7044 296.222   2
  13  -5  -3 483.123 251.054   5
  13  -5  -2-287.392 340.157   2
  13  -5  -2 415.569 362.862   5
  13  -5  -1 799.348 465.285   5
  13  -5  -1 252.940 319.839   2
  13  -5   0-194.767 234.232   5
 -13   5  -1 221.799 171.478   3
 -13   5  -1 43.0665 156.597   1
  13  -5   2-448.855 353.713   5
 -13   5  -2 235.897 235.090   3
 -13   5  -2 89.8012 520.114   1
  13  -5   3 82.2241 229.371   5
 -13   5  -3-177.162 223.996   3
 -13   5  -4-275.327 306.772   1
 -13   5  -5 105.111 232.791   1
 -13   5  -6 213.951 312.596   1
 -13   5  -7 115.906 244.853   1
 -13   5  -8 277.890 432.173   1
 -13   5  -9 114.100 208.686   1
 -13   4  16-430.568 433.908   7
 -13   4  15-419.575 417.430   7
 -13   4  14 91.4480 209.706   7
 -13   4  13-233.179 299.116   7
 -13   4  12 557.938 453.703   7
 -13   4  11 159.839 243.629   7
 -13   4  10-4.49752 79.6248   7
 -13   4   9-98.1590 181.062   7
  13  -4  -9-42.6453 174.859   2
 -13   4   8 88.1718 245.784   7
  13  -4  -8-559.801 480.650   2
  13  -4  -7-49.5483 174.016   2
  13  -4  -6 148.906 129.656   5
  13  -4  -6 105.328 162.890   2
  13  -4  -5 692.537 400.786   5
  13  -4  -5 113.999 246.033   2
  13  -4  -4 356.209 302.525   5
  13  -4  -4-216.050 226.754   2
  13  -4  -3 1651.40 789.861   2
  13  -4  -3 3051.62 883.962   5
  13  -4  -2 1339.18 664.815   2
  13  -4  -2 1006.94 513.840   5
  13  -4  -1-121.239 177.354   5
  13  -4  -1-139.419 257.400   2
  13  -4   0 593.486 364.137   5
  13  -4   0 938.394 513.921   2
  13  -4   1 2579.72 884.894   5
 -13   4  -1 1484.62 720.488   1
  13  -4   2 530.314 409.215   5
 -13   4  -2-166.309 243.121   1
 -13   4  -3 104.917 363.705   1
  13  -4   3 553.762 324.938   5
  13  -4   4-52.1760 195.889   5
 -13   4  -4-292.626 308.597   1
  13  -4   5-127.019 350.753   5
 -13   4  -5-266.498 294.898   1
 -13   4  -6 317.235 272.617   1
 -13   4  -7 911.155 586.450   1
 -13   4  -8 785.013 614.634   1
 -13   4  -9 554.587 402.661   6
 -13   4  -9-0.75574 145.600   1
 -13   4 -10 643.111 367.174   6
 -13   4 -11 138.768 261.665   6
 -13   4 -12 317.271 402.182   6
 -13   4 -13 171.565 260.231   6
 -13   3  17-185.028 296.751   7
 -13   3  16 494.647 530.178   7
 -13   3  15 70.4441 199.471   7
 -13   3  14 260.918 252.580   7
 -13   3  13 395.898 440.302   7
 -13   3  12 466.960 329.640   7
 -13   3  11 2575.03 893.168   7
 -13   3  10 161.032 231.021   7
  13  -3  -9 121.011 281.716   2
 -13   3   9 87.4013 81.5886   7
 -13   3   8 676.013 415.853   7
  13  -3  -8 268.874 310.641   2
  13  -3  -7 1221.39 474.545   5
  13  -3  -7 1875.53 847.643   2
  13  -3  -6 351.149 90.5099   5
  13  -3  -6 111.330 435.692   2
  13  -3  -5 158.116 107.316   5
  13  -3  -5-577.042 473.659   2
  13  -3  -4 668.137 380.413   5
  13  -3  -4 245.943 172.122   2
  13  -3  -3 1515.53 766.898   2
  13  -3  -3 2107.24 725.273   5
  13  -3  -2 11.5824 495.067   2
  13  -3  -2 535.787 262.182   5
  13  -3  -1 208.978 277.123   5
  13  -3  -1 164.651 213.660   2
  13  -3   0 59.5363 234.767   5
  13  -3   1 241.468 280.830   5
  13  -3   2 1568.74 679.005   5
 -13   3  -2 2431.10 854.702   1
 -13   3  -3-107.739 199.515   1
  13  -3   3 183.719 200.829   5
  13  -3   4-111.193 367.229   5
 -13   3  -4 149.680 226.690   1
 -13   3  -5 89.3124 161.151   6
  13  -3   5-3.72870 354.026   5
 -13   3  -5 75.7827 263.797   1
 -13   3  -6-87.4365 109.423   1
 -13   3  -6 679.691 409.464   6
  13  -3   6 341.789 393.030   5
 -13   3  -7 23.8932 123.924   6
  13  -3   7 420.660 416.260   5
 -13   3  -7 261.663 339.521   1
 -13   3  -8-581.451 378.360   6
 -13   3  -8-348.838 322.604   1
 -13   3  -9-295.005 338.349   1
 -13   3  -9 328.735 336.610   6
 -13   3 -10 52.6715 133.616   6
 -13   3 -11 38.5306 149.631   6
 -13   3 -12-0.75483 221.326   6
 -13   3 -13 29.5255 203.650   6
 -13   2  17-197.862 300.368   7
 -13   2  16 1067.38 649.550   7
 -13   2  15-172.934 268.504   7
 -13   2  14 572.761 406.978   7
 -13   2  13 113.408 203.345   7
 -13   2  12 186.411 317.048   7
 -13   2  11 199.310 217.802   7
 -13   2  10 160.595 245.265   7
  13  -2  -9 776.207 457.779   5
 -13   2   9 752.155 485.455   7
  13  -2  -9 471.207 371.671   2
  13  -2  -8 1156.47 583.721   5
 -13   2   8 908.107 480.577   7
  13  -2  -8 1987.86 868.341   2
  13  -2  -7 850.221 399.118   5
  13  -2  -7 297.483 373.395   2
  13  -2  -6 675.440 475.137   5
  13  -2  -6-284.378 389.524   2
  13  -2  -5 1205.59 576.794   5
  13  -2  -5 1401.52 722.565   2
  13  -2  -4-568.565 468.962   2
  13  -2  -4 17.9519 155.814   5
  13  -2  -3 1338.87 735.045   2
  13  -2  -3 2383.57 808.401   5
  13  -2  -2 1420.50 784.430   2
  13  -2  -2 1346.63 556.396   5
  13  -2  -1 145.278 200.240   5
  13  -2  -1 48.4852 136.280   2
  13  -2   0 512.640 492.101   5
  13  -2   1 984.695 488.242   5
  13  -2   2 1094.30 531.515   5
 -13   2  -2 601.188 480.630   1
 -13   2  -3 529.608 440.492   1
  13  -2   3 1541.48 662.283   5
  13  -2   4 1451.26 617.137   5
 -13   2  -4 285.307 306.356   1
  13  -2   5 9.88702 109.398   5
 -13   2  -5 1.39047 225.731   1
 -13   2  -6-229.976 260.175   1
 -13   2  -6-179.348 211.126   6
  13  -2   6 139.441 231.583   5
 -13   2  -7 249.075 277.179   6
  13  -2   7 352.898 414.014   5
 -13   2  -7 358.394 348.176   1
 -13   2  -8 475.317 380.583   6
  13  -2   8 839.053 535.343   5
 -13   2  -8 805.142 481.871   1
 -13   2  -9 164.439 135.570   6
  13  -2   9 398.198 382.819   5
 -13   2 -10 708.776 483.629   6
 -13   2 -11 443.274 476.981   6
 -13   2 -12 880.490 531.185   6
 -13   1  17 657.892 635.370   7
 -13   1  16 330.293 338.472   7
 -13   1  15 439.594 467.041   7
 -13   1  14 162.511 259.804   7
 -13   1  13-34.3667 176.646   7
 -13   1  12 63.2455 164.611   7
 -13   1  11 3034.05 958.196   7
  13  -1 -10 479.301 340.983   5
 -13   1  10 377.588 302.652   7
  13  -1  -9 315.069 241.792   5
 -13   1   9 429.892 335.221   7
  13  -1  -9 393.854 310.648   2
  13  -1  -8 382.664 420.981   5
 -13   1   8 873.094 454.848   7
  13  -1  -8 959.163 612.341   2
  13  -1  -7 6820.10 1362.56   5
  13  -1  -7 4955.34 1375.77   2
  13  -1  -6 1583.07 700.779   5
  13  -1  -6 910.389 644.255   2
  13  -1  -5 159.758 315.319   5
  13  -1  -5-393.940 392.437   2
  13  -1  -4 61.9301 443.156   2
  13  -1  -4-45.3097 130.084   5
  13  -1  -3 60.5190 269.250   2
  13  -1  -3 186.313 186.374   5
  13  -1  -2 22.6916 243.074   2
  13  -1  -2-154.157 232.712   5
  13  -1  -1 3.52087 444.933   5
  13  -1  -1 541.174 380.055   2
  13  -1   0 168.825 227.799   5
  13  -1   1-130.308 311.297   5
  13  -1   2 327.553 370.986   5
 -13   1  -2 47.3947 99.7610   1
  13  -1   3 247.524 393.660   5
 -13   1  -3 367.482 346.522   1
 -13   1  -4 152.465 143.719   1
  13  -1   4 1373.48 633.872   5
  13  -1   5 787.490 479.730   5
 -13   1  -5 944.706 504.491   1
 -13   1  -6-222.534 250.047   1
  13  -1   6 124.399 363.210   5
  13  -1   7 196.795 148.183   5
 -13   1  -7-171.109 222.082   1
 -13   1  -8 633.942 450.108   1
 -13   1  -8 221.811 245.473   6
  13  -1   8 1094.85 644.589   5
 -13   1  -9 1079.40 600.739   6
  13  -1   9 368.957 404.709   5
 -13   1 -10 22.6265 318.037   6
  13  -1  10 707.393 611.060   5
 -13   1 -11-430.466 372.028   6
 -13   1 -12 170.690 249.638   6
 -13   0  18-430.434 442.575   7
 -13   0  17-1.03495 184.102   7
 -13   0  16 167.032 491.677   7
 -13   0  15-142.414 243.520   7
 -13   0  14-76.6055 196.204   7
 -13   0  13 70.8287 172.066   7
 -13   0  12 8.66227 231.438   7
  13   0 -11 265.509 279.288   5
 -13   0  11 687.347 420.112   7
  13   0 -10 741.029 470.840   5
 -13   0  10-16.7511 104.996   7
  13   0  -9 175.866 188.307   5
 -13   0   9 45.2150 376.436   7
  13   0  -9 399.575 423.832   2
  13   0  -8 1574.92 655.799   5
 -13   0   8 1854.85 675.376   7
  13   0  -8 1816.59 794.231   2
  13   0  -7 2861.08 904.003   5
 -13   0   7 2497.62 720.685   7
  13   0  -7 3564.06 1181.03   2
  13   0  -6-39.2623 209.538   5
  13   0  -6-18.0176 155.342   2
  13   0  -5 1497.29 607.071   5
  13   0  -5 1251.33 697.165   2
  13   0  -4 121.419 147.097   2
  13   0  -4 372.214 346.110   5
  13   0  -3 184.696 124.356   2
  13   0  -3 1704.34 719.781   5
  13   0  -2 165.965 459.968   2
  13   0  -2 582.670 496.970   5
  13   0  -1-69.6843 140.851   5
  13   0  -1 164.343 259.304   2
  13   0   0 3854.38 1053.37   5
  13   0   1 1780.97 753.458   5
  13   0   2-177.813 395.731   5
 -13   0  -2 117.772 192.789   1
  13   0   3 416.063 386.156   5
 -13   0  -3 251.056 355.299   1
 -13   0  -4 525.675 432.639   1
  13   0   4 1228.14 665.049   5
  13   0   5 233.301 217.146   5
 -13   0  -5 242.763 252.538   1
 -13   0  -6-423.730 329.162   1
  13   0   6 323.829 349.796   5
  13   0   7 911.849 492.348   5
  13   0   8 1344.80 698.360   5
  13   0   9 615.482 456.241   5
 -13   0 -10 40.4093 105.805   6
  13   0  10 1156.82 643.298   5
 -13   0 -11-203.045 270.149   6
 -13  -1  18 216.856 320.483   7
 -13  -1  17 249.571 201.189   7
 -13  -1  16 326.355 388.654   7
 -13  -1  15 2784.29 1058.31   7
 -13  -1  14 475.059 420.967   7
  13   1 -13 169.666 235.860   5
 -13  -1  13-320.116 336.344   7
  13   1 -12 1299.04 632.085   5
 -13  -1  12 1509.35 770.166   7
  13   1 -11 801.411 566.279   5
 -13  -1  11 673.472 412.924   7
  13   1 -10-31.6926 384.497   5
  13   1 -10 108.684 274.358   2
 -13  -1  10 250.670 308.588   7
  13   1  -9-266.308 409.387   5
 -13  -1   9-151.863 210.649   7
  13   1  -9-460.998 430.329   2
  13   1  -8-198.647 136.440   5
 -13  -1   8-623.554 395.982   7
  13   1  -8-414.122 410.335   2
  13   1  -7 826.007 534.954   5
 -13  -1   7 1578.42 602.336   7
  13   1  -7 1096.92 604.364   2
  13   1  -6 191.436 218.629   5
  13   1  -6 445.600 382.937   2
  13   1  -5 973.846 565.057   5
  13   1  -5 510.083 491.514   2
  13   1  -4-141.864 265.420   2
  13   1  -4 465.658 435.296   5
  13   1  -3 2127.99 910.207   2
  13   1  -3 2292.64 832.684   5
  13   1  -2 41.1352 293.279   2
  13   1  -2 498.526 360.164   5
  13   1  -1 2040.39 797.267   5
  13   1   0 5248.13 1308.88   5
  13   1   1 590.689 396.538   5
  13   1   2 719.057 578.833   5
 -13  -1  -2 70.3218 243.006   1
  13   1   3-0.80730 215.956   5
 -13  -1  -3 30.9381 117.343   1
 -13  -1  -4 106.827 151.231   1
  13   1   4 210.356 304.449   5
  13   1   5 353.052 310.711   5
  13   1   6-238.282 417.245   5
  13   1   7-443.140 407.585   5
  13   1   8 1241.30 684.017   5
  13   1   9 1741.20 783.527   5
 -13  -1 -11 31.5816 177.595   6
 -13  -2  18 570.200 605.037   7
 -13  -2  17-852.572 604.241   7
 -13  -2  16 254.499 125.271   7
 -13  -2  15-313.955 360.604   7
 -13  -2  14 417.059 444.172   7
  13   2 -14-769.682 491.632   5
 -13  -2  13 327.349 268.000   7
  13   2 -13 272.399 474.019   5
 -13  -2  12 107.697 206.929   7
  13   2 -12 455.610 423.055   5
 -13  -2  11-145.174 224.755   7
  13   2 -11-116.456 210.446   5
 -13  -2  10 180.302 228.281   7
  13   2 -10 175.098 132.573   5
  13   2 -10 7.67803 113.360   2
 -13  -2   9 84.8709 132.601   7
  13   2  -9 423.900 384.731   5
  13   2  -9 387.943 372.950   2
 -13  -2   8 25.4897 111.466   7
  13   2  -8 241.391 224.770   5
 -13  -2   7 731.690 512.103   7
  13   2  -7 1194.77 546.242   5
  13   2  -7 647.088 477.586   2
  13   2  -6 612.618 421.709   5
  13   2  -6 577.471 507.244   2
  13   2  -5 633.355 531.832   2
  13   2  -5 1025.42 511.384   5
  13   2  -4 741.808 501.091   2
  13   2  -4 1087.93 622.481   5
  13   2  -3 921.974 508.835   2
  13   2  -3-96.9599 126.358   5
  13   2  -2 1803.64 727.736   5
  13   2  -2 1308.10 726.275   2
  13   2  -1 476.628 355.925   5
  13   2   0 1515.03 778.629   5
  13   2   1 682.801 373.230   5
  13   2   2 569.135 369.232   5
 -13  -2  -2 215.611 235.127   1
 -13  -2  -3 471.388 362.392   1
  13   2   3 1081.55 463.115   5
  13   2   4 1308.63 637.398   5
  13   2   5 322.317 136.774   5
  13   2   6 241.506 300.245   5
  13   2   7 42.6523 176.081   5
  13   2   8 325.058 433.922   5
  13   2   9-55.0900 175.831   5
 -13  -3  18-231.782 338.681   7
 -13  -3  17-149.599 265.055   7
 -13  -3  16-45.7576 118.081   7
 -13  -3  15 277.088 430.769   7
  13   3 -15 1477.51 709.742   5
 -13  -3  14 437.296 421.278   7
  13   3 -14 384.934 295.503   5
 -13  -3  13 89.3927 243.406   7
  13   3 -13-567.063 436.402   5
 -13  -3  12-465.090 393.424   7
  13   3 -12 213.889 262.798   5
 -13  -3  11 2237.05 858.374   7
  13   3 -11 1478.97 726.928   5
 -13  -3  10-32.3752 264.412   7
  13   3 -10-378.600 367.675   5
  13   3 -10-423.548 412.175   2
 -13  -3   9 864.488 479.207   7
  13   3  -9 1754.01 689.594   5
  13   3  -9 745.742 636.595   2
 -13  -3   8 1047.83 617.914   7
  13   3  -8 1268.32 646.489   5
  13   3  -8 1530.32 749.906   2
 -13  -3   7 137.960 190.470   7
  13   3  -7-497.297 414.132   5
  13   3  -7-391.474 444.553   2
  13   3  -6 806.327 542.864   5
  13   3  -6 71.2735 144.860   2
  13   3  -5 236.260 188.239   2
  13   3  -5-52.0536 342.171   5
  13   3  -4 2414.11 890.930   2
  13   3  -4 1704.30 795.708   5
  13   3  -3 1252.04 652.797   2
  13   3  -3 1450.74 672.698   5
  13   3  -2 439.200 411.979   5
  13   3  -2 410.412 372.538   2
  13   3  -1 495.696 491.984   5
  13   3   0 3483.17 1092.65   5
  13   3   1 462.224 372.280   5
  13   3   2 604.662 380.383   5
  13   3   3 212.579 418.010   5
  13   3   4 95.4775 117.970   5
  13   3   5 152.096 260.272   5
  13   3   6 341.953 474.430   5
  13   3   7 409.457 403.728   5
  13   3   8 273.736 409.621   5
 -13  -4  18-318.350 387.109   7
 -13  -4  17 74.7531 415.033   7
 -13  -4  16-231.819 324.194   7
  13   4 -16 443.216 442.326   5
 -13  -4  15-241.524 321.125   7
  13   4 -15-70.1417 184.549   5
 -13  -4  14-50.8422 169.821   7
  13   4 -14-97.9011 210.814   5
 -13  -4  13 122.690 189.922   7
  13   4 -13 152.594 315.918   5
 -13  -4  12 163.409 305.172   7
  13   4 -12-169.423 385.492   5
  13   4 -11 304.166 355.153   2
  13   4 -11 385.901 111.327   5
 -13  -4  10-251.547 279.723   7
  13   4 -10 13.4868 262.092   5
  13   4 -10 594.449 630.695   2
 -13  -4   9 666.728 498.337   7
  13   4  -9 1373.40 700.639   5
  13   4  -9 848.191 617.183   2
 -13  -4   8 587.888 347.843   7
  13   4  -8 150.994 174.704   5
  13   4  -8 195.188 245.686   2
 -13  -4   7 373.333 313.460   7
  13   4  -7-200.151 280.765   5
  13   4  -7-168.526 533.155   2
  13   4  -6-480.230 417.073   2
  13   4  -6-22.8328 275.525   5
  13   4  -5 155.856 291.559   2
  13   4  -5 740.544 581.779   5
  13   4  -4 1278.45 706.142   2
  13   4  -4 1170.43 636.547   5
  13   4  -3-262.961 312.702   2
  13   4  -3 490.558 356.620   5
  13   4  -2 2190.44 922.196   5
  13   4  -1 19.2473 184.807   5
  13   4   0-349.521 360.313   5
  13   4   1-360.759 461.557   5
  13   4   2 341.022 258.309   5
  13   4   3 562.138 398.167   5
  13   4   4 317.097 216.617   5
  13   4   5 505.475 445.359   5
  13   4   6-408.253 403.519   5
  13   4   7 183.094 281.408   5
  13   4   8-90.9373 218.496   5
  13   5 -18-32.2738 153.201   5
 -13  -5  17 103.492 234.611   7
  13   5 -17 304.658 354.409   5
 -13  -5  16 200.758 302.698   7
  13   5 -16-0.92626 639.560   5
 -13  -5  15 229.610 421.761   7
  13   5 -15 344.669 329.897   5
 -13  -5  14-249.847 322.766   7
  13   5 -14-542.992 454.228   5
 -13  -5  13-246.318 309.209   7
  13   5 -13-111.649 224.260   5
 -13  -5  12 477.908 408.786   7
  13   5 -12 29.3271 197.360   2
  13   5 -12 466.550 375.479   5
 -13  -5  11 559.628 461.298   7
  13   5 -11-231.847 301.473   5
  13   5 -11-202.613 293.679   2
 -13  -5  10 152.292 226.423   7
  13   5 -10 579.159 470.590   5
  13   5 -10 151.993 292.555   2
 -13  -5   9-25.6414 122.743   7
  13   5  -9 218.832 139.147   2
 -13  -5   8 25.7597 143.681   7
  13   5  -8-193.687 269.608   5
  13   5  -8-142.447 240.405   2
 -13  -5   7 625.903 413.336   7
  13   5  -7 360.514 300.797   5
  13   5  -7 1168.22 617.486   2
  13   5  -6 172.827 189.463   2
  13   5  -6 561.575 484.527   5
  13   5  -5 778.047 605.642   2
  13   5  -5 232.843 315.788   5
  13   5  -4 2338.75 899.188   2
  13   5  -4 1062.45 686.764   5
  13   5  -3 513.468 590.690   5
  13   5  -2 1486.43 706.064   5
  13   5  -1 230.208 141.805   5
  13   5   0-88.0595 247.520   5
  13   5   1-118.303 289.047   5
  13   5   2 769.590 678.196   5
  13   5   3-163.039 339.681   5
  13   5   4 349.729 356.038   5
  13   5   5 337.598 390.286   5
  13   5   6 709.344 504.740   5
  13   5   7 57.3475 184.906   5
  13   6 -18 432.635 441.223   5
 -13  -6  17-624.419 528.590   7
  13   6 -17-73.4812 198.602   5
 -13  -6  16 12.5162 125.157   7
  13   6 -16 226.580 518.459   5
 -13  -6  15-43.9049 163.007   7
  13   6 -15 977.803 613.717   5
 -13  -6  14 134.739 383.138   7
  13   6 -14-741.395 541.591   5
 -13  -6  13 512.179 541.238   7
  13   6 -13 1378.83 713.899   5
 -13  -6  12 486.269 433.167   7
  13   6 -12 478.266 535.800   2
 -13  -6  11-421.065 386.350   7
  13   6 -11-78.7781 201.046   2
  13   6 -10-262.487 333.816   5
  13   6 -10-10.0276 106.334   2
 -13  -6   9-225.726 351.575   7
  13   6  -9-717.685 529.283   5
  13   6  -9-217.361 289.094   2
 -13  -6   8 673.069 457.870   7
  13   6  -8 912.022 368.427   5
  13   6  -8 342.036 355.611   2
  13   6  -7 467.310 403.922   2
 -13  -6   7-419.652 348.991   7
  13   6  -7-328.615 472.694   5
  13   6  -6-4.18072 90.4633   2
  13   6  -6-801.308 557.770   5
  13   6  -5-304.727 326.204   2
  13   6  -5 535.081 479.674   5
  13   6  -4 55.9952 205.280   2
  13   6  -4 2.80286 396.145   5
  13   6  -3 405.651 474.873   5
  13   6  -2-179.764 290.802   5
  13   6  -1-49.4823 303.051   5
  13   6   0 331.244 452.453   5
  13   6   1 42.2918 174.498   5
  13   6   2 327.192 365.382   5
  13   6   3 308.333 374.970   5
  13   6   4 523.051 452.522   5
  13   6   5 133.678 131.532   5
  13   6   6-36.7753 165.014   5
  13   7 -18 1.06534 149.087   5
  13   7 -17 105.063 479.818   5
 -13  -7  16-1.07536 117.799   7
  13   7 -16-1.03688 103.897   5
 -13  -7  15 228.154 313.978   7
  13   7 -15 29.7072 163.614   5
 -13  -7  14-754.436 554.039   7
  13   7 -14-90.1033 230.923   5
 -13  -7  13 280.550 338.096   7
  13   7 -13 262.635 264.715   5
  13   7 -13 587.746 484.292   2
 -13  -7  12 524.337 544.557   7
  13   7 -12 348.788 269.399   5
  13   7 -12 339.663 367.190   2
  13   7 -11 5.91775 268.689   5
  13   7 -11 99.4621 112.903   2
 -13  -7  10 1439.36 731.038   7
  13   7 -10 1927.87 791.931   5
  13   7 -10 1375.40 705.126   2
 -13  -7   9-594.793 444.613   7
  13   7  -9 184.325 258.473   5
  13   7  -9-241.570 299.148   2
  13   7  -8-98.7973 202.757   2
 -13  -7   8 1221.89 649.540   7
  13   7  -8 1143.05 757.714   5
  13   7  -7 454.248 442.671   2
  13   7  -7-527.612 466.913   5
  13   7  -6 1096.42 619.465   2
  13   7  -6 860.602 648.280   5
  13   7  -5-0.81659 223.133   2
  13   7  -5-470.728 445.287   5
  13   7  -4-172.084 387.383   5
  13   7  -3 788.747 686.223   5
  13   7  -2 2729.40 1038.37   5
  13   7  -1 1087.07 653.236   5
  13   7   0 578.007 542.256   5
  13   7   1-724.028 547.958   5
  13   7   2-392.909 407.773   5
  13   7   3 1115.93 702.738   5
  13   7   4 365.362 437.244   5
 -13  -8  15 289.824 436.896   7
  13   8 -15 169.780 404.545   5
 -13  -8  14-140.862 260.652   7
  13   8 -14 329.219 380.185   5
  13   8 -14 251.111 372.874   2
 -13  -8  13 356.653 434.620   7
  13   8 -13 285.393 244.130   5
  13   8 -13-263.159 329.305   2
 -13  -8  12 631.101 598.778   7
  13   8 -12-636.762 529.546   5
  13   8 -12-69.7981 177.345   2
 -13  -8  11 249.828 317.392   7
  13   8 -11 135.064 389.089   5
  13   8 -11-22.5485 123.007   2
 -13  -8  10-171.889 260.669   7
  13   8 -10 91.8421 217.325   5
  13   8 -10-202.398 275.020   2
  13   8  -9 21.3256 113.647   2
  13   8  -9 1254.20 752.754   5
  13   8  -8 193.756 373.840   2
  13   8  -8 322.095 325.895   5
  13   8  -7-659.193 469.146   2
  13   8  -7 93.9735 233.122   5
  13   8  -6 327.200 382.147   2
  13   8  -6 8.17380 146.900   5
  13   8  -5-75.7132 503.970   5
  13   8  -4 641.415 618.045   5
  13   8  -3 18.4702 175.584   5
  13   8  -2 422.452 427.370   5
  13   8  -1 212.603 347.080   5
  13   8   0 470.273 454.950   5
  13   8   1 128.370 252.299   5
  13   8   2 745.996 674.462   5
 -13  -9  14 301.384 163.839   7
 -13  -9  13-1.03172 259.767   7
 -13  -9  12-592.175 494.428   7
  13   9 -12 946.061 751.353   5
 -13  -9  11 817.478 558.643   7
  13   9 -11 1119.58 658.888   5
  13   9 -10 573.572 571.716   5
  13   9  -9 195.389 212.063   5
  13   9  -8 1199.75 763.456   5
  13   9  -7 841.607 610.183   5
  13   9  -6-37.5065 166.130   5
  13   9  -5-957.251 652.022   5
  13   9  -4 152.260 288.454   5
  13   9  -3 40.7554 179.167   5
  13   9  -2 889.483 633.835   5
  13   9  -1 305.947 307.481   5
 -13 -10  13-562.970 503.646   7
  14 -10  -6-391.384 426.220   2
  14 -10  -5 12.0130 258.843   2
  14 -10  -4 98.0639 223.702   2
  14 -10  -3 36.2687 118.213   2
  14  -9  -7 252.796 578.860   2
  14  -9  -6 160.829 278.153   2
  14  -9  -5-169.120 281.388   2
  14  -9  -4 57.5843 143.112   2
  14  -9  -3 209.245 310.295   2
  14  -9  -2 408.592 466.052   2
  14  -8  -9-92.9765 236.288   2
  14  -8  -8 7.94874 246.074   2
  14  -8  -7-137.755 265.924   2
  14  -8  -6 164.511 333.997   2
  14  -8  -5 390.904 473.203   2
  14  -8  -4 796.959 691.577   2
  14  -8  -3 116.049 284.403   2
  14  -8  -2 259.366 492.242   2
 -14   8   2-210.048 306.516   1
 -14   8   1-129.328 254.654   1
 -14   8   0 246.664 293.867   1
 -14   8  -1-0.97736 290.521   1
 -14   8  -2 34.8768 138.384   1
 -14   8  -3 725.317 579.081   1
 -14   8  -6 353.337 351.956   3
 -14   8  -7 33.5570 136.814   3
 -14   8  -8 1030.03 530.880   3
  14  -7 -10-469.179 481.065   2
  14  -7  -9 219.300 357.678   2
  14  -7  -8-369.651 416.002   2
  14  -7  -7-622.340 527.631   2
  14  -7  -6 547.015 492.743   2
  14  -7  -5 733.019 637.204   2
  14  -7  -4 15.6605 292.766   2
  14  -7  -3 83.6831 205.724   2
  14  -7  -2-422.870 426.423   2
  14  -7  -1 1022.39 721.032   2
 -14   7   1 206.197 373.080   1
 -14   7   0 1116.95 614.412   1
 -14   7  -1 604.292 523.778   1
 -14   7  -2-487.020 437.736   1
 -14   7  -3 160.321 331.644   1
 -14   7  -4 0.93093 369.649   1
 -14   7  -5-476.401 426.117   1
 -14   7  -5-556.914 416.973   3
 -14   7  -6 334.020 367.928   3
 -14   7  -6 1008.77 653.653   1
 -14   7  -7 1131.12 687.803   3
 -14   7  -8 88.7787 445.962   3
 -14   6  13 938.643 653.303   7
  14  -6 -11 102.512 214.363   2
  14  -6 -10-333.562 403.222   2
  14  -6  -9 116.791 193.288   2
  14  -6  -8-1.10659 115.766   2
  14  -6  -7 327.451 268.215   2
  14  -6  -6-145.788 272.150   2
  14  -6  -5 198.427 303.225   2
  14  -6  -4 910.302 707.813   2
  14  -6  -3 210.073 281.460   2
  14  -6  -2 28.8688 124.674   5
  14  -6  -2-80.2167 179.234   2
  14  -6  -1 411.728 531.334   2
 -14   6   1 275.479 410.908   1
 -14   6   0 378.008 482.261   1
 -14   6  -1-45.8106 159.624   1
 -14   6  -2 415.108 471.108   1
 -14   6  -3-1046.01 615.890   1
 -14   6  -4 230.574 296.198   3
 -14   6  -4-355.243 368.433   1
 -14   6  -5 191.068 163.236   3
 -14   6  -5 20.5368 117.912   1
 -14   6  -6 475.829 443.320   1
 -14   6  -6 457.971 317.915   3
 -14   6  -7 61.6436 168.760   3
 -14   6  -7 207.908 353.313   1
 -14   6  -8-0.88490 158.853   1
 -14   6  -8 20.3947 126.027   3
 -14   6  -9 177.754 380.916   3
 -14   5  15 270.279 533.646   7
 -14   5  14 702.564 618.091   7
 -14   5  13 682.425 519.605   7
 -14   5  12 852.764 559.965   7
  14  -5 -11-1025.92 699.350   2
  14  -5 -10-4.58462 326.425   2
  14  -5  -9-191.462 312.223   2
  14  -5  -8 551.077 550.607   2
  14  -5  -7 2.13660 318.455   2
  14  -5  -6-54.5429 181.367   2
  14  -5  -5 972.837 693.377   2
  14  -5  -4 495.952 352.264   2
  14  -5  -3 2.01374 254.936   2
  14  -5  -3 593.314 381.986   5
  14  -5  -2 84.8839 150.002   5
  14  -5  -2 198.643 302.007   2
  14  -5  -1 659.845 401.929   5
  14  -5  -1 168.042 268.635   2
  14  -5   0 737.071 513.637   5
 -14   5   0 83.5018 195.040   1
  14  -5   1 449.666 387.650   5
 -14   5  -1 1.76487 199.031   1
 -14   5  -2-447.675 405.285   1
  14  -5   2-8.75440 125.600   5
 -14   5  -3 16.4828 119.075   1
 -14   5  -3 505.745 345.595   3
 -14   5  -4-153.636 219.868   3
 -14   5  -4-147.976 244.034   1
 -14   5  -5 89.3777 195.831   1
 -14   5  -6 99.4345 331.919   1
 -14   5  -7 627.052 514.570   1
 -14   5  -8 50.8075 153.286   1
 -14   5  -9-0.85522 314.708   1
 -14   4  15-259.214 337.948   7
 -14   4  14-141.585 251.200   7
 -14   4  13 105.778 190.887   7
 -14   4  12 353.219 453.738   7
  14  -4 -11 227.768 347.964   2
  14  -4 -10 1413.53 854.666   2
  14  -4  -9-380.568 422.282   2
  14  -4  -8-156.238 247.516   2
  14  -4  -7-355.441 401.753   2
  14  -4  -6-640.319 522.619   2
  14  -4  -5-21.8820 105.412   5
  14  -4  -5 762.223 585.707   2
  14  -4  -4 531.875 518.122   2
  14  -4  -4 305.289 281.109   5
  14  -4  -3-465.760 447.428   2
  14  -4  -3-11.1436 109.024   5
  14  -4  -2 1048.06 546.290   5
  14  -4  -2 564.349 682.370   2
  14  -4  -1 405.673 277.383   5
  14  -4  -1 864.910 570.555   2
  14  -4   0-312.135 307.145   5
  14  -4   1 149.263 223.833   5
 -14   4  -1-358.984 364.584   1
  14  -4   2 1276.08 627.131   5
 -14   4  -2 373.813 465.523   1
 -14   4  -3 28.4796 189.471   1
  14  -4   3 535.350 327.860   5
  14  -4   4 1123.67 598.935   5
 -14   4  -4 117.614 199.711   1
  14  -4   5 624.565 455.698   5
 -14   4  -5-197.574 267.649   1
 -14   4  -6 475.876 469.826   1
 -14   4  -7 72.7221 98.4868   1
 -14   4  -8 325.364 396.905   1
 -14   3  16-421.684 434.019   7
 -14   3  15 754.916 632.923   7
 -14   3  14 432.395 536.928   7
 -14   3  13 353.885 377.863   7
 -14   3  12 58.3044 201.518   7
  14  -3 -11-281.467 372.056   2
 -14   3  11-181.410 253.613   7
  14  -3 -10-37.8380 171.522   2
  14  -3  -9 631.861 418.174   2
  14  -3  -8 608.873 542.379   2
  14  -3  -7 717.955 600.255   2
  14  -3  -6-287.808 283.906   5
  14  -3  -6 436.972 536.908   2
  14  -3  -5 11.8892 99.1771   5
  14  -3  -5 3.01879 249.561   2
  14  -3  -4 118.219 235.876   2
  14  -3  -4 892.439 462.070   5
  14  -3  -3 126.219 250.451   2
  14  -3  -3-8.25664 181.435   5
  14  -3  -2 696.077 449.493   5
  14  -3  -2 663.376 639.400   2
  14  -3  -1 76.9697 340.749   5
  14  -3  -1 774.087 646.079   2
  14  -3   0 270.421 339.370   5
  14  -3   1-570.860 423.845   5
 -14   3  -1-534.546 427.705   1
  14  -3   2-17.4420 219.278   5
 -14   3  -2 238.991 307.020   1
 -14   3  -3 370.917 395.025   1
  14  -3   3 717.194 531.649   5
  14  -3   4 224.748 307.745   5
 -14   3  -4 524.090 523.794   1
  14  -3   5 1239.65 624.235   5
 -14   3  -5-292.116 315.398   1
 -14   3  -6 14.1200 225.663   1
  14  -3   6 7.58785 213.237   5
  14  -3   7 1280.90 753.306   5
 -14   3  -7 649.324 530.642   1
 -14   3  -8-559.140 417.280   1
 -14   3 -10 10.8253 93.5356   6
 -14   2  16 645.356 618.246   7
 -14   2  15 307.834 357.748   7
 -14   2  14 560.847 373.188   7
 -14   2  13 299.961 338.295   7
 -14   2  12-375.632 361.726   7
  14  -2 -11 411.387 448.697   2
 -14   2  11-532.414 414.176   7
  14  -2 -10 1349.28 815.095   2
  14  -2  -9-256.472 347.933   2
  14  -2  -8 110.575 187.162   5
  14  -2  -8-231.790 385.853   2
  14  -2  -7 679.699 431.030   5
  14  -2  -7 476.720 419.320   2
  14  -2  -6-19.2080 209.608   5
  14  -2  -6 706.003 611.907   2
  14  -2  -5 36.7998 154.902   2
  14  -2  -5-222.021 262.609   5
  14  -2  -4 748.670 454.316   2
  14  -2  -4 424.399 353.345   5
  14  -2  -3 1079.39 755.867   2
  14  -2  -3 322.565 422.833   5
  14  -2  -2 1352.34 693.295   5
  14  -2  -2 921.818 612.539   2
  14  -2  -1 0.74561 194.874   5
  14  -2  -1 787.593 577.138   2
  14  -2   0 188.268 151.354   5
  14  -2   1 537.926 465.117   5
 -14   2  -1-120.760 216.608   1
  14  -2   2 173.084 210.429   5
 -14   2  -2 128.399 488.932   1
 -14   2  -3 654.496 514.622   1
  14  -2   3-108.982 217.068   5
  14  -2   4 436.667 522.546   5
 -14   2  -4-283.594 301.721   1
  14  -2   5 23.3111 124.096   5
 -14   2  -5-221.701 272.198   1
 -14   2  -6-219.170 241.941   6
 -14   2  -6-258.319 284.966   1
  14  -2   6 525.745 536.589   5
 -14   2  -7-276.345 277.650   6
  14  -2   7-116.700 220.205   5
 -14   2  -7 31.2445 120.606   1
 -14   2  -8 19.8496 166.111   1
 -14   2  -8 503.974 373.132   6
 -14   2  -9 762.990 435.438   6
 -14   2 -10-0.74978 267.828   6
 -14   2 -11 385.025 355.753   6
 -14   1  16 39.3626 152.599   7
 -14   1  15-600.858 492.457   7
 -14   1  14 308.668 349.584   7
 -14   1  13 768.251 546.915   7
 -14   1  12 2278.06 857.763   7
  14  -1 -11-98.7557 117.509   2
 -14   1  11 32.8035 129.621   7
  14  -1 -10 1081.83 695.169   2
  14  -1  -9 2515.95 807.038   5
  14  -1  -9 2611.41 1031.47   2
  14  -1  -8 3650.06 1029.55   5
  14  -1  -8 3018.42 1138.77   2
  14  -1  -7 829.916 596.297   5
  14  -1  -7 470.458 314.451   2
  14  -1  -6 10.1215 207.440   5
  14  -1  -6-180.515 338.957   2
  14  -1  -5-393.513 405.496   2
  14  -1  -5 232.807 271.796   5
  14  -1  -4 531.895 425.524   2
  14  -1  -4-465.398 383.427   5
  14  -1  -3-338.438 273.599   2
  14  -1  -3 191.246 194.308   5
  14  -1  -2 999.774 545.984   5
  14  -1  -2 232.795 340.923   2
  14  -1  -1-110.528 235.440   5
  14  -1   0 1922.42 774.026   5
  14  -1   1 1002.92 686.734   5
  14  -1   2 280.891 296.005   5
 -14   1  -2 178.506 347.343   1
 -14   1  -3 247.675 366.161   1
  14  -1   3 139.855 275.138   5
  14  -1   4-14.3037 250.782   5
 -14   1  -4 276.844 263.903   1
  14  -1   5 73.5153 263.939   5
 -14   1  -5 339.237 385.558   1
 -14   1  -6-334.368 312.549   1
  14  -1   6-820.580 542.599   5
 -14   1  -7-313.420 302.377   6
  14  -1   7-78.7751 160.436   5
 -14   1  -8 141.144 195.570   6
 -14   1  -9-335.942 325.847   6
 -14   1 -10-821.703 511.017   6
 -14   0  17 86.7629 217.604   7
 -14   0  16 382.060 329.500   7
 -14   0  15-91.0129 206.396   7
 -14   0  14-314.981 355.914   7
 -14   0  13-834.586 545.495   7
 -14   0  12 803.396 566.147   7
  14   0 -11 208.578 363.215   5
 -14   0  11 53.9312 206.526   7
  14   0 -11 575.569 565.416   2
  14   0 -10 419.728 382.033   5
  14   0 -10-42.8498 166.963   2
  14   0  -9 184.438 302.425   5
  14   0  -9 620.214 537.131   2
  14   0  -8 133.070 136.297   5
  14   0  -8 389.162 429.168   2
  14   0  -7 95.6623 323.737   5
  14   0  -7 333.025 379.471   2
  14   0  -6 526.637 384.154   5
  14   0  -6 881.993 541.731   2
  14   0  -5-701.504 533.079   2
  14   0  -5 314.374 435.432   5
  14   0  -4 1645.79 859.157   2
  14   0  -4 930.994 516.318   5
  14   0  -3 219.708 352.184   2
  14   0  -3 232.775 278.568   5
  14   0  -2 1059.52 613.890   5
  14   0  -2 2609.04 1084.81   2
  14   0  -1 295.660 335.125   5
  14   0   0 1135.30 663.066   5
  14   0   1 274.354 272.321   5
  14   0   2-167.549 262.287   5
 -14   0  -2-110.380 194.992   1
 -14   0  -3-725.653 458.004   1
  14   0   3 151.917 246.318   5
  14   0   4 1039.26 641.665   5
 -14   0  -4 159.058 218.270   1
  14   0   5 1243.26 742.816   5
 -14   0  -5-8.19876 86.0965   1
  14   0   6 251.508 352.195   5
  14   0   7 1263.66 755.393   5
 -14   0  -9-260.548 295.825   6
 -14   0 -10 212.760 298.539   6
 -14  -1  17-1725.87 868.661   7
 -14  -1  16 568.211 555.214   7
 -14  -1  15 0.98032 224.464   7
 -14  -1  14-530.036 451.890   7
 -14  -1  13 611.279 426.343   7
  14   1 -12 319.455 384.428   5
 -14  -1  12 278.959 313.408   7
  14   1 -11 442.532 429.365   5
 -14  -1  11-14.8494 131.752   7
  14   1 -11-267.701 356.227   2
  14   1 -10-29.2309 134.136   5
 -14  -1  10-293.596 302.530   7
  14   1 -10 3.17345 105.729   2
  14   1  -9 365.579 344.101   5
  14   1  -9 268.752 305.631   2
  14   1  -8 1526.35 700.809   5
  14   1  -8 3124.01 1189.89   2
  14   1  -7 381.842 322.682   5
  14   1  -7 902.300 602.249   2
  14   1  -6 746.111 506.036   5
  14   1  -6 1088.27 615.542   2
  14   1  -5 511.963 511.424   2
  14   1  -5 562.554 529.092   5
  14   1  -4 394.036 290.162   2
  14   1  -4 584.698 458.656   5
  14   1  -3 283.102 168.146   2
  14   1  -3-80.4153 189.877   5
  14   1  -2 427.498 370.481   5
  14   1  -2 208.897 269.953   2
  14   1  -1 331.904 340.362   5
  14   1   0 1788.89 831.397   5
  14   1   1 2902.64 1020.40   5
  14   1   2 36.4224 154.986   5
 -14  -1  -2 481.316 370.411   1
 -14  -1  -3 255.943 324.241   1
  14   1   3-53.7150 141.115   5
  14   1   4 19.6303 250.396   5
  14   1   5 416.545 442.031   5
  14   1   6-299.310 355.668   5
  14   1   7 543.079 473.114   5
 -14  -2  17-1.08685 101.509   7
 -14  -2  16-8.26999 107.743   7
 -14  -2  15 81.5179 204.552   7
 -14  -2  14-403.191 395.770   7
 -14  -2  13-504.447 426.738   7
  14   2 -13 164.230 124.815   5
 -14  -2  12-868.537 540.956   7
  14   2 -12-343.009 348.423   5
  14   2 -12-808.532 601.743   2
 -14  -2  11-44.7300 141.296   7
  14   2 -11 304.196 255.204   5
  14   2 -11 524.380 570.839   2
 -14  -2  10-186.933 225.114   7
  14   2 -10 53.0762 129.283   5
  14   2 -10 311.525 696.775   2
  14   2  -9-314.744 338.425   5
  14   2  -9-472.389 447.090   2
  14   2  -8 514.084 502.627   5
  14   2  -8 274.084 267.333   2
  14   2  -7 201.410 161.525   5
  14   2  -7 232.952 338.002   2
  14   2  -6-217.337 305.549   2
  14   2  -6 1355.82 716.828   5
  14   2  -5 127.282 324.071   2
  14   2  -5-336.992 468.405   5
  14   2  -4 616.354 495.106   2
  14   2  -4-226.077 271.729   5
  14   2  -3-150.273 260.348   2
  14   2  -3-511.253 434.372   5
  14   2  -2 64.9903 528.226   5
  14   2  -1 1509.51 813.508   5
  14   2   0 433.002 355.184   5
  14   2   1 352.510 540.265   5
  14   2   2-391.566 315.606   5
  14   2   3 87.1751 124.891   5
  14   2   4 527.302 444.446   5
  14   2   5-342.250 394.733   5
  14   2   6-1299.61 710.634   5
 -14  -3  17 51.2394 272.463   7
 -14  -3  16 123.475 278.068   7
 -14  -3  15 42.3925 159.001   7
 -14  -3  14 642.886 537.439   7
  14   3 -14 285.677 369.714   5
 -14  -3  13-119.826 223.725   7
  14   3 -13 424.343 454.626   5
 -14  -3  12-121.242 220.284   7
  14   3 -12 105.832 152.829   5
  14   3 -12 44.5699 348.858   2
 -14  -3  11 484.599 400.936   7
  14   3 -11 409.578 348.083   5
  14   3 -11 865.963 689.872   2
 -14  -3  10 1466.00 671.316   7
  14   3 -10 658.102 605.701   5
  14   3 -10 321.047 336.831   2
  14   3  -9 531.341 472.828   5
  14   3  -9 1007.49 690.107   2
  14   3  -8-489.306 424.484   5
  14   3  -8 270.863 520.958   2
  14   3  -7 59.8369 183.019   5
  14   3  -7-256.469 331.436   2
  14   3  -6 714.364 527.640   2
  14   3  -6 2135.00 837.789   5
  14   3  -5 425.176 120.953   2
  14   3  -5 1085.71 668.257   5
  14   3  -4 400.667 393.245   2
  14   3  -4 179.597 327.353   5
  14   3  -3 348.859 189.390   5
  14   3  -3 1028.39 653.286   2
  14   3  -2-124.789 250.102   5
  14   3  -1-65.4337 201.534   5
  14   3   0 1193.87 665.238   5
  14   3   1 2425.79 997.628   5
  14   3   2 143.931 319.606   5
  14   3   3-653.714 506.204   5
  14   3   4-76.1313 213.062   5
  14   3   5 616.147 545.110   5
 -14  -4  16-668.324 535.246   7
  14   4 -16-369.333 385.703   5
 -14  -4  15 623.179 350.531   7
  14   4 -15-472.456 431.173   5
 -14  -4  14-886.133 581.737   7
  14   4 -14-291.080 345.524   5
 -14  -4  13-95.8486 210.613   7
  14   4 -13-490.232 475.239   2
  14   4 -13 396.098 419.930   5
 -14  -4  12-539.093 434.291   7
  14   4 -12 185.946 279.929   5
  14   4 -12 353.521 392.158   2
 -14  -4  11 13.0735 114.534   7
  14   4 -11 7.34745 121.822   5
  14   4 -11-1.04656 107.735   2
 -14  -4  10 455.934 472.984   7
  14   4 -10 135.819 245.200   5
  14   4 -10 398.549 415.076   2
  14   4  -9 302.775 320.709   5
  14   4  -9-143.080 257.278   2
  14   4  -8 111.822 269.577   5
  14   4  -8 251.217 369.798   2
  14   4  -7-265.394 151.508   2
  14   4  -7 80.9202 211.563   5
  14   4  -6 936.267 583.859   2
  14   4  -6 1006.95 569.584   5
  14   4  -5 493.326 495.024   2
  14   4  -5 491.081 439.881   5
  14   4  -4 1681.08 812.402   2
  14   4  -4 1366.00 695.926   5
  14   4  -3 869.948 560.312   5
  14   4  -2 357.548 239.063   5
  14   4  -1 414.652 515.028   5
  14   4   0-394.808 399.834   5
  14   4   1-416.947 414.389   5
  14   4   2 376.861 492.696   5
  14   4   3 167.560 150.823   5
  14   4   4-91.6192 240.130   5
 -14  -5  16 1003.32 737.939   7
  14   5 -16 707.562 528.244   5
 -14  -5  15-659.834 525.620   7
  14   5 -15 927.038 658.208   5
 -14  -5  14 1599.27 839.707   7
  14   5 -14 701.092 603.177   5
 -14  -5  13 736.839 527.937   7
  14   5 -13 771.177 588.090   5
  14   5 -13 204.203 533.616   2
 -14  -5  12-0.88585 287.723   7
  14   5 -12 423.704 481.352   5
  14   5 -12-532.930 482.015   2
 -14  -5  11-167.402 252.632   7
  14   5 -11-147.552 260.630   5
  14   5 -11 47.5244 207.030   2
 -14  -5  10 332.366 378.712   7
  14   5 -10 188.696 338.833   5
  14   5 -10 950.862 665.168   2
  14   5  -9 351.949 393.281   5
  14   5  -9 814.749 610.952   2
  14   5  -8 220.204 309.862   5
  14   5  -8 321.529 413.187   2
  14   5  -7-144.258 215.244   2
  14   5  -7 1537.35 769.577   5
  14   5  -6 138.430 305.740   2
  14   5  -6-687.484 526.944   5
  14   5  -5 362.740 415.099   2
  14   5  -5 686.343 535.278   5
  14   5  -4 279.960 347.791   5
  14   5  -4 872.062 672.677   2
  14   5  -3 2435.27 979.673   5
  14   5  -2 199.737 256.635   5
  14   5  -1-297.101 366.166   5
  14   5   0-344.676 386.615   5
  14   5   1 698.862 481.494   5
  14   5   2 152.957 375.801   5
  14   5   3-368.833 400.638   5
  14   6 -17-455.149 450.212   5
  14   6 -16-469.488 454.360   5
 -14  -6  15 532.205 440.715   7
  14   6 -15 66.4583 163.517   5
 -14  -6  14 281.183 322.905   7
  14   6 -14 342.845 380.031   5
  14   6 -14-15.5389 138.062   2
 -14  -6  13 223.304 304.601   7
  14   6 -13 288.066 511.662   5
  14   6 -13 75.3624 204.731   2
 -14  -6  12-751.597 528.240   7
  14   6 -12 618.849 461.365   5
  14   6 -12 338.702 386.787   2
 -14  -6  11 237.340 298.222   7
  14   6 -11-316.762 374.588   5
  14   6 -11 396.118 376.509   2
 -14  -6  10 735.469 516.504   7
  14   6 -10 138.299 147.710   5
  14   6 -10 240.168 439.414   2
  14   6  -9 153.230 387.448   5
  14   6  -9-84.0857 201.031   2
  14   6  -8 269.419 327.222   2
  14   6  -8 976.072 630.529   5
  14   6  -7 728.422 574.055   2
  14   6  -7 386.951 575.560   5
  14   6  -6-861.317 566.511   2
  14   6  -6 319.317 377.859   5
  14   6  -5 166.838 279.804   2
  14   6  -5 2.01919 394.083   5
  14   6  -4-71.0943 181.497   5
  14   6  -3 631.509 590.775   5
  14   6  -2 243.774 258.969   5
  14   6  -1 75.1638 351.087   5
  14   6   0 136.637 254.153   5
  14   6   1-360.115 400.271   5
 -14  -7  15 1.07644 579.056   7
  14   7 -15 7.89773 391.449   2
 -14  -7  14 1483.06 891.959   7
  14   7 -14 2244.30 1079.56   5
  14   7 -14 2877.39 1214.42   2
 -14  -7  13 1627.51 854.915   7
  14   7 -13 1862.04 925.941   5
  14   7 -13 1838.47 955.579   2
 -14  -7  12 60.7790 180.212   7
  14   7 -12 66.1920 203.090   5
  14   7 -12 142.616 260.946   2
 -14  -7  11 433.314 459.417   7
  14   7 -11 322.609 368.124   2
 -14  -7  10-85.6481 230.285   7
  14   7 -10-79.3937 220.147   5
  14   7 -10 269.083 367.220   2
  14   7  -9-335.443 362.977   2
  14   7  -9 17.9597 143.392   5
  14   7  -8 1623.06 855.115   2
  14   7  -8 2566.00 1066.20   5
  14   7  -7 1038.77 711.239   2
  14   7  -7 846.311 603.169   5
  14   7  -6 411.247 460.487   2
  14   7  -6 114.870 500.590   5
  14   7  -5 540.828 493.747   5
  14   7  -4 1120.60 764.265   5
  14   7  -3 190.549 476.018   5
  14   7  -2-27.7627 157.286   5
  14   7  -1-129.687 253.727   5
 -14  -8  14 817.689 602.771   7
 -14  -8  13 134.642 262.660   7
 -14  -8  12-379.995 399.737   7
 -14  -8  11 459.522 449.709   7
 -14  -8  10-563.754 460.594   7
  14   8  -9 316.761 237.742   5
  14   8  -8-15.4769 265.988   5
  14   8  -7 287.254 459.408   5
  14   8  -6 409.518 647.000   5
 -14  -9  13 458.239 454.582   7
 -14  -9  12 470.731 503.833   7
  15  -7  -4 435.067 508.933   2
  15  -7  -3 745.796 739.812   2
  15  -7  -2-168.159 237.376   2
  15  -6  -6 269.616 423.694   2
  15  -6  -5 856.329 663.320   2
  15  -6  -4-950.229 654.201   2
  15  -6  -3-566.412 507.852   2
  15  -6  -2-1.10845 498.785   2
 -15   6   1 559.584 441.277   1
 -15   6   0-634.736 508.981   1
 -15   6  -1 78.3275 236.190   1
 -15   6  -2-713.123 535.042   1
 -15   6  -6 0.85164 162.078   3
  15  -5  -8-332.064 408.057   2
  15  -5  -7-40.5774 177.162   2
  15  -5  -6 143.273 245.542   2
  15  -5  -5 189.751 217.902   2
  15  -5  -4 31.1115 159.430   2
  15  -5  -3 217.093 224.717   2
  15  -5  -2-134.003 208.616   5
  15  -5  -2-255.877 349.245   2
  15  -5  -1 59.8333 227.077   5
 -15   5   1-762.319 550.817   1
  15  -5   0 1147.60 620.087   5
 -15   5   0 588.697 589.980   1
  15  -5   1 1299.96 704.444   5
 -15   5  -1-91.0002 206.515   1
  15  -5   2 391.047 478.696   5
 -15   5  -2-3.80172 265.671   1
 -15   5  -3 447.392 416.280   1
 -15   5  -4 100.360 294.398   1
 -15   5  -5-891.225 540.516   3
 -15   5  -5 97.3771 336.793   1
 -15   5  -6-206.535 276.713   3
  15  -4  -9 835.269 655.625   2
  15  -4  -8 507.183 537.356   2
  15  -4  -7 153.324 486.084   2
  15  -4  -6 155.355 287.856   2
  15  -4  -5-176.338 293.763   2
  15  -4  -4 251.462 345.098   2
  15  -4  -4-105.159 186.793   5
  15  -4  -3-621.419 429.331   5
  15  -4  -3 648.365 444.452   2
  15  -4  -2 711.080 543.271   5
  15  -4  -2 48.8970 180.631   2
  15  -4  -1-4.50828 96.5240   5
  15  -4   0 421.627 410.386   5
 -15   4   0-34.4705 143.666   1
  15  -4   1 77.5511 328.561   5
 -15   4  -1 102.590 356.886   1
 -15   4  -2 261.470 377.409   1
  15  -4   2 159.251 176.764   5
  15  -4   3 913.014 554.162   5
 -15   4  -3-311.537 348.784   1
  15  -4   4 1048.40 664.667   5
 -15   4  -4 383.650 393.898   1
 -15   4  -5 359.455 481.089   1
 -15   4  -6-357.667 361.601   1
 -15   4  -7 91.2861 415.854   1
  15  -3 -10 264.627 432.969   2
  15  -3  -9 73.9851 347.611   2
  15  -3  -8 305.032 473.940   2
  15  -3  -7 899.468 712.108   2
  15  -3  -6-606.154 529.603   2
  15  -3  -5-450.540 451.453   2
  15  -3  -5 131.050 201.971   5
  15  -3  -4 523.429 485.563   2
  15  -3  -4 270.170 342.457   5
  15  -3  -3-326.348 326.201   5
  15  -3  -3 3.23483 94.1046   2
  15  -3  -2 37.5680 194.204   5
  15  -3  -2 527.191 481.753   2
  15  -3  -1 464.815 491.670   5
  15  -3   0 775.872 533.787   5
 -15   3   0-220.906 295.992   1
  15  -3   1-368.811 357.582   5
 -15   3  -1 282.933 302.454   1
 -15   3  -2-0.88453 112.008   1
  15  -3   2 59.7924 424.441   5
  15  -3   3 460.813 349.772   5
 -15   3  -3 663.779 461.118   1
  15  -3   4-125.325 270.096   5
 -15   3  -4 150.519 335.037   1
  15  -3   5 287.143 334.078   5
 -15   3  -5 548.345 438.440   1
 -15   3  -6 59.3330 381.696   1
 -15   3  -7 625.391 460.304   1
  15  -2 -10-219.744 332.652   2
  15  -2  -9-34.7977 298.642   2
  15  -2  -8 26.1562 117.776   2
  15  -2  -7-191.576 251.231   5
  15  -2  -7 60.3070 202.925   2
  15  -2  -6-263.201 353.750   2
  15  -2  -6 593.453 529.343   5
  15  -2  -5 82.4140 375.420   2
  15  -2  -5-570.155 193.676   5
  15  -2  -4 648.558 468.407   2
  15  -2  -4 289.814 193.352   5
  15  -2  -3 522.442 578.525   5
  15  -2  -3 782.755 645.836   2
  15  -2  -2-391.259 367.462   5
  15  -2  -2 1094.09 800.258   2
  15  -2  -1 149.597 328.136   5
  15  -2   0 407.426 380.797   5
  15  -2   1 1012.89 623.060   5
 -15   2  -1 219.563 436.831   1
  15  -2   2 375.767 387.273   5
 -15   2  -2 0.85325 212.753   1
 -15   2  -3-478.976 406.920   1
  15  -2   3-184.059 274.971   5
  15  -2   4 181.451 373.927   5
 -15   2  -4 116.732 245.735   1
  15  -2   5 198.909 286.236   5
 -15   2  -5 237.700 350.558   1
 -15   2  -6-466.608 391.314   1
 -15   1  15-452.766 437.490   7
 -15   1  14 507.440 513.138   7
  15  -1 -11 1746.84 915.773   2
  15  -1 -10 402.623 116.627   2
  15  -1  -9 6.87930 262.853   2
  15  -1  -8-330.659 329.787   5
  15  -1  -8 751.145 612.533   2
  15  -1  -7 664.399 331.091   5
  15  -1  -7 826.165 570.120   2
  15  -1  -6-321.239 384.336   2
  15  -1  -6-123.193 217.356   5
  15  -1  -5 156.421 189.153   2
  15  -1  -5-541.430 427.102   5
  15  -1  -4 572.407 489.225   2
  15  -1  -4 133.951 232.372   5
  15  -1  -3 109.805 208.796   5
  15  -1  -3 396.331 420.573   2
  15  -1  -2 522.742 432.956   5
  15  -1  -2 395.875 368.545   2
  15  -1  -1 217.084 429.066   5
  15  -1   0 349.951 362.552   5
  15  -1   1 985.914 603.934   5
 -15   1  -1-178.099 256.644   1
  15  -1   2-296.966 346.755   5
 -15   1  -2 40.9717 138.890   1
 -15   1  -3 209.446 266.291   1
  15  -1   3-319.615 349.633   5
  15  -1   4 307.587 350.741   5
 -15   1  -4 58.6230 272.105   1
 -15   1  -5 84.1938 272.035   1
 -15   0  15 335.399 433.363   7
 -15   0  14-0.97132 337.056   7
  15   0 -11 388.711 524.059   2
  15   0 -10-437.972 385.072   5
  15   0 -10-157.397 295.688   2
  15   0  -9 90.5261 192.821   5
  15   0  -9-165.070 290.342   2
  15   0  -8 389.571 403.122   5
  15   0  -8 230.797 332.214   2
  15   0  -7 133.336 232.538   5
  15   0  -7-147.222 276.715   2
  15   0  -6-767.289 580.821   2
  15   0  -6 512.065 496.395   5
  15   0  -5 597.747 582.806   2
  15   0  -5 651.447 540.997   5
  15   0  -4-221.965 321.965   2
  15   0  -4 1096.76 651.420   5
  15   0  -3 176.784 255.484   5
  15   0  -3 574.636 553.017   2
  15   0  -2-120.535 236.783   5
  15   0  -1 330.041 351.163   5
  15   0   0 357.335 422.732   5
  15   0   1 51.4832 186.723   5
 -15   0  -1 0.79614 181.887   1
  15   0   2 370.903 322.190   5
 -15   0  -2 129.660 293.129   1
 -15   0  -3 141.817 273.441   1
  15   0   3-11.1775 220.077   5
  15   0   4 1075.14 651.732   5
 -15   0  -8-180.382 251.598   6
 -15  -1  16-59.2018 185.197   7
 -15  -1  15 314.777 431.867   7
 -15  -1  14 22.2823 139.792   7
  15   1 -12-157.680 293.685   2
  15   1 -11 138.818 227.862   5
  15   1 -11-1.17438 240.021   2
  15   1 -10 2632.96 990.331   5
  15   1 -10 1326.33 880.219   2
  15   1  -9 1308.45 613.983   5
  15   1  -9 686.115 560.998   2
  15   1  -8 142.011 265.380   5
  15   1  -8-409.833 439.709   2
  15   1  -7-653.874 485.804   5
  15   1  -7 579.677 450.137   2
  15   1  -6 205.843 324.107   2
  15   1  -6 63.8402 259.342   5
  15   1  -5 174.365 256.638   2
  15   1  -5-543.811 449.454   5
  15   1  -4 318.981 294.293   2
  15   1  -4 466.531 419.772   5
  15   1  -3-124.301 179.286   5
  15   1  -3 226.667 310.350   2
  15   1  -2 69.2183 187.157   5
  15   1  -1 1590.62 799.565   5
  15   1   0 219.891 497.221   5
  15   1   1 1561.79 748.112   5
 -15  -1  -1 409.369 429.798   1
  15   1   2 663.940 511.692   5
  15   1   3 1366.33 724.341   5
 -15  -2  16-1.07545 270.369   7
 -15  -2  15 544.494 476.590   7
 -15  -2  14 266.274 158.568   7
  15   2 -12-156.118 250.501   5
  15   2 -12 237.872 639.830   2
  15   2 -11 357.262 373.635   5
  15   2 -11-55.6484 184.854   2
  15   2 -10 139.812 392.426   5
  15   2 -10 417.177 444.019   2
  15   2  -9 15.3899 123.055   5
  15   2  -9-167.163 297.325   2
  15   2  -8-190.964 285.500   5
  15   2  -8-64.9709 193.296   2
  15   2  -7 181.103 350.606   2
  15   2  -7-783.974 544.199   5
  15   2  -6-904.286 622.395   2
  15   2  -6 299.312 443.043   5
  15   2  -5 1828.97 899.589   2
  15   2  -5 2273.67 950.474   5
  15   2  -4-508.548 467.883   2
  15   2  -4 901.847 614.093   5
  15   2  -3-699.569 518.025   5
  15   2  -3 445.572 433.992   2
  15   2  -2 854.240 603.832   5
  15   2  -1 1135.76 626.151   5
  15   2   0 182.909 283.195   5
  15   2   1 983.033 754.189   5
  15   2   2 152.508 272.548   5
 -15  -3  15-383.385 405.931   7
 -15  -3  14-109.229 226.545   7
  15   3 -14 204.730 301.146   5
 -15  -3  13 480.634 535.949   7
  15   3 -13 43.5045 202.418   5
  15   3 -12-56.6910 183.861   5
  15   3 -12-462.048 474.114   2
  15   3 -11-129.512 245.135   5
  15   3 -11 293.002 624.155   2
  15   3 -10-814.347 565.008   5
  15   3 -10-29.0255 148.840   2
  15   3  -9 910.126 696.797   5
  15   3  -9 769.037 656.416   2
  15   3  -8-224.651 309.189   5
  15   3  -8 25.6936 131.273   2
  15   3  -7 75.8503 201.969   2
  15   3  -7 419.252 368.183   5
  15   3  -6-110.214 234.498   2
  15   3  -6-265.404 334.107   5
  15   3  -5 476.566 453.170   2
  15   3  -5-425.933 357.046   5
  15   3  -4-789.390 561.719   5
  15   3  -4-487.146 456.037   2
  15   3  -3 197.372 176.263   5
  15   3  -2 982.691 678.923   5
  15   3  -1 771.524 516.195   5
  15   3   0 877.505 595.524   5
  15   3   1 400.694 594.945   5
 -15  -4  15 370.034 397.498   7
 -15  -4  14 24.7659 139.720   7
  15   4 -14-650.630 516.229   5
 -15  -4  13 21.6798 301.918   7
  15   4 -13-462.538 440.793   5
  15   4 -13 394.842 699.879   2
  15   4 -12 2037.37 922.158   5
  15   4 -12-362.154 422.442   2
  15   4 -11-159.792 278.348   5
  15   4 -11-496.019 480.160   2
  15   4 -10 319.490 235.644   5
  15   4 -10 438.413 446.772   2
  15   4  -9 240.068 323.811   5
  15   4  -9 232.879 321.884   2
  15   4  -8-236.082 324.982   2
  15   4  -8 668.796 590.259   5
  15   4  -7-494.830 460.251   2
  15   4  -7 193.379 365.352   5
  15   4  -6 335.592 437.133   2
  15   4  -6 249.309 332.146   5
  15   4  -5 140.965 252.278   2
  15   4  -5 570.831 587.098   5
  15   4  -4-174.805 409.143   5
  15   4  -4 619.666 595.893   2
  15   4  -3 243.399 424.470   5
  15   4  -2 212.772 316.855   5
  15   4  -1 826.656 654.539   5
  15   4   0-919.106 621.732   5
 -15  -5  15 495.863 462.513   7
  15   5 -15-722.182 560.942   5
 -15  -5  14 437.727 521.352   7
  15   5 -14-436.256 442.569   5
 -15  -5  13 1453.90 764.917   7
  15   5 -13-1.04747 737.396   5
  15   5 -13 823.749 814.063   2
  15   5 -12 263.220 491.269   5
  15   5 -12 498.903 642.935   2
  15   5 -11-284.643 367.947   5
  15   5 -11 561.158 504.839   2
  15   5 -10-309.560 373.236   5
  15   5 -10 211.000 317.103   2
  15   5  -9 1289.74 689.696   5
  15   5  -9 1133.56 773.431   2
  15   5  -8 572.751 523.444   2
  15   5  -8 975.480 690.335   5
  15   5  -7 193.790 266.979   2
  15   5  -7 310.433 288.335   5
  15   5  -6-670.653 526.148   2
  15   5  -6 21.9811 415.668   5
  15   5  -5 252.636 255.790   5
  15   5  -5 279.088 344.628   2
  15   5  -4 418.101 567.635   5
  15   5  -3 531.220 495.775   5
  15   5  -2 182.704 490.050   5
  15   6 -13 45.1722 307.783   2
  15   6 -12-3.37630 93.1864   2
  15   6 -11 371.257 414.798   2
  15   6 -10-65.4200 210.077   5
  15   6 -10-327.559 381.675   2
  15   6  -9-320.954 373.094   2
  15   6  -9 247.716 496.192   5
  15   6  -8 9.27654 106.714   2
  15   6  -8-160.777 286.188   5
  15   6  -7 505.000 574.254   2
  15   6  -7 780.227 597.571   5
  15   6  -6-196.545 295.940   2
  15   6  -6 131.927 262.804   5
  15   7 -11 21.5821 133.806   2
  15   7 -10-111.506 226.123   2
  15   7  -9 154.043 382.867   2
  15   7  -8 879.993 603.059   2
  15   7  -7 359.229 396.184   2
  16  -5  -1 86.5168 190.656   5
  16  -5   0-412.398 372.419   5
  16  -5   1 170.871 256.580   5
  16  -4  -3 171.917 262.911   5
  16  -4  -2 224.947 282.343   5
  16  -4  -1-112.719 212.216   5
  16  -4   0 175.381 495.702   5
  16  -4   1 274.785 440.344   5
  16  -4   2 404.312 454.715   5
  16  -3  -4 1.61643 156.266   5
  16  -3  -3-245.214 302.702   5
  16  -3  -2-386.229 370.244   5
  16  -3  -1-121.325 226.166   5
  16  -3   0 57.9845 154.442   5
 -16   3   0 0.97457 199.066   1
  16  -3   1 769.012 662.314   5
 -16   3  -1 617.534 590.065   1
 -16   3  -2-379.999 391.355   1
 -16   3  -3 16.8746 109.323   1
  16  -2  -6-595.094 447.548   5
  16  -2  -5 147.903 241.518   5
  16  -2  -4-471.829 407.537   5
  16  -2  -3 91.7754 315.590   5
  16  -2  -2 335.069 354.027   5
  16  -2  -1-130.321 239.812   5
  16  -2   0-485.971 426.978   5
 -16   2   0-192.176 284.341   1
  16  -2   1 509.745 439.167   5
 -16   2  -1-289.790 336.422   1
 -16   2  -2-502.563 435.704   1
 -16   2  -3 0.90082 190.443   1
 -16   2  -4-0.89022 204.272   1
  16  -1  -7-297.809 333.133   5
  16  -1  -6-106.609 224.086   5
  16  -1  -5-510.836 430.214   5
  16  -1  -4 26.3645 290.214   5
  16  -1  -3 283.917 332.098   5
  16  -1  -2 412.934 401.594   5
  16  -1  -1 632.853 651.199   5
  16  -1   0 109.925 228.757   5
 -16   1   0-37.2559 141.213   1
  16  -1   1-251.942 330.312   5
 -16   1  -1 348.144 410.745   1
 -16   1  -2-0.88317 238.576   1
 -16   1  -3-98.5369 195.557   1
  16   0  -9 547.820 407.294   5
  16   0  -8 532.661 507.853   5
  16   0  -7 532.471 551.853   5
  16   0  -6 924.962 583.704   5
  16   0  -5 871.397 646.832   5
  16   0  -4 88.8987 581.902   5
  16   0  -3 473.315 498.112   5
  16   0  -2-266.934 338.294   5
  16   0  -1-216.984 306.586   5
  16   0   0 1530.82 787.907   5
 -16   0   0-197.929 272.525   1
 -16   0  -1 357.276 497.141   1
  16   1 -10 74.8292 255.386   5
  16   1  -9 576.960 541.226   5
  16   1  -8 128.986 244.842   5
  16   1  -7 235.046 420.603   5
  16   1  -6 1348.62 716.558   5
  16   1  -5 524.429 606.266   2
  16   1  -5 300.049 271.645   5
  16   1  -4 938.173 621.066   5
  16   1  -4 144.721 276.443   2
  16   1  -3 182.815 289.075   5
  16   1  -2 313.942 331.749   5
  16   1  -1-729.779 547.421   5
  16   2 -11 1.93990 256.085   5
  16   2 -10 260.841 331.204   5
  16   2  -9-156.440 268.913   5
  16   2  -8-864.916 590.813   5
  16   2  -7-270.603 340.242   5
  16   2  -6 311.192 461.528   2
  16   2  -6-348.554 386.170   5
  16   2  -5-766.104 595.101   2
  16   2  -5 434.478 423.770   5
  16   2  -4 83.7840 166.760   5
  16   2  -4 94.9100 229.430   2
  16   2  -3-34.2646 167.253   5
  16   3 -12 383.741 406.010   5
  16   3 -11-9.16871 160.084   5
  16   3 -10 1361.60 895.255   5
  16   3  -9 443.086 426.225   5
  16   3  -8 709.750 632.251   5
  16   3  -7 413.500 486.434   5
  16   3  -6 839.534 705.276   2
  16   3  -6 375.290 405.607   5
  16   3  -5-56.1965 194.847   5
  16   3  -5 855.401 648.117   2
  16   4  -6 47.1574 214.542   2
  16   4  -5 14.5072 141.566   2
  17  -2  -3 293.715 466.173   5
  17  -1  -5-146.506 251.645   5
  17   0  -6 167.559 125.226   5
   0   0   0    0.00    0.00   0
TITL jingzr_0515 in P-1
REM P-1 (#2 in standard setting)
CELL 0.71073  12.665627  13.843481  19.388067 101.9715  99.4805  91.0897
ZERR   61.00   0.000476   0.000666   0.000870   0.0039   0.0034   0.0034
LATT  1
SFAC C H N O
UNIT 61.00 61.00 61.00 61.00
TREF
HKLF 4
END
;
_shelx_hkl_checksum              31187
_olex2_date_sample_data_collection 2017-05-15
_olex2_submission_special_instructions 'No special instructions were received'
loop_
_space_group_symop_operation_xyz
'x, y, z'
'-x, -y, -z'
loop_
_atom_site_label
_atom_site_type_symbol
_atom_site_fract_x
_atom_site_fract_y
_atom_site_fract_z
_atom_site_U_iso_or_equiv
_atom_site_adp_type
_atom_site_occupancy
_atom_site_site_symmetry_order
_atom_site_calc_flag
_atom_site_refinement_flags_posn
_atom_site_refinement_flags_adp
S1 S 0.69463(11) 1.27566(12) 0.25584(9) 0.0835(5) Uani 1 1 d . .
Si1 Si 0.25207(16) 0.92376(17) 0.17631(11) 0.1118(8) Uani 1 1 d . .
O1 O 0.7108(2) 1.1646(2) 0.4359(2) 0.0763(11) Uani 1 1 d . .
O2 O 0.6744(2) 1.3377(2) 0.57218(18) 0.0621(9) Uani 1 1 d . .
O3 O 0.6113(3) 1.4633(3) 0.6530(2) 0.0789(10) Uani 1 1 d . .
O6 O 0.7655(3) 1.3595(3) 0.2895(2) 0.0977(13) Uani 1 1 d . .
O5 O 0.7377(3) 1.1847(3) 0.2258(3) 0.1129(15) Uani 1 1 d . .
C28 C 0.1797(8) 0.8318(7) 0.2175(5) 0.182(4) Uani 1 1 d . .
H28A H 0.149371 0.867486 0.256860 0.273 Uiso 1 1 calc GR .
H28B H 0.230123 0.787335 0.234319 0.273 Uiso 1 1 calc GR .
H28C H 0.123704 0.794728 0.181888 0.273 Uiso 1 1 calc GR .
C29 C 0.1507(7) 1.0001(8) 0.1356(4) 0.174(4) Uani 1 1 d . .
H29A H 0.105669 0.959343 0.094957 0.262 Uiso 1 1 calc GR .
H29B H 0.186422 1.052026 0.120692 0.262 Uiso 1 1 calc GR .
H29C H 0.107698 1.028543 0.170283 0.262 Uiso 1 1 calc GR .
N1 N 0.6240(3) 1.2507(3) 0.3127(2) 0.0673(11) Uani 1 1 d . .
O4 O 0.3232(3) 1.0039(3) 0.24089(19) 0.0842(11) Uani 1 1 d . .
C1 C 0.4936(3) 1.2636(3) 0.3897(2) 0.0523(11) Uani 1 1 d . .
C2 C 0.5567(3) 1.3251(3) 0.3496(3) 0.0607(13) Uani 1 1 d . .
H2 H 0.504933 1.345778 0.312744 0.073 Uiso 1 1 calc R .
C3 C 0.6169(4) 1.4171(3) 0.3967(3) 0.0682(14) Uani 1 1 d . .
H3A H 0.662259 1.445527 0.369523 0.082 Uiso 1 1 calc R .
H3B H 0.565884 1.465476 0.411072 0.082 Uiso 1 1 calc R .
C4 C 0.6852(4) 1.3957(3) 0.4628(3) 0.0659(14) Uani 1 1 d . .
H4A H 0.737787 1.348671 0.448997 0.079 Uiso 1 1 calc R .
H4B H 0.723207 1.456070 0.491262 0.079 Uiso 1 1 calc R .
C5 C 0.6149(3) 1.3539(3) 0.5061(3) 0.0559(12) Uani 1 1 d . .
H5 H 0.561424 1.402014 0.517806 0.067 Uiso 1 1 calc R .
C6 C 0.5541(3) 1.2542(3) 0.4664(2) 0.0499(11) Uani 1 1 d . .
C7 C 0.6385(3) 1.1755(3) 0.4695(3) 0.0566(12) Uani 1 1 d . .
C8 C 0.6230(4) 1.1165(4) 0.5244(3) 0.0726(15) Uani 1 1 d . .
H8A H 0.688930 1.118742 0.558358 0.087 Uiso 1 1 calc R .
H8B H 0.602950 1.048056 0.501371 0.087 Uiso 1 1 calc R .
C9 C 0.5346(4) 1.1620(4) 0.5627(3) 0.0715(14) Uani 1 1 d . .
H9A H 0.564447 1.203270 0.608923 0.086 Uiso 1 1 calc R .
H9B H 0.486304 1.111007 0.569619 0.086 Uiso 1 1 calc R .
C10 C 0.4765(3) 1.2237(3) 0.5130(3) 0.0613(13) Uani 1 1 d . .
H10A H 0.451211 1.282285 0.541085 0.074 Uiso 1 1 calc R .
H10B H 0.414887 1.185504 0.482476 0.074 Uiso 1 1 calc R .
C11 C 0.4702(4) 1.1657(3) 0.3326(3) 0.0586(12) Uani 1 1 d . .
H11 H 0.412121 1.178662 0.296080 0.070 Uiso 1 1 calc R .
C12 C 0.5687(4) 1.1508(4) 0.2964(3) 0.0788(16) Uani 1 1 d . .
H12A H 0.614707 1.104077 0.315719 0.095 Uiso 1 1 calc R .
H12B H 0.547913 1.126635 0.245146 0.095 Uiso 1 1 calc R .
C13 C 0.6996(4) 1.4226(4) 0.6267(3) 0.0733(15) Uani 1 1 d . .
H13A H 0.749147 1.406172 0.665758 0.088 Uiso 1 1 calc R .
H13B H 0.735808 1.471895 0.608483 0.088 Uiso 1 1 calc R .
C14 C 0.5645(6) 1.4098(5) 0.6953(4) 0.111(2) Uani 1 1 d . .
H14A H 0.521994 1.354095 0.664965 0.166 Uiso 1 1 calc GR .
H14B H 0.519618 1.451717 0.722460 0.166 Uiso 1 1 calc GR .
H14C H 0.619742 1.387037 0.727281 0.166 Uiso 1 1 calc GR .
C15 C 0.6085(5) 1.3112(5) 0.1867(3) 0.0819(17) Uani 1 1 d . .
C16 C 0.5509(7) 1.2416(6) 0.1287(4) 0.118(2) Uani 1 1 d . .
H16 H 0.559270 1.174448 0.126067 0.141 Uiso 1 1 calc R .
C18 C 0.4818(7) 1.2726(9) 0.0754(4) 0.140(3) Uani 1 1 d . .
H18 H 0.443057 1.225802 0.037877 0.168 Uiso 1 1 calc R .
C17 C 0.4698(7) 1.3720(9) 0.0773(5) 0.128(3) Uani 1 1 d . .
C19 C 0.5279(7) 1.4366(6) 0.1320(4) 0.112(2) Uani 1 1 d . .
H19 H 0.522356 1.503794 0.133134 0.134 Uiso 1 1 calc R .
C20 C 0.5941(5) 1.4089(5) 0.1856(3) 0.0921(18) Uani 1 1 d . .
H20 H 0.631073 1.457330 0.222739 0.110 Uiso 1 1 calc R .
C21 C 0.3925(7) 1.4006(9) 0.0168(5) 0.184(4) Uani 1 1 d . .
H21A H 0.322136 1.371948 0.014802 0.276 Uiso 1 1 calc GR .
H21B H 0.416425 1.376453 -0.027842 0.276 Uiso 1 1 calc GR .
H21C H 0.390233 1.471256 0.025149 0.276 Uiso 1 1 calc GR .
C22 C 0.4330(4) 1.0724(3) 0.3542(3) 0.0698(14) Uani 1 1 d . .
H22A H 0.488753 1.056171 0.390072 0.084 Uiso 1 1 calc R .
H22B H 0.369806 1.086153 0.376086 0.084 Uiso 1 1 calc R .
C23 C 0.4069(4) 0.9835(4) 0.2929(3) 0.0801(16) Uani 1 1 d . .
H23A H 0.470096 0.967470 0.271465 0.096 Uiso 1 1 calc R .
H23B H 0.385331 0.926929 0.310681 0.096 Uiso 1 1 calc R .
C24 C 0.3256(7) 0.8538(8) 0.1119(5) 0.145(3) Uani 1 1 d . .
C25 C 0.3987(8) 0.9375(9) 0.0920(6) 0.202(5) Uani 1 1 d . .
H25A H 0.353408 0.983710 0.072744 0.302 Uiso 1 1 calc GR .
H25B H 0.440336 0.906807 0.057172 0.302 Uiso 1 1 calc GR .
H25C H 0.445926 0.971687 0.134383 0.302 Uiso 1 1 calc GR .
C27 C 0.2445(9) 0.7942(8) 0.0458(5) 0.209(6) Uani 1 1 d . .
H27A H 0.187887 0.763237 0.062361 0.314 Uiso 1 1 calc GR .
H27B H 0.281334 0.744448 0.018127 0.314 Uiso 1 1 calc GR .
H27C H 0.214763 0.838531 0.016636 0.314 Uiso 1 1 calc GR .
C26 C 0.3938(7) 0.7755(7) 0.1441(5) 0.182(5) Uani 1 1 d . .
H26A H 0.453283 0.808536 0.178764 0.273 Uiso 1 1 calc GR .
H26B H 0.420013 0.731055 0.106461 0.273 Uiso 1 1 calc GR .
H26C H 0.349959 0.738771 0.166731 0.273 Uiso 1 1 calc GR .
C30 C 0.3870(3) 1.3152(4) 0.3996(3) 0.0657(14) Uani 1 1 d . .
H30A H 0.336634 1.269636 0.409762 0.099 Uiso 1 1 calc GR .
H30B H 0.357568 1.336049 0.356484 0.099 Uiso 1 1 calc GR .
H30C H 0.401099 1.371812 0.438606 0.099 Uiso 1 1 calc GR .
S3 S 0.67632(10) 0.75813(11) 0.26838(8) 0.0752(5) Uani 1 1 d . .
Si2 Si 1.0420(3) 0.4560(2) 0.16670(13) 0.1593(12) Uani 1 1 d . U
O8 O 0.7610(2) 0.6578(2) 0.45064(18) 0.0641(9) Uani 1 1 d . .
O9 O 0.8717(2) 0.8347(2) 0.58317(17) 0.0597(8) Uani 1 1 d . .
O10 O 0.9734(3) 0.9690(3) 0.6607(2) 0.0826(11) Uani 1 1 d . .
O11 O 0.6131(3) 0.8299(3) 0.3051(2) 0.0977(13) Uani 1 1 d . .
O12 O 0.6269(3) 0.6624(3) 0.2331(2) 0.1013(13) Uani 1 1 d . .
C0AA C 1.1208(12) 0.5379(9) 0.1237(5) 0.250(6) Uani 1 1 d . U
H0AA H 1.090205 0.601302 0.127552 0.375 Uiso 1 1 calc GR .
H0AB H 1.118036 0.507652 0.074159 0.375 Uiso 1 1 calc GR .
H0AC H 1.194031 0.546161 0.147721 0.375 Uiso 1 1 calc GR .
C1AA C 0.8886(8) 0.4470(9) 0.1167(5) 0.224(6) Uani 1 1 d . U
H1AA H 0.842030 0.457440 0.151616 0.336 Uiso 1 1 calc GR .
H1AB H 0.871977 0.382622 0.086112 0.336 Uiso 1 1 calc GR .
H1AC H 0.878587 0.496484 0.088464 0.336 Uiso 1 1 calc GR .
N3 N 0.7785(3) 0.7396(3) 0.3238(2) 0.0607(10) Uani 1 1 d . .
O0AA O 1.0479(3) 0.5189(3) 0.24722(18) 0.0784(10) Uani 1 1 d . .
C3AA C 0.9513(3) 0.7647(3) 0.3998(2) 0.0487(11) Uani 1 1 d . .
C2AA C 0.9342(3) 0.7548(3) 0.4769(2) 0.0438(10) Uani 1 1 d . .
C31 C 0.8930(3) 0.8526(3) 0.5161(2) 0.0540(11) Uani 1 1 d . .
H31 H 0.950432 0.904545 0.525941 0.065 Uiso 1 1 calc R .
C32 C 0.7953(4) 0.8861(3) 0.4736(3) 0.0622(13) Uani 1 1 d . .
H32A H 0.770055 0.944585 0.501891 0.075 Uiso 1 1 calc R .
H32B H 0.738344 0.834523 0.461712 0.075 Uiso 1 1 calc R .
C33 C 0.8235(4) 0.9094(3) 0.4056(3) 0.0661(14) Uani 1 1 d . .
H33A H 0.760642 0.931326 0.378443 0.079 Uiso 1 1 calc R .
H33B H 0.878505 0.962722 0.417886 0.079 Uiso 1 1 calc R .
C34 C 0.8631(3) 0.8202(3) 0.3604(3) 0.0568(12) Uani 1 1 d . .
H34 H 0.893379 0.842930 0.322797 0.068 Uiso 1 1 calc R .
C35 C 0.8523(3) 0.6725(3) 0.4819(2) 0.0490(11) Uani 1 1 d . .
C36 C 0.9011(4) 0.6148(3) 0.5355(3) 0.0606(12) Uani 1 1 d . .
H36A H 0.909938 0.547265 0.511708 0.073 Uiso 1 1 calc R .
H36B H 0.854983 0.613296 0.570622 0.073 Uiso 1 1 calc R .
C37 C 1.0095(4) 0.6654(3) 0.5720(3) 0.0625(13) Uani 1 1 d . .
H37A H 1.062803 0.616926 0.577657 0.075 Uiso 1 1 calc R .
H37B H 1.004886 0.705230 0.618726 0.075 Uiso 1 1 calc R .
C38 C 1.0381(3) 0.7302(3) 0.5222(2) 0.0522(11) Uani 1 1 d . .
H38A H 1.084203 0.695702 0.491052 0.063 Uiso 1 1 calc R .
H38B H 1.076316 0.790823 0.550105 0.063 Uiso 1 1 calc R .
C39 C 0.9466(3) 0.6681(3) 0.3427(2) 0.0550(12) Uani 1 1 d . .
H39 H 0.980914 0.684759 0.304600 0.066 Uiso 1 1 calc R .
C40 C 0.8280(3) 0.6433(3) 0.3100(3) 0.0618(13) Uani 1 1 d . .
H40A H 0.819466 0.615658 0.258990 0.074 Uiso 1 1 calc R .
H40B H 0.796517 0.596588 0.332816 0.074 Uiso 1 1 calc R .
C41 C 0.8728(4) 0.9209(4) 0.6376(3) 0.0724(14) Uani 1 1 d . .
H41A H 0.823290 0.966228 0.619585 0.087 Uiso 1 1 calc R .
H41B H 0.847602 0.902898 0.678036 0.087 Uiso 1 1 calc R .
C42 C 1.0486(5) 0.9198(5) 0.7006(3) 0.105(2) Uani 1 1 d . .
H42A H 1.066526 0.860540 0.670204 0.157 Uiso 1 1 calc GR .
H42B H 1.018562 0.902918 0.739183 0.157 Uiso 1 1 calc GR .
H42C H 1.112041 0.962155 0.719640 0.157 Uiso 1 1 calc GR .
C43 C 0.7250(4) 0.8122(4) 0.2041(3) 0.0684(14) Uani 1 1 d . .
C44 C 0.7821(7) 0.7606(6) 0.1577(4) 0.124(3) Uani 1 1 d . .
H44 H 0.795111 0.694996 0.158773 0.148 Uiso 1 1 calc R .
C45 C 0.8217(8) 0.8042(7) 0.1086(4) 0.142(3) Uani 1 1 d . .
H45 H 0.861998 0.767485 0.077528 0.170 Uiso 1 1 calc R .
C46 C 0.8035(6) 0.8979(7) 0.1046(4) 0.107(2) Uani 1 1 d . .
C47 C 0.7469(7) 0.9500(5) 0.1520(4) 0.115(2) Uani 1 1 d . .
H47 H 0.733414 1.015484 0.150710 0.138 Uiso 1 1 calc R .
C48 C 0.7095(5) 0.9077(5) 0.2017(4) 0.0943(19) Uani 1 1 d . .
H48 H 0.672641 0.945517 0.234445 0.113 Uiso 1 1 calc R .
C49 C 0.8481(9) 0.9463(8) 0.0502(5) 0.192(5) Uani 1 1 d . .
H49A H 0.795455 0.938925 0.007450 0.287 Uiso 1 1 calc GR .
H49B H 0.911827 0.914890 0.038654 0.287 Uiso 1 1 calc GR .
H49C H 0.865079 1.015320 0.070324 0.287 Uiso 1 1 calc GR .
C50 C 1.0027(4) 0.5791(3) 0.3631(3) 0.0629(13) Uani 1 1 d . .
H50A H 1.077059 0.598926 0.383318 0.076 Uiso 1 1 calc R .
H50B H 0.969661 0.558825 0.399935 0.076 Uiso 1 1 calc R .
C51 C 0.9988(4) 0.4919(4) 0.3016(3) 0.0687(14) Uani 1 1 d . .
H51A H 1.035777 0.438193 0.318324 0.082 Uiso 1 1 calc R .
H51B H 0.924805 0.469137 0.282410 0.082 Uiso 1 1 calc R .
C52 C 1.0816(12) 0.3439(12) 0.1562(8) 0.223(5) Uani 1 1 d . U
C53 C 0.9897(13) 0.2757(9) 0.1708(7) 0.256(6) Uani 1 1 d . U
H53A H 0.996087 0.279655 0.221349 0.385 Uiso 1 1 calc GR .
H53B H 0.996128 0.208498 0.147040 0.385 Uiso 1 1 calc GR .
H53C H 0.921088 0.297535 0.152840 0.385 Uiso 1 1 calc GR .
C54 C 1.0844(12) 0.3019(10) 0.0675(6) 0.277(7) Uani 1 1 d . U
H54A H 1.017731 0.313911 0.039855 0.415 Uiso 1 1 calc GR .
H54B H 1.094772 0.232162 0.058408 0.415 Uiso 1 1 calc GR .
H54C H 1.142217 0.335861 0.054358 0.415 Uiso 1 1 calc GR .
C55 C 1.1950(10) 0.3505(10) 0.2018(7) 0.278(7) Uani 1 1 d . U
H55A H 1.235863 0.406042 0.195320 0.417 Uiso 1 1 calc GR .
H55B H 1.230391 0.290884 0.186978 0.417 Uiso 1 1 calc GR .
H55C H 1.189212 0.358542 0.251406 0.417 Uiso 1 1 calc GR .
C56 C 1.0601(3) 0.8225(3) 0.4064(3) 0.0618(13) Uani 1 1 d . .
H56A H 1.064277 0.881747 0.442960 0.093 Uiso 1 1 calc GR .
H56B H 1.065392 0.839552 0.361557 0.093 Uiso 1 1 calc GR .
H56C H 1.117750 0.781940 0.418913 0.093 Uiso 1 1 calc GR .
loop_
_atom_site_aniso_label
_atom_site_aniso_U_11
_atom_site_aniso_U_22
_atom_site_aniso_U_33
_atom_site_aniso_U_23
_atom_site_aniso_U_13
_atom_site_aniso_U_12
S1 0.0674(9) 0.0864(11) 0.1039(12) 0.0212(9) 0.0351(8) 0.0026(8)
Si1 0.1022(14) 0.1255(18) 0.0859(13) -0.0025(12) -0.0155(11) 0.0112(12)
O1 0.0491(19) 0.065(2) 0.117(3) 0.018(2) 0.019(2) 0.0117(16)
O2 0.0600(19) 0.0454(19) 0.077(2) 0.0117(17) 0.0019(17) 0.0051(14)
O3 0.086(2) 0.065(2) 0.090(3) 0.014(2) 0.028(2) 0.0143(19)
O6 0.066(2) 0.113(3) 0.116(3) 0.025(3) 0.025(2) -0.026(2)
O5 0.106(3) 0.101(3) 0.148(4) 0.019(3) 0.073(3) 0.035(3)
C28 0.204(9) 0.169(9) 0.167(8) 0.017(7) 0.053(7) -0.102(7)
C29 0.150(7) 0.248(11) 0.109(6) 0.027(7) -0.015(5) 0.076(7)
N1 0.065(2) 0.059(3) 0.086(3) 0.016(2) 0.032(2) 0.002(2)
O4 0.091(3) 0.068(2) 0.085(3) 0.019(2) -0.010(2) -0.0040(19)
C1 0.041(2) 0.045(3) 0.072(3) 0.016(2) 0.011(2) -0.0009(19)
C2 0.048(3) 0.059(3) 0.076(3) 0.016(3) 0.013(2) -0.003(2)
C3 0.068(3) 0.051(3) 0.090(4) 0.016(3) 0.026(3) -0.003(2)
C4 0.054(3) 0.049(3) 0.093(4) 0.015(3) 0.010(3) -0.007(2)
C5 0.049(2) 0.041(3) 0.079(3) 0.013(2) 0.014(2) -0.0007(19)
C6 0.038(2) 0.040(2) 0.074(3) 0.016(2) 0.011(2) 0.0023(18)
C7 0.042(2) 0.045(3) 0.080(3) 0.009(2) 0.008(2) 0.001(2)
C8 0.062(3) 0.050(3) 0.103(4) 0.022(3) -0.004(3) 0.001(2)
C9 0.075(3) 0.056(3) 0.090(4) 0.031(3) 0.017(3) 0.003(3)
C10 0.049(3) 0.056(3) 0.084(3) 0.025(3) 0.013(2) 0.001(2)
C11 0.055(3) 0.049(3) 0.074(3) 0.022(2) 0.003(2) 0.000(2)
C12 0.084(4) 0.062(4) 0.094(4) 0.016(3) 0.026(3) -0.001(3)
C13 0.065(3) 0.058(3) 0.088(4) 0.001(3) 0.005(3) -0.009(2)
C14 0.139(6) 0.088(5) 0.112(5) 0.017(4) 0.048(5) 0.001(4)
C15 0.089(4) 0.082(4) 0.076(4) 0.004(4) 0.039(3) -0.018(3)
C16 0.145(7) 0.099(6) 0.105(6) 0.006(5) 0.030(5) -0.015(5)
C18 0.144(7) 0.178(10) 0.082(5) 0.014(6) -0.001(5) -0.059(7)
C17 0.133(7) 0.155(9) 0.108(7) 0.052(7) 0.027(6) -0.009(6)
C19 0.127(6) 0.117(6) 0.093(5) 0.023(5) 0.026(5) 0.001(5)
C20 0.095(4) 0.101(6) 0.080(4) 0.022(4) 0.015(4) -0.015(4)
C21 0.147(8) 0.291(14) 0.126(7) 0.093(8) -0.006(6) 0.008(8)
C22 0.071(3) 0.050(3) 0.083(4) 0.016(3) -0.004(3) -0.014(2)
C23 0.084(4) 0.060(3) 0.092(4) 0.025(3) -0.005(3) -0.009(3)
C24 0.116(6) 0.174(9) 0.133(7) 0.017(7) 0.004(5) 0.020(6)
C25 0.167(9) 0.289(15) 0.168(9) 0.057(9) 0.075(7) -0.037(9)
C27 0.216(10) 0.233(12) 0.115(7) -0.057(7) -0.040(7) 0.052(9)
C26 0.171(8) 0.145(8) 0.182(9) -0.021(7) -0.045(7) 0.056(7)
C30 0.048(3) 0.060(3) 0.094(4) 0.028(3) 0.011(3) 0.009(2)
S3 0.0542(8) 0.0837(11) 0.0876(10) 0.0265(8) 0.0009(7) 0.0060(7)
Si2 0.246(3) 0.127(2) 0.1054(17) -0.0196(15) 0.091(2) -0.028(2)
O8 0.0501(19) 0.060(2) 0.083(2) 0.0223(18) 0.0090(17) -0.0106(15)
O9 0.069(2) 0.051(2) 0.064(2) 0.0130(17) 0.0265(16) -0.0045(15)
O10 0.100(3) 0.061(2) 0.080(3) 0.014(2) 0.001(2) -0.010(2)
O11 0.064(2) 0.126(4) 0.108(3) 0.030(3) 0.021(2) 0.035(2)
O12 0.068(2) 0.093(3) 0.132(4) 0.028(3) -0.014(2) -0.024(2)
C0AA 0.411(15) 0.222(11) 0.152(8) 0.031(8) 0.166(10) -0.047(10)
C1AA 0.174(9) 0.281(12) 0.163(8) -0.027(8) -0.033(7) 0.030(8)
N3 0.050(2) 0.058(3) 0.071(3) 0.017(2) -0.0003(19) -0.0002(18)
O0AA 0.094(2) 0.074(2) 0.072(2) 0.009(2) 0.034(2) 0.0018(19)
C3AA 0.045(2) 0.042(2) 0.063(3) 0.016(2) 0.011(2) -0.0002(18)
C2AA 0.033(2) 0.040(2) 0.062(3) 0.017(2) 0.0104(19) 0.0027(17)
C31 0.048(2) 0.049(3) 0.067(3) 0.013(2) 0.017(2) 0.001(2)
C32 0.056(3) 0.050(3) 0.082(3) 0.011(3) 0.022(3) 0.009(2)
C33 0.066(3) 0.053(3) 0.082(4) 0.021(3) 0.010(3) 0.015(2)
C34 0.051(3) 0.058(3) 0.069(3) 0.031(3) 0.009(2) 0.007(2)
C35 0.045(2) 0.042(3) 0.060(3) 0.008(2) 0.014(2) -0.0016(19)
C36 0.063(3) 0.051(3) 0.075(3) 0.023(3) 0.023(3) 0.001(2)
C37 0.064(3) 0.052(3) 0.077(3) 0.028(3) 0.010(3) 0.004(2)
C38 0.042(2) 0.052(3) 0.064(3) 0.015(2) 0.010(2) 0.0011(19)
C39 0.060(3) 0.050(3) 0.061(3) 0.017(2) 0.021(2) 0.006(2)
C40 0.063(3) 0.052(3) 0.072(3) 0.017(3) 0.010(2) 0.007(2)
C41 0.076(4) 0.062(3) 0.076(4) 0.002(3) 0.021(3) 0.002(3)
C42 0.112(5) 0.099(5) 0.090(4) 0.014(4) -0.013(4) -0.010(4)
C43 0.071(3) 0.068(4) 0.063(3) 0.014(3) -0.003(3) 0.012(3)
C44 0.205(8) 0.107(6) 0.078(4) 0.039(4) 0.050(5) 0.066(6)
C45 0.217(9) 0.144(8) 0.090(5) 0.042(6) 0.072(6) 0.067(7)
C46 0.136(6) 0.115(6) 0.070(4) 0.034(5) -0.001(4) 0.008(5)
C47 0.166(7) 0.064(4) 0.108(6) 0.021(4) 0.006(5) -0.004(4)
C48 0.109(5) 0.069(4) 0.111(5) 0.026(4) 0.028(4) 0.019(3)
C49 0.264(12) 0.221(12) 0.118(7) 0.092(7) 0.047(7) -0.024(9)
C50 0.067(3) 0.057(3) 0.068(3) 0.013(3) 0.022(2) 0.013(2)
C51 0.086(4) 0.050(3) 0.079(4) 0.018(3) 0.033(3) 0.007(2)
C52 0.221(9) 0.230(9) 0.218(9) 0.026(8) 0.068(8) -0.001(8)
C53 0.368(15) 0.176(10) 0.241(12) -0.001(9) 0.166(11) -0.055(10)
C54 0.360(14) 0.273(13) 0.169(9) -0.086(9) 0.139(10) -0.025(11)
C55 0.229(11) 0.281(13) 0.262(12) -0.043(10) -0.025(9) 0.162(10)
C56 0.053(3) 0.062(3) 0.078(3) 0.024(3) 0.022(2) -0.003(2)
loop_
_atom_type_symbol
_atom_type_description
_atom_type_scat_dispersion_real
_atom_type_scat_dispersion_imag
_atom_type_scat_source
C C 0.0033 0.0016 'International Tables Vol C Tables 4.2.6.8 and 6.1.1.4'
H H 0.0000 0.0000 'International Tables Vol C Tables 4.2.6.8 and 6.1.1.4'
N N 0.0061 0.0033 'International Tables Vol C Tables 4.2.6.8 and 6.1.1.4'
O O 0.0106 0.0060 'International Tables Vol C Tables 4.2.6.8 and 6.1.1.4'
S S 0.1246 0.1234 'International Tables Vol C Tables 4.2.6.8 and 6.1.1.4'
Si Si 0.0817 0.0704 'International Tables Vol C Tables 4.2.6.8 and 6.1.1.4'
loop_
_geom_angle_atom_site_label_1
_geom_angle_atom_site_label_2
_geom_angle_atom_site_label_3
_geom_angle
O6 S1 O5 119.5(3)
O6 S1 N1 108.9(2)
O6 S1 C15 106.3(3)
O5 S1 N1 106.4(3)
O5 S1 C15 107.2(3)
N1 S1 C15 108.2(2)
C29 Si1 C28 108.7(5)
O4 Si1 C28 108.3(3)
O4 Si1 C29 102.9(3)
O4 Si1 C24 115.7(3)
C24 Si1 C28 108.2(5)
C24 Si1 C29 112.8(4)
C13 O2 C5 115.1(3)
C13 O3 C14 115.5(5)
Si1 C28 H28A 109.5
Si1 C28 H28B 109.5
Si1 C28 H28C 109.5
H28A C28 H28B 109.5
H28A C28 H28C 109.5
H28B C28 H28C 109.5
Si1 C29 H29A 109.5
Si1 C29 H29B 109.5
Si1 C29 H29C 109.5
H29A C29 H29B 109.5
H29A C29 H29C 109.5
H29B C29 H29C 109.5
C2 N1 S1 122.2(3)
C12 N1 S1 117.4(3)
C12 N1 C2 109.8(4)
C23 O4 Si1 126.4(3)
C2 C1 C6 115.0(3)
C2 C1 C30 107.4(4)
C11 C1 C2 100.0(4)
C11 C1 C6 115.9(3)
C11 C1 C30 110.1(3)
C30 C1 C6 108.0(4)
N1 C2 C1 103.2(4)
N1 C2 H2 107.8
N1 C2 C3 115.6(4)
C1 C2 H2 107.8
C3 C2 C1 114.4(4)
C3 C2 H2 107.8
C2 C3 H3A 109.2
C2 C3 H3B 109.2
H3A C3 H3B 107.9
C4 C3 C2 112.2(4)
C4 C3 H3A 109.2
C4 C3 H3B 109.2
C3 C4 H4A 109.8
C3 C4 H4B 109.8
H4A C4 H4B 108.2
C5 C4 C3 109.4(4)
C5 C4 H4A 109.8
C5 C4 H4B 109.8
O2 C5 C4 112.2(4)
O2 C5 H5 107.8
O2 C5 C6 106.9(3)
C4 C5 H5 107.8
C4 C5 C6 114.0(4)
C6 C5 H5 107.8
C5 C6 C1 110.0(4)
C7 C6 C1 117.6(4)
C7 C6 C5 105.3(3)
C7 C6 C10 101.8(4)
C10 C6 C1 112.2(3)
C10 C6 C5 109.4(4)
O1 C7 C6 125.8(4)
O1 C7 C8 123.4(4)
C8 C7 C6 110.7(4)
C7 C8 H8A 110.2
C7 C8 H8B 110.2
C7 C8 C9 107.5(4)
H8A C8 H8B 108.5
C9 C8 H8A 110.2
C9 C8 H8B 110.2
C8 C9 H9A 110.8
C8 C9 H9B 110.8
C8 C9 C10 104.5(4)
H9A C9 H9B 108.9
C10 C9 H9A 110.8
C10 C9 H9B 110.8
C6 C10 H10A 109.8
C6 C10 H10B 109.8
C9 C10 C6 109.5(3)
C9 C10 H10A 109.8
C9 C10 H10B 109.8
H10A C10 H10B 108.2
C1 C11 H11 105.8
C12 C11 C1 106.4(4)
C12 C11 H11 105.8
C12 C11 C22 112.6(4)
C22 C11 C1 119.4(4)
C22 C11 H11 105.8
N1 C12 C11 104.5(4)
N1 C12 H12A 110.9
N1 C12 H12B 110.9
C11 C12 H12A 110.9
C11 C12 H12B 110.9
H12A C12 H12B 108.9
O2 C13 H13A 108.8
O2 C13 H13B 108.8
O3 C13 O2 113.9(4)
O3 C13 H13A 108.8
O3 C13 H13B 108.8
H13A C13 H13B 107.7
O3 C14 H14A 109.5
O3 C14 H14B 109.5
O3 C14 H14C 109.5
H14A C14 H14B 109.5
H14A C14 H14C 109.5
H14B C14 H14C 109.5
C16 C15 S1 122.1(6)
C20 C15 S1 121.7(5)
C20 C15 C16 116.2(7)
C15 C16 H16 119.8
C18 C16 C15 120.4(8)
C18 C16 H16 119.8
C16 C18 H18 119.6
C17 C18 C16 120.8(8)
C17 C18 H18 119.6
C18 C17 C21 117.9(10)
C19 C17 C18 117.5(9)
C19 C17 C21 124.6(10)
C17 C19 H19 118.4
C17 C19 C20 123.1(8)
C20 C19 H19 118.4
C15 C20 H20 119.1
C19 C20 C15 121.9(7)
C19 C20 H20 119.1
C17 C21 H21A 109.5
C17 C21 H21B 109.5
C17 C21 H21C 109.5
H21A C21 H21B 109.5
H21A C21 H21C 109.5
H21B C21 H21C 109.5
C11 C22 H22A 108.7
C11 C22 H22B 108.7
H22A C22 H22B 107.6
C23 C22 C11 114.2(5)
C23 C22 H22A 108.7
C23 C22 H22B 108.7
O4 C23 C22 109.9(4)
O4 C23 H23A 109.7
O4 C23 H23B 109.7
C22 C23 H23A 109.7
C22 C23 H23B 109.7
H23A C23 H23B 108.2
C25 C24 Si1 103.6(7)
C27 C24 Si1 109.5(6)
C27 C24 C25 113.3(9)
C26 C24 Si1 111.5(7)
C26 C24 C25 112.6(8)
C26 C24 C27 106.4(8)
C24 C25 H25A 109.5
C24 C25 H25B 109.5
C24 C25 H25C 109.5
H25A C25 H25B 109.5
H25A C25 H25C 109.5
H25B C25 H25C 109.5
C24 C27 H27A 109.5
C24 C27 H27B 109.5
C24 C27 H27C 109.5
H27A C27 H27B 109.5
H27A C27 H27C 109.5
H27B C27 H27C 109.5
C24 C26 H26A 109.5
C24 C26 H26B 109.5
C24 C26 H26C 109.5
H26A C26 H26B 109.5
H26A C26 H26C 109.5
H26B C26 H26C 109.5
C1 C30 H30A 109.5
C1 C30 H30B 109.5
C1 C30 H30C 109.5
H30A C30 H30B 109.5
H30A C30 H30C 109.5
H30B C30 H30C 109.5
O11 S3 O12 118.7(3)
O11 S3 N3 109.0(2)
O11 S3 C43 106.7(3)
O12 S3 N3 106.6(2)
O12 S3 C43 108.3(3)
N3 S3 C43 107.0(2)
C0AA Si2 C1AA 107.2(6)
O0AA Si2 C0AA 103.7(4)
O0AA Si2 C1AA 108.1(4)
O0AA Si2 C52 117.9(6)
C52 Si2 C0AA 112.7(7)
C52 Si2 C1AA 106.7(7)
C41 O9 C31 114.7(4)
C41 O10 C42 115.4(5)
Si2 C0AA H0AA 109.5
Si2 C0AA H0AB 109.5
Si2 C0AA H0AC 109.5
H0AA C0AA H0AB 109.5
H0AA C0AA H0AC 109.5
H0AB C0AA H0AC 109.5
Si2 C1AA H1AA 109.5
Si2 C1AA H1AB 109.5
Si2 C1AA H1AC 109.5
H1AA C1AA H1AB 109.5
H1AA C1AA H1AC 109.5
H1AB C1AA H1AC 109.5
C34 N3 S3 122.2(3)
C40 N3 S3 118.5(3)
C40 N3 C34 110.0(3)
C51 O0AA Si2 126.7(3)
C34 C3AA C2AA 114.6(3)
C39 C3AA C2AA 117.0(4)
C39 C3AA C34 99.4(3)
C39 C3AA C56 109.1(3)
C56 C3AA C2AA 108.7(3)
C56 C3AA C34 107.4(4)
C31 C2AA C3AA 109.6(3)
C31 C2AA C35 104.9(3)
C35 C2AA C3AA 117.5(3)
C38 C2AA C3AA 112.1(3)
C38 C2AA C31 109.5(3)
C38 C2AA C35 102.8(3)
O9 C31 C2AA 106.0(3)
O9 C31 H31 108.6
O9 C31 C32 111.5(3)
C2AA C31 H31 108.6
C32 C31 C2AA 113.4(4)
C32 C31 H31 108.6
C31 C32 H32A 109.8
C31 C32 H32B 109.8
C31 C32 C33 109.4(4)
H32A C32 H32B 108.2
C33 C32 H32A 109.8
C33 C32 H32B 109.8
C32 C33 H33A 109.4
C32 C33 H33B 109.4
H33A C33 H33B 108.0
C34 C33 C32 111.2(4)
C34 C33 H33A 109.4
C34 C33 H33B 109.4
N3 C34 C3AA 103.4(3)
N3 C34 H34 107.2
C3AA C34 H34 107.2
C33 C34 N3 115.2(4)
C33 C34 C3AA 116.0(4)
C33 C34 H34 107.2
O8 C35 C2AA 126.7(4)
O8 C35 C36 123.3(4)
C36 C35 C2AA 109.9(4)
C35 C36 H36A 110.2
C35 C36 H36B 110.2
C35 C36 C37 107.7(4)
H36A C36 H36B 108.5
C37 C36 H36A 110.2
C37 C36 H36B 110.2
C36 C37 H37A 110.8
C36 C37 H37B 110.8
C36 C37 C38 105.0(4)
H37A C37 H37B 108.8
C38 C37 H37A 110.8
C38 C37 H37B 110.8
C2AA C38 H38A 109.9
C2AA C38 H38B 109.9
C37 C38 C2AA 109.1(3)
C37 C38 H38A 109.9
C37 C38 H38B 109.9
H38A C38 H38B 108.3
C3AA C39 H39 105.9
C40 C39 C3AA 106.6(3)
C40 C39 H39 105.9
C50 C39 C3AA 119.2(4)
C50 C39 H39 105.9
C50 C39 C40 112.3(4)
N3 C40 C39 103.9(4)
N3 C40 H40A 111.0
N3 C40 H40B 111.0
C39 C40 H40A 111.0
C39 C40 H40B 111.0
H40A C40 H40B 109.0
O9 C41 H41A 108.9
O9 C41 H41B 108.9
O10 C41 O9 113.3(4)
O10 C41 H41A 108.9
O10 C41 H41B 108.9
H41A C41 H41B 107.7
O10 C42 H42A 109.5
O10 C42 H42B 109.5
O10 C42 H42C 109.5
H42A C42 H42B 109.5
H42A C42 H42C 109.5
H42B C42 H42C 109.5
C44 C43 S3 121.1(5)
C44 C43 C48 117.8(6)
C48 C43 S3 121.1(5)
C43 C44 H44 119.7
C43 C44 C45 120.7(7)
C45 C44 H44 119.7
C44 C45 H45 119.2
C46 C45 C44 121.6(7)
C46 C45 H45 119.2
C45 C46 C47 117.6(7)
C45 C46 C49 121.4(8)
C47 C46 C49 120.9(8)
C46 C47 H47 119.5
C46 C47 C48 121.0(7)
C48 C47 H47 119.5
C43 C48 C47 121.4(6)
C43 C48 H48 119.3
C47 C48 H48 119.3
C46 C49 H49A 109.5
C46 C49 H49B 109.5
C46 C49 H49C 109.5
H49A C49 H49B 109.5
H49A C49 H49C 109.5
H49B C49 H49C 109.5
C39 C50 H50A 108.7
C39 C50 H50B 108.7
H50A C50 H50B 107.6
C51 C50 C39 114.0(4)
C51 C50 H50A 108.7
C51 C50 H50B 108.7
O0AA C51 C50 110.1(4)
O0AA C51 H51A 109.6
O0AA C51 H51B 109.6
C50 C51 H51A 109.6
C50 C51 H51B 109.6
H51A C51 H51B 108.2
Si2 C52 C54 107.7(11)
C53 C52 Si2 107.9(10)
C53 C52 C54 103.4(11)
C55 C52 Si2 106.3(10)
C55 C52 C53 119.6(14)
C55 C52 C54 111.5(11)
C52 C53 H53A 109.5
C52 C53 H53B 109.5
C52 C53 H53C 109.5
H53A C53 H53B 109.5
H53A C53 H53C 109.5
H53B C53 H53C 109.5
C52 C54 H54A 109.5
C52 C54 H54B 109.5
C52 C54 H54C 109.5
H54A C54 H54B 109.5
H54A C54 H54C 109.5
H54B C54 H54C 109.5
C52 C55 H55A 109.5
C52 C55 H55B 109.5
C52 C55 H55C 109.5
H55A C55 H55B 109.5
H55A C55 H55C 109.5
H55B C55 H55C 109.5
C3AA C56 H56A 109.5
C3AA C56 H56B 109.5
C3AA C56 H56C 109.5
H56A C56 H56B 109.5
H56A C56 H56C 109.5
H56B C56 H56C 109.5
loop_
_geom_bond_atom_site_label_1
_geom_bond_atom_site_label_2
_geom_bond_distance
S1 O6 1.425(4)
S1 O5 1.432(4)
S1 N1 1.614(4)
S1 C15 1.743(7)
Si1 C28 1.928(8)
Si1 C29 1.858(8)
Si1 O4 1.620(4)
Si1 C24 1.811(9)
O1 C7 1.204(5)
O2 C5 1.438(5)
O2 C13 1.399(5)
O3 C13 1.386(6)
O3 C14 1.403(7)
C28 H28A 0.9600
C28 H28B 0.9600
C28 H28C 0.9600
C29 H29A 0.9600
C29 H29B 0.9600
C29 H29C 0.9600
N1 C2 1.493(6)
N1 C12 1.487(6)
O4 C23 1.414(6)
C1 C2 1.556(6)
C1 C6 1.589(6)
C1 C11 1.551(6)
C1 C30 1.560(6)
C2 H2 0.9800
C2 C3 1.514(6)
C3 H3A 0.9700
C3 H3B 0.9700
C3 C4 1.510(7)
C4 H4A 0.9700
C4 H4B 0.9700
C4 C5 1.503(6)
C5 H5 0.9800
C5 C6 1.552(6)
C6 C7 1.544(6)
C6 C10 1.547(6)
C7 C8 1.504(7)
C8 H8A 0.9700
C8 H8B 0.9700
C8 C9 1.518(7)
C9 H9A 0.9700
C9 H9B 0.9700
C9 C10 1.527(6)
C10 H10A 0.9700
C10 H10B 0.9700
C11 H11 0.9800
C11 C12 1.527(7)
C11 C22 1.528(6)
C12 H12A 0.9700
C12 H12B 0.9700
C13 H13A 0.9700
C13 H13B 0.9700
C14 H14A 0.9600
C14 H14B 0.9600
C14 H14C 0.9600
C15 C16 1.407(9)
C15 C20 1.373(8)
C16 H16 0.9300
C16 C18 1.383(11)
C18 H18 0.9300
C18 C17 1.382(11)
C17 C19 1.337(10)
C17 C21 1.524(11)
C19 H19 0.9300
C19 C20 1.349(9)
C20 H20 0.9300
C21 H21A 0.9600
C21 H21B 0.9600
C21 H21C 0.9600
C22 H22A 0.9700
C22 H22B 0.9700
C22 C23 1.511(7)
C23 H23A 0.9700
C23 H23B 0.9700
C24 C25 1.616(13)
C24 C27 1.573(11)
C24 C26 1.564(11)
C25 H25A 0.9600
C25 H25B 0.9600
C25 H25C 0.9600
C27 H27A 0.9600
C27 H27B 0.9600
C27 H27C 0.9600
C26 H26A 0.9600
C26 H26B 0.9600
C26 H26C 0.9600
C30 H30A 0.9600
C30 H30B 0.9600
C30 H30C 0.9600
S3 O11 1.435(4)
S3 O12 1.438(4)
S3 N3 1.602(4)
S3 C43 1.764(6)
Si2 C0AA 1.897(10)
Si2 C1AA 2.013(10)
Si2 O0AA 1.611(4)
Si2 C52 1.623(15)
O8 C35 1.207(5)
O9 C31 1.440(5)
O9 C41 1.418(5)
O10 C41 1.386(6)
O10 C42 1.403(7)
C0AA H0AA 0.9600
C0AA H0AB 0.9600
C0AA H0AC 0.9600
C1AA H1AA 0.9600
C1AA H1AB 0.9600
C1AA H1AC 0.9600
N3 C34 1.508(5)
N3 C40 1.477(5)
O0AA C51 1.417(6)
C3AA C2AA 1.578(6)
C3AA C34 1.555(6)
C3AA C39 1.543(6)
C3AA C56 1.553(6)
C2AA C31 1.554(5)
C2AA C35 1.555(6)
C2AA C38 1.541(5)
C31 H31 0.9800
C31 C32 1.507(6)
C32 H32A 0.9700
C32 H32B 0.9700
C32 C33 1.514(7)
C33 H33A 0.9700
C33 H33B 0.9700
C33 C34 1.504(6)
C34 H34 0.9800
C35 C36 1.501(6)
C36 H36A 0.9700
C36 H36B 0.9700
C36 C37 1.521(6)
C37 H37A 0.9700
C37 H37B 0.9700
C37 C38 1.528(6)
C38 H38A 0.9700
C38 H38B 0.9700
C39 H39 0.9800
C39 C40 1.534(6)
C39 C50 1.523(6)
C40 H40A 0.9700
C40 H40B 0.9700
C41 H41A 0.9700
C41 H41B 0.9700
C42 H42A 0.9600
C42 H42B 0.9600
C42 H42C 0.9600
C43 C44 1.346(8)
C43 C48 1.350(7)
C44 H44 0.9300
C44 C45 1.381(10)
C45 H45 0.9300
C45 C46 1.338(10)
C46 C47 1.357(9)
C46 C49 1.535(10)
C47 H47 0.9300
C47 C48 1.367(9)
C48 H48 0.9300
C49 H49A 0.9600
C49 H49B 0.9600
C49 H49C 0.9600
C50 H50A 0.9700
C50 H50B 0.9700
C50 C51 1.504(6)
C51 H51A 0.9700
C51 H51B 0.9700
C52 C53 1.582(16)
C52 C54 1.704(15)
C52 C55 1.548(15)
C53 H53A 0.9600
C53 H53B 0.9600
C53 H53C 0.9600
C54 H54A 0.9600
C54 H54B 0.9600
C54 H54C 0.9600
C55 H55A 0.9600
C55 H55B 0.9600
C55 H55C 0.9600
C56 H56A 0.9600
C56 H56B 0.9600
C56 H56C 0.9600
loop_
_geom_torsion_atom_site_label_1
_geom_torsion_atom_site_label_2
_geom_torsion_atom_site_label_3
_geom_torsion_atom_site_label_4
_geom_torsion
S1 N1 C2 C1 172.6(3)
S1 N1 C2 C3 -61.8(6)
S1 N1 C12 C11 -151.6(3)
S1 C15 C16 C18 178.9(6)
S1 C15 C20 C19 179.7(5)
Si1 O4 C23 C22 -165.1(4)
O1 C7 C8 C9 171.6(5)
O2 C5 C6 C1 -175.5(3)
O2 C5 C6 C7 -47.8(4)
O2 C5 C6 C10 60.9(4)
O6 S1 N1 C2 56.5(4)
O6 S1 N1 C12 -162.6(4)
O6 S1 C15 C16 159.7(5)
O6 S1 C15 C20 -19.5(5)
O5 S1 N1 C2 -173.5(4)
O5 S1 N1 C12 -32.6(5)
O5 S1 C15 C16 30.8(6)
O5 S1 C15 C20 -148.4(5)
C28 Si1 O4 C23 59.8(6)
C28 Si1 C24 C25 -170.1(6)
C28 Si1 C24 C27 68.7(9)
C28 Si1 C24 C26 -48.7(8)
C29 Si1 O4 C23 174.7(5)
C29 Si1 C24 C25 69.6(7)
C29 Si1 C24 C27 -51.5(9)
C29 Si1 C24 C26 -169.0(7)
N1 S1 C15 C16 -83.5(5)
N1 S1 C15 C20 97.3(5)
N1 C2 C3 C4 -69.2(5)
O4 Si1 C24 C25 -48.5(7)
O4 Si1 C24 C27 -169.7(6)
O4 Si1 C24 C26 72.9(8)
C1 C2 C3 C4 50.4(5)
C1 C6 C7 O1 50.5(6)
C1 C6 C7 C8 -133.1(4)
C1 C6 C10 C9 148.4(4)
C1 C11 C12 N1 -19.6(5)
C1 C11 C22 C23 176.7(4)
C2 N1 C12 C11 -6.2(6)
C2 C1 C6 C5 39.3(5)
C2 C1 C6 C7 -81.2(5)
C2 C1 C6 C10 161.2(4)
C2 C1 C11 C12 36.3(4)
C2 C1 C11 C22 165.0(4)
C2 C3 C4 C5 -60.2(5)
C3 C4 C5 O2 -176.2(3)
C3 C4 C5 C6 62.0(5)
C4 C5 C6 C1 -50.9(5)
C4 C5 C6 C7 76.8(5)
C4 C5 C6 C10 -174.6(4)
C5 O2 C13 O3 67.8(6)
C5 C6 C7 O1 -72.5(6)
C5 C6 C7 C8 104.0(4)
C5 C6 C10 C9 -89.2(4)
C6 C1 C2 N1 85.9(4)
C6 C1 C2 C3 -40.4(5)
C6 C1 C11 C12 -88.0(5)
C6 C1 C11 C22 40.7(5)
C6 C7 C8 C9 -5.0(5)
C7 C6 C10 C9 21.8(5)
C7 C8 C9 C10 18.2(5)
C8 C9 C10 C6 -25.4(5)
C10 C6 C7 O1 173.4(5)
C10 C6 C7 C8 -10.1(5)
C11 C1 C2 N1 -39.0(4)
C11 C1 C2 C3 -165.3(4)
C11 C1 C6 C5 155.4(3)
C11 C1 C6 C7 34.8(5)
C11 C1 C6 C10 -82.7(4)
C11 C22 C23 O4 -60.4(6)
C12 N1 C2 C1 29.2(5)
C12 N1 C2 C3 154.8(4)
C12 C11 C22 C23 -57.5(6)
C13 O2 C5 C4 78.3(5)
C13 O2 C5 C6 -156.1(4)
C14 O3 C13 O2 72.2(6)
C15 S1 N1 C2 -58.6(5)
C15 S1 N1 C12 82.3(4)
C15 C16 C18 C17 1.4(12)
C16 C15 C20 C19 0.5(9)
C16 C18 C17 C19 0.6(13)
C16 C18 C17 C21 179.8(7)
C18 C17 C19 C20 -2.1(12)
C17 C19 C20 C15 1.6(11)
C20 C15 C16 C18 -1.9(10)
C21 C17 C19 C20 178.7(7)
C22 C11 C12 N1 -152.2(4)
C24 Si1 O4 C23 -61.8(6)
C30 C1 C2 N1 -153.8(4)
C30 C1 C2 C3 79.8(5)
C30 C1 C6 C5 -80.6(4)
C30 C1 C6 C7 158.8(4)
C30 C1 C6 C10 41.3(5)
C30 C1 C11 C12 149.1(4)
C30 C1 C11 C22 -82.2(5)
S3 N3 C34 C3AA -172.6(3)
S3 N3 C34 C33 59.7(5)
S3 N3 C40 C39 149.8(3)
S3 C43 C44 C45 -178.7(6)
S3 C43 C48 C47 -180.0(5)
Si2 O0AA C51 C50 -167.5(4)
O8 C35 C36 C37 -170.8(4)
O9 C31 C32 C33 176.9(4)
O11 S3 N3 C34 -63.1(4)
O11 S3 N3 C40 153.6(4)
O11 S3 C43 C44 -175.9(5)
O11 S3 C43 C48 6.6(5)
O12 S3 N3 C34 167.7(4)
O12 S3 N3 C40 24.4(4)
O12 S3 C43 C44 -47.0(6)
O12 S3 C43 C48 135.5(5)
C0AA Si2 O0AA C51 178.1(6)
C0AA Si2 C52 C53 -161.9(9)
C0AA Si2 C52 C54 -50.9(11)
C0AA Si2 C52 C55 68.7(12)
C1AA Si2 O0AA C51 64.5(6)
C1AA Si2 C52 C53 -44.4(11)
C1AA Si2 C52 C54 66.5(10)
C1AA Si2 C52 C55 -173.9(10)
N3 S3 C43 C44 67.5(6)
N3 S3 C43 C48 -110.0(5)
O0AA Si2 C52 C53 77.3(11)
O0AA Si2 C52 C54 -171.7(7)
O0AA Si2 C52 C55 -52.1(12)
C3AA C2AA C31 O9 175.6(3)
C3AA C2AA C31 C32 53.0(5)
C3AA C2AA C35 O8 -51.2(6)
C3AA C2AA C35 C36 131.9(4)
C3AA C2AA C38 C37 -147.2(4)
C3AA C39 C40 N3 23.3(5)
C3AA C39 C50 C51 -176.0(4)
C2AA C3AA C34 N3 -86.9(4)
C2AA C3AA C34 C33 40.2(5)
C2AA C3AA C39 C40 85.4(4)
C2AA C3AA C39 C50 -43.0(5)
C2AA C31 C32 C33 -63.6(5)
C2AA C35 C36 C37 6.3(5)
C31 O9 C41 O10 -66.9(5)
C31 C2AA C35 O8 70.8(5)
C31 C2AA C35 C36 -106.2(4)
C31 C2AA C38 C37 91.0(4)
C31 C32 C33 C34 59.4(5)
C32 C33 C34 N3 72.0(5)
C32 C33 C34 C3AA -49.0(5)
C34 N3 C40 C39 2.3(5)
C34 C3AA C2AA C31 -40.1(5)
C34 C3AA C2AA C35 79.4(4)
C34 C3AA C2AA C38 -161.9(3)
C34 C3AA C39 C40 -38.5(4)
C34 C3AA C39 C50 -166.8(4)
C35 C2AA C31 O9 48.6(4)
C35 C2AA C31 C32 -74.0(4)
C35 C2AA C38 C37 -20.1(4)
C35 C36 C37 C38 -18.5(5)
C36 C37 C38 C2AA 24.4(5)
C38 C2AA C31 O9 -61.0(4)
C38 C2AA C31 C32 176.3(4)
C38 C2AA C35 O8 -174.7(4)
C38 C2AA C35 C36 8.3(4)
C39 C3AA C2AA C31 -155.7(3)
C39 C3AA C2AA C35 -36.2(5)
C39 C3AA C2AA C38 82.5(4)
C39 C3AA C34 N3 38.6(4)
C39 C3AA C34 C33 165.7(4)
C39 C50 C51 O0AA 59.3(5)
C40 N3 C34 C3AA -26.6(5)
C40 N3 C34 C33 -154.2(4)
C40 C39 C50 C51 58.4(5)
C41 O9 C31 C2AA 157.2(3)
C41 O9 C31 C32 -79.0(5)
C42 O10 C41 O9 -70.4(6)
C43 S3 N3 C34 52.0(4)
C43 S3 N3 C40 -91.3(4)
C43 C44 C45 C46 -1.0(14)
C44 C43 C48 C47 2.5(10)
C44 C45 C46 C47 1.8(13)
C44 C45 C46 C49 179.7(8)
C45 C46 C47 C48 -0.4(12)
C46 C47 C48 C43 -1.8(11)
C48 C43 C44 C45 -1.1(11)
C49 C46 C47 C48 -178.3(7)
C50 C39 C40 N3 155.6(4)
C52 Si2 O0AA C51 -56.6(8)
C56 C3AA C2AA C31 80.1(4)
C56 C3AA C2AA C35 -160.4(3)
C56 C3AA C2AA C38 -41.7(4)
C56 C3AA C34 N3 152.1(4)
C56 C3AA C34 C33 -80.7(5)
C56 C3AA C39 C40 -150.7(4)
C56 C3AA C39 C50 81.0(5)
