#------------------------------------------------------------------------------
#$Date: 2017-09-28 16:24:19 +0300 (Thu, 28 Sep 2017) $
#$Revision: 201454 $
#$URL: file:///home/coder/svn-repositories/cod/cif/1/54/74/1547452.cif $
#------------------------------------------------------------------------------
#
# This file is available in the Crystallography Open Database (COD),
# http://www.crystallography.net/
#
# All data on this site have been placed in the public domain by the
# contributors.
#
data_1547452
loop_
_publ_author_name
'Anuradha R. Pallipurath'
'Jonathan M. Skelton'
'Mark R. Warren'
'Naghmeh Kamali'
'Patrick McArdle'
'Andrea Erxleben'
_publ_section_title
;
 Sulfamerazine: Understanding the Influence of Slip Planes in the
 Polymorphic Phase Transformation through X-Ray Crystallographic Studies
 and ab Initio Lattice Dynamics
;
_journal_name_full               'Molecular Pharmaceutics'
_journal_page_first              3735
_journal_page_last               3748
_journal_paper_doi               10.1021/acs.molpharmaceut.5b00504
_journal_volume                  12
_journal_year                    2015
_chemical_formula_moiety         'C11 H12 N4 O2 S'
_chemical_formula_sum            'C11 H12 N4 O2 S'
_chemical_formula_weight         264.31
_chemical_name_common            Sulfamerazine
_chemical_name_systematic        4-amino-N-(4-methylpyrimidin-2-yl)
_space_group_crystal_system      orthorhombic
_space_group_IT_number           61
_space_group_name_Hall           '-P 2ac 2ab'
_space_group_name_H-M_alt        'P b c a'
_symmetry_space_group_name_Hall  '-P 2ac 2ab'
_symmetry_space_group_name_H-M   'P b c a'
_atom_sites_solution_hydrogens   mixed
_cell_angle_alpha                90
_cell_angle_beta                 90
_cell_angle_gamma                90
_cell_formula_units_Z            8
_cell_length_a                   9.1445(3)
_cell_length_b                   11.7130(3)
_cell_length_c                   22.8862(5)
_cell_measurement_temperature    300
_cell_measurement_theta_max      28.4410
_cell_measurement_theta_min      1.7220
_cell_volume                     2451.33(12)
_computing_cell_refinement
;
CrysAlisPro, Agilent Technologies,
Version 1.171.37.34 (release 22-05-2014 CrysAlis171 .NET)
(compiled May 22 2014,16:03:01)
;
_computing_data_collection
;
CrysAlisPro, Agilent Technologies,
Version 1.171.37.34 (release 22-05-2014 CrysAlis171 .NET)
(compiled May 22 2014,16:03:01)
;
_computing_data_reduction
;
CrysAlisPro, Agilent Technologies,
Version 1.171.37.34 (release 22-05-2014 CrysAlis171 .NET)
(compiled May 22 2014,16:03:01)
;
_computing_molecular_graphics    OSCAIL
_computing_structure_refinement  'SHELXL-2014/7 (Sheldrick, 2014)'
_computing_structure_solution    SHELXT
_diffrn_ambient_temperature      300
_diffrn_measured_fraction_theta_full 0.990
_diffrn_measured_fraction_theta_max 0.972
_diffrn_measurement_device       'CrystalLogic Kappa (3 circle)'
_diffrn_measurement_device_type  'Rigaku Saturn724+ (2x2 bin mode)'
_diffrn_measurement_method
;
omega rotation with 1 degree frames
;
_diffrn_measurement_specimen_support 'MiTeGen loop'
_diffrn_radiation_monochromator  'double crystal Silicon 111'
_diffrn_radiation_source         'Diamond Light Source Beamline I19'
_diffrn_radiation_type           Synchrotron
_diffrn_radiation_wavelength     0.68890
_diffrn_reflns_av_R_equivalents  0.1317
_diffrn_reflns_av_unetI/netI     0.0676
_diffrn_reflns_Laue_measured_fraction_full 0.990
_diffrn_reflns_Laue_measured_fraction_max 0.972
_diffrn_reflns_limit_h_max       11
_diffrn_reflns_limit_h_min       -12
_diffrn_reflns_limit_k_max       16
_diffrn_reflns_limit_k_min       -13
_diffrn_reflns_limit_l_max       31
_diffrn_reflns_limit_l_min       -32
_diffrn_reflns_number            21660
_diffrn_reflns_point_group_measured_fraction_full 0.990
_diffrn_reflns_point_group_measured_fraction_max 0.972
_diffrn_reflns_theta_full        24.415
_diffrn_reflns_theta_max         29.453
_diffrn_reflns_theta_min         1.725
_exptl_absorpt_coefficient_mu    0.264
_exptl_absorpt_correction_T_max  1.00000
_exptl_absorpt_correction_T_min  0.89500
_exptl_absorpt_correction_type   multi-scan
_exptl_absorpt_process_details
;
CrysAlisPro, Agilent Technologies,
Version 1.171.36.28 (release 01-02-2013 CrysAlis171 .NET)
Empirical absorption correction using spherical harmonics,
implemented in SCALE3 ABSPACK scaling algorithm.
;
_exptl_crystal_colour            Colourless
_exptl_crystal_density_diffrn    1.432
_exptl_crystal_description       Parallelepiped
_exptl_crystal_F_000             1104
_exptl_crystal_size_max          0.50
_exptl_crystal_size_mid          0.40
_exptl_crystal_size_min          0.20
_refine_diff_density_max         0.272
_refine_diff_density_min         -0.431
_refine_diff_density_rms         0.071
_refine_ls_extinction_coef       .
_refine_ls_extinction_method     none
_refine_ls_goodness_of_fit_ref   1.037
_refine_ls_hydrogen_treatment    mixed
_refine_ls_matrix_type           full
_refine_ls_number_parameters     176
_refine_ls_number_reflns         3629
_refine_ls_number_restraints     0
_refine_ls_restrained_S_all      1.037
_refine_ls_R_factor_all          0.0971
_refine_ls_R_factor_gt           0.0635
_refine_ls_shift/su_max          0.000
_refine_ls_shift/su_mean         0.000
_refine_ls_structure_factor_coef Fsqd
_refine_ls_weighting_details
'w=1/[\s^2^(Fo^2^)+(0.0463P)^2^+1.4827P] where P=(Fo^2^+2Fc^2^)/3'
_refine_ls_weighting_scheme      calc
_refine_ls_wR_factor_gt          0.1419
_refine_ls_wR_factor_ref         0.1646
_reflns_Friedel_coverage         0.000
_reflns_Friedel_fraction_full    .
_reflns_Friedel_fraction_max     .
_reflns_number_gt                2349
_reflns_number_total             3629
_reflns_threshold_expression     'I > 2\s(I)'
_cod_data_source_file            Exp_Form-II2FSynchrotron_Form-II_300K.cif
_cod_data_source_block           300k_smz-f2_a
_cod_database_code               1547452
_shelx_space_group_comment
;
The symmetry employed for this shelxl refinement is uniquely defined
by the following loop, which should always be used as a source of
symmetry information in preference to the above space-group names.
They are only intended as comments.
;
_shelx_estimated_absorpt_t_min   0.879
_shelx_estimated_absorpt_t_max   0.949
_shelx_res_file
;

    300k_smz-f2_a.res created by SHELXL-2014/7

TITL 300k_smz-f2_a.res in Pbca
REM Old TITL 030_300K_SulfamerazineF2_ in Pbca
REM SHELXT solution in Pbca
REM R1 0.144,  Rweak 0.302,  Alpha 0.023,  Orientation as input
REM Formula found by SHELXT:  C12 N3 O2 S
CELL  0.68890   9.1445  11.7130  22.8862   90.000   90.000   90.000
ZERR    8.000   0.0003   0.0003   0.0005    0.000    0.000    0.000
REM SG 61 8 8 Pbca P21/b21/c21/a PGmmm Orthorhombic
LATT 1
REM SG  ASUN  1  .5 .5 .5
REM SG  ORGN  at Inv.cen.
SYMM 0.5-X,-Y,0.5+Z
SYMM -X,0.5+Y,0.5-Z
SYMM 0.5+X,0.5-Y,-Z
SFAC C H N O S
UNIT 88 96  32  16  8
FMAP 2
PLAN -32
BOND $H
L.S. 12
SIZE    0.50  0.40  0.20
REM Instructions for potential hydrogen bonds
EQIV $1 -x+1/2, y+1/2, z
HTAB C6 O1_$1
EQIV $2 -x+1, -y+1, -z+1
HTAB C8 O2_$2
EQIV $3 x+1, y, z
HTAB C9 O2_$3
HTAB N2 N4_$2
EQIV $4 x+1/2, y, -z+1/2
HTAB N1 O2_$4
EQIV $5 -x+1, y+1/2, -z+1/2
HTAB N1 O1_$5
HTAB N1 N3_$5
ACTA
CONF
HTAB
LIST 4
WGHT    0.046300    1.482700
FVAR       0.52360
S1    5    0.333349    0.346823    0.389814    11.00000    0.04236    0.04371 =
         0.03766   -0.00349    0.00003   -0.00474
O2    4    0.198683    0.397072    0.409623    11.00000    0.04047    0.06728 =
         0.04499   -0.00227    0.00090   -0.00335
O1    4    0.343332    0.225263    0.386239    11.00000    0.07529    0.03898 =
         0.04973   -0.00222    0.00017   -0.01002
N4    3    0.665974    0.426397    0.485300    11.00000    0.04211    0.05352 =
         0.04274   -0.00540   -0.00327    0.00571
N3    3    0.655180    0.286591    0.409375    11.00000    0.04771    0.04670 =
         0.04446   -0.00273    0.00263    0.00733
N2    3    0.451894    0.394360    0.437787    11.00000    0.04120    0.04880 =
         0.04483   -0.01247   -0.00345    0.00593
N1    3    0.457813    0.533948    0.155894    11.00000    0.08793    0.05950 =
         0.04971    0.00717    0.01957    0.00328
C1    1    0.377681    0.404784    0.322076    11.00000    0.04224    0.04253 =
         0.03869   -0.00275    0.00163   -0.00317
C2    1    0.449591    0.339444    0.280580    11.00000    0.06819    0.04599 =
         0.04858    0.00253    0.01141    0.01165
AFIX  43
H2    2    0.478265    0.265313    0.289558    11.00000   -1.30000
AFIX   0
C3    1    0.478642    0.383670    0.226323    11.00000    0.07415    0.05454 =
         0.04915   -0.00343    0.01995    0.01023
AFIX  43
H3    2    0.528969    0.339452    0.199216    11.00000   -1.30000
AFIX   0
C4    1    0.434292    0.493576    0.210938    11.00000    0.05407    0.04714 =
         0.04498    0.00016    0.00683   -0.00655
C5    1    0.362514    0.558796    0.253684    11.00000    0.06387    0.03745 =
         0.05251    0.00317    0.00657    0.00045
AFIX  43
H5    2    0.332994    0.632767    0.244799    11.00000   -1.30000
AFIX   0
C6    1    0.334950    0.515334    0.308552    11.00000    0.05224    0.04246 =
         0.04420   -0.00653    0.00800   -0.00270
AFIX  43
H6    2    0.287877    0.559947    0.336412    11.00000   -1.30000
AFIX   0
C7    1    0.597639    0.366745    0.443410    11.00000    0.04477    0.04236 =
         0.03570    0.00222    0.00042    0.00447
C8    1    0.807378    0.401808    0.492617    11.00000    0.04372    0.06449 =
         0.04996    0.00039   -0.00738    0.00357
AFIX  43
H8    2    0.859885    0.441350    0.520929    11.00000   -1.30000
AFIX   0
C9    1    0.877791    0.321153    0.460287    11.00000    0.04629    0.06302 =
         0.05415    0.00857    0.00171    0.00867
AFIX  43
H9    2    0.976352    0.305404    0.466237    11.00000   -1.30000
AFIX   0
C10   1    0.797769    0.263287    0.418217    11.00000    0.04879    0.05049 =
         0.05222    0.00864    0.01026    0.00959
C11   1    0.865752    0.171249    0.381994    11.00000    0.07246    0.06993 =
         0.07902   -0.00826    0.01717    0.02245
AFIX 137
H11A  2    0.821366    0.099273    0.391378    11.00000   -1.30000
H11B  2    0.968695    0.167655    0.390011    11.00000   -1.30000
H11C  2    0.850841    0.187729    0.341339    11.00000   -1.30000
AFIX   0
H1N2  2    0.419715    0.441251    0.457264    11.00000    0.04368
H1N1  2    0.505418    0.492183    0.135575    11.00000    0.07264
H2N1  2    0.461605    0.604011    0.147659    11.00000    0.10772
HKLF 4

REM  300k_smz-f2_a.res in Pbca
REM R1 =  0.0635 for    2349 Fo > 4sig(Fo)  and  0.0971 for all    3629 data
REM    176 parameters refined using      0 restraints

END

WGHT      0.0850      0.5529

REM Instructions for potential hydrogen bonds
HTAB C6 O1_$1
HTAB C8 O2_$2
HTAB C9 O2_$3
HTAB N2 N4_$2
HTAB N1 O2_$4
HTAB N1 O1_$5

REM Highest difference peak  0.272,  deepest hole -0.431,  1-sigma level  0.071
Q1    1   0.7209  0.1405  0.3226  11.00000  0.05    0.27
Q2    1   0.3475  0.5359  0.2787  11.00000  0.05    0.25
Q3    1   0.2328  0.1502  0.3616  11.00000  0.05    0.24
Q4    1   0.2935  0.5790  0.3870  11.00000  0.05    0.24
Q5    1   0.4730  0.2213  0.3576  11.00000  0.05    0.23
Q6    1   1.0271  0.0767  0.4260  11.00000  0.05    0.23
Q7    1   0.6820  0.1251  0.4979  11.00000  0.05    0.23
Q8    1   0.7047  0.2802  0.5114  11.00000  0.05    0.23
Q9    1   0.4725  0.1606  0.3781  11.00000  0.05    0.22
Q10   1   0.4822  0.5648  0.3191  11.00000  0.05    0.21
Q11   1   1.0038  0.3439  0.3885  11.00000  0.05    0.21
Q12   1   0.6756  0.2821  0.2923  11.00000  0.05    0.21
Q13   1   0.3420  0.1841  0.3124  11.00000  0.05    0.20
Q14   1   0.1730  0.5469  0.3647  11.00000  0.05    0.20
Q15   1   0.2263  0.4028  0.4526  11.00000  0.05    0.20
Q16   1   0.2995  0.0773  0.3559  11.00000  0.05    0.20
Q17   1   0.6463  0.3203  0.4250  11.00000  0.05    0.20
Q18   1   0.3407  0.6571  0.2939  11.00000  0.05    0.19
Q19   1   0.4575  0.6362  0.2807  11.00000  0.05    0.19
Q20   1   0.3455  0.5807  0.2491  11.00000  0.05    0.19
Q21   1   0.7285  0.3239  0.3922  11.00000  0.05    0.19
Q22   1   0.5488  0.5187  0.1469  11.00000  0.05    0.19
Q23   1   0.1432  0.3377  0.3380  11.00000  0.05    0.19
Q24   1   0.6749  0.4040  0.5070  11.00000  0.05    0.19
Q25   1   0.3489  0.4469  0.1017  11.00000  0.05    0.18
Q26   1   0.3903  0.7152  0.1727  11.00000  0.05    0.18
Q27   1   0.5222  0.2608  0.3249  11.00000  0.05    0.18
Q28   1   0.9621  0.2019  0.3555  11.00000  0.05    0.18
Q29   1   0.4852  0.5252  0.4371  11.00000  0.05    0.18
Q30   1   0.8311  0.4670  0.5310  11.00000  0.05    0.18
Q31   1   0.5202  0.5456  0.1930  11.00000  0.05    0.18
Q32   1   0.7169  0.3979  0.2795  11.00000  0.05    0.18
;
_shelx_res_checksum              12659
_shelx_hkl_file
;
   0   0  -2  601.84   13.53
   0   0  -2  535.30   12.54
   0   0  -3   -0.24    0.50
   0   0  -3    0.97    0.70
   0   0  -4 2036.06   35.25
   0   0  -4 2812.65   39.62
   0   0  -5   -0.25    0.61
   0   0  -5   -0.51    1.30
   0   0  -6 5734.18   71.77
   0   0  -6 5529.14   68.99
   0   0  -7   -0.05    0.94
   0   0  -7    0.09    0.34
   0   0  -8  880.26   32.26
   0   0  -8 1022.11   35.44
   0   0  -9    0.31    2.90
   0   0  -9    0.06    1.29
   0   0 -10 4520.82   79.36
   0   0 -10 3176.51   71.39
   0   0 -11   -0.41    0.22
   0   0 -11   -2.38    3.02
   0   0 -12    9.92    4.37
   0   0 -12   13.23    5.86
   0   0 -13   -0.90    3.05
   0   0 -13   -0.69    5.34
   0   0 -14  803.33   41.97
   0   0 -14  453.69   31.62
   0   0 -15    0.14    1.98
   0   0 -15   -0.81    2.83
   0   0 -16   11.95    6.59
   0   0 -16   22.48    8.00
   0   0 -17    2.42    4.37
   0   0 -17   -0.32    4.06
   0   0 -18 1366.79   61.05
   0   0 -18  894.88   50.48
   0   0 -19    2.89    6.77
   0   0 -19    1.31    3.94
   0   0 -20   93.25   17.14
   0   0 -20   79.30   14.85
   0   0 -21    3.99    7.60
   0   0 -21   -0.98    4.37
   0   0 -22  131.58   20.90
   0   0 -22  147.32   22.11
   0   0 -23    3.47    5.04
   0   0 -23    0.14    4.64
   0   0 -24   84.67   16.80
   0   0 -24   52.60   14.78
   0   0 -25    8.26    7.39
   0   0 -25   -1.65    3.67
   0   0 -26    4.47    8.24
   0   0 -26   14.40    7.60
   0   0 -27    2.72    9.18
   0   0 -27   -2.13    3.04
   0   0 -28   20.80    7.77
   0   0 -28   21.61   11.09
   0   0 -29    0.82    5.91
   0   0 -29    0.13    2.76
   0   0 -30  136.30   24.77
   0   0 -30   87.39   21.32
   0   0 -31   -0.75    5.83
   0   0 -31   -2.56    6.84
   0   0 -32   -8.11    8.71
   0   0 -32   -0.82    4.07
   0   1   0    1.06    0.62
   0   1   0    0.34    0.35
   0   1   1   -0.29    0.25
   0   1  -1    0.21    0.34
   0   1  -1   -0.30    0.51
   0  -1  -1    0.09    0.37
   0  -1  -2    0.16    0.47
   0   1  -2    0.40    0.33
   0   1  -2    0.81    0.35
   0  -1  -2   -0.34    0.68
   0  -1  -3    0.46    0.40
   0   1  -3    1.41    1.17
   0   1  -3    0.16    0.92
   0  -1  -3   -0.34    0.47
   0   1  -4    0.03    1.15
   0   1  -4   -0.11    1.31
   0  -1  -4    0.29    0.82
   0   1  -4   -1.19    0.77
   0  -1  -4    1.99    1.40
   0   1  -5    0.24    1.05
   0  -1  -5   -1.18    1.52
   0   1  -5    0.38    1.10
   0   1  -5    0.03    0.69
   0  -1  -5    2.00    0.57
   0   1  -6   -1.55    1.37
   0   1  -6   -0.09    2.03
   0  -1  -6   -0.53    0.15
   0  -1  -6   -1.75    1.28
   0   1  -7    0.98    1.01
   0  -1  -7    1.34    1.48
   0  -1  -7    0.85    1.12
   0   1  -7   -0.84    2.46
   0   1  -8   -0.51    1.60
   0   1  -8   -0.92    1.86
   0  -1  -8   -0.34    1.24
   0  -1  -8   -0.24    1.03
   0  -1  -9   -1.28    1.56
   0   1  -9    1.09    2.45
   0   1  -9   -0.56    0.44
   0  -1  -9   -2.16    3.14
   0  -1 -10    3.14    3.35
   0   1 -10   -1.35    0.69
   0  -1 -10    2.71    3.02
   0   1 -10    1.18    0.96
   0   1 -11    0.19    2.06
   0   1 -11    2.39    2.99
   0  -1 -11    0.81    2.12
   0  -1 -11   -0.03    3.00
   0  -1 -12    0.49    1.45
   0   1 -12   -0.15    2.36
   0   1 -12   -0.61    1.97
   0  -1 -12    0.89    2.17
   0  -1 -13    0.68    0.62
   0   1 -13    2.05    3.10
   0  -1 -13    0.01    2.58
   0   1 -13    0.99    2.45
   0   1 -14    0.18    1.78
   0   1 -14    1.67    3.48
   0  -1 -14   -1.26    0.75
   0  -1 -14    1.91    3.49
   0   1 -15   -1.50    4.33
   0   1 -15   -2.06    3.63
   0  -1 -15    2.00    2.89
   0  -1 -15   -0.94    2.21
   0   1 -16    0.46    1.91
   0   1 -16    0.10    0.91
   0  -1 -16    0.71    0.71
   0   1 -17   -3.08    4.38
   0   1 -17    0.53    1.00
   0  -1 -17   -0.48    3.96
   0  -1 -17   -1.80    3.51
   0   1 -18   -2.24    4.47
   0  -1 -18   -0.55    3.37
   0   1 -18    2.29    1.85
   0  -1 -18    0.79    4.34
   0   1 -19    0.10    1.77
   0  -1 -19    0.02    0.21
   0  -1 -19    0.12    2.74
   0   1 -19   -1.32    5.42
   0  -1 -20   -6.44    7.32
   0   1 -20   -0.19    4.13
   0   1 -20    2.73    2.14
   0  -1 -20   -3.24    0.60
   0  -1 -21    2.15    4.60
   0   1 -21    8.06    6.05
   0  -1 -21   -0.11    5.42
   0   1 -21    2.20    2.03
   0   1 -22    5.80    9.84
   0  -1 -22   -0.56    2.74
   0  -1 -22    0.70    4.90
   0   1 -22    3.80    4.58
   0  -1 -23   -2.55    4.74
   0  -1 -23   -1.09    4.22
   0   1 -23    3.30    4.39
   0   1 -23    0.86    5.02
   0   1 -24   -1.65    4.77
   0  -1 -24    8.40    8.43
   0   1 -24   -5.12    3.90
   0  -1 -24    2.73    7.18
   0  -1 -25   -0.99    4.18
   0  -1 -25    5.57    6.01
   0   1 -25   -1.58    1.44
   0   1 -25   -1.96    6.97
   0  -1 -26    0.39    1.55
   0   1 -26   -3.28    3.32
   0  -1 -26    1.39    4.13
   0   1 -26    2.19    4.56
   0  -1 -27   -0.90    1.87
   0   1 -27   -1.68    1.62
   0  -1 -27   -2.03    5.97
   0   1 -27    5.62    7.01
   0   1 -28    6.80    7.13
   0   1 -28    1.88    7.67
   0  -1 -28   -2.97    4.10
   0  -1 -28   -0.50    4.21
   0  -1 -29    4.03    6.35
   0   1 -29   -3.42    5.49
   0   1 -29    0.89    2.40
   0  -1 -29    0.03    3.67
   0  -1 -30    7.81    7.08
   0   1 -30   11.57    8.95
   0   1 -30    4.21    1.88
   0  -1 -30   -3.80    5.35
   0  -1 -31   -5.24    6.18
   0   1 -31   10.31    7.55
   0   1 -31    5.66    5.62
   0  -1 -31    5.98    8.95
   0  -1 -32   -1.25    7.54
   0   1 -32   -8.99    9.42
   0   1 -32    2.06    0.35
   0  -1 -32  -10.75   11.39
   0   2   0   -0.38    0.68
   0   2   0   -0.19    0.44
   0   2  -1 6358.83   53.73
   0   2   1 5413.26   57.83
   0   2  -2 3849.76   47.85
   0  -2  -2 3758.56   46.51
   0   2  -2 3777.53   52.32
   0   2   3 9999.00   84.82
   0  -2  -3 9006.48   68.16
   0   2  -4 7440.68   80.24
   0   2   4 7180.28   74.11
   0   2  -4 7253.80   74.16
   0   2  -5 7661.55   85.15
   0  -2  -5 7709.75   82.49
   0  -2  -6 6300.92   80.15
   0   2  -6 6549.72   82.18
   0  -2  -6 5817.04   81.23
   0   2  -6 6048.07   83.68
   0   2  -6 5944.05   80.32
   0  -2  -7   46.15    7.96
   0  -2  -7   47.26    7.72
   0   2  -7   34.47    6.48
   0   2  -7   58.31    8.78
   0   2  -7   46.82    7.20
   0  -2  -8  535.36   25.87
   0   2  -8  553.81   26.79
   0  -2  -8  511.47   27.51
   0   2  -9 1402.97   47.54
   0  -2  -9 1661.16   51.96
   0   2  -9 1196.77   41.32
   0   2  -9 1066.97   39.49
   0  -2  -9 1414.67   44.45
   0   2 -10  708.20   32.75
   0  -2 -10  812.70   35.52
   0   2 -10  725.38   33.70
   0   2 -11 1004.50   41.97
   0   2 -11  902.93   39.04
   0  -2 -11  923.29   42.01
   0   2 -12  413.60   28.72
   0  -2 -12  402.71   27.50
   0   2 -12  344.75   25.30
   0  -2 -13  119.54   16.06
   0   2 -13   81.35   12.02
   0  -2 -13   85.05   13.23
   0   2 -13  116.98   15.13
   0   2 -14  507.12   31.97
   0   2 -14  527.36   33.55
   0  -2 -14  441.53   31.91
   0  -2 -15    3.15    4.75
   0   2 -15    6.81    6.06
   0   2 -15    1.16    3.31
   0  -2 -15    4.85    3.56
   0   2 -16   56.04   11.13
   0  -2 -16   64.81   12.68
   0  -2 -16   59.44   12.40
   0   2 -16   44.75   11.28
   0   2 -17  432.70   32.38
   0  -2 -17  392.26   32.77
   0  -2 -18  198.66   23.22
   0   2 -18  134.51   18.81
   0   2 -18  127.40   17.89
   0  -2 -18  170.43   22.45
   0  -2 -19  499.69   38.28
   0  -2 -19  356.59   32.99
   0   2 -19  417.60   34.76
   0   2 -19  432.99   35.34
   0   2 -20   37.08   11.22
   0  -2 -20   25.94    9.84
   0   2 -20   43.31   10.80
   0  -2 -20   24.95   10.66
   0   2 -21   74.38   14.49
   0   2 -21   47.94   12.19
   0  -2 -21   61.34   13.95
   0  -2 -21   80.91   16.77
   0   2 -22    1.63    5.42
   0  -2 -22    0.51    2.28
   0  -2 -22    1.58    5.76
   0   2 -22    0.58    5.12
   0   2 -23  200.00   26.54
   0  -2 -23  263.78   30.17
   0   2 -23  319.14   34.10
   0  -2 -23  173.47   26.21
   0   2 -24   -0.40    3.61
   0  -2 -24   -2.52    1.46
   0   2 -24    3.44    4.89
   0  -2 -24    0.09    6.28
   0  -2 -25    4.60    4.90
   0   2 -25   -2.75    4.55
   0  -2 -25   14.80    9.15
   0   2 -25    6.79    4.04
   0   2 -26   37.48   11.87
   0  -2 -26   14.68    9.18
   0  -2 -26   49.94   14.90
   0   2 -26   42.42   13.91
   0   2 -27    0.36    2.52
   0  -2 -27    8.25    8.68
   0  -2 -27    7.05    5.26
   0   2 -27    6.84    5.46
   0  -2 -28    4.52    1.33
   0   2 -28    5.27    5.81
   0   2 -28    3.91    3.37
   0   2 -29   44.79   13.93
   0  -2 -29   50.56   15.53
   0   2 -29   25.72   11.62
   0  -2 -29    3.61    5.16
   0   2 -30    2.81    3.09
   0   2 -30   -2.36    5.37
   0  -2 -30   -9.12    9.26
   0  -2 -30   -0.21    1.80
   0   2 -31   -2.07    6.35
   0   2 -31    6.44    6.14
   0  -2 -31    4.08    7.13
   0  -2 -31   -0.86    4.39
   0  -2 -32    7.57    8.57
   0  -2 -32   27.67   10.76
   0   2 -32    8.81    6.06
   0   2 -32   19.45    9.71
   0   3   0    1.50    1.56
   0   3   0   -0.72    1.04
   0   3   1   -0.29    0.88
   0   3  -1   -1.40    0.76
   0   3  -1   -1.78    1.26
   0  -3  -1    0.11    0.98
   0  -3  -2   -1.66    1.14
   0   3  -2    0.88    1.38
   0   3  -2    0.34    2.00
   0  -3  -2    0.40    0.54
   0   3   2    0.26    0.63
   0   3  -3    1.24    1.45
   0   3  -3   -0.69    1.34
   0   3   3   -0.27    0.97
   0  -3  -3    0.09    0.60
   0  -3  -3    0.23    0.85
   0  -3  -4    0.26    1.17
   0   3  -4    0.54    2.01
   0   3   4    0.31    0.95
   0   3  -4   -0.14    0.13
   0  -3  -4   -0.52    0.25
   0  -3  -5    0.56    0.88
   0   3   5    0.20    0.86
   0   3  -5   -2.21    2.59
   0   3  -5   -0.73    1.56
   0  -3  -5   -1.16    2.29
   0  -3  -6   -1.02    1.13
   0   3  -6    0.36    0.90
   0   3  -6    1.74    1.17
   0  -3  -6    0.19    0.16
   0   3   6   -1.04    2.82
   0  -3  -7    1.52    2.59
   0  -3  -7   -0.51    2.31
   0   3  -7   -0.45    1.40
   0   3  -7    0.09    1.97
   0  -3  -8   -1.67    2.71
   0   3  -8   -1.06    1.20
   0   3  -8    1.78    1.58
   0  -3  -8   -0.58    1.76
   0   3  -8   -1.17    1.29
   0   3  -9   -0.15    0.76
   0   3  -9   -1.07    2.17
   0  -3  -9   -0.54    1.68
   0   3  -9    2.38    1.53
   0  -3  -9    2.97    2.74
   0   3 -10   -1.32    1.91
   0  -3 -10   -1.31    0.49
   0   3 -10    2.43    4.29
   0   3 -10    2.03    3.08
   0  -3 -10    0.56    2.69
   0  -3 -11    0.60    0.86
   0  -3 -11    6.57    5.29
   0   3 -11    2.40    2.44
   0   3 -11    2.47    3.24
   0   3 -11    0.41    2.36
   0  -3 -12    0.88    0.75
   0  -3 -12    0.09    2.42
   0   3 -12   -2.23    1.14
   0   3 -12    3.79    5.07
   0   3 -12    0.36    2.21
   0  -3 -13    2.44    2.80
   0   3 -13    0.96    3.28
   0   3 -13   -1.75    3.18
   0  -3 -13   -1.15    1.99
   0  -3 -14    0.09    2.75
   0   3 -14    1.59    2.99
   0   3 -14    1.42    2.25
   0  -3 -14   -1.45    1.85
   0   3 -15    2.42    5.08
   0   3 -15   -1.94    1.75
   0  -3 -15    1.35    1.60
   0  -3 -15    0.92    2.71
   0   3 -16    2.64    3.37
   0  -3 -16   -0.36    1.79
   0   3 -16    2.62    4.23
   0  -3 -16   -1.54    4.03
   0  -3 -17   -1.46    3.34
   0   3 -17   -0.96    2.58
   0   3 -17   -4.04    5.20
   0  -3 -17   -0.86    4.52
   0   3 -18   -0.10    2.90
   0  -3 -18   -1.28    3.53
   0  -3 -18    1.45    2.84
   0   3 -18    0.20    1.13
   0   3 -19   -2.39    3.72
   0  -3 -19    0.02    1.51
   0  -3 -19    0.53    5.66
   0   3 -19    2.93    2.22
   0   3 -20   -0.76    2.27
   0  -3 -20   -0.84    6.76
   0  -3 -20    3.02    5.54
   0   3 -20   -0.91    5.79
   0  -3 -21    4.63    4.88
   0   3 -21   -1.81    5.80
   0  -3 -21   -3.02    3.08
   0   3 -21    3.33    3.70
   0   3 -22    0.58    2.57
   0  -3 -22    0.90    3.66
   0  -3 -22   -4.64    3.45
   0   3 -22   -0.43    2.11
   0  -3 -23    1.30    6.44
   0  -3 -23    2.57    3.07
   0   3 -23   -0.94    0.83
   0   3 -23    6.51    5.84
   0  -3 -24    6.75    6.87
   0   3 -24    1.62    4.28
   0   3 -24   -0.04    3.28
   0  -3 -24    0.69    2.54
   0  -3 -25    0.18    2.55
   0   3 -25   -3.16    1.33
   0  -3 -25   -3.25    5.51
   0   3 -25    3.74    1.36
   0   3 -26   -1.12    2.85
   0  -3 -26    1.15    3.62
   0  -3 -26   -1.23    4.75
   0   3 -26    0.24    4.89
   0   3 -27    4.68    3.19
   0  -3 -27   -2.23    4.06
   0   3 -27    0.52    4.57
   0  -3 -27   -0.16    1.48
   0   3 -28   -3.26    6.67
   0  -3 -28   -1.67    2.50
   0  -3 -28   -2.77    4.21
   0   3 -28    0.65    0.93
   0   3 -29    4.81    6.18
   0  -3 -29    1.64    6.51
   0   3 -29    3.32    6.89
   0  -3 -29   11.83    7.24
   0  -3 -30   -3.60    6.36
   0   3 -30    4.89    6.44
   0  -3 -30   -4.52    3.96
   0   3 -30   -0.97    3.76
   0  -3 -31    2.11    6.40
   0  -3 -31   -5.09    6.81
   0   3 -31   -1.28    6.98
   0   3 -31    5.16    6.27
   0  -3 -32    2.38    7.32
   0   3 -32    3.92    7.54
   0  -3 -32    1.87    6.29
   0   3 -32    2.72    4.51
   0   4   0 4119.23   68.66
   0   4   0 4255.40   66.95
   0   4   1 1273.10   36.96
   0   4  -1 1293.46   34.70
   0   4  -1 1520.65   43.02
   0   4   1 1498.22   38.79
   0   4  -2 1363.53   36.92
   0  -4  -2 1418.47   31.23
   0   4   3   96.23   11.30
   0   4  -3   82.44    9.59
   0  -4  -3   81.82    7.37
   0   4  -3   73.97    9.73
   0  -4  -3   94.20   10.48
   0  -4  -4  185.56   12.29
   0  -4  -4  233.22   16.65
   0   4  -4  150.58   14.80
   0   4   4  242.96   18.47
   0   4  -4  167.52   13.60
   0  -4  -5  196.59   13.21
   0   4   5  178.49   16.16
   0   4  -5  216.62   15.78
   0   4  -5  247.47   19.21
   0  -4  -5  208.63   16.39
   0   4  -6  709.86   30.31
   0   4  -6  608.09   31.41
   0  -4  -6  735.54   32.24
   0   4   6  621.70   31.34
   0  -4  -7  296.72   21.65
   0   4  -7  269.11   20.42
   0  -4  -7  289.74   18.20
   0   4  -7  247.74   19.05
   0   4  -8  145.00   15.50
   0  -4  -8  164.88   14.66
   0   4   8  176.37   16.46
   0   4  -8  126.39   14.49
   0  -4  -8  171.10   16.62
   0   4  -9    0.74    1.12
   0   4   9    2.44    2.96
   0   4  -9    5.86    3.89
   0  -4  -9   -0.12    2.06
   0   4  -9    4.38    3.32
   0  -4  -9    3.63    2.81
   0  -4 -10   -0.72    1.34
   0   4 -10    1.02    2.95
   0  -4 -10    0.63    2.78
   0   4  10    1.56    1.74
   0   4 -10   -2.00    2.67
   0   4 -10    0.88    1.77
   0  -4 -11   79.97   12.15
   0   4 -11   98.92   14.39
   0   4 -11   95.32   14.16
   0   4 -11   69.54   11.29
   0  -4 -11   96.76   13.69
   0  -4 -12    6.88    3.27
   0   4 -12    1.88    2.82
   0   4 -12    0.05    3.26
   0  -4 -12    0.86    3.62
   0   4 -12    1.57    2.82
   0   4 -13    3.72    2.74
   0  -4 -13    2.30    0.95
   0  -4 -13    4.35    2.34
   0   4 -13    8.66    4.70
   0   4 -13    3.34    1.94
   0   4 -14  153.92   19.32
   0  -4 -14  134.08   18.09
   0   4 -14  110.27   15.71
   0  -4 -14  154.66   19.55
   0  -4 -15   73.90   13.86
   0   4 -15   44.84   10.29
   0  -4 -15   67.55   13.41
   0   4 -15   58.89   12.63
   0   4 -16   60.00   12.27
   0  -4 -16   67.14   12.26
   0   4 -16   86.16   15.22
   0   4 -17  407.28   31.55
   0  -4 -17  490.94   37.77
   0   4 -17  448.48   35.61
   0  -4 -18 1126.23   58.60
   0   4 -18  990.19   53.57
   0  -4 -18 1011.15   54.74
   0  -4 -19  277.28   29.31
   0   4 -19  204.12   24.18
   0   4 -19  139.83   20.18
   0  -4 -19  321.63   32.38
   0   4 -20    0.46    3.58
   0   4 -20    3.07    6.48
   0  -4 -20   -2.36    5.07
   0  -4 -20    0.49    2.39
   0   4 -21   40.02   11.98
   0   4 -21   32.90   12.23
   0  -4 -21   45.51   12.71
   0  -4 -21   37.57   10.69
   0  -4 -22   -3.72    4.57
   0   4 -22   -1.21    3.31
   0   4 -22   -1.71    3.52
   0  -4 -22   -1.72    4.15
   0  -4 -23   52.36   13.86
   0   4 -23   53.38   15.22
   0  -4 -23   60.51   13.66
   0   4 -24  131.41   21.29
   0  -4 -24  175.47   25.16
   0  -4 -24  120.80   21.73
   0   4 -24  130.69   22.11
   0  -4 -25   51.94   14.61
   0   4 -25   55.59   14.78
   0   4 -25   64.85   15.39
   0  -4 -25   57.35   14.75
   0   4 -26    0.54    6.22
   0   4 -26    6.19    7.29
   0  -4 -26   12.23    5.88
   0  -4 -26   17.65    9.72
   0   4 -27   -2.50    1.25
   0   4 -27    7.01    8.58
   0  -4 -27    4.28    3.21
   0  -4 -27   -2.29    6.30
   0   4 -28    0.94    7.08
   0   4 -28   22.81   11.56
   0  -4 -28   17.32    7.92
   0  -4 -28    6.52    5.22
   0  -4 -29   -0.73    5.10
   0   4 -29   13.27    7.05
   0  -4 -29   16.93    8.48
   0   4 -29   15.57    9.40
   0   4 -30    2.65    6.21
   0   4 -30    5.34    7.68
   0  -4 -30   -2.61    5.07
   0  -4 -30    2.81    7.02
   0  -4 -31    7.45    7.48
   0   4 -31    4.39    4.17
   0  -4 -31    9.39    8.84
   0   4 -31   -3.57    6.10
   0   5   0   -0.02    1.44
   0   5   0   -0.82    1.72
   0   5   1   -0.82    0.94
   0   5   1    0.41    0.64
   0   5  -1    4.04    3.60
   0   5  -1    1.37    2.06
   0   5   2    1.90    2.27
   0   5   2    1.96    2.41
   0   5  -2    0.05    0.67
   0   5  -2   -0.80    1.49
   0  -5  -2    0.03    0.55
   0   5  -3   -1.71    1.90
   0   5  -3   -0.89    1.85
   0   5   3   -1.71    2.32
   0  -5  -3    0.30    1.69
   0   5  -4   -1.05    3.04
   0   5  -4    2.55    0.58
   0  -5  -4   -0.66    1.25
   0  -5  -4   -1.34    0.64
   0   5   4    1.66    2.31
   0  -5  -5   -0.31    0.82
   0   5  -5   -1.27    2.55
   0  -5  -5    0.01    0.49
   0   5   5   -0.73    2.28
   0   5  -5    2.38    2.98
   0  -5  -6    0.86    0.78
   0   5  -6   -0.72    1.80
   0  -5  -6    0.57    1.51
   0   5  -6   -0.23    1.66
   0   5   6   -0.17    3.32
   0   5  -7   -0.26    3.25
   0  -5  -7    0.24    1.84
   0   5  -7    3.16    3.29
   0   5   7    0.88    2.07
   0  -5  -7   -0.06    2.19
   0   5   8    0.34    1.70
   0  -5  -8   -0.48    2.61
   0  -5  -8    2.01    2.30
   0   5  -8    3.16    3.31
   0   5  -8   -1.62    2.42
   0  -5  -9   -1.66    1.80
   0   5  -9    1.24    1.95
   0   5  -9    0.76    0.14
   0  -5  -9    1.69    3.40
   0   5   9    1.28    3.23
   0   5  10    2.67    3.78
   0   5 -10    3.80    4.33
   0  -5 -10    1.31    1.56
   0   5 -10   -2.73    3.18
   0   5 -10   -0.20    0.22
   0  -5 -10    2.60    3.94
   0   5  11   -0.54    0.79
   0   5 -11    2.55    2.73
   0   5 -11   -1.05    2.65
   0   5 -11   -0.51    2.50
   0  -5 -11    0.10    1.31
   0  -5 -11    0.49    3.20
   0  -5 -12   -0.04    2.64
   0   5 -12   -0.38    2.90
   0   5 -12    4.86    4.85
   0   5  12    0.82    2.47
   0  -5 -12    0.23    2.77
   0   5 -12    0.76    3.55
   0   5 -13    0.86    0.88
   0   5  13    1.68    3.56
   0  -5 -13   -2.98    4.13
   0   5 -13   -2.37    3.16
   0   5 -13   -1.96    4.09
   0  -5 -13   -1.41    0.74
   0   5 -14   -1.06    6.55
   0   5 -14   -1.63    0.81
   0   5  14   -2.21    3.95
   0   5 -14    4.65    4.79
   0  -5 -14    2.16    3.71
   0  -5 -14   -0.50    2.63
   0   5 -15   -2.16    0.22
   0   5 -15    0.32    2.82
   0   5  15    0.10    0.75
   0  -5 -15    2.17    3.06
   0   5 -15    1.21    2.95
   0  -5 -15    0.02    3.84
   0  -5 -16    0.07    2.73
   0   5 -16    0.90    2.08
   0   5 -16    0.02    1.11
   0  -5 -16    0.13    3.47
   0   5 -16    1.63    3.72
   0  -5 -17    5.32    5.06
   0   5 -17   -1.58    4.14
   0   5 -17    4.07    3.39
   0  -5 -17    4.26    5.30
   0  -5 -18   -2.41    4.81
   0  -5 -18   -1.40    2.95
   0   5 -18   -2.99    2.83
   0   5 -18   -1.26    3.52
   0   5 -19    5.68    6.25
   0   5 -19   -2.27    3.23
   0  -5 -19    0.96    6.66
   0  -5 -19    1.30    1.15
   0  -5 -20    2.25    2.99
   0   5 -20   -0.92    2.92
   0  -5 -20    1.47    5.50
   0   5 -20    0.39    2.32
   0   5 -21    5.93    5.16
   0  -5 -21   -3.22    4.02
   0  -5 -21    1.83    4.44
   0   5 -21    1.04    3.46
   0   5 -22   -1.39    2.33
   0  -5 -22    0.38    4.29
   0  -5 -22    2.49    6.34
   0   5 -22    1.54    3.23
   0   5 -23   -0.07    2.66
   0   5 -23    2.26    2.39
   0  -5 -23   -2.41    2.74
   0  -5 -23   -1.65    3.89
   0  -5 -24   -0.85    3.51
   0  -5 -24    0.65    2.26
   0   5 -24    0.53    2.69
   0   5 -24    0.13    4.71
   0  -5 -25    2.52    3.06
   0   5 -25   -0.26    4.38
   0   5 -25    1.31    1.79
   0  -5 -25    2.39    4.79
   0  -5 -26    1.70    2.57
   0   5 -26   -0.52    1.69
   0   5 -26    4.34    7.65
   0  -5 -26   -1.56    3.97
   0  -5 -27   -2.35    6.21
   0   5 -27    2.87    3.39
   0   5 -27   -2.02    4.02
   0  -5 -27    2.79    6.16
   0   5 -28   -1.85    0.79
   0  -5 -28    0.17    6.93
   0   5 -28   -0.18    2.09
   0  -5 -28   -6.02    4.95
   0   5 -29    4.97    6.23
   0  -5 -29    4.70    5.31
   0   5 -29    0.80    3.80
   0  -5 -29   -8.88    7.08
   0   5 -30    5.23    4.82
   0  -5 -30    4.36    6.12
   0   5 -30   -5.30    6.69
   0  -5 -30   -3.46    1.71
   0   5 -31    2.80    5.36
   0   5 -31    7.01    8.76
   0  -5 -31   -4.40    6.01
   0  -5 -31    4.78    9.73
   0   6   0   12.62    4.95
   0   6   0    7.24    3.72
   0   6   1 3593.85   74.59
   0   6  -1 3420.53   69.37
   0   6  -2 1226.54   48.26
   0   6  -2 1026.29   38.80
   0  -6  -2 1050.13   32.59
   0   6   2  855.80   37.50
   0   6   2  688.97   32.97
   0   6  -3  184.91   18.84
   0   6  -3  173.34   16.37
   0   6   3  196.74   18.24
   0  -6  -3  182.09   13.97
   0   6  -4  456.38   28.32
   0   6   4  452.97   29.10
   0   6  -4  444.39   29.44
   0  -6  -4  451.51   22.35
   0  -6  -5   21.64    5.42
   0   6  -5   27.58    7.95
   0   6   5   22.91    7.06
   0  -6  -5   29.96    5.72
   0   6  -5   13.79    6.63
   0   6  -6    9.54    4.64
   0  -6  -6    7.89    3.31
   0   6   6   10.50    3.48
   0  -6  -6    9.99    4.31
   0   6  -6    9.90    4.24
   0  -6  -7  247.75   18.98
   0   6  -7  273.87   24.48
   0   6  -7  263.43   21.82
   0  -6  -8   27.09    7.37
   0   6   8   47.07   10.33
   0  -6  -8   24.12    6.18
   0   6  -8   20.94    6.27
   0   6  -8   28.51    8.09
   0  -6  -9   42.95   10.02
   0   6  -9   61.86   11.32
   0   6   9   41.55    8.98
   0  -6  -9   40.73    8.66
   0   6  -9   35.42    8.92
   0  -6 -10   62.32   11.54
   0  -6 -10   35.55    7.81
   0   6 -10   62.22   11.25
   0   6 -10   68.57   12.44
   0   6 -10   58.87   11.13
   0   6  10   59.28   12.00
   0   6 -11    2.25    4.07
   0   6 -11   -0.33    4.19
   0   6 -11    1.02    1.52
   0   6  11   -3.12    4.94
   0  -6 -11   -0.71    4.07
   0  -6 -11   -1.79    2.36
   0   6 -12 2153.37   71.68
   0  -6 -12 2080.15   72.26
   0  -6 -12 2176.18   67.13
   0   6 -13    7.32    6.21
   0  -6 -13    2.34    2.06
   0   6 -13   -1.19    5.09
   0   6 -13    4.87    4.38
   0  -6 -13    1.07    2.36
   0   6  13    2.16    0.69
   0   6 -14  140.89   19.36
   0  -6 -14  239.44   25.13
   0  -6 -14  175.58   19.96
   0   6 -14  174.45   20.89
   0   6 -14  232.41   23.84
   0   6  14  248.50   26.10
   0  -6 -15  495.60   35.13
   0   6 -15  457.78   34.38
   0  -6 -15  483.94   36.83
   0   6 -15  452.08   34.33
   0   6 -15  473.18   37.52
   0   6  15  537.35   37.29
   0   6  16   47.60   10.47
   0  -6 -16   40.50   11.14
   0   6 -16   57.10   12.64
   0   6 -16   28.31    8.48
   0  -6 -16   43.50   10.08
   0   6 -17   61.66   13.25
   0   6  17   63.26   14.28
   0   6 -17   35.34    8.82
   0  -6 -17   52.69   13.02
   0   6 -17   53.52   13.00
   0   6  18  215.23   24.55
   0   6 -18  276.34   30.10
   0   6 -18  272.25   28.77
   0   6 -18  229.34   25.96
   0  -6 -18  270.81   27.77
   0   6  19  153.02   20.98
   0   6 -19  173.64   23.14
   0  -6 -19  201.90   25.55
   0  -6 -19  154.45   22.10
   0  -6 -20   65.66   14.68
   0   6 -20   32.35    9.94
   0  -6 -20   38.51   11.19
   0   6  20   57.22   13.14
   0   6 -20   54.60   13.73
   0   6 -21  248.92   29.83
   0   6 -21  206.84   25.82
   0  -6 -21  153.68   23.27
   0  -6 -21  178.57   24.02
   0   6  21  181.13   23.54
   0  -6 -22  126.73   20.65
   0   6 -22   98.74   16.86
   0  -6 -22  104.22   19.02
   0   6 -22  122.95   20.85
   0   6  22   87.66   16.15
   0   6 -23    9.39    4.36
   0   6 -23   11.06    8.53
   0   6  23    2.25    1.91
   0  -6 -23    8.20    6.80
   0  -6 -23   -0.02    2.98
   0   6  24   17.71    6.88
   0  -6 -24   28.50    8.43
   0   6 -24   37.88   12.46
   0  -6 -24   20.67    9.91
   0   6 -24   39.54   12.26
   0   6  25   26.45    9.70
   0   6 -25   50.86   13.56
   0   6 -25   63.19   16.79
   0  -6 -25   54.15   14.37
   0  -6 -25   58.12   15.42
   0  -6 -26   57.14   14.83
   0   6 -26   56.97   15.17
   0   6  26   35.85   11.64
   0   6 -26   66.22   16.69
   0  -6 -26   53.88   14.80
   0  -6 -27   -0.36    4.58
   0   6 -27    3.17    5.75
   0   6 -27    6.66   11.20
   0  -6 -27   -1.15    5.18
   0   6  27   -3.01    4.96
   0  -6 -28   41.49   13.15
   0   6  28   50.42   14.56
   0   6 -28   28.97   13.44
   0  -6 -28   78.93   17.93
   0   6 -28   45.53   13.30
   0   6  29    0.65    1.30
   0   6 -29    7.93    8.09
   0   6 -29    2.61    7.56
   0  -6 -29   -0.27    3.44
   0  -6 -29    9.87    6.57
   0   6 -30   -2.39    4.17
   0  -6 -30   -0.31    1.55
   0   6 -30    4.10    8.49
   0  -6 -30    1.18    7.08
   0   6  30    5.45    5.85
   0   7   0    0.43    3.62
   0   7   0    0.81    1.60
   0   7   1   -0.35    2.98
   0   7  -1    0.36    2.13
   0   7   1    0.91    3.10
   0   7  -1   -0.37    1.47
   0   7  -2    1.09    3.59
   0   7  -2    0.36    4.07
   0   7   2    0.09    1.29
   0   7   2   -0.64    2.94
   0  -7  -3   -0.50    0.38
   0   7  -3    2.13    4.31
   0   7  -3   -0.45    1.47
   0   7   3    0.19    0.98
   0   7   3   -0.83    2.71
   0   7   4    0.41    2.22
   0   7  -4   -0.81    1.71
   0   7  -4   -1.01    3.62
   0  -7  -4   -0.85    1.40
   0   7   5    0.85    2.62
   0  -7  -5    1.91    2.98
   0   7  -5   -1.44    1.10
   0   7  -5    2.21    1.06
   0   7  -6   -0.03    5.15
   0   7  -6   -2.73    3.81
   0   7   6    0.41    4.03
   0  -7  -6    1.12    3.71
   0  -7  -6   -0.74    0.87
   0  -7  -7   -0.03    0.42
   0   7   7    0.31    1.48
   0  -7  -7    0.54    0.84
   0   7  -7   -0.74    1.54
   0   7  -7    1.39    4.35
   0   7  -8   -0.90    3.52
   0   7   8    1.25    4.80
   0  -7  -8   -0.72    1.12
   0  -7  -8   -1.04    1.25
   0   7  -8    3.01    3.86
   0   7  -9   -3.15    5.28
   0   7  -9    1.03    1.45
   0  -7  -9   -2.66    1.53
   0  -7  -9    0.73    0.88
   0   7   9    0.81    3.71
   0   7 -10    3.72    3.29
   0  -7 -10    2.42    4.04
   0   7  10    2.34    2.85
   0   7 -10   -2.18    1.18
   0  -7 -10   -0.75    1.05
   0   7 -11   -2.25    3.37
   0  -7 -11    0.19    4.66
   0   7 -11   -1.42    2.02
   0   7  11    2.74    3.12
   0  -7 -11    3.12    4.33
   0   7 -11    0.06    1.80
   0  -7 -12   -1.90    2.36
   0   7 -12   -3.73    4.43
   0  -7 -12    1.14    2.05
   0   7 -12    2.21    3.32
   0   7  12    0.05    3.54
   0   7 -12    4.86    4.64
   0   7 -13    1.01    2.53
   0   7  13    0.02    2.70
   0  -7 -13    2.93    3.57
   0   7 -13    4.73    4.97
   0   7 -13   -1.84    3.62
   0  -7 -13   -0.96    4.87
   0  -7 -14   -0.25    0.55
   0  -7 -14    3.09    2.51
   0   7 -14   -0.44    2.65
   0   7  14   -0.22    4.59
   0   7 -14   -1.01    3.72
   0   7 -14   -2.63    1.47
   0   7 -15   -0.67    2.52
   0  -7 -15   -1.45    3.96
   0   7  15    1.41    4.70
   0   7 -15    1.05    2.21
   0   7 -15    0.57    1.28
   0  -7 -15    5.83    5.62
   0   7 -16    7.86    7.16
   0   7 -16   -2.91    2.05
   0   7  16   -2.53    1.78
   0  -7 -16    2.12    3.91
   0  -7 -16   -3.45    3.85
   0   7 -16   -0.33    2.59
   0   7  17    2.51    2.69
   0   7 -17   -0.41    4.27
   0  -7 -17   -1.05    2.34
   0   7 -17    1.07    1.04
   0  -7 -17    0.83    4.53
   0   7 -17    3.71    3.86
   0   7 -18   -0.18    5.38
   0   7  18   -2.49    3.94
   0   7 -18    2.39    6.34
   0   7 -18   -0.66    4.77
   0  -7 -18    2.73    6.12
   0  -7 -18    1.12    1.92
   0   7 -19    2.31    4.85
   0  -7 -19    5.43    5.77
   0   7  19   -3.50    5.27
   0   7 -19    4.94    4.29
   0  -7 -19   -1.93    1.46
   0   7 -19   -0.33    3.47
   0   7  20    1.76    3.00
   0   7 -20   -1.59    2.05
   0  -7 -20   -0.83    3.34
   0  -7 -20    0.04    1.85
   0   7 -20    1.36    0.42
   0   7 -20    0.43    4.41
   0  -7 -21   -2.05    4.74
   0   7  21    2.67    5.88
   0  -7 -21   -4.29    6.13
   0   7 -21   -2.56    3.47
   0   7 -21   -0.63    2.05
   0  -7 -22    1.98    4.25
   0   7  22    2.83    5.04
   0  -7 -22   -3.27    4.12
   0   7 -22   -1.75    1.92
   0   7 -22   -1.13    2.91
   0   7  23    6.46    4.57
   0  -7 -23    0.83    4.09
   0   7 -23   -1.92    0.66
   0  -7 -23   -3.11    3.82
   0   7 -23    4.22    4.55
   0   7 -24    3.93    3.15
   0   7  24   -1.75    3.19
   0  -7 -24   -2.19    4.99
   0   7 -24    2.79    3.98
   0  -7 -24   -0.09    5.17
   0  -7 -25   -2.51    6.99
   0  -7 -25   -3.75    3.78
   0   7 -25   -4.45    5.23
   0   7  25    1.66    2.05
   0   7 -25    1.53    4.03
   0   7  26   -0.73    0.94
   0  -7 -26    5.36    6.42
   0   7 -26    2.16    3.75
   0   7 -26    1.42    4.72
   0  -7 -26    1.80    2.70
   0   7 -27   -4.72    4.83
   0   7 -27   -2.46    5.66
   0  -7 -27    0.62    2.48
   0   7  27   -5.26    4.79
   0  -7 -27   -2.52    4.04
   0  -7 -28   -8.10    9.05
   0  -7 -28    1.93    5.42
   0   7 -28   -2.58    5.01
   0   7  28   -3.22    4.63
   0   7 -28   -2.54    3.96
   0   7  29    5.12    6.01
   0  -7 -29    7.93    7.48
   0   7 -29    0.82    4.92
   0   7 -29    4.54    5.77
   0  -7 -29   -4.89    7.74
   0   8   0  338.15   25.28
   0   8   0  445.46   31.98
   0   8   1    9.87    5.08
   0   8  -1    8.97    4.23
   0   8   1    3.62    5.03
   0   8  -1    9.05    4.19
   0   8   2   41.59    9.29
   0   8  -2   28.74    7.71
   0   8  -2   10.06    4.91
   0   8   2   28.96    8.18
   0   8  -3   14.53    5.21
   0   8   3   16.69    6.96
   0   8   3   14.90    6.79
   0   8  -3   14.19    7.13
   0   8   4   94.22   14.16
   0   8  -4  110.21   16.57
   0  -8  -4  144.41   14.81
   0   8   4  138.72   16.83
   0   8  -4  148.43   18.49
   0   8  -5   63.21   12.51
   0  -8  -5   66.82   10.08
   0   8  -5   74.01   13.69
   0   8   5   53.81   11.66
   0   8  -6  152.95   18.28
   0   8  -6  194.71   22.23
   0   8   6  155.33   19.18
   0  -8  -6  140.42   15.12
   0   8   7  796.62   44.85
   0   8  -7  680.95   39.13
   0  -8  -7  725.68   34.40
   0   8  -8  230.24   22.99
   0   8  -8  217.97   24.41
   0  -8  -8  331.39   23.66
   0  -8  -8  321.77   28.60
   0   8   8  371.85   30.46
   0   8  -9  147.60   20.49
   0  -8  -9  146.41   16.37
   0   8  -9  186.45   21.47
   0   8   9  157.75   20.88
   0  -8  -9  129.66   17.88
   0  -8 -10  126.14   15.80
   0   8 -10   90.72   16.80
   0   8  10  106.05   17.94
   0   8 -10  103.98   16.66
   0   8 -11  928.74   52.05
   0   8  11 1162.06   60.06
   0  -8 -11  824.02   47.69
   0   8 -11  991.81   49.99
   0  -8 -11 1117.07   52.47
   0   8 -12   56.86   12.35
   0   8 -12   48.48   11.63
   0  -8 -12   28.32    8.04
   0   8 -12   54.70   12.13
   0   8  12   35.51    9.44
   0  -8 -12   55.74   12.86
   0   8 -13  134.37   20.29
   0  -8 -13   83.03   14.80
   0   8  13  103.66   18.07
   0  -8 -13  106.28   16.21
   0   8 -13   79.87   15.34
   0   8 -13  121.40   19.23
   0   8 -14  105.13   17.00
   0   8 -14   87.46   17.52
   0  -8 -14  109.07   17.07
   0   8 -14  102.87   17.12
   0   8  14   79.52   14.99
   0  -8 -14   80.64   13.97
   0   8  15  339.22   34.22
   0  -8 -15  486.85   36.66
   0  -8 -15  515.86   38.39
   0   8 -15  429.33   35.57
   0   8 -15  409.76   34.90
   0   8 -15  499.90   38.02
   0  -8 -16    6.62    4.19
   0   8  16    6.36    8.03
   0   8 -16    7.69    5.57
   0  -8 -16   17.99    6.88
   0   8 -16    4.82    6.31
   0   8 -16    3.28    2.84
   0   8 -17  409.29   37.31
   0   8 -17  298.66   30.81
   0  -8 -17  456.66   37.38
   0   8  17  330.19   34.51
   0   8 -17  336.57   33.18
   0  -8 -17  399.40   35.32
   0  -8 -18   47.08   12.14
   0   8 -18   56.05   12.88
   0   8  18   44.19   11.55
   0  -8 -18   59.73   14.69
   0   8 -18   37.65   11.75
   0   8 -18   76.80   15.66
   0   8 -19   96.04   18.52
   0   8 -19   82.90   16.40
   0  -8 -19  116.10   19.99
   0   8  19  122.21   21.10
   0   8 -19   91.97   19.94
   0  -8 -19  119.87   19.71
   0  -8 -20    8.53    3.72
   0   8  20    3.50    3.12
   0   8 -20    4.62    4.42
   0   8 -20   -3.79    4.54
   0   8 -20    2.03    8.24
   0  -8 -20    0.59    3.55
   0   8  21   77.91   16.54
   0   8 -21   94.68   19.01
   0   8 -21  137.34   23.15
   0  -8 -21   87.79   17.92
   0  -8 -21   95.94   19.44
   0   8 -21   76.73   16.98
   0   8 -22    2.86    6.50
   0   8 -22    1.88    5.82
   0  -8 -22   -0.02    3.83
   0  -8 -22    0.23    6.02
   0   8  22    4.61    6.36
   0   8 -23   47.03   14.15
   0   8  23   39.69   13.01
   0  -8 -23   73.32   16.14
   0   8 -23   49.89   13.87
   0  -8 -23   32.45   10.62
   0  -8 -24   11.90    6.78
   0   8 -24   20.37   10.63
   0  -8 -24   -2.04    5.87
   0   8  24    6.30    3.86
   0   8 -24    4.11    5.90
   0  -8 -25  108.30   20.56
   0   8  25   76.03   22.03
   0   8 -25   85.41   18.85
   0  -8 -25  106.99   21.23
   0   8 -25  113.98   22.40
   0  -8 -26    8.29    1.77
   0   8 -26    4.15    7.19
   0  -8 -26    9.25    4.58
   0   8  26    6.46    6.74
   0   8 -26    5.30    6.53
   0   8 -27    7.28    5.31
   0  -8 -27   14.76    8.47
   0   8  27   14.48    7.38
   0   8 -27    2.91    2.47
   0  -8 -27   27.17   12.23
   0   8 -28   -0.41    3.14
   0  -8 -28    1.17    1.62
   0  -8 -28    7.68    6.07
   0   8 -28   -3.99    6.58
   0   8  28   -0.60    2.78
   0   9   0   -2.60    4.35
   0   9   0    0.91    2.69
   0   9  -1    2.88    0.88
   0   9   1   -1.24    3.53
   0   9  -1    1.15    4.22
   0   9   1   -0.30    3.79
   0   9  -2   -1.37    3.45
   0   9   2   -0.58    4.29
   0   9   2   -1.75    3.97
   0   9  -2    1.67    2.66
   0   9  -3    3.99    5.09
   0   9   3    1.98    2.44
   0   9  -3   -3.09    1.01
   0   9   3    2.46    2.31
   0   9   4    2.50    5.38
   0   9  -4   -0.64    4.19
   0   9   4    1.49    3.73
   0   9  -4   -0.12    3.72
   0   9   5   -1.34    2.62
   0   9  -5   -0.49    2.04
   0  -9  -5   -1.08    2.08
   0   9   5    2.68    2.13
   0   9  -5   -1.94    3.27
   0  -9  -6    0.45    2.37
   0   9  -6    0.50    2.49
   0   9   6   -1.16    2.40
   0   9   6   -2.29    2.32
   0   9  -6   -3.86    5.04
   0   9  -7    3.66    1.76
   0   9  -7   -0.42    1.00
   0   9   7    1.44    1.14
   0  -9  -7    1.02    2.08
   0   9   8    1.82    1.06
   0   9  -8    4.62    4.65
   0  -9  -8    2.80    3.58
   0   9  -8    0.88    6.32
   0   9  -9   -1.49    2.69
   0  -9  -9    0.08    2.90
   0  -9  -9   -1.64    3.43
   0   9  -9   -0.93    1.31
   0  -9 -10   -0.51    3.01
   0   9 -10    0.02    3.24
   0  -9 -10    1.54    4.61
   0   9  10    1.03    2.88
   0   9 -10    3.39    1.75
   0   9 -11    0.37    2.28
   0  -9 -11    2.26    6.20
   0   9 -11   -0.49    2.89
   0   9 -11    1.30    4.45
   0  -9 -11    0.38    3.28
   0   9  11   -0.85    3.82
   0   9  12   -4.05    2.42
   0  -9 -12   -3.73    3.50
   0  -9 -12    1.39    2.39
   0   9 -12    0.21    3.31
   0   9 -12    6.79    6.17
   0   9 -12    1.60    3.52
   0  -9 -13   -2.19    5.10
   0   9  13   -3.90    6.18
   0   9 -13   -1.93    1.37
   0   9 -13   -2.82    3.94
   0  -9 -13    4.61    4.31
   0   9 -13    1.19    3.82
   0   9 -14    0.79    4.28
   0   9 -14    3.11    6.47
   0   9  14    2.65    3.33
   0  -9 -14   -0.38    3.23
   0  -9 -14    0.62    4.19
   0   9 -14    0.59    3.68
   0   9 -15   -2.85    4.09
   0   9 -15   -2.28    1.88
   0  -9 -15   -1.21    4.11
   0   9  15    0.11    6.10
   0   9 -15   -2.93    4.11
   0  -9 -15    3.90    5.42
   0  -9 -16   -0.76    1.45
   0   9  16   -2.24    5.84
   0   9 -16    2.26    5.22
   0   9 -16   -3.18    2.93
   0   9 -16    0.28    0.43
   0  -9 -16    2.91    4.44
   0   9 -17    0.51    2.53
   0  -9 -17   -0.32    3.05
   0  -9 -17    0.16    1.37
   0   9  17    3.24    4.33
   0   9 -17   -1.26    3.97
   0   9 -17    0.08    3.47
   0   9  18   -0.36    4.87
   0   9 -18   -2.30    4.70
   0   9 -18    2.97    6.11
   0  -9 -18   -1.05    2.37
   0   9 -18    6.37    6.33
   0  -9 -18   -1.85    1.34
   0   9  19   -7.62    4.37
   0  -9 -19   -0.35    4.21
   0   9 -19    0.54    4.10
   0   9 -19    2.03    4.20
   0   9 -19    5.73    6.05
   0  -9 -19   -3.44    4.33
   0   9  20   -0.65    4.91
   0   9 -20    4.19    5.79
   0   9 -20    0.04    3.90
   0  -9 -20    2.00    2.51
   0  -9 -20    0.57    3.18
   0   9 -20   -2.94    4.42
   0  -9 -21   -2.14    6.26
   0   9  21    0.87    4.89
   0   9 -21    1.68    5.76
   0   9 -21   -0.51    3.98
   0  -9 -21   11.37    6.24
   0   9 -21    4.26    4.49
   0   9 -22    1.50    3.71
   0  -9 -22    3.43    2.16
   0   9 -22   -2.77    2.58
   0   9  22    3.50    1.96
   0   9 -22    2.91    1.96
   0  -9 -23   -0.87    4.27
   0   9 -23    0.92    3.09
   0   9  23   -0.44    5.32
   0   9 -23   -3.47    5.75
   0   9  24   -0.58    3.64
   0   9 -24   -1.75    2.58
   0  -9 -24    0.34    3.93
   0   9 -24   -3.31    3.72
   0   9  25   -0.76    4.34
   0   9 -25   -5.04    3.17
   0  -9 -25   -7.14    5.26
   0   9  26   -0.58    5.06
   0  -9 -26    5.52    4.60
   0   9 -26   -7.39    8.22
   0   9 -26    2.65    2.76
   0   9 -27   -2.67    2.73
   0   9  27   -4.63    5.46
   0   9 -27   -0.88    1.46
   0  -9 -27   -0.18    2.98
   0  10   0   42.33   11.12
   0  10   0   10.69    5.19
   0  10  -1    8.85    2.00
   0  10   1    8.60    5.11
   0  10   1    7.77    4.35
   0  10  -1   10.26    4.56
   0  10   2    4.51    6.11
   0  10   2    6.94    5.55
   0  10  -2    2.01    2.36
   0  10  -2    7.37    4.71
   0  10   3   -1.32    1.59
   0  10   3   -0.49    2.34
   0  10  -3    0.49    1.14
   0  10  -3   -2.85    5.61
   0  10   4  148.78   20.47
   0  10  -4  145.67   20.60
   0  10  -4  186.17   24.33
   0  10   4  171.78   21.47
   0  10   5  159.43   20.35
   0  10   5  171.32   21.15
   0  10  -5  179.64   23.41
   0  10  -5  168.46   21.58
   0  10  -6   98.85   16.00
   0 -10  -6  104.38   14.11
   0  10   6  121.85   17.92
   0  10  -6  122.83   19.11
   0  10   6  137.46   19.40
   0  10  -7   46.78   10.46
   0 -10  -7   44.20    9.10
   0  10   7   42.13   11.33
   0  10   7   58.39   12.61
   0  10  -7   53.99   12.18
   0  10   8  412.83   34.11
   0  10  -8  467.87   35.65
   0  10  -8  419.25   36.35
   0 -10  -8  384.98   29.42
   0  10  -9   39.87   11.66
   0  10   9   36.46   10.95
   0 -10  -9   34.49    9.30
   0  10  -9   41.80   10.35
   0  10 -10    6.07    6.94
   0  10 -10    7.52    7.12
   0  10 -10    3.05    2.47
   0  10  10   -0.35    2.94
   0  10  11  209.99   25.81
   0  10 -11  200.81   26.20
   0  10 -11  201.96   25.62
   0 -10 -12   63.78   12.93
   0  10  12   46.04   13.80
   0  10 -12   46.62   12.00
   0  10 -12   59.59   12.96
   0  10 -12   21.13   10.25
   0  10  13   50.31   12.80
   0  10 -13   40.02   10.40
   0  10 -13   43.86   11.62
   0  10 -13   31.04    8.78
   0 -10 -13   47.54   11.80
   0  10  14  237.04   29.41
   0  10 -14  217.23   27.33
   0  10 -14  208.31   25.74
   0  10 -14  214.58   26.52
   0 -10 -14  206.74   26.71
   0  10 -15   10.83    8.90
   0  10 -15    3.70    2.24
   0 -10 -15    6.64    6.60
   0  10  15    4.15    2.10
   0  10 -15    0.08    3.44
   0  10 -16   -4.15    3.56
   0  10 -16    2.26    4.08
   0  10  16    2.68    3.51
   0  10 -16   -3.25    5.46
   0 -10 -16    0.20    1.90
   0  10 -17    2.33    4.00
   0  10  17    5.75    7.56
   0 -10 -17    1.46    4.05
   0  10 -17   -3.65    5.86
   0  10 -17   -2.18    6.61
   0  10 -18   81.86   16.81
   0  10  18   70.27   15.93
   0  10 -18   71.99   16.96
   0 -10 -18   84.09   17.69
   0  10 -18   27.09    9.66
   0  10 -19    4.63    6.67
   0  10  19    3.37    5.35
   0  10 -19    2.64    1.39
   0  10 -19    1.50    3.71
   0 -10 -19   11.91    7.34
   0 -10 -20    0.41    1.63
   0  10  20    8.70    7.68
   0  10 -20   -1.34    6.20
   0  10 -20    3.74    1.59
   0  10 -21   15.80    8.31
   0  10  21   13.45    7.34
   0 -10 -21   16.69    8.51
   0  10 -21   17.32    7.78
   0  10 -21    6.35    3.81
   0  10 -22  160.96   26.59
   0  10 -22  102.53   19.90
   0  10 -22  110.67   21.65
   0 -10 -22  138.28   23.17
   0  10  22  164.07   27.31
   0  10 -23    0.10    1.14
   0 -10 -23   -3.13    4.68
   0  10 -23   -1.39    6.35
   0  10 -23   -3.28    2.36
   0  10  23   -0.80    3.98
   0  10  24   12.54    9.21
   0 -10 -24    1.50    5.72
   0  10 -24    9.35    6.94
   0  10 -24    2.80    6.08
   0  10  25   16.65    9.37
   0 -10 -25   17.26    7.36
   0  10 -25   22.58    9.23
   0  10 -25   26.75    9.82
   0  10  26   15.84    8.62
   0 -10 -26   21.34    8.26
   0  10 -26   27.62   12.74
   0  10 -26   20.89   10.12
   0  11   0    0.02    3.52
   0  11   0   -1.26    5.37
   0  11   1    3.22    2.16
   0  11   1    0.91    2.77
   0  11  -1   -2.81    3.79
   0  11  -1    0.41    1.64
   0  11   2   -1.82    2.25
   0  11   2    2.21    1.45
   0  11  -2   -1.94    4.75
   0  11  -2   -1.53    4.77
   0  11   3   -1.24    4.33
   0  11  -3   -1.41    1.85
   0  11  -3   -1.47    1.17
   0  11   3    4.47    4.12
   0  11   4    8.27    6.05
   0  11   4   -1.30    3.27
   0  11  -4   -3.49    3.33
   0  11  -4   -2.51    4.19
   0  11   5    0.30    1.19
   0  11  -5    3.25    3.99
   0  11   5   -2.18    4.60
   0  11  -5    0.79    4.03
   0  11  -6   -0.47    4.60
   0  11   6    4.08    3.87
   0  11  -6    1.92    3.81
   0  11   6    1.29    4.10
   0  11  -7   -2.56    6.29
   0  11   7   -0.86    0.79
   0  11   7    5.11    4.88
   0  11  -7   -1.91    4.65
   0  11  -8    0.29    4.69
   0  11   8   -1.60    3.81
   0  11   8    0.91    3.61
   0  11  -8    0.62    2.10
   0  11   9    1.76    3.91
   0  11  -9    0.26    1.08
   0  11   9   -2.46    3.50
   0  11  -9    1.53    3.99
   0  11 -10   -2.03    1.46
   0  11  10    2.60    4.74
   0  11 -10    2.24    1.78
   0  11  11   -3.00    3.42
   0  11 -11   -1.05    3.13
   0  11 -11    0.83    2.35
   0  11 -12    1.65    0.43
   0  11 -12   -0.43    3.62
   0  11  12    0.96    1.11
   0  11  13   -7.17    7.84
   0  11 -13    1.98    2.14
   0  11 -13   -2.36    2.38
   0  11 -14    0.59    5.89
   0  11 -14   -1.34    3.02
   0  11  14    0.63    2.61
   0 -11 -14   -3.93    3.26
   0  11 -15   -3.63    2.90
   0  11 -15    1.69    3.17
   0 -11 -15    1.67    2.36
   0  11  15   -2.05    0.48
   0  11 -16    4.29    7.35
   0  11 -16    2.09    1.37
   0 -11 -16   -2.37    3.56
   0  11  16   -3.88    5.72
   0 -11 -17   -0.50    0.98
   0  11  17   -4.56    6.63
   0  11 -17   -2.92    4.70
   0  11 -17   -1.30    0.62
   0  11 -18    2.31    1.89
   0  11 -18   -4.39    5.38
   0 -11 -18    1.52    2.15
   0  11  18    1.68    1.63
   0 -11 -19    0.93    4.96
   0  11 -19   -1.29    1.54
   0  11  19   -1.29    5.46
   0  11 -19    2.76    1.25
   0  11 -20   -3.27    5.08
   0  11 -20   -0.99    2.99
   0  11  20    3.24    5.14
   0 -11 -20   -4.98    6.25
   0  11 -21  -10.77    6.49
   0 -11 -21    3.66    7.34
   0  11 -21    2.02    3.64
   0  11  21    0.73    7.57
   0  11 -21   -2.00    3.24
   0  11  22   -1.88    2.76
   0  11 -22   -4.89    4.39
   0  11 -22   -0.03    4.31
   0  11 -22    1.12    4.80
   0 -11 -22    4.21    5.53
   0  11 -23  -14.09    7.49
   0  11 -23    6.22    7.17
   0  11 -23   -1.53    5.02
   0 -11 -23   -1.05    4.73
   0  11  23    4.89    8.24
   0  11 -24   -6.21    8.28
   0  11 -24   -2.65    6.59
   0  11  24    1.00    1.18
   0 -11 -24   -5.42    1.87
   0  12   0   85.62   15.31
   0  12   0   45.59   12.76
   0  12   1   14.12    7.16
   0  12   1    0.72    3.93
   0  12  -1    3.35    2.32
   0  12  -1   13.25    7.38
   0  12   2   -3.30    5.18
   0  12   2    2.14    2.25
   0  12  -2   -0.08    1.08
   0  12  -2   -1.38    4.35
   0  12  -3   68.48   15.68
   0  12   3   59.95   15.40
   0  12  -3   25.72    7.11
   0  12  -4    2.59    1.32
   0  12  -4   -0.77    3.09
   0  12   4   -0.43    4.38
   0  12   4    9.88    7.65
   0  12  -5   56.96   14.60
   0  12   5   39.41   10.80
   0  12  -5   46.45   12.99
   0  12   5   55.79   14.04
   0  12   6   10.96    7.39
   0  12   6    7.78    5.52
   0  12  -6   12.81    6.08
   0  12  -6    5.48    4.15
   0  12  -7   17.84    6.71
   0  12  -7   11.28    6.34
   0  12  -8   10.94    5.62
   0  12   8   -0.70    1.61
   0  12  -8    5.16    4.61
   0  12   8   14.27    6.04
   0  12  -9   15.07    8.25
   0  12   9   18.64    8.92
   0  12  -9   19.75    8.98
   0  12   9    3.50    3.24
   0  12 -10  164.86   23.78
   0  12  10  114.41   19.37
   0  12 -10  181.70   27.06
   0  12  10  191.92   25.31
   0  12  11   67.61   15.31
   0  12 -11   66.57   15.61
   0  12  11   89.91   17.38
   0  12 -11   99.86   18.87
   0  12 -12   18.29    8.19
   0  12  12   12.36    7.56
   0  12  12   13.25    6.14
   0  12 -12   15.39    8.19
   0  12 -13    0.62    2.95
   0  12  13    3.06    4.04
   0  12 -13    0.56    3.61
   0  12 -14   17.08    8.30
   0  12  14   15.62    8.10
   0  12 -14   14.60    7.18
   0  12 -15    2.92    2.79
   0  12 -15    1.07    3.80
   0  12  15   -1.40    3.37
   0  12 -16    6.50    7.10
   0  12 -16   -5.40    5.27
   0  12  16   -0.98    2.52
   0 -12 -17    0.29    3.23
   0  12 -17    0.02    0.90
   0  12  17    7.85    5.51
   0  12 -17   10.60    5.79
   0 -12 -18   13.37    8.35
   0  12 -18    6.82    4.18
   0  12 -18    2.58    6.11
   0  12  18    2.21    2.79
   0  12 -19   -2.80    4.85
   0  12 -19   -5.20    6.58
   0  12  19   -2.13    2.94
   0 -12 -19    1.41    6.12
   0 -12 -20   14.04    8.95
   0  12 -20    5.13    6.38
   0  12  20    2.83    2.51
   0  12 -20    7.58    2.11
   0  12 -21   17.74    8.49
   0  12  21   14.44    9.10
   0 -12 -21   32.42   10.22
   0  12 -21   13.05    6.88
   0  12  22   -0.39    4.93
   0 -12 -22    5.89    5.78
   0  12 -22   11.18    9.60
   0  12 -22    5.32    3.81
   0  13   0   -2.91    3.06
   0  13   0    2.86    4.16
   0  13  -1    8.55    8.62
   0  13   1    2.66    4.41
   0  13   1   -2.19    7.69
   0  13  -1    0.16    3.60
   0  13   2    1.97    1.85
   0  13   2    1.59    6.49
   0  13  -2   -3.22    2.59
   0  13  -2    0.12    2.76
   0  13  -3   -1.60    1.68
   0  13   3   -0.85    3.05
   0  13  -3    2.38    5.90
   0  13   3   -0.66    3.79
   0  13   4    7.78    7.47
   0  13   4    2.83    7.12
   0  13  -4    2.01    1.15
   0  13  -4    2.97    7.14
   0  13  -5    2.43    6.59
   0  13  -5    5.97    6.71
   0  13   5    2.22    3.53
   0  13   5    4.60    5.37
   0  13   6    0.62    2.80
   0  13  -6    6.43    5.34
   0  13   6   -0.98    1.73
   0  13  -6   -2.28    4.18
   0  13  -7    8.26    7.45
   0  13   7    1.08    2.54
   0  13   7   -2.63    6.06
   0  13  -7    1.71    3.65
   0  13   8    7.64    5.94
   0  13  -8    2.74    6.82
   0  13  -8   -2.95    3.86
   0  13   8   -2.04    3.27
   0  13  -9    4.85    1.75
   0  13   9    1.81    2.50
   0  13   9    5.37    7.29
   0  13  -9    1.38    3.91
   0  13 -10   -5.04    7.22
   0  13  10   -4.38    7.07
   0  13  10   -0.42    1.87
   0  13 -10   -0.61    0.89
   0  13 -11   -1.18    4.72
   0  13 -11   -0.63    1.91
   0  13  11    4.68    6.11
   0  13  11    4.97    7.52
   0  13 -12   -3.63    3.23
   0  13 -12   -1.59    4.04
   0  13  12   -2.36    5.20
   0  13  12    7.39    5.52
   0  13  13    2.97    5.71
   0  13  13    1.38    1.33
   0  13 -13    1.91    2.33
   0  13 -13    4.76    5.05
   0  13  14    0.53    3.79
   0  13 -14    0.64    2.39
   0  13  14   -0.25    0.50
   0  13 -14   -2.22    2.04
   0  13  15   -1.55    3.89
   0  13 -15    2.32    3.05
   0  13 -15    5.72    5.91
   0  13  16   -6.46    7.49
   0  13 -16   -5.15    6.79
   0  13 -16   -1.57    6.07
   0  13 -17   -1.52    4.75
   0  13  17    0.29    1.60
   0  13 -17    0.86    7.10
   0  13 -18    2.75    1.82
   0  13  18   -2.72    5.03
   0  13 -18   -2.60    4.17
   0  13  19   -5.03    5.49
   0  13 -19   -0.08    4.65
   0  13 -19    1.67    2.51
   0  13 -20    2.17    6.04
   0  13  20    0.31    4.68
   0  13 -20    3.94    7.31
   0  14   0   30.13   10.23
   0  14   0   13.83    7.33
   0  14   1   25.03    9.50
   0  14  -1   22.58   11.31
   0  14   1   31.07   10.57
   0  14  -1   30.62   10.56
   0  14   2   -3.87    5.34
   0  14  -2   -5.21    8.18
   0  14   2   -1.33    3.25
   0  14  -2    8.88    7.21
   0  14  -3    6.71    7.23
   0  14   3   -1.79    3.63
   0  14  -3   -0.02    5.30
   0  14   3    7.10    2.51
   0  14  -4   10.73    7.46
   0  14   4    5.77    3.48
   0  14  -4   12.15    5.48
   0  14   4    8.18    4.97
   0  14   5    2.08    2.67
   0  14  -5    3.71    5.64
   0  14  -6   24.52    7.91
   0  14   6   22.15    9.23
   0  14  -6   18.58    8.18
   0  14   6   20.73    9.34
   0  14   7   59.53   15.20
   0  14  -7   30.37    9.81
   0  14  -7   45.89   12.71
   0  14   7   39.43   14.04
   0  14   8   24.41   11.78
   0  14   8   63.05   15.13
   0  14  -8   34.10   10.24
   0  14  -8   22.94   10.29
   0  14  -9   -3.49    2.94
   0  14   9   -1.31    4.46
   0  14   9    4.35    0.76
   0  14  -9    8.51    8.19
   0  14  10   27.09    9.31
   0  14 -10   52.32   14.79
   0  14 -10   34.83   11.58
   0  14  10   28.06   10.50
   0  14 -11    8.51    7.05
   0  14 -11    3.79    8.36
   0  14  11   -1.25    1.55
   0  14  11   -4.64    4.02
   0  14  12    7.33    6.89
   0  14 -12   -2.80    5.65
   0  14 -12    7.86    5.69
   0  14  12    7.37    3.85
   0  14 -13   25.41    9.45
   0  14  13   28.68   11.30
   0  14  13   34.79   12.17
   0  14 -13   57.13   14.79
   0  14 -14    5.15    6.95
   0  14  14    0.35    2.57
   0  14 -14   19.00    8.86
   0  14  14    9.10    8.07
   0  14 -15    4.62    2.06
   0  14 -15    6.37    7.21
   0  14  15    0.67    2.88
   0  14  15   -0.91    3.63
   0  14 -16   -3.47    6.48
   0  14 -16   -5.23    9.93
   0  14  16    1.12    1.67
   0  14  16    1.64    5.23
   0  14  17    2.02    0.83
   0  14  17    3.86    7.72
   0  14 -17    7.70    7.28
   0  14 -17    2.01    2.33
   0  15   0   -1.50    4.80
   0  15   0    7.63    6.91
   0  15  -1   -2.90    5.37
   0  15  -1   -3.83    5.82
   0  15   1    2.66    4.58
   0  15   1    1.01    6.11
   0  15   2   -1.47    4.65
   0  15  -2   -1.48    2.25
   0  15  -2   -0.63    4.00
   0  15   2   -7.90    6.89
   0  15  -3   -0.43    8.44
   0  15  -3    6.61    4.31
   0  15   3    4.60    4.38
   0  15   3    0.16    3.63
   0  15   4    6.57    7.65
   0  15   4    3.68    4.99
   0  15  -4   -8.98    8.99
   0  15  -4   -1.00    5.80
   0  15   5   -1.63    2.48
   0  15  -5   -2.36    1.87
   0  15   5   -1.77    3.60
   0  15  -5   -8.05    8.56
   0  15   6   -2.31    2.79
   0  15   6   -2.98    7.11
   0  15  -6    7.38    8.27
   0  15  -6   -2.26    5.53
   0  15   7    1.90    3.05
   0  15   7    6.50    7.58
   0  15  -7   -2.67    3.17
   0  15  -7    1.92    6.56
   0  15  -8   -1.94    8.21
   0  15   8   -2.90    4.41
   0  15   8    2.95    2.69
   0  15  -8    4.71    3.22
   0  15   9   -3.22    4.89
   0  15   9    2.18    8.23
   0  15  -9   10.85    9.63
   0  15  -9    5.34    6.13
   0  15 -10    5.11    5.53
   0  15 -10   -4.95    5.73
   0  15  10   -4.11    6.77
   0  15  10   -4.29    6.29
   0  15 -11    4.94    7.25
   0  15 -11    4.51    4.18
   0  15  11   -2.81    5.81
   0  15  11    0.75    2.42
   0  15  12   -6.89    6.68
   0  15 -12   -7.86    6.89
   0  15 -12    9.24    8.59
   0  15  12   -6.44    8.82
   0  15 -13   -2.13    6.35
   0  15  13   -0.37    4.49
   0  15 -13   -1.99    4.10
   0  15  13   -5.80    5.85
   0  15 -14    3.76    5.91
   0  15  14   -1.64    1.22
   0  15 -14   13.32   10.45
   0  15  14    5.97    6.85
   0  16   0   49.33   14.44
   0  16   0   66.51   17.83
   0  16   1   -4.89    6.54
   0  16  -1   -7.22    9.40
   0  16  -1    0.08    6.02
   0  16   1   -6.75    4.69
   0  16   2    2.71    3.46
   0  16   2    6.03    7.21
   0  16  -2   -0.08    3.28
   0  16  -2   -0.90    3.39
   0  16  -3    3.92    5.47
   0  16  -3    9.26    2.04
   0  16   3    7.97    7.02
   0  16   3    1.93    4.37
   0  16   4  123.97   23.17
   0  16  -4   86.62   19.55
   0  16  -4   90.35   19.32
   0  16   4   78.01   19.59
   0  16  -5    6.36    3.93
   0  16  -5    2.44    3.43
   0  16   5    0.93    4.20
   0  16   5   -3.49    1.20
   0  16  -6   -0.96    3.68
   0  16  -6   -0.13    5.45
   0  16   6   -2.80    3.43
   0  16   6    5.20    5.93
   0  16  -7    5.33    3.87
   0  16  -7   12.17    6.22
   0  16   7    1.25    1.96
   0  16   7    5.81    2.59
   0  16  -8   -2.91    4.89
   0  16   8    2.39    3.79
   0  16   8    1.43    3.40
   0  16  -8    8.87    9.30
   0  16   9   13.96    7.94
   0  16  -9   11.87    8.91
   0  16  -9    6.81    5.98
   0  16   9    9.42    6.84
  -1   0   0   -0.41    0.67
  -1   0  -1    0.13    0.41
   1   0  -1   -0.46    0.39
  -1   0  -2 2252.34   25.33
   1   0  -2 2502.62   31.24
  -1   0  -3    1.12    1.02
   1   0  -3    0.24    0.88
  -1   0  -3   -0.06    0.76
   1   0  -4 1442.27   31.18
  -1   0  -4 1597.68   30.13
   1   0  -5    0.72    1.11
  -1   0  -5   -0.25    0.14
  -1   0  -5   -1.17    1.18
   1   0  -6 3023.91   55.86
  -1   0  -6 2983.80   55.87
   1   0  -7   -0.76    1.65
  -1   0  -7    0.65    1.73
   1   0  -7   -1.29    1.77
  -1   0  -7   -2.27    2.28
   1   0  -8 2699.08   59.60
  -1   0  -8 2664.21   59.64
  -1   0  -9   -1.62    1.85
  -1   0  -9   -0.27    1.89
   1   0  -9   -0.52    3.02
   1   0  -9    1.07    2.83
  -1   0 -10    3.12    2.98
  -1   0 -10    7.41    4.59
   1   0 -10    2.08    2.42
   1   0 -10    4.64    2.79
  -1   0 -11    1.48    2.13
   1   0 -11   -1.86    2.51
  -1   0 -11   -0.43    3.11
   1   0 -11    2.13    2.80
  -1   0 -12 1196.07   47.21
  -1   0 -12 1065.02   45.44
  -1   0 -13    0.23    3.00
   1   0 -13    1.35    2.19
  -1   0 -13   -0.46    2.70
   1   0 -13    1.40    3.41
  -1   0 -14  507.01   33.08
  -1   0 -14  517.95   33.52
   1   0 -14  496.74   33.11
   1   0 -14  463.50   29.78
  -1   0 -15   -1.64    4.41
   1   0 -15    1.09    1.07
  -1   0 -15    0.98    0.90
   1   0 -15    3.31    3.40
   1   0 -16 1342.22   55.74
  -1   0 -16 1281.46   58.07
  -1   0 -16 1461.98   59.88
   1   0 -16 1406.87   60.29
   1   0 -17    1.93    1.45
  -1   0 -17    1.38    7.10
  -1   0 -17   -2.50    1.18
   1   0 -17    1.86    4.92
   1   0 -18    0.53    3.38
  -1   0 -18    0.84    5.45
   1   0 -18    0.34    2.94
  -1   0 -18   -1.74    2.21
   1   0 -19   -0.90    3.44
   1   0 -19    2.87    0.71
  -1   0 -19   -1.87    3.26
  -1   0 -19    2.93    3.38
   1   0 -20   37.12   11.16
   1   0 -20   57.76   13.03
  -1   0 -20   43.56   11.80
  -1   0 -20   74.18   14.60
  -1   0 -21   -2.78    1.82
  -1   0 -21    3.28    2.03
   1   0 -21    1.59    5.45
   1   0 -21    1.59    2.48
   1   0 -22   26.52    9.52
   1   0 -22   45.68   11.60
  -1   0 -22   48.01   12.26
  -1   0 -22   22.73    8.71
   1   0 -23   -0.21    2.29
  -1   0 -23   -0.35    5.08
   1   0 -23    0.61    5.85
  -1   0 -23    1.33    2.96
  -1   0 -24  216.86   29.05
   1   0 -24  179.00   24.74
   1   0 -24  209.01   27.38
  -1   0 -24  140.63   22.63
  -1   0 -25    8.50    5.31
  -1   0 -25    9.36    7.38
   1   0 -25    0.04    4.25
   1   0 -25   -2.51    3.39
   1   0 -26  199.28   26.85
  -1   0 -26  222.73   30.28
   1   0 -26  228.02   29.70
  -1   0 -26  167.05   25.59
   1   0 -27   -0.36    5.36
  -1   0 -27    8.41    8.28
   1   0 -27    0.14    4.25
  -1   0 -27   -0.75    2.16
  -1   0 -28    4.00    0.34
   1   0 -28    5.77    5.25
  -1   0 -28    4.33    3.75
   1   0 -28   -3.93    3.66
  -1   0 -29   -0.71    2.05
   1   0 -29    1.52    7.08
   1   0 -29   -1.79    1.47
  -1   0 -29   -6.22    5.87
  -1   0 -30   20.22    9.90
   1   0 -30    8.20    2.95
  -1   0 -30   25.98   12.47
   1   0 -30    6.93    4.46
  -1   0 -31    3.98    6.09
  -1   0 -31    5.23    9.49
   1   0 -31    7.13    6.71
   1   0 -31    0.48    3.30
   1   0 -32    5.21    6.65
   1   0 -32    2.75    3.88
  -1   0 -32    0.03    6.88
  -1   0 -32   -6.55    9.04
  -1  -1   0    0.23    0.71
   1   1   0   -0.47    0.80
  -1   1   0   -0.35    0.41
   1   1   0   -0.14    0.57
   1   1  -1 1011.59   21.91
   1  -1  -1  915.93   16.37
  -1   1  -1 1062.74   21.21
  -1  -1  -1  775.40   19.43
   1   1  -1 1116.99   17.23
   1   1  -2 2996.05   38.95
   1   1  -2 3134.80   33.36
   1  -1  -2 2934.87   34.61
  -1  -1  -2 2783.06   35.10
  -1   1  -2 2606.80   34.48
  -1   1   2 2686.23   34.11
   1  -1  -3  486.87   16.73
  -1   1  -3  569.31   14.65
  -1  -1  -3  454.86   16.65
  -1   1  -3  432.74   15.38
   1   1  -3  356.30   15.25
   1   1  -3  333.78   12.13
  -1   1  -3  532.80   17.87
  -1  -1  -3  482.95   17.75
  -1  -1  -4  192.20   11.78
   1  -1  -4  130.07    8.95
   1   1  -4  199.53   13.06
  -1   1  -4  165.33    9.72
   1  -1  -4  184.62   11.59
  -1   1  -4   84.11    8.37
   1   1  -4  104.84    8.49
  -1   1  -4  161.11   10.69
  -1  -1  -4  138.28    9.91
  -1   1  -5  554.23   21.93
   1   1  -5  426.82   18.62
  -1  -1  -5  534.64   21.43
   1   1  -5  463.01   20.12
  -1   1  -5  571.67   20.18
   1  -1  -5  557.19   22.02
  -1   1  -5  503.93   22.59
   1  -1  -5  547.75   19.91
  -1  -1  -6  123.37   11.78
  -1   1  -6  119.48   11.81
   1   1  -6  109.53   10.43
  -1   1  -6   95.72    9.86
  -1  -1  -6  106.42   10.52
   1  -1  -6   89.06    8.99
   1  -1  -6  101.45   10.32
  -1   1  -6   92.92    8.90
  -1  -1  -7  418.22   23.33
  -1   1  -7  363.78   20.91
   1   1  -7  370.22   20.64
   1  -1  -7  395.46   21.87
   1  -1  -7  324.47   18.23
  -1  -1  -7  371.58   21.28
  -1   1  -7  385.74   19.77
   1  -1  -8  284.16   18.18
  -1  -1  -8  298.04   20.80
   1  -1  -8  321.44   20.71
  -1   1  -8  288.32   18.34
   1   1  -8  302.98   19.78
  -1  -1  -8  347.17   21.61
  -1  -1  -9   47.47    8.29
   1  -1  -9   55.61    8.35
  -1   1  -9  140.20   14.82
  -1   1  -9   59.26    8.91
   1   1  -9   64.35    9.56
   1  -1  -9   93.43   11.67
  -1  -1  -9  101.02   12.14
   1   1  -9   94.80   11.72
  -1   1 -10   25.34    6.47
   1   1 -10   41.67    8.65
   1  -1 -10   15.94    4.38
   1  -1 -10   29.14    6.85
  -1  -1 -10   24.97    6.45
  -1   1 -10   34.32    7.59
  -1  -1 -10   29.39    7.69
   1   1 -10   22.21    6.77
   1  -1 -11  223.70   20.11
   1   1 -11  179.06   18.24
  -1  -1 -11  198.39   19.31
  -1  -1 -11  233.67   19.51
  -1   1 -11  204.40   18.59
  -1   1 -11  230.50   20.43
   1  -1 -11  181.69   16.66
   1   1 -11  255.90   20.82
  -1   1 -12   35.31    7.62
  -1  -1 -12   41.55    8.68
   1  -1 -12   39.23    8.26
   1   1 -12   37.23    8.82
   1  -1 -12   53.22   10.38
   1   1 -12   30.63    7.36
  -1   1 -12   67.96   11.69
  -1  -1 -12   54.56   10.71
  -1   1 -13  626.51   34.64
  -1  -1 -13  508.54   33.19
   1   1 -13  619.14   36.00
  -1   1 -13  391.95   28.65
   1   1 -13  702.95   36.61
   1  -1 -13  380.35   26.47
   1  -1 -13  533.49   32.96
  -1  -1 -13  381.90   27.86
  -1  -1 -14   63.75   12.11
  -1   1 -14   72.73   12.42
   1  -1 -14   60.20   11.82
  -1  -1 -14   59.59   11.38
   1   1 -14   43.69    9.40
   1   1 -14   46.37   10.31
  -1   1 -14   57.32   11.62
   1  -1 -14   44.38    9.61
  -1  -1 -15   70.20   13.06
   1  -1 -15   55.89   11.55
   1   1 -15   55.98   11.09
  -1   1 -15   44.97   10.16
   1  -1 -15   53.16   10.57
  -1   1 -15   60.11   12.10
  -1  -1 -15   78.62   13.22
  -1  -1 -16  132.12   17.97
   1  -1 -16  171.12   19.75
   1   1 -16  103.84   16.57
   1   1 -16   83.87   13.36
   1  -1 -16  107.11   16.51
  -1  -1 -16  132.69   18.35
  -1   1 -16  172.29   20.44
  -1   1 -16  116.33   16.62
   1  -1 -17  441.55   33.89
   1   1 -17  643.09   39.28
  -1  -1 -17  602.98   39.51
  -1  -1 -17  680.80   43.18
   1  -1 -17  692.13   43.06
  -1   1 -17  485.17   35.73
  -1   1 -17  494.10   35.58
   1  -1 -18   -0.15    5.66
   1   1 -18   -0.03    1.89
  -1  -1 -18    0.32    2.13
   1  -1 -18   -1.55    2.67
  -1   1 -18    4.53    3.47
  -1  -1 -18   -5.93    5.91
  -1   1 -18   -4.11    5.46
   1   1 -18    0.76    2.82
   1  -1 -19    3.68    4.26
  -1  -1 -19    6.88    4.79
  -1   1 -19   10.34    6.53
   1   1 -19    8.21    5.91
   1  -1 -19    3.96    2.06
   1   1 -19    8.70    4.18
  -1  -1 -19    8.54    2.35
  -1   1 -19   10.81    5.63
  -1   1 -20  336.29   31.68
  -1  -1 -20  347.31   32.88
   1  -1 -20  409.63   35.55
   1   1 -20  324.31   30.93
  -1  -1 -20  250.15   28.77
   1   1 -20  207.50   24.26
  -1   1 -20  421.37   35.70
   1  -1 -20  195.61   24.93
  -1  -1 -21   -0.74    2.24
  -1   1 -21    0.27    1.52
  -1   1 -21   -2.13    4.80
   1  -1 -21   -3.16    6.06
   1   1 -21    1.61    3.52
  -1  -1 -21    8.99    6.30
   1  -1 -21   -2.22    4.81
   1   1 -21   -0.04    4.54
  -1   1 -22   44.50   11.60
  -1   1 -22   48.15   13.05
  -1  -1 -22   55.05   13.82
   1   1 -22   25.95    9.46
   1  -1 -22   43.04   12.02
  -1  -1 -22   78.46   15.96
   1   1 -22   55.22   14.29
   1  -1 -22   49.36   12.42
  -1   1 -23   56.17   13.28
   1   1 -23   53.26   14.08
   1  -1 -23   59.05   14.74
  -1  -1 -23   43.19   12.25
   1  -1 -23   52.85   12.80
   1   1 -23   56.27   13.44
  -1   1 -23   63.19   14.84
  -1  -1 -23   23.99   10.49
  -1  -1 -24    1.49    4.78
   1  -1 -24    1.74    1.24
   1   1 -24   -5.30    3.23
  -1   1 -24    8.83    9.15
  -1   1 -24   10.20    9.25
   1   1 -24   -0.76    4.43
  -1  -1 -24   -1.54    1.87
   1  -1 -24   -3.56    1.89
  -1   1 -25   45.79   12.69
  -1   1 -25   56.13   14.31
  -1  -1 -25   67.61   16.66
   1  -1 -25   34.89   11.62
   1   1 -25   55.94   13.85
  -1  -1 -25   71.62   17.35
   1   1 -25   65.22   15.22
   1  -1 -25   43.64   13.14
  -1  -1 -26   50.83   14.88
  -1   1 -26   41.79   13.36
   1   1 -26   22.78    9.88
   1  -1 -26   51.82   13.63
  -1  -1 -26   53.30   14.81
  -1   1 -26   35.69   12.62
   1   1 -26   31.14   12.56
   1  -1 -26   48.63   13.14
   1  -1 -27    0.95    3.97
  -1  -1 -27   -1.89    5.79
   1   1 -27    3.72    2.71
  -1   1 -27    0.94    2.75
  -1   1 -27    2.45    0.90
   1  -1 -27   -4.31    6.18
   1   1 -27    3.66    4.11
  -1  -1 -27    2.56    7.07
   1   1 -28    7.20    6.32
   1  -1 -28   -7.92    7.76
   1  -1 -28    6.59    3.25
  -1  -1 -28   -0.71    6.19
  -1   1 -28    0.88    3.98
  -1  -1 -28    0.73    2.08
  -1   1 -28   -3.16    3.21
   1   1 -28    6.84    8.72
   1  -1 -29   -0.18    2.91
   1   1 -29   -0.91    5.02
   1   1 -29   -1.03    3.00
  -1  -1 -29    9.84    8.88
  -1   1 -29    6.71    9.91
   1  -1 -29   -6.62    7.54
  -1   1 -29    7.56    8.77
  -1  -1 -29   -3.26    7.26
   1   1 -30    4.85    5.93
   1   1 -30    8.27    7.11
  -1   1 -30    0.30    1.37
   1  -1 -30    2.38    7.56
  -1  -1 -30   -7.86    8.78
  -1   1 -30    8.94    6.27
   1  -1 -30    2.07    5.11
  -1  -1 -30   -5.75    7.17
  -1   1 -31    1.24    4.87
  -1   1 -31    3.11    4.45
   1  -1 -31    3.95    5.55
   1   1 -31    3.99    3.78
   1  -1 -31    2.22    2.22
  -1  -1 -31   -0.11    2.36
  -1  -1 -31   -1.70    4.79
   1   1 -31    9.75    4.52
  -1   1 -32    2.94    7.33
   1   1 -32   15.98    5.64
   1   1 -32    6.50    6.50
   1  -1 -32   26.90   12.92
  -1  -1 -32   16.09    8.93
   1  -1 -32    9.54    5.38
  -1   1 -32   12.24    7.72
  -1  -1 -32   16.71    7.96
  -1   2   0   -1.10    0.35
   1   2   0   -0.08    0.90
  -1  -2   0   -0.33    0.34
   1   2   0   -0.78    0.80
   1   2  -1   79.27    6.60
  -1  -2  -1  109.05    8.37
   1  -2  -1   73.31    5.51
  -1   2  -1   75.88    4.82
   1   2   1  117.20    8.72
   1   2   1  100.21    7.92
  -1   2  -1   89.47    7.84
   1   2  -1  114.16    8.33
  -1   2   1   95.58    7.44
  -1  -2  -2  402.27   16.76
   1   2   2  415.91   17.45
  -1   2  -2  471.79   13.53
  -1   2  -2  486.55   13.53
   1   2  -2  422.42   16.42
  -1   2  -2  591.69   21.32
   1   2  -2  408.25   17.87
  -1  -2  -2  439.06   18.10
  -1   2   2  614.83   21.15
   1  -2  -2  554.73   17.29
  -1   2   3 6956.05   74.67
  -1  -2  -3 6641.15   70.34
   1   2   3 7190.45   70.84
   1  -2  -3 6541.47   65.89
   1   2  -3 6830.97   68.93
  -1   2  -3 6250.66   56.82
  -1   2  -3 6294.53   56.53
  -1  -2  -3 7597.94   74.21
   1  -2  -3 7243.95   49.82
  -1   2  -3 5857.17   74.39
  -1   2  -4  205.32   11.51
  -1   2   4  284.68   14.93
  -1   2  -4  299.05   14.21
   1  -2  -4  240.42   10.94
   1  -2  -4  281.68   15.31
   1   2  -4  242.80   14.53
  -1   2  -4  366.56   18.52
  -1  -2  -4  250.19   14.99
   1   2  -4  221.14   13.20
  -1  -2  -4  264.94   15.01
  -1  -2  -5 5931.04   77.72
  -1   2  -5 5453.91   76.11
   1   2  -5 5676.74   76.61
   1   2  -5 6883.36   78.72
  -1  -2  -5 6484.98   77.41
  -1   2  -5 5294.16   64.76
  -1   2  -5 5865.10   65.87
   1  -2  -5 5541.05   76.79
  -1   2  -6  676.89   24.42
   1   2  -6  757.32   27.56
   1  -2  -6  680.89   28.33
  -1  -2  -6  654.31   27.27
  -1   2  -6  570.50   25.42
   1  -2  -6  801.49   25.25
  -1   2  -6  520.65   22.47
   1   2  -6  712.49   29.51
  -1  -2  -6  791.59   29.57
  -1  -2  -7  285.40   19.09
  -1   2  -7  381.17   20.23
  -1  -2  -7  297.09   20.02
   1  -2  -7  192.38   15.51
   1  -2  -7  234.06   14.48
   1   2  -7  283.31   18.65
   1   2  -7  333.14   20.30
  -1   2  -7  385.26   23.12
  -1   2  -7  248.98   15.76
  -1   2  -8   78.37   10.01
  -1   2  -8   86.62   11.70
   1  -2  -8   76.46   10.49
   1   2  -8   86.69   10.88
   1   2  -8   74.52   10.15
  -1   2  -8   72.74    9.82
  -1  -2  -8   64.43    9.54
  -1  -2  -8   81.96   10.95
   1  -2  -8   54.58    7.75
   1   2  -9  381.50   24.08
  -1   2  -9  385.31   25.45
  -1   2  -9  332.81   22.15
   1  -2  -9  294.08   19.72
  -1   2  -9  353.68   22.14
  -1  -2  -9  470.07   27.37
   1   2  -9  407.71   24.08
   1  -2  -9  269.59   20.51
  -1  -2  -9  333.21   22.43
  -1  -2 -10 2308.41   64.35
   1   2 -10 2108.07   58.33
  -1  -2 -10 2287.67   62.86
   1  -2 -10 2262.55   62.20
  -1   2 -10 1699.09   51.79
   1   2 -10 2082.38   60.10
  -1   2 -10 2297.57   61.83
   1  -2 -10 1758.17   51.39
   1  -2 -11  159.91   16.57
  -1   2 -11  163.93   16.82
   1   2 -11  172.54   18.17
  -1   2 -11  190.75   18.15
  -1  -2 -11  122.56   15.26
   1  -2 -11  192.76   18.46
  -1  -2 -11  146.51   16.93
  -1   2 -12   21.87    6.08
   1  -2 -12   46.67    9.26
  -1  -2 -12   56.25   10.77
  -1  -2 -12   49.98   10.02
   1  -2 -12   46.67    9.46
   1   2 -12   37.69    7.89
   1   2 -12   27.49    7.62
  -1   2 -12   32.35    8.09
  -1   2 -13  456.41   30.07
   1   2 -13  555.66   35.04
  -1  -2 -13  625.61   38.44
  -1  -2 -13  454.16   31.61
   1  -2 -13  706.54   37.99
  -1   2 -13  487.00   31.77
   1   2 -13  545.06   33.69
   1   2 -14   36.22    8.42
  -1  -2 -14   41.20   10.27
  -1   2 -14   37.32    9.28
   1  -2 -14   47.95   10.45
  -1   2 -14   53.78   10.83
  -1  -2 -14   57.82   12.06
   1   2 -14   54.50   11.42
   1  -2 -14   55.14   10.87
   1   2 -15  420.41   31.55
   1  -2 -15  335.85   28.62
  -1  -2 -15  519.03   35.87
  -1   2 -15  414.57   30.26
  -1   2 -15  491.20   34.56
   1   2 -15  366.57   28.83
  -1  -2 -15  427.56   32.98
   1  -2 -15  460.61   32.12
   1   2 -16  114.65   16.17
  -1   2 -16  127.62   18.11
  -1  -2 -16   83.98   15.11
   1   2 -16   94.04   15.19
  -1  -2 -16   79.18   15.14
   1  -2 -16  116.05   16.76
   1  -2 -16  115.62   16.92
  -1  -2 -17   49.81   12.30
  -1   2 -17   42.38   10.25
   1   2 -17   63.85   12.82
   1   2 -17   76.10   13.86
  -1   2 -17   73.90   14.14
   1  -2 -17   64.46   13.81
   1  -2 -17   27.69    8.85
  -1  -2 -17   77.25   14.85
  -1  -2 -18    6.52    5.15
   1   2 -18    2.36    2.32
   1  -2 -18   12.87    7.22
  -1   2 -18    6.22    6.26
   1   2 -18   -0.82    1.39
  -1  -2 -18    8.51    4.56
   1  -2 -18    2.60    1.20
  -1   2 -18    4.39    4.90
  -1   2 -19   50.31   11.21
   1  -2 -19   92.98   17.08
  -1  -2 -19   69.52   14.15
   1   2 -19   43.37   11.83
   1   2 -19   69.21   14.81
  -1   2 -19   88.46   15.46
   1  -2 -19   81.41   15.18
  -1  -2 -19   60.87   14.70
   1  -2 -20  730.60   47.20
  -1  -2 -20  650.80   45.84
  -1  -2 -20  548.27   44.69
   1   2 -20  633.97   43.63
   1   2 -20  764.42   46.66
   1  -2 -20  482.41   38.52
  -1   2 -20  582.34   42.58
  -1   2 -20  660.15   45.72
   1  -2 -21   51.35   12.73
   1   2 -21   34.18   10.78
  -1  -2 -21   66.44   15.22
  -1   2 -21   62.35   15.53
  -1  -2 -21   27.36    9.68
   1   2 -21   38.11   10.74
  -1   2 -21   59.21   13.92
   1  -2 -21   50.97   14.00
   1   2 -22   22.25    8.55
   1  -2 -22   11.21    6.20
  -1  -2 -22   29.73    9.85
  -1   2 -22   25.58    9.58
   1  -2 -22   16.81    5.26
   1   2 -22   28.07    8.95
  -1   2 -22   21.52    8.25
  -1  -2 -22   42.79   12.89
   1   2 -23   42.32   12.13
   1  -2 -23   57.14   14.85
  -1   2 -23   46.52   13.75
  -1  -2 -23   46.95   13.72
   1   2 -23   58.94   13.49
   1  -2 -23   62.37   15.41
  -1   2 -23   38.00   12.14
  -1  -2 -23   51.94   14.34
   1  -2 -24   16.09    6.95
   1   2 -24    2.94    4.71
   1  -2 -24   16.22    8.28
  -1  -2 -24    9.68    6.67
  -1   2 -24   16.31    8.76
  -1   2 -24   17.84    9.99
   1   2 -24   15.43    7.53
  -1  -2 -24   11.62    7.13
  -1  -2 -25    2.58    5.69
   1   2 -25    8.23    6.42
  -1  -2 -25   -2.26    5.17
   1  -2 -25    0.43    4.01
   1   2 -25    3.91    5.37
  -1   2 -25   -0.68    3.05
   1  -2 -25    0.38    3.28
   1   2 -26   16.35    8.33
  -1   2 -26   20.64   10.52
  -1  -2 -26   17.09    8.55
  -1   2 -26   12.25    8.27
  -1  -2 -26   38.04   13.21
   1  -2 -26   24.69   10.50
   1  -2 -26   32.30   12.64
   1   2 -26   27.43   10.34
  -1   2 -27   60.07   16.60
  -1   2 -27   59.81   15.69
   1  -2 -27   74.73   17.33
  -1  -2 -27   72.31   16.97
  -1  -2 -27   71.65   17.34
   1   2 -27   58.59   13.69
   1   2 -27   66.95   15.56
   1  -2 -27   99.38   20.70
   1  -2 -28   -6.09    7.38
   1   2 -28    5.77    5.69
  -1  -2 -28   11.15    6.01
  -1  -2 -28   -1.72    4.95
   1   2 -28    1.45    3.40
   1  -2 -28   -3.26    1.62
  -1   2 -28    5.18    8.63
  -1   2 -28   13.27    7.11
  -1   2 -29   19.86   11.03
   1  -2 -29   -3.43    5.31
  -1  -2 -29   25.32   10.42
   1   2 -29    9.32    5.45
  -1   2 -29   12.74    9.83
   1   2 -29    2.90    3.94
  -1  -2 -29    3.87    5.64
   1  -2 -29    6.13    4.41
   1   2 -30   40.18   13.11
   1  -2 -30   29.87   11.60
   1  -2 -30   22.44   12.13
  -1  -2 -30   28.80   11.61
   1   2 -30   24.26   11.11
  -1  -2 -30   13.76    5.94
  -1   2 -30    6.12    4.14
  -1   2 -30   37.75   12.92
  -1   2 -31   18.14    8.69
  -1  -2 -31    5.93    4.05
  -1   2 -31   15.63    7.82
   1  -2 -31    9.98    7.15
  -1  -2 -31   11.12    8.76
   1  -2 -31   15.24    7.09
   1   2 -31   17.09    8.96
   1   2 -31   25.66   10.24
   1  -2 -32   -2.11    6.83
   1  -2 -32   -0.15    3.70
  -1   2 -32    2.46    3.36
  -1   2 -32    0.73    5.36
   1   2 -32   -3.92    4.89
  -1  -2 -32    4.44    4.48
   1   2 -32    3.88    4.91
  -1  -2 -32   -5.46    6.31
  -1   3   0   -0.35    0.50
   1   3   0   -0.98    0.86
   1   3   0    2.16    1.63
  -1  -3   0    0.03    2.02
  -1   3   0   -0.61    1.39
   1  -3  -1 1300.17   31.17
   1   3   1 1663.04   38.52
  -1   3  -1 1621.76   29.95
  -1   3  -1 1477.45   38.38
   1   3  -1 1209.14   30.84
  -1  -3  -1 1723.78   38.74
  -1   3   1 2198.69   42.91
   1   3  -1 1349.94   34.88
   1  -3  -2  216.33   12.05
  -1   3   2  312.89   17.01
   1   3  -2  436.60   19.91
  -1  -3  -2  361.00   17.30
  -1   3  -2  373.26   14.97
  -1   3  -2  251.82   16.51
   1   3  -2  343.55   17.73
   1   3   2  309.74   17.60
  -1   3  -2  446.69   14.01
  -1   3  -3 2541.24   38.40
  -1   3  -3 2299.50   38.87
   1  -3  -3 2189.54   28.49
  -1  -3  -3 2047.26   42.51
   1  -3  -3 2027.67   41.74
   1   3  -3 1836.96   43.20
   1   3  -3 1888.55   44.43
  -1   3  -3 1869.58   46.04
  -1  -3  -3 2065.72   47.32
  -1   3   3 2689.23   54.32
  -1  -3  -4  194.97   14.44
   1   3   4  110.05   11.18
   1  -3  -4  302.45   16.97
  -1   3   4  242.67   16.70
  -1   3  -4  140.71   13.24
   1   3  -4  203.60   14.60
  -1   3  -4  253.74   13.92
  -1   3  -4  184.01   11.86
  -1  -3  -4  220.16   14.60
   1   3  -4  232.77   15.53
   1  -3  -4  283.39   13.58
   1  -3  -5  341.60   15.75
  -1   3  -5  771.39   26.32
  -1  -3  -5  598.32   26.82
   1  -3  -5  425.97   21.47
   1   3   5  422.16   21.47
   1   3  -5  783.05   30.51
  -1   3  -5  561.27   24.39
   1   3  -5  559.97   25.75
  -1   3  -5  541.42   26.85
  -1  -3  -5  783.08   28.62
   1   3  -6  374.44   21.22
  -1  -3  -6  413.90   21.69
   1  -3  -6  454.53   23.72
  -1   3   6  353.28   21.00
   1   3  -6  355.31   21.92
  -1  -3  -6  458.46   24.95
   1  -3  -6  318.49   16.84
  -1   3  -6  548.54   23.95
  -1   3  -6  415.68   21.35
  -1   3  -6  522.50   26.35
   1   3   6  605.24   26.64
  -1   3  -7   86.28   10.03
  -1  -3  -7   88.25   10.45
  -1  -3  -7  101.41   11.69
   1  -3  -7   90.65   10.98
  -1   3  -7   64.09   10.36
   1   3  -7   67.48    9.45
   1   3  -7   79.34   10.56
  -1   3  -7   85.28    9.59
   1  -3  -7   77.11    8.65
  -1   3   7   56.09    7.97
  -1   3  -8 2708.80   63.77
  -1   3  -8 1784.18   47.47
  -1  -3  -8 2250.76   56.51
   1  -3  -8 2479.66   53.75
   1   3  -8 2968.30   64.69
  -1   3  -8 2483.31   55.79
  -1  -3  -8 2039.53   55.00
   1  -3  -8 2303.41   59.97
   1   3  -8 1610.73   52.28
  -1   3   8 1723.99   48.71
  -1  -3  -9  289.86   21.14
   1   3  -9  234.76   19.26
   1   3  -9  236.21   19.39
  -1   3  -9  225.03   20.24
   1  -3  -9  235.90   17.43
  -1   3  -9  163.76   15.68
  -1   3  -9  265.89   19.35
  -1  -3  -9  234.13   19.63
   1  -3  -9  290.08   22.44
  -1  -3 -10  463.54   29.16
   1  -3 -10  354.52   25.97
  -1   3 -10  571.60   30.03
   1   3 -10  556.35   32.85
  -1   3 -10  564.35   29.98
   1   3 -10  449.61   28.24
  -1  -3 -10  558.78   31.06
  -1   3 -10  616.87   36.20
   1  -3 -10  510.43   27.52
   1   3 -11   64.98   11.65
   1   3 -11   42.40    8.84
  -1   3 -11   75.40   13.23
  -1  -3 -11   42.21    8.61
   1  -3 -11   55.51   11.30
   1  -3 -11   51.07    8.98
  -1   3 -11   43.24    8.00
  -1  -3 -11   52.84    9.84
  -1   3 -11   36.42    7.51
  -1   3 -12   75.15   11.78
   1  -3 -12  106.96   13.56
   1  -3 -12  109.66   15.49
  -1  -3 -12  108.15   15.03
   1   3 -12   71.77   11.76
   1   3 -12   87.25   13.74
  -1  -3 -12   82.77   13.29
  -1   3 -12   63.19   11.12
  -1   3 -12   73.43   12.72
   1  -3 -13    5.79    4.17
   1   3 -13    0.67    3.55
   1   3 -13   -2.41    3.46
  -1   3 -13    4.40    3.34
  -1  -3 -13    7.18    4.09
  -1   3 -13    3.35    3.78
  -1  -3 -13    6.39    6.19
   1  -3 -13    8.12    5.54
  -1  -3 -14   76.05   13.50
  -1   3 -14   94.16   14.62
   1   3 -14   89.12   14.08
  -1   3 -14   61.75   12.04
  -1  -3 -14   89.96   15.09
   1  -3 -14  113.36   16.75
   1  -3 -14   93.66   13.78
   1   3 -15   -0.77    2.56
  -1   3 -15    2.25    2.08
   1   3 -15   -1.02    1.30
  -1   3 -15   -2.27    2.11
   1  -3 -15   -1.06    2.34
  -1  -3 -15    0.11    2.00
  -1  -3 -15    3.40    4.13
   1  -3 -15   -2.84    5.86
  -1  -3 -16    1.44    5.70
  -1  -3 -16    0.63    2.30
   1  -3 -16    0.12    2.76
  -1   3 -16    1.34    0.59
  -1   3 -16    2.41    4.20
   1   3 -16   -0.13    2.74
   1  -3 -16   -0.22    3.12
   1   3 -16    3.81    1.39
   1  -3 -17   23.26    8.64
  -1  -3 -17   36.46    9.65
   1   3 -17   38.40   10.06
   1   3 -17   34.41   10.15
   1  -3 -17   15.36    7.61
  -1  -3 -17   14.01    4.67
  -1   3 -17   20.28   11.08
  -1   3 -17   23.05   10.10
  -1   3 -18   33.40    8.65
  -1   3 -18   29.91    8.92
   1   3 -18   28.93    9.48
   1  -3 -18   26.35    9.55
  -1  -3 -18   36.34   10.28
   1  -3 -18   35.35    8.89
  -1  -3 -18   33.34   10.41
   1   3 -18   14.14    6.77
  -1   3 -19  385.73   34.14
  -1  -3 -19  468.63   38.84
   1   3 -19  413.74   34.05
   1   3 -19  452.87   36.76
   1  -3 -19  425.10   35.08
  -1  -3 -19  419.87   36.53
  -1   3 -19  511.14   38.58
   1  -3 -19  512.12   40.43
  -1  -3 -20   64.80   14.24
  -1   3 -20   84.89   15.76
   1   3 -20   59.10   13.09
  -1  -3 -20   91.25   17.30
  -1   3 -20   84.15   16.48
   1  -3 -20   80.85   16.78
   1   3 -20   94.55   15.64
   1  -3 -20   86.65   15.75
  -1  -3 -21   71.85   16.79
   1   3 -21  106.39   18.47
  -1   3 -21   76.36   15.16
   1   3 -21  103.11   18.30
   1  -3 -21   94.36   17.90
   1  -3 -21   88.14   17.46
  -1  -3 -21  120.47   20.44
  -1   3 -21   88.02   16.81
   1  -3 -22    9.74    6.31
  -1  -3 -22    7.41    6.72
   1   3 -22    9.06    6.90
   1  -3 -22   22.31    9.94
  -1   3 -22   19.10    7.29
  -1   3 -22   12.15    6.85
  -1  -3 -22   14.95    6.52
   1   3 -22   18.40    7.21
   1   3 -23   19.49   10.32
  -1   3 -23   22.21    8.93
   1   3 -23   26.08    9.88
  -1   3 -23   22.32    8.24
   1  -3 -23   21.51    8.87
  -1  -3 -23   21.83    8.25
  -1  -3 -23   33.17   11.65
   1  -3 -23   24.24    9.51
   1   3 -24   -0.36    1.25
   1  -3 -24    1.57    3.74
  -1   3 -24    3.96    5.44
  -1   3 -24    3.30    4.84
   1  -3 -24   -1.36    4.56
   1   3 -24    2.22    2.44
  -1  -3 -24   -2.55    5.14
  -1  -3 -24    2.23    6.17
  -1   3 -25   22.81    9.36
  -1   3 -25   30.96    9.58
   1   3 -25   16.91    5.95
  -1  -3 -25   34.11   11.82
   1  -3 -25   18.75    8.25
  -1  -3 -25   22.15    9.71
   1  -3 -25   33.93   11.99
   1   3 -25   47.69   14.16
   1   3 -26   -0.02    2.80
   1  -3 -26   10.32    7.05
   1  -3 -26   10.86    6.35
  -1  -3 -26   13.56    9.64
  -1   3 -26    0.79    3.70
   1   3 -26   11.32    7.38
  -1   3 -26   14.13    7.30
  -1  -3 -26    3.13    3.48
   1  -3 -27   -0.15    5.21
  -1  -3 -27   -3.38    4.44
  -1  -3 -27    9.04    7.69
   1   3 -27   -0.02    3.91
   1   3 -27    1.41    4.05
  -1   3 -27    3.94    5.38
   1  -3 -27   -4.58    9.19
  -1   3 -27   -1.71    2.93
   1   3 -28    2.84    6.28
  -1   3 -28    4.57    4.71
  -1  -3 -28   -1.13    5.57
  -1   3 -28   12.32    7.98
   1  -3 -28   -2.57    4.13
   1   3 -28    1.04    3.76
  -1  -3 -28    0.87    2.70
   1  -3 -28    3.42    3.69
  -1  -3 -29   -0.33    7.12
   1  -3 -29   -2.00    5.29
  -1   3 -29    2.89    8.37
   1   3 -29   -0.67    4.37
  -1  -3 -29   -5.32    8.03
   1   3 -29    3.38    6.76
  -1   3 -29    2.81    4.24
   1  -3 -29  -11.09    9.09
   1  -3 -30   -0.29    4.93
  -1   3 -30    3.37    5.73
  -1  -3 -30   -2.24    4.73
   1   3 -30   -2.39    6.10
  -1  -3 -30    5.43    2.55
   1   3 -30   -2.18    5.01
  -1   3 -30    0.67    6.57
   1  -3 -30   -1.04    4.35
   1   3 -31   11.33    6.51
  -1   3 -31    5.47    3.04
  -1  -3 -31   28.57   12.77
   1   3 -31   17.72    7.48
  -1   3 -31   23.88   12.60
   1  -3 -31   28.62   11.29
   1  -3 -31    7.34    4.12
  -1  -3 -31    8.60    6.95
   1   3 -32   -6.97    7.74
  -1  -3 -32    2.76    5.27
  -1   3 -32    3.16    2.81
   1  -3 -32    4.68    4.44
   1  -3 -32    1.36    4.22
   1   3 -32    8.22    7.10
  -1  -3 -32    8.21    8.11
  -1   3 -32   12.32   10.61
   1   4   0   -0.76    0.28
  -1   4   0   -0.05    0.60
  -1  -4   0    0.34    1.67
  -1   4   0    0.89    1.07
   1   4   0   -1.69    1.76
  -1   4  -1   17.10    4.89
   1   4  -1    4.52    2.05
   1   4   1    5.48    2.56
   1   4  -1    8.87    3.45
   1   4   1    8.21    3.58
  -1  -4  -1    8.66    2.63
  -1   4  -1    8.94    2.54
  -1   4   1   20.26    4.39
   1   4  -2 1498.96   43.16
   1   4   2 1598.87   43.24
   1   4   2 1691.43   44.83
  -1  -4  -2 1694.77   41.85
   1   4  -2 1536.50   41.70
   1  -4  -2 1575.90   40.29
   1  -4  -2 1567.32   22.89
  -1   4  -2 1580.80   45.74
  -1   4  -2 1528.34   36.44
   1   4   3   37.80    7.01
   1   4  -3   40.16    7.05
   1  -4  -3   27.26    3.34
  -1   4  -3   22.54    4.00
   1  -4  -3   25.93    5.21
  -1   4   3   36.20    6.71
  -1  -4  -3   42.11    6.62
   1   4  -3   32.37    6.81
  -1   4  -3   39.63    7.21
  -1   4  -3   26.16    5.05
  -1   4   4  651.66   30.66
  -1   4  -4  708.65   32.12
   1   4  -4  513.21   26.49
  -1   4  -4  517.58   21.54
   1   4   4  585.97   28.48
  -1  -4  -4  664.03   29.75
   1  -4  -4  507.57   24.13
   1   4  -4  675.47   28.97
  -1   4  -4  534.56   22.92
  -1  -4  -4  563.20   24.81
  -1   4  -5  750.12   27.70
  -1   4   5  882.50   35.92
   1  -4  -5  770.99   31.65
   1   4  -5  789.87   32.18
  -1   4  -5  856.42   36.03
   1   4   5  601.35   29.81
   1   4  -5  782.46   33.17
  -1   4  -5  724.75   27.97
  -1  -4  -5  776.21   32.89
  -1  -4  -5  896.77   33.59
   1  -4  -6  382.32   22.98
  -1   4  -6  429.83   23.07
  -1   4   6  409.66   25.60
   1  -4  -6  325.56   17.04
  -1  -4  -6  379.02   22.61
   1   4   6  499.16   27.88
  -1   4  -6  407.83   21.53
  -1  -4  -6  396.13   22.34
   1   4  -6  311.06   21.24
  -1   4  -6  446.64   26.50
   1   4  -6  362.91   24.10
   1  -4  -7  891.05   31.02
   1   4  -7 1045.31   39.77
  -1  -4  -7  824.16   36.39
   1   4   7  979.03   38.36
  -1   4  -7  958.26   35.03
  -1   4   7  927.50   40.03
   1  -4  -7  854.07   35.34
   1   4  -7 1057.44   41.73
  -1   4  -7 1070.52   42.98
  -1  -4  -7  955.89   36.53
  -1   4  -7  980.82   36.74
  -1  -4  -8 1553.81   48.06
  -1   4  -8  950.56   41.52
  -1   4  -8 1382.59   43.58
   1  -4  -8 1870.58   49.86
   1   4  -8 1504.66   50.49
  -1   4   8 1620.73   52.61
   1  -4  -8 1819.78   53.76
  -1   4  -8 1592.26   48.89
   1   4   8 1201.90   42.74
   1   4  -8 1312.87   46.31
  -1  -4  -8 1360.84   49.03
   1   4  -9 1444.05   51.22
   1   4   9 1594.75   51.38
  -1  -4  -9 1299.37   47.05
  -1   4  -9 1398.26   51.10
   1  -4  -9 1428.05   50.30
   1  -4  -9 1097.60   40.85
   1   4  -9 1104.29   43.34
  -1  -4  -9 1143.72   45.96
  -1   4   9 1396.79   48.38
  -1   4  -9 1041.30   40.33
  -1   4  -9 1397.23   46.13
  -1   4 -10  334.11   23.32
   1  -4 -10  393.80   25.20
  -1   4 -10  407.66   28.47
   1   4 -10  399.35   28.06
  -1   4 -10  305.28   22.38
   1   4 -10  281.69   22.41
   1  -4 -10  357.46   26.05
  -1  -4 -10  289.23   22.33
  -1   4  10  283.82   22.26
  -1  -4 -10  357.59   26.52
  -1  -4 -11    2.22    1.26
   1   4 -11    0.29    1.20
   1  -4 -11    9.31    4.58
  -1   4 -11    7.42    4.60
   1  -4 -11    5.78    2.19
  -1   4  11    7.03    4.20
  -1  -4 -11    7.22    3.96
   1   4 -11    6.75    3.21
  -1   4 -11    7.85    3.46
  -1   4 -11    4.99    3.42
   1   4 -12   47.34   10.14
  -1   4 -12   51.21   10.43
   1  -4 -12   46.49    9.43
  -1  -4 -12   65.55   11.85
  -1   4 -12   80.52   12.77
  -1  -4 -12   52.11   10.21
  -1   4  12   40.10    8.63
  -1   4 -12   65.48   12.47
   1  -4 -12   50.64   10.13
   1   4 -12   76.41   14.41
  -1   4 -13   56.76   11.24
   1   4 -13   82.84   14.34
  -1   4 -13   62.73   12.86
   1   4 -13   55.63   10.84
   1  -4 -13   45.55   10.11
   1  -4 -13   50.69   10.46
  -1  -4 -13   51.89   10.13
   1   4 -13   59.55   12.08
  -1  -4 -13   71.49   12.50
  -1   4 -13   46.49    9.87
   1   4 -14  289.21   26.55
  -1  -4 -14  282.09   25.84
   1   4 -14  329.40   27.63
   1  -4 -14  211.42   22.30
   1  -4 -14  254.19   25.31
   1   4 -14  246.10   25.18
  -1   4 -14  265.87   24.15
  -1   4 -14  234.51   23.50
  -1   4 -14  299.51   27.92
  -1  -4 -14  253.40   24.63
   1  -4 -15   20.47    7.80
   1   4 -15   10.43    5.64
  -1  -4 -15   18.81    7.34
   1   4 -15   10.42    5.70
  -1  -4 -15   19.78    8.11
  -1   4 -15   21.84    6.68
  -1   4 -15    6.11    3.90
   1  -4 -15   15.54    5.84
  -1   4 -16   40.52   10.18
  -1  -4 -16   18.03    6.17
   1   4 -16   36.50    9.62
   1  -4 -16   43.05   11.56
  -1   4 -16   12.19    5.80
   1   4 -16   22.17    7.14
  -1  -4 -16   24.46    7.80
   1  -4 -16   42.36   10.22
   1  -4 -17  196.24   23.62
   1   4 -17  181.71   21.91
  -1  -4 -17  215.94   24.68
   1   4 -17  181.11   22.62
  -1   4 -17  191.81   23.66
  -1  -4 -17  223.55   25.23
  -1   4 -17  148.13   20.34
  -1   4 -18  115.09   17.87
   1  -4 -18  129.25   19.65
   1   4 -18  122.79   19.36
  -1   4 -18  129.01   19.93
  -1  -4 -18  135.42   19.09
   1   4 -18  125.08   19.59
   1  -4 -18  137.29   20.41
  -1  -4 -18  147.76   21.38
  -1  -4 -19   79.46   15.19
  -1   4 -19   70.33   14.77
   1  -4 -19  111.58   18.81
   1  -4 -19   70.36   14.96
  -1   4 -19  104.34   18.43
   1   4 -19  110.59   17.26
  -1  -4 -19   88.77   16.56
   1   4 -19   84.08   16.31
  -1   4 -20    2.79    7.23
   1  -4 -20    6.44    6.55
   1  -4 -20   -0.08    2.33
  -1   4 -20   -0.04    5.75
  -1  -4 -20    0.12    4.83
   1   4 -20   -2.83    3.35
   1   4 -20    4.33    5.70
  -1  -4 -20    0.23    4.21
   1  -4 -21   61.68   14.07
   1   4 -21   46.22   13.14
  -1  -4 -21   47.64   12.77
   1   4 -21   43.58   11.45
  -1   4 -21   35.74   12.08
  -1  -4 -21   38.74   10.43
  -1   4 -21   19.19    8.63
   1  -4 -21   36.35   10.86
  -1  -4 -22   23.07    8.02
   1   4 -22   23.98    9.03
  -1   4 -22   28.65    9.98
  -1  -4 -22   17.43    8.33
   1   4 -22   33.17   11.23
   1  -4 -22   34.28   11.77
  -1   4 -22   23.18    9.76
   1  -4 -22   34.15    9.82
  -1  -4 -23  143.16   22.45
   1   4 -23  105.26   19.64
  -1   4 -23  154.86   23.61
   1   4 -23   83.68   15.94
  -1   4 -23  158.62   24.63
   1  -4 -23  102.54   19.32
  -1  -4 -23  165.00   24.77
   1  -4 -23  140.32   23.02
   1   4 -24   -1.66    1.62
  -1  -4 -24   -0.64    0.61
   1  -4 -24    2.84    1.19
  -1  -4 -24    5.09    3.96
   1  -4 -24   -1.22    3.43
  -1   4 -24    0.64    3.18
   1   4 -24   -1.63    6.72
  -1   4 -24    6.24    6.46
   1   4 -25   -2.11    4.78
  -1  -4 -25    2.43    3.72
   1  -4 -25   -1.43    7.56
  -1  -4 -25    0.20    4.31
  -1   4 -25    5.28    4.71
  -1   4 -25   -2.05    4.48
   1  -4 -25   -1.43    7.59
   1   4 -25   -7.17    6.83
   1   4 -26   14.52    7.68
  -1   4 -26    6.23    4.35
   1  -4 -26   11.25    7.02
   1   4 -26    7.90    7.50
  -1   4 -26    9.91    7.03
  -1  -4 -26    7.96    7.47
   1  -4 -26    3.99    2.45
  -1  -4 -26    4.62    3.79
   1   4 -27   11.11    7.54
  -1  -4 -27   13.56    8.10
  -1  -4 -27    8.84    5.16
   1   4 -27   13.40    8.03
   1  -4 -27   23.32   12.51
  -1   4 -27   17.97    9.86
   1  -4 -27   13.93    8.12
  -1   4 -27   10.61    8.39
   1  -4 -28    1.31    2.28
  -1  -4 -28   -6.42    5.57
  -1  -4 -28    0.64    3.68
   1   4 -28   -3.92    6.27
  -1   4 -28   -0.81    0.78
   1   4 -28    1.25    4.23
   1  -4 -28   -2.15    2.44
  -1   4 -28    6.32    7.79
  -1   4 -29    0.19    4.38
  -1   4 -29    0.57    3.51
   1  -4 -29   -0.76    3.81
  -1  -4 -29    3.66    4.13
   1   4 -29   10.09    8.52
   1  -4 -29    5.24    5.72
   1   4 -29    1.61    2.54
  -1  -4 -29   -0.81    3.93
   1  -4 -30    5.25    4.97
  -1  -4 -30    9.03    2.88
   1   4 -30   12.91    8.69
   1  -4 -30    9.33    5.87
  -1   4 -30   24.12   10.10
   1   4 -30   15.76   10.17
  -1   4 -30   12.83    7.75
  -1  -4 -30   16.05    8.67
   1  -4 -31   25.60   11.73
   1   4 -31   14.55    9.59
  -1   4 -31   12.13    7.14
  -1  -4 -31   15.70    9.95
  -1   4 -31   19.45   10.57
   1  -4 -31    2.85    3.54
   1   4 -31    1.39    1.92
  -1  -4 -31    0.66    1.51
   1   5   0    0.69    1.29
  -1   5   0   -0.67    1.84
   1   5   0   -1.21    1.98
  -1   5   0   -1.33    1.34
  -1   5  -1  550.67   24.16
  -1  -5  -1  396.59   22.02
  -1   5   1  371.71   23.36
  -1   5  -1  717.56   33.70
  -1   5   1  809.06   30.56
   1   5   1  565.40   28.51
   1   5  -1  568.74   28.96
   1   5   1  596.62   27.75
   1   5  -1  521.37   25.52
  -1  -5  -2    3.44    0.79
   1  -5  -2    3.15    1.31
   1   5   2    1.95    2.61
  -1   5   2    5.69    1.84
  -1   5  -2    0.13    2.02
   1   5  -2    0.29    2.68
  -1   5  -2    0.82    1.94
   1   5  -2    2.54    0.23
   1  -5  -3   29.31    6.45
  -1   5  -3   31.23    6.04
  -1  -5  -3   28.64    5.64
   1   5  -3   33.23    6.75
  -1   5   3   38.53    7.41
   1   5   3   23.58    5.65
   1  -5  -3   23.86    3.50
  -1   5  -3   22.07    6.21
   1   5  -3   22.46    6.55
   1  -5  -4   36.13    5.17
  -1   5  -4   62.71    8.88
   1   5   4   34.13    7.62
  -1  -5  -4   46.14    7.34
  -1   5  -4   78.27    9.16
   1  -5  -4   70.99   10.06
   1   5  -4   50.81    9.59
  -1   5   4   71.42   10.70
   1   5  -4   74.76   10.97
  -1   5  -4   52.64    8.84
   1   5  -5   79.48   10.57
   1   5  -5   52.70    9.54
   1  -5  -5   96.76    8.50
   1  -5  -5   57.98    8.95
  -1   5   5   79.20   11.88
  -1  -5  -5   93.00   12.47
  -1   5  -5   72.23    9.24
  -1   5  -5   66.24   10.48
  -1   5  -5   77.26    9.45
   1   5   5   73.40   10.82
  -1  -5  -5   57.21    8.06
   1   5   6   57.70    9.71
  -1   5   6   57.50   10.06
   1  -5  -6   70.89   10.33
  -1   5  -6   39.48    9.10
  -1   5  -6   43.59    7.47
   1   5  -6   50.80    9.37
   1   5  -6   51.62    8.97
  -1   5  -6   56.41    8.15
  -1  -5  -6   61.47   10.72
   1  -5  -6   57.72    7.25
  -1  -5  -6   77.08   10.42
  -1   5   7    0.45    1.89
   1   5  -7    0.15    1.71
   1  -5  -7   -0.86    1.34
  -1  -5  -7   -1.15    1.56
  -1   5  -7   -2.82    2.74
  -1   5  -7    0.16    1.58
   1   5   7    3.72    1.81
   1  -5  -7   -1.53    1.72
  -1  -5  -7    4.54    2.71
   1   5  -7    0.61    2.58
   1  -5  -8  575.38   32.43
   1  -5  -8  752.32   30.26
  -1   5   8  612.85   35.55
   1   5   8  414.12   28.89
  -1   5  -8  631.60   31.53
  -1  -5  -8  519.63   30.43
  -1  -5  -8  567.30   30.26
   1   5  -8  753.52   38.78
  -1   5  -8  571.68   29.95
  -1   5  -9  700.17   34.33
  -1   5   9  869.56   43.01
  -1  -5  -9  855.02   40.96
  -1   5  -9  971.28   43.68
   1   5  -9  867.73   40.24
   1  -5  -9  747.27   32.79
   1  -5  -9  866.60   40.45
  -1   5  -9  735.67   36.95
   1   5   9  671.17   36.52
  -1  -5  -9  780.87   36.37
   1   5  -9  861.57   39.98
  -1   5 -10    2.15    2.75
  -1   5 -10   -0.11    2.72
   1  -5 -10    1.18    0.74
  -1   5  10    2.80    2.95
   1  -5 -10    1.99    2.11
  -1   5 -10    1.74    3.35
  -1  -5 -10    3.17    3.08
  -1  -5 -10   -1.88    2.04
   1   5  10    0.23    1.56
   1   5 -10    3.54    5.33
   1   5 -10   -1.47    2.17
  -1   5 -11   71.76   12.92
   1   5  11   52.26   10.53
  -1  -5 -11   92.50   14.03
  -1   5  11   90.79   13.64
  -1  -5 -11  105.18   15.65
   1   5 -11   76.72   12.62
  -1   5 -11  113.70   14.77
   1  -5 -11   91.14   14.14
   1   5 -11  120.13   15.97
   1  -5 -11   94.20   12.71
   1   5 -12    2.32    1.24
  -1   5 -12    0.72    1.51
   1  -5 -12    2.17    2.06
  -1  -5 -12    3.79    3.79
  -1  -5 -12    4.46    2.54
   1   5  12    4.66    3.72
   1   5 -12    8.91    5.77
   1  -5 -12    2.77    0.93
  -1   5  12    5.76    4.01
  -1   5 -12    0.39    2.76
  -1   5 -12    1.74    3.27
   1   5 -13   34.07    9.21
   1  -5 -13   34.39    8.66
  -1   5 -13   31.38    9.45
  -1  -5 -13   11.02    3.23
   1   5 -13   31.81    8.72
   1   5 -13   45.38   10.68
  -1   5 -13   25.96    6.88
  -1   5  13   25.55    7.77
  -1   5 -13   32.55    9.15
   1  -5 -13   32.67    8.64
  -1  -5 -13   26.51    8.00
   1   5  13   35.71    8.41
   1   5  14  112.39   17.01
  -1   5 -14  158.58   19.53
  -1  -5 -14  135.88   18.64
   1   5 -14   88.88   14.39
  -1   5 -14  119.31   16.44
  -1   5  14  126.07   17.10
   1   5 -14  169.28   21.32
   1  -5 -14  141.27   19.09
   1   5 -14  185.84   23.10
  -1   5 -14  139.71   21.10
   1  -5 -14  131.87   17.66
  -1  -5 -14  170.50   19.97
  -1   5 -15   56.99   12.16
  -1   5  15   70.32   13.19
   1   5 -15   66.92   13.32
   1   5 -15   82.04   15.15
  -1  -5 -15   76.57   13.62
   1   5 -15  101.41   17.50
   1  -5 -15   59.31   13.03
   1  -5 -15   62.95   13.41
  -1  -5 -15   80.64   14.96
  -1   5 -15   80.49   13.60
  -1   5 -15   85.31   15.25
  -1  -5 -16   57.71   12.68
  -1   5  16   49.61   11.91
   1   5 -16   51.86   11.94
   1  -5 -16   43.79   10.77
   1  -5 -16   85.42   15.30
   1   5 -16   56.39   12.15
  -1  -5 -16   67.06   13.41
  -1   5 -16   33.42    8.84
   1   5 -16   40.53   11.51
  -1   5 -16   58.07   12.23
  -1   5 -16   48.15   12.36
   1  -5 -17   51.59   12.78
  -1   5 -17   50.01   11.88
   1  -5 -17   54.06   12.03
   1   5 -17   13.47    9.56
   1   5 -17   28.89    8.73
  -1  -5 -17   35.63    9.35
  -1   5  17   37.78    9.90
  -1  -5 -17   34.19    9.94
  -1   5 -17   28.50    8.36
  -1   5  18   -0.05    3.12
  -1  -5 -18   -0.42    4.99
  -1   5 -18   -1.23    3.97
   1  -5 -18   -3.80    4.25
  -1   5 -18    4.64    6.98
   1   5 -18    0.53    3.71
   1   5 -18   -1.61    0.85
   1  -5 -18    0.84    1.68
  -1  -5 -18   -1.28    3.88
   1  -5 -19   23.21    8.59
  -1  -5 -19   33.45   10.65
  -1  -5 -19   36.46   11.04
   1  -5 -19   43.26   12.34
  -1   5 -19   28.12    9.07
  -1   5 -19   26.46    7.74
   1   5 -19   31.60    9.41
   1   5 -19   16.93    6.81
  -1  -5 -20   40.29   11.52
   1  -5 -20   57.75   14.75
   1   5 -20   34.77   10.65
  -1   5 -20   64.45   13.76
  -1   5 -20   61.63   14.21
   1   5 -20   61.67   13.74
  -1  -5 -20   57.86   13.52
   1  -5 -20   45.92   12.08
   1   5 -21   49.01   11.95
  -1  -5 -21   23.53    8.78
  -1   5 -21   47.55   12.85
   1  -5 -21   42.24   12.32
   1   5 -21   29.98    8.84
  -1   5 -21   30.36   10.39
   1  -5 -21   59.73   14.20
  -1  -5 -21   45.79   11.78
   1  -5 -22   19.34    8.59
  -1  -5 -22   21.98    9.65
  -1  -5 -22    5.34    1.59
   1  -5 -22    6.06    3.97
   1   5 -22    5.59    4.82
   1   5 -22   19.40    6.69
  -1   5 -22   16.67    7.62
  -1   5 -22   10.66    7.11
   1   5 -23    4.88    6.04
   1   5 -23   10.20    6.72
  -1   5 -23   10.21    6.73
  -1   5 -23   15.68   10.76
   1  -5 -23    8.20    5.22
   1  -5 -23   20.35    9.56
  -1  -5 -23   -1.28    5.31
  -1  -5 -23   14.84    7.64
   1   5 -24   -3.03    3.80
  -1   5 -24   -0.73    3.15
  -1   5 -24   -0.74    2.82
  -1  -5 -24    0.62    4.45
  -1  -5 -24   -1.06    4.93
   1  -5 -24   -1.52    4.05
   1   5 -24   -5.99    7.66
   1  -5 -24   -6.98    7.56
   1   5 -25    0.64    1.57
  -1  -5 -25    5.05    1.63
   1  -5 -25   -2.40    2.16
  -1   5 -25    0.87    2.11
  -1   5 -25    6.41    6.51
   1  -5 -25    4.17    7.52
  -1  -5 -25   -0.35    3.25
   1   5 -25    0.80    1.72
  -1  -5 -26   31.74   11.31
   1  -5 -26   14.39    7.67
   1   5 -26   21.91    9.18
   1   5 -26   24.83   10.59
  -1   5 -26   19.12    9.15
  -1  -5 -26   38.01   11.57
   1  -5 -26   11.89    6.84
  -1   5 -26    3.81    4.31
  -1  -5 -27   -0.96    3.89
  -1   5 -27    8.38    4.82
   1  -5 -27    0.29    2.07
  -1   5 -27    2.02    2.50
   1  -5 -27    6.90    8.27
  -1  -5 -27    0.60    2.80
   1   5 -27    3.51    5.72
   1   5 -27   -2.04    4.49
   1   5 -28   -1.71    5.62
  -1  -5 -28   -2.40    3.11
  -1  -5 -28   -0.74    2.86
  -1   5 -28   -6.46    7.27
   1   5 -28    0.79    2.75
   1  -5 -28   11.78    9.24
   1  -5 -28    8.88    8.42
  -1   5 -28    5.87    5.82
   1  -5 -29    6.26    2.40
  -1  -5 -29   10.99    8.17
  -1  -5 -29   14.13    6.77
  -1   5 -29    7.45    5.01
   1  -5 -29    2.36    3.50
   1   5 -29    9.56    7.47
   1   5 -29   20.63    7.83
  -1   5 -29   27.64   10.96
   1  -5 -30   -1.14    7.61
  -1  -5 -30    5.70    6.43
   1   5 -30   14.82    7.44
  -1   5 -30    9.28    9.05
  -1   5  30    5.67    3.25
   1  -5 -30   -1.90    5.45
   1   5 -30   -1.96    7.08
  -1   5 -30   -2.04    4.63
  -1  -5 -30   13.10    7.72
  -1  -5 -31    5.63    1.68
  -1   5 -31    5.46    5.35
  -1   5 -31   11.63    4.53
   1   5 -31   12.44    7.45
  -1   5  31    3.94    5.57
  -1  -5 -31   23.98   12.69
   1   5 -31   20.13    9.57
   1  -5 -31    4.93    4.41
   1  -5 -31   19.14    9.02
   1   6   0    0.75    3.88
  -1   6   0   -2.79    3.34
   1   6   0   -1.39    2.92
  -1   6   0   -0.46    2.23
   1   6   1 2521.50   63.12
  -1   6  -1 1719.44   47.43
   1   6  -1 1866.65   52.31
   1   6   1 1487.87   51.80
  -1   6   1 1728.32   49.69
  -1   6  -1 1650.90   55.65
  -1   6   1 1254.03   47.61
   1   6  -1 2128.63   61.05
   1   6  -2    7.77    2.77
   1   6   2   12.43    4.39
  -1  -6  -2    7.12    3.17
  -1   6   2   18.20    5.01
  -1   6   2   17.89    4.77
   1   6   2   14.45    4.47
  -1   6  -2    6.92    2.94
  -1   6  -2   17.62    5.42
   1   6  -2   15.38    5.83
   1  -6  -3  344.79   15.58
  -1   6  -3  447.35   24.98
   1   6   3  350.54   24.20
  -1   6   3  355.54   24.81
   1   6  -3  357.66   24.70
  -1  -6  -3  336.92   22.08
  -1   6  -3  377.42   27.23
   1   6   3  290.33   22.35
   1   6  -3  392.85   26.84
  -1   6  -4   23.27    8.15
  -1   6   4   19.44    6.01
   1   6   4   24.00    6.17
   1  -6  -4   21.60    4.00
  -1   6  -4   26.27    6.18
   1  -6  -4   20.71    5.60
   1   6  -4   30.75    7.73
  -1  -6  -4   20.52    5.71
   1   6  -4   24.23    6.48
  -1   6  -5 1044.79   39.20
   1  -6  -5 1145.44   32.72
  -1   6   5 1103.65   45.97
  -1   6  -5  830.69   41.47
   1  -6  -5  974.78   41.38
  -1   6  -5 1040.04   36.69
  -1  -6  -5 1046.10   38.83
   1   6   5 1152.19   48.51
   1   6  -5 1172.05   48.75
   1   6  -5  922.35   40.68
  -1   6  -6   34.14    7.01
  -1   6   6   42.29    9.56
   1   6   6   21.36    7.76
  -1  -6  -6   32.66    7.42
  -1  -6  -6   18.26    5.56
  -1   6  -6   25.45    5.85
   1   6  -6   25.78    6.95
   1   6  -6   19.28    5.46
   1  -6  -6   24.50    6.60
  -1   6  -6   24.45    7.13
   1  -6  -6   31.23    5.82
   1   6  -7  222.92   21.94
  -1   6  -7  185.96   17.00
   1   6  -7  243.49   21.74
   1  -6  -7  189.00   18.34
  -1  -6  -7  154.67   17.36
  -1   6  -7  245.08   23.84
  -1  -6  -7  181.62   17.52
   1   6   7  264.83   23.48
  -1   6   7  166.50   19.58
   1  -6  -7  176.20   13.78
  -1   6  -7  181.28   17.63
  -1   6   8   99.26   15.04
   1  -6  -8   84.23    9.89
   1   6  -8  126.87   16.19
   1   6   8   86.72   14.06
  -1   6  -8  104.64   13.44
  -1   6  -8  135.46   16.35
  -1  -6  -8  102.39   13.99
  -1  -6  -8  108.72   15.55
  -1   6  -8  139.37   17.79
   1   6  -8   84.58   13.34
   1  -6  -8  104.88   14.20
  -1   6  -9  411.77   27.66
   1   6  -9  464.73   31.81
  -1  -6  -9  540.36   31.90
   1   6   9  538.72   35.71
  -1   6   9  618.52   38.09
  -1  -6  -9  515.24   32.87
   1  -6  -9  405.24   24.11
   1  -6  -9  708.49   38.52
   1   6  -9  622.09   36.86
  -1   6  -9  575.93   33.44
  -1   6 -10   56.84   11.45
  -1   6  10   88.16   14.79
   1   6  10   90.86   14.70
   1  -6 -10  105.30   14.76
  -1  -6 -10   75.07   12.41
   1   6 -10  105.27   14.93
   1  -6 -10   48.18    9.26
  -1   6 -10   98.33   14.60
  -1  -6 -10   96.10   13.12
   1   6 -10  102.64   14.74
  -1   6 -10   83.48   12.60
   1   6 -11  325.19   27.58
  -1  -6 -11  323.09   26.51
   1  -6 -11  309.79   22.72
  -1   6  11  288.97   27.07
   1  -6 -11  256.12   25.06
   1   6 -11  344.50   28.67
  -1   6 -11  342.31   26.11
  -1   6 -11  326.49   28.52
  -1   6 -11  325.68   26.81
  -1  -6 -11  337.04   27.02
  -1   6 -12  332.25   28.75
   1  -6 -12  231.02   20.70
   1  -6 -12  209.65   22.77
  -1   6  12  286.13   27.38
   1   6 -12  314.52   28.11
   1   6  12  198.97   22.55
  -1  -6 -12  260.30   24.33
  -1   6 -12  291.71   25.39
  -1  -6 -12  286.31   26.70
   1   6 -12  296.54   26.55
  -1   6 -12  395.87   29.41
   1  -6 -13  111.00   15.24
   1   6 -13  146.54   18.69
  -1   6 -13  179.91   21.80
  -1   6  13  137.82   19.81
   1   6  13  115.85   16.30
  -1   6 -13  175.60   19.42
  -1  -6 -13  160.97   20.23
  -1   6 -13  176.10   20.07
   1   6 -13  123.51   17.44
  -1  -6 -13  201.18   21.28
   1  -6 -13   86.06   14.51
   1   6 -14   17.28    8.56
  -1   6 -14   22.25    7.92
   1  -6 -14   17.04    5.65
  -1   6  14   17.63    5.81
  -1  -6 -14   19.30    7.19
   1   6  14   38.24    9.87
   1   6 -14   19.67    7.37
  -1  -6 -14   24.19    7.88
   1  -6 -14   22.82    7.87
   1   6 -14   19.23    5.33
  -1   6 -14    6.01    3.54
  -1   6 -14   16.27    5.36
  -1   6 -15  123.39   17.65
   1   6 -15  109.96   18.24
  -1   6 -15  109.41   16.51
   1   6 -15  159.97   20.14
   1  -6 -15  135.74   19.05
  -1   6  15  159.25   21.37
   1   6  15  140.93   18.82
  -1  -6 -15  147.56   20.68
  -1  -6 -15  157.17   21.06
  -1   6 -15  133.12   20.17
   1  -6 -15  101.07   15.72
   1   6 -15  119.32   18.81
  -1   6 -16    5.93    6.81
   1   6 -16    8.10    5.01
  -1  -6 -16    7.03    6.45
   1   6  16    8.18    5.37
   1   6 -16    8.08    5.62
  -1   6  16    9.82    5.97
   1   6 -16    4.63    3.70
  -1   6 -16   12.07    6.56
  -1   6 -16   -0.39    3.30
   1  -6 -16    7.96    5.92
  -1  -6 -16   12.28    5.10
   1  -6 -16    7.21    1.44
   1   6 -17    0.42    3.41
   1  -6 -17    1.88    2.87
   1   6 -17    0.74    3.17
  -1   6 -17   -2.87    2.22
   1  -6 -17    4.11    6.05
   1   6  17   -1.87    0.54
  -1  -6 -17   -1.76    4.85
  -1  -6 -17   -2.62    2.32
   1   6 -17    3.50    3.96
  -1   6 -17    0.20    2.58
  -1   6 -17   -1.17    3.35
  -1   6  17   -3.11    0.49
  -1  -6 -18    9.43    5.06
  -1   6  18   10.87    5.80
  -1   6 -18   15.59    7.33
  -1  -6 -18   21.59    9.58
  -1   6 -18   11.00    4.15
   1   6 -18   16.69    9.25
   1   6 -18   15.37    4.70
  -1   6 -18   17.30    8.36
   1   6  18   24.81    9.17
   1  -6 -18   19.18    8.12
   1   6 -18   17.72    7.81
   1  -6 -18   18.20    7.71
   1   6  19   -1.19    1.66
   1  -6 -19    6.80    3.38
   1   6 -19   -3.66    2.95
  -1   6  19   -1.19    3.94
   1   6 -19    4.48    6.05
  -1  -6 -19    3.57    5.76
  -1   6 -19    2.58    1.40
   1  -6 -19   -1.71    2.45
  -1   6 -19    2.05    3.58
  -1  -6 -19    2.29    2.41
   1  -6 -20   93.17   18.00
  -1   6 -20  130.41   21.37
  -1   6 -20  126.27   19.82
   1   6  20   85.21   15.83
  -1   6  20   75.53   14.64
   1  -6 -20  106.71   19.05
  -1  -6 -20  106.63   17.86
   1   6 -20  129.81   21.09
   1   6 -20   90.59   16.61
  -1   6  21    1.44    3.35
   1  -6 -21    5.20    3.87
  -1   6 -21    6.25    4.60
   1   6  21    0.70    3.91
   1   6 -21    4.06    5.34
  -1   6 -21    3.87    6.02
   1  -6 -21   -1.14    1.39
   1   6 -21    1.11    1.69
  -1  -6 -21   -2.95    4.42
  -1  -6 -21   -1.84    1.43
  -1  -6 -22   81.59   16.85
  -1   6 -22   53.19   14.02
  -1   6  22   65.94   15.03
   1   6  22   56.13   12.83
   1   6 -22   66.03   14.05
  -1   6 -22   66.94   15.33
   1   6 -22   55.22   14.35
   1  -6 -22   65.79   16.21
  -1  -6 -22   46.23   13.30
   1  -6 -22   79.40   16.44
  -1   6  23   12.45    6.59
   1  -6 -23   22.58    8.36
  -1  -6 -23    3.71    2.69
  -1   6 -23   11.41    7.18
   1   6 -23   15.70    6.60
   1  -6 -23   11.98    6.54
  -1  -6 -23    9.55    5.99
   1   6 -23    8.20    5.37
  -1   6 -23    8.20    6.42
   1   6  23    5.39    4.80
  -1   6 -24   21.32   10.55
  -1   6  24    0.43    2.69
   1   6 -24   17.74    8.72
   1   6  24    0.29    5.42
  -1  -6 -24   12.06    8.26
   1  -6 -24    7.44    1.83
  -1  -6 -24   20.53    8.66
   1   6 -24   11.44    5.20
   1  -6 -24   28.46   10.37
  -1   6 -24   12.61    8.21
  -1   6 -25    5.64    6.94
   1   6 -25    6.97    7.01
  -1  -6 -25    6.79    3.95
  -1   6  25    3.20    6.18
  -1   6 -25    4.59    8.11
   1  -6 -25   21.48    9.58
   1  -6 -25   11.62    6.67
  -1  -6 -25   -0.70    3.59
   1   6 -25    4.09    4.10
   1   6  25    2.30    3.25
   1   6  26    8.02    4.25
  -1   6  26   -0.63    3.00
  -1  -6 -26    6.97    4.83
   1  -6 -26    3.96    3.90
   1   6 -26    8.64    8.85
  -1   6 -26    4.95    2.34
   1   6 -26    6.32    7.24
  -1   6 -26    7.80    2.95
  -1  -6 -26    8.75    4.80
   1  -6 -26    5.87    4.64
  -1   6 -27   10.69    7.45
   1   6 -27   -0.94    3.53
   1  -6 -27    1.09    0.74
  -1  -6 -27   17.53    9.06
   1   6 -27    8.76    7.13
  -1   6  27   -2.22    6.38
  -1  -6 -27    6.19    6.22
   1   6  27    0.92    2.46
  -1   6 -27    7.61    7.60
   1  -6 -27    1.52    3.37
  -1   6 -28   34.75   11.89
  -1   6 -28   29.62   10.49
   1  -6 -28   39.65   13.53
  -1  -6 -28   41.21   13.87
  -1  -6 -28   25.91   10.50
   1   6 -28   31.06   11.91
   1   6  28   15.97    5.38
   1   6 -28    9.02    9.36
   1  -6 -28   42.38   14.03
  -1   6  28   27.66   10.35
  -1  -6 -29   -5.07    6.20
  -1   6 -29    3.92    5.87
   1  -6 -29    4.49    7.11
   1   6 -29    7.01    5.66
   1   6 -29   -8.60    9.68
   1  -6 -29   -4.19    4.63
   1   6  29   -2.05    5.26
  -1   6 -29    2.10    3.38
  -1  -6 -29    9.48    9.58
  -1   6  29   -1.97    4.26
   1  -6 -30    7.40    7.53
   1  -6 -30   10.66    6.99
  -1   6 -30   11.47    8.29
   1   6  30   11.16    8.13
   1   6 -30    6.83    6.07
  -1  -6 -30   12.04    9.42
  -1   6  30   -0.47    1.02
  -1   6 -30   17.01    7.93
   1   6 -30   22.23    9.24
  -1  -6 -30    2.99    1.74
   1   7   0   -0.59    2.18
  -1   7   0    0.23    1.40
  -1   7   0    0.38    2.06
   1   7   0   -2.77    4.45
  -1   7  -1  115.74   13.34
  -1   7   1  159.72   16.71
  -1   7   1   98.96   14.33
   1   7  -1  136.98   15.07
   1   7   1  153.81   17.49
  -1   7  -1  174.62   20.46
   1   7  -1  112.70   15.20
   1   7   1  149.24   16.83
  -1   7   2   24.42    6.30
  -1   7  -2   12.37    4.32
  -1   7  -2   21.21    6.66
  -1   7   2   11.87    4.97
  -1  -7  -2   13.02    3.80
   1   7  -2   15.88    6.21
   1   7   2   19.28    6.37
   1   7  -2   12.83    4.36
   1   7   2    7.45    3.98
  -1   7   3   12.52    3.93
  -1   7  -3    0.87    1.68
   1   7   3   16.72    4.96
   1   7  -3   12.98    4.92
  -1   7   3   15.02    5.74
  -1   7  -3   14.35    4.55
  -1  -7  -3   14.78    5.83
   1   7   3   19.62    6.21
   1   7  -3   13.12    4.91
   1  -7  -4  113.43   10.17
  -1   7  -4  195.14   19.29
  -1  -7  -4  161.12   16.34
   1   7   4  173.91   18.62
   1   7  -4  129.92   16.59
  -1   7   4  126.31   16.09
  -1   7  -4  111.77   16.00
   1   7  -4  140.79   17.34
   1   7  -5  356.57   28.87
   1   7   5  538.18   33.69
   1  -7  -5  393.80   19.79
  -1   7  -5  417.50   31.19
  -1   7   5  422.38   29.74
   1  -7  -5  458.89   29.81
   1   7  -5  454.34   30.43
  -1  -7  -5  372.76   25.33
  -1   7  -5  457.47   28.57
   1   7  -6  110.34   14.59
  -1  -7  -6  121.14   14.28
  -1   7  -6  138.34   17.80
   1  -7  -6   95.34   14.83
   1   7   6   94.86   14.58
   1   7  -6   94.24   14.58
   1  -7  -6  125.57   11.67
  -1   7   6  110.57   15.44
  -1   7  -6  105.76   12.93
  -1   7  -6  135.75   15.89
   1   7   7    4.34    4.04
   1   7  -7    2.01    2.77
   1   7  -7    1.63    2.30
  -1  -7  -7    5.73    5.51
   1  -7  -7    2.60    1.57
   1  -7  -7    2.78    3.73
  -1  -7  -7   -1.06    2.27
  -1   7  -7    2.98    1.97
  -1   7  -7    0.58    3.23
  -1   7  -7    1.44    2.21
  -1   7   7    0.82    1.02
  -1   7  -8  130.16   17.98
   1   7  -8  136.34   18.81
  -1   7  -8  122.30   15.80
  -1   7   8   93.21   15.24
   1  -7  -8   98.30   12.36
  -1  -7  -8  102.00   13.73
   1  -7  -8   87.09   13.45
  -1  -7  -8  118.36   16.49
  -1   7  -8   93.20   12.85
   1   7  -8  107.08   15.68
   1   7   9   46.09   10.43
  -1   7  -9   24.15    7.13
   1   7  -9   28.31    8.29
  -1  -7  -9   39.00   11.03
  -1   7  -9   50.76    9.88
  -1  -7  -9   42.48    9.39
   1  -7  -9   29.28    6.38
  -1   7   9   34.01   10.07
   1  -7  -9   32.48    8.90
   1   7  -9   39.57    9.70
  -1   7  -9   34.46    8.60
   1  -7 -10   62.71   10.20
  -1  -7 -10   63.58   12.43
   1   7 -10   53.78   10.88
  -1   7 -10   37.26    8.60
   1   7 -10   46.38   10.32
   1   7  10   67.24   12.92
  -1   7 -10   77.03   13.04
   1  -7 -10   78.83   12.34
  -1  -7 -10   64.28   12.30
  -1   7  10   61.52   13.05
  -1   7 -10   77.00   14.09
  -1   7 -11    5.50    3.91
  -1   7  11    9.93    5.74
   1   7 -11    1.83    3.94
   1   7  11    7.37    4.40
   1   7 -11    4.49    1.79
  -1   7 -11    3.71    2.88
  -1  -7 -11    4.43    5.81
   1  -7 -11   13.17    6.07
  -1  -7 -11    4.45    4.02
  -1   7 -11    3.61    2.36
   1  -7 -11    7.69    3.71
   1   7 -12    4.88    4.38
  -1   7  12    6.44    4.66
   1  -7 -12    1.57    1.80
  -1  -7 -12    2.29    2.47
   1  -7 -12    1.33    0.83
   1   7  12    5.92    4.26
   1   7 -12    7.46    4.75
  -1   7 -12    2.75    6.17
  -1   7 -12    5.44    3.77
  -1   7 -12   13.13    5.44
  -1  -7 -12    4.15    4.25
   1   7 -13  231.10   25.58
   1  -7 -13  216.94   22.24
  -1   7  13  244.44   26.76
  -1  -7 -13  199.59   22.62
  -1   7 -13  187.97   21.73
   1  -7 -13  184.26   22.40
  -1   7 -13  263.45   25.72
   1   7 -13  285.02   26.98
   1   7  13  177.38   22.65
  -1  -7 -13  271.23   25.63
  -1   7 -13  277.45   27.14
   1   7 -14  286.50   29.70
   1   7  14  299.24   30.36
  -1   7 -14  460.39   35.97
   1  -7 -14  491.51   32.81
  -1   7 -14  448.35   34.18
   1  -7 -14  279.87   28.82
   1   7 -14  367.15   32.15
  -1   7 -14  375.72   29.79
  -1  -7 -14  378.00   30.83
  -1  -7 -14  360.76   31.21
   1   7 -14  321.79   30.29
  -1   7  14  322.40   31.25
   1   7 -15    5.74    4.35
   1   7  15    6.59    2.42
  -1   7 -15    2.86    3.12
   1  -7 -15   -1.42    3.19
  -1   7 -15    1.71    3.69
   1   7 -15    3.86    4.23
  -1   7 -15    1.36    2.83
  -1  -7 -15    0.33    3.56
   1  -7 -15   -1.43    5.88
   1   7 -15    2.35    4.44
  -1   7  15    1.33    4.21
  -1  -7 -15    2.97    2.74
   1   7 -16   -2.51    2.31
  -1   7  16   -0.06    1.70
  -1   7 -16    1.68    0.88
   1   7  16   -1.73    4.75
  -1  -7 -16   -1.39    2.19
   1   7 -16    7.03    5.81
   1  -7 -16   -0.20    1.92
   1  -7 -16   -2.50    4.76
   1   7 -16    2.75    2.56
  -1  -7 -16    1.94    2.82
  -1   7 -16    1.20    1.77
  -1   7 -16    0.42    4.58
   1   7 -17  111.90   17.85
   1   7  17  144.07   21.17
   1  -7 -17   91.93   16.62
   1   7 -17   99.00   18.96
  -1   7 -17  135.60   20.09
  -1  -7 -17  157.99   22.31
   1   7 -17  152.55   21.31
  -1   7  17  153.45   24.52
  -1   7 -17  121.12   18.51
   1  -7 -17  159.13   22.01
  -1   7 -17  169.94   25.45
  -1   7 -18   51.27   12.95
   1  -7 -18   27.06    7.12
   1   7 -18   76.44   16.23
  -1  -7 -18   30.46    9.38
   1  -7 -18   52.27   12.21
   1   7 -18   32.19   10.54
  -1  -7 -18   58.98   12.79
   1   7 -18   28.60   10.33
  -1   7 -18   31.38    9.87
  -1   7 -18   47.35   12.26
  -1   7  18   58.84   15.09
   1   7  18   48.94   13.22
  -1   7 -19   48.76   13.17
   1   7 -19   63.45   14.05
   1  -7 -19   73.09   15.00
   1   7  19   83.45   16.10
   1  -7 -19   82.15   16.95
  -1   7  19   79.29   17.08
  -1   7 -19  104.00   18.88
   1   7 -19   74.14   15.03
  -1  -7 -19   81.54   17.17
  -1   7 -19   88.39   16.79
   1   7 -19   82.53   17.62
  -1  -7 -19   73.78   15.87
  -1   7 -20   -4.35    4.81
   1   7 -20    1.49    1.79
  -1  -7 -20    4.25    2.54
  -1  -7 -20    0.19    1.83
  -1   7 -20    5.26    6.28
   1   7  20    1.34    2.75
  -1   7  20    6.20    5.75
   1   7 -20    1.94    3.79
   1  -7 -20    2.11    4.65
  -1   7 -20    5.09    8.24
   1  -7 -20    5.66    7.01
   1  -7 -21    7.42    5.10
  -1  -7 -21    5.12    6.92
  -1   7 -21    4.31    6.59
   1   7  21   10.68    7.77
   1  -7 -21   11.52    7.14
  -1   7  21   -1.26    4.54
  -1   7 -21    3.40    5.03
   1   7 -21    0.80    3.20
   1   7 -21    1.56    2.13
  -1  -7 -21   12.28    7.99
   1   7 -22    4.89    6.21
  -1   7  22   -1.63    3.24
   1   7  22    0.12    4.38
   1   7 -22    6.72    7.71
  -1   7 -22    7.33    7.49
   1  -7 -22   -1.19    3.54
  -1   7 -22   -7.18    7.76
  -1  -7 -22    7.00    6.84
   1  -7 -22    2.30    5.19
  -1  -7 -22   -6.35    6.08
   1  -7 -23   27.34    9.98
  -1  -7 -23   37.75   13.39
   1   7 -23   22.12    8.28
  -1   7 -23   34.94   10.69
  -1  -7 -23   36.26   11.68
  -1   7 -23   29.61   11.39
   1  -7 -23   29.77   11.19
   1   7 -23   43.96   12.45
  -1   7  23   53.91   14.14
   1   7  23   32.93   10.12
  -1   7 -24   -1.73    2.16
   1  -7 -24    3.91    6.15
   1   7 -24   -2.15    3.09
  -1   7 -24    1.91    4.28
   1   7  24    0.93    2.76
   1   7 -24    2.76    5.37
  -1   7  24   -0.61    5.81
  -1  -7 -24    3.33    5.53
   1  -7 -24    2.05    4.20
  -1  -7 -24    1.23    6.83
  -1   7  25    2.86    3.63
  -1  -7 -25   -3.47    5.18
  -1   7 -25    8.98    7.25
  -1   7 -25   -3.17    5.96
   1  -7 -25    2.14    4.58
   1   7 -25   -0.19    2.94
   1   7 -25    1.19    5.60
   1  -7 -25    1.67    3.12
   1   7  25    2.65    3.31
  -1  -7 -25    0.37    3.11
  -1   7 -26    0.23    3.00
  -1   7  26   -1.32    3.05
  -1  -7 -26   -1.26    5.57
  -1  -7 -26    6.85    4.43
   1   7  26    1.60    4.39
   1  -7 -26    9.70    8.36
   1  -7 -26    4.01    5.43
   1   7 -26   -1.06    0.44
  -1   7 -26    0.68    5.72
   1   7 -26    5.06    4.51
  -1   7 -27   20.35    9.96
  -1   7  27   14.25    7.70
  -1  -7 -27   17.36    9.05
   1  -7 -27   23.84   10.48
   1   7 -27   23.27    9.73
   1   7 -27    6.99    5.27
   1   7  27   11.10    4.68
  -1  -7 -27   17.83    7.95
  -1   7 -27   10.04    6.26
   1  -7 -27   20.84   11.12
  -1  -7 -28   25.34    9.59
   1   7 -28   28.67   11.18
   1  -7 -28   11.74    9.57
   1   7  28   14.86    9.96
   1  -7 -28    9.78    4.99
  -1   7 -28   16.00    3.42
   1   7 -28    9.69    6.89
  -1   7 -28   16.75    8.43
  -1   7  28   19.83   10.49
  -1  -7 -28   -2.16    5.37
   1  -7 -29   -1.48    5.70
   1   7  29    6.23    4.55
   1   7 -29    1.25    3.96
  -1   7  29   -0.55    4.93
  -1   7 -29    2.43    5.01
  -1   7 -29   -2.82    8.08
  -1  -7 -29    4.53    7.23
  -1  -7 -29    2.05    4.13
   1  -7 -29    3.92    5.60
   1   7 -29   10.30    8.45
  -1   8   0   -0.67    2.34
  -1   8   0   -1.85    2.02
   1   8   0    0.43    2.11
   1   8   0    1.29    1.10
   1   8  -1  563.69   32.87
  -1   8  -1  684.52   41.50
  -1   8  -1  724.51   35.71
   1   8  -1  656.28   39.70
   1   8   1  845.37   43.97
   1   8   1  543.78   34.38
  -1   8   1  752.85   39.23
  -1   8   1  526.88   36.11
   1   8   2   76.25   12.37
  -1   8  -2  102.71   13.87
   1   8  -2  122.84   16.42
  -1   8  -2  123.10   16.62
   1   8   2  112.94   15.54
   1   8  -2  105.32   16.37
  -1   8   2  122.64   17.12
  -1   8   2  121.77   15.99
  -1   8  -3   17.39    7.28
   1   8  -3   24.61    6.70
  -1   8   3   25.00    7.66
   1   8   3   13.63    6.49
  -1   8  -3   21.15    6.39
  -1   8   3   13.04    5.17
  -1  -8  -3   19.80    6.02
   1   8   3   20.79    7.97
   1   8  -3   17.91    5.40
  -1   8   4    3.00    3.27
  -1   8  -4   16.19    6.72
   1   8   4    8.85    2.85
  -1  -8  -4    8.42    3.95
  -1   8   4    8.46    4.93
  -1   8  -4   12.74    6.59
   1   8   4    7.89    4.00
   1   8  -4   13.53    5.13
   1   8  -4    8.48    5.12
   1   8   5  678.53   39.18
  -1  -8  -5  645.97   35.13
   1  -8  -5  619.84   27.03
   1   8  -5  708.29   42.41
  -1   8  -5  589.35   39.18
  -1   8   5  628.62   38.61
   1   8   5  592.14   36.73
   1   8  -5  665.82   40.51
  -1   8  -6   32.95    8.34
   1   8  -6   40.25    9.29
   1  -8  -6   34.86    6.95
   1   8   6   11.39    5.31
  -1  -8  -6   37.74    8.38
   1   8  -6   38.52    8.84
  -1   8  -6   35.98    8.92
  -1   8   6   36.85   10.00
  -1   8  -6   33.82   10.16
   1  -8  -7  101.47   11.38
  -1   8   7  197.31   21.54
   1   8  -7  167.30   19.22
  -1   8  -7  143.79   17.16
   1   8   7  168.67   20.45
  -1  -8  -7  158.28   17.34
   1  -8  -7  199.78   22.01
  -1   8  -7  181.06   19.51
   1   8  -7  178.14   21.42
  -1   8  -7  140.38   19.09
  -1   8  -8    6.11    3.19
   1   8   8    8.69    5.58
  -1   8  -8    8.12    5.48
  -1   8  -8    1.87    2.15
  -1   8   8    5.93    5.37
   1  -8  -8    0.22    1.67
   1   8  -8    8.04    5.46
  -1  -8  -8    9.93    5.43
   1   8  -8    5.01    4.81
   1  -8  -8   11.62    6.37
  -1  -8  -9 1184.38   55.99
  -1  -8  -9 1089.40   48.23
   1  -8  -9 1162.63   43.06
   1   8   9 1209.86   59.39
  -1   8  -9 1359.07   63.16
   1   8  -9 1334.05   57.49
  -1   8   9  972.37   52.23
  -1   8  -9 1365.64   58.15
   1  -8  -9 1200.80   55.55
  -1   8  -9  928.88   43.71
   1   8  -9 1428.34   64.09
   1   8 -10   25.40    7.02
   1  -8 -10   19.65    6.91
  -1   8 -10   40.86   10.31
  -1   8  10   20.48    6.97
  -1   8 -10   40.74    9.19
   1  -8 -10   24.87    6.25
   1   8  10   29.36    9.57
  -1  -8 -10   36.55    8.55
   1   8 -10   36.77   10.33
  -1  -8 -10   28.70    8.02
  -1   8 -10   22.61    7.05
   1   8 -11   20.97    6.25
  -1   8 -11   18.21    7.08
  -1   8 -11   33.46   10.62
   1  -8 -11   19.51    7.47
  -1  -8 -11   22.14    7.93
   1  -8 -11   19.78    7.14
  -1   8  11   13.30    6.54
  -1   8 -11   27.30    7.92
  -1  -8 -11   15.16    5.08
   1   8  11   19.00    7.02
   1   8 -11   29.70    8.89
  -1   8 -12  166.16   21.30
   1   8 -12  183.46   22.32
  -1  -8 -12  235.34   24.23
   1  -8 -12  198.18   20.55
  -1   8 -12  193.70   21.38
   1   8  12  210.71   25.91
   1   8 -12  194.69   23.54
  -1  -8 -12  199.67   23.46
  -1   8  12  234.01   27.37
   1  -8 -12  196.97   22.73
  -1   8 -12  142.83   19.58
  -1   8 -13   58.62   12.98
  -1   8  13   61.23   14.26
   1   8 -13   53.78   12.39
   1  -8 -13   53.11   12.25
  -1  -8 -13   85.71   15.28
  -1   8 -13   69.83   14.77
   1  -8 -13   59.17   11.27
   1   8  13   64.78   15.51
  -1   8 -13   55.81   12.00
   1   8 -13   47.96   12.42
  -1  -8 -13   59.75   13.22
  -1   8 -14    3.40    2.20
   1   8 -14    6.75    2.35
   1  -8 -14    3.30    4.88
   1   8 -14    1.39    0.73
   1  -8 -14    5.18    3.96
   1   8  14   19.40    8.41
  -1  -8 -14   11.42    6.35
  -1  -8 -14    7.02    6.39
   1   8 -14    5.17    1.75
  -1   8  14    7.47    6.85
  -1   8 -14    4.34    1.05
   1   8 -15   44.11   11.66
  -1   8  15   53.46   12.95
   1  -8 -15   55.20   12.18
  -1   8 -15   46.61   11.86
  -1   8 -15   56.70   13.61
   1   8  15   22.74    6.19
   1   8 -15   54.15   12.98
  -1  -8 -15   53.64   13.04
  -1   8 -15   49.09   11.45
   1  -8 -15   41.98   11.65
   1   8 -15   72.37   15.44
  -1  -8 -15   45.71   11.73
   1   8 -16    2.17    2.15
  -1   8 -16    0.09    1.40
   1  -8 -16    5.47    0.90
  -1  -8 -16    6.79    5.83
   1   8 -16    4.13    6.84
   1  -8 -16    6.20    5.43
   1   8  16    6.50    4.13
  -1  -8 -16   -0.04    1.92
  -1   8 -16    8.51    8.56
   1   8 -16    2.50    4.02
  -1   8 -16    1.65    1.11
  -1   8  16    2.69    7.10
   1   8 -17   86.84   16.90
  -1  -8 -17   86.21   17.21
  -1   8 -17   89.02   16.29
   1  -8 -17  111.56   19.58
  -1   8 -17  108.35   20.07
  -1  -8 -17   72.06   15.12
  -1   8 -17  114.05   18.49
   1   8 -17   83.09   16.91
   1   8  17  143.67   22.51
   1   8 -17  105.36   19.50
  -1   8  17  137.71   23.75
   1  -8 -17   99.13   17.94
   1   8 -18    8.86    7.85
   1  -8 -18   13.78    6.77
   1   8 -18   -2.33    5.12
   1   8 -18   -4.01    3.40
   1   8  18    4.12    2.90
  -1  -8 -18    0.51    3.86
  -1  -8 -18    0.38    3.32
  -1   8 -18    8.98    5.52
  -1   8 -18    8.01    4.99
   1  -8 -18    0.35    2.97
  -1   8 -18    6.79    8.22
  -1   8  18   13.17    8.25
  -1  -8 -19  163.02   23.76
  -1   8 -19  169.51   24.16
  -1   8  19  149.81   22.81
   1   8 -19  169.30   24.58
   1  -8 -19  169.36   23.50
   1   8  19  165.17   25.10
  -1  -8 -19  162.31   24.17
   1   8 -19  109.48   19.15
  -1   8 -19  173.03   26.98
  -1   8 -19   78.38   15.53
   1   8 -19  123.45   22.76
   1   8 -20   -2.52    4.19
  -1   8 -20    1.42    0.73
   1   8  20    1.91    4.96
   1  -8 -20    4.65    3.33
  -1  -8 -20   -1.84    2.96
  -1   8 -20    0.55    1.78
   1   8 -20    0.30    0.65
  -1  -8 -20   -4.92    6.53
  -1   8 -20   -1.59    5.06
  -1   8  20   -0.07    5.20
   1  -8 -20    8.32    8.18
   1   8 -20    3.25    2.41
   1   8  21   33.24   12.10
  -1   8 -21   49.73   14.59
  -1   8 -21   36.88   11.84
  -1   8 -21   84.76   17.74
  -1  -8 -21   53.16   16.06
  -1   8  21   65.19   15.15
   1  -8 -21   31.57   10.15
   1   8 -21   31.53   10.98
  -1  -8 -21   41.65   11.83
   1  -8 -21   24.30   10.95
   1   8 -21   28.26   11.12
  -1   8 -22    1.75    3.19
  -1  -8 -22   12.60    8.04
  -1   8  22    5.09    5.44
  -1   8 -22    9.93    5.88
   1  -8 -22   -3.70    3.68
   1   8 -22    0.27    3.57
   1   8  22   -0.55    3.23
   1   8 -22   -0.40    6.58
   1  -8 -22    4.05    4.54
  -1  -8 -22   10.72    8.07
   1   8  23   52.55   14.32
  -1  -8 -23   46.41   13.49
  -1   8 -23   45.61   11.97
  -1   8 -23   26.82    8.07
   1   8 -23   38.27   12.27
   1  -8 -23   40.83   12.80
  -1   8  23   55.03   15.11
   1   8 -23   58.04   14.03
  -1  -8 -23   52.26   14.58
   1  -8 -23   59.94   15.82
   1   8 -24    9.73    8.22
  -1  -8 -24   12.85    8.37
  -1   8 -24    4.20    6.46
  -1   8  24    6.29    3.35
   1   8  24   -1.39    5.12
   1  -8 -24   -0.67    5.02
  -1   8 -24    1.09    2.36
   1   8 -24    6.81    6.83
   1  -8 -24  -11.11    8.65
  -1  -8 -24   -0.10    3.74
   1  -8 -25   15.78   11.07
   1   8 -25    4.68    4.36
  -1  -8 -25    3.31    5.16
   1   8  25    7.48    6.03
  -1   8 -25   14.36    9.35
  -1   8  25    4.38    5.39
  -1   8 -25    9.41    7.58
  -1  -8 -25   18.08    8.22
   1   8 -25   18.28    9.98
   1  -8 -26    1.37    3.61
   1   8  26    2.17    2.23
  -1  -8 -26    0.32    3.87
  -1   8 -26   -7.22    7.19
  -1  -8 -26   -1.98    5.32
  -1   8 -26    6.15    4.96
  -1   8  26   -0.65    2.34
   1   8 -26    1.16    5.48
   1   8 -26   -3.99    3.11
   1  -8 -27   66.38   17.13
  -1   8 -27   12.58    6.19
   1   8 -27   51.45   15.15
  -1   8  27   39.08   16.45
  -1   8 -27   16.65    9.56
  -1  -8 -27   44.31   14.41
   1   8  27   56.11   14.05
   1   8 -27   35.75   13.16
  -1  -8 -27   37.82   11.19
   1  -8 -28    7.68    5.63
  -1   8  28    1.36    5.10
   1   8 -28   -4.06    1.06
  -1   8 -28   10.47    7.80
   1   8 -28    7.22    6.40
   1   8  28    3.40    5.42
  -1   8 -28    5.98    1.99
  -1  -8 -28    0.94    4.22
  -1  -8 -28    8.15    4.54
   1   9   0    1.94    3.04
  -1   9   0    0.86    3.21
   1   9   0   -1.66    4.56
  -1   9   0    0.79    3.54
  -1   9  -1   16.50    5.75
  -1   9  -1   35.11    9.41
   1   9  -1   23.74    6.89
  -1   9   1   29.60    8.43
  -1   9   1   36.97    9.92
   1   9   1   29.57    8.55
   1   9  -1   32.21    8.62
   1   9   1   26.74    7.48
  -1   9   2   85.74   14.77
  -1   9  -2   68.64   12.80
   1   9  -2   75.39   13.14
   1   9   2  100.66   16.14
   1   9  -2  118.93   17.89
   1   9   2   93.36   14.94
  -1   9   2  125.30   17.09
  -1   9  -2   65.03   12.61
  -1   9  -3  131.86   17.37
   1   9  -3  136.68   17.92
   1   9   3   99.18   16.46
  -1   9  -3  123.80   18.51
   1   9  -3  108.37   18.19
   1   9   3   89.99   15.14
  -1   9   3  122.15   17.82
  -1   9   3  106.28   15.38
   1   9   4   47.91   11.15
  -1   9   4   46.31   10.69
   1   9   4   45.00   10.67
   1   9  -4   47.75   12.16
  -1  -9  -4   43.19    8.99
   1   9  -4   45.23   11.10
  -1   9  -4   48.37   10.28
  -1   9   4   35.78    9.35
  -1   9  -4   53.70   12.97
  -1   9  -5    2.05    3.03
  -1   9  -5    2.46    1.52
  -1   9   5    6.92    4.19
  -1   9   5    3.90    2.84
  -1  -9  -5    2.76    1.49
   1   9  -5    8.75    5.46
   1   9  -5   11.13    6.42
   1   9   5   15.64    6.07
   1   9   5    5.43    4.59
  -1   9   6   62.08   12.99
   1   9  -6   43.51   10.97
   1   9   6   56.27   11.47
   1   9  -6   49.39   10.92
  -1  -9  -6   81.15   13.58
  -1   9  -6   57.35   13.42
   1  -9  -6   58.49    9.08
   1   9   6   72.40   13.54
  -1   9  -6   57.53   11.30
   1   9   7    0.50    2.75
  -1  -9  -7   -0.45    1.42
  -1   9   7    4.46    5.60
  -1   9  -7   -0.11    3.90
  -1   9  -7    4.97    4.40
   1  -9  -7    0.78    0.91
   1   9   7    1.46    4.37
   1   9  -7    1.12    3.57
   1   9  -7    1.58    3.22
  -1   9  -7    3.96    3.99
  -1  -9  -8    6.64    5.73
   1   9  -8    3.23    2.57
  -1   9  -8    1.87    5.25
   1   9  -8    1.67    1.86
  -1   9   8    6.20    1.45
   1   9   8   16.48    6.53
  -1   9  -8    9.26    5.52
   1  -9  -8    4.10    2.53
  -1   9  -8    5.29    3.61
   1  -9  -9  968.37   40.15
  -1  -9  -9  818.15   43.03
  -1   9   9  853.91   48.95
   1   9  -9  854.79   47.82
  -1   9  -9 1004.41   57.91
   1  -9  -9  983.34   52.44
  -1   9  -9  909.77   48.56
  -1   9  -9  835.95   43.08
   1   9  -9  956.74   54.50
   1   9 -10   44.14   12.11
   1   9  10   40.64   10.22
  -1   9 -10   56.17   12.88
   1  -9 -10   41.75    9.08
  -1   9  10   29.24    9.62
  -1  -9 -10   28.36    7.39
   1   9 -10   31.82    9.34
  -1   9 -10   27.33    7.97
   1  -9 -10   47.66   11.30
  -1   9 -10   40.40    9.14
  -1   9 -11   25.67    8.70
  -1   9  11   37.86   11.32
   1  -9 -11   17.73    5.93
   1   9 -11   26.34    9.42
  -1   9 -11   29.11    9.02
  -1   9 -11   23.54    8.06
   1   9 -11   20.34    8.24
   1   9  11   18.78    8.51
  -1  -9 -11   36.18   10.13
   1  -9 -11   27.07    8.37
  -1  -9 -11   32.76    9.72
  -1   9  12   14.35    5.57
   1   9  12    9.36    4.83
  -1   9 -12    0.36    2.95
   1   9 -12    5.31    4.27
   1  -9 -12    5.91    4.13
  -1  -9 -12    9.36    4.62
   1   9 -12   15.21    5.93
   1  -9 -12    8.51    6.41
  -1   9 -12    8.42    5.45
  -1  -9 -12    7.29    3.83
  -1   9 -12   -2.50    3.77
   1   9 -13    4.36    3.52
  -1   9 -13    5.55    6.57
   1  -9 -13   -0.89    2.29
   1  -9 -13   -1.12    1.17
  -1   9 -13   -1.59    0.82
  -1  -9 -13   12.24    7.79
  -1  -9 -13    8.93    7.61
   1   9  13    0.83    4.12
  -1   9 -13   -0.13    5.50
   1   9 -13    2.67    2.87
  -1   9  13    3.96    4.93
   1   9 -14   10.24    5.95
  -1   9 -14    4.60    1.98
  -1   9 -14    5.46    1.24
   1   9 -14    9.26    6.22
   1   9 -14    4.42    3.14
   1  -9 -14    8.27    5.12
  -1   9 -14    7.10    5.75
   1   9  14   21.67    8.36
  -1  -9 -14   14.18    6.42
  -1   9  14    8.73    0.66
  -1  -9 -14   -0.42    4.47
  -1   9 -15    8.10    2.77
   1   9 -15   32.60   10.99
  -1   9 -15   29.01    9.69
  -1  -9 -15   36.97   10.59
  -1   9 -15   23.22    7.21
  -1   9  15   37.68   11.71
   1   9 -15   34.80   11.59
   1   9 -15   43.23   11.78
  -1  -9 -15   35.35   12.55
   1   9  15   40.46   11.99
   1  -9 -15   11.15    6.26
  -1   9 -16   53.39   13.40
   1   9  16   43.41   10.17
   1   9 -16   57.35   14.41
   1   9 -16   55.12   13.37
  -1   9 -16   62.73   14.32
   1  -9 -16   57.77   13.36
  -1   9  16   58.16   15.65
  -1  -9 -16   72.02   15.86
   1   9 -16   47.82   12.41
  -1  -9 -16   32.15   10.48
  -1   9 -16   54.11   13.47
   1   9 -17    5.90    6.32
   1   9 -17    1.43    3.70
  -1  -9 -17    5.68    1.75
  -1  -9 -17   -2.38    5.01
  -1   9  17   -0.18    2.58
   1   9 -17    4.20    3.95
   1   9  17    2.37    3.23
  -1   9 -17    7.70    6.61
  -1   9 -17    2.95    3.81
   1  -9 -17    4.39    5.89
  -1   9 -17    7.69    3.25
   1  -9 -18   26.67    9.68
  -1   9 -18   35.42   12.34
   1   9 -18   13.77    6.18
  -1  -9 -18   19.51    8.71
   1   9 -18   14.86    7.57
  -1   9  18   30.06   11.74
  -1   9 -18   42.90   12.17
   1   9  18   22.01    9.20
   1   9 -18   16.71    5.48
  -1  -9 -18   25.50    9.75
  -1   9 -18   13.22    8.24
   1   9 -19   23.77    8.39
   1   9 -19   19.98    8.66
  -1   9 -19   19.18    8.01
  -1   9  19   24.47    9.75
   1   9 -19    9.42    2.52
  -1  -9 -19   23.88   10.43
   1   9  19   37.38   10.77
  -1   9 -19   13.78    6.41
   1  -9 -19   17.30    6.95
  -1   9 -19   20.70    7.81
  -1  -9 -19   12.96    6.95
   1   9  20   27.06    9.60
   1   9 -20   29.22    9.67
  -1  -9 -20   14.82    6.85
  -1   9  20   34.34   12.76
  -1   9 -20   43.51   13.85
  -1  -9 -20   14.63    5.62
   1   9 -20   17.29    8.35
   1   9 -20   34.35   13.10
  -1   9 -20   21.53    9.70
   1  -9 -20   13.96    9.34
  -1   9 -20   20.68    7.26
   1   9 -21   18.64    7.95
  -1  -9 -21   35.66   11.48
  -1   9 -21   11.53    8.09
  -1   9  21   28.71   10.01
  -1   9 -21   33.11   10.60
  -1  -9 -21   23.61    8.11
   1   9 -21   23.81    8.60
   1  -9 -21   18.89    9.17
   1   9 -21   24.52   10.74
  -1   9 -21   28.52   11.04
   1   9  21   16.34    6.88
   1   9 -22    1.89    4.37
   1  -9 -22    1.37    6.08
   1   9  22    9.55    8.76
   1   9 -22    7.35    5.25
  -1   9 -22    5.58    6.36
  -1   9 -22    1.88    5.13
  -1  -9 -22   12.26    5.08
  -1   9 -22    7.00    6.14
   1   9 -22    4.36    3.66
  -1   9  22    7.49    6.61
  -1  -9 -22    7.88    6.25
  -1   9 -23   -1.30    4.21
   1   9 -23    0.30    3.39
  -1   9 -23   -2.32    2.27
  -1  -9 -23   -3.60    5.94
   1  -9 -23    8.07    6.15
  -1  -9 -23    5.37    4.11
   1   9  23    0.44    4.39
   1   9 -23    3.28    4.28
  -1   9  23    8.85   10.53
  -1  -9 -24    7.50    5.80
  -1   9 -24   23.34   11.07
   1   9  24    9.26    6.26
  -1  -9 -24    6.14    7.31
   1   9 -24    5.81    5.95
  -1   9  24   15.75    9.82
  -1   9 -24    4.81    3.16
   1   9 -24    5.59    6.71
   1  -9 -24    4.93    4.18
  -1   9 -25   -5.35    3.33
  -1  -9 -25    0.12    4.58
  -1   9  25    6.36   10.23
   1   9  25   -0.46    4.50
   1  -9 -25   -5.21    7.47
  -1  -9 -25    6.56    3.48
  -1   9 -25    4.79    1.26
   1   9 -25    1.21    1.47
   1   9 -25    0.03    4.34
  -1  -9 -26   -0.65    7.72
   1   9 -26    7.49    7.72
   1   9  26    2.65    5.64
  -1   9 -26    0.69    1.89
  -1   9 -26    0.90    2.39
   1   9 -26    0.64    5.31
   1  -9 -26   -4.21    2.92
  -1  -9 -26   -5.80    7.87
  -1   9  26    2.77    1.84
  -1   9  27   23.05    8.97
   1  -9 -27   23.79   11.05
   1   9  27   29.86   11.52
   1   9 -27   13.13    6.27
  -1   9 -27   17.25    9.44
  -1  -9 -27   29.13   11.79
   1   9 -27   28.35   10.09
  -1   9 -27   22.08    9.67
  -1  -9 -27   20.87   10.50
  -1  10   0   -0.16    0.41
  -1  10   0    5.90    8.20
   1  10   0    0.34    3.40
   1  10   0    4.31    1.94
  -1  10  -1   79.37   13.69
  -1  10  -1  110.01   18.23
   1  10   1   46.96   11.94
   1  10   1   68.61   12.88
  -1  10   1   46.87   10.54
   1  10  -1   74.66   15.00
   1  10  -1   79.75   13.89
  -1  10   1   93.86   16.46
   1  10   2   27.89    9.65
  -1  10   2   65.57   14.14
  -1  10  -2   44.85   10.57
  -1  10  -2   40.04   10.58
   1  10  -2   44.50   11.72
   1  10   2   52.72   11.61
  -1  10   2   66.81   12.80
   1  10  -2   75.62   14.49
  -1  10   3  172.98   22.07
   1  10  -3  165.30   21.50
   1  10   3  189.81   22.21
   1  10  -3  166.07   22.06
  -1  10   3  189.42   23.06
  -1  10  -3  239.13   26.53
  -1  10  -3  195.78   22.14
  -1  10   4    4.96    7.11
   1  10   4    5.52    6.18
  -1  10  -4    5.43    6.68
  -1  10  -4    7.47    2.55
  -1  10   4    6.32    3.26
   1  10   4    2.99    5.36
   1  10  -4    2.63    3.57
   1  10  -4    7.10    2.96
   1  10   5  136.09   19.27
  -1  10  -5  179.62   24.03
   1  10  -5  140.13   21.15
  -1 -10  -5  171.49   19.45
  -1  10   5  129.55   18.55
   1  10   5  192.97   22.82
   1  10  -5   83.53   16.41
  -1  10  -5  162.06   20.89
  -1  10   5  152.55   20.98
   1  10   6  145.29   19.99
  -1  10   6  136.99   19.50
   1  10  -6  143.57   20.18
  -1  10   6  107.71   17.22
  -1  10  -6   99.83   15.02
  -1 -10  -6  100.55   15.68
  -1  10  -6  137.07   20.82
   1  10  -6  177.15   23.06
   1  10   6  132.18   19.42
  -1  10  -7   90.68   15.10
  -1  10  -7   63.26   13.80
  -1  10   7   63.72   13.62
   1  10   7  100.16   16.95
   1  10  -7   77.65   14.45
  -1 -10  -7   72.05   13.61
  -1  10   7  118.71   17.55
   1  10   7   52.43   11.60
   1  10  -7   76.62   14.87
  -1  10  -8   73.76   15.45
   1  10  -8   70.73   14.22
   1  10   8   74.21   13.77
   1  10   8   75.31   14.27
   1  10  -8   86.24   14.77
  -1  10   8   75.73   15.00
  -1  10  -8   81.64   14.60
  -1 -10  -8   65.28   12.76
  -1  10  -9   56.25   13.05
   1  10  -9   28.08   10.47
   1  10  -9   44.59   11.00
   1  10   9   36.25    8.89
  -1 -10  -9   36.06    9.81
  -1  10  -9   47.82   11.81
  -1  10   9   26.89    7.96
  -1  10 -10  273.30   29.20
  -1  10  10  320.91   30.91
  -1  10 -10  293.72   31.59
   1  10 -10  326.05   30.90
   1  10  10  213.27   25.86
  -1 -10 -10  267.80   27.40
  -1  10 -11   11.79    6.13
   1  10 -11   12.08    4.90
  -1  10  11   24.30    9.00
   1  10  11   14.34    5.06
   1  10 -11   18.32    9.42
   1 -10 -11   26.79    9.73
  -1 -10 -11   21.17    7.24
  -1  10 -11   14.95    7.85
  -1  10  12   75.43   15.73
   1  10 -12   37.55   11.18
  -1 -10 -12   54.00   12.93
  -1  10 -12   91.07   16.22
   1  10  12   37.33   12.33
  -1  10 -12   60.36   13.39
   1 -10 -12   54.13   13.64
   1  10 -12   72.48   15.66
  -1  10 -13   12.26    4.79
  -1  10 -13   -5.93    4.04
  -1  10 -13   35.37   11.11
  -1  10  13   37.50   10.64
   1 -10 -13   53.48   13.67
   1  10 -13   36.51   10.82
   1  10  13   45.21   11.12
  -1 -10 -13   23.78    8.81
  -1 -10 -13   38.37   11.52
   1  10 -13   62.90   14.19
   1  10 -14    7.83    6.59
  -1  10 -14    6.36    4.86
  -1 -10 -14    4.14    0.26
  -1 -10 -14   -0.68    4.17
   1  10 -14    5.82    4.67
   1  10  14    2.88    4.59
  -1  10  14    1.24    5.18
   1 -10 -14    8.84    6.03
  -1  10 -14    2.30    3.76
  -1  10 -14   23.91   10.11
   1  10 -14   -0.53    4.65
   1 -10 -15    2.78    5.09
  -1 -10 -15   -3.85    4.65
  -1  10 -15   -0.23    1.57
   1  10 -15   -0.17    3.74
   1  10  15    0.70    2.70
  -1  10 -15   12.07   10.17
  -1 -10 -15   -2.30    2.77
   1  10 -15    0.13    7.02
   1  10 -15    4.32    3.97
  -1  10 -15    3.25    5.73
  -1  10  15    5.88    5.30
  -1 -10 -16   67.96   14.34
   1  10 -16   66.16   14.74
   1  10 -16   36.18   12.39
   1  10 -16   74.03   16.24
   1 -10 -16   68.37   15.33
  -1  10 -16   42.89   12.06
  -1  10 -16   76.11   15.63
   1  10  16   82.30   17.03
  -1  10  16   95.95   18.50
  -1  10 -16   89.84   17.46
  -1 -10 -16   40.54   12.73
  -1  10 -17    7.24    5.19
  -1  10 -17   17.64    8.64
   1  10 -17    4.30    1.54
   1  10 -17   11.13    7.29
  -1  10  17   10.73    3.67
  -1 -10 -17    2.72    2.70
  -1 -10 -17    8.96    6.16
   1  10 -17    8.93    6.17
   1  10  17   -4.82    5.63
  -1  10 -17    1.33    2.53
   1 -10 -17    8.65    4.87
  -1  10 -18   14.84    6.88
   1 -10 -18   15.71    9.65
   1  10 -18    5.61    3.78
   1  10 -18    8.89    1.72
   1  10  18    1.90    3.77
  -1 -10 -18   18.15    8.98
  -1  10 -18    3.34    2.22
  -1  10 -18   12.26    6.24
  -1 -10 -18    9.30    5.54
  -1  10  18    3.27    2.05
   1  10 -18    4.61    6.57
   1  10  19    3.31    3.90
   1  10 -19   -1.04    3.80
  -1  10  19    1.08    2.72
  -1  10 -19   -3.06    6.00
   1  10 -19    0.80    1.14
  -1 -10 -19   -3.02    4.60
   1  10 -19    2.45    1.75
  -1 -10 -19    7.80    6.62
  -1  10 -19   -1.75    3.78
  -1  10 -19    3.74    7.00
   1 -10 -19   -6.16    5.94
  -1 -10 -20  109.84   19.85
   1  10 -20   85.93   17.12
  -1  10 -20   56.00   15.45
  -1  10 -20   63.85   16.98
   1  10  20  106.12   20.47
   1  10 -20   74.15   16.93
  -1  10  20   56.64   17.24
  -1 -10 -20   66.07   16.08
   1 -10 -20   63.12   14.50
   1  10 -20  110.21   21.71
  -1  10 -20  139.03   23.68
  -1  10 -21   -4.06    2.84
   1  10  21   -3.87    6.61
   1  10 -21   -3.46    2.54
  -1  10  21    2.50    6.51
  -1  10 -21   -4.78    3.03
   1  10 -21    6.75    7.68
  -1  10 -21   -0.03    3.92
   1 -10 -21   -1.63    5.48
   1  10 -21   -0.55    2.76
  -1 -10 -21    4.07    3.47
   1  10 -22    5.96    6.70
  -1  10 -22   10.11    6.75
  -1  10  22    6.22    2.06
  -1  10 -22   13.05    7.22
   1  10 -22   -0.54    4.90
   1  10 -22   12.24    9.22
  -1  10 -22    6.73    4.95
   1  10  22   13.32    8.70
   1 -10 -22   15.89    8.61
  -1 -10 -22    5.32    4.67
  -1 -10 -23    4.14    3.90
   1  10  23    5.25    4.60
   1  10 -23   -3.26    4.52
   1 -10 -23    0.64    3.46
  -1  10 -23   -5.74    5.29
  -1  10 -23   -4.46    8.34
  -1  10  23   -0.81    1.06
  -1  10 -23   10.55    8.46
   1  10 -23    3.78    6.28
  -1  10  24   24.95   10.62
  -1  10 -24   24.51   11.44
   1  10  24   31.54   12.70
   1  10 -24   19.96    9.85
   1  10 -24    6.19    3.04
  -1  10 -24   18.80   11.45
  -1 -10 -24   20.93   12.76
   1 -10 -24   10.20    7.00
  -1 -10 -25    2.14    3.39
  -1  10 -25   -5.88    5.60
   1  10 -25    3.17    6.19
   1 -10 -25    2.98    9.28
  -1  10  25    4.03    6.03
   1  10 -25    4.80    5.39
   1  10  25   -6.24    4.62
   1  10  26    5.98    7.27
  -1  10 -26    1.09    4.73
   1  10 -26   -2.81    2.60
   1 -10 -26    1.81    3.08
   1  10 -26    8.43    7.06
  -1 -10 -26   -1.91    2.76
  -1  10  26    3.24    4.73
   1  11   0    1.74    4.99
  -1  11   0    1.15    4.71
   1  11   0    4.97    3.74
  -1  11   0    3.52    3.75
  -1  11  -1    5.54    6.12
   1  11  -1    4.87    6.55
  -1  11   1    4.02    3.05
   1  11   1    1.52    3.51
   1  11   1    0.64    2.60
   1  11  -1    1.85    3.53
  -1  11  -1    3.26    1.27
  -1  11   1   -0.47    2.74
   1  11  -2   15.74    6.86
  -1  11  -2    8.45    4.21
   1  11   2    7.06    3.89
  -1  11   2   12.12    5.99
   1  11   2    2.63    1.20
   1  11  -2    8.08    4.09
  -1  11   2   11.83    8.41
  -1  11  -2    8.75    3.63
   1  11  -3   25.47    7.97
  -1  11  -3   43.49   12.62
   1  11   3   37.90   10.71
   1  11  -3   43.94   11.13
  -1  11   3   17.67    6.69
  -1  11  -3   15.41    7.63
  -1  11   3   48.35   13.30
   1  11   3   31.34    9.46
  -1  11  -4   39.98   10.96
   1  11  -4   39.04   11.07
  -1  11   4   23.27    8.12
   1  11   4   32.58   11.61
  -1  11  -4   44.59   13.27
   1  11   4   19.63    8.69
   1  11  -4    6.26    1.95
  -1  11   4   34.53   10.38
  -1  11  -5    4.44    4.39
   1  11   5    3.55    5.22
  -1  11   5   -0.68    2.98
   1  11   5   -0.35    5.64
   1  11  -5   -1.87    3.73
  -1  11   5   -4.04    1.21
   1  11  -5    1.86    2.75
  -1  11  -5   -1.75    5.45
   1  11   6    3.91    6.01
  -1  11   6    5.01    5.06
   1  11   6    2.11    3.28
   1  11  -6   -2.01    3.86
   1  11  -6   -2.64    5.09
  -1  11  -6   -0.08    2.41
  -1  11  -6    6.32    4.29
  -1  11   6    6.27    5.13
   1  11  -7   32.87   12.30
   1  11   7   15.09    6.99
   1  11   7   26.55    8.60
  -1  11   7   24.56    9.01
  -1  11  -7   17.94    8.99
   1  11  -7   19.60    7.02
  -1 -11  -7   15.74    5.65
  -1  11  -7   10.52    5.51
  -1  11   7   12.61    7.09
   1  11  -8   71.86   15.98
   1  11   8   83.55   15.43
  -1  11   8  101.27   17.90
   1  11   8  120.76   18.45
  -1  11  -8   85.37   15.86
  -1  11  -8   42.59   11.81
  -1  11   8   97.24   17.36
   1  11  -8  118.49   18.97
   1  11  -9    2.00    1.94
   1  11   9    3.56    3.89
  -1  11   9    2.47    3.46
   1  11   9    9.74    6.30
   1  11  -9   13.46    7.64
  -1  11  -9   10.43    5.18
  -1  11  -9    2.53    1.88
  -1  11   9   16.75    8.49
  -1  11  10   85.97   16.79
   1  11  10  154.13   22.45
  -1  11 -10  126.52   22.70
   1  11  10  103.91   18.82
  -1  11 -10  128.56   20.46
   1  11 -10   96.71   19.67
   1  11 -10  127.19   19.71
   1  11 -11    8.95    4.00
  -1  11  11    9.70    3.60
   1  11  11   27.25    8.85
  -1  11 -11   30.27   12.25
  -1  11 -11   23.40    9.21
   1  11 -11   30.59   10.16
   1  11 -12   35.25   11.05
  -1  11  12   43.17   13.02
  -1  11 -12   31.16   10.15
  -1  11 -12   31.87   10.91
   1  11  12   60.23   14.43
   1  11 -12   27.13   11.25
   1  11 -13   14.27    8.15
   1 -11 -13   10.20    7.36
   1  11 -13    3.82    3.74
  -1  11 -13    9.94    7.50
  -1  11 -13    6.24    6.80
   1  11  13   15.54    9.29
  -1  11  13    4.93    3.45
   1  11 -13    5.98    3.60
  -1  11  14   -3.68    5.89
  -1  11 -14   12.29    7.85
   1  11  14    4.47    4.96
   1 -11 -14   -1.82    4.67
   1  11 -14    6.46    6.15
  -1  11 -14    5.50    7.09
   1  11 -14   -0.09    3.29
   1  11 -14   -2.14    1.09
   1  11 -15    2.51    4.88
  -1  11  15   -0.91    1.69
   1  11 -15    3.32    6.82
   1  11 -15   -2.31    3.84
   1  11  15    2.81    2.67
   1 -11 -15   -0.82    3.99
  -1  11 -15   -0.02    2.37
  -1  11 -15   -0.98    0.98
  -1  11 -16    9.35    7.00
   1  11 -16    7.94    5.73
   1  11  16    1.76    4.72
  -1 -11 -16    6.64    2.68
  -1  11 -16    2.95    2.87
   1  11 -16    4.14    3.32
  -1  11  16    2.11    3.68
   1 -11 -16    1.05    2.94
   1  11 -16   -1.52    5.17
   1  11 -17   10.67    3.28
   1  11 -17    2.09    2.40
   1  11  17    3.11    6.31
  -1  11  17   12.93    6.93
   1  11 -17   10.22    8.00
  -1  11 -17   13.15    7.41
  -1  11 -17    7.80    8.13
   1 -11 -17   15.81    8.12
  -1 -11 -17   -1.18    5.76
  -1  11 -18   -2.94    1.52
   1 -11 -18   -5.71    5.98
   1  11  18    2.48    8.79
  -1  11  18   -2.43    1.90
   1  11 -18   -2.54    4.90
  -1 -11 -18   -1.65    4.68
  -1  11 -18    2.48    6.37
   1  11 -18    2.49    4.35
   1  11 -18    6.89    7.64
   1  11  19   18.38    8.95
  -1  11 -19   13.47    8.67
   1  11 -19   15.22    8.36
  -1 -11 -19   14.35    7.55
  -1  11 -19   28.35   10.46
   1  11 -19   -2.53    2.57
   1 -11 -19   17.00    8.45
   1  11 -19   30.54   10.57
  -1  11  19    5.85    5.37
   1  11 -20    9.58    5.67
  -1  11 -20   12.66    7.83
   1  11 -20   14.70    8.22
  -1 -11 -20   12.11    7.80
  -1  11 -20   20.13   10.23
  -1  11  20   10.39    9.26
   1  11  20   15.41    7.92
   1 -11 -20   16.45    9.18
   1  11 -20   11.49    8.16
  -1  11 -21    7.52    2.26
   1  11 -21    4.60    4.32
   1 -11 -21    4.26    9.29
  -1 -11 -21    0.59    0.90
  -1  11  21    5.72    6.04
   1  11 -21    0.96    8.91
   1  11  21   -0.78    6.27
  -1  11 -21    7.52    7.22
   1  11 -21    5.35    5.90
   1  11 -22    2.40    6.70
  -1  11 -22    5.92    4.22
  -1  11  22   -1.54    4.80
   1 -11 -22   -2.03    5.55
   1  11  22   -1.21    3.68
  -1  11 -22   15.31   11.38
   1  11 -22    8.09    8.52
  -1 -11 -22   -5.74    8.84
   1  11 -22    0.66    3.94
   1 -11 -23   -1.65    3.85
  -1 -11 -23    2.79    4.65
   1  11 -23   -0.44    6.68
   1  11  23    2.11    3.09
  -1  11  23   -2.29    4.83
   1  11 -23    2.82    2.08
  -1  11 -23    3.11    5.68
   1  11 -23    3.80    6.62
  -1  11  24   -3.98    6.54
   1 -11 -24    4.59    4.87
   1  11 -24   -7.63    8.14
  -1  11 -24   -6.20    8.85
  -1 -11 -24   -2.38    6.44
   1  11  24    1.15    4.01
   1  11 -24   -1.24    2.33
   1  12   0   -0.79    2.56
   1  12   0   -1.08    2.29
  -1  12   0   -0.86    1.28
  -1  12   0    5.28    5.19
  -1  12  -1   -0.85    4.18
   1  12  -1    1.82    5.16
  -1  12  -1    0.84    3.25
   1  12   1    3.75    2.68
   1  12  -1   -4.39    4.50
   1  12   1   -1.04    3.99
  -1  12   1    1.91    2.92
  -1  12   1    6.49    6.06
  -1  12   2   43.92   10.57
   1  12  -2   40.07   12.00
  -1  12  -2   36.46   12.17
   1  12   2   34.16    8.65
  -1  12   2   43.02   11.76
   1  12   2   48.76   11.50
   1  12  -2   54.62   14.65
  -1  12  -2   30.57    8.23
  -1  12  -3   10.55    7.09
  -1  12   3   11.80    6.06
   1  12   3    3.52    1.37
   1  12   3   -1.23    3.45
  -1  12  -3   10.27    6.04
   1  12  -3   15.27    7.65
  -1  12   3    0.63    2.74
   1  12  -3    6.96    3.45
   1  12   4   -0.78    3.10
  -1  12   4   -2.90    2.46
  -1  12  -4    6.60    5.65
   1  12  -4   -0.47    0.48
   1  12  -4    4.97    5.87
  -1  12   4    1.79    5.83
   1  12   4   -0.39    2.73
  -1  12  -4   -4.14    6.58
  -1  12  -5    6.42    3.54
   1  12   5    9.20    6.28
  -1  12   5    3.92    7.49
  -1  12  -5    4.53    4.78
   1  12   5    0.20    1.20
   1  12  -5    0.16    2.43
   1  12  -5    0.83    1.18
  -1  12   5   -3.71    4.91
   1  12  -6   13.94    8.50
   1  12  -6   22.70   11.03
   1  12   6    9.53    6.68
   1  12   6    8.44    6.31
  -1  12   6    9.74    3.39
  -1  12  -6   -0.17    2.83
  -1  12  -6   -2.18    3.43
  -1  12   6    8.67    5.66
   1  12   7   16.66    7.97
  -1  12  -7   16.96    7.84
  -1  12   7   14.64    6.95
  -1  12   7   13.30    7.96
  -1  12  -7    8.46    5.40
   1  12  -7    8.96    3.72
   1  12  -7    0.98    2.17
   1  12   7    6.42    6.59
   1  12   8   36.82   12.27
  -1  12   8   13.25    7.29
  -1  12  -8   11.43    6.61
   1  12  -8   10.20    6.22
  -1  12   8   37.52   11.09
   1  12   8   13.63    5.93
  -1  12  -8   21.17    9.32
   1  12  -8   11.51    2.96
   1  12  -9   77.00   17.12
   1  12   9   58.19   14.63
  -1  12  -9   41.24   12.05
  -1  12  -9   46.52   11.87
  -1  12   9   39.05   11.77
   1  12  -9   44.11   11.67
  -1  12   9   50.44   12.47
   1  12   9   43.18   11.62
   1  12  10    9.24    5.92
  -1  12  10    7.67    5.43
  -1  12 -10   -0.55    2.49
  -1  12  10    8.09    6.03
   1  12 -10   13.26    8.59
   1  12 -10   13.00    7.48
   1  12  10   12.16    7.29
  -1  12 -10   -1.06    4.23
  -1  12 -11   -1.17    4.43
  -1  12  11   -1.38    2.71
  -1  12  11    3.15    5.90
  -1  12 -11    3.97    6.69
   1  12 -11    0.87    3.28
   1  12  11    1.63    3.22
   1  12  11    0.25    1.93
   1  12 -11    0.83    0.54
   1  12  12    8.82    7.32
   1  12 -12   -0.21    2.46
  -1  12 -12    2.18    4.45
   1  12 -12    4.60    2.79
  -1  12  12    9.74    7.49
   1  12  12    9.15    7.22
  -1  12 -12    4.66    5.80
   1  12  13   83.18   17.57
  -1  12 -13   85.65   17.40
   1  12  13   59.85   15.04
  -1  12  13   57.27   14.46
  -1  12 -13   69.96   16.37
   1  12 -13   94.97   17.91
   1  12 -13   63.87   14.97
  -1  12  14   -4.69    5.35
  -1  12 -14    4.29    5.00
   1  12 -14    4.95    5.40
  -1  12 -14   -2.49    2.86
   1  12 -14   -0.02    0.29
   1  12  14   -1.54    6.14
  -1  12 -15   -2.12    3.98
   1  12 -15   -2.47    2.97
  -1  12 -15    0.79    0.53
  -1  12  15    6.73    6.39
   1  12 -15    0.70    4.05
   1  12  15    0.18    3.55
  -1  12 -16   31.58    9.01
   1  12 -16   33.03   10.45
  -1  12 -16   31.55   11.72
   1  12 -16   21.95   11.60
  -1  12  16   30.28   10.97
   1 -12 -16   25.55    9.47
   1  12  16   50.11   16.61
   1  12 -17   11.16    5.41
  -1  12 -17   20.02    8.51
   1  12 -17    7.98    5.36
   1  12  17   13.45    6.63
  -1  12 -17    9.95    7.13
  -1  12  17    3.23    3.72
   1 -12 -17    2.94    7.15
   1  12 -18    1.37    4.06
  -1  12 -18   -0.79    5.61
   1 -12 -18   16.95   10.36
   1  12  18   -0.47    4.84
  -1  12 -18    1.49    5.58
   1  12 -18   -0.83    2.50
  -1  12  18    1.27    3.38
  -1  12  19   18.64    9.84
  -1 -12 -19   21.29   10.05
   1  12 -19   17.38    7.69
   1 -12 -19   49.85   14.05
  -1  12 -19   13.11    8.01
  -1  12 -19  -14.44    7.44
   1  12  19   26.64   11.47
   1  12 -19   20.98   10.61
  -1 -12 -20   -6.54    7.59
  -1  12 -20   -2.91    7.46
   1  12 -20   -0.42    1.32
  -1  12  20   -2.12    3.78
   1 -12 -20    6.95    5.77
   1  12  20   -1.64    4.20
   1  12 -20   -3.46    6.55
  -1 -12 -21   -2.16    4.47
   1  12 -21    1.36    2.40
  -1  12 -21    3.91    6.76
   1  12 -21    2.20    3.38
  -1  12  21   -2.31    8.17
   1  12  21   -0.30    1.37
   1 -12 -21   -3.73    6.07
  -1  12 -22    1.42    4.64
   1 -12 -22    5.16    2.95
  -1  12  22   -2.03    2.94
   1  12 -22    7.77    7.03
  -1 -12 -22   -3.33    5.56
   1  12  22    9.03    9.34
   1  12 -22    4.69    3.30
   1  13   0    0.85    4.31
   1  13   0   -0.91    2.52
  -1  13   0    2.25    3.73
  -1  13   0    0.90    6.83
  -1  13   1   24.33    9.45
  -1  13  -1   23.95    8.20
   1  13  -1   16.03    7.38
   1  13  -1   29.15    9.13
  -1  13  -1   20.74    7.57
   1  13   1   17.60    8.53
   1  13   1   12.29    8.01
  -1  13   1   13.48    6.09
  -1  13  -2    3.35    5.10
   1  13  -2   17.05    8.92
   1  13   2   -3.92    5.17
  -1  13  -2    4.00    4.44
   1  13  -2   28.75   10.27
  -1  13   2   -1.44    4.67
   1  13   2    8.00    4.79
  -1  13   2   10.84    6.61
  -1  13  -3   11.99    6.92
   1  13   3    5.48    4.25
  -1  13   3    4.63    1.76
  -1  13  -3   20.52    8.75
   1  13  -3    5.36    3.05
  -1  13   3    7.64    6.64
   1  13   3   18.69    7.98
   1  13  -3   23.12   10.62
   1  13   4    7.39    5.11
  -1  13   4   19.12    8.35
   1  13   4   23.72    8.68
   1  13  -4   18.19    8.32
   1  13  -4   21.89    9.38
  -1  13  -4   11.68    6.58
  -1  13   4   15.79    6.45
  -1  13  -4   20.42    7.64
  -1  13  -5   -2.02    1.50
  -1  13   5    0.33    4.59
   1  13   5    0.42    3.79
   1  13   5   -3.11    3.66
  -1  13  -5   -3.87    4.25
   1  13  -5    0.36    2.08
  -1  13   5    1.62    2.56
   1  13  -5   -0.06    4.05
  -1  13  -6   -1.16    5.43
  -1  13  -6    2.47    4.17
   1  13  -6    4.51    8.14
  -1  13   6   -0.02    5.02
   1  13   6   -2.11    3.83
   1  13  -6    7.03    5.27
   1  13   6   15.15    8.55
  -1  13   6   -0.43    4.89
   1  13   7    7.08    7.43
  -1  13  -7    7.12    2.59
   1  13   7    5.30    2.22
  -1  13  -7   -2.35    4.18
  -1  13   7    4.41    3.58
  -1  13   7    7.81    7.19
   1  13  -7    7.07    7.18
   1  13  -7    3.57    6.35
  -1  13  -8    1.84    3.52
  -1  13  -8   -0.76    2.53
   1  13   8   -1.18    4.97
  -1  13   8   -3.35    5.72
   1  13  -8    7.99    4.63
  -1  13   8    7.45    7.15
   1  13   8   -2.53    2.42
   1  13  -8    2.25    2.94
   1  13   9   35.42   10.85
   1  13  -9   31.59   10.56
  -1  13   9   37.33   11.56
   1  13   9   30.62   10.86
  -1  13   9   48.78   14.09
  -1  13  -9   44.31   16.56
   1  13  -9   45.40   13.51
  -1  13  -9   17.23    8.54
   1  13 -10    4.36    2.56
  -1  13  10    4.71    4.81
   1  13  10   -5.04    6.74
  -1  13  10    1.83    0.47
  -1  13 -10   -1.05    5.74
  -1  13 -10    3.95    1.54
   1  13 -10    1.16    5.26
   1  13  10   12.24    8.38
   1  13 -11    4.31    7.37
  -1  13  11   -0.33    3.53
  -1  13  11    2.39    6.27
   1  13  11    7.64    5.45
   1  13  11   -1.16    4.65
  -1  13 -11    0.05    2.50
  -1  13 -11   -0.09    3.59
   1  13 -11    0.88    5.27
  -1  13  12   16.41    7.65
   1  13 -12    7.12    7.78
  -1  13 -12    8.32    6.29
  -1  13 -12   12.98    6.65
   1  13  12   17.30    8.38
   1  13 -12   10.90    6.80
  -1  13  12   14.50    8.34
   1  13  12   14.38    4.78
  -1  13  13   -4.72    6.92
  -1  13 -13    0.47    6.83
   1  13 -13    1.52    2.56
   1  13  13   -1.95    6.46
  -1  13  13   -0.98    1.42
   1  13 -13    1.13    4.78
   1  13  13    2.96    4.48
  -1  13 -13   -3.12    3.35
   1  13  14    9.30    7.93
   1  13 -14    5.83    4.19
  -1  13 -14    6.65    4.75
   1  13 -14    8.75    5.56
  -1  13 -14   -4.17    7.01
   1  13  14    7.16    5.72
  -1  13  14    1.24    3.95
  -1  13 -15   40.16   13.24
   1  13 -15   31.35   12.42
  -1  13 -15   15.82   11.76
   1  13 -15   23.78    9.79
   1  13  15   18.60    8.22
  -1  13  15   34.38   11.41
   1  13  15   42.55   12.83
   1  13  16    2.95    3.95
   1  13 -16   -2.40    3.06
  -1  13 -16    0.77    3.85
   1  13 -16    7.33    4.80
   1  13  16    2.84    4.99
  -1  13  16   -2.49    3.35
   1  13  17   19.84   10.60
  -1  13  17    3.08    4.79
  -1  13 -17    1.57    5.34
   1  13 -17    3.23    5.19
   1  13 -17    8.30    8.01
   1  13 -18    5.67    6.12
  -1  13 -18    2.85    4.43
  -1  13  18    7.19    5.84
   1  13 -18   -4.49    7.90
   1  13  18   11.92    5.74
  -1  13  19   -0.93    2.06
   1  13 -19    7.85    6.16
   1  13 -19   -1.05    3.08
  -1  13 -19   -0.40    2.57
   1  13  19    5.80    4.25
   1  13 -20    3.41    2.60
  -1  13 -20    3.19    5.98
  -1  13  20    3.22    4.67
   1  13 -20   -0.03    4.46
   1 -13 -20   -5.63    5.45
   1  13  20    4.22    7.25
  -1  14   0    2.37    4.82
   1  14   0    0.04    1.85
  -1  14   0   -3.43    2.59
   1  14   0    7.10    6.82
   1  14  -1   10.40    5.38
  -1  14  -1    4.15    2.65
  -1  14   1    6.03    4.39
   1  14   1    2.57    0.47
  -1  14   1    1.90    2.15
   1  14  -1    7.77    7.41
   1  14   1    4.76    2.76
  -1  14  -1    6.86    5.13
   1  14   2    5.08    4.55
  -1  14  -2   19.10   10.03
  -1  14  -2   19.91    8.75
  -1  14   2   17.32    9.44
   1  14  -2   19.55    8.49
  -1  14   2    8.30    4.25
   1  14   2    7.85    8.78
   1  14  -2   16.73    6.20
  -1  14   3    8.04    4.89
  -1  14  -3    9.20    5.03
   1  14   3    3.10    1.91
   1  14   3    3.90    1.25
   1  14  -3    4.88    7.15
  -1  14  -3    4.26    7.17
   1  14  -3   11.07    7.01
  -1  14   3    9.01    5.81
   1  14  -4   -1.13    1.63
  -1  14   4   -2.54    4.76
  -1  14  -4    4.83    4.95
  -1  14   4    5.72    7.03
   1  14   4    0.25    4.32
  -1  14  -4   -0.88    3.50
   1  14  -4   -2.67    5.34
   1  14   4   -1.15    5.04
   1  14  -5   29.21   10.01
   1  14   5   25.24    9.68
  -1  14   5   14.79    5.46
  -1  14  -5   26.96   10.36
   1  14  -5   10.76    4.75
   1  14   5   17.33    8.18
  -1  14   5   25.95    9.25
  -1  14  -5   38.71   12.80
  -1  14  -6   41.88   15.20
  -1  14   6   60.64   16.43
   1  14  -6   28.21   11.21
  -1  14   6   27.24   10.22
   1  14   6   34.54   14.66
   1  14   6   36.19    9.80
  -1  14  -6   39.42   11.73
   1  14  -6   22.92    8.99
  -1  14  -7   -3.68    3.01
  -1  14   7    1.75    5.58
  -1  14  -7   -1.25    2.86
   1  14  -7    2.80    6.45
   1  14   7   -0.39    1.23
   1  14   7    1.23    2.76
  -1  14   7    1.81    2.06
   1  14  -7    2.29    1.61
   1  14  -8    0.58    3.69
  -1  14   8    0.43    5.04
   1  14   8    9.31    7.07
  -1  14  -8    2.01    4.14
  -1  14   8    3.48    2.17
   1  14   8   -0.16    3.52
   1  14  -8    3.69    2.26
  -1  14  -8    1.79    2.91
  -1  14  -9    7.20    9.66
   1  14  -9    9.73    6.16
  -1  14   9   14.75    9.48
  -1  14   9    9.86    7.50
   1  14   9    2.83    1.07
  -1  14  -9   14.28    8.31
   1  14  -9    7.89    5.90
   1  14   9    1.09    1.68
   1  14  10   17.97    9.47
   1  14 -10   25.92    9.00
   1  14 -10   23.40   11.92
  -1  14  10    4.74    5.04
  -1  14 -10   19.54    9.69
  -1  14  10   23.35   11.13
   1  14  10   30.15   10.63
  -1  14 -10   17.52    7.88
   1  14 -11   -1.51    4.41
  -1  14 -11    0.88    5.84
   1  14 -11    1.66    2.92
  -1  14  11   -0.72    1.80
   1  14  11    0.18    3.67
  -1  14 -11   -8.29    3.61
  -1  14  11    0.58    1.68
   1  14  11    6.26    5.93
   1  14 -12    3.51    3.76
   1  14 -12    2.82    1.71
  -1  14 -12   -3.01    6.50
   1  14  12   10.79    5.31
  -1  14  12    3.20    4.98
   1  14  12   -1.81    4.09
   1  14  13   11.11    7.88
   1  14 -13    3.41    3.71
  -1  14  13    1.06    2.80
  -1  14  13    4.37    4.41
   1  14 -13    5.47    7.25
   1  14  13    3.60    3.61
  -1  14 -13   11.96    6.50
  -1  14 -14   11.97    2.20
   1  14 -14    8.22    6.30
  -1  14  14   12.17    8.96
   1  14  14   -2.71    8.79
   1  14  14   16.01    8.04
   1  14 -14    2.48    4.72
  -1  14  14    6.54    5.26
  -1  14  15   35.75   11.10
   1  14 -15   20.77    9.70
   1  14  15   17.08    9.78
  -1  14  15   20.94    9.34
   1  14  15   29.44   10.67
   1  14 -15   18.49    6.64
  -1  14 -15   19.19    8.30
   1  14 -16   11.34    6.02
   1  14 -16   23.85    9.87
   1  14  16   10.15    6.46
  -1  14  16   14.54    8.03
  -1  14 -16   10.38    8.53
   1  14  16   -2.08    5.76
  -1  14  16   22.99   10.37
   1  14 -17    7.16    0.78
  -1  14 -17    2.43    6.30
   1  14  17    8.74    5.88
  -1  14  17    5.74    3.86
   1  14  17    1.97    4.70
   1  14 -17    4.16    4.44
  -1  15   0    6.42    7.63
   1  15   0    1.94    6.72
   1  15   0    3.80    8.13
  -1  15   0   -5.26    4.57
  -1  15  -1   -3.22    7.28
   1  15  -1   -2.68    7.46
  -1  15   1   -3.76    5.02
  -1  15  -1    4.85    3.13
   1  15  -1    1.55    3.75
   1  15   1   -1.10    4.16
  -1  15   1   -3.77    4.87
   1  15   1    5.36    6.50
   1  15  -2    3.70    4.00
  -1  15  -2   34.47   12.33
  -1  15   2   22.43    6.52
   1  15  -2   25.87   11.33
   1  15   2   23.48   10.68
  -1  15   2   12.33    5.97
   1  15   2   17.63    9.52
  -1  15  -2   30.47   11.80
   1  15   3   15.36    6.89
  -1  15  -3    0.97    1.06
   1  15  -3    4.64    2.28
  -1  15   3    9.16    7.16
   1  15   3   -0.21    4.01
  -1  15   3    8.43    5.94
  -1  15  -3    6.49    1.29
   1  15  -3    0.31    3.41
   1  15  -4    3.73    5.02
   1  15  -4    1.93    2.97
  -1  15  -4   -3.98    5.44
  -1  15   4    6.81    6.74
   1  15   4   11.15    5.78
  -1  15   4   -2.72    4.00
  -1  15  -4    2.00    5.86
   1  15   4    3.21    1.07
   1  15   5    4.20    3.89
  -1  15  -5    0.47    2.53
  -1  15   5    2.15    2.37
  -1  15  -5    6.04    4.78
  -1  15   5    0.03    5.00
   1  15  -5    0.27    1.11
   1  15   5   -6.13    5.23
   1  15  -5    9.24    9.65
   1  15   6   11.90    4.82
   1  15  -6    8.45    3.91
   1  15   6    9.90    6.78
  -1  15   6    8.44    6.50
  -1  15   6   11.23    8.02
  -1  15  -6    2.77    1.46
   1  15  -6   12.16    8.25
  -1  15  -6   26.10   12.96
   1  15  -7    3.33    3.09
  -1  15  -7    9.80    7.23
   1  15  -7   13.31    7.94
   1  15   7    8.84    6.52
   1  15   7    8.13    3.22
  -1  15   7    2.41    2.84
  -1  15   7    6.10    3.78
  -1  15   8    7.71    7.04
  -1  15  -8   21.10    9.92
   1  15  -8    3.54    5.44
   1  15   8    7.14    5.71
   1  15   8   20.87   10.29
  -1  15   8    6.27    5.36
   1  15  -8   -0.05    6.39
   1  15  -9   12.90    8.28
   1  15   9   12.48    9.90
  -1  15   9    3.04    2.60
  -1  15   9   -4.35    7.07
   1  15   9    4.11    5.51
  -1  15  -9    7.22    8.64
   1  15  -9    9.83    6.85
   1  15 -10   18.55    9.05
   1  15 -10   19.25    9.28
  -1  15 -10   27.29   13.44
   1  15  10   20.77    9.89
  -1  15  10   26.84   10.80
  -1  15  10   18.98    8.33
   1  15  10   20.95    8.65
   1  15 -11    1.46    3.71
  -1  15  11   -2.69    4.40
  -1  15 -11   -1.86    5.94
   1  15 -11   -2.64    7.94
   1  15  11   -1.91    5.70
  -1  15  11   -5.09    6.14
   1  15  11   -1.59    5.24
  -1  15 -12   -3.38    7.66
   1  15 -12    5.19    3.84
  -1  15  12   -0.92    6.79
   1  15  12    7.64    6.06
   1  15 -12    7.13    8.66
  -1  15  12   12.41    7.88
   1  15  12   11.20    9.30
   1  15 -13    2.95    2.20
  -1  15  13   -2.76    7.70
  -1  15 -13   -0.84    3.06
   1  15  13    8.83    5.14
   1  15 -13    0.05    0.66
   1  15  13    0.12    6.91
  -1  15  13    3.13    2.80
  -1  15 -14    8.43    7.09
   1  15 -14    1.05    7.89
  -1  15  14    4.30    7.22
   1  15  14    5.91    5.83
   1  15 -14    2.89    4.90
   1  15  14   -2.74    3.41
  -1  15  14    4.09    2.10
  -1  16   0    2.43    5.51
   1  16   0   -3.47    3.13
   1  16   0    3.39    6.87
  -1  16   0    7.76    7.51
   1  16   1    2.79    5.15
   1  16  -1    2.50    5.18
  -1  16   1    4.66    2.90
   1  16   1    3.84    6.48
   1  16  -1   -1.68    3.62
  -1  16  -1   -5.11    4.65
  -1  16   1    1.30    0.85
   1  16   2   59.88   15.07
   1  16  -2   45.84   14.64
  -1  16  -2   36.96   12.90
  -1  16   2   45.73   14.39
   1  16   2   50.69   14.75
  -1  16   2   34.28   12.66
   1  16  -2   26.82   11.79
   1  16  -3   -1.38    5.11
   1  16   3    3.68    5.55
  -1  16   3    0.74    1.60
  -1  16   3    5.14    4.46
   1  16   3    2.08    4.47
   1  16  -3   -5.47    6.92
  -1  16  -3   -3.17    5.16
   1  16   4    0.57    1.30
   1  16  -4   -2.00    6.49
  -1  16   4    0.41    4.34
   1  16   4   -4.12    7.61
   1  16  -4    2.36    4.16
  -1  16   4   -1.21    4.56
  -1  16  -4    8.30    9.12
  -1  16  -5   12.11    2.61
  -1  16   5    3.23    3.51
   1  16   5    5.85    3.43
   1  16  -5    5.93    1.80
   1  16  -5    8.77    5.36
  -1  16   5   16.14    8.62
   1  16   5    5.62    4.23
  -1  16  -6   12.23    8.59
   1  16  -6    4.53    7.73
   1  16   6    4.28    5.60
   1  16  -6   12.63    8.00
   1  16   6    3.72    3.87
  -1  16   6    8.31    8.55
  -1  16   6    5.50    4.51
   1  16   7   -2.41    4.82
  -1  16   7    3.83    7.12
  -1  16  -7   -2.40    7.00
   1  16  -7   -4.78    7.90
  -1  16   7    5.92    5.38
   1  16   7    6.68    7.17
   1  16  -7   -0.66    3.42
  -1  16   8   -0.22    2.47
   1  16  -8    0.63    1.90
  -1  16  -8   11.35   11.13
   1  16   8   11.14    5.74
  -1  16   8   -0.74    3.23
   1  16   8    6.48    4.85
   1  16  -8   -4.40    7.79
   1  16  -9    2.71    2.79
  -1  16   9   -6.34    7.16
   1  16  -9   10.65    5.92
   1  16   9    5.00    3.63
  -1  16  -9    7.31    7.53
  -1  16   9   16.50   10.33
   1  16   9    4.83    7.42
  -2   0   0  355.39   15.66
   2   0   0  520.86   13.08
  -2   0   1    0.68    0.56
  -2   0  -1   -0.59    0.77
   2   0   1   -0.08    0.56
   2   0  -1   -0.05    0.67
   2   0  -2 4919.57   53.73
  -2   0  -2 5350.16   42.62
   2   0  -3    0.64    1.38
  -2   0  -3    0.68    0.68
  -2   0  -3   -0.12    0.65
   2   0  -4 2266.22   43.04
  -2   0  -4 2602.04   38.34
  -2   0  -5    1.26    0.37
   2   0  -5    0.02    0.65
  -2   0  -5    0.65    0.96
   2   0  -6  343.12   19.28
  -2   0  -6  363.69   20.35
  -2   0  -7    0.90    0.96
  -2   0  -7    0.69    1.24
   2   0  -7    1.19    1.11
   2   0  -8 1724.57   49.82
  -2   0  -8 1825.54   47.49
  -2   0  -9   -0.25    1.25
  -2   0  -9    1.58    2.62
   2   0  -9   -1.71    1.13
   2   0 -10 4588.26   88.31
  -2   0 -10 4626.78   82.86
   2   0 -11    0.07    1.52
  -2   0 -11    0.06    2.57
   2   0 -11   -1.25    2.85
  -2   0 -11    0.21    1.95
   2   0 -12  805.46   39.87
   2   0 -12  760.57   38.81
  -2   0 -12  854.83   39.20
   2   0 -13    5.97    6.07
   2   0 -13   -2.25    2.10
  -2   0 -13    1.01    0.71
  -2   0 -13   -7.02    5.38
  -2   0 -14  943.46   45.55
   2   0 -14 1093.06   48.22
  -2   0 -15    1.85    5.47
   2   0 -15   -0.98    2.67
   2   0 -15   -1.19    3.79
  -2   0 -15   -1.27    4.43
   2   0 -16   39.94    8.74
  -2   0 -16   50.39   11.84
   2   0 -16   42.60    9.78
  -2   0 -16   59.91   12.34
  -2   0 -17    3.44    2.84
   2   0 -17   -0.03    3.41
   2   0 -17    0.79    3.31
  -2   0 -17    0.29    1.55
   2   0 -18  138.48   19.62
  -2   0 -18  159.18   22.55
   2   0 -18  132.69   18.02
  -2   0 -18  101.57   17.09
   2   0 -19    0.66    2.75
  -2   0 -19    4.62    4.76
  -2   0 -19   -1.10    4.07
   2   0 -19    1.90    3.65
   2   0 -20   45.84   11.55
  -2   0 -20   24.81    8.47
  -2   0 -20   52.83   14.06
   2   0 -20   40.29   11.69
   2   0 -21    0.10    3.96
   2   0 -21   -0.41    1.44
  -2   0 -21   -2.04    6.21
  -2   0 -21    2.03    4.40
   2   0 -22    0.38    2.07
   2   0 -22   -1.70    4.94
  -2   0 -22    4.37    5.04
  -2   0 -22    0.40    5.07
  -2   0 -23   -2.43    3.10
  -2   0 -23    2.44    6.42
   2   0 -23    1.35    3.00
   2   0 -23    0.87    2.66
  -2   0 -24    4.58    4.16
   2   0 -24   -0.63    4.89
   2   0 -24    1.62    2.26
  -2   0 -25    3.56    4.66
   2   0 -25   -7.09    4.83
  -2   0 -25    3.28    6.98
   2   0 -25    5.21    4.90
  -2   0 -26   26.63   11.11
   2   0 -26   25.51    8.45
  -2   0 -26   30.15   11.36
   2   0 -26   21.70    9.19
   2   0 -27   -2.54    4.11
  -2   0 -27    0.67    4.57
   2   0 -27    2.35    3.77
  -2   0 -27   -2.33    3.20
   2   0 -28   -0.75    1.52
  -2   0 -28    0.69    1.71
  -2   0 -28    4.42    4.80
  -2   0 -29   -1.80    4.53
   2   0 -29    1.72    3.53
   2   0 -29   -0.24    2.81
  -2   0 -29    1.87    4.12
  -2   0 -30   17.90   10.09
   2   0 -30    9.84    5.24
   2   0 -30   -0.65    4.41
  -2   0 -30    9.22    7.48
  -2   0 -31   -0.48    4.07
   2   0 -31   -0.87    3.61
  -2   0 -31   -0.92    2.98
   2   0 -31   -0.51    5.44
  -2   0 -32   37.80   12.69
   2   0 -32   28.78   11.58
   2   0 -32   36.57   14.30
  -2   0 -32   33.24   12.20
  -2  -1   0 5587.15   70.43
  -2   1   0 5697.05   54.63
   2   1   1 5909.79   58.99
  -2  -1  -1 6650.93   73.56
  -2  -1   1 6809.50   74.42
  -2   1  -1 6162.65   56.57
   2   1  -1 6029.96   63.83
   2  -1  -2   46.00    4.68
  -2   1   2   57.81    4.98
   2   1  -2   41.14    5.20
  -2   1  -2   38.12    4.91
  -2   1  -2   44.11    5.29
   2   1  -2   35.74    3.15
  -2  -1  -2   26.05    4.77
  -2  -1  -3 2635.86   49.93
   2  -1  -3 2166.61   36.96
  -2   1  -3 1768.40   36.56
  -2   1  -3 2003.58   27.12
   2   1  -3 2111.06   42.16
   2  -1  -4 2754.05   47.23
  -2   1   4 2550.96   38.25
  -2  -1  -4 2999.92   55.33
   2   1  -4 2175.98   45.71
  -2  -1  -4 2298.25   43.41
  -2   1  -4 2431.87   33.01
   2   1  -4 2496.35   37.83
  -2   1  -5   19.06    3.60
  -2   1  -5   15.45    3.96
  -2  -1  -5   13.09    4.26
   2  -1  -5    8.24    2.87
  -2   1  -5   11.91    3.47
  -2  -1  -5    6.82    2.21
   2   1  -5    9.61    3.45
   2   1  -6   11.36    4.05
  -2  -1  -6   13.60    3.34
  -2   1  -6    6.46    2.07
   2  -1  -6   11.86    3.61
  -2   1  -6   11.83    4.29
  -2  -1  -6    8.63    2.97
   2  -1  -7   75.52    9.83
  -2  -1  -7  119.23   12.68
   2   1  -7   93.15   10.97
  -2  -1  -7  103.11   10.72
  -2   1  -7   93.28    9.50
  -2   1  -7  118.75   13.04
  -2   1  -8 1329.36   45.73
   2   1  -8 1139.45   40.26
  -2   1  -8  993.97   34.62
  -2  -1  -8 1218.47   42.18
  -2  -1  -8 1012.90   35.86
  -2  -1  -9    1.93    1.50
  -2   1  -9    2.23    2.89
  -2   1  -9    3.38    1.63
   2   1  -9    8.29    2.72
  -2  -1  -9    0.27    1.79
   2  -1  -9    4.81    4.29
   2  -1  -9   -1.02    3.53
  -2   1 -10  539.03   28.40
   2  -1 -10  528.39   29.98
  -2  -1 -10  582.90   32.56
   2  -1 -10  568.70   29.83
  -2  -1 -10  493.82   27.98
  -2  -1 -11    0.41    2.92
  -2   1 -11    1.02    2.60
   2  -1 -11    2.25    1.64
  -2  -1 -11    2.65    3.12
  -2   1 -11    1.15    2.22
   2  -1 -11   -1.69    1.90
   2   1 -11   -2.24    3.38
   2  -1 -12 1670.04   57.92
   2   1 -12 1426.08   55.02
  -2   1 -12 1610.56   54.46
  -2  -1 -12 1546.08   56.99
  -2  -1 -12 1634.03   56.95
   2   1 -12 1743.64   58.94
   2  -1 -12 1356.45   49.30
  -2   1 -12 1451.99   55.38
  -2   1 -13    1.45    1.22
   2  -1 -13    1.28    2.12
   2   1 -13   -0.72    3.86
   2  -1 -13    0.81    2.74
   2   1 -13   -0.01    1.52
  -2   1 -13   -0.22    3.08
  -2  -1 -13    1.60    2.56
  -2  -1 -13    0.93    1.36
  -2  -1 -14  639.79   38.70
   2   1 -14  741.67   41.23
   2  -1 -14  738.73   38.63
   2  -1 -14  598.01   37.11
  -2   1 -14  869.03   45.64
  -2   1 -14  755.04   40.54
   2   1 -14  653.12   38.44
  -2  -1 -14  917.64   47.77
  -2  -1 -15  350.40   29.57
   2   1 -15  311.79   27.87
   2  -1 -15  377.96   30.71
  -2   1 -15  489.34   35.59
  -2  -1 -15  385.11   31.65
  -2   1 -15  380.37   29.10
   2   1 -15  284.17   26.22
   2  -1 -15  251.11   22.82
  -2   1 -16   69.86   12.30
   2  -1 -16   51.16   12.54
  -2  -1 -16   53.77   12.27
   2   1 -16   71.45   13.98
   2  -1 -16   51.77   10.60
  -2   1 -16   50.74   13.55
   2   1 -16   65.79   12.03
  -2  -1 -16   53.12   12.18
  -2  -1 -17   50.61   12.10
  -2   1 -17   46.62   11.18
   2   1 -17   47.04   10.72
   2  -1 -17   46.47   11.67
  -2   1 -17   29.22    9.76
   2   1 -17   53.20   10.90
   2  -1 -17   42.46   11.54
  -2  -1 -17   43.56   12.07
   2  -1 -18  754.67   47.15
   2   1 -18  858.40   48.00
   2  -1 -18  608.89   39.53
  -2  -1 -18  970.48   54.20
  -2   1 -18  664.29   42.48
  -2   1 -18  530.82   40.64
   2   1 -18  813.68   46.51
  -2  -1 -18  782.50   48.34
  -2  -1 -19    4.00    4.97
  -2   1 -19   -2.58    4.27
   2   1 -19    2.58    2.20
   2  -1 -19    5.85    4.00
   2   1 -19   -0.53    3.81
  -2  -1 -19   -5.74    5.45
  -2   1 -19    3.29    1.55
   2  -1 -19    1.85    3.08
   2   1 -20   44.31   11.62
   2   1 -20   37.35   11.66
   2  -1 -20   57.94   12.54
   2  -1 -20   29.52   11.34
  -2   1 -20   71.50   15.32
  -2  -1 -20   45.86   13.45
  -2  -1 -20   15.88    7.35
  -2   1 -20   62.12   13.33
  -2   1 -21   32.56   10.39
   2  -1 -21   38.36   11.27
  -2  -1 -21   47.71   13.58
   2   1 -21   29.02   11.08
  -2   1 -21   37.69   11.56
  -2  -1 -21   46.46   12.96
   2  -1 -21   14.67    8.18
   2   1 -21   24.59    7.95
  -2   1 -22  131.74   20.98
   2   1 -22  123.72   20.01
   2   1 -22  154.78   22.04
  -2  -1 -22  115.52   21.85
   2  -1 -22  136.56   21.23
  -2   1 -22  121.05   21.35
   2  -1 -22  193.55   25.43
  -2  -1 -22  109.35   20.08
   2  -1 -23   10.62    7.47
  -2   1 -23   34.46   12.11
  -2   1 -23   17.36    7.61
   2  -1 -23   26.73    9.67
   2   1 -23   27.06    8.37
  -2  -1 -23   26.32    9.20
  -2  -1 -23   44.26   13.28
   2   1 -23   32.78   10.34
   2   1 -24   25.55    9.69
   2  -1 -24   11.24    2.67
  -2  -1 -24   10.73    8.30
   2   1 -24   19.65    7.85
  -2  -1 -24   10.99    6.75
  -2   1 -24   34.32   10.97
   2  -1 -24   32.22   12.17
  -2   1 -24   13.52    7.73
   2  -1 -25   57.21   13.79
  -2  -1 -25   74.62   17.42
   2   1 -25   69.70   15.78
  -2  -1 -25   89.66   18.89
  -2   1 -25   94.26   18.76
   2  -1 -25   43.80   13.94
  -2   1 -25   64.06   16.32
   2   1 -25   57.38   13.31
   2   1 -26  147.32   24.54
   2  -1 -26  137.33   22.70
   2  -1 -26  168.40   25.90
  -2  -1 -26  193.71   27.54
  -2   1 -26  127.68   22.43
  -2  -1 -26  166.78   25.75
   2   1 -26  121.29   22.10
  -2  -1 -27    9.39    7.00
  -2   1 -27   22.98   11.13
   2  -1 -27   14.56    7.73
   2   1 -27   19.60   10.71
   2  -1 -27   19.24    6.78
  -2   1 -27   12.94    7.68
  -2  -1 -27    9.96    7.50
   2   1 -27   16.35    8.77
  -2  -1 -28  140.66   24.09
  -2  -1 -28  117.97   22.20
   2   1 -28  119.72   21.47
  -2   1 -28  124.93   22.22
  -2   1 -28  132.91   25.82
   2  -1 -28  122.77   23.47
   2   1 -28  133.16   23.80
   2  -1 -28  131.44   23.23
  -2   1 -29   60.29   16.33
   2  -1 -29   67.46   16.89
   2   1 -29   42.81   14.32
  -2   1 -29   85.96   20.67
  -2  -1 -29   63.40   15.81
   2   1 -29   57.09   14.20
   2  -1 -29   90.27   19.78
  -2  -1 -29  101.10   20.77
   2   1 -30    8.67    6.47
  -2  -1 -30    0.49    4.91
  -2   1 -30    4.80    7.40
   2  -1 -30    0.97    6.40
  -2   1 -30    0.79    1.79
  -2  -1 -30    6.93    5.19
   2  -1 -30   -0.13    3.62
   2   1 -30    1.42    1.93
  -2   1 -31   -1.92    3.33
  -2   1 -31    4.67    6.29
   2  -1 -31   -0.03    5.66
   2   1 -31    3.54    6.85
   2   1 -31    2.10    3.59
  -2  -1 -31    3.27    6.53
  -2  -1 -31   -0.11    5.99
   2  -1 -31    0.77    6.61
  -2   1 -32   18.83    8.52
   2   1 -32   34.43   10.49
   2  -1 -32   37.80   11.38
  -2  -1 -32   33.65   10.83
  -2   1 -32   15.93    9.85
   2  -1 -32   15.97    8.51
   2   1 -32   29.58   12.86
  -2  -1 -32   27.86    9.01
  -2   2   0 1376.95   22.39
  -2   2   0 1331.08   31.37
   2  -2   0 1240.98   18.35
   2   2   0 1196.34   24.50
   2   2   0 1261.20   30.11
  -2   2   1  164.48   10.39
   2   2   1  141.16    9.52
  -2   2  -1  178.58   12.20
  -2  -2  -1  204.24   14.57
   2   2  -1  181.23   12.29
   2   2  -1  194.07   10.08
  -2   2  -1  159.11    8.44
   2  -2  -1  164.91    8.06
   2   2   1  179.22   12.55
  -2  -2   1  219.27   14.70
  -2   2  -2    1.16    1.05
   2   2   2    1.29    1.29
  -2   2  -2    0.72    0.96
   2   2  -2    1.02    1.23
   2   2  -2    0.08    0.63
  -2   2   2    3.32    1.90
  -2  -2  -2    2.17    0.31
   2   2   2   -0.94    1.45
   2  -2  -2    0.94    0.43
   2   2  -3 2819.14   51.13
  -2   2  -3 3052.58   31.07
  -2  -2  -3 2808.17   54.41
   2   2  -3 2850.01   42.57
   2  -2  -3 2936.95   46.49
  -2   2  -3 2722.14   42.70
  -2  -2  -3 2721.47   49.73
  -2   2   3 2455.60   44.94
  -2   2  -3 2465.30   48.64
  -2   2  -4 2172.05   33.28
  -2  -2  -4 1720.51   44.66
   2  -2  -4 1928.08   40.53
  -2   2   4 1718.13   39.14
  -2   2  -4 1953.17   41.02
   2   2  -4 2068.33   46.70
   2   2  -4 1824.40   36.57
  -2   2  -4 2278.51   48.84
  -2  -2  -5 1578.75   43.39
   2  -2  -5 1121.28   33.35
   2   2  -5 1429.59   40.93
  -2   2  -5  916.16   32.15
  -2   2  -5 1467.87   40.38
  -2  -2  -5 1321.08   36.61
   2   2  -5 1501.01   34.38
  -2   2   5 1112.55   32.52
  -2   2  -5 1091.22   30.04
  -2   2  -6  332.25   16.52
   2  -2  -6  395.40   19.10
   2   2  -6  403.77   23.14
  -2   2  -6  612.49   27.33
  -2  -2  -6  259.63   18.28
  -2  -2  -6  472.00   23.91
   2   2  -6  483.13   21.89
  -2   2  -6  261.91   18.46
   2  -2  -6  406.12   21.80
  -2   2   6  451.79   20.68
   2  -2  -7  589.27   27.88
   2   2  -7  559.59   28.25
  -2  -2  -7  604.03   28.15
  -2   2  -7  566.92   23.26
   2   2  -7  604.49   27.71
  -2   2  -8   -1.97    2.19
  -2  -2  -8    1.64    1.55
   2   2  -8    0.21    0.64
   2  -2  -8   -1.98    3.12
  -2  -2  -8    0.27    1.31
  -2   2  -8   -0.74    2.50
   2   2  -8   -0.13    2.01
   2  -2  -8    0.25    1.63
  -2   2  -8   -0.35    2.14
   2  -2  -9   28.77    7.15
  -2   2  -9   41.15    7.15
   2   2  -9   24.44    5.97
  -2  -2  -9   35.29    7.66
  -2   2  -9   20.24    5.68
   2  -2  -9   28.64    5.69
  -2  -2  -9   34.84    7.11
  -2   2  -9   37.39    8.48
  -2  -2 -10    9.19    3.98
   2  -2 -10    7.98    2.99
  -2   2 -10    8.07    4.64
  -2   2 -10    7.95    3.57
   2  -2 -10   12.94    5.52
  -2  -2 -10    6.92    4.44
   2   2 -10    7.76    2.88
  -2   2 -11  369.90   24.31
  -2  -2 -11  416.36   28.03
   2  -2 -11  374.85   27.25
   2   2 -11  391.79   26.43
   2  -2 -11  394.99   24.99
  -2  -2 -11  411.96   27.11
  -2  -2 -12    7.43    4.63
  -2  -2 -12   -0.14    1.15
  -2   2 -12    1.06    1.48
   2   2 -12    5.21    4.81
   2  -2 -12    9.90    4.82
   2  -2 -12    7.04    3.48
  -2   2 -12    9.18    5.15
   2  -2 -13 1063.90   43.65
  -2  -2 -13 1243.01   52.89
   2   2 -13 1057.27   47.17
  -2  -2 -13 1218.16   50.87
   2  -2 -13 1008.18   47.63
   2   2 -14    0.79    3.89
   2  -2 -14   20.01    5.81
  -2  -2 -14    9.47    4.91
   2  -2 -14    4.00    4.71
  -2   2 -14    6.43    4.00
  -2   2 -14    5.47    4.88
  -2  -2 -14   12.66    5.85
   2   2 -14    4.42    4.13
  -2   2 -15   21.17    7.83
  -2  -2 -15   33.70    8.92
   2  -2 -15   28.91    8.00
  -2   2 -15   29.00    7.88
   2   2 -15   38.38    9.88
   2  -2 -15   19.61    6.40
   2   2 -15   21.80    7.57
  -2  -2 -15   39.40    9.80
  -2   2 -16   79.14   13.75
  -2  -2 -16   60.04   13.19
   2  -2 -16   67.78   12.18
  -2   2 -16   79.49   14.41
   2   2 -16   74.06   13.93
  -2  -2 -16   61.17   11.84
   2   2 -16   74.00   13.51
   2  -2 -16   87.54   15.37
  -2  -2 -17    3.57    4.12
  -2  -2 -17    1.81    3.07
   2  -2 -17   -0.20    3.64
  -2   2 -17    1.42    5.09
   2  -2 -17    5.43    5.09
   2   2 -17    1.62    4.89
  -2   2 -17   -0.10    1.71
   2   2 -17   -1.66    6.56
   2   2 -18   19.18    7.71
  -2  -2 -18   31.81   10.10
   2  -2 -18   25.49    8.40
  -2   2 -18   28.87   10.12
  -2   2 -18   43.74   11.12
   2   2 -18   24.72    8.48
  -2  -2 -18   34.66   10.30
   2  -2 -18   12.34    4.97
   2  -2 -19   33.02    8.20
  -2   2 -19   55.59   12.79
   2  -2 -19   40.88   11.03
   2   2 -19   22.45    7.87
  -2  -2 -19   30.19   10.96
  -2   2 -19   33.80    9.83
  -2  -2 -19   56.12   13.61
   2   2 -19   39.86   11.15
  -2   2 -20   -2.36    3.80
  -2  -2 -20    0.69    0.72
   2  -2 -20    2.05    3.01
  -2  -2 -20   -3.66    2.11
  -2   2 -20   -0.45    4.70
   2   2 -20   -1.12    4.93
   2  -2 -20   -2.80    1.64
   2   2 -20    4.96    6.40
  -2  -2 -21   59.50   13.33
   2   2 -21   56.07   13.94
  -2  -2 -21   51.40   13.01
  -2   2 -21   53.45   12.66
   2  -2 -21   57.57   13.75
  -2   2 -21   65.23   16.13
   2  -2 -21   63.97   15.17
   2   2 -21   47.00   12.67
   2   2 -22   48.43   11.30
  -2  -2 -22   51.83   14.11
   2  -2 -22   37.56   11.09
   2  -2 -22   47.89   13.94
  -2   2 -22   42.83   12.03
  -2   2 -22    6.90   10.92
   2   2 -22   32.75   10.23
  -2  -2 -22   21.35    9.51
  -2  -2 -23   14.29    9.65
  -2  -2 -23    2.54    0.61
  -2   2 -23    8.13    6.36
   2  -2 -23   14.36    9.25
  -2   2 -23    3.60    2.96
   2   2 -23   -0.23    3.41
   2  -2 -23    6.90    6.24
   2   2 -23    6.52    7.70
   2  -2 -24    3.71    4.40
  -2   2 -24    4.09    4.96
   2   2 -24    6.86    3.43
   2   2 -24    4.71    3.35
   2  -2 -24    8.68    7.94
  -2  -2 -24    6.29    2.04
  -2  -2 -24    3.80    4.85
  -2   2 -24    5.13    3.81
  -2  -2 -25   -1.15    2.81
   2  -2 -25   -6.20    4.82
   2   2 -25   -1.05    1.15
  -2   2 -25    1.19    5.23
  -2  -2 -25   -1.77    0.84
  -2   2 -25    1.03    1.43
   2  -2 -25    4.28    7.68
   2   2 -25    1.28    0.74
  -2  -2 -26    8.45    5.44
   2   2 -26    5.08    6.62
  -2   2 -26    1.27    4.49
   2  -2 -26    5.42    4.62
  -2  -2 -26   17.41    8.31
  -2   2 -26    0.77    4.20
   2  -2 -26    6.80    5.81
   2   2 -26   15.11    8.65
  -2   2 -27   24.48    9.43
  -2   2 -27   16.96    8.51
  -2  -2 -27    6.79    5.77
   2  -2 -27    8.56    4.40
   2   2 -27    2.53    3.94
   2   2 -27   30.35   11.44
  -2  -2 -27   40.70   13.40
   2  -2 -27   18.69    7.03
  -2   2 -28   -5.15    3.08
  -2  -2 -28    0.37    2.68
   2  -2 -28    0.13    3.90
  -2  -2 -28    8.46    8.59
   2   2 -28    5.79    4.16
   2   2 -28   -1.67    5.40
   2  -2 -28   -1.81    6.33
  -2   2 -28   -0.74    5.23
  -2  -2 -29   29.81   11.64
  -2  -2 -29   35.75   13.42
   2  -2 -29   29.37   11.78
  -2   2 -29   14.43    6.22
   2   2 -29   26.52   11.26
   2   2 -29   28.25   10.74
  -2   2 -29   27.44   13.55
   2  -2 -29   14.20    7.28
   2  -2 -30   -1.00    0.69
  -2   2 -30   -5.79    7.34
   2   2 -30    1.53    4.63
   2  -2 -30   -0.66    4.10
   2   2 -30    4.35    5.86
  -2  -2 -30    5.48    5.28
  -2   2 -30    3.09    9.32
  -2  -2 -30    6.56    6.15
  -2  -2 -31   -1.08    1.47
  -2   2 -31    5.67    8.87
   2   2 -31    9.22    7.72
   2   2 -31    3.51    3.38
  -2  -2 -31   11.65    8.75
  -2   2 -31   15.68   10.79
   2  -2 -31   12.91    8.69
   2  -2 -31    7.42    1.75
  -2   2 -32    0.65    3.87
  -2  -2 -32    1.13    1.46
  -2   2 -32   15.53    9.07
   2   2 -32    0.11    2.94
   2  -2 -32   -1.08    6.19
   2  -2 -32    3.23    2.80
   2   2 -32   -3.46    5.97
  -2  -2 -32    1.87    6.03
   2   3   0  884.47   25.65
  -2   3   0  809.85   29.13
   2   3   1  402.18   18.40
  -2   3  -1  385.94   11.15
   2   3  -1  509.66   20.52
  -2   3   1  452.93   20.83
  -2  -3  -1  427.13   22.98
   2  -3  -1  519.96   17.44
  -2   3  -1  471.32   13.91
   2   3   1  513.61   23.61
   2   3  -1  417.62   20.67
  -2   3  -1  454.70   21.94
  -2   3  -2   17.30    4.80
  -2  -3  -2   13.59    3.13
   2   3  -2   17.71    3.78
  -2   3  -2   15.01    2.81
  -2   3   2    7.86    2.43
   2   3  -2   14.70    4.24
   2   3   2   12.40    3.65
   2   3   2   14.42    4.04
  -2   3  -2    9.30    1.98
   2  -3  -2   15.06    3.30
   2   3  -3   62.75    8.68
   2   3  -3  128.03   11.09
  -2   3   3   61.50    7.88
   2   3   3   99.27   10.29
   2  -3  -3  111.75    6.28
  -2  -3  -3  129.65   12.48
  -2   3  -3  135.61    9.75
  -2   3  -3  122.74   12.18
  -2   3  -3  132.00    8.34
   2  -3  -3  113.78    9.53
  -2   3  -4   11.71    3.78
   2   3  -4   17.10    5.04
   2   3  -4   21.30    4.35
   2  -3  -4   20.71    4.23
   2   3   4   27.22    5.58
  -2   3   4   24.16    5.35
  -2  -3  -4   17.31    4.78
   2  -3  -4   27.18    3.68
  -2  -3  -4   20.98    5.10
  -2   3  -4   20.51    3.71
   2  -3  -5  122.61   11.75
  -2  -3  -5  165.06   14.73
  -2   3  -5  159.17   10.90
   2   3   5  176.96   13.65
  -2  -3  -5  132.87   13.75
  -2   3   5  166.15   14.22
   2  -3  -5  149.64    9.63
   2   3  -5  116.03   11.34
   2   3  -5  118.53   12.63
  -2   3  -5  147.23   14.22
   2   3  -6  292.63   20.66
  -2   3   6  225.03   17.40
  -2   3  -6  260.15   14.95
   2  -3  -6  246.72   13.65
  -2  -3  -6  296.93   19.37
  -2  -3  -6  226.86   17.95
   2   3  -6  257.88   17.25
   2  -3  -6  290.50   19.28
  -2   3  -6  259.46   19.69
  -2   3  -7    6.67    2.96
   2   3  -7   28.08    7.17
   2  -3  -7   23.54    6.01
   2  -3  -7   11.00    3.35
  -2   3   7   20.80    5.62
  -2  -3  -7   24.64    6.15
  -2   3  -7   22.67    5.26
  -2   3  -7   14.30    3.90
  -2  -3  -7   17.98    4.36
   2   3  -7   27.50    5.54
  -2   3   8  838.12   33.59
   2  -3  -8  401.94   20.70
  -2   3  -8  376.68   23.56
  -2   3  -8  547.94   30.34
  -2  -3  -8  626.40   31.51
   2   3  -8  467.16   27.89
  -2   3  -8  638.47   27.08
  -2  -3  -8  641.59   32.11
   2  -3  -8  569.03   30.88
  -2   3   9  317.64   21.28
  -2  -3  -9  308.35   23.45
  -2   3  -9  296.35   21.57
   2  -3  -9  224.81   16.83
   2   3  -9  275.97   21.27
   2  -3  -9  299.05   22.65
   2   3  -9  336.28   25.30
  -2   3  -9  257.44   18.90
  -2   3  -9  331.38   24.56
  -2   3 -10  108.45   12.96
   2  -3 -10   97.06   11.31
   2  -3 -10   78.37   12.26
  -2   3 -10   74.82   12.04
  -2  -3 -10   94.97   13.57
  -2  -3 -10  101.91   13.28
   2   3 -10   87.67   12.43
   2   3 -10  116.76   14.23
  -2   3 -10  143.01   17.79
  -2  -3 -11  305.40   24.37
   2  -3 -11  239.72   21.96
  -2   3 -11  515.53   34.33
   2  -3 -11  246.13   19.15
  -2  -3 -11  299.64   23.98
  -2   3 -11  511.44   29.47
   2   3 -11  373.11   26.94
   2   3 -11  420.49   28.37
  -2  -3 -12    2.02    0.75
  -2   3 -12    1.16    2.26
  -2  -3 -12    1.54    1.81
   2  -3 -12    0.93    0.63
   2  -3 -12    2.71    1.33
   2   3 -12    3.02    0.94
  -2   3 -12    3.27    2.13
  -2   3 -12   -0.18    1.53
  -2   3 -13   55.53   11.03
   2  -3 -13   69.33   11.21
   2  -3 -13   70.74   12.64
   2   3 -13   67.36   12.01
  -2  -3 -13   84.75   13.82
  -2   3 -13   67.47   11.40
  -2  -3 -13   72.32   12.20
  -2  -3 -14    1.77    1.36
   2  -3 -14   -0.16    2.21
  -2   3 -14    1.93    0.16
  -2   3 -14    4.95    5.31
   2  -3 -14    3.82    2.20
  -2  -3 -14    4.87    5.10
   2   3 -14    0.61    1.63
  -2   3 -15   54.29   11.11
   2  -3 -15   78.76   14.77
   2   3 -15   70.46   13.39
  -2  -3 -15   77.84   13.66
  -2  -3 -15   78.64   13.67
   2   3 -15   93.98   15.72
  -2   3 -15   36.67   11.06
   2  -3 -15   60.21   12.57
  -2   3 -16    3.26    4.66
  -2  -3 -16    3.40    3.59
  -2  -3 -16    2.07    3.86
   2  -3 -16    0.61    3.47
   2   3 -16    0.15    1.32
  -2   3 -16   -0.80    2.02
   2  -3 -16    2.98    4.08
   2   3 -16    2.28    3.64
  -2   3 -17  190.58   22.19
   2   3 -17  283.49   27.96
   2   3 -17  147.79   19.96
  -2  -3 -17  247.78   25.35
   2  -3 -17  211.41   23.39
  -2  -3 -17  181.13   22.54
   2  -3 -17  278.34   27.90
  -2   3 -18   46.41   11.59
  -2   3 -18   57.08   12.86
   2   3 -18   61.12   12.82
  -2  -3 -18   68.08   13.96
   2   3 -18   80.83   15.51
  -2  -3 -18   59.86   13.70
   2  -3 -18   76.33   14.72
  -2   3 -19  148.25   21.25
  -2  -3 -19  133.11   20.05
   2   3 -19  139.25   21.43
   2  -3 -19  134.98   20.73
   2  -3 -19  123.00   18.65
  -2  -3 -19  150.98   20.72
  -2   3 -19  144.72   21.72
   2   3 -19  124.32   19.30
  -2  -3 -20   43.43   11.82
   2   3 -20   29.40    9.05
  -2   3 -20   29.82    8.59
   2  -3 -20   31.36    8.15
  -2   3 -20   15.31    9.23
  -2  -3 -20   26.45   10.92
   2   3 -20   22.92    9.10
   2  -3 -20   21.98    8.23
  -2  -3 -21    4.40    2.71
   2  -3 -21    9.18    7.39
  -2   3 -21   13.52    7.98
  -2  -3 -21    7.66    1.55
   2   3 -21    8.77    3.28
  -2   3 -21    3.90    5.44
   2   3 -21    0.08    3.09
   2  -3 -21    2.99    3.46
   2  -3 -22   26.03   10.00
   2   3 -22   36.06    9.21
  -2   3 -22   40.80   12.42
   2   3 -22   29.66   10.14
   2  -3 -22   30.79    8.81
  -2   3 -22   27.27    9.87
  -2  -3 -22   35.62   11.14
  -2  -3 -22   41.77   11.47
  -2  -3 -23    9.05    7.18
  -2  -3 -23   -0.02    5.69
   2  -3 -23   -3.91    6.27
  -2   3 -23   -0.85    4.65
  -2   3 -23    5.25    4.10
   2  -3 -23    1.65    4.72
   2   3 -23    2.45    4.51
   2   3 -23    1.77    3.85
  -2  -3 -24   -2.51    1.56
  -2  -3 -24    2.82    4.27
   2   3 -24    6.00    6.17
   2  -3 -24   12.87   10.66
   2   3 -24    2.38    6.79
   2  -3 -24    7.47    7.89
  -2   3 -24   14.00    8.69
  -2   3 -24    3.65    4.54
   2   3 -25  102.24   20.48
   2  -3 -25   82.51   17.81
  -2  -3 -25  122.38   21.40
  -2  -3 -25  100.21   18.96
   2  -3 -25  101.73   20.76
  -2   3 -25   72.86   17.81
  -2   3 -25   74.44   17.22
   2   3 -25   84.30   17.21
  -2  -3 -26   -2.40    1.27
   2  -3 -26    5.23    6.16
  -2   3 -26    5.05    5.41
  -2  -3 -26    1.24    3.23
   2  -3 -26   -3.94    5.20
   2   3 -26    0.54    3.77
  -2   3 -26   -0.43    5.06
   2   3 -26    1.78    3.48
  -2  -3 -27    6.91    5.94
   2  -3 -27    2.29    3.01
  -2  -3 -27   11.51    8.15
  -2   3 -27   17.95    9.93
   2   3 -27    0.79    4.22
  -2   3 -27    4.57    2.07
   2  -3 -27    3.97    5.35
   2   3 -27    0.02    3.00
   2  -3 -28   32.93   11.63
  -2  -3 -28   19.47   10.43
  -2  -3 -28   21.34    6.93
   2   3 -28   18.07    9.22
  -2   3 -28   19.80    9.02
   2  -3 -28   18.32   10.22
   2   3 -28   23.28    9.88
  -2   3 -28   23.22   11.70
  -2  -3 -29   38.25   12.29
   2  -3 -29   64.17   15.76
  -2   3 -29   42.15   13.20
   2   3 -29   47.58   13.86
   2  -3 -29   60.38   16.49
  -2   3 -29   63.42   17.69
  -2  -3 -29   32.91   13.02
   2   3 -29   43.99   13.09
   2  -3 -30   23.91   11.04
  -2   3 -30   13.03    6.67
   2   3 -30   10.64   10.50
  -2   3 -30   10.36    7.48
   2   3 -30    5.48    1.87
  -2  -3 -30    2.63    8.53
   2  -3 -30   16.49    9.63
  -2  -3 -30    7.60    6.84
   2  -3 -31   38.54   13.35
  -2  -3 -31   38.69   13.22
   2  -3 -31    6.58    6.22
  -2   3 -31   48.38   12.60
   2   3 -31   31.60   10.76
  -2   3 -31   27.94   12.24
   2   3 -31   33.50   11.36
  -2  -3 -31   51.24   15.55
  -2   4   0    5.82    2.46
   2   4   0    6.35    3.51
   2   4   0    4.62    2.14
  -2  -4   0    6.32    2.93
  -2   4  -1    2.65    1.18
   2   4  -1    5.39    3.24
  -2   4   1    4.58    2.73
   2   4   1    0.37    1.54
  -2  -4  -1    0.87    1.40
  -2   4  -1    3.79    2.56
   2   4   1    3.03    2.69
   2   4  -1    4.89    2.83
   2   4  -2   49.96    7.65
  -2   4  -2   64.06    9.22
  -2   4  -2   68.20    5.95
   2   4   2   67.28    9.24
  -2  -4  -2   51.38    8.46
   2   4   2   68.74    9.32
   2  -4  -2   67.01    8.18
   2   4  -2   76.83    9.95
  -2   4  -2   66.64    7.02
  -2   4   2   45.18    7.36
  -2   4  -3   92.82   11.44
   2   4  -3   87.81   10.30
   2   4  -3  105.79   12.29
  -2   4   3   66.87    9.01
   2   4   3   69.83    9.82
  -2   4  -3   90.99    8.30
  -2  -4  -3   86.35   10.73
   2  -4  -3  105.43   10.24
  -2   4  -3   69.01    6.77
  -2   4   4  253.11   18.53
  -2   4  -4  327.93   22.52
   2   4   4  425.27   24.47
  -2  -4  -4  346.18   21.90
   2   4  -4  316.96   21.07
   2  -4  -4  308.44   11.80
   2  -4  -4  220.01   16.16
  -2   4  -4  302.72   15.83
  -2   4  -4  297.28   15.81
   2   4  -4  277.65   19.32
  -2  -4  -5   22.52    5.65
   2   4  -5   32.55    6.79
  -2   4  -5   33.66    7.58
  -2   4   5   41.20    8.05
   2   4   5   40.60    7.86
   2  -4  -5   18.97    3.49
  -2  -4  -5   33.81    7.67
  -2   4  -5   41.94    6.63
  -2   4  -5   29.08    5.41
   2   4  -5   41.58    8.32
   2  -4  -5   35.33    6.81
   2   4  -6  460.58   26.08
  -2  -4  -6  530.09   28.75
  -2   4   6  545.62   29.76
  -2  -4  -6  475.12   27.88
   2   4  -6  505.04   29.19
  -2   4  -6  440.09   22.81
   2  -4  -6  490.14   25.94
  -2   4  -6  479.01   23.15
  -2   4  -6  542.78   30.76
  -2   4  -7  275.83   17.98
   2  -4  -7  291.42   20.95
  -2   4   7  352.66   24.18
  -2  -4  -7  284.23   21.69
   2  -4  -7  185.87   13.17
  -2  -4  -7  341.31   23.13
  -2   4  -7  263.02   18.96
   2   4  -7  270.56   21.82
  -2   4  -7  352.49   24.81
   2   4  -7  333.84   22.46
   2   4  -8  703.13   33.28
   2   4   8  679.05   32.67
   2  -4  -8  603.20   31.52
  -2  -4  -8  589.22   31.29
  -2   4   8  696.56   35.58
   2  -4  -8  768.86   29.67
   2   4  -8  763.31   36.61
  -2   4  -8  552.93   26.45
  -2   4  -8  435.99   25.95
  -2  -4  -8  660.28   33.59
  -2   4  -8  438.78   28.93
   2   4  -9  182.35   18.78
   2   4  -9  184.79   16.87
   2  -4  -9  110.07   12.37
  -2  -4  -9  141.25   16.26
  -2   4  -9  136.07   15.12
  -2   4  -9   97.13   11.58
  -2   4   9  108.14   14.12
   2  -4  -9   89.80   12.85
  -2  -4  -9  131.55   15.70
   2   4   9  106.42   13.34
  -2   4  -9  103.44   14.27
  -2  -4 -10  253.36   22.33
   2   4 -10  269.51   21.75
  -2   4 -10  170.97   17.71
   2   4 -10  288.01   25.06
  -2   4 -10  281.73   21.26
   2  -4 -10  282.05   20.70
  -2  -4 -10  340.54   25.86
  -2   4 -10  217.20   21.29
  -2   4  10  253.71   21.38
   2  -4 -10  166.08   18.13
   2   4 -11   -0.11    2.94
   2  -4 -11    1.87    2.31
   2   4 -11    6.04    4.16
  -2   4  11    5.82    3.15
  -2   4 -11    2.01    2.13
   2  -4 -11    1.12    1.24
  -2   4 -11   -0.67    0.37
  -2   4 -11    0.47    1.95
  -2  -4 -11    0.05    2.30
  -2  -4 -11    0.51    3.58
   2  -4 -12   16.51    6.34
   2   4 -12   22.27    6.96
   2   4 -12   19.05    6.06
  -2   4 -12   18.36    6.47
  -2   4  12    7.18    3.76
  -2  -4 -12   10.81    5.13
   2  -4 -12   24.96    7.05
  -2   4 -12    8.38    2.56
  -2  -4 -12   11.64    4.95
  -2   4 -12   14.70    7.11
  -2   4 -13   12.44    4.72
   2  -4 -13   11.24    5.63
  -2   4  13    2.29    1.38
  -2   4 -13   10.76    6.44
  -2   4 -13   12.31    5.14
  -2  -4 -13    4.36    3.55
   2  -4 -13    5.16    4.36
   2   4 -13    7.00    4.06
  -2  -4 -13    1.88    3.45
   2   4 -13   21.44    7.46
  -2   4 -14   69.21   12.63
   2   4 -14   62.25   12.42
   2  -4 -14   90.48   13.89
  -2   4  14   76.46   13.46
  -2   4 -14   78.08   13.10
   2  -4 -14   77.66   13.64
  -2   4 -14   94.06   17.14
  -2  -4 -14   86.29   14.01
  -2   4 -15  208.20   22.43
   2  -4 -15  198.02   21.78
  -2  -4 -15  251.85   25.64
   2   4 -15  164.84   20.35
  -2  -4 -15  229.98   24.52
   2   4 -15  187.28   22.33
   2  -4 -15  178.43   21.41
  -2  -4 -16   43.85   11.30
  -2   4 -16   56.46   12.03
   2   4 -16   53.24   11.55
   2  -4 -16   48.45   10.28
  -2  -4 -16   41.89   10.84
   2   4 -16   46.30   11.54
   2  -4 -16   58.15   12.76
  -2   4 -16   41.73    9.83
   2  -4 -17   -2.67    5.18
  -2  -4 -17    1.44    4.60
  -2   4 -17    2.79    4.39
  -2   4 -17   -2.49    1.90
   2   4 -17    5.44    5.93
  -2  -4 -17    0.62    3.84
   2   4 -17    0.07    3.46
   2  -4 -17   -0.49    3.21
   2  -4 -18   -0.57    3.93
  -2   4 -18    3.79    3.92
  -2   4 -18    5.30    5.29
  -2  -4 -18    6.09    6.16
   2   4 -18    6.91    5.87
   2  -4 -18   10.30    6.03
  -2  -4 -18    4.48    3.98
   2   4 -18    9.69    6.57
   2   4 -19    4.13    2.58
  -2  -4 -19    7.45    6.68
  -2   4 -19    0.85    2.82
  -2   4 -19    1.35    1.82
  -2  -4 -19    7.46    6.05
   2   4 -19   -0.11    3.32
   2  -4 -19   -0.25    3.17
   2  -4 -19    3.45    2.10
  -2   4 -20   82.00   15.95
  -2  -4 -20   65.41   14.48
  -2  -4 -20   69.11   15.54
   2  -4 -20  105.77   18.01
   2   4 -20   68.87   14.96
   2   4 -20  101.87   17.73
  -2   4 -20   54.95   13.59
   2  -4 -20   60.59   14.94
  -2   4 -21    1.31    2.13
   2  -4 -21    3.07    5.28
  -2  -4 -21    2.23    5.77
  -2   4 -21   -1.80    3.38
   2   4 -21    9.66    6.70
   2  -4 -21   -2.64    5.92
   2   4 -21    7.59    4.87
  -2  -4 -21   -0.06    1.50
  -2  -4 -22   21.07    9.66
   2   4 -22   36.26   12.08
   2  -4 -22   34.90   12.48
   2  -4 -22   20.75    8.05
  -2   4 -22   37.42   12.53
  -2   4 -22   26.09   10.72
  -2  -4 -22   34.84    9.25
   2   4 -22   41.94   11.50
  -2   4 -23   -3.50    3.06
   2  -4 -23    4.61    5.22
  -2   4 -23    6.17    6.14
  -2  -4 -23    6.34    4.60
   2   4 -23    4.08    3.70
  -2  -4 -23   -1.68    3.37
   2  -4 -23    8.99    9.35
   2   4 -23    3.26    3.35
  -2  -4 -24   20.47    8.43
   2   4 -24   11.79    5.14
  -2   4 -24   10.93    8.14
  -2  -4 -24   20.55    9.63
   2  -4 -24   17.68    9.12
  -2   4 -24    2.61    3.12
   2   4 -24   14.20    6.26
   2  -4 -24    4.82    0.98
  -2  -4 -25   27.86   10.52
  -2   4 -25   32.70   13.39
   2   4 -25   12.04    5.98
  -2   4 -25   26.30   10.65
   2  -4 -25   15.94    5.01
   2   4 -25   32.10    9.89
  -2  -4 -25   26.38    9.17
   2  -4 -25   39.84   12.91
  -2  -4 -26    1.75    4.03
   2   4 -26    7.94    7.07
  -2   4 -26    1.55    4.20
   2  -4 -26   -1.11    2.27
  -2   4 -26    3.56    2.58
  -2  -4 -26   -1.87    4.69
   2  -4 -26    0.59    4.03
   2   4 -26    3.12    2.99
   2   4 -27   11.77    6.62
   2  -4 -27    7.20    8.14
  -2   4 -27    0.70    3.75
  -2  -4 -27    8.99    6.47
  -2   4 -27   11.09    8.16
  -2  -4 -27    8.70    4.01
   2   4 -27   12.52    6.81
   2  -4 -27    4.75    2.84
  -2   4 -28    2.72    3.33
  -2   4 -28   25.75   10.35
  -2  -4 -28    9.17    4.84
   2   4 -28   13.11    6.82
  -2  -4 -28   12.49    7.44
   2  -4 -28    5.80    1.31
   2  -4 -28   20.82    9.24
   2   4 -28   22.29    8.94
  -2   4 -29   10.29    7.56
  -2  -4 -29    3.74    4.45
   2  -4 -29   -7.08    8.50
  -2  -4 -29    9.03    6.07
  -2   4 -29    5.80    6.25
   2  -4 -29    0.26    4.23
   2   4 -29   -1.18    2.50
   2   4 -29   -6.55    8.29
   2  -4 -30   12.86    8.78
  -2   4 -30   -0.16    3.92
   2   4 -30   13.25    7.62
   2   4 -30   -2.79    2.94
  -2   4 -30    4.28    5.89
  -2  -4 -30    2.99    5.14
   2  -4 -30    3.69    7.72
  -2  -4 -30    0.85    4.98
  -2  -4 -31    4.16    5.50
  -2  -4 -31   11.40    8.19
   2  -4 -31   -0.88    4.66
  -2   4 -31   -5.96    8.29
   2   4 -31   -5.90    6.58
   2  -4 -31   -1.39    2.90
  -2   4 -31    3.84    4.79
   2   4 -31   -3.83    6.86
  -2   5   0 3123.02   71.89
   2   5   0 3185.38   67.59
   2   5   0 2452.47   57.61
  -2  -5   0 2060.61   56.12
  -2   5   0 2391.90   50.33
  -2   5   1   34.49    7.46
  -2   5  -1   15.15    5.38
   2   5  -1   14.65    5.09
   2   5   1   12.91    3.02
   2   5  -1   13.75    4.36
  -2  -5  -1   15.12    4.54
   2   5   1   15.07    3.94
  -2   5  -1   15.18    3.76
  -2   5   1   20.81    4.85
   2   5   2   77.90   11.22
  -2   5   2   98.84   11.81
  -2   5  -2   60.31   10.19
   2   5   2   72.21   10.28
  -2  -5  -2   93.35   11.86
   2   5  -2   65.59   10.45
   2   5  -2   86.34   11.38
  -2   5  -2   74.26    5.95
  -2   5  -2   80.43    8.78
   2   5  -3   67.77   10.41
  -2   5   3   55.30    8.86
   2   5   3   73.98   11.13
   2   5   3   73.25   10.53
  -2   5  -3   75.84    7.09
  -2   5  -3   98.38   10.50
  -2   5  -3   74.48   11.55
   2   5  -3   69.98   10.74
  -2  -5  -3   65.72   10.37
  -2   5  -4   61.65   10.61
  -2   5  -4   55.26    7.67
   2  -5  -4   34.12    3.45
  -2   5   4   32.39    7.13
   2   5   4   69.23   10.40
   2   5  -4   59.71   10.47
  -2  -5  -4   65.87    9.87
   2   5  -4   41.80    9.01
  -2   5  -4   50.78    6.38
   2  -5  -4   44.47    7.43
   2  -5  -5  265.19   19.34
  -2  -5  -5  293.31   21.70
  -2   5   5  349.94   24.40
   2   5  -5  286.73   21.78
   2   5   5  372.50   25.56
   2  -5  -5  182.10    9.59
  -2   5  -5  220.00   20.40
   2   5  -5  297.22   22.05
  -2   5  -5  331.59   18.44
  -2   5  -5  324.31   19.01
   2   5  -6   76.22   10.81
  -2   5  -6   67.03    9.67
  -2   5  -6   48.67   10.68
  -2   5   6   53.71   10.09
   2   5   6   80.36   12.16
  -2  -5  -6   45.39    8.77
   2  -5  -6   76.07    7.23
  -2   5  -6   90.81   10.31
   2   5  -6   62.79   10.81
  -2  -5  -6   49.98    8.74
   2  -5  -6   56.51    9.43
   2   5  -7  466.43   28.79
  -2   5  -7  334.59   21.63
   2   5  -7  328.06   24.54
  -2   5   7  211.59   20.46
   2   5   7  399.16   27.86
   2  -5  -7  349.20   24.40
  -2  -5  -7  414.77   26.88
  -2  -5  -7  397.76   27.21
  -2   5  -7  271.66   19.76
  -2   5  -7  274.16   23.38
   2  -5  -7  250.79   15.65
  -2   5  -8 1417.24   47.71
  -2   5  -8  997.08   46.13
  -2   5   8 1078.86   47.01
   2   5   8  848.31   41.56
  -2  -5  -8 1134.39   47.45
   2   5  -8  936.46   43.47
   2  -5  -8 1259.55   39.24
  -2   5  -8 1336.03   44.88
   2  -5  -8 1236.38   47.16
  -2  -5  -8  980.49   43.74
  -2   5  -9    6.18    3.07
   2   5  -9    4.58    3.23
  -2   5  -9    2.25    4.02
   2   5  -9   -0.18    2.77
   2  -5  -9    3.96    2.50
  -2  -5  -9   -0.44    1.08
   2   5   9    5.85    4.71
   2  -5  -9    3.91    1.73
  -2   5  -9    3.82    3.33
  -2  -5  -9    3.24    1.11
  -2   5   9   -1.28    3.32
  -2  -5 -10  197.08   19.47
  -2   5 -10  176.59   17.90
   2  -5 -10  209.54   20.88
  -2  -5 -10  141.92   17.26
  -2   5  10  242.41   23.22
  -2   5 -10  159.59   16.48
   2   5 -10  169.46   18.87
   2  -5 -10  120.53   13.62
   2   5  10  240.09   21.48
   2   5 -10  136.73   16.35
  -2   5 -10  236.71   22.78
   2   5  11   44.18    9.69
   2   5 -11   37.17    8.27
   2   5 -11   48.97   11.06
   2  -5 -11   32.49    8.10
  -2   5 -11   64.19   11.08
  -2   5 -11   50.89    9.94
  -2   5  11   70.77   13.20
  -2  -5 -11   47.65   10.51
  -2   5 -11   69.50   12.30
  -2  -5 -11   58.67   11.67
   2   5 -12   15.26    6.27
  -2   5 -12    2.92    2.90
  -2   5 -12   19.56    6.22
  -2   5  12   18.76    6.66
   2  -5 -12   21.97    7.27
  -2   5 -12    9.62    4.24
  -2  -5 -12   11.28    5.62
   2   5  12    7.47    5.10
   2   5 -12   17.18    6.66
   2  -5 -12   10.31    4.34
  -2  -5 -12    8.72    5.44
   2  -5 -13   45.29    9.51
  -2   5 -13   46.59   11.20
  -2   5 -13   46.26    9.63
  -2   5  13   42.03   10.50
  -2   5 -13   68.79   12.61
   2   5  13   46.23    9.82
   2   5 -13   47.25   10.85
  -2  -5 -13   57.54   11.66
  -2  -5 -13   71.24   12.51
   2   5 -13   77.92   14.92
  -2   5  14  496.49   34.42
  -2   5 -14  426.02   33.13
  -2   5 -14  353.07   28.92
   2   5 -14  383.80   31.71
   2  -5 -14  477.73   32.81
  -2  -5 -14  465.03   35.18
   2  -5 -14  303.11   28.24
  -2  -5 -14  443.92   33.37
  -2   5 -14  588.79   42.66
   2   5 -14  414.70   33.98
  -2   5 -15  111.32   16.96
  -2   5 -15  147.39   21.40
  -2   5 -15   64.01   12.33
  -2  -5 -15  105.29   18.05
   2   5 -15  118.44   17.27
  -2  -5 -15  112.46   17.29
   2  -5 -15  133.59   18.42
   2  -5 -15   81.51   15.60
   2   5 -15   90.89   15.83
  -2   5 -16    5.96    5.69
  -2  -5 -16   26.42    8.57
   2  -5 -16   20.27    8.17
  -2   5 -16   14.98    6.99
  -2   5  16    9.55    4.53
   2  -5 -16   10.39    3.79
   2   5 -16   27.15    9.93
  -2   5 -16   10.54    5.89
  -2  -5 -16   11.32    4.97
   2   5 -16   24.62    8.06
   2  -5 -17    1.48    4.79
   2  -5 -17    5.68    2.76
   2   5 -17    5.43    3.02
   2   5 -17    5.86    5.30
  -2   5 -17    4.66    2.63
  -2   5  17    6.50    3.56
  -2  -5 -17    6.97    6.42
  -2   5 -17   15.06    6.62
  -2  -5 -17    8.23    1.63
   2  -5 -18   61.80   13.61
  -2   5 -18   66.66   14.49
  -2   5  18   38.83   10.81
  -2  -5 -18   49.10   11.66
  -2   5 -18   74.89   14.38
  -2  -5 -18   47.39   12.84
   2  -5 -18   62.01   13.69
   2   5 -18   39.70   11.67
   2   5 -18   55.68   13.65
   2   5 -19   60.48   15.50
  -2  -5 -19   67.51   15.70
  -2   5  19   34.38    9.95
   2  -5 -19   53.70   12.70
   2   5 -19  100.96   18.99
  -2   5 -19  104.24   18.30
  -2   5 -19  100.66   17.41
   2  -5 -19   83.27   17.15
  -2   5  20   13.20    4.23
   2   5 -20   30.61   10.35
  -2  -5 -20   23.84    8.65
  -2   5 -20   21.35    8.43
   2  -5 -20   42.59   11.01
   2  -5 -20   26.08   11.35
  -2   5 -20   31.43   10.50
   2   5 -20   32.32   10.45
  -2  -5 -20   27.26   11.07
   2   5 -21    0.24    0.55
  -2   5 -21   11.29    4.18
   2  -5 -21   11.09    7.35
  -2   5  21    6.78    3.45
  -2  -5 -21    6.62    6.59
  -2  -5 -21    6.19    5.97
   2   5 -21   -1.04    3.31
  -2   5 -21   12.81    6.72
   2  -5 -21    4.04    4.57
  -2   5 -22   88.18   17.85
  -2  -5 -22   95.61   18.64
  -2   5 -22   42.49   15.51
  -2   5  22  127.83   19.72
   2   5 -22  106.87   19.73
  -2  -5 -22  105.47   19.43
   2  -5 -22   74.59   17.12
   2   5 -22   82.37   15.94
   2  -5 -22   98.54   18.43
   2  -5 -23    2.67    6.60
  -2   5  23    2.04    4.24
   2   5 -23   -3.43    7.40
  -2   5 -23   -0.65    4.35
   2  -5 -23    1.71    5.98
  -2   5 -23    0.98    4.06
  -2  -5 -23    0.28    6.13
  -2  -5 -23   -1.58    6.30
   2   5 -23   15.25    9.70
  -2   5 -24   22.19    8.71
   2   5 -24   32.04   10.03
  -2   5 -24   19.08    8.01
  -2  -5 -24   27.67    8.91
   2   5 -24   16.04    7.25
   2  -5 -24   12.96    5.42
  -2   5  24   15.51    8.07
   2  -5 -24   14.57    7.87
  -2  -5 -24   14.13    6.60
   2   5 -25   -0.30    4.39
   2  -5 -25   -1.67    5.85
  -2  -5 -25   -2.31    5.14
  -2   5 -25    1.26    4.41
   2  -5 -25    0.60    4.41
  -2   5  25    3.88    5.25
  -2  -5 -25    2.50    2.50
  -2   5 -25    2.51    6.44
   2   5 -25    2.41    2.04
   2  -5 -26   13.73    7.27
  -2   5 -26   18.08    8.88
  -2   5  26   11.29    6.16
   2   5 -26   17.28    8.28
  -2  -5 -26   38.25   12.62
   2   5 -26   39.02   10.37
  -2  -5 -26   17.52    9.28
   2  -5 -26   26.66   11.88
  -2   5 -26   28.43   12.45
   2  -5 -27    5.84    3.76
  -2   5  27    4.80    5.53
  -2   5 -27    2.72    5.04
   2   5 -27    1.16    3.78
  -2  -5 -27    2.08    3.15
   2   5 -27   14.45    8.89
   2  -5 -27   -2.18    4.98
  -2   5 -27    7.75    5.45
  -2  -5 -27   -1.58    4.67
  -2   5 -28   16.60    5.60
  -2   5 -28   27.32   10.54
   2   5 -28   24.45   13.80
  -2  -5 -28    5.26    5.81
  -2  -5 -28   21.89   10.74
  -2   5  28   11.52    8.70
   2   5 -28   21.75    8.97
   2  -5 -28   12.55    8.74
   2  -5 -28   32.14   12.94
  -2   5  29    4.31    5.14
  -2   5 -29    9.46    7.42
   2   5 -29    6.25    6.18
   2   5 -29    5.91    8.43
  -2  -5 -29    1.65    4.44
   2  -5 -29    4.97    7.39
  -2   5 -29    2.85    2.82
   2  -5 -29    1.55    8.39
  -2  -5 -29    3.73    5.43
  -2  -5 -30   -1.09    2.65
  -2  -5 -30    2.35    6.99
   2  -5 -30    2.88    6.82
  -2   5 -30   -0.32    5.65
   2   5 -30    5.21    7.51
  -2   5  30    5.86    6.34
   2   5 -30    0.61    6.00
  -2   5 -30    5.43    6.47
   2  -5 -30   15.89    2.42
   2   6   0  406.48   26.58
   2   6   0  271.82   22.18
  -2   6   0  248.36   22.17
  -2   6   0  482.41   25.54
  -2   6  -1   60.04    8.47
  -2   6   1   38.07    6.96
  -2   6  -1   57.88    9.97
   2   6  -1   65.48   10.91
  -2   6   1   48.08    9.64
   2   6   1   58.07    9.50
   2   6  -1   22.65    6.52
   2   6   1   63.59   11.10
  -2  -6  -1   43.32    8.69
   2   6   2   15.99    5.94
  -2  -6  -2   22.48    6.55
  -2   6  -2    7.85    2.73
   2   6  -2   17.81    5.58
  -2   6   2   24.94    6.96
   2   6   2   19.07    5.37
   2   6  -2   21.07    6.25
  -2   6  -2   22.97    4.97
  -2   6  -2   10.60    2.24
  -2   6   3   22.18    7.07
  -2   6  -3   26.68    7.00
  -2  -6  -3   28.07    6.87
   2   6  -3   22.01    6.19
  -2   6  -3   32.06    6.37
   2   6  -3   24.45    6.85
  -2   6  -3   34.63    4.76
   2   6   3   37.28    7.66
   2   6   3   30.00    7.71
  -2   6  -4  211.58   21.32
   2   6  -4  188.91   18.51
  -2   6  -4  178.56   16.37
  -2   6   4  171.18   17.71
   2   6  -4  179.43   19.06
   2   6   4  128.96   15.14
   2   6   4  167.41   17.60
   2  -6  -4  106.48   13.18
  -2  -6  -4  189.17   18.78
  -2   6  -5  117.70   12.37
   2   6  -5  129.32   15.70
  -2   6  -5  112.75   10.77
  -2   6   5  131.66   15.74
  -2  -6  -5  125.52   14.31
   2  -6  -5  105.94    7.11
   2   6  -5  130.95   15.58
   2  -6  -5  100.35   12.58
  -2   6  -5  107.71   15.51
  -2   6  -6   12.73    5.00
   2  -6  -6    4.73    3.21
   2   6   6   13.69    7.03
   2   6  -6    5.51    4.05
  -2  -6  -6   14.06    4.69
  -2   6  -6    8.91    2.99
  -2   6  -6   15.97    4.51
   2   6  -6    5.87    3.01
  -2   6   6    5.76    3.72
   2  -6  -6    9.56    2.73
  -2   6  -7  191.10   21.86
  -2   6   7  132.66   17.31
   2   6   7  171.33   19.18
  -2  -6  -7  166.37   17.50
   2   6  -7  209.32   20.36
  -2  -6  -7  167.30   18.70
  -2   6  -7  143.52   13.98
   2  -6  -7  134.35   15.58
  -2   6  -7  146.23   15.16
   2   6  -7  156.58   17.82
   2  -6  -7  144.01   11.18
   2   6  -8    8.11    4.71
  -2  -6  -8    0.61    2.54
  -2   6  -8    9.26    3.93
  -2   6   8    2.06    3.64
  -2   6  -8    4.11    1.96
   2  -6  -8    5.97    4.06
   2   6  -8    2.76    4.30
   2   6   8    3.06    2.30
   2  -6  -8   -0.15    1.00
  -2  -6  -8    9.27    4.82
  -2   6  -8    7.45    4.16
   2   6  -9    7.81    4.27
  -2   6  -9   22.57    6.47
  -2   6   9    9.15    5.67
   2   6  -9    7.95    1.06
  -2  -6  -9   14.99    5.15
  -2  -6  -9   13.51    5.45
  -2   6  -9    8.06    4.52
   2  -6  -9   10.38    3.33
   2   6   9   10.48    4.45
  -2   6  -9    6.24    2.32
   2  -6  -9    7.97    3.33
  -2   6  10   42.52    9.97
   2  -6 -10   40.89    8.52
  -2  -6 -10   35.09    8.81
   2   6  10   57.31   11.88
  -2   6 -10   42.25    9.55
   2  -6 -10   61.95   11.48
  -2  -6 -10   46.06   10.89
   2   6 -10   70.87   12.88
  -2   6 -10   33.98    8.92
  -2   6 -10   72.25   13.21
   2   6 -10   40.13    9.57
  -2   6 -11  490.94   32.42
  -2   6  11  371.87   30.17
   2   6 -11  439.59   32.13
   2   6  11  545.78   37.38
   2  -6 -11  294.27   22.38
  -2   6 -11  446.95   29.89
  -2  -6 -11  406.80   30.61
   2   6 -11  328.68   27.88
  -2  -6 -11  377.90   29.42
   2  -6 -11  446.96   32.10
  -2   6 -11  404.63   31.91
   2   6 -12   85.40   15.41
   2  -6 -12   70.48   11.42
  -2   6 -12   45.47    9.68
  -2   6 -12   52.23   10.61
   2   6  12   65.40   13.46
  -2  -6 -12   55.90   11.40
  -2   6  12   96.14   16.07
  -2  -6 -12  102.69   15.30
   2  -6 -12  110.02   15.37
   2   6 -12   67.53   13.19
  -2   6 -12  112.65   17.12
  -2  -6 -13   70.95   12.78
   2   6 -13   63.09   12.20
  -2   6 -13   68.81   12.79
  -2   6  13   68.65   13.44
   2   6  13   70.08   13.56
   2  -6 -13   79.54   13.19
  -2   6 -13   40.69    9.39
  -2  -6 -13   80.99   14.32
   2  -6 -13   94.98   15.50
  -2   6 -13   77.41   14.08
   2   6 -13  123.46   18.03
  -2  -6 -14  188.90   22.43
   2   6 -14  215.39   23.84
  -2   6 -14  235.84   25.80
  -2   6 -14  189.02   21.26
  -2   6  14  196.07   24.26
  -2  -6 -14  188.32   22.83
  -2   6 -14  160.69   20.64
   2   6  14  227.08   24.13
   2  -6 -14  225.53   23.25
   2   6 -14  211.73   23.87
   2  -6 -14  190.04   22.36
   2  -6 -15   46.82   10.90
  -2   6 -15   64.16   13.03
  -2   6  15   62.79   13.76
  -2   6 -15   85.09   15.22
  -2  -6 -15   56.16   12.58
  -2  -6 -15   76.40   14.69
   2   6 -15   71.84   13.70
   2   6  15   62.11   12.76
   2   6 -15   46.85   11.74
  -2   6 -15   71.36   15.35
   2  -6 -15   74.72   14.04
  -2  -6 -16  108.20   17.46
  -2   6 -16  121.90   20.54
  -2   6 -16  127.18   18.81
  -2   6  16  112.03   18.35
   2   6 -16   97.06   16.97
  -2   6 -16   87.06   16.50
   2  -6 -16  119.03   18.35
  -2  -6 -16  104.65   17.55
   2  -6 -16  112.25   18.08
   2   6  16   75.27   13.79
   2   6 -16  106.63   17.75
   2  -6 -17    5.84    3.52
  -2   6 -17    8.23    6.33
   2   6 -17    3.71    2.06
   2  -6 -17    0.64    2.81
  -2   6  17    1.73    5.70
  -2  -6 -17    1.72    3.02
  -2   6 -17    0.91    1.26
   2   6  17   -0.52    3.32
  -2  -6 -17   -3.87    4.51
  -2   6 -17    1.49    4.11
   2   6 -17    3.49    0.94
   2   6 -17   -2.73    5.10
  -2  -6 -18   24.12    8.93
   2  -6 -18   26.14    9.23
   2   6 -18   49.56   12.58
  -2   6 -18   32.30   10.95
  -2   6  18   25.82   10.72
   2   6  18   33.86   10.03
  -2  -6 -18   51.61   14.12
  -2   6 -18   50.13   12.37
   2   6 -18   52.08   13.08
   2  -6 -18   54.34   13.32
  -2   6 -18   47.17   12.27
   2  -6 -19    9.05    5.06
   2   6  19    6.83    6.72
  -2  -6 -19   13.98    3.96
  -2   6 -19   20.94    9.97
  -2   6 -19    8.54    6.14
   2  -6 -19    3.58    5.19
  -2   6  19    4.23    3.97
   2   6 -19    7.82    5.15
   2   6 -19    8.46    5.48
  -2  -6 -19    0.76    5.17
   2  -6 -20    2.89    3.74
   2   6  20   -0.15    3.75
   2  -6 -20    5.74    5.60
  -2  -6 -20    1.32    2.81
  -2   6 -20    0.42    3.24
   2   6 -20    2.40    3.05
  -2   6  20    5.94    6.99
  -2  -6 -20    1.82    5.79
  -2   6 -20   -1.13    4.08
   2   6 -20    1.96    2.34
   2  -6 -21   -1.63    0.70
   2   6  21    0.69    4.12
   2   6 -21    2.29    3.96
  -2   6 -21    6.09    5.32
   2   6 -21    2.82    2.45
  -2   6 -21    2.08    0.98
  -2   6  21   13.06    6.96
  -2  -6 -21   10.18    6.65
   2  -6 -21   -6.33    7.38
  -2  -6 -21    7.39    5.68
   2  -6 -22   28.31   10.13
  -2  -6 -22   12.21    6.32
  -2   6 -22   34.90   10.17
  -2   6  22   33.83   11.55
   2  -6 -22   47.03   13.11
   2   6 -22   22.40    9.18
  -2   6 -22   -2.90    8.10
   2   6 -22   25.36    8.68
   2   6  22   37.22   11.28
  -2  -6 -22   37.51   11.68
  -2  -6 -23    3.11    3.11
   2  -6 -23    4.63    2.62
  -2   6  23    7.04    6.05
   2   6  23    2.90    2.02
   2   6 -23   11.45    6.36
  -2   6 -23   15.24    7.12
   2  -6 -23    5.35    6.12
  -2   6 -23   13.19    6.65
   2   6 -23   16.69    8.82
  -2  -6 -23    1.11    5.19
   2  -6 -24   62.56   16.77
   2  -6 -24   76.01   16.00
  -2  -6 -24   43.99   13.21
   2   6  24   58.61   14.95
  -2   6 -24   64.61   16.14
  -2   6 -24   47.74   13.85
  -2  -6 -24   58.61   15.12
  -2   6  24   54.80   14.21
   2   6 -24   38.60   13.33
   2   6 -24   55.26   13.89
  -2  -6 -25    4.19    6.23
   2  -6 -25   -2.61    5.41
  -2   6 -25    3.58    6.91
   2   6 -25    6.59    6.21
  -2   6  25   -0.76    4.04
   2   6  25    0.71    4.13
   2   6 -25    4.51    5.75
  -2   6 -25   -1.25    8.03
  -2  -6 -25    7.16    7.40
   2  -6 -25   -2.23    4.83
   2  -6 -26   15.18    8.70
   2  -6 -26   16.62    9.84
  -2   6 -26   13.35    8.62
   2   6 -26   20.86    8.90
   2   6  26    2.86    5.17
  -2   6  26    4.88    4.18
   2   6 -26    5.63    2.74
  -2  -6 -26   -0.58    2.77
  -2   6 -26   13.06    6.86
  -2  -6 -26   24.09    9.15
   2   6 -27   -3.68    1.67
   2   6 -27   11.59    8.16
   2  -6 -27    3.32    4.75
  -2   6 -27   -3.62    5.64
  -2   6  27    1.71    4.00
   2   6  27   -0.90    5.01
  -2  -6 -27   -1.86    4.54
  -2   6 -27    1.74    8.76
   2  -6 -27    4.19    2.63
  -2  -6 -27    7.95    7.71
   2  -6 -28   -2.86    3.63
   2   6 -28    1.19    4.17
  -2   6 -28    0.92    5.27
   2   6  28   12.69    7.24
   2   6 -28    4.51    5.26
  -2   6  28    5.04    1.84
  -2  -6 -28    5.60    5.18
   2  -6 -28   -5.75    8.61
  -2   6 -28    4.57    7.17
  -2  -6 -28    4.12    4.19
   2  -6 -29    8.38    7.88
   2   6 -29    5.51    2.37
   2  -6 -29    4.57    2.25
  -2   6  29    7.07    6.80
  -2   6 -29    7.10   10.46
  -2   6 -29    7.24    6.98
  -2  -6 -29    5.41    0.94
   2   6  29   20.29   10.43
   2   6 -29   -3.05    6.94
  -2  -6 -29   18.30    9.85
   2  -6 -30    9.29    5.11
  -2   6 -30   -6.13   12.11
  -2   6  30    6.40    6.58
   2   6 -30   12.56    7.88
   2   6  30   -1.60    5.18
  -2  -6 -30    8.58   10.14
  -2  -6 -30    0.03    1.09
   2  -6 -30    0.92    5.36
  -2   6 -30   21.18    7.71
   2   6 -30   23.41   10.74
  -2   7   0   -1.21    3.89
   2   7   0    2.04    2.93
  -2   7   0   -0.87    1.34
   2   7   0   -0.95    2.09
  -2   7   1  413.24   30.42
   2   7   1  750.13   38.02
   2   7  -1  544.66   31.52
  -2   7  -1  523.67   27.53
  -2   7  -1  501.24   33.39
  -2   7  -1  602.11   15.23
   2   7  -1  499.73   32.03
   2   7   1  619.40   34.29
  -2   7   1  755.75   35.33
   2   7  -2  152.07   17.20
   2   7  -2  176.75   19.35
  -2   7   2  200.33   18.45
  -2   7   2  198.97   21.03
  -2   7  -2  196.49   17.32
   2   7   2  181.32   19.77
  -2   7  -2  201.86   10.80
  -2  -7  -2  203.61   19.53
   2   7   3  425.39   29.80
   2   7  -3  261.79   23.23
  -2   7   3  723.27   38.24
  -2  -7  -3  726.18   38.29
  -2   7  -3  657.72   32.28
   2   7  -3  524.05   32.48
  -2   7  -3  650.27   38.83
  -2   7  -3  418.49   17.94
   2   7   3  214.83   20.63
  -2   7  -4   46.99    6.73
  -2   7   4   47.45   10.04
   2   7   4   61.89   11.32
   2   7  -4   79.59   13.63
  -2  -7  -4   70.69   11.94
  -2   7  -4   76.59   13.50
   2   7  -4   81.72   13.08
   2   7   4   67.66   12.48
  -2   7  -5  162.60   16.42
   2   7  -5  150.20   17.80
   2  -7  -5  128.96   15.34
   2   7  -5  144.18   17.59
  -2  -7  -5  153.07   17.21
   2  -7  -5  131.61    8.21
  -2   7  -5  155.44   18.88
  -2   7  -5  112.77   11.16
  -2   7   5  143.25   16.93
  -2   7  -6  137.73   18.71
   2   7  -6  174.88   19.55
   2   7  -6  145.50   17.72
  -2  -7  -6  187.53   19.08
  -2   7   6  158.67   18.81
   2  -7  -6  201.62   20.04
   2   7   6  189.78   21.31
   2  -7  -6  163.19   11.14
  -2   7  -6  177.56   14.89
  -2   7  -6  203.12   18.77
   2   7  -7  583.59   35.79
   2   7  -7  588.58   36.21
  -2   7   7  470.57   33.21
  -2   7  -7  659.61   41.05
  -2  -7  -7  598.82   34.88
   2  -7  -7  685.44   24.55
  -2   7  -7  462.15   25.77
   2  -7  -7  313.20   25.57
   2   7   7  583.92   37.95
  -2   7  -7  515.92   30.89
  -2   7  -8   72.88   13.71
   2   7  -8   74.12   13.74
  -2   7  -8   68.62   10.31
   2   7   8  105.45   16.37
   2  -7  -8   80.27   12.39
  -2  -7  -8   67.95   12.30
   2  -7  -8   82.16    9.63
   2   7  -8   87.63   14.17
  -2   7  -8   72.39   12.40
  -2   7   8   78.96   13.94
   2   7  -9   50.74   11.15
  -2  -7  -9   71.07   12.13
  -2   7   9   71.38   14.21
   2   7   9   91.22   15.74
   2  -7  -9   55.33    8.62
  -2  -7  -9   67.80   12.79
  -2   7  -9   55.54    9.97
   2  -7  -9   60.62   11.81
  -2   7  -9   60.18    9.97
  -2   7  -9   86.11   15.13
   2   7  -9   52.41   11.06
  -2   7  10   37.69   10.59
  -2   7 -10   32.77    9.21
  -2   7 -10   37.85    9.57
   2   7  10   51.84   10.94
   2   7 -10   32.03    8.34
  -2  -7 -10   32.33    8.35
  -2  -7 -10   26.25    9.16
   2   7 -10   27.48    8.51
  -2   7 -10   31.29    7.87
   2  -7 -10   32.50    8.66
   2  -7 -10   52.52    8.70
  -2   7 -11 1002.45   52.62
  -2   7  11 1207.03   58.48
  -2   7 -11 1455.69   55.66
   2   7  11 2019.84   74.97
  -2   7 -11 1346.16   55.61
   2  -7 -11 1944.83   57.32
  -2  -7 -11 1239.38   57.80
   2   7 -11 1126.36   54.25
   2  -7 -11 1372.36   59.71
   2   7 -11 1469.79   59.37
  -2  -7 -11 1507.31   61.11
  -2   7 -12  240.88   23.74
  -2   7  12  275.75   28.54
   2   7  12  247.69   27.16
  -2  -7 -12  203.68   23.29
   2  -7 -12  184.42   17.79
  -2   7 -12  174.40   21.92
   2   7 -12  224.26   24.68
  -2   7 -12  228.54   22.61
  -2  -7 -12  243.99   26.07
   2  -7 -12  248.35   25.85
   2   7 -12  249.75   25.71
   2   7 -13   74.51   14.11
  -2  -7 -13   86.11   15.09
  -2   7  13   90.11   15.68
  -2   7 -13   82.38   14.08
   2  -7 -13   78.13   14.28
   2  -7 -13  115.90   14.75
  -2  -7 -13   98.57   16.46
   2   7  13   53.51   13.49
  -2   7 -13   49.24   10.73
   2   7 -13  105.32   17.75
  -2   7 -13  107.86   16.94
  -2   7 -14   35.22    9.65
   2   7 -14   51.21   12.83
  -2  -7 -14   34.70   10.33
  -2   7 -14   45.11   11.21
   2   7 -14   45.14   10.69
  -2   7  14   58.94   13.27
   2  -7 -14   88.33   13.72
   2   7  14   49.30   13.03
  -2  -7 -14   43.57   11.42
   2  -7 -14   41.69   10.51
  -2   7 -14   27.54    9.53
   2   7  15    4.27    5.11
   2   7 -15   11.74    7.67
  -2   7 -15    2.33    6.84
  -2   7  15   -3.28    4.49
   2   7 -15   -3.16    2.74
  -2  -7 -15    1.41    2.47
  -2  -7 -15   -3.01    6.09
   2  -7 -15   -0.86    2.89
   2  -7 -15    1.12    1.75
  -2   7 -15    2.24    5.18
  -2   7 -15    0.83    1.70
   2   7 -16   66.15   14.37
  -2   7 -16   70.19   14.45
  -2   7  16  100.43   18.24
   2   7  16  103.16   18.77
  -2   7 -16   89.31   16.22
   2  -7 -16   99.52   15.72
   2   7 -16   64.94   14.38
  -2  -7 -16   92.23   16.21
  -2  -7 -16   59.05   13.67
   2  -7 -16   92.60   16.93
  -2   7 -16   83.13   16.13
  -2  -7 -17   96.45   17.44
  -2  -7 -17  110.80   18.32
  -2   7 -17   99.64   17.02
   2   7 -17   69.55   14.77
  -2   7  17  128.52   21.55
   2   7  17  114.03   19.34
   2  -7 -17  104.18   17.22
   2   7 -17  138.83   21.46
  -2   7 -17  136.95   21.62
  -2   7 -17   99.97   18.17
   2  -7 -17  127.58   20.04
   2   7 -18   25.05    9.13
  -2   7 -18   21.07    7.76
  -2  -7 -18   46.15   12.62
  -2   7  18   42.54   12.59
  -2   7 -18   31.95    9.69
   2   7  18   27.51    8.92
  -2  -7 -18   46.99   12.78
   2  -7 -18   26.25    8.23
   2   7 -18   26.57    9.75
  -2   7 -18   28.46    9.96
   2  -7 -18   23.23    8.66
   2   7 -18   44.41   11.32
  -2   7 -19   22.69    7.45
  -2   7 -19   29.75   10.02
   2  -7 -19   28.91    8.41
  -2   7  19   55.39   14.18
  -2  -7 -19   34.65   10.94
  -2   7 -19   35.11   11.45
   2  -7 -19   37.39   11.93
  -2  -7 -19   46.25   11.34
   2   7 -19   27.69    9.16
   2   7 -19   22.88    8.60
   2   7  19   33.60   12.06
   2   7 -19   51.41   15.73
   2  -7 -20    4.71    5.34
   2  -7 -20    8.44    5.06
   2   7 -20    1.88    3.32
  -2   7  20    2.63    5.16
  -2  -7 -20    5.56    5.65
  -2   7 -20    3.61    3.07
   2   7  20    7.00    5.97
  -2  -7 -20    0.76    5.17
  -2   7 -20    7.94    7.30
   2   7 -20    8.30    2.99
  -2  -7 -21   55.80   15.86
   2  -7 -21   45.58   12.38
  -2  -7 -21   47.41   13.13
   2   7 -21   44.60   11.91
  -2   7 -21   57.92   15.21
  -2   7  21   63.04   15.19
   2   7  21   42.78   10.95
  -2   7 -21   47.76   13.31
   2   7 -21   36.74   15.06
   2  -7 -21   46.58   12.12
  -2  -7 -22   12.20    7.70
  -2  -7 -22    9.37    8.16
  -2   7 -22   -2.72    8.07
   2  -7 -22    2.00    5.11
   2   7  22    3.53    5.27
   2  -7 -22    8.34    5.41
   2   7 -22    1.35    3.57
  -2   7 -22   -3.72    8.14
   2   7 -22    4.76    3.87
  -2   7  22   -0.62    3.85
   2  -7 -23    0.96    2.87
   2   7  23   -1.75    2.87
  -2   7 -23    3.55    5.12
  -2  -7 -23    0.40    3.71
   2   7 -23   -5.19    6.81
  -2  -7 -23   -1.05    3.55
   2  -7 -23    0.86    5.57
  -2   7  23   -1.17    5.21
  -2   7 -23   -2.76    4.85
   2   7 -23   -3.67    5.83
  -2  -7 -24    3.44    8.05
   2  -7 -24   -0.05    1.57
   2   7  24    1.35    4.73
  -2   7 -24   16.09   10.00
   2  -7 -24   -1.05    2.84
   2   7 -24    2.35    3.71
  -2   7 -24    1.87    7.27
   2   7 -24   -2.07    3.44
  -2   7  24   -1.43    5.70
  -2  -7 -24    1.41    4.45
   2  -7 -25   37.88   12.01
   2   7 -25   48.59   13.18
   2  -7 -25   44.22   15.51
   2   7 -25   58.97   16.04
  -2   7 -25   43.16   13.45
  -2   7  25   44.88   12.06
  -2  -7 -25   48.72   14.33
   2   7  25   47.21   13.05
  -2   7 -25   11.11   16.05
  -2  -7 -25   52.17   15.75
   2  -7 -26    3.25    4.62
  -2   7 -26   -0.29    4.89
   2   7 -26    2.47    5.83
  -2   7 -26   -1.45    1.71
   2   7 -26    1.15    4.97
   2   7  26   -1.25    3.12
  -2  -7 -26    0.31    1.42
   2  -7 -26   -1.05    5.25
  -2   7  26   -1.64    1.53
  -2  -7 -26   -0.15    2.02
  -2   7  27   -0.92    2.14
  -2  -7 -27    8.66    7.19
   2   7 -27    1.49    3.97
   2   7  27   16.16   10.46
  -2   7 -27    4.70    2.45
  -2  -7 -27    7.91    8.45
   2   7 -27    4.99    4.91
   2  -7 -27    7.09    5.26
   2  -7 -28   -0.56    2.02
  -2  -7 -28    8.65   10.79
   2   7 -28   -4.86    5.45
  -2   7  28    9.85    6.21
   2   7  28   -0.05    3.83
  -2   7 -28    3.33    6.77
  -2  -7 -28    5.21    5.78
   2   7 -29    7.58    2.32
  -2   7 -29   18.33   10.85
   2   7  29   12.58    4.79
  -2   7  29   17.79    9.59
   2  -7 -29    8.88    8.05
  -2  -7 -29   32.95   12.80
   2   7 -29   19.93   10.96
  -2  -7 -29    6.55    6.20
   2   8   0    4.24    2.71
  -2   8   0   10.11    3.91
   2   8   0    7.58    4.99
  -2   8   0    4.90    2.91
  -2   8   1    8.98    4.86
  -2   8  -1    8.43    4.29
  -2   8  -1    1.44    2.23
   2   8  -1    6.58    3.52
   2   8  -1    3.62    3.01
  -2   8   1    9.10    5.14
   2   8   1    3.78    2.73
   2   8   1   16.23    6.42
  -2   8  -2   12.00    5.45
   2   8  -2   29.13    8.66
  -2   8   2   12.23    6.82
   2   8   2   20.94    5.93
   2   8  -2   19.88    6.60
   2   8   2   17.47    6.38
  -2   8   2   29.84    7.46
  -2   8  -2   18.73    5.41
   2   8   3   83.10   13.42
   2   8  -3   93.97   14.96
  -2   8   3   81.38   14.39
  -2   8  -3   94.04   13.25
   2   8  -3   75.67   12.93
  -2  -8  -3   71.86   12.75
  -2   8   3   66.81   11.70
   2   8   3   80.94   14.24
  -2   8  -4  155.22   20.50
   2   8  -4  206.83   22.09
  -2   8  -4   96.00   11.38
  -2  -8  -4  171.75   19.50
  -2   8   4  119.03   16.24
  -2   8  -4  159.77   18.49
   2   8   4  129.60   17.08
   2   8  -4  198.25   22.37
   2   8   4  225.37   23.05
  -2   8  -5  106.18   16.89
  -2   8  -5  127.69   15.53
   2   8   5  158.41   19.56
   2   8  -5  129.26   18.24
  -2   8   5  119.04   16.65
   2   8   5  145.68   18.17
  -2  -8  -5  153.83   18.33
   2   8  -5  151.30   19.23
  -2   8  -5  188.04   14.84
   2   8  -6   -0.45    2.28
  -2   8  -6    0.10    3.50
   2   8  -6    0.74    3.30
   2  -8  -6    1.02    0.48
  -2   8   6   -0.33    2.15
  -2  -8  -6    1.86    2.95
   2   8   6   -0.58    2.00
   2  -8  -6    3.28    2.84
  -2   8  -6    3.27    3.27
  -2   8  -6    1.21    1.18
   2   8   6    1.94    2.37
   2   8  -7   40.55   10.25
  -2   8  -7   33.26    9.18
   2   8  -7   33.69    8.89
   2  -8  -7   52.03    6.84
  -2   8   7   33.68    8.88
  -2  -8  -7   45.93   10.24
  -2   8  -7   32.63    8.42
   2  -8  -7   49.53   11.46
  -2   8  -7   38.38    8.20
   2   8   7   30.26    8.53
  -2   8  -8    1.71    3.49
  -2   8   8    5.04    3.27
   2   8  -8    2.76    4.04
   2   8   8    7.96    5.32
  -2   8  -8   -0.15    2.87
  -2  -8  -8    3.53    3.22
   2  -8  -8    1.02    0.34
   2   8  -8   -0.86    4.45
   2  -8  -8   -1.15    2.58
  -2   8  -8    1.19    1.19
   2   8  -9   77.38   14.58
   2  -8  -9   74.55    9.98
  -2   8   9   48.94   11.65
   2   8   9   76.83   14.79
   2  -8  -9   56.00   11.84
  -2   8  -9   57.03   11.02
   2   8  -9   47.34   10.99
  -2   8  -9   55.47   13.48
  -2   8  -9   70.78   11.08
  -2  -8  -9   46.33    9.75
  -2  -8 -10   37.96    9.63
  -2   8 -10   56.07   11.26
   2  -8 -10   48.17    8.38
  -2   8 -10   60.49   13.68
   2   8  10   59.33   12.73
  -2   8  10   31.74    9.29
   2   8 -10   49.87   12.10
   2   8 -10   50.57   12.03
  -2  -8 -10   63.15   13.35
  -2   8 -10   47.51    9.86
   2  -8 -10   42.88    8.81
  -2   8 -11    0.65    2.67
   2   8 -11    0.80    2.02
  -2   8 -11   -1.10    3.39
   2  -8 -11    2.09    2.13
  -2   8  11    2.15    1.91
  -2  -8 -11    4.35    4.81
   2   8 -11    2.20    1.65
   2   8  11   -5.22    6.42
  -2   8 -11    3.65    3.08
   2  -8 -11   -1.46    3.76
  -2  -8 -11   -0.91    3.73
  -2   8 -12   24.39    9.78
   2   8 -12   12.08    5.76
  -2   8 -12   17.38    6.87
   2   8  12   19.85    9.48
  -2  -8 -12    8.70    5.02
   2   8 -12    6.27    4.67
  -2   8  12   12.76    7.16
  -2  -8 -12   18.39    6.17
   2  -8 -12   18.88    6.73
  -2   8 -12   27.93    8.01
   2  -8 -12    9.74    5.61
  -2   8 -13    4.41    4.54
   2   8 -13   -0.57    7.53
  -2   8 -13    3.18    3.80
   2  -8 -13    4.94    4.89
   2   8 -13   -0.57    3.21
   2   8  13    1.66    4.43
  -2   8  13    3.90    7.16
   2  -8 -13   -2.52    4.88
  -2  -8 -13   -1.66    3.69
  -2  -8 -13   -1.61    1.58
  -2   8 -13   -2.00    4.73
  -2   8 -14   24.45    7.35
   2   8 -14   30.41    9.82
  -2   8 -14   13.23    6.35
  -2   8 -14   29.19    9.03
   2   8 -14   43.71   11.38
  -2   8  14   20.28    8.66
   2   8  14   15.18    8.64
   2  -8 -14   26.18    9.82
  -2  -8 -14   33.76    9.60
   2  -8 -14   24.93    8.46
  -2  -8 -14   21.82    8.16
  -2  -8 -15  204.75   25.68
   2   8 -15  219.09   26.64
  -2   8  15  168.61   24.35
   2   8  15  221.55   26.99
  -2   8 -15  152.51   21.46
  -2   8 -15  128.97   19.80
  -2  -8 -15  228.58   26.94
   2  -8 -15  159.61   22.34
   2   8 -15  156.98   21.77
  -2   8 -15  166.68   22.78
  -2   8 -16    1.95    4.36
   2   8 -16    1.57    4.82
   2  -8 -16    3.61    4.40
   2   8 -16    1.69    4.03
  -2  -8 -16   -0.91    2.76
   2   8  16    2.86    6.40
  -2   8  16    4.96    4.22
  -2   8 -16    1.33    4.97
  -2  -8 -16    3.41    4.14
  -2   8 -16   -1.19    3.84
   2  -8 -16   -1.03    2.05
  -2   8 -17   36.50   12.04
   2   8 -17   36.93   12.22
  -2   8  17   65.84   15.64
  -2   8 -17   61.78   14.58
  -2  -8 -17   38.32   11.08
  -2  -8 -17   70.10   14.79
   2   8  17   50.02   13.46
   2   8 -17   69.70   16.26
   2   8 -17   76.58   16.75
  -2   8 -17   38.90   10.84
   2  -8 -17   31.03   11.03
   2   8  18   24.83    9.98
   2   8 -18    3.87    4.89
  -2   8 -18    6.41    7.51
   2   8 -18   13.10    4.83
  -2   8  18   13.96    6.91
   2   8 -18   11.68    7.25
  -2  -8 -18    8.98    4.66
  -2   8 -18   28.84    8.49
  -2   8 -18    9.00    2.49
  -2  -8 -18   19.04    7.27
   2  -8 -18   12.36    7.25
  -2   8 -19   77.81   17.06
   2   8 -19   49.30   14.03
   2   8  19   26.37   14.61
  -2   8  19   89.28   17.51
  -2   8 -19   59.18   14.36
  -2   8 -19   43.34   11.32
  -2  -8 -19   49.01   12.73
  -2  -8 -19   36.02   10.22
   2   8 -19   35.08   10.82
   2  -8 -19   66.23   16.07
   2   8 -19   38.88   10.42
  -2   8 -20    0.34    5.31
  -2   8 -20   -0.58    1.94
  -2   8  20   -0.84    1.76
   2   8  20    1.58    2.50
  -2  -8 -20   -0.04    4.40
   2  -8 -20   -1.92    4.41
   2   8 -20   -4.36    4.71
  -2  -8 -20    1.56    5.51
   2   8 -20   -1.34    3.45
   2   8 -20    0.59    8.00
  -2   8 -20    0.41    4.19
   2   8 -21   53.07   13.54
  -2   8 -21   36.75   12.30
  -2   8  21   61.07   15.04
   2   8  21   45.71   13.41
  -2  -8 -21   65.86   15.02
   2   8 -21   98.95   19.45
   2  -8 -21   86.84   18.63
  -2   8 -21   64.50   15.71
  -2  -8 -21   84.44   17.81
  -2   8 -21   85.84   18.68
   2   8 -22    4.99    6.68
   2  -8 -22   -4.38    3.32
  -2  -8 -22   -3.69    1.19
   2   8  22   -0.58    3.21
  -2   8 -22   -1.30    3.48
  -2  -8 -22    5.49    6.34
  -2   8 -22    0.12    4.21
   2   8 -22    4.31    6.06
  -2   8  22   -2.90    2.27
   2  -8 -23    1.43    2.72
   2   8  23   11.86    8.19
  -2   8  23   21.42    8.84
  -2   8 -23   17.67    9.11
  -2  -8 -23   10.25    7.35
   2   8 -23   12.13    7.59
   2   8 -23    8.12    2.59
  -2   8 -23    7.39    5.94
  -2  -8 -23    9.99    7.28
   2  -8 -24   10.06    6.66
  -2  -8 -24   10.65    6.18
   2   8  24   12.67    7.71
   2   8 -24    3.48    6.37
  -2   8  24    4.42    6.66
   2   8 -24    9.25    8.96
  -2  -8 -24    3.04    2.93
  -2   8 -24   10.09    5.45
  -2   8 -24   14.37   10.38
   2  -8 -25   66.71   17.79
   2   8 -25   88.92   19.23
  -2   8  25   71.88   17.27
   2   8  25   46.25   14.39
  -2   8 -25   61.72   16.47
   2   8 -25   25.48   12.20
  -2  -8 -25   56.23   14.24
  -2  -8 -25   62.04   16.44
   2  -8 -26   26.21    9.01
   2   8 -26   23.98   10.52
  -2   8  26   30.74   12.25
  -2  -8 -26   20.50    8.85
   2   8  26    4.45    6.23
  -2  -8 -26   25.39   13.31
  -2   8 -26   10.52    8.27
   2   8 -26   13.76    9.35
   2   8 -27    6.36    7.11
   2   8  27    5.22    5.61
  -2  -8 -27   -3.30    3.24
   2   8 -27   -6.57    8.08
  -2   8  27   -1.69    4.05
  -2  -8 -27    4.32    5.58
  -2   8 -27    4.61    2.10
   2  -8 -27   -3.08    5.00
  -2  -8 -28    3.84    5.51
   2  -8 -28   -7.43    9.06
   2   8  28    3.61    6.84
  -2  -8 -28    2.09    6.03
  -2   8  28    5.06    8.78
   2   8 -28    5.66    7.58
  -2   8 -28   -1.36    5.71
   2   8 -28    3.00    5.77
  -2   9   0   25.18    7.28
   2   9   0   38.87    9.63
  -2   9   0    9.33    7.59
   2   9   0   29.56    8.48
  -2   9  -1  127.84   18.73
   2   9  -1  127.78   18.30
  -2   9   1  180.10   22.46
   2   9   1  136.26   18.93
  -2   9  -1  149.92   17.05
   2   9  -1  146.61   17.99
   2   9   1  117.30   16.36
  -2   9   1  140.05   17.43
   2   9   2   15.86    7.12
  -2   9  -2    7.07    4.86
   2   9  -2    5.05    3.06
  -2   9   2   12.87    5.63
   2   9   2    5.24    2.52
   2   9  -2   12.63    4.25
  -2   9  -2   17.67    5.76
  -2   9   2   26.99    8.64
  -2   9   3  282.84   25.56
  -2   9  -3  373.52   33.36
   2   9  -3  288.90   28.05
  -2   9   3  339.32   30.76
   2   9   3  305.98   26.60
  -2   9  -3  291.79   25.28
   2   9  -3  219.10   24.10
   2   9   3  321.97   28.14
  -2   9  -4  104.26   17.90
   2   9  -4  103.82   16.94
  -2   9   4   85.69   14.73
   2   9   4   92.43   15.38
   2   9  -4   92.89   16.41
  -2  -9  -4   81.98   13.93
  -2   9  -4   87.48   14.69
   2   9   4   85.15   14.43
  -2   9  -5    5.45    3.92
   2   9  -5    9.62    6.07
   2   9  -5   13.27    5.74
  -2   9   5   10.61    5.94
  -2   9   5   12.84    6.27
   2   9   5    2.91    4.24
   2   9   5   11.55    6.66
  -2  -9  -5    4.57    3.31
  -2   9  -5    9.03    4.40
  -2   9  -6  161.68   19.31
   2   9  -6  190.09   23.28
   2   9  -6  254.76   25.32
   2   9   6  204.07   23.88
  -2   9   6  166.55   21.13
   2   9   6  187.41   21.88
  -2   9  -6  203.02   24.20
  -2  -9  -6  179.11   21.10
  -2   9  -7  808.46   49.60
   2   9  -7  765.93   46.77
   2   9  -7  752.86   44.33
  -2   9   7  694.01   43.17
   2   9   7  904.91   49.17
  -2  -9  -7  727.29   44.07
  -2   9  -7  854.28   44.67
   2   9   8  314.79   29.58
  -2   9   8  299.85   28.40
   2   9   8  415.57   34.40
  -2   9  -8  358.38   34.71
  -2  -9  -8  365.35   31.54
   2   9  -8  278.42   28.20
   2  -9  -8  283.75   26.83
  -2   9  -8  348.23   29.14
   2   9  -8  342.45   30.00
  -2   9  -9   23.96    7.72
  -2   9  -9    8.10    7.37
   2   9  -9   15.40    6.93
  -2  -9  -9   24.66    8.61
   2   9  -9   19.86    6.53
  -2   9   9   31.04   10.47
   2  -9  -9   24.41    7.90
   2   9   9   47.75   10.91
   2   9 -10  221.07   25.85
   2   9  10  250.82   28.03
  -2   9 -10  227.63   24.57
  -2  -9 -10  177.10   21.68
  -2   9  10  197.39   24.46
   2  -9 -10  228.59   25.66
  -2   9 -10  269.97   29.43
   2   9 -10  231.22   25.81
  -2   9 -11   72.44   14.19
  -2  -9 -11   58.85   12.85
   2   9 -11   49.90   12.15
   2   9 -11   51.86   12.37
   2   9  11   42.16   12.35
   2  -9 -11   45.09   12.35
  -2   9  11   79.07   15.34
  -2   9 -11   62.27   14.32
  -2   9 -12   -2.22    2.75
  -2   9 -12    3.67    4.04
   2   9 -12   -3.56    5.25
   2   9 -12    5.23    2.26
  -2  -9 -12   -0.52    2.60
  -2  -9 -12    0.91    2.40
   2   9  12    2.26    2.44
  -2   9  12   -0.74    4.30
   2  -9 -12    2.31    7.05
  -2   9 -12    6.23    6.11
  -2   9 -13   73.34   15.74
   2   9  13  121.64   20.61
  -2   9 -13   61.55   13.66
  -2  -9 -13   83.12   15.49
   2  -9 -13  117.39   18.00
   2   9 -13   92.39   17.07
  -2  -9 -13   90.40   17.00
  -2   9 -13   75.76   14.79
  -2   9  13   86.69   16.52
   2   9 -13  112.73   19.42
  -2   9 -14   17.41    6.93
   2   9 -14   20.35    8.99
   2   9 -14   23.97    8.66
  -2   9  14   21.05    7.47
   2   9  14   30.31    8.77
  -2   9 -14   35.94   11.50
  -2  -9 -14   20.45    7.28
  -2   9 -14   11.50    5.40
   2  -9 -14   32.11    9.48
  -2  -9 -14   23.68    7.84
  -2   9 -15   40.76   11.62
   2   9 -15   62.95   13.15
  -2   9 -15   53.15   12.18
   2   9 -15  103.12   18.32
  -2   9  15   78.25   17.09
  -2   9 -15   81.70   16.20
  -2  -9 -15   62.54   14.86
   2   9  15   58.53   15.34
  -2  -9 -15  108.16   19.33
   2  -9 -15   80.94   16.04
   2   9  16   39.06   11.82
   2   9 -16   24.78    8.95
  -2   9 -16   32.23   10.76
  -2  -9 -16   29.77    9.96
   2   9 -16   37.30   11.76
  -2   9 -16   23.21    8.28
  -2   9  16   34.56   12.34
  -2  -9 -16   44.25   13.38
  -2   9 -16   33.57   11.92
   2  -9 -16   40.03   11.54
   2  -9 -17  111.89   19.38
  -2   9  17  178.69   26.44
   2   9 -17   72.82   17.79
   2   9  17  112.88   19.75
  -2   9 -17  127.57   21.07
  -2  -9 -17  142.00   22.19
  -2   9 -17  146.81   23.01
  -2  -9 -17  139.90   21.96
   2   9 -17  146.73   22.15
   2   9 -17  163.45   23.79
  -2   9 -17  120.85   20.88
   2   9 -18    9.29    1.63
  -2   9 -18    6.43    8.88
   2   9 -18   12.52    6.59
  -2   9 -18    9.22    5.24
  -2   9 -18   11.83    6.51
   2   9  18   12.21    8.96
  -2  -9 -18    9.49    3.52
  -2  -9 -18    7.77    4.74
  -2   9  18    3.75    0.72
   2   9 -18   11.50    7.25
   2  -9 -18   10.14    5.49
   2   9 -19   12.03    6.87
  -2   9 -19   11.35    5.49
   2   9 -19   16.04    9.24
  -2   9  19   29.56   11.70
   2   9  19   15.73    9.88
  -2  -9 -19   25.49   10.38
   2  -9 -19   11.27    8.13
  -2   9 -19    5.44    6.55
  -2   9 -19   32.48   10.80
  -2  -9 -19   13.73    7.68
   2   9 -19   10.69    6.39
  -2   9 -20    8.39    9.72
  -2   9  20    3.76    6.42
   2   9  20    5.37    6.01
  -2  -9 -20    0.72    4.73
  -2   9 -20    2.68    5.42
  -2   9 -20    1.96    6.34
  -2  -9 -20    3.24    5.09
   2   9 -20    7.22    6.61
   2   9 -20   -0.79    5.09
   2  -9 -20    3.48    5.62
   2   9 -20    5.57    7.53
  -2   9 -21   11.17    8.23
  -2   9 -21   51.58   17.69
  -2  -9 -21   27.43    7.87
  -2   9  21   18.83   10.72
   2   9  21   16.47    6.74
  -2   9 -21   32.23   11.87
  -2  -9 -21   29.18   10.60
   2  -9 -21   22.39    9.61
   2   9 -21   18.76    8.71
   2   9 -21   28.98   10.40
   2   9 -21   20.65    9.41
  -2   9  22   41.89   14.21
   2   9  22   18.63    9.14
  -2   9 -22   42.93   14.19
  -2  -9 -22   16.55    6.59
  -2  -9 -22   10.82    4.75
  -2   9 -22   23.76    9.97
   2   9 -22   42.47   12.75
   2   9 -22   22.19    7.82
   2  -9 -22   41.04   13.69
   2   9  23    6.49    5.42
   2  -9 -23    4.97    2.89
   2   9 -23    0.53    4.23
  -2   9 -23   11.86    8.14
   2   9 -23    7.23    6.28
  -2  -9 -23    5.67    3.33
  -2  -9 -23    7.90    5.66
  -2   9  23   11.01    7.54
   2   9  24    2.30    7.87
  -2  -9 -24   -1.03    4.43
   2  -9 -24    0.56    1.94
  -2   9  24    4.98    6.05
   2   9 -24    2.09    3.93
  -2   9 -24    4.65    6.07
  -2  -9 -24    5.11    5.68
   2   9 -24    1.21    3.04
  -2   9  25   13.52    7.99
   2   9  25   17.59    8.16
  -2  -9 -25    6.82    2.19
   2   9 -25    3.05    7.37
  -2   9 -25    6.28    5.56
  -2  -9 -25   11.28    6.04
   2   9 -25    6.25    3.43
   2  -9 -25    4.14    4.04
   2   9  26    7.78    7.94
  -2  -9 -26    4.04    2.51
  -2   9 -26    5.59    4.50
   2   9 -26   -5.04    6.10
  -2  -9 -26    1.68    1.77
   2   9 -26    6.06    5.41
  -2   9  26    4.52    5.54
   2  -9 -26    5.50    2.28
   2   9 -27    7.27    9.22
  -2   9  27    4.58    5.39
   2   9  27    0.51    4.25
  -2  -9 -27    9.78   10.72
  -2  -9 -27    5.30    5.70
  -2   9 -27   -2.07    4.33
   2   9 -27   -2.82    3.35
   2  -9 -27    8.44    7.57
  -2  10   0   42.32   13.02
   2  10   0   45.54   12.24
  -2  10   0   54.61   10.41
   2  10   0   59.27   12.28
   2  10   1    9.43    5.17
   2  10  -1    4.89    4.99
  -2  10   1   10.24    5.71
  -2  10  -1    5.07    4.15
   2  10  -1    6.31    6.27
  -2  10   1    1.80    3.09
   2  10   1    1.29    2.50
  -2  10  -1    4.92    3.65
  -2  10  -2    7.00    6.53
   2  10   2    0.34    3.81
   2  10  -2    0.43    3.41
  -2  10   2    3.21    5.07
   2  10   2   -0.23    0.94
   2  10  -2    1.75    3.66
  -2  10  -2   -0.22    2.80
  -2  10   2   -1.26    3.03
  -2  10  -3    0.68    5.70
   2  10  -3    2.02    3.71
   2  10   3    3.83    3.36
  -2  10   3    3.53    2.32
   2  10   3    0.19    0.97
  -2  10  -3    2.81    1.38
   2  10  -3    3.54    4.89
  -2  10   3    4.97    4.02
   2  10   4   64.33   12.96
  -2  10  -4   51.57   11.97
  -2  10  -4   44.40   11.72
   2  10  -4   37.96   10.33
   2  10  -4   60.49   13.04
  -2  10   4   29.92    9.66
   2  10   4   46.94   11.37
  -2  10   4   43.45   10.13
  -2  10  -5    7.12    4.71
   2  10   5   24.74    8.52
  -2  10   5   25.34    7.94
  -2  10  -5   20.50    8.12
   2  10  -5    6.04    4.66
   2  10  -5    3.68    4.14
  -2  10   5   12.88    6.60
   2  10   5   12.27    4.96
  -2 -10  -5   10.98    4.22
  -2  10  -6   92.33   15.12
   2  10  -6   71.56   15.59
   2  10  -6   72.42   13.30
  -2  10   6   68.12   13.63
   2  10   6   72.67   13.73
  -2 -10  -6   46.46   11.19
  -2  10   6   70.88   12.77
   2  10   6   52.31   12.23
  -2  10  -6   68.02   15.81
  -2  10  -7   -3.51    4.79
  -2  10   7    3.28    4.59
  -2 -10  -7   -2.89    4.28
   2  10   7    2.15    4.72
   2  10   7   -1.62    3.59
  -2  10  -7   -4.10    3.17
   2  10  -7   -1.15    1.63
   2  10  -7   -0.54    3.70
  -2 -10  -8   -3.41    6.32
   2  10  -8   19.09    7.30
   2  10   8    3.22    2.88
  -2  10   8   11.48    5.55
  -2  10  -8    8.16    3.10
  -2  10  -8    1.56    2.52
   2  10  -8   11.79    7.42
   2  10   8   -0.71    4.79
  -2  10  -9   -0.43    2.79
   2  10  -9   -0.68    5.40
  -2  10  -9    2.94    4.01
   2  10   9    1.86    3.77
   2  10  -9    1.52    2.60
  -2  10   9   -3.43    2.48
   2  10   9    0.12    3.88
  -2 -10  -9    1.55    2.58
  -2  10 -10    3.46    0.92
   2  10 -10    9.19    7.81
  -2  10  10    0.35    4.74
  -2  10 -10   -3.05    1.79
   2  10  10    2.51    4.88
  -2 -10 -10    6.39    6.86
   2  10 -10    0.37    4.22
   2  10  10    2.10    4.83
   2 -10 -10   -2.12    3.24
   2  10 -11   44.57   12.22
  -2 -10 -11   53.39   12.49
   2  10 -11   50.09   12.26
  -2  10  11   59.14   14.04
  -2  10 -11   33.80    9.79
  -2  10 -11   67.45   15.02
   2 -10 -11   25.23    8.16
   2  10  11   56.33   13.76
  -2  10 -12   21.97    9.61
   2  10 -12   42.96   10.48
   2  10  12   39.06   11.60
  -2  10 -12   31.07   10.50
   2  10 -12   46.25   12.94
  -2 -10 -12   39.51    9.94
  -2  10  12   23.06    9.14
   2 -10 -12   53.12   13.52
  -2  10 -13   -1.79    5.27
   2  10 -13    5.71    4.43
  -2  10 -13    2.56    3.42
   2  10 -13    2.25    1.72
  -2 -10 -13   -3.55    1.40
  -2  10  13    2.53    3.92
   2  10  13    8.56    6.46
   2 -10 -13    4.58    1.61
  -2  10 -14    7.69    3.55
  -2  10 -14    6.30    4.72
   2  10 -14   11.84    2.83
  -2 -10 -14   22.27    8.26
  -2  10  14   14.85    5.64
   2  10 -14   15.71    7.20
   2 -10 -14   16.67    6.52
   2  10  14   20.34    9.36
   2  10 -15   24.68    6.64
  -2  10 -15   13.29    9.75
   2  10 -15   22.39   10.13
   2  10  15   18.46    9.92
  -2 -10 -15   21.54    8.36
  -2 -10 -15   19.88    8.17
  -2  10 -15   17.46    8.96
   2 -10 -15   29.08    9.44
  -2  10  15   15.68    7.76
  -2  10 -16    7.40    7.37
   2  10 -16    5.05    4.91
   2  10 -16    0.88    1.66
  -2  10 -16    6.68    4.81
   2 -10 -16   22.48   10.47
  -2 -10 -16    3.57    2.81
   2  10  16   14.38    5.98
  -2 -10 -16   10.80    6.54
  -2  10  16   16.49    8.05
   2  10 -17    4.36    6.32
   2  10 -17   -0.92    3.14
  -2  10 -17   -1.40    0.78
   2  10  17    3.97    6.03
  -2  10  17   -2.33    4.09
  -2 -10 -17    5.63    4.94
  -2 -10 -17   -4.34    2.02
   2 -10 -17   -1.80    2.87
   2  10 -17    3.56    6.43
  -2  10 -17   -0.66    2.88
  -2  10 -18   28.55   10.45
   2  10 -18   16.01    6.40
  -2  10  18   26.95   10.73
   2 -10 -18   18.96    6.41
   2  10 -18   22.21    8.23
   2  10  18   21.78    9.12
  -2  10 -18    4.48    8.60
  -2 -10 -18   32.84   11.30
  -2 -10 -18   17.31   10.16
   2  10 -18   25.66   10.97
   2  10 -19   11.04    7.42
  -2 -10 -19   11.38    5.74
  -2  10  19   11.73    6.00
  -2  10 -19   11.72    7.43
   2  10  19   22.38    9.63
   2  10 -19   10.14    6.55
  -2 -10 -19   12.50    7.78
   2 -10 -19   11.28    7.95
   2  10 -19    2.86    3.78
   2  10 -20   10.09   10.66
  -2  10 -20    0.28    3.24
  -2  10  20   10.62    7.26
   2  10  20   11.65    6.37
  -2 -10 -20    2.51    6.20
   2  10 -20    0.87    5.55
  -2 -10 -20    4.31    6.13
   2 -10 -20   -0.52    1.93
   2  10 -20   -1.99    5.88
   2  10 -21   13.77    8.46
  -2  10 -21   19.12   11.60
  -2 -10 -21   11.14    6.79
   2  10  21    5.92    4.14
  -2  10  21    1.15    4.06
  -2 -10 -21   17.20    8.85
   2 -10 -21    6.76    4.11
   2  10 -21   14.91    8.19
   2  10 -21    8.36    6.29
   2  10 -22   44.45   13.73
  -2 -10 -22   56.75   16.02
  -2  10 -22    9.59    4.17
  -2  10  22   57.83   16.18
   2  10  22   43.07   13.97
  -2 -10 -22   46.56   13.32
   2 -10 -22   36.77   11.38
   2  10 -22   15.68    8.89
   2  10 -22   40.94   12.40
   2  10 -23    7.91    5.94
  -2 -10 -23   20.27    9.86
   2  10  23   10.61    6.59
   2  10 -23   13.29    7.59
  -2  10  23    8.01    5.82
  -2 -10 -23    6.14    8.54
   2 -10 -23   11.17    3.28
  -2  10 -23   24.96   13.50
  -2  10  24    9.93    7.04
   2  10  24    4.46    1.41
  -2 -10 -24   10.49    9.18
  -2 -10 -24   -2.63    2.15
   2  10 -24    5.65    3.87
   2 -10 -24   10.00    7.10
   2  10 -24    3.68    2.87
   2  10  25   -6.20    6.75
  -2  10  25   -2.16    6.09
  -2 -10 -25   -1.75    4.26
   2  10 -25    1.24    2.78
  -2 -10 -25   -1.14    6.82
   2 -10 -25   -2.48    5.34
   2  10 -25   -1.28    2.37
  -2  11   0  148.92   23.63
   2  11   0  170.09   23.50
   2  11   0  156.22   20.63
  -2  11   0  166.13   20.45
   2  11  -1   13.38    6.04
  -2  11   1    8.84    3.95
  -2  11  -1   10.36    5.44
  -2  11   1   21.17    8.97
   2  11   1   12.15    5.17
   2  11   1    8.92    5.73
  -2  11  -1    9.36    5.16
   2  11  -1   12.52    6.06
   2  11   2    6.01    4.53
  -2  11  -2    4.19    6.70
   2  11  -2   -3.53    3.64
  -2  11   2   -4.83    7.42
  -2  11  -2    3.99    4.84
  -2  11   2    2.08    3.37
   2  11   2    8.19    5.84
   2  11  -2    2.30    5.47
  -2  11   3    4.16    4.19
   2  11  -3    0.06    0.79
  -2  11  -3    4.55    5.19
   2  11   3   -2.55    2.08
  -2  11   3    3.55    5.27
  -2  11  -3    2.09    1.51
   2  11   3    2.31    1.62
   2  11  -3    7.18    5.17
   2  11  -4  333.90   33.33
  -2  11   4  247.51   29.40
  -2  11  -4  375.42   33.35
   2  11  -4  407.59   37.21
   2  11   4  312.39   30.52
  -2  11  -4  269.80   30.49
   2  11   4  332.08   32.32
  -2  11   4  237.56   27.87
  -2  11  -5   10.31    5.46
   2  11  -5    6.76    0.85
  -2  11  -5   13.81    7.70
   2  11  -5    9.02    6.08
  -2  11   5    6.04    5.40
  -2  11   5    2.84    2.22
   2  11   5    1.71    0.85
   2  11   5   15.65    5.08
  -2  11  -6   90.87   15.23
  -2 -11  -6   55.87   14.29
   2  11  -6   75.46   14.86
  -2  11   6   80.64   16.06
  -2  11  -6   45.22   10.88
   2  11  -6   57.28   13.61
   2  11   6   48.63   12.79
  -2  11   6   65.57   12.84
   2  11   6   99.82   18.65
  -2  11  -7  114.00   20.07
   2  11  -7   88.36   16.86
   2  11  -7  149.74   20.57
  -2  11   7   95.08   17.30
   2  11   7  107.44   18.07
   2  11   7   95.90   17.30
  -2 -11  -7  165.46   22.66
  -2  11   7  150.41   21.02
  -2  11  -7   83.98   15.79
   2  11  -8    2.23    5.50
  -2  11   8    7.56    5.91
   2  11   8   12.86    6.91
  -2 -11  -8    7.34    3.22
  -2  11   8    1.98    1.90
   2  11   8    5.65    4.64
  -2  11  -8    6.32    5.18
  -2  11  -8    5.22    3.57
   2  11  -8   13.93    8.50
   2  11   9   35.34   11.39
   2  11  -9   38.02   12.71
   2  11   9   22.73    8.34
  -2  11   9   29.77   10.13
  -2 -11  -9   17.64    7.74
   2  11  -9   19.86    6.83
  -2  11  -9   27.27   10.37
  -2  11  -9   30.47   11.41
  -2  11  10  175.72   24.09
   2  11  10  175.36   22.90
   2  11  10  135.81   21.06
   2  11 -10  211.19   28.35
  -2  11 -10  110.84   19.25
   2  11 -10  167.13   22.63
  -2  11 -10  177.09   25.23
  -2 -11 -10  182.35   25.16
   2  11 -11    1.14    3.54
   2  11 -11    2.93    3.30
   2  11  11    5.63    3.00
  -2  11 -11    4.59    6.33
   2  11  11    2.60    2.79
  -2 -11 -11   -5.18    3.82
  -2  11  11   -0.42    1.06
  -2  11 -11    5.06    6.29
   2  11 -12   32.05    9.48
   2  11 -12   26.53   10.07
  -2  11  12   11.70    5.70
   2 -11 -12   42.09   11.98
  -2 -11 -12   44.12   10.97
   2  11  12   46.06   11.38
   2  11  12   33.19   10.43
  -2  11 -12   40.94   13.47
  -2  11 -12   20.77    8.46
  -2  11 -13    7.43    2.92
   2  11  13   11.19    6.35
  -2  11 -13    6.12    6.80
   2 -11 -13   19.24    7.88
   2  11 -13   19.48    8.69
  -2  11  13   17.20    6.75
  -2 -11 -13   16.06    7.19
   2  11 -14   52.89   13.85
   2  11  14   53.28   14.20
  -2  11 -14   84.66   16.22
   2  11 -14   51.58   12.97
  -2  11  14   56.52   12.77
   2 -11 -14   94.34   17.59
  -2 -11 -14   51.65   13.53
   2  11  15    0.92    3.76
  -2  11 -15    4.66    5.68
   2  11 -15    9.52    2.34
  -2 -11 -15    7.33    6.83
  -2  11  15   -3.22    6.08
   2  11 -15   10.17    7.48
   2 -11 -15   15.15    6.69
   2  11 -16   11.11    6.70
  -2  11 -16   11.53    6.00
   2  11  16   13.63    7.13
   2  11 -16   17.51    7.26
  -2  11  16   12.36    6.81
  -2 -11 -16   16.19    7.89
   2 -11 -16   20.27    9.44
   2  11 -16   14.76   10.61
   2  11 -17   -4.09    6.81
   2 -11 -17    0.05    4.09
   2  11 -17    4.98    7.30
   2  11  17   -1.54    6.39
  -2 -11 -17   -1.69    3.07
  -2  11  17    1.57    2.32
   2  11 -17    1.92    0.98
  -2  11 -17    7.68    5.85
   2  11 -18   29.07   11.42
   2  11 -18    9.92    7.06
  -2 -11 -18   21.01    9.14
  -2  11 -18   12.95    7.64
  -2  11  18    5.96    5.15
   2  11  18   10.81    6.40
   2 -11 -18   12.49    3.32
   2  11 -18    5.30    4.03
  -2  11  19    2.59    6.45
  -2  11 -19   -1.53    3.91
   2  11 -19    1.12    4.34
   2  11 -19   -2.24    1.64
  -2 -11 -19    1.26    1.19
   2 -11 -19    3.36    5.79
   2  11  19    2.46    3.50
   2  11 -19    1.69    8.21
   2  11 -20    7.66    9.41
   2  11 -20    4.02    5.86
  -2  11 -20    3.81    7.11
  -2  11  20    1.10    3.40
   2  11  20    6.39    4.41
  -2 -11 -20   -1.86    4.45
   2 -11 -20    5.32    3.50
   2  11 -20    3.14    1.97
   2  11 -21    0.26    2.10
   2  11  21   15.05    9.07
  -2  11 -21   -2.72    9.94
  -2 -11 -21    9.28    6.53
  -2  11  21   12.19    7.51
   2  11 -21    4.48    4.43
   2 -11 -21    6.72    6.88
   2  11 -21   -1.38    6.32
   2  11 -22    2.90    3.11
  -2  11 -22    2.39    6.72
  -2  11  22    6.58    6.46
   2  11  22    1.84    7.00
  -2 -11 -22   -5.15    3.27
   2 -11 -22   -0.63    3.62
   2  11 -22    4.11    5.41
   2  11 -22    3.89    1.88
  -2 -11 -23    7.64    5.42
   2  11 -23   10.08    9.18
  -2  11  23   11.66    9.47
   2  11  23    8.20    7.31
  -2  11 -23    6.37    8.76
   2 -11 -23   10.95    5.83
   2  11 -23   14.47    9.59
   2  11 -23    2.05    2.44
   2  11 -24   11.01    7.44
  -2 -11 -24    6.44    5.90
  -2  11  24    1.85    1.56
   2  11  24   10.71   10.16
   2 -11 -24   19.23    9.00
   2  11 -24    3.49    5.59
  -2  12   0   31.76    9.11
   2  12   0   36.08   13.08
   2  12   0   19.92    5.99
  -2  12   0   16.30    7.82
  -2  12  -1    7.71    4.41
   2  12  -1   17.63    7.83
   2  12  -1   11.47    6.95
  -2  12   1    5.19    2.70
   2  12   1   10.84    6.16
  -2  12  -1    4.28    3.64
   2  12   1   13.56    6.38
  -2  12   1   23.04    7.42
   2  12   2   10.61    6.91
  -2  12   2   10.83    6.75
  -2  12  -2    6.19    1.66
  -2  12   2   17.93   10.25
   2  12   2   -0.56    1.82
  -2  12  -2   12.19    6.29
   2  12  -2    8.91    6.54
   2  12  -2   12.56    6.54
   2  12   3   10.40    6.63
  -2  12  -3    7.95    3.77
   2  12  -3   16.79    7.20
  -2  12   3   16.46    8.25
   2  12   3   32.80   11.17
  -2  12   3    6.35    3.84
   2  12  -3   25.28   10.62
  -2  12  -4    4.83    4.02
  -2  12  -4   13.49    7.87
   2  12  -4    7.16    6.91
   2  12   4   10.75    6.21
   2  12   4    7.06    4.24
   2  12  -4    8.06    5.32
  -2  12   4    4.78    5.32
   2  12   5    0.16    3.26
   2  12  -5    3.08    3.22
  -2  12   5   -1.26    4.63
   2  12   5    2.12    3.89
   2  12  -5    2.25    1.94
  -2  12   5    6.43    4.11
  -2  12  -5    5.47    5.31
   2  12  -6   -4.06    6.51
  -2  12   6    4.09    5.08
  -2  12  -6    3.35    5.31
  -2  12   6   -4.22    5.68
   2  12   6    7.01    5.44
   2  12   6    4.20    6.44
   2  12  -6    2.43    4.42
  -2  12  -6   -0.02    3.25
  -2  12  -7   -1.71    4.02
   2  12  -7    5.41    7.98
  -2  12   7   -1.48    2.25
   2  12   7    0.75    3.42
  -2  12   7    1.84    4.12
  -2  12  -7    0.79    2.83
   2  12  -7    9.52    6.51
   2  12   7    3.08    4.98
  -2  12   8    3.41    1.77
   2  12   8    4.20    6.03
  -2  12  -8    9.82    7.41
   2  12  -8    5.13    5.11
  -2  12  -8    6.42    4.89
  -2  12   8    2.54    1.29
   2  12   8   -0.46    5.40
   2  12  -8    4.02    3.69
  -2  12  -9    8.27    6.07
  -2  12   9    9.46    5.09
   2  12   9    8.81    5.98
   2  12  -9   19.79    8.69
  -2  12   9   -3.20    1.19
  -2  12  -9   16.74    9.18
   2  12   9   17.04    9.45
   2  12  -9   10.36    6.55
  -2  12  10    7.59    8.47
  -2  12 -10    5.99    5.01
   2  12 -10    4.91    4.28
   2  12  10    3.68    5.79
  -2  12  10    2.89    3.95
   2  12  10   -3.39    1.17
  -2  12 -10    1.48    6.31
   2  12 -10   -0.21    2.95
  -2  12 -11   12.51    7.74
   2  12 -11    8.50    6.19
   2  12  11   11.98    6.03
   2  12  11   15.65    8.47
  -2  12  11    8.46    7.15
   2  12 -11    3.31    2.64
  -2  12 -12    0.36    5.39
   2  12 -12    3.77    4.03
  -2  12  12    4.02    4.36
   2  12  12    2.07    0.80
   2  12 -12   10.32    8.04
   2  12  12    5.21    3.78
  -2  12 -13   -1.42    4.46
   2  12 -13   -0.02    6.19
  -2  12  13    2.41    2.51
   2  12 -13   -2.64    2.93
   2  12  13   -2.68    5.35
   2  12  13   -1.61    2.09
  -2  12 -14    2.00    2.42
   2  12 -14    5.47    8.27
   2  12 -14    8.37    1.97
   2  12  14    1.56    2.69
  -2  12  14    1.86    4.38
   2  12  14    7.65    6.19
  -2  12 -15    1.40    5.28
   2  12 -15    0.46    2.11
   2 -12 -15    3.91    6.38
  -2  12  15    6.52    3.63
   2  12 -15   -2.26    3.06
   2  12  15    4.60    4.46
   2  12 -16    1.53    3.18
  -2  12  16   13.81   10.71
  -2  12 -16    0.47    3.59
   2  12 -16    3.31    1.22
   2 -12 -16   -1.42    3.38
   2  12 -16    6.22    5.80
   2  12  16    3.77    2.17
   2  12 -17    1.65    2.02
   2  12 -17    2.17    2.64
   2 -12 -17    4.58    5.22
  -2  12  17   -0.57    6.23
  -2  12 -17   -0.49    2.27
   2  12 -17   -3.08    5.09
   2  12  17    3.53    3.28
   2  12 -18   -0.15    5.35
  -2  12 -18    6.92    8.47
   2  12 -18    0.63    6.29
   2  12 -18   -2.39    6.35
   2  12  18   -0.66    0.32
  -2  12  18    7.29    5.18
   2 -12 -18    8.51    4.54
   2  12 -19    7.54    4.15
   2  12 -19    1.10    6.36
  -2  12  19    5.17    4.46
   2  12  19    5.86    2.03
   2 -12 -19   24.24   10.79
  -2  12 -19    9.64    2.09
   2  12 -19    9.82   10.14
   2  12 -20   -3.05    5.40
   2  12 -20   -4.88    7.43
  -2  12  20   -3.63    5.42
  -2  12 -20   -6.69    9.73
   2  12  20   12.01    8.73
   2 -12 -20    2.10    1.74
   2  12 -20    4.64    6.14
   2  12 -21    3.86    4.32
   2  12 -21   -1.27    6.44
   2  12  21    1.08    0.35
  -2  12  21    2.33    2.97
   2  12 -21    9.00    7.27
   2 -12 -21    1.93    2.98
   2  12 -22    7.14    8.39
   2 -12 -22    3.60    5.41
   2  12  22   -4.81    6.70
  -2  12 -22    6.79    7.92
   2  12 -22   -1.24    3.64
  -2 -12 -22    4.85    6.20
  -2  12  22    1.29    1.42
   2  12 -22   -3.70    4.06
  -2  13   0  103.58   20.04
   2  13   0  124.26   20.22
  -2  13   0   98.69   17.81
   2  13   0   78.09   17.66
  -2  13  -1   43.24   12.58
  -2  13  -1   49.73   12.06
   2  13  -1   33.59   11.59
   2  13   1   50.72   14.53
   2  13  -1   36.09   11.75
  -2  13   1   26.04   10.29
   2  13   1   49.12   12.16
  -2  13   1   40.47   10.70
  -2  13  -2    0.34    2.32
   2  13  -2    5.61    8.27
  -2  13   2    3.10    6.28
   2  13   2    2.15    4.03
  -2  13  -2    3.93    3.86
   2  13  -2   -2.70    3.86
  -2  13   2    2.48    4.75
   2  13   2   10.01    6.57
  -2  13   3    2.46    0.62
  -2  13  -3   10.24    7.23
  -2  13  -3    1.39    2.00
   2  13  -3    8.86    4.78
   2  13  -3    3.11    4.16
  -2  13   3   11.03    3.17
   2  13   3   -4.13    6.22
   2  13   3    0.11    1.39
  -2  13  -4   12.54    6.23
   2  13   4    6.23    5.70
   2  13  -4   13.61    5.63
  -2  13  -4   10.16    6.59
  -2  13   4    4.07    3.45
   2  13   4   15.57    8.12
   2  13  -4   13.12    7.67
   2  13  -5   10.50    7.51
  -2  13  -5   -1.34    0.61
  -2  13   5    0.60    3.01
   2  13   5   -1.50    2.75
   2  13   5    2.98    4.66
   2  13  -5    5.09    3.83
  -2  13   5   -0.81    4.78
  -2  13  -5   12.04    9.73
   2  13  -6   13.52    8.13
  -2  13  -6   16.81    8.86
   2  13  -6    7.93    7.99
  -2  13   6   29.29   11.46
   2  13   6   -1.21    2.68
   2  13   6   18.41    7.70
  -2  13   6    4.30    2.12
  -2  13  -6   -8.79    5.28
  -2  13   7   56.12   13.26
   2  13  -7   43.01   12.53
  -2  13  -7   24.30    6.28
  -2  13   7   52.74   14.92
   2  13   7   52.24   12.61
   2  13  -7   46.94   12.56
   2  13   7   60.96   14.54
  -2  13  -8    4.13    5.73
   2  13  -8   -5.33    2.53
  -2  13   8    7.76    2.33
  -2  13   8    6.90    7.21
   2  13   8    0.45    1.52
   2  13  -8    6.27    6.88
   2  13   8    2.59    6.36
   2  13   9   18.03    9.79
  -2  13  -9   48.40   13.36
   2  13  -9   13.05    5.95
  -2  13   9   17.43    8.69
   2  13   9   24.45    9.09
  -2  13   9   11.20    8.93
   2  13  -9   12.24    8.05
  -2  13  10    4.20    3.76
  -2  13 -10   10.44    8.08
   2  13 -10    8.80    5.49
   2  13  10   15.10    8.21
  -2  13  10   17.21    7.26
   2  13  10   23.69    9.98
   2  13 -10    1.77    0.84
  -2  13  11    4.37    3.87
   2  13 -11   26.37   11.45
  -2  13  11   32.17   11.92
   2  13  11   16.48    7.76
   2  13 -11   37.57   12.80
   2  13  11   19.95    7.12
  -2  13 -11   28.83   11.03
   2  13 -12    9.73    8.31
  -2  13 -12   10.69    6.91
   2  13 -12   14.26    8.01
  -2  13  12   21.39    9.77
  -2  13  12    9.05    5.48
   2  13  12    8.42    4.78
   2  13  12   11.15    6.87
   2  13 -13   -6.83    6.95
  -2  13 -13   -1.29    3.78
  -2  13  13    5.85    8.43
   2  13 -13    2.60    3.93
  -2  13  13    7.83    6.06
   2  13  13   -2.54    3.99
   2  13  13    9.47    8.63
  -2  13 -14   -1.48    1.02
   2  13 -14    0.91    3.48
   2  13  14    0.60    3.15
  -2  13  14   -1.22    4.53
   2  13 -14    1.68    2.07
   2  13  14    2.11    1.33
  -2  13 -15    5.46    3.43
   2  13 -15   12.59    7.47
   2  13 -15   17.03    9.66
  -2  13  15   19.34    9.38
   2  13  15   17.32    9.06
   2  13  15   24.79    9.01
  -2  13 -16   -4.52    4.30
   2  13 -16    0.91    5.86
   2  13 -16   -2.87    2.17
   2  13  16    2.97    5.51
   2  13  16   -2.58    2.92
  -2  13  16   -4.49    5.13
   2  13 -17    7.63    4.21
  -2  13 -17    4.49    5.45
   2  13 -17   17.71    9.37
   2  13  17   11.86    7.17
  -2  13  17    1.26    2.50
   2  13  17   10.12    4.49
   2  13 -18   -0.44    2.98
  -2  13 -18   -4.60    5.63
   2  13 -18    2.71    1.59
   2  13  18    0.99    1.62
  -2  13  18   -1.41    4.56
   2  13  18    0.89    2.90
   2  13 -19   -3.79    4.02
  -2  13 -19   -7.68    8.47
   2  13 -19   -1.06    1.80
   2  13  19    0.65    4.02
  -2  13  19    3.73    4.41
   2 -13 -19    3.31    3.51
   2  14   0   24.44    8.69
  -2  14   0   18.03    8.06
   2  14   0   25.91    9.71
  -2  14  -1    0.05    5.53
   2  14  -1    1.90    3.75
   2  14   1   -1.10    3.88
  -2  14   1    1.93    4.97
   2  14   1    3.71    6.84
  -2  14  -1  -11.25    6.43
   2  14  -1    3.98    1.69
  -2  14   1    4.30    5.41
  -2  14  -2   -3.34    4.58
   2  14  -2    9.32    7.98
  -2  14   2    3.45    9.25
   2  14   2   -0.75    3.71
   2  14  -2   -2.26    3.10
   2  14   2    0.93    2.67
  -2  14   2    0.45    3.29
  -2  14  -3   22.64   10.85
   2  14  -3    9.91    6.41
   2  14  -3   11.44    8.96
  -2  14   3   24.16   10.61
   2  14   3   10.46    6.95
   2  14   3    4.56    3.04
  -2  14   3    3.92    5.37
  -2  14  -4    4.57    3.68
   2  14  -4   11.53    6.21
   2  14  -4   17.24   10.37
   2  14   4    4.73    4.40
  -2  14   4   14.89    7.56
   2  14   4    3.86    4.58
  -2  14   4    7.53    6.06
  -2  14  -5    0.78    2.53
   2  14  -5   -0.22    4.83
   2  14   5   -1.54    2.93
   2  14  -5   -2.85    5.85
  -2  14   5    2.32    4.12
  -2  14   5   -1.74    2.74
   2  14   5   -0.47    5.53
   2  14  -6    7.39    7.83
   2  14  -6    0.35    3.10
  -2  14  -6    1.69    5.80
   2  14   6   -1.35    2.99
  -2  14   6    8.98    5.42
   2  14   6    8.28    7.42
  -2  14   6    6.80    6.82
  -2  14  -7   11.72    6.38
   2  14  -7   14.47    6.80
  -2  14   7   14.14   10.24
   2  14   7    2.32    1.96
   2  14   7    7.89    4.15
  -2  14   7   17.83   11.22
   2  14  -7    6.23    6.08
   2  14  -8    4.41    3.53
  -2  14  -8    5.81    5.18
   2  14  -8    1.53    1.53
  -2  14   8    2.40    2.77
   2  14   8    1.30    1.83
   2  14   8    7.24    5.29
  -2  14   8   -0.72    2.39
  -2  14   9   -1.15    3.70
  -2  14  -9   10.41    7.87
  -2  14   9   -4.49    4.05
   2  14   9    2.31    6.37
   2  14  -9    7.38    7.17
   2  14  -9   -2.02    4.89
   2  14   9   -3.40    3.77
  -2  14 -10   -2.69    3.21
   2  14 -10    6.80    5.37
  -2  14  10   -1.32    4.41
  -2  14  10   -0.58    2.51
   2  14  10    6.01    5.56
   2  14 -10    0.95    2.48
   2  14  10    1.10    6.36
  -2  14 -11   -2.52    2.72
   2  14 -11   -0.16    3.38
   2  14  11   -1.18    7.78
   2  14 -11    2.49    0.81
  -2  14  11   -4.96    6.56
   2  14  11   -3.41    3.19
  -2  14 -12   -0.03    5.05
   2  14 -12    0.87    7.98
   2  14  12   -4.28    3.46
   2  14 -12   -0.43    4.46
  -2  14  12    0.37    5.12
   2  14  12   -4.13    4.95
  -2  14  12   -2.39    1.68
  -2  14 -13   -0.20    1.19
  -2  14  13    0.42    4.17
  -2  14  13    2.42    3.72
   2  14 -13   -0.92    4.71
   2  14  13    6.19    7.05
   2  14  13    2.77    6.21
   2  14 -13   14.91    9.29
  -2  14 -14    7.85    6.13
   2  14 -14   15.21   10.93
   2  14 -14    7.61    6.18
  -2  14  14    6.13    7.58
  -2  14  14   -1.95    6.87
   2  14  14   -0.98    2.09
   2  14  14   13.33    8.59
  -2  14 -15   -3.59    5.29
   2  14 -15   -4.86    8.49
  -2  14  15   -0.98    2.26
   2  14  15   -4.27    3.91
   2  14 -15    1.03    2.86
  -2  14  15   -2.08    3.61
   2  14  15   -2.28    4.56
   2  14 -16   -3.87    5.73
   2  14  16    8.34    6.79
   2  14 -16    2.01    7.77
  -2  14  16   -3.18    5.20
  -2  14 -16   -0.86    4.19
  -2  14  16    0.70    0.80
   2  14  16    1.52    3.99
   2  14  17    4.97    5.09
   2  14 -17    2.82    4.13
  -2  14 -17   -0.71    4.01
   2  14 -17   -0.75    2.71
  -2  14  17    0.15    1.78
   2  14  17    3.55    3.65
  -2  15   0    5.03    4.85
   2  15   0   25.63    9.85
   2  15   0   18.49    9.24
  -2  15  -1    1.15    4.02
  -2  15   1    3.18    2.40
   2  15   1   -3.99    6.76
   2  15  -1    5.02    7.11
   2  15  -1   -4.14    7.08
   2  15   1   -1.03    1.77
  -2  15  -2    3.33    6.19
   2  15  -2    0.66    0.68
   2  15   2    2.64    3.33
  -2  15   2    7.27    5.85
   2  15   2    8.84    7.20
   2  15  -2   -4.51    6.37
   2  15  -3   15.67    9.72
  -2  15  -3   14.97    5.41
   2  15  -3    7.83    1.64
  -2  15   3    9.22    6.98
   2  15   3   13.05    7.47
   2  15   3   16.27    7.06
   2  15  -4   20.27    6.78
  -2  15  -4   24.40   13.00
   2  15  -4   32.49   11.29
  -2  15   4   16.58    7.89
   2  15   4    6.86    3.89
  -2  15   5    0.29    6.63
  -2  15  -5    5.99    5.78
   2  15  -5    2.47    3.91
  -2  15   5   -3.08    4.62
   2  15   5    5.52    5.47
   2  15  -5    2.53    4.04
   2  15   5   -4.17    6.47
   2  15   6    6.31    4.59
  -2  15   6   18.87   10.08
  -2  15  -6   10.02    4.61
   2  15  -6   17.72   10.86
   2  15   6   12.99    9.40
   2  15  -6    6.81    3.10
  -2  15   6   16.85   11.78
  -2  15  -7   11.16    7.93
   2  15  -7   15.48    8.31
   2  15   7   13.65    5.96
  -2  15   7    4.92    3.81
  -2  15   7   13.62    8.05
   2  15   7   23.74   10.81
   2  15  -7   29.78   11.47
  -2  15  -8   65.47   16.72
   2  15  -8   34.23   11.72
   2  15   8   35.03   11.14
  -2  15   8   45.39   14.23
   2  15   8   38.25   13.05
  -2  15   8   17.70    8.35
   2  15  -8   31.16   11.86
  -2  15  -9    7.60    6.65
   2  15  -9   -1.05    1.24
   2  15  -9    9.21    5.34
  -2  15   9    6.46    8.00
   2  15   9    1.15    3.75
   2  15   9    7.21    6.03
  -2  15   9    8.74    7.40
  -2  15 -10    5.47    6.19
   2  15 -10   -2.24    1.76
  -2  15  10   -0.69    6.07
   2  15  10    8.84    8.90
   2  15  10    9.10    7.77
   2  15 -10    5.82    1.76
  -2  15  10   -4.14    5.60
  -2  15  11   -2.56    2.33
  -2  15 -11   -3.32    1.63
   2  15 -11    2.35    6.83
  -2  15  11   11.13    7.62
   2  15  11    1.01    5.32
   2  15 -11    7.41    4.13
   2  15  11    6.12    5.81
   2  15 -12   -7.74    8.29
   2  15 -12    1.65    4.06
  -2  15 -12   -2.72    7.89
  -2  15  12    3.72    6.31
  -2  15  12   -1.11    1.21
   2  15  12    1.75    4.62
   2  15  12    4.17    3.95
  -2  15 -13   -5.72    5.87
   2  15 -13   -0.35    4.92
  -2  15  13   -0.48    3.32
   2  15  13    4.63    9.57
   2  15 -13    4.82    4.64
  -2  15  13    3.21    3.86
   2  15  13    2.56    1.70
  -2  16   0   11.08    8.51
   2  16   0    2.47    3.65
   2  16   0    6.00    5.59
  -2  16  -1    3.89    3.81
   2  16  -1   -1.59    3.61
   2  16   1   -4.15    6.19
   2  16  -1    3.45    6.73
   2  16   1    0.97    3.08
   2  16  -2    3.12    6.52
   2  16  -2    7.82    8.94
  -2  16   2    6.20    8.22
   2  16   2   -2.47    5.80
   2  16   2    0.58    2.48
  -2  16  -2    1.47    1.46
   2  16  -3   -1.37    3.85
  -2  16  -3    0.96    3.32
   2  16  -3   -4.93    6.36
  -2  16   3   -3.18    4.63
   2  16   3    0.92    5.01
   2  16   3   -4.28    4.44
   2  16  -4    7.85    6.46
  -2  16  -4   -0.08    3.54
   2  16  -4    2.18    4.30
  -2  16   4    4.97    5.12
   2  16   4    8.65    8.35
   2  16   4   -5.21    6.19
   2  16   5    2.60    2.25
  -2  16  -5   -3.84    5.35
   2  16  -5    0.45    4.78
  -2  16   5    2.84    6.29
   2  16   5   -2.12    3.96
   2  16  -5   -1.11    5.02
  -2  16  -6   -4.07    6.37
   2  16  -6   -2.13    3.93
  -2  16   6    5.24    5.27
   2  16   6   -1.08    3.54
   2  16  -6    3.02    4.16
   2  16   6    3.06    4.34
   2  16   7    7.03    7.27
  -2  16  -7    3.87    6.35
   2  16  -7   -1.05    5.23
  -2  16   7    4.03    2.92
   2  16   7   12.26    6.84
   2  16  -7    0.81    1.82
  -2  16  -8    6.71    6.90
   2  16  -8    2.23    5.84
  -2  16   8    6.60    8.00
   2  16   8    7.56    6.71
   2  16   8    4.16    7.34
   2  16  -8   -1.19    2.70
  -3   0   0    1.65    1.82
   3   0   0    0.58    0.61
   3   0   1   -0.05    0.66
   3   0  -1    2.88    1.54
  -3   0   1   -0.97    2.30
  -3   0  -1   -1.90    1.70
   3   0   2  474.79   15.22
  -3   0  -2  480.47   22.66
  -3   0  -3    0.10    1.35
   3   0  -3    0.72    1.88
   3   0  -4   60.39    7.42
  -3   0  -4   46.48    5.26
  -3   0  -4   49.23    8.04
  -3   0  -5    0.12    2.38
  -3   0  -5    1.29    1.03
   3   0  -5   -0.91    0.36
  -3   0  -6   37.67    6.16
  -3   0  -6   25.65    6.09
   3   0  -6   34.95    6.69
  -3   0  -7   -0.76    1.43
  -3   0  -7    2.66    2.34
   3   0  -7    0.57    1.52
  -3   0  -8    7.41    3.03
  -3   0  -8    3.10    2.37
   3   0  -8    8.42    3.68
  -3   0  -9    1.16    1.68
  -3   0  -9    1.08    4.46
   3   0  -9   -0.26    0.56
   3   0 -10  127.34   15.35
  -3   0 -10  107.71   12.72
  -3   0 -11   -0.55    1.17
  -3   0 -11   -1.75    0.82
  -3   0 -12    9.78    4.56
   3   0 -12   12.91    5.43
  -3   0 -12   13.36    5.35
  -3   0 -13    0.04    0.63
  -3   0 -13   -0.16    0.94
   3   0 -13   -0.51    5.13
  -3   0 -14    6.69    4.30
   3   0 -14    5.50    5.76
  -3   0 -14   -1.85    3.95
   3   0 -14    0.67    1.77
  -3   0 -15    2.63    4.47
  -3   0 -15    1.70    3.50
   3   0 -15    2.64    4.71
   3   0 -15   -1.54    2.01
  -3   0 -16    0.21    1.91
  -3   0 -16   -0.60    2.35
   3   0 -16   -1.77    3.54
   3   0 -16    4.16    3.73
  -3   0 -17    3.67    4.50
  -3   0 -17    4.80    1.76
   3   0 -17    0.36    2.43
   3   0 -17    0.66    1.30
   3   0 -18  418.59   32.65
  -3   0 -18  465.59   36.70
   3   0 -19   -3.89    6.32
  -3   0 -19    2.86    1.94
   3   0 -19    1.23    2.47
  -3   0 -19    2.72    3.47
  -3   0 -20    2.66    4.35
   3   0 -20   -0.87    3.84
   3   0 -20    0.08    3.03
  -3   0 -20    2.73    5.40
  -3   0 -21    4.83    4.37
   3   0 -21    0.55    2.82
  -3   0 -21   -0.94    4.08
   3   0 -21   -0.30    1.12
  -3   0 -22   -3.59    6.22
   3   0 -22   -0.29    3.12
   3   0 -22    1.70    2.09
  -3   0 -22    3.10    2.53
  -3   0 -23   -0.51    3.81
  -3   0 -23    2.02    0.50
   3   0 -23   -0.30    2.14
  -3   0 -24    6.46    6.11
   3   0 -24    0.09    2.23
  -3   0 -24   -1.22    2.62
   3   0 -24   -2.64    4.64
  -3   0 -25   -1.96    3.91
   3   0 -25    0.80    2.92
  -3   0 -25   -3.88    7.00
   3   0 -25   -1.73    1.35
  -3   0 -26   25.19   10.38
   3   0 -26   11.80    5.81
   3   0 -26   13.11    6.84
  -3   0 -26   11.65    8.40
  -3   0 -27   -0.86    3.55
   3   0 -27    4.20    8.31
   3   0 -27   -1.27    4.16
  -3   0 -27    0.41    6.78
  -3   0 -28   -3.72    6.51
   3   0 -28   -6.67    3.92
  -3   0 -28    1.15    4.95
   3   0 -28   -5.72    5.05
   3   0 -29   -5.11    6.53
   3   0 -29   -3.10    4.00
  -3   0 -29   -2.16    5.15
  -3   0 -30   11.30    5.19
   3   0 -30    2.85    5.38
  -3   0 -30    2.26    4.23
   3   0 -30    2.53    4.21
  -3   0 -31   -0.53    4.05
   3   0 -31   -2.01    5.02
  -3   0 -31   -7.22    8.50
   3   0 -31   -5.09    6.35
   3   1   0    0.03    1.17
  -3   1   0    1.93    0.61
  -3  -1   0   -0.66    2.17
  -3   1   0   -0.60    0.44
   3  -1   0    0.25    0.29
  -3   1   1  710.61   24.85
  -3   1   1  678.80   17.57
   3   1  -1  732.85   23.97
   3   1   1  768.73   21.81
   3  -1  -1  545.46   15.62
  -3  -1   1  870.29   31.87
  -3  -1  -1  388.84   22.20
  -3   1  -1  588.61   22.51
  -3   1  -2 1992.60   41.76
  -3   1   2 1519.79   24.86
   3  -1  -2 1476.22   29.68
  -3  -1  -2 1225.27   38.25
   3   1   2 1419.75   33.36
   3   1  -2 1122.98   30.83
  -3  -1  -3 2874.50   60.44
   3  -1  -3 3188.93   49.26
   3   1   3 2877.43   46.53
  -3   1  -3 2493.19   52.54
   3   1  -3 3028.60   57.33
  -3   1  -3 2755.31   52.08
  -3   1  -4    6.68    2.35
   3  -1  -4   19.39    4.46
   3   1  -4   15.74    4.46
  -3   1   4   26.78    3.99
  -3  -1  -4   21.84    5.42
  -3   1  -4   19.44    4.86
  -3   1  -4   18.16    2.77
  -3  -1  -4   12.98    3.76
   3  -1  -5  410.40   20.96
  -3   1  -5  381.01   14.55
  -3  -1  -5  367.70   22.67
  -3   1  -5  411.04   22.49
  -3  -1  -5  377.42   18.64
   3   1  -5  374.21   21.99
   3  -1  -6 1603.58   44.08
  -3   1  -6 1746.07   36.53
  -3  -1  -6 1876.02   52.17
   3   1  -6 1629.61   46.38
  -3   1  -6 1464.96   44.78
  -3  -1  -6 1853.03   44.07
   3  -1  -7  271.76   18.76
  -3  -1  -7  297.25   21.49
  -3   1  -7  233.18   18.30
  -3  -1  -7  239.39   16.83
   3   1  -7  215.33   17.66
  -3   1  -7  256.78   15.61
  -3   1  -8  723.00   33.81
  -3  -1  -8  677.68   30.20
   3   1  -8  628.40   30.65
  -3   1  -8  748.25   30.25
   3  -1  -9  299.28   22.09
  -3  -1  -9  270.16   22.48
   3   1  -9  266.75   20.98
  -3  -1  -9  271.24   19.38
  -3   1  -9  302.02   20.15
   3  -1 -10  658.37   34.43
   3   1 -10  624.38   33.86
  -3  -1 -10  733.11   33.85
  -3   1 -10  547.80   32.55
  -3   1 -10  598.49   28.95
  -3  -1 -10  526.83   31.21
  -3   1 -11    9.01    3.92
  -3  -1 -11    7.00    3.05
   3   1 -11    4.16    3.11
   3  -1 -11   10.51    5.34
  -3  -1 -11    9.31    4.84
  -3   1 -11    3.85    1.69
   3  -1 -12 1129.75   48.57
   3   1 -12 1054.85   47.98
  -3  -1 -12 1219.03   50.76
   3  -1 -12 1179.05   48.76
  -3  -1 -12 1166.85   46.84
  -3   1 -12 1264.51   47.88
   3   1 -13  316.14   26.66
  -3  -1 -13  221.85   21.27
  -3   1 -13  209.17   23.05
   3  -1 -13  256.17   23.87
  -3  -1 -13  332.04   27.18
  -3   1 -13  295.88   23.90
  -3  -1 -14   19.16    7.21
  -3  -1 -14   13.85    5.97
  -3   1 -14    8.43    4.92
   3  -1 -14   13.20    5.54
  -3   1 -14    7.39    2.00
   3   1 -14   17.75    7.73
   3  -1 -14   21.03    7.84
   3  -1 -15  106.50   16.36
   3   1 -15  132.08   18.42
  -3  -1 -15  160.37   20.66
   3   1 -15   77.64   15.44
   3  -1 -15  128.26   16.98
  -3  -1 -15  155.67   19.40
  -3   1 -15  105.90   16.00
  -3   1 -15   88.41   15.47
   3  -1 -16  805.18   46.12
   3   1 -16  637.33   41.08
  -3  -1 -16  626.51   40.70
  -3   1 -16  458.40   37.08
  -3  -1 -16  671.70   41.07
   3  -1 -16  438.85   32.35
   3   1 -16  649.08   41.66
  -3   1 -16  813.93   44.35
   3   1 -17  167.14   21.41
   3  -1 -17  115.18   18.52
  -3  -1 -17  152.64   21.29
  -3   1 -17  145.61   20.62
   3  -1 -17  133.84   17.76
   3   1 -17  156.81   20.71
  -3  -1 -17  139.97   18.78
  -3   1 -17  160.72   19.81
  -3  -1 -18    3.41    3.56
  -3   1 -18    5.95    5.69
   3  -1 -18   -0.83    4.35
  -3   1 -18    1.85    2.97
  -3  -1 -18    2.10    3.51
   3  -1 -18    8.52    5.21
   3   1 -18   11.69    7.12
   3   1 -18    3.43    4.13
  -3  -1 -19   21.27    8.28
  -3  -1 -19   22.07    8.66
  -3   1 -19    7.19    4.46
   3  -1 -19   12.15    7.04
   3   1 -19    5.43    2.29
  -3   1 -19   21.73    9.33
   3  -1 -19   15.51    7.82
   3   1 -19   14.12    5.26
   3  -1 -20  207.16   25.89
   3   1 -20  222.69   27.08
  -3   1 -20  277.78   30.64
  -3  -1 -20  176.67   24.49
   3  -1 -20  215.16   24.84
   3   1 -20  220.39   25.54
  -3  -1 -20  253.63   28.27
  -3   1 -20  204.95   25.49
  -3   1 -21   18.04   10.23
  -3  -1 -21   18.72    7.43
  -3   1 -21   14.51    5.32
   3  -1 -21    7.09    4.95
   3   1 -21   16.43    6.93
  -3  -1 -21    8.56    5.76
   3  -1 -21    9.53    5.68
   3   1 -21    1.92    4.50
   3  -1 -22   79.17   17.54
  -3   1 -22   73.67   16.10
   3   1 -22   56.64   14.41
  -3   1 -22   74.82   17.17
  -3  -1 -22   67.95   15.98
   3   1 -22   73.94   15.01
  -3  -1 -22   77.79   15.88
   3  -1 -22   64.87   13.76
   3   1 -23  115.33   20.22
  -3   1 -23  132.35   22.19
  -3  -1 -23  138.76   21.93
  -3   1 -23  103.16   21.49
   3  -1 -23  113.85   19.52
   3   1 -23  138.43   20.35
  -3  -1 -23  192.03   26.30
   3  -1 -23  158.16   23.83
  -3  -1 -24   53.29   15.24
  -3  -1 -24   32.31   10.30
  -3   1 -24   44.29   13.37
   3  -1 -24   49.32   13.79
   3   1 -24   29.33   11.88
  -3   1 -24   55.58   13.64
   3  -1 -24   22.23    8.54
   3   1 -24   34.89   11.48
  -3  -1 -25    0.42    3.16
  -3   1 -25   -3.20    4.79
   3  -1 -25    3.12    7.49
   3   1 -25    1.80    4.10
   3   1 -25    0.32    4.13
  -3  -1 -25    2.43    4.34
  -3   1 -25    2.48    5.48
   3  -1 -25    0.02    7.24
  -3  -1 -26   45.84   12.10
  -3   1 -26   29.46   10.54
   3  -1 -26   53.53   15.11
   3  -1 -26   82.11   17.77
   3   1 -26   49.98   12.80
   3   1 -26   68.24   15.29
  -3  -1 -26   66.57   15.83
  -3   1 -26   73.84   16.91
   3  -1 -27   21.81   11.36
  -3  -1 -27   20.99    8.08
  -3  -1 -27   18.44    9.67
  -3   1 -27   34.28   12.88
   3  -1 -27    8.06    5.01
  -3   1 -27   21.23    9.39
   3   1 -27   22.41    9.99
   3   1 -27   42.44   12.27
  -3  -1 -28   12.17    8.12
  -3   1 -28    3.56    4.85
   3  -1 -28    5.78    5.43
   3   1 -28   14.94    6.09
  -3  -1 -28    7.66    4.47
  -3   1 -28   12.40    7.69
   3  -1 -28   26.49   13.26
   3   1 -28    9.77    5.94
  -3  -1 -29    7.59    4.83
  -3   1 -29    0.28    4.18
   3  -1 -29    0.91    2.80
  -3  -1 -29    2.86    4.40
   3   1 -29    3.85    7.71
  -3   1 -29    0.11    3.57
   3  -1 -29   -4.50    6.46
   3   1 -29    2.33    3.67
  -3  -1 -30   13.70    8.55
  -3  -1 -30   32.26   10.43
  -3   1 -30   11.59    8.69
   3   1 -30    8.75    7.30
   3  -1 -30   15.07    8.19
   3   1 -30   36.63   13.26
   3  -1 -30   29.03   11.42
  -3   1 -30   30.98   12.98
  -3  -1 -31    9.15    3.98
  -3   1 -31   30.32   12.21
   3  -1 -31   23.57   11.18
   3   1 -31    8.21    6.55
   3   1 -31   28.49   11.99
  -3  -1 -31   30.94   15.20
  -3   1 -31   17.35    9.18
   3  -1 -31   19.28    6.36
  -3   2   0   -0.70    0.10
  -3   2   0   -0.89    1.62
   3   2   0    0.01    0.62
  -3  -2   0   -1.21    1.39
   3   2   0    1.43    1.53
  -3   2  -1    1.64    2.02
   3  -2  -1    1.51    0.33
  -3   2   1    1.14    1.66
   3   2   1    1.14    1.04
   3   2  -1    1.54    1.10
   3   2  -1   -1.11    2.10
  -3   2  -1    0.34    0.82
  -3  -2   1    0.08    1.01
  -3  -2  -1   -0.99    1.91
   3   2   1    0.69    1.13
  -3   2  -2  244.97   15.00
   3   2  -2  169.98    9.35
  -3   2  -2  207.61   12.93
  -3   2   2  171.02   10.94
   3   2   2  127.44    9.59
  -3  -2  -2  144.88   13.91
   3   2   2  166.74   13.20
   3   2  -2  143.61   12.23
   3  -2  -2  138.92    8.96
  -3   2   3  629.09   21.25
   3   2  -3  360.17   14.38
  -3  -2  -3  539.87   27.17
  -3   2  -3  315.57   17.13
   3   2   3  356.20   16.67
   3   2   3  344.15   18.24
   3   2  -3  446.76   22.05
   3  -2  -3  418.16   17.91
  -3   2  -3  444.17   21.26
   3  -2  -4  548.90   22.51
  -3  -2  -4  467.76   25.24
  -3   2  -4  587.81   24.53
   3   2  -4  443.55   23.37
  -3   2  -4  457.59   12.59
  -3   2  -4  629.13   26.66
   3   2  -4  424.82   16.41
   3  -2  -5  316.78   18.59
  -3   2   5  240.57   15.44
  -3  -2  -5  198.68   17.37
  -3   2  -5  347.29   19.72
  -3  -2  -5  279.62   18.22
   3   2  -5  262.12   18.95
   3   2  -5  339.89   16.07
  -3   2  -5  278.10   11.72
  -3   2  -5  347.55   20.79
   3   2  -6    0.58    1.51
  -3   2  -6    0.38    1.32
   3  -2  -6   -1.02    1.18
  -3   2   6   -0.11    1.81
  -3  -2  -6    0.38    1.47
   3   2  -6    1.08    2.10
  -3   2  -6   -1.87    2.63
  -3   2  -6   -1.04    0.77
  -3  -2  -6    0.69    1.40
   3  -2  -7  202.79   17.02
  -3   2   7  317.93   18.40
   3   2  -7  230.98   19.69
  -3  -2  -7  200.78   18.00
  -3  -2  -7  193.96   15.70
  -3   2  -7  211.67   13.42
  -3   2  -7  321.97   23.79
  -3   2  -8  345.21   19.36
   3  -2  -8  291.56   21.29
  -3   2  -8  410.43   27.20
  -3  -2  -8  236.39   20.20
  -3   2   8  250.03   17.31
   3   2  -8  301.82   22.74
  -3   2  -8  168.45   16.93
  -3  -2  -8  280.44   20.10
   3   2  -9    2.07    3.21
  -3   2  -9    5.14    2.49
   3  -2  -9    1.93    1.50
  -3  -2  -9   -1.41    1.64
  -3   2  -9    3.64    2.86
  -3  -2 -10    0.62    2.80
  -3   2 -10    1.57    0.68
   3  -2 -10    3.85    1.70
  -3  -2 -10    6.07    3.31
  -3   2 -10    3.62    2.74
   3  -2 -10    0.78    1.65
   3   2 -10    0.01    1.39
  -3  -2 -11   23.74    6.94
  -3   2 -11   26.54    6.47
   3  -2 -11   27.69    7.73
   3  -2 -11   27.92    7.16
  -3  -2 -11   14.55    6.28
  -3   2 -11   30.06    7.96
   3   2 -11   20.98    6.01
  -3   2 -12   72.62   11.38
  -3  -2 -12   71.00   11.49
   3   2 -12   52.89   10.28
   3  -2 -12   55.71    9.92
  -3   2 -12   72.57   13.00
   3  -2 -12   71.75   12.33
  -3  -2 -12   40.78   10.62
  -3  -2 -13   31.72    7.85
   3  -2 -13   34.63    9.15
  -3   2 -13   40.82    9.01
  -3  -2 -13   31.35    8.97
  -3   2 -13   40.28   10.39
   3   2 -13   11.71    6.59
   3  -2 -13   22.80    6.97
  -3   2 -14   56.15   10.57
   3  -2 -14   67.00   12.94
  -3   2 -14   86.39   15.59
   3   2 -14   78.10   13.10
  -3  -2 -14   60.89   11.58
   3  -2 -14   56.31   11.15
  -3  -2 -14   50.24   11.13
   3  -2 -15   63.49   13.16
  -3  -2 -15   44.27   10.34
   3  -2 -15   42.15   10.03
  -3   2 -15   44.93   10.02
  -3  -2 -15   39.86    9.90
   3   2 -15   56.45   11.47
  -3   2 -16   76.14   13.82
   3  -2 -16  110.68   17.46
   3   2 -16   88.34   15.34
  -3  -2 -16   59.90   12.59
   3  -2 -16   79.35   13.86
  -3   2 -16   86.79   16.56
  -3  -2 -16   97.96   16.25
   3   2 -16   69.30   14.26
  -3  -2 -17   45.84   11.49
   3   2 -17   67.34   13.56
   3  -2 -17   51.74   11.98
  -3   2 -17   49.77   12.10
  -3  -2 -17   27.61    8.36
  -3   2 -17   80.63   16.17
   3  -2 -17   44.74   10.41
   3   2 -17    8.39   11.15
   3  -2 -18   83.94   15.53
  -3  -2 -18  103.03   16.82
  -3  -2 -18   55.09   13.87
   3   2 -18   57.50   12.92
   3  -2 -18   63.34   13.03
  -3   2 -18   60.07   13.09
   3   2 -18   78.35   14.71
  -3   2 -18   66.96   13.94
  -3  -2 -19   -0.27    1.89
  -3   2 -19    5.48    6.18
   3  -2 -19   -1.01    1.73
   3  -2 -19    3.83    5.16
   3   2 -19   -3.74    5.39
  -3  -2 -19   -4.63    4.05
  -3   2 -19    4.78    4.35
   3   2 -19   -5.35    3.73
  -3  -2 -20   18.23    6.37
  -3   2 -20   19.19    8.65
   3  -2 -20   39.12    9.43
  -3  -2 -20   10.78    6.93
   3   2 -20   21.52    6.81
   3  -2 -20   11.65    5.90
  -3   2 -20   24.11   10.21
   3   2 -20   19.58    7.69
  -3  -2 -21   25.03    9.62
  -3   2 -21   30.79   10.99
   3  -2 -21   28.10   10.07
   3   2 -21   33.84   11.08
   3   2 -21   22.45    9.70
  -3  -2 -21   23.96    8.35
   3  -2 -21   36.53   11.06
  -3   2 -21   44.44   13.14
  -3   2 -22   15.29    5.04
  -3  -2 -22    2.63    4.38
  -3   2 -22    5.49    1.25
   3  -2 -22   16.45    9.39
   3   2 -22    7.29    2.51
   3   2 -22   19.09    6.11
  -3  -2 -22    9.49    3.90
   3  -2 -22    9.57    5.26
  -3  -2 -23    2.69    5.56
  -3   2 -23    6.79    6.48
   3  -2 -23    6.31    7.71
  -3  -2 -23    2.87    2.56
  -3   2 -23   -2.49    1.58
   3   2 -23    1.45    2.57
   3  -2 -23   -1.52    2.15
   3   2 -23    3.09    4.80
  -3  -2 -24    1.24    4.95
   3  -2 -24    1.74    4.77
  -3   2 -24   -4.04    6.04
   3  -2 -24   -2.48    3.53
  -3  -2 -24    2.50    1.22
   3   2 -24    3.41    5.99
  -3   2 -24    1.88    3.24
   3   2 -24    1.65    4.65
  -3  -2 -25   -0.30    2.96
  -3   2 -25   -1.00    3.07
   3  -2 -25    7.70    7.62
   3  -2 -25    2.79    4.19
  -3  -2 -25    9.94    5.06
  -3   2 -25    0.30    3.63
   3   2 -25    5.83    4.91
   3   2 -25    3.57    3.22
  -3  -2 -26   -0.48    5.64
  -3   2 -26    1.54    2.36
   3  -2 -26    2.83    4.08
   3   2 -26    0.79    4.14
  -3  -2 -26   -2.90    7.81
  -3   2 -26   -6.73    9.23
   3  -2 -26    4.38    5.02
   3   2 -26    0.38    1.27
  -3  -2 -27   10.38    7.46
  -3   2 -27    2.87    4.50
   3  -2 -27   11.79    9.33
  -3  -2 -27    4.34    3.67
   3   2 -27   10.75    6.16
   3  -2 -27    8.67    1.70
   3   2 -27   19.16    7.37
  -3   2 -27    2.41    6.58
  -3  -2 -28   -1.94    2.90
  -3   2 -28    4.49    4.64
   3  -2 -28   13.84    8.44
   3   2 -28   11.07    8.73
  -3   2 -28    6.36    5.96
  -3  -2 -28   -1.54    7.18
   3  -2 -28    3.24    3.03
   3   2 -28    5.09    4.27
  -3  -2 -29   -2.71    6.26
   3  -2 -29    1.72    6.05
   3   2 -29    3.39    2.28
  -3  -2 -29    7.24    4.14
  -3   2 -29    5.85    5.34
   3  -2 -29    3.89    3.45
  -3   2 -29    3.58    5.62
   3   2 -29   -7.56    6.79
  -3  -2 -30   -3.35    2.09
  -3  -2 -30   -3.49    9.89
  -3   2 -30    0.15    4.91
   3  -2 -30    0.80    3.41
   3   2 -30    1.01    5.94
  -3   2 -30    2.84    4.93
   3  -2 -30   -2.36    2.68
   3   2 -30    0.55    1.47
   3   2 -31   -3.85    4.45
  -3  -2 -31   -1.37    1.64
  -3   2 -31   -5.65    6.65
  -3  -2 -31    4.26    3.11
   3  -2 -31   -5.29    7.74
   3   2 -31    1.68    1.94
  -3   2 -31    1.32    5.62
   3  -2 -31   -0.97    1.59
  -3   3   0    0.09    0.69
  -3   3   0    2.43    2.48
   3   3   0    2.01    1.59
  -3  -3   0   -3.10    1.78
   3   3   0   -0.28    1.94
  -3   3  -1   50.97    7.91
  -3   3  -1   72.18    4.19
  -3   3   1   82.60    9.49
  -3  -3   1   66.08   10.16
   3   3  -1   82.64    8.05
   3   3   1   71.51    7.88
   3  -3  -1   60.31    5.68
   3   3  -1   94.62   10.67
  -3   3  -1   51.33    5.70
  -3  -3  -1   83.85   11.24
   3   3   1   69.93    8.87
  -3   3  -2  657.27   28.50
   3   3  -2  549.16   22.12
  -3   3   2  953.26   31.37
   3   3  -2  971.57   36.88
   3   3   2  603.20   24.76
  -3  -3  -2  744.37   33.78
   3  -3  -2  712.59   21.59
  -3   3  -2  699.65   22.62
   3   3   2  823.10   32.21
  -3   3  -3   97.97   11.89
   3   3  -3  115.83   10.17
   3   3  -3  109.37   12.00
   3   3   3   70.16    9.04
  -3   3   3   75.66    8.80
   3   3   3  166.75   13.78
  -3   3  -3  140.10    6.58
  -3   3  -3   77.67    8.17
  -3  -3  -3   82.89   10.87
   3  -3  -3  138.35   10.73
   3   3  -4  393.65   23.24
   3   3  -4  341.80   18.10
  -3   3   4  316.14   18.63
  -3   3  -4  370.48   13.07
   3   3   4  287.67   18.32
  -3   3  -4  450.43   20.82
  -3  -3  -4  359.40   23.43
   3  -3  -4  430.37   20.95
  -3   3  -4  294.00   20.21
  -3   3  -5 3068.75   43.63
  -3   3   5 2310.14   55.41
   3   3   5 2615.82   55.20
  -3  -3  -5 2955.56   63.85
  -3  -3  -5 3475.28   73.52
   3  -3  -5 2834.06   59.26
   3   3  -5 3136.88   67.17
  -3   3  -5 4039.72   75.76
   3   3  -5 2524.49   50.58
  -3   3  -6  551.08   20.40
  -3   3  -6  730.26   34.04
  -3   3   6  424.51   23.91
   3  -3  -6  566.90   28.06
  -3  -3  -6  443.63   27.45
  -3   3  -6  705.43   30.01
   3   3  -6  569.35   30.24
  -3  -3  -6  488.39   27.34
   3   3  -6  412.41   21.43
  -3   3  -7  105.10    9.51
  -3   3   7   82.17   10.66
  -3  -3  -7  103.28   13.38
   3  -3  -7   78.94   10.55
  -3   3  -7   56.99    9.60
  -3   3  -7   54.56    9.04
  -3  -3  -7   79.48   11.12
   3   3  -7   81.55   11.99
   3  -3  -7   78.30    9.58
   3   3  -7   77.03    9.42
  -3   3  -8  267.53   16.85
   3  -3  -8  273.99   20.69
  -3   3   8  410.61   25.55
  -3  -3  -8  270.31   22.45
   3   3  -8  181.02   18.70
  -3   3  -8  193.99   17.89
   3  -3  -8  295.25   19.57
   3   3  -8  327.17   21.63
  -3   3  -8  317.43   24.09
   3   3  -9 1144.98   48.66
  -3  -3  -9  931.09   39.98
  -3   3  -9 1052.57   36.14
   3   3  -9  833.42   37.05
  -3  -3  -9 1018.90   44.89
  -3   3   9 1158.17   42.76
  -3   3  -9  885.80   43.29
  -3   3  -9 1051.90   44.62
   3  -3  -9 1026.93   38.00
   3  -3  -9 1079.49   43.09
   3   3 -10  172.19   18.53
  -3   3 -10  221.08   17.53
  -3   3  10  164.72   16.34
  -3  -3 -10  132.01   16.67
  -3   3 -10  162.15   18.34
   3  -3 -10  150.82   14.75
  -3  -3 -10  182.17   18.25
   3   3 -10  126.73   14.81
   3  -3 -10  154.26   17.21
  -3   3  11   42.34    8.79
   3   3 -11   17.98    6.41
  -3   3 -11   44.40    8.20
  -3   3 -11   56.04   12.11
  -3  -3 -11   32.96    9.79
   3  -3 -11   37.16    7.74
   3  -3 -11   60.31   10.71
  -3   3 -11   42.57   10.44
  -3  -3 -11   38.75    8.35
   3   3 -12    1.87    2.65
   3  -3 -12   -1.05    2.50
  -3  -3 -12    1.09    0.84
   3  -3 -12    2.06    2.75
  -3   3  12   -0.41    0.89
  -3   3 -12    1.09    2.98
  -3  -3 -12    5.75    5.26
  -3   3 -12    0.74    1.02
  -3   3 -13  293.15   23.98
   3   3 -13  364.10   28.42
  -3  -3 -13  262.32   25.88
  -3   3 -13  449.99   33.62
   3  -3 -13  311.94   23.83
  -3  -3 -13  451.93   32.43
   3  -3 -13  323.46   26.85
  -3   3 -14   -0.30    2.48
   3  -3 -14    0.32    1.56
   3  -3 -14    0.41    2.10
  -3  -3 -14   -1.72    2.20
  -3  -3 -14   -0.77    3.57
  -3   3 -14   -1.86    0.20
   3   3 -14    2.41    3.89
  -3   3 -15  137.95   18.04
   3   3 -15  204.80   22.52
   3  -3 -15  231.21   22.38
  -3   3 -15  137.02   20.15
  -3  -3 -15  218.64   23.29
   3  -3 -15  281.35   27.13
  -3  -3 -16    4.03    4.84
  -3   3 -16    4.26    4.88
   3  -3 -16   -0.31    2.06
  -3   3 -16    4.92    4.20
  -3  -3 -16    1.12    5.28
   3   3 -16    1.90    2.94
   3  -3 -16    2.35    2.80
  -3   3 -17  239.81   24.70
   3   3 -17  183.82   22.95
  -3  -3 -17  179.65   21.93
  -3   3 -17  210.06   25.12
   3  -3 -17  243.05   24.81
   3  -3 -17  197.18   24.27
  -3   3 -18   98.55   16.27
  -3  -3 -18   77.92   14.93
   3  -3 -18   87.40   16.47
   3   3 -18   90.52   16.84
  -3   3 -18   64.88   14.79
   3  -3 -18   89.05   15.35
  -3  -3 -18  101.20   17.21
   3   3 -18   40.92   14.41
  -3   3 -19   89.10   16.26
  -3  -3 -19  107.89   17.96
   3   3 -19  134.27   21.40
  -3   3 -19  147.63   21.88
   3  -3 -19   78.65   15.73
  -3  -3 -19   85.31   16.21
   3   3 -19  115.02   17.96
   3  -3 -19  109.10   18.78
  -3  -3 -20    5.97    4.97
   3  -3 -20   -7.11    7.88
  -3   3 -20    7.95    4.55
  -3  -3 -20    9.82    5.92
   3   3 -20   10.69    7.34
  -3   3 -20   19.26   10.04
   3  -3 -20   18.92    7.41
   3   3 -20    3.54    2.58
  -3  -3 -21   17.39    7.55
   3  -3 -21   28.94    9.52
  -3   3 -21   18.66    5.66
  -3   3 -21   29.88   10.62
  -3  -3 -21   28.79   10.40
   3   3 -21   24.51    8.91
   3  -3 -21   13.21    4.41
   3   3 -21   22.31   10.16
  -3  -3 -22   13.15    6.47
   3   3 -22    0.10    3.70
   3  -3 -22    5.20    5.17
  -3   3 -22   16.19    6.38
   3   3 -22    5.78    3.71
  -3  -3 -22    6.77    7.38
  -3   3 -22   10.22    8.14
   3  -3 -22   10.76    3.86
   3   3 -23   85.59   17.26
  -3   3 -23   68.74   15.52
  -3  -3 -23   81.56   16.84
   3  -3 -23   90.08   17.81
   3   3 -23  108.98   19.33
  -3  -3 -23   93.02   17.99
  -3   3 -23   61.92   15.80
   3  -3 -23  104.78   20.50
  -3  -3 -24   -1.19    3.37
   3   3 -24   -0.26    3.78
  -3   3 -24    5.21    4.91
   3  -3 -24   -3.65    2.56
  -3  -3 -24   -0.94    3.10
  -3   3 -24    3.39    7.48
   3  -3 -24    2.49    1.65
   3   3 -24   -1.14    3.30
  -3  -3 -25    0.82    4.57
   3  -3 -25   -1.22    2.00
  -3   3 -25   12.30    8.44
   3   3 -25   10.49    7.26
   3   3 -25    3.94    3.50
   3  -3 -25   -3.74    3.23
  -3  -3 -25    4.46    4.55
  -3   3 -25    4.35    4.11
  -3  -3 -26   25.40   10.61
  -3   3 -26   12.91   10.43
  -3   3 -26   19.40    8.28
   3   3 -26   21.85    8.43
  -3  -3 -26   27.93    9.20
   3  -3 -26   18.19    9.65
   3   3 -26   10.69    6.63
   3  -3 -26   15.35    7.88
  -3  -3 -27   31.18   12.04
   3  -3 -27   37.94   11.83
  -3   3 -27   19.70    8.75
   3   3 -27   55.46   13.24
   3   3 -27   44.26   13.35
  -3  -3 -27   13.53    5.28
  -3   3 -27   51.52   16.77
   3  -3 -27   24.90    9.49
  -3  -3 -28   12.17    5.39
   3   3 -28   11.43    5.53
   3  -3 -28    4.47    5.07
  -3   3 -28    8.01    4.57
  -3   3 -28    5.56    1.55
  -3  -3 -28    6.90    6.23
   3  -3 -28   10.48    5.44
   3   3 -28   21.07    9.74
  -3  -3 -29   14.10    8.19
   3   3 -29    9.46    6.42
   3  -3 -29   14.47    5.74
  -3   3 -29   11.42    8.78
  -3  -3 -29   14.71    7.34
  -3   3 -29   15.31   10.03
   3  -3 -29   10.72    6.10
   3   3 -29    3.58    2.46
  -3  -3 -30   25.04   10.64
   3  -3 -30   12.11    5.63
  -3   3 -30   26.68   12.44
   3   3 -30    6.36    1.50
  -3   3 -30   16.63    6.93
   3  -3 -30   31.26   12.66
   3   3 -30   27.32   13.11
  -3  -3 -30   18.88    9.08
  -3  -3 -31   18.38    9.50
   3  -3 -31   15.24    8.78
  -3  -3 -31   13.13    6.47
   3   3 -31   22.31    8.72
  -3   3 -31   37.01   15.48
   3  -3 -31   22.73   11.01
   3   3 -31   21.97   10.64
  -3   3 -31   56.65   21.98
   3   4   0    0.69    0.66
  -3   4   0   -1.77    2.14
   3   4   0   -1.17    1.47
  -3   4   0   -0.52    1.11
  -3  -4   0    0.50    3.01
  -3   4  -1  273.52   20.28
  -3  -4  -1  176.01   17.09
  -3   4   1  149.66   14.37
   3   4  -1  133.83   12.68
   3   4   1  329.44   19.36
   3   4   1  236.78   17.83
  -3   4  -1  175.78    8.88
  -3   4  -1  224.49   10.92
   3   4  -1  183.05   15.95
   3  -4  -1  179.31   11.68
  -3   4  -2    1.69    0.74
  -3   4  -2    1.20    0.09
  -3   4  -2    1.32    1.68
   3   4  -2   -0.07    0.63
  -3   4   2   -0.41    2.34
   3   4   2    1.06    2.12
   3   4  -2    1.60    1.52
  -3  -4  -2    1.16    2.10
   3  -4  -2    0.77    0.08
   3   4   2    2.53    3.04
   3  -4  -3   76.61    8.67
   3   4  -3   43.46    7.14
   3   4   3   65.31    9.44
  -3   4   3   38.07    6.62
   3   4  -3   68.90   10.47
   3   4   3   63.15    9.53
  -3   4  -3   52.12    6.07
  -3   4  -3   57.24    5.57
  -3  -4  -3   66.00   10.40
  -3   4  -3   48.72    8.99
  -3   4  -4 1014.62   42.41
   3   4  -4  899.18   33.45
  -3   4  -4 1004.29   25.55
   3   4  -4  898.13   37.03
  -3   4   4  778.88   32.15
  -3   4  -4  676.35   24.76
   3   4   4  851.98   35.67
  -3  -4  -4  912.99   38.91
   3  -4  -4  890.37   30.93
   3   4  -5   44.75    7.53
  -3   4  -5   32.05    7.78
   3   4   5   39.48    7.46
  -3   4   5   14.88    4.67
  -3   4  -5   41.73    5.58
  -3   4  -5   25.36    5.42
  -3  -4  -5   48.12    8.86
   3  -4  -5   44.19    5.22
   3  -4  -5   39.44    7.00
   3   4  -5   31.54    7.18
  -3   4   6  150.90   15.56
  -3   4  -6  135.46   10.86
  -3   4  -6  134.14   13.64
  -3  -4  -6  132.71   14.69
   3  -4  -6  119.24    9.46
   3  -4  -6  102.46   12.18
  -3  -4  -6  146.54   15.69
   3   4  -6   95.80   13.32
  -3   4  -6  126.00   15.40
   3   4  -6  141.61   13.90
   3   4   7  134.33   14.22
  -3  -4  -7  118.02   14.45
   3  -4  -7  122.93   13.76
  -3   4  -7   58.79    7.68
  -3   4  -7   89.47   11.48
   3   4  -7  123.62   15.04
  -3  -4  -7  113.32   14.33
   3  -4  -7   78.21    8.52
  -3   4  -7  137.25   16.32
   3   4  -7   98.25   11.79
  -3   4   8   47.33    9.10
  -3   4  -8   38.84    6.33
   3   4  -8   29.06    7.66
  -3  -4  -8   41.21    9.52
   3   4   8   35.19    8.27
   3  -4  -8   28.69    5.43
  -3   4  -8   36.33    8.01
   3  -4  -8   40.42    7.86
  -3  -4  -8   41.26    8.18
  -3   4  -8   49.43    9.37
   3   4  -8   29.66    6.64
  -3   4  -9  740.50   32.18
   3  -4  -9  713.70   29.94
  -3   4   9  671.60   36.10
  -3  -4  -9  536.74   33.51
   3   4  -9  734.73   39.02
  -3   4  -9  587.86   33.97
   3   4   9  610.65   33.09
  -3  -4  -9  604.41   33.27
   3  -4  -9  540.22   32.55
   3   4  -9  698.48   33.60
  -3   4  -9  427.67   29.77
  -3  -4 -10    6.05    4.31
   3   4 -10    2.35    1.71
  -3   4 -10    8.66    3.67
   3  -4 -10    6.22    3.15
   3   4 -10    1.51    2.64
  -3   4  10    6.83    3.53
  -3   4 -10    8.38    4.91
  -3   4 -10    1.96    3.09
   3  -4 -10    4.97    3.66
  -3  -4 -10    2.85    3.14
   3   4 -11    0.66    3.07
  -3   4 -11   -1.30    3.67
   3   4 -11    0.49    3.35
   3  -4 -11    0.32    1.26
  -3   4  11    3.43    3.66
   3  -4 -11   -0.07    1.54
  -3   4 -11   -0.75    0.54
  -3  -4 -11    0.91    2.25
  -3   4 -11   -1.20    1.50
  -3  -4 -11    1.41    4.62
   3   4 -12   13.74    5.30
  -3   4 -12   30.56   10.29
   3  -4 -12   12.11    5.40
  -3   4 -12   15.08    5.36
   3   4 -12   15.15    5.73
  -3   4  12   19.39    7.09
  -3   4 -12   12.36    6.33
  -3  -4 -12   11.39    6.50
   3  -4 -12   16.78    5.38
  -3  -4 -12   13.44    5.39
   3   4 -13   13.74    5.44
   3  -4 -13   10.56    5.90
  -3   4 -13    8.64    6.62
  -3   4 -13   10.01    5.77
  -3   4  13    7.81    3.68
  -3   4 -13   15.01    7.79
  -3  -4 -13   14.55    7.10
   3  -4 -13    5.81    3.68
  -3  -4 -13   12.08    6.07
   3   4 -14    2.83    3.67
  -3   4 -14    0.57    2.88
   3  -4 -14    9.82    7.20
   3  -4 -14   -0.95    2.32
  -3   4 -14    0.70    3.11
  -3  -4 -14    0.08    4.87
  -3   4 -14   -1.28    2.35
  -3   4  14    5.72    4.41
  -3  -4 -14   -4.06    5.26
  -3  -4 -15   -0.61    0.87
   3  -4 -15    0.49    2.02
  -3   4 -15   -1.66    1.72
  -3   4  15    1.28    5.29
  -3   4 -15    0.96    4.38
   3  -4 -15    3.19    3.20
   3   4 -15   -2.32    3.18
  -3  -4 -15    4.24    4.98
  -3   4 -16   14.82    6.73
  -3   4 -16    7.07    2.97
   3  -4 -16   18.32    8.17
  -3   4  16    8.25    5.07
   3   4 -16   19.14    8.00
  -3  -4 -16    6.15    3.67
   3  -4 -16    8.09    5.64
  -3  -4 -16    3.45    6.39
  -3  -4 -17   10.36    2.36
   3  -4 -17   22.86    9.49
   3  -4 -17    1.09    4.88
  -3   4 -17    7.34    4.34
  -3   4  17    9.32    4.34
  -3  -4 -17   15.21    7.17
  -3   4 -17    7.55    2.81
   3   4 -17    3.16    2.21
  -3  -4 -18   -0.95    5.01
   3  -4 -18   -1.20    0.25
  -3   4  18   -3.61    4.64
  -3  -4 -18    7.87    5.51
  -3   4 -18    3.36    5.10
   3   4 -18   -0.48    3.05
  -3   4 -18   -2.58    2.83
   3   4 -18   -0.76    3.74
   3  -4 -18   -1.13    3.11
  -3  -4 -19    0.36    4.27
  -3  -4 -19    4.98    6.69
   3   4 -19    2.72    5.18
   3  -4 -19    6.20    5.30
  -3   4 -19    7.85    5.16
  -3   4 -19    8.16    7.60
   3  -4 -19   -0.63    1.03
   3   4 -19    0.50    3.81
  -3  -4 -20   40.80   13.62
   3  -4 -20   42.07   11.94
   3   4 -20   50.20   14.48
  -3   4 -20   39.60   10.82
  -3  -4 -20   25.99   10.68
   3   4 -20   64.38   14.68
  -3   4 -20   23.17    9.92
   3  -4 -20   36.15   10.81
  -3  -4 -21    6.59    3.75
  -3  -4 -21    2.68    4.94
   3  -4 -21    3.90    5.21
  -3   4 -21    0.10    3.51
   3   4 -21    3.68    3.62
   3  -4 -21   -4.14    5.25
  -3   4 -21   -1.56    2.03
   3   4 -21    0.23    3.35
  -3  -4 -22    5.82    3.93
   3  -4 -22    6.78    5.29
  -3   4 -22   -2.35    5.47
   3   4 -22   -0.09    4.24
  -3   4 -22   -0.55    2.30
   3  -4 -22    0.34    4.24
   3   4 -22    0.04    0.78
  -3  -4 -22   -1.63    4.16
  -3  -4 -23    6.04    4.47
   3  -4 -23    6.54    4.23
  -3   4 -23   -1.79    2.60
   3   4 -23    3.41    6.31
  -3  -4 -23   -1.49    2.88
  -3   4 -23    2.40    5.12
   3  -4 -23   -0.57    4.45
   3   4 -23   -0.38    1.23
  -3  -4 -24   11.23    8.75
  -3  -4 -24   -3.72    3.29
   3  -4 -24   -0.75    4.11
  -3   4 -24    0.40    2.30
  -3   4 -24    2.34    2.34
   3  -4 -24    0.48    4.44
   3   4 -24   -4.45    3.55
   3   4 -24    0.54    3.15
  -3  -4 -25    0.81    0.71
   3  -4 -25   -1.83    4.51
  -3   4 -25   -1.43    2.41
  -3  -4 -25   -5.66    7.21
   3   4 -25   -1.46    2.83
  -3   4 -25    3.65    5.29
   3  -4 -25   -1.31    3.25
   3   4 -25   -0.80    3.25
  -3  -4 -26    4.53    7.29
  -3  -4 -26   -0.05    3.63
   3  -4 -26   -0.65    4.20
  -3   4 -26    4.18    2.89
   3  -4 -26    8.87    5.72
   3   4 -26    2.81    6.73
  -3   4 -26    8.60    8.98
   3   4 -26   -1.12    2.98
  -3  -4 -27   -0.20    1.30
   3  -4 -27   -3.40    4.30
  -3   4 -27    6.02    6.43
   3   4 -27   -2.58    1.63
  -3  -4 -27   -3.43    5.93
  -3   4 -27   -4.51    4.87
   3  -4 -27   -1.61    4.52
   3   4 -27   -0.68    1.71
   3  -4 -28    3.33    4.58
  -3   4 -28   -2.48    1.79
  -3  -4 -28    0.20    4.00
  -3  -4 -28    1.82    5.02
  -3   4 -28    3.78    4.30
   3  -4 -28   11.75    9.80
   3   4 -28   -3.24    3.51
   3   4 -28   -0.07    3.83
   3  -4 -29    5.66    6.41
  -3  -4 -29    4.21    3.41
  -3   4 -29  -11.52    7.06
   3   4 -29   -0.23    3.68
  -3   4 -29    4.14    7.58
   3  -4 -29   -3.64    6.77
  -3  -4 -29    5.85    7.17
   3   4 -29    2.72    3.47
  -3  -4 -30    3.58    6.10
   3  -4 -30    4.34    5.27
  -3   4  30    5.85    6.91
   3   4 -30   -4.65    7.19
  -3  -4 -30    8.30    8.88
  -3   4 -30    0.12    4.26
   3  -4 -30    9.73   10.09
   3   4 -30   -2.58    2.65
   3   5   0    0.38    3.29
  -3   5   0   -0.62    2.08
  -3   5   0    1.72    2.86
   3   5   0    1.32    1.28
  -3  -5   0    1.42    3.41
  -3   5  -1  186.19   18.64
  -3   5   1  213.93   19.24
   3   5  -1  199.48   16.74
  -3   5  -1  213.60   13.10
   3   5   1  162.58   14.50
  -3  -5  -1  283.33   22.70
   3   5  -1  283.32   21.54
   3   5   1  270.63   20.52
  -3  -5  -2  570.78   33.12
   3   5  -2  363.94   23.29
  -3   5   2  429.75   26.87
   3   5   2  491.30   26.31
  -3   5  -2  458.10   19.86
   3   5  -2  423.08   27.60
  -3   5  -2  493.02   15.26
   3  -5  -2  389.89   21.17
  -3   5  -2  303.11   23.82
   3   5   2  467.38   28.98
  -3  -5  -3   29.72    7.03
   3   5   3   32.01    7.49
   3   5  -3   24.19    6.41
  -3   5  -3   32.39    5.07
   3   5   3   22.17    5.65
  -3   5  -3   25.55    7.84
   3   5  -3   43.65    9.59
  -3   5   3   21.01    5.30
  -3   5  -3   26.31    4.36
   3  -5  -3   22.69    5.48
   3   5  -4    5.68    3.24
  -3   5  -4   11.84    3.87
  -3   5  -4    8.62    3.28
   3   5  -4    7.75    2.59
   3   5   4   14.46    5.34
  -3   5   4    5.48    1.67
  -3  -5  -4   10.38    4.52
  -3   5  -4    9.24    2.86
   3   5   4    5.22    3.47
   3  -5  -4   15.56    4.71
  -3   5  -5  259.25   23.55
   3   5  -5  271.21   20.74
   3   5  -5  221.87   19.74
   3   5   5  230.30   20.16
  -3   5   5  295.97   22.05
   3   5   5  261.87   21.71
  -3  -5  -5  289.39   23.15
  -3   5  -5  216.83   15.88
  -3   5  -5  240.57   15.39
   3  -5  -5  310.79   21.01
  -3   5  -6  276.77   23.74
   3   5  -6  279.03   21.46
  -3  -5  -6  269.35   23.04
  -3   5   6  247.86   21.16
   3   5   6  294.47   23.26
  -3   5  -6  286.56   18.09
  -3   5  -6  250.33   19.02
   3  -5  -6  240.47   12.68
   3  -5  -6  387.01   24.52
   3   5  -6  146.22   16.33
  -3   5  -7   80.37    9.91
  -3   5   7  126.86   15.89
   3   5   7  137.59   16.45
  -3   5  -7   86.91   11.78
  -3  -5  -7   94.18   13.40
  -3  -5  -7  118.89   14.95
   3  -5  -7  129.94   14.96
   3   5  -7   96.78   13.51
  -3   5  -7  106.28   15.21
   3   5  -7  117.26   14.11
  -3   5   8  257.31   23.86
   3   5   8  254.34   23.24
  -3   5  -8  210.09   16.57
  -3  -5  -8  272.97   23.99
   3  -5  -8  274.64   22.79
   3   5  -8  302.28   25.46
  -3  -5  -8  236.87   22.42
  -3   5  -8  234.01   22.06
   3   5  -8  248.59   21.04
  -3   5  -9   -3.09    4.88
   3   5  -9    0.21    0.64
  -3  -5  -9    0.34    1.79
   3   5  -9    0.39    1.45
  -3  -5  -9    2.65    2.15
   3  -5  -9    5.02    3.70
  -3   5   9   -0.28    2.54
   3   5   9   -2.83    3.16
  -3   5  -9    1.29    1.36
   3  -5  -9    0.60    0.80
  -3   5  -9   -2.52    2.72
   3   5 -10   22.27    6.89
   3  -5 -10    4.98    3.91
   3   5  10    7.83    4.64
   3   5 -10   20.07    7.51
  -3   5 -10   16.61    5.19
  -3   5 -10   24.09    7.54
  -3   5  10   12.09    5.55
   3  -5 -10   18.26    4.57
  -3  -5 -10   22.30    7.15
  -3  -5 -10    2.72    4.57
  -3   5 -10   21.80    5.96
  -3   5 -11  421.08   26.50
  -3   5  11  328.20   28.17
   3   5 -11  333.16   28.26
  -3  -5 -11  385.28   30.62
  -3   5 -11  390.19   29.38
  -3  -5 -11  361.42   28.27
   3  -5 -11  386.24   30.53
   3  -5 -11  356.65   24.32
   3   5 -11  362.33   27.23
  -3   5 -11  377.75   30.39
  -3   5 -12   34.83    9.43
  -3   5  12   22.17    7.04
   3   5 -12   25.40    7.42
  -3  -5 -12   34.50    7.99
   3  -5 -12   55.11   10.56
   3   5  12   27.55    6.90
  -3   5 -12   24.16    7.10
   3  -5 -12   37.62   10.49
  -3   5 -12   33.35    9.55
  -3  -5 -12   16.72    6.47
   3   5 -12   46.78   11.09
   3   5 -13   14.63    6.60
  -3   5 -13   17.79    7.32
  -3   5  13   19.03    7.89
   3  -5 -13   20.58    5.99
   3   5 -13   23.98    7.50
  -3   5 -13   21.87    7.60
  -3  -5 -13   30.95    8.74
  -3   5 -13   32.47   10.17
   3   5  13   19.24    5.93
   3  -5 -13   29.74    7.29
  -3  -5 -13   24.43    7.52
   3   5 -14    5.57    4.10
  -3   5 -14   11.05    5.40
   3   5 -14    3.14    4.65
   3  -5 -14   10.28    6.37
  -3   5 -14    9.86    5.04
  -3  -5 -14    4.24    1.43
  -3   5  14    7.58    6.07
  -3   5 -14    1.11    4.59
   3  -5 -14   11.18    5.57
  -3  -5 -14   -1.80    3.49
  -3  -5 -15   26.62    8.88
   3   5 -15   39.91    9.92
  -3   5 -15   28.73    8.66
   3  -5 -15   42.41   11.40
  -3   5  15   57.69   13.19
  -3   5 -15   44.92   10.94
   3  -5 -15   27.88    7.40
  -3  -5 -15   36.36   10.52
   3   5 -15   38.40   10.68
  -3   5 -15   33.85   11.30
  -3   5 -16  255.02   25.81
   3   5 -16  237.00   25.51
  -3   5  16  295.03   28.07
  -3  -5 -16  252.99   27.41
  -3  -5 -16  242.91   26.96
   3  -5 -16  257.91   25.31
   3  -5 -16  327.25   31.29
  -3   5 -16  306.91   31.86
  -3   5 -17   83.65   14.60
  -3   5  17  114.29   17.78
   3   5 -17   86.84   16.48
  -3   5 -17  136.20   19.97
  -3  -5 -17   96.76   16.96
   3  -5 -17   48.20   11.25
   3  -5 -17  103.26   18.81
  -3  -5 -17  112.14   18.73
   3  -5 -18   11.49    3.91
  -3   5  18    8.13    5.85
  -3   5 -18   15.12    6.21
  -3  -5 -18    4.07    5.20
  -3   5 -18    9.98    5.32
   3  -5 -18   14.14    7.85
   3   5 -18    5.55    4.02
   3   5 -18    7.14    7.04
  -3  -5 -18   14.82    8.80
   3  -5 -19    5.12    2.37
  -3   5 -19   14.18    7.55
  -3  -5 -19    9.06    5.19
  -3   5  19   19.65    7.61
  -3   5 -19    5.00    6.82
   3   5 -19    5.90    5.91
   3  -5 -19   17.12    7.81
   3   5 -19    9.33    2.77
  -3  -5 -19   14.02    4.56
  -3   5 -20   56.07   13.96
   3  -5 -20   29.27   10.38
  -3  -5 -20   39.69   11.37
   3   5 -20   68.63   15.14
  -3   5  20   47.01   13.59
  -3   5 -20   45.52   11.68
   3  -5 -20   52.66   12.94
   3   5 -20   57.14   14.65
  -3  -5 -20   48.63   12.51
   3  -5 -21   54.10   14.42
  -3   5  21   61.02   13.14
   3  -5 -21   51.84   11.83
  -3  -5 -21   53.88   14.18
  -3  -5 -21   70.36   16.73
   3   5 -21   65.84   15.23
   3   5 -21   75.59   15.66
  -3   5 -21   51.31   14.47
  -3   5 -21   47.95   13.27
   3   5 -22   39.40   12.58
   3  -5 -22   58.49   15.64
  -3   5 -22   42.78   12.45
  -3   5  22   69.16   14.51
  -3  -5 -22   59.00   14.68
   3   5 -22   32.66   10.51
  -3   5 -22   40.17   12.14
   3  -5 -22   63.84   15.12
  -3  -5 -22   56.18   14.56
   3  -5 -23    0.86    3.46
  -3   5 -23    0.69    3.97
  -3   5  23   -1.42    1.85
  -3  -5 -23    0.98    3.45
   3   5 -23    0.27    5.13
  -3   5 -23   -0.57    2.62
   3  -5 -23    4.79    5.58
   3   5 -23   -0.18    4.57
  -3  -5 -23   -4.11    5.54
  -3   5 -24   91.18   19.15
   3   5 -24  118.78   21.35
   3  -5 -24  142.86   23.31
  -3   5 -24  167.16   26.12
  -3   5  24   56.50   14.27
  -3  -5 -24   97.49   19.55
   3   5 -24  119.09   19.98
   3  -5 -24  123.42   20.95
  -3  -5 -24   87.52   18.23
   3  -5 -25    9.23    7.71
  -3   5 -25    1.03    3.34
   3   5 -25   -2.97    5.19
  -3   5  25    2.20    4.39
  -3   5 -25    3.96    2.85
   3  -5 -25   -3.92    4.71
  -3  -5 -25    2.92    1.95
   3   5 -25   -0.88    2.57
  -3  -5 -25   -0.64    1.78
   3  -5 -26   26.77   10.36
  -3   5 -26   57.07   17.64
   3   5 -26   15.65    5.39
  -3   5  26   36.68   11.28
  -3  -5 -26   20.88   11.54
  -3   5 -26   55.34   18.94
   3  -5 -26   18.24   10.37
   3   5 -26   42.44   12.73
  -3  -5 -26   56.31   15.50
   3   5 -27    1.93    3.95
   3  -5 -27   14.68    8.31
   3  -5 -27    8.03    7.39
  -3   5  27    7.53    3.73
   3   5 -27   10.43    4.69
  -3  -5 -27   14.03    8.43
  -3   5 -27    1.11    5.61
  -3  -5 -27    4.45    3.92
   3  -5 -28    0.45    4.86
   3  -5 -28   13.93    8.30
  -3  -5 -28    8.76    6.47
  -3   5  28    3.82    7.18
   3   5 -28    2.04    3.72
  -3   5 -28    4.76    4.93
   3   5 -28   16.28    9.58
  -3  -5 -28    0.74    5.45
   3  -5 -29    3.62    2.70
  -3   5 -29    3.60    7.62
  -3  -5 -29    0.30    1.14
   3   5 -29    1.61    4.20
  -3   5  29    6.28    6.27
   3  -5 -29   -0.77    4.02
   3   5 -29    1.68    5.58
  -3  -5 -29    8.07    7.63
   3  -5 -30   16.22    9.51
  -3  -5 -30    7.82    3.11
   3   5 -30    5.20    2.47
  -3   5  30   21.29    9.01
  -3   5 -30   11.94    8.37
   3  -5 -30    6.71    5.31
   3   5 -30    7.93    7.62
  -3  -5 -30    6.44    7.31
   3   6   0    1.11    2.26
  -3   6   0   -2.08    1.92
   3   6   0   -0.95    1.76
  -3   6   0   -1.87    0.23
  -3   6  -1   10.22    3.46
  -3   6  -1    7.55    3.73
   3   6   1   16.28    5.46
  -3   6   1   12.77    4.93
   3   6  -1   10.74    4.25
   3   6   1   11.79    4.22
  -3   6   1   15.38    4.48
   3   6  -1    3.16    2.05
  -3  -6  -1   11.89    4.83
  -3   6  -2  248.38   22.90
   3   6  -2  232.15   20.62
  -3   6   2  216.47   20.89
  -3  -6  -2  274.95   23.57
  -3   6  -2  226.85   16.78
   3   6  -2  258.84   21.84
  -3   6  -2  266.48   10.12
   3   6   2  247.57   22.01
   3   6   3   23.36    6.37
  -3   6  -3   27.09    6.19
   3   6   3   21.60    6.18
  -3   6  -3   21.80    6.42
   3   6  -3   22.54    5.81
  -3   6   3   20.26    5.89
   3   6  -3   34.36    9.10
  -3  -6  -3    8.32    2.88
   3  -6  -3   27.44    6.09
  -3   6  -3   10.63    2.59
  -3   6  -4   32.96    6.20
   3   6   4   29.03    8.01
  -3   6  -4   33.34    5.59
  -3   6   4   41.06    9.04
  -3   6  -4   34.73    9.05
   3   6  -4   29.87    7.67
   3   6   4   14.93    5.59
  -3  -6  -4   17.61    6.72
   3  -6  -4   26.56    6.39
   3   6  -4   19.53    5.84
  -3   6  -5   53.15   11.11
   3   6  -5   38.37    8.68
  -3   6   5   33.98    8.44
   3   6   5   48.82   10.27
  -3   6  -5   57.07    8.94
   3   6   5   62.80   11.52
  -3  -6  -5   41.49    9.36
   3   6  -5   41.72    9.20
  -3   6  -5   46.87    7.16
   3  -6  -5   45.87    8.43
  -3   6  -6  147.32   18.80
   3   6  -6  110.79   14.45
   3   6   6   83.98   13.47
  -3   6   6   91.19   13.37
   3  -6  -6   90.72    6.99
   3   6   6   88.88   13.56
  -3   6  -6  125.73   13.24
   3  -6  -6  100.13   12.99
  -3   6  -6   94.85   12.05
  -3  -6  -6  127.49   16.29
   3   6  -6   92.42   13.80
  -3   6  -7    3.74    4.43
   3   6  -7    3.19    2.86
  -3  -6  -7    2.88    3.58
  -3   6  -7    1.41    2.13
  -3   6   7    1.16    1.40
   3  -6  -7   -0.92    1.74
   3   6   7    1.89    2.69
  -3   6  -7    1.33    2.89
   3   6  -7   -0.22    3.18
   3  -6  -7    0.49    2.73
  -3   6  -8   32.54    8.52
  -3   6   8   44.38   10.41
   3   6   8   54.42   10.70
  -3   6  -8   38.30    7.87
   3  -6  -8   37.69    6.39
   3   6  -8   46.69    9.58
  -3   6  -8   43.33    8.62
  -3  -6  -8   40.86    9.52
   3  -6  -8   34.38    8.19
   3   6  -8   40.62    9.44
   3  -6  -9   18.10    6.11
  -3  -6  -9   13.45    5.88
  -3   6  -9    0.39    1.29
  -3   6  -9   14.10    6.06
   3   6  -9    6.89    4.24
  -3   6   9   23.77    8.11
   3   6  -9   26.29    7.32
  -3  -6  -9   32.11    9.18
  -3   6  -9   10.53    4.31
   3   6   9   27.78    8.40
   3  -6  -9   14.33    4.63
   3  -6 -10   11.65    6.00
  -3  -6 -10   15.21    6.53
  -3   6 -10   13.31    6.31
   3   6 -10    5.82    3.07
   3   6 -10   11.35    5.45
  -3  -6 -10    5.48    4.72
   3   6  10   18.15    7.07
   3  -6 -10    9.63    4.63
  -3   6  10   21.43    7.65
  -3   6 -10    7.95    3.55
  -3   6 -10    3.21    3.53
   3  -6 -11   14.33    6.57
  -3   6 -11    3.80    0.43
   3   6 -11    4.68    3.43
   3   6 -11    6.88    4.04
  -3   6  11   -3.12    2.87
  -3  -6 -11    3.56    2.98
   3   6  11    3.85    3.70
   3  -6 -11    8.43    3.96
  -3   6 -11    4.37    3.79
  -3  -6 -11    9.99    5.42
  -3   6 -11    9.76    4.72
   3  -6 -12   -1.99    3.43
   3   6 -12    7.95    6.00
  -3   6 -12   -1.15    3.16
   3   6 -12    5.93    5.06
   3   6  12    1.32    1.24
  -3  -6 -12    0.03    4.93
  -3   6  12    5.68    5.90
   3  -6 -12    1.97    1.69
  -3   6 -12    1.78    2.68
  -3  -6 -12    2.92    5.34
  -3   6 -12   -0.15    4.00
   3   6 -13   18.86    7.48
  -3   6 -13   42.54   10.21
   3  -6 -13   20.45    7.19
   3   6 -13   37.15   10.82
  -3   6  13   18.85    7.86
   3   6  13   25.05    7.74
  -3  -6 -13   19.38    6.07
   3  -6 -13   17.62    7.04
  -3   6 -13   17.79    5.90
  -3   6 -13   18.33    7.59
  -3  -6 -13   11.79    5.41
   3   6 -14   48.31   11.50
  -3   6 -14   37.44   10.68
   3  -6 -14   45.18   10.49
  -3  -6 -14   33.58    8.57
   3   6  14   21.27    6.51
  -3   6 -14   59.18   11.59
   3   6 -14   56.85   12.77
  -3   6  14   25.46    9.12
  -3  -6 -14   41.20   11.21
  -3   6 -14   33.95    9.21
   3  -6 -14   50.01   11.21
  -3   6 -15    0.64    3.89
   3  -6 -15    5.17    3.87
   3   6 -15    0.17    3.32
  -3   6  15   10.54    7.13
  -3  -6 -15   19.46    6.81
   3   6 -15    9.14    5.35
  -3   6 -15    5.00    4.98
   3   6  15    3.53    5.86
   3  -6 -15    0.05    3.03
  -3   6 -15    3.21    3.59
  -3  -6 -15    0.15    1.80
   3   6 -16    1.08    4.43
  -3   6 -16   -0.47    3.85
   3   6 -16   -1.76    1.92
   3  -6 -16    3.22    5.51
  -3   6  16    4.95    4.67
  -3  -6 -16    2.98    4.46
   3   6  16   -0.25    2.38
  -3   6 -16   -3.94    5.03
   3  -6 -16   -0.73    3.45
  -3   6 -16    0.53    0.79
  -3  -6 -16    0.73    3.12
   3   6 -17   28.29    9.73
  -3   6 -17    8.69    2.22
   3  -6 -17   14.83    6.03
  -3  -6 -17   17.01    7.27
  -3   6  17    5.22    3.44
  -3   6 -17    5.76    0.99
  -3   6 -17    4.24    7.37
   3   6  17    7.60    3.52
   3  -6 -17   16.77    7.64
  -3  -6 -17   16.12    7.51
   3  -6 -18    7.23    6.35
  -3  -6 -18    7.94    3.79
  -3  -6 -18   -0.06    3.09
  -3   6  18    3.83    5.87
  -3   6 -18   -0.40    2.35
   3   6  18    3.56    5.19
   3  -6 -18   16.86    8.14
  -3   6 -18    7.47    5.23
   3  -6 -19    1.72    6.19
  -3   6  19    0.76    3.12
  -3  -6 -19    5.33    3.85
   3   6  19    8.29    8.65
   3  -6 -19   -1.01    3.62
  -3   6 -19   10.12    7.83
   3   6 -19    0.43    6.49
  -3  -6 -19   11.45    6.55
  -3   6 -19    9.34    2.85
   3   6 -19    2.55    6.56
   3  -6 -20    1.86    2.91
  -3  -6 -20    1.68    5.41
  -3   6 -20    9.83    4.95
  -3   6  20   13.39    8.52
  -3  -6 -20   24.80   11.60
   3   6  20   11.29    6.82
   3  -6 -20   15.13    7.45
  -3   6 -20   -0.48    3.72
   3   6 -20    3.51    3.00
   3   6 -20    1.32    5.94
  -3   6 -21   -1.33    4.86
   3  -6 -21    2.98    4.29
  -3  -6 -21    1.60    5.72
  -3   6  21    4.86    5.60
  -3  -6 -21   -3.27    4.82
   3   6  21   -2.21    4.38
   3  -6 -21    3.19    4.26
  -3   6 -21   -1.70    5.12
   3   6 -21   -1.64    3.05
   3   6 -21   -0.51    3.88
   3  -6 -22    0.40    4.14
  -3   6 -22    2.87    2.82
  -3   6  22    5.08    5.30
   3   6  22    0.91    1.75
  -3  -6 -22    5.65    5.06
   3  -6 -22   -2.92    2.21
   3   6 -22    2.61    5.14
  -3   6 -22   -4.98    7.36
   3   6 -22   -0.56    2.58
  -3  -6 -22   -2.02    2.74
   3  -6 -23   -1.31    2.19
  -3   6  23   -2.03    4.35
   3   6  23    2.50    1.60
   3   6 -23    0.68    2.34
   3  -6 -23   -0.79    3.29
  -3   6 -23   -0.43    4.04
   3   6 -23   -6.85    6.38
  -3  -6 -23   -1.66    4.16
  -3  -6 -23   -1.29    5.59
   3   6 -24    3.43    4.03
   3  -6 -24   10.22    8.11
  -3  -6 -24   11.75    7.34
   3   6  24    0.17    4.24
   3   6 -24    3.54    2.88
   3  -6 -24    3.49    5.97
  -3   6 -24   -1.44    3.31
  -3   6  24    8.79    6.90
  -3  -6 -24    1.69    4.75
   3  -6 -25   -0.60    4.72
   3   6 -25    6.45    5.42
  -3   6  25   -1.62    4.68
   3   6  25    3.73    5.22
   3  -6 -25   -1.82    3.83
  -3   6 -25   -1.68    5.67
  -3  -6 -25    2.12    3.84
   3   6 -25    3.69    1.56
  -3  -6 -25    2.47    7.27
   3  -6 -26    0.99    6.64
  -3   6 -26    0.09    5.46
   3   6  26   -1.12    6.21
  -3   6  26    3.77    7.17
   3  -6 -26   -0.14    4.63
  -3  -6 -26    4.77    6.80
   3   6 -26    0.97    3.32
   3   6 -26    4.48    5.72
  -3  -6 -26   10.28    7.46
   3  -6 -27    1.72    5.13
   3   6 -27    2.16    0.31
  -3   6  27    3.52    4.51
  -3  -6 -27    7.68    5.31
   3   6  27   -3.01    3.95
   3  -6 -27    3.89    6.36
  -3   6 -27   -2.32    2.97
   3   6 -27    2.27    4.95
  -3  -6 -27    4.60    5.88
   3  -6 -28   -1.45    2.09
   3   6 -28   -3.05    4.23
  -3   6  28   -2.79    2.75
  -3  -6 -28    8.56    7.21
   3   6  28   -1.97    4.55
  -3   6 -28   -2.89    1.57
   3   6 -28    1.22    2.69
  -3  -6 -28    1.24    1.58
   3  -6 -28   -0.36    5.73
   3  -6 -29   14.18    6.50
   3   6 -29   12.88    9.78
  -3  -6 -29    6.41    5.07
  -3   6 -29   15.11   10.18
   3   6 -29   22.90    6.82
  -3   6  29    5.86    7.53
  -3  -6 -29    9.24    2.45
   3   6  29   11.84    8.43
   3   7   0    1.21    3.27
  -3   7   0   -2.01    2.51
   3   7   0   -0.87    2.47
  -3   7   0   -1.17    1.36
  -3   7  -1  441.53   32.01
  -3   7   1  400.30   30.11
   3   7  -1  376.58   28.02
   3   7   1  248.94   22.28
  -3   7  -1  336.87   21.01
   3   7  -1  422.79   29.12
  -3  -7  -1  266.31   24.28
   3   7   1  446.37   30.01
  -3   7   1  365.95   24.52
  -3   7  -2    5.53    2.93
  -3   7  -2    4.36    3.12
   3   7  -2   10.29    4.89
  -3   7   2    7.05    4.15
  -3   7   2    7.87    5.22
   3   7   2    4.61    3.60
  -3  -7  -2    7.56    3.70
   3   7  -2   20.30    6.60
   3   7   2    9.50    4.24
   3   7  -3  597.14   35.45
  -3   7   3  579.92   36.09
   3   7   3  742.31   38.03
  -3   7  -3  501.86   28.31
   3   7  -3  503.43   33.65
  -3  -7  -3  399.41   30.46
  -3   7  -3  365.90   30.58
   3   7   3  447.92   31.42
   3   7   4  771.02   41.13
  -3   7  -4  731.05   42.55
   3   7  -4  729.23   39.72
  -3   7  -4  630.52   29.89
  -3   7   4  615.38   36.07
   3   7  -4  621.38   38.24
   3   7   4  613.93   36.05
  -3  -7  -4  683.82   40.72
  -3   7  -4  670.04   24.70
  -3   7  -5  623.31   39.76
   3   7   5  754.92   40.53
   3   7  -5  732.11   40.51
  -3   7   5  479.67   32.23
   3   7  -5  644.46   38.37
   3   7   5  815.23   42.31
  -3  -7  -5  764.02   42.13
  -3   7  -5  992.26   34.63
   3  -7  -5  711.29   36.96
  -3   7  -5  764.83   33.91
   3   7  -6   96.81   14.57
   3  -7  -6  109.38   14.77
  -3   7  -6   51.20   11.18
  -3   7   6   79.05   13.63
   3   7  -6   79.53   13.20
   3   7   6  144.17   17.73
   3   7   6  112.95   16.67
  -3   7  -6   88.90   11.94
  -3  -7  -6   86.78   14.49
  -3   7  -7   -0.76    5.20
   3   7  -7   -1.18    3.08
  -3   7  -7    0.18    2.23
   3   7   7    3.63    2.60
  -3  -7  -7   -0.83    2.59
   3  -7  -7    1.07    1.46
  -3   7   7   -0.22    3.07
   3   7   7   -2.99    4.50
  -3   7  -7    4.24    3.56
   3   7  -7   -0.22    0.39
   3  -7  -7    0.90    1.38
   3   7  -8  175.95   21.48
  -3   7   8  206.79   22.48
   3  -7  -8  135.36   10.50
  -3  -7  -8  174.21   20.27
  -3   7  -8  181.63   22.66
  -3   7  -8  256.47   22.16
  -3   7  -8  274.60   21.56
   3  -7  -8  237.37   21.77
   3   7  -8  159.13   19.75
  -3   7   9  330.11   28.58
   3   7   9  513.57   36.97
  -3   7  -9  469.64   31.13
  -3  -7  -9  444.86   32.88
   3  -7  -9  248.37   15.87
   3  -7  -9  455.29   31.81
   3   7  -9  325.42   28.03
   3   7  -9  333.22   28.78
  -3   7  -9  260.60   27.57
  -3   7 -10   41.18    8.83
   3   7 -10   24.35    7.70
  -3   7  10   64.07   13.29
  -3  -7 -10   56.31   12.43
   3   7  10   48.50   12.09
   3   7 -10   41.72   10.03
  -3   7 -10   70.24   11.57
  -3  -7 -10   39.75   10.40
   3  -7 -10   23.52    5.69
   3  -7 -10   52.15   10.99
  -3   7 -10   46.07   11.60
  -3   7 -11    1.81    2.72
  -3   7 -11   -1.36    2.24
   3   7 -11   -0.91    2.81
   3   7 -11    1.23    3.80
  -3   7  11   -0.82    3.55
  -3  -7 -11    2.89    3.84
   3   7  11   -3.06    5.60
   3  -7 -11    1.80    2.04
  -3  -7 -11    0.19    3.95
  -3   7 -11    2.21    3.56
   3  -7 -11    0.66    3.48
  -3   7 -12   31.22    9.67
  -3  -7 -12   66.92   13.35
  -3   7  12   63.92   14.09
  -3   7 -12   52.30   10.43
   3   7 -12   64.41   12.55
   3  -7 -12   66.91   11.05
  -3   7 -12   22.98   11.28
  -3  -7 -12   65.22   13.84
   3   7  12   25.87    9.80
   3   7 -12   57.11   12.20
   3  -7 -12   50.02   11.79
   3  -7 -13  478.07   31.37
  -3   7  13  726.18   48.69
  -3   7 -13  622.29   38.47
  -3  -7 -13  632.13   42.91
   3   7 -13  552.84   39.98
   3  -7 -13  438.63   35.03
  -3  -7 -13  525.74   38.62
   3   7 -13  379.02   31.21
  -3   7 -13  545.74   38.97
   3  -7 -14   20.27    7.33
   3   7 -14   13.11    6.62
  -3   7 -14   10.91    7.08
   3   7 -14   17.63    7.56
  -3   7  14    5.88    4.66
   3   7  14   17.91    8.09
   3  -7 -14   10.38    5.80
  -3   7 -14    8.72    4.36
  -3  -7 -14    0.92    6.44
  -3   7 -14   17.40    6.19
  -3  -7 -14    7.16    2.87
  -3   7 -15    6.20    1.49
   3   7 -15    5.47    1.27
   3   7 -15    9.83    5.60
  -3  -7 -15    4.82    2.78
   3  -7 -15   -1.83    5.19
  -3   7  15    3.38    4.05
   3  -7 -15   10.34    5.83
  -3   7 -15    4.80    2.72
   3   7  15    9.45    6.19
  -3   7 -15   -0.78    2.59
  -3  -7 -15    5.91    5.02
   3   7 -16   26.73   10.84
   3  -7 -16   28.72    8.83
  -3   7 -16   20.20    9.49
   3   7 -16   21.88    8.36
  -3   7  16   12.90    7.94
   3   7  16   15.22    6.95
  -3   7 -16   15.56    7.02
   3  -7 -16   18.34    6.94
  -3   7 -16   21.47    8.53
  -3  -7 -16   20.91    7.43
  -3  -7 -16   29.02    9.87
  -3   7 -17  185.02   23.77
  -3   7  17  115.40   19.78
  -3  -7 -17  205.08   26.22
   3   7  17  191.95   24.56
   3   7 -17  255.14   28.25
   3  -7 -17  141.61   20.25
  -3  -7 -17  217.83   25.74
   3  -7 -17  177.51   23.56
   3   7 -17  173.55   24.53
  -3   7 -17  285.89   32.06
   3   7 -18    7.83    5.52
   3  -7 -18    4.88    2.57
  -3   7  18   12.36    7.09
   3   7  18   17.40    7.20
  -3  -7 -18    3.87    2.06
  -3   7 -18   14.69    8.11
  -3   7 -18    6.53    8.86
   3  -7 -18    7.84    7.22
  -3   7 -18    0.50    3.67
  -3  -7 -18    4.59    4.01
   3   7 -18    7.19    2.20
  -3   7 -19   98.65   18.75
  -3   7  19  142.26   23.32
   3   7 -19  112.12   19.46
   3   7  19  127.40   20.39
  -3  -7 -19  131.34   21.28
   3  -7 -19  141.26   21.65
  -3   7 -19   45.60   17.28
  -3  -7 -19  122.50   19.87
   3  -7 -19   99.59   18.94
  -3   7 -19  111.78   20.87
  -3   7  20    2.38    1.99
   3  -7 -20   11.13    6.51
   3   7  20   19.81    8.51
  -3   7 -20   -7.66    3.27
   3  -7 -20   17.71    9.42
  -3   7 -20   16.24    9.51
  -3  -7 -20   14.22    6.91
   3   7 -20   25.70   10.83
   3   7 -20    5.56    6.07
  -3  -7 -20   24.83    9.42
   3  -7 -21   31.60   10.62
   3   7  21   23.41    9.13
  -3   7  21   32.73   11.71
  -3  -7 -21   22.05    9.95
  -3   7 -21   23.43   11.06
   3   7 -21   12.23    6.94
  -3  -7 -21   26.56    9.06
   3   7 -21   38.84   12.80
   3  -7 -22   12.30    5.87
  -3  -7 -22   11.48    8.28
  -3   7  22   11.74    7.87
   3   7  22    1.08    3.02
  -3  -7 -22   15.60    3.02
  -3   7 -22   12.75    6.43
   3   7 -22   20.30    9.74
   3   7 -22   16.38    8.96
   3   7 -23   98.25   17.87
  -3   7  23  153.17   24.75
   3   7  23   68.54   16.23
  -3  -7 -23  104.12   21.03
   3  -7 -23   96.42   19.28
  -3  -7 -23   98.43   18.54
   3   7 -23  109.48   21.65
  -3   7 -23   86.28   18.47
  -3   7  24   -2.58    3.14
   3   7  24   -1.59    3.63
   3   7 -24    2.70    3.92
   3  -7 -24   -4.74    5.42
  -3   7 -24    5.11    2.85
   3   7 -24   -2.23    3.34
  -3  -7 -24   -5.41    6.28
   3  -7 -25    9.22    7.98
   3   7 -25   16.05    7.23
   3   7  25   16.56    8.68
  -3  -7 -25   14.35    9.13
  -3   7  25   22.02   11.55
   3   7 -25   10.82    7.51
  -3   7 -25    4.86    7.82
  -3  -7 -25    1.01    5.04
   3  -7 -26    2.90    5.07
  -3   7 -26    3.31    6.55
   3   7 -26   11.21    9.53
  -3   7  26    2.25    2.37
   3   7  26    5.70    6.16
  -3  -7 -26   -2.84    4.97
   3   7 -26    0.53    1.79
  -3  -7 -26   -1.26    5.20
   3   7  27   67.52   16.70
   3  -7 -27   77.72   18.13
   3   7 -27   99.18   21.37
  -3   7  27  134.53   24.64
  -3  -7 -27  111.40   22.45
  -3  -7 -27  112.44   21.72
   3   7 -27   97.10   19.28
  -3   7 -27   72.68   19.02
   3  -7 -28    4.22    4.73
   3   7 -28    3.90    6.04
  -3   7  28    4.06    2.83
   3   7 -28    7.35    6.67
   3   7  28    3.25    5.90
  -3  -7 -28   11.45    7.68
  -3   7 -28    6.45    3.84
  -3  -7 -28   -1.58    4.71
  -3   8   0   -0.08    1.12
  -3   8   0   -2.51    3.59
   3   8   0    1.80    1.40
   3   8   0   -1.62    1.39
  -3   8  -1   11.89    4.53
  -3   8   1    8.34    3.44
   3   8  -1   11.26    6.70
   3   8   1   11.87    4.41
  -3   8  -1   16.48    4.65
  -3   8   1   16.89    6.79
   3   8  -1    9.92    4.60
   3   8   1   26.81    8.10
   3   8  -2    0.35    0.68
  -3   8  -2   -2.38    1.31
   3   8  -2   -0.23    2.80
  -3   8   2   -0.27    2.34
  -3   8   2    3.55    2.32
   3   8   2   -0.27    2.80
   3   8   2   -1.43    2.97
  -3  -8  -2    0.75    3.81
  -3   8  -2    0.74    1.65
   3   8  -3   66.79   11.90
  -3   8   3   91.47   14.98
   3   8   3   66.53   12.00
  -3   8   3   95.99   13.75
  -3   8  -3   76.89   11.94
   3   8  -3   61.94   12.31
  -3  -8  -3   85.69   14.90
   3   8   3   67.56   12.99
  -3   8  -3   95.23   16.59
   3   8   4   19.87    7.39
  -3   8  -4   23.68    6.06
   3   8   4   18.82    6.28
  -3   8  -4   26.03    8.85
   3   8  -4   24.37    7.59
   3   8  -4   15.86    5.43
  -3   8   4    5.93    3.18
  -3  -8  -4   23.16    7.69
  -3   8  -5   50.05    9.74
   3   8  -5   45.24   10.80
  -3   8  -5   29.64    9.21
   3   8  -5   25.91    7.93
  -3   8   5   38.37   10.27
   3   8   5   21.12    9.52
  -3  -8  -5   25.93    7.67
   3   8   5   42.31   10.15
   3   8  -6   37.09    9.20
  -3   8  -6   43.65    9.00
  -3   8  -6   41.36   10.65
   3   8  -6   52.52   10.16
  -3   8   6   37.52   10.23
   3   8   6   30.22    9.81
  -3  -8  -6   41.69   10.02
   3  -8  -6   37.84    9.62
   3   8   6   35.46    9.15
  -3   8  -7   14.75    6.19
   3   8  -7    6.89    6.51
  -3   8   7   12.61    5.60
   3   8   7   16.95    6.19
  -3   8  -7   10.34    5.10
   3   8   7    6.37    5.35
  -3  -8  -7    9.54    6.02
   3  -8  -7   13.19    6.42
   3   8  -7    9.81    4.37
   3   8  -8   57.23   13.24
  -3   8   8   50.13   11.09
  -3   8  -8   41.88   12.53
   3   8   8   70.78   13.67
   3   8   8   88.74   15.88
  -3  -8  -8   62.88   12.95
   3  -8  -8   62.44   12.84
  -3   8  -8   63.18   11.70
   3   8  -8   55.29   12.15
   3   8  -9  103.74   16.64
  -3   8   9  111.26   17.12
   3   8   9  111.03   18.09
  -3  -8  -9  108.28   16.73
  -3   8  -9   66.95   12.32
   3  -8  -9  145.69   18.26
   3   8  -9   95.17   15.91
  -3   8  -9  118.76   19.08
  -3   8 -10   37.37   10.96
   3   8 -10   17.31    7.15
  -3   8 -10   25.20    7.89
  -3   8  10   35.67   10.39
   3   8  10   33.28    9.56
  -3  -8 -10   31.47    8.87
   3   8 -10   14.65    6.75
  -3   8 -10   20.73    8.66
   3  -8 -10    5.44    2.29
  -3   8 -11    5.53    6.57
  -3   8 -11    3.38    2.65
   3   8 -11    0.35    2.28
  -3   8  11    2.23    3.74
   3   8 -11    3.83    5.42
   3   8  11    1.01    2.05
  -3  -8 -11   -0.38    4.05
  -3   8 -11    3.41    3.73
   3  -8 -11    2.56    2.48
   3   8  12    8.22    4.09
  -3   8 -12   12.44    6.51
  -3   8 -12   10.10    6.67
   3   8 -12   14.86    6.72
   3   8 -12    5.16    1.36
  -3   8  12   11.80    6.00
  -3  -8 -12   21.37    8.12
  -3  -8 -12    8.65    6.24
  -3   8 -12   14.03    6.03
   3  -8 -12    3.71    4.68
  -3   8 -13    7.32    3.27
   3   8 -13    3.90    2.21
   3   8 -13    1.93    2.43
   3   8  13    8.22    6.39
  -3   8  13    4.65    5.14
  -3  -8 -13    3.74    5.17
  -3   8 -13    9.01    6.54
  -3  -8 -13    2.49    3.63
   3  -8 -13    3.05    4.65
  -3   8 -13    6.48    5.24
  -3  -8 -14   -3.94    5.89
   3   8 -14    3.35    5.34
  -3   8 -14   -1.30    3.99
  -3   8  14    6.58    6.56
  -3   8 -14    1.01    2.70
   3   8 -14   -0.14    4.45
   3   8  14   -0.97    3.40
  -3  -8 -14    4.73    3.97
  -3   8 -14    4.15    4.53
   3  -8 -14    4.58    3.88
   3   8 -15   40.04   10.27
  -3   8 -15   44.12   13.51
   3   8 -15   29.55   10.26
   3   8  15   46.49   12.69
  -3  -8 -15   24.03    8.77
  -3   8  15   39.24   11.21
  -3  -8 -15   35.54   10.55
  -3   8 -15   34.92   10.84
  -3   8 -15   43.92   12.52
   3  -8 -15   16.54    7.45
   3   8 -16    1.21    3.72
  -3   8 -16    0.30    5.65
  -3   8  16    3.09    6.66
   3   8 -16    2.73    3.81
  -3  -8 -16   -2.14    3.50
   3   8  16    3.47    1.99
  -3   8 -16   -4.48    2.94
  -3   8 -16   -1.80    2.61
  -3  -8 -16    5.63    4.74
   3  -8 -16   -4.48    6.72
   3   8 -17   45.34   14.11
  -3   8 -17   48.05   13.03
   3   8 -17   46.49   12.14
   3   8  17   58.76   15.56
  -3  -8 -17   44.83   12.69
  -3   8 -17   21.43    6.92
  -3  -8 -17   29.38   10.39
  -3   8  17   55.49   14.09
   3  -8 -17   37.26   10.86
  -3   8 -18    8.45    7.72
   3   8 -18    6.64    7.37
   3   8  18    5.05    6.72
   3   8 -18    4.10    1.39
  -3   8  18    4.72    5.92
  -3  -8 -18    3.32    4.84
  -3   8 -18   -0.17    2.78
  -3  -8 -18    2.16    3.42
   3  -8 -18   -3.08    5.32
  -3   8 -19   12.50    8.73
   3   8 -19    3.79    5.10
   3   8 -19   -0.12    3.05
  -3   8  19    0.17    3.16
   3   8  19    3.27    2.95
  -3  -8 -19    9.33    2.91
   3  -8 -19   11.23    7.32
  -3   8 -19   12.17    8.17
  -3  -8 -19    2.83    2.35
   3   8 -19    2.20    1.98
  -3   8 -20   14.72   10.03
   3   8 -20   13.11    5.86
   3   8  20   10.33    7.83
  -3  -8 -20   27.31   11.43
   3  -8 -20    3.52    3.92
  -3   8 -20    3.71    4.55
  -3  -8 -20   11.62    6.57
   3   8 -20   -0.83    2.30
  -3   8  20    6.75    7.69
   3  -8 -21    2.65    3.43
   3   8 -21    5.93    6.31
  -3  -8 -21    8.91    7.48
  -3   8  21    1.57    3.36
   3   8 -21   -0.49    6.38
   3   8  21    1.60    1.71
  -3   8 -21    0.50    5.59
  -3  -8 -21    0.26    0.94
   3  -8 -22   -3.88    7.21
  -3   8  22    0.03    3.58
   3   8  22   -3.58    6.91
  -3   8 -22    2.60    0.46
  -3  -8 -22    1.40    2.00
   3   8 -22    0.48    6.35
  -3  -8 -22    2.16    3.87
   3   8 -22   -0.77    2.38
   3  -8 -23   -2.11    5.75
  -3   8  23    6.92    5.38
   3   8  23    3.45    4.76
  -3  -8 -23    0.49    5.16
  -3   8 -23    1.85    5.65
   3   8 -23    5.05    7.02
  -3  -8 -23    2.75    5.15
   3   8 -23    8.00    9.48
  -3  -8 -24    4.46    4.37
   3  -8 -24    8.11    6.20
  -3   8  24   -1.95    5.38
   3   8  24    4.23    4.30
  -3  -8 -24    4.39    7.46
   3   8 -24    6.87    3.99
   3   8 -24    0.37    2.70
  -3   8 -24    8.64    6.63
   3  -8 -25    9.21    7.16
   3   8 -25    2.59    3.21
  -3  -8 -25   14.54    8.41
  -3   8  25    1.97    6.37
   3   8  25    8.23    5.69
   3   8 -25    2.03    2.70
  -3   8 -25    3.19    1.77
  -3  -8 -25   -2.77    2.70
   3  -8 -26   -7.38    8.41
  -3  -8 -26   -2.93    7.34
  -3   8  26   -2.68    4.17
   3   8  26    1.39    2.60
   3   8 -26    3.83    5.85
  -3   8 -26    1.58    3.63
  -3  -8 -26    1.56    1.98
   3   8 -26    8.13    6.04
   3  -8 -27   -0.82    1.15
   3   8 -27    5.35    7.18
   3   8 -27    3.18    7.53
  -3   8  27    4.88    6.63
   3   8  27   -0.40    1.89
  -3  -8 -27   -1.10    4.40
  -3   8 -27    1.80    5.01
  -3  -8 -27    8.10    8.43
  -3   9   0   -1.67    0.84
  -3   9   0   -0.41    1.78
   3   9   0   -3.87    5.02
   3   9   0    2.17    6.07
  -3   9  -1  463.92   37.20
  -3   9   1  347.47   32.35
   3   9  -1  400.02   33.29
   3   9   1  456.84   34.57
   3   9  -1  470.94   34.35
   3   9   1  334.83   27.88
  -3   9  -1  321.81   25.56
  -3   9   1  494.71   31.24
  -3   9  -2   71.20   15.20
   3   9   2   45.89   10.60
   3   9  -2   48.44   12.07
  -3   9  -2   56.38   10.83
   3   9   2   36.54    9.25
   3   9  -2   45.82   10.44
  -3   9   2   63.95   12.06
  -3   9   2   70.54   14.30
  -3   9  -3    2.13    4.18
   3   9  -3   -0.36    2.07
  -3   9  -3   -0.97    2.92
  -3   9   3   -1.54    2.34
  -3  -9  -3   -0.32    2.68
   3   9   3   -0.53    2.15
   3   9  -3   -0.99    3.09
  -3   9   3   -0.95    2.19
   3   9   3    0.23    1.66
  -3   9  -4  105.18   18.09
   3   9  -4  159.51   20.75
  -3   9  -4  140.69   16.86
  -3   9   4  125.85   19.18
  -3   9   4  138.17   17.38
   3   9   4  149.19   20.01
   3   9   4   91.98   15.80
   3   9  -4  198.14   23.81
  -3  -9  -4  140.16   19.79
  -3   9  -5  526.19   39.86
  -3   9  -5  600.98   34.96
   3   9  -5  582.19   41.22
  -3   9   5  507.10   37.41
   3   9  -5  504.70   37.30
   3   9   5  425.62   33.02
  -3  -9  -5  514.12   37.96
  -3   9   5  453.98   32.66
   3   9   5  609.03   41.05
  -3   9  -6  109.26   18.76
   3   9  -6  179.30   22.17
   3   9   6  172.97   21.22
   3   9  -6  133.08   18.32
  -3   9   6  160.34   21.00
   3   9   6  167.84   21.27
  -3  -9  -6  147.18   20.88
  -3   9  -6  168.55   18.99
  -3   9  -7  108.12   18.64
   3   9  -7   97.33   16.74
   3   9  -7  130.63   18.91
   3   9   7  125.53   17.94
  -3   9   7  117.38   17.10
   3   9   7   86.30   15.72
  -3  -9  -7  122.56   18.94
  -3   9  -7   76.38   12.98
  -3   9  -8   87.88   17.80
  -3  -9  -8  101.09   16.78
   3   9  -8   67.03   13.78
   3   9   8   69.22   14.37
  -3   9   8   43.87   10.16
   3  -9  -8   83.87   15.14
  -3   9  -8   79.84   13.64
   3   9   8   53.04   12.51
   3   9  -8   90.27   16.53
  -3   9  -9  177.90   24.19
   3   9  -9  245.90   28.18
  -3   9   9  200.33   24.27
   3   9   9  241.07   25.82
   3   9   9  240.29   26.48
  -3  -9  -9  270.80   28.77
  -3   9  -9  203.08   21.68
   3  -9  -9  286.99   28.52
   3   9  -9  242.28   26.57
  -3   9  10  103.32   17.36
   3   9  10  138.61   20.07
  -3  -9 -10  131.82   19.25
  -3   9 -10   97.83   16.38
   3  -9 -10  141.13   20.58
   3   9 -10  106.84   17.83
  -3   9 -10  159.20   22.46
   3   9 -10  108.80   18.73
  -3   9 -11   31.21    8.90
   3   9 -11   31.75    8.75
   3   9 -11   33.70   11.32
   3   9  11   38.03   12.23
  -3   9  11   40.91   11.04
  -3   9 -11   58.00   14.44
  -3  -9 -11   29.25    9.82
   3  -9 -11   30.75    8.94
  -3   9 -12    6.80    4.14
  -3   9 -12   -8.89    4.75
   3   9 -12   12.41    8.08
  -3   9  12    6.89    5.76
   3   9 -12    5.35    3.78
   3   9  12   10.95    6.22
  -3  -9 -12    5.55    2.93
   3  -9 -12    2.33    1.71
  -3   9  13   99.60   18.39
  -3  -9 -13   90.09   17.52
   3   9  13   53.44   14.13
   3   9 -13   68.90   14.74
   3  -9 -13   69.51   13.32
  -3   9 -13   75.01   15.58
   3   9 -13   73.22   15.00
  -3   9 -14   30.64   10.30
   3   9 -14   55.08   13.52
  -3  -9 -14   50.01   12.59
   3   9 -14   42.65   11.42
   3   9  14   42.15   12.15
  -3  -9 -14   37.48   10.62
  -3   9  14   60.59   14.70
   3  -9 -14   50.16   11.95
   3   9 -15    7.77    6.13
  -3   9 -15    0.23    4.08
  -3  -9 -15   11.76    6.63
   3   9 -15    5.49    4.21
  -3   9  15   10.88    6.66
   3   9  15    8.34    5.17
  -3  -9 -15    1.31    1.73
   3  -9 -15    9.80    7.87
  -3   9  16  144.95   23.48
   3   9  16  135.20   21.62
  -3  -9 -16  139.14   21.59
  -3  -9 -16   79.17   16.14
   3   9 -16  125.82   21.57
   3  -9 -16  126.47   19.74
   3   9 -16  124.17   20.09
  -3   9 -16  113.22   20.70
   3   9  17  102.39   19.13
   3   9 -17  118.04   20.80
  -3  -9 -17   87.61   17.94
  -3  -9 -17   74.19   15.74
   3  -9 -17   63.98   14.32
   3   9 -17  123.14   22.09
  -3   9 -17  117.55   21.03
   3   9 -18    4.05    7.01
  -3   9 -18    8.14    7.37
  -3  -9 -18   -4.62    4.82
   3   9 -18   -2.72    1.96
   3   9  18    2.47    4.44
  -3   9  18   -1.01    2.43
  -3  -9 -18    3.49    8.11
   3  -9 -18    3.27    4.38
   3   9 -19   42.18   12.49
  -3   9 -19   76.48   18.36
   3   9 -19   70.57   16.91
   3  -9 -19   62.28   15.25
  -3   9  19   62.21   18.99
   3   9  19   51.38   16.99
  -3  -9 -19   76.72   15.43
   3   9 -19   46.99   14.53
  -3  -9 -19   58.83   15.24
   3   9 -20   49.96   13.17
   3   9 -20   37.89   13.48
  -3  -9 -20   65.07   16.03
  -3   9 -20   46.62   14.55
  -3   9  20   94.53   18.85
   3   9  20   65.89   17.02
  -3  -9 -20   33.07   11.41
   3   9 -20   34.43   11.89
   3  -9 -20   44.03   12.97
  -3   9 -21   28.92   11.66
  -3   9  21   33.51   12.74
   3   9  21   37.43   11.90
  -3  -9 -21    8.88    5.70
  -3  -9 -21   18.22    7.26
   3   9 -21   11.02    5.72
   3  -9 -21   28.26   11.42
   3   9 -21   17.87    7.90
   3   9 -22   -1.24    2.66
  -3  -9 -22    1.23    6.28
   3   9  22   -1.75    2.50
  -3   9  22   -2.23    3.24
  -3  -9 -22   -3.90    5.16
   3   9 -22    2.51    7.26
   3  -9 -22    2.48    2.42
  -3  -9 -23   61.36   16.09
  -3   9  23   73.88   18.56
   3   9  23   70.66   17.97
  -3  -9 -23  100.99   20.18
   3   9 -23   55.68   16.18
   3   9 -23   69.67   16.98
   3  -9 -23   45.08   13.89
   3   9  24   31.96   10.90
  -3  -9 -24   28.38   13.85
  -3   9  24   20.43    9.95
   3   9 -24   16.26    9.52
  -3  -9 -24   10.65    6.88
   3   9 -24   27.11   10.87
   3  -9 -24   21.94    5.93
   3   9 -25   18.90    9.50
   3   9  25   14.26    7.35
  -3  -9 -25    1.26    2.66
  -3   9  25    2.89    2.18
   3   9 -25   -6.83    6.70
  -3  -9 -25    7.85    1.93
   3  -9 -25   -0.86    3.61
  -3   9  26    3.06    4.53
   3   9  26    6.23    8.63
  -3  -9 -26    0.12    0.73
   3   9 -26   12.96    6.13
  -3  -9 -26    2.13    4.99
   3   9 -26    0.52    7.49
   3  -9 -26   10.84    7.56
  -3  10   0   -3.83    5.82
   3  10   0   -3.27    4.99
  -3  10   0    1.13    1.79
   3  10   0   -0.13    3.50
  -3  10  -1    1.12    1.74
  -3  10   1    7.57    4.93
  -3  10  -1    2.14    4.69
  -3  10   1    6.64    5.93
   3  10  -1    8.76    5.15
   3  10   1    7.76    8.21
   3  10  -1    3.33    5.13
   3  10   1    9.04    5.59
  -3  10   2    2.87    2.57
   3  10   2   -2.56    5.25
  -3  10  -2   -2.14    3.55
   3  10  -2   -1.48    3.62
  -3  10   2   -6.34    6.79
   3  10   2   -1.69    2.65
  -3  10  -2    1.17    2.13
   3  10  -2    3.54    0.37
  -3  10  -3   11.67    8.16
   3  10  -3   15.28    6.41
  -3  10  -3   13.36    6.44
   3  10   3    7.74    5.73
  -3  10   3   20.28    9.09
   3  10   3   10.42    6.56
   3  10  -3   10.32    8.70
  -3  10   3   14.11    6.91
  -3  10  -4    0.95    1.52
  -3  10  -4    2.13    5.25
   3  10  -4    7.02    5.43
  -3  10   4    2.72    2.07
   3  10   4   10.25    5.55
  -3  10   4   -0.92    2.66
   3  10   4    4.59    3.78
  -3  10   5    5.15    6.55
   3  10  -5   -1.65    0.90
  -3  10  -5   -1.90    3.30
   3  10  -5    3.52    4.39
  -3  10   5    2.16    1.78
   3  10   5    5.75    6.27
   3  10   5    6.00    5.00
  -3 -10  -5   -1.90    2.76
  -3  10  -5    0.92    1.14
   3  10  -6    4.28    4.40
   3  10   6    8.93    8.90
  -3  10  -6   15.58    8.14
  -3  10   6    5.61    5.48
   3  10  -6   -2.28    4.73
  -3  10   6    1.68    2.49
   3  10   6    2.04    1.50
  -3 -10  -6   -0.66    2.60
  -3  10  -6    2.24    4.06
  -3  10  -7    6.03    6.14
   3  10  -7   31.80   10.46
   3  10   7   20.17    7.63
  -3  10   7   19.06    7.95
  -3 -10  -7   12.64    6.33
  -3  10  -7   39.50   11.76
   3  10  -7   21.41    8.00
   3  10   7   23.42    8.70
  -3  10  -8  121.55   21.71
   3  10  -8   96.63   17.58
   3  10   8   69.20   14.03
  -3  10   8   65.71   14.42
   3  10   8  126.24   19.71
  -3 -10  -8   77.42   16.24
   3  10  -8  102.77   17.54
   3  10  -9   42.23   11.91
  -3  10  -9   18.20    5.79
   3  10  -9   47.51   12.61
  -3  10   9   64.01   14.42
   3  10   9   42.71   12.13
  -3 -10  -9   37.51   11.36
   3  10   9   35.93   10.31
  -3  10 -10   47.40   14.11
   3  10 -10   49.71   12.42
  -3  10  10   48.73   12.65
   3  10  10   57.25   13.96
   3  10 -10   40.70   11.12
   3 -10 -10   34.56   10.57
   3  10  10   39.63   10.55
  -3 -10 -10   37.85   11.44
  -3  10 -11   -2.88    3.34
   3  10 -11   -0.40    1.68
  -3  10  11    0.73    3.11
   3  10 -11   -3.01    6.07
  -3 -10 -11    2.04    2.21
   3  10  11   -2.35    2.94
   3  10  11    1.03    2.41
   3 -10 -11    0.28    0.25
   3  10  12    1.22    4.28
  -3  10 -12   -0.82    1.52
   3  10 -12   -0.44    3.77
  -3  10  12   -0.34    3.28
  -3 -10 -12    5.35    4.51
   3  10 -12    1.68    4.39
   3 -10 -12    3.19    5.05
  -3  10 -13   -0.40    2.74
   3  10 -13   12.43    6.83
   3  10 -13    3.00    2.90
  -3  10  13    3.82    4.64
   3  10  13    0.56    4.11
  -3 -10 -13    2.31    3.13
   3 -10 -13   -1.22    2.85
  -3  10 -14   35.73   11.41
   3  10 -14    9.41    3.95
   3  10 -14   13.53    8.42
  -3 -10 -14    5.66    0.92
   3  10  14   25.73    9.07
   3 -10 -14    6.94    6.08
  -3  10  14   21.95    9.35
   3  10 -15   -3.85    5.82
  -3  10 -15   -0.87    1.12
   3  10 -15    3.03    6.64
   3  10  15   -3.48    2.54
  -3 -10 -15    3.78    7.76
  -3  10  15    0.02    2.19
   3 -10 -15    1.99    3.56
   3  10 -16    8.82    6.04
  -3  10 -16    7.80    3.63
   3  10 -16   20.42    8.60
  -3  10  16   15.29    7.78
  -3 -10 -16   19.69   10.46
   3  10  16   18.44   10.25
   3 -10 -16   23.09    9.37
   3  10 -17    8.80    3.21
  -3  10 -17    7.63    4.81
   3  10 -17   14.90    8.39
  -3 -10 -17   14.92    5.71
   3  10  17   10.98    6.44
  -3 -10 -17    6.33    5.17
  -3  10  17    4.35    4.60
   3 -10 -17   -1.90    1.76
   3  10 -18   27.09    9.78
  -3  10 -18   22.54   10.57
   3  10 -18    9.62    5.12
  -3 -10 -18   42.61   12.27
   3  10  18   17.15    8.19
  -3  10  18   27.26    9.56
  -3 -10 -18   27.49    9.81
   3 -10 -18   14.82    5.43
  -3  10 -19    0.14    4.02
   3  10 -19   -1.72    1.81
   3  10 -19    2.37    7.89
   3  10  19   15.07   11.57
  -3  10  19   13.74    9.13
  -3 -10 -19    2.83    3.60
   3 -10 -19   10.98    5.89
  -3 -10 -19    3.61    2.47
   3  10 -19   16.85   10.36
   3  10 -20    8.29    8.66
   3  10 -20    5.57    4.09
  -3  10  20    2.64    3.56
  -3 -10 -20    8.26    6.74
   3  10  20   14.55    8.78
  -3  10 -20    5.18    9.61
  -3 -10 -20    4.53    6.85
   3 -10 -20    9.15    5.40
   3  10 -20    1.75    3.05
   3  10 -21    6.44    8.60
  -3  10 -21   -4.99    1.78
   3  10  21    8.29    7.05
  -3  10  21    2.67    5.58
  -3 -10 -21    4.73    4.70
   3  10 -21    1.29    4.05
  -3 -10 -21    4.06    5.67
   3 -10 -21    6.52    5.35
   3  10 -21    0.46    2.93
  -3  10 -22    0.14    1.99
   3  10 -22    9.06    8.72
  -3  10  22   12.09    7.20
   3  10  22   19.46    9.37
  -3 -10 -22   21.56   11.28
  -3 -10 -22   -4.84    5.80
   3 -10 -22    5.77    2.93
   3  10 -22    0.05    1.96
   3  10  23   -3.30    7.29
  -3  10  23   -6.53    7.42
  -3 -10 -23   14.12   10.59
  -3 -10 -23    8.19    5.99
   3  10 -23    6.11    5.10
   3  10 -23    3.56    4.44
   3 -10 -23    0.25    2.76
   3 -10 -24   -6.07    4.27
   3  10  24    0.11    3.28
  -3 -10 -24   -2.23    4.11
  -3  10  24    0.52    2.83
  -3 -10 -24    0.29    2.41
   3  10 -24   -1.49    3.84
   3  10 -24   -3.28    2.21
  -3  10  25   -3.75    4.46
   3  10  25    7.60    5.97
  -3 -10 -25    1.83    4.96
  -3 -10 -25   15.53   10.06
   3  10 -25    7.47    5.00
   3  10 -25    3.09    2.28
   3 -10 -25    4.20    1.57
  -3  11   0   -3.82    4.59
   3  11   0   -1.79    2.16
  -3  11   0    1.68    1.49
   3  11   0   -0.34    4.96
  -3  11   1   18.25    5.60
  -3  11  -1   15.05    6.16
   3  11  -1   27.61    8.15
  -3  11  -1    5.74    5.25
  -3  11   1   40.27   11.53
   3  11  -1   23.09   10.24
   3  11   1   26.57    9.27
   3  11   1   18.09    7.50
   3  11  -2   90.30   17.52
  -3  11   2  113.23   19.26
   3  11   2   99.69   18.19
  -3  11  -2   54.02   14.38
  -3  11  -2  100.41   17.70
   3  11  -2  124.69   19.80
   3  11   2  124.39   18.25
  -3  11   2  102.22   16.51
   3  11   3   26.64    9.46
  -3  11  -3   13.99    7.75
  -3  11  -3   31.81   11.54
   3  11  -3   26.03    9.56
  -3  11   3   11.09    6.97
   3  11  -3   21.60    9.17
   3  11   3   15.04    7.53
  -3  11   3   19.89    7.24
  -3  11  -4   14.95    6.43
   3  11  -4   23.36    7.19
   3  11  -4   25.04    9.79
  -3  11   4   39.37   12.70
   3  11   4   12.75    6.62
   3  11   4   14.04    7.31
  -3  11   4   32.82    9.40
   3  11  -5   35.71   11.33
  -3  11  -5   16.89    8.87
   3  11  -5   22.26    7.26
  -3  11   5   36.75   10.00
  -3  11   5   17.55    9.52
   3  11   5   24.80    9.28
   3  11   5   26.22    9.75
   3  11  -6   66.76   14.62
  -3  11  -6   63.74   15.12
   3  11  -6   54.36   12.93
  -3  11   6   37.00   11.93
   3  11   6   47.25   12.49
  -3 -11  -6   68.21   13.95
  -3  11   6   51.61   12.47
   3  11   6   69.83   15.38
  -3  11  -7    0.76    3.71
   3  11  -7   -4.25    6.22
  -3  11   7    0.29    1.45
   3  11   7    0.57    2.20
  -3  11   7    5.16    4.71
  -3 -11  -7   -0.16    3.47
   3  11  -7    2.80    4.64
   3  11   7    5.07    6.09
   3  11  -8   -4.39    5.32
  -3  11  -8   12.37    8.23
   3  11   8    0.72    1.77
  -3  11   8    1.55    5.42
   3  11   8    1.02    0.59
  -3 -11  -8    7.54    4.48
   3  11  -8    4.20    2.83
  -3  11   8    5.06    4.69
   3  11   9   -0.97    3.53
  -3  11  -9   16.67    8.90
   3  11  -9   -1.29    6.80
  -3  11   9    2.17    4.00
  -3 -11  -9    6.34    5.93
   3  11   9   -2.72    3.48
   3  11  -9    0.69    1.78
  -3  11 -10    5.40    6.95
   3  11 -10   11.46    7.26
  -3  11  10    8.68    3.95
   3  11  10    5.66    4.04
   3  11 -10   -0.02    4.44
  -3 -11 -10    8.28    1.73
   3  11  10    7.63    5.19
  -3  11 -11   -1.08    2.39
   3  11 -11    0.46    1.99
   3  11  11   -2.28    2.10
   3  11  11    8.05    5.74
  -3  11  11    1.66    0.90
  -3 -11 -11   -4.50    3.33
   3  11 -11    4.41    3.92
  -3  11  12  174.08   25.14
   3  11  12   99.87   18.92
   3  11  12  165.88   23.60
  -3 -11 -12  115.14   20.50
   3 -11 -12  120.45   21.00
   3  11 -12  228.88   29.11
  -3  11 -12  155.11   23.77
   3  11 -12   92.91   18.06
  -3  11 -13    7.37    1.95
   3  11 -13    4.89    6.80
   3  11 -13    5.16    6.22
   3  11  13   -2.27    3.57
  -3 -11 -13   -1.05    2.86
   3  11  13    5.92    3.93
  -3  11  13    6.74    5.28
   3 -11 -13    4.41    2.10
  -3  11 -14   20.83    8.93
   3  11 -14   39.23   12.12
   3  11  14   26.86    9.37
   3  11 -14   32.31   10.64
  -3  11  14   24.49   10.22
   3  11  14   25.26    9.79
  -3 -11 -14    6.10    3.94
   3 -11 -14   32.71   11.34
  -3  11 -15    9.41    8.20
   3  11 -15   22.28    8.62
   3  11 -15    1.16    3.90
  -3  11  15    3.46    5.83
   3  11  15    4.35    7.92
  -3 -11 -15    1.74    2.48
   3 -11 -15    0.05    3.02
   3  11 -16   11.64    8.58
  -3  11 -16    6.09    3.27
   3  11 -16   13.47    8.82
   3  11  16   21.37    8.64
  -3 -11 -16   11.00    8.76
  -3  11  16    5.79    3.99
   3 -11 -16    0.67    4.70
   3  11 -17   -0.27    6.06
  -3  11 -17    1.45    2.89
   3  11 -17    4.57    4.85
   3  11  17    9.04   10.35
  -3  11  17    5.59    6.84
   3 -11 -17    5.27    8.18
  -3 -11 -17   11.19    8.55
   3  11  18    1.71    2.81
   3  11 -18    4.41    3.49
  -3  11 -18   -2.71    0.83
   3  11 -18   -2.51    2.71
  -3  11  18    4.27    4.57
  -3 -11 -18    2.50    3.77
   3 -11 -18    2.12    4.44
   3  11 -18    4.61    5.72
   3  11 -19   24.34   10.21
  -3  11 -19    6.89    7.27
   3  11 -19   17.70    6.99
   3  11  19   10.62    7.88
  -3  11  19    1.69    1.35
  -3 -11 -19   10.10    8.33
   3 -11 -19    9.99    5.15
   3  11 -19   29.31   13.70
   3  11 -20   73.11   18.98
  -3  11 -20   29.74   14.21
   3  11 -20   37.94   13.45
  -3  11  20   26.86    9.88
   3  11  20   48.18   13.36
  -3 -11 -20   45.25   13.82
   3 -11 -20   47.28   12.88
   3  11 -20   33.20   13.16
   3  11 -21    2.78    0.30
   3  11 -21    4.12    1.61
   3  11  21    9.97    9.15
  -3 -11 -21   15.91    9.49
  -3  11 -21    3.74    9.12
  -3  11  21   -2.77    4.90
  -3 -11 -21   10.84    7.25
   3 -11 -21    1.10    5.32
   3  11 -21    0.49    6.09
  -3  11 -22   36.83   14.28
   3  11  22   63.35   16.09
  -3 -11 -22   73.17   17.02
  -3  11  22   57.60   16.76
   3 -11 -22   44.57   12.60
   3  11 -22   66.82   17.79
   3  11 -22   44.39   14.66
   3  11 -22   39.67   13.53
  -3 -11 -22   26.14   10.50
  -3  11  23    0.45    4.11
   3  11  23   -6.17    5.82
  -3 -11 -23    4.11    4.96
   3 -11 -23    9.34    7.22
   3  11 -23   -2.34    6.04
   3  11 -23    2.14    5.16
  -3  11 -23    2.96    3.97
   3  12   0    2.99    6.29
  -3  12   0    4.11    2.14
   3  12   0    1.91    4.59
   3  12  -1   25.21    9.53
  -3  12  -1   32.11   10.95
  -3  12   1    4.69    6.44
   3  12  -1    6.62    3.19
   3  12   1   10.51    5.29
   3  12   1    8.74    3.96
  -3  12   2   10.15    5.23
  -3  12  -2   17.14    9.82
   3  12  -2   22.34    9.48
  -3  12   2    8.10    5.22
   3  12   2    6.97    5.77
   3  12  -2   25.84   10.10
   3  12   2   10.56    6.56
   3  12   3    5.31    7.16
  -3  12  -3    5.79    3.18
   3  12  -3    2.22    6.02
  -3  12   3    5.22    5.38
  -3  12   3    1.02    5.15
   3  12  -3    7.62    5.28
   3  12   3    4.38    4.71
   3  12   4    0.11    4.13
   3  12  -4   -3.56    6.88
  -3  12  -4   -1.49    5.45
   3  12  -4    3.22    6.03
  -3  12   4    0.55    5.19
   3  12   4    3.15    3.82
  -3  12   4   -1.15    3.77
   3  12  -5   -1.36    5.17
  -3  12  -5    7.89    8.18
   3  12  -5    4.29    5.29
  -3  12   5   11.47    8.35
   3  12   5    4.40    3.71
   3  12   5   -2.28    4.88
  -3  12   5    0.39    2.02
  -3  12   6    4.02    5.54
  -3  12  -6    1.97    5.14
   3  12  -6    1.44    6.63
   3  12  -6    0.73    2.38
  -3  12   6    1.28    1.53
   3  12   6   -2.39    3.60
   3  12   6    4.32    2.58
  -3  12  -7    0.21    2.35
   3  12  -7    2.51    1.01
  -3  12   7    6.73    3.61
   3  12   7   -0.84    4.28
  -3 -12  -7    5.09    6.91
  -3  12   7   -0.45    0.76
   3  12   7    4.19    1.34
   3  12  -7   -3.30    2.15
  -3  12   8   -3.03    2.96
  -3  12  -8   -1.86    5.04
   3  12  -8   -5.33    6.60
  -3  12   8    1.25    5.14
   3  12   8   -3.48    5.48
  -3 -12  -8   -1.42    3.50
   3  12  -8   -4.88    7.00
   3  12   8    1.48    5.45
   3  12   9   10.79    7.14
  -3  12  -9   21.90    9.54
   3  12  -9    7.42    3.55
  -3  12   9    2.54    4.44
   3  12   9   12.97    5.25
   3  12  -9   19.54    8.89
  -3  12   9    9.96    6.07
  -3 -12  -9   11.38    7.58
  -3  12  10   12.90    7.37
  -3  12 -10   19.24    7.21
   3  12 -10    0.22    5.04
   3  12  10    6.45    2.14
  -3  12  10    7.57    6.49
   3  12  10    3.60    3.86
  -3 -12 -10   13.32    8.45
   3  12 -10   15.23    7.31
  -3  12 -11   -0.45    2.75
   3  12 -11    4.95    6.11
  -3  12  11   -2.48    2.40
   3  12  11   -0.90    1.13
  -3 -12 -11   -0.92    5.64
   3  12  11    7.14    6.35
   3  12 -11   -0.78    2.69
  -3  12 -12   16.22    8.95
   3  12 -12   13.73    3.16
  -3  12  12    5.27    4.05
   3  12 -12    8.47    6.45
  -3 -12 -12    5.20    6.46
   3  12  12    2.34    3.94
   3  12  12    2.47    4.20
  -3  12 -13   -2.59    0.30
   3  12 -13    2.65    1.14
   3  12  13   -1.14    1.69
   3  12 -13   -1.15    3.72
  -3  12  13    1.31    1.05
   3  12  13   -1.38    2.29
  -3 -12 -13    0.85    2.73
  -3  12 -14    0.79    4.89
   3  12 -14   10.29    7.13
   3  12  14   -0.85    2.77
   3  12 -14    5.16    4.57
  -3  12  14   13.13    6.01
   3  12  14    7.44    5.87
  -3  12 -15    1.12    3.48
   3  12 -15    5.62    5.78
   3  12  15   13.03    7.67
   3  12 -15    7.58    7.05
  -3  12  15    3.59    3.47
   3  12  15   -2.67    4.19
   3 -12 -15    3.53    4.61
   3  12 -16   11.82    7.58
  -3  12 -16    4.52    6.55
   3  12  16    0.55    2.71
   3  12 -16    1.38    6.95
  -3  12  16   -3.25    5.26
   3  12  16    5.95    5.89
   3 -12 -16    2.19    6.08
   3  12 -17   22.26    9.25
  -3  12 -17   39.67   13.39
   3  12 -17   26.19   10.23
  -3  12  17   34.79   12.36
   3  12  17   28.08    9.67
   3  12  17   11.24    4.73
   3 -12 -17   10.70    4.22
   3  12  18    1.95    1.21
   3  12 -18    7.61    6.11
  -3  12 -18    4.12    2.94
   3  12 -18    3.54    6.33
  -3  12  18    6.39    6.27
   3 -12 -18    0.03    8.09
   3  12 -18   -4.25    5.58
   3  12 -19    6.21    8.01
  -3  12 -19    0.46    5.62
   3  12 -19    1.44    3.78
   3  12  19   -6.35    5.38
  -3  12  19   -0.18    0.77
   3 -12 -19    0.49    1.47
   3  12 -19   -1.37    4.66
   3  12 -20    1.99    6.72
  -3  12 -20   -2.69    4.66
   3  12 -20    6.77    7.89
  -3  12  20   -2.10    5.51
   3  12  20    0.42    3.80
   3 -12 -20   -6.60    8.61
   3  12 -20    5.96    7.78
   3  12 -21   -1.10    6.16
  -3  12 -21    4.28    3.99
   3  12 -21    0.88    3.03
   3  12  21   -3.20    7.98
   3 -12 -21    8.73    5.38
  -3  12  21   -3.07    3.59
   3  12 -21   -2.04    2.76
  -3  13   0    2.96    7.41
   3  13   0   -0.07    1.92
   3  13   0   -2.46    5.30
   3  13   1   80.12   18.14
  -3  13  -1   72.84   16.78
  -3  13   1   56.84   14.58
   3  13  -1   37.08   10.54
   3  13  -1   53.47   13.87
   3  13   1   52.54   11.55
  -3  13  -2  108.91   20.99
  -3  13   2   92.54   18.35
   3  13  -2   53.02   14.59
   3  13   2   45.93   13.00
   3  13  -2   59.84   14.70
   3  13   2   63.20   13.88
  -3  13  -3    2.42    6.69
   3  13  -3    5.23    7.11
   3  13  -3    4.53    7.53
  -3  13   3   -0.02    3.72
   3  13   3   -2.82    5.26
   3  13   3   -1.46    2.53
   3  13   4   21.91    9.12
   3  13  -4   29.63    9.93
  -3  13  -4   25.74    9.63
   3  13  -4   26.15   10.87
  -3  13   4   28.69    9.20
   3  13   4   18.78    8.16
   3  13  -5   26.77    9.92
   3  13   5   56.26   13.44
  -3  13  -5   35.00   12.22
   3  13  -5   26.86   11.47
  -3  13   5   23.62    8.48
   3  13   5   48.11   14.25
  -3  13  -6   -0.37    1.52
   3  13  -6   -1.27    2.12
   3  13   6    2.95    3.16
  -3  13   6   -2.38    3.32
   3  13   6   -3.22    3.38
   3  13  -6    3.47    4.73
  -3  13   7   16.62   11.36
  -3  13  -7    5.27    5.13
   3  13  -7   10.03    7.62
  -3  13   7    7.25    7.61
   3  13   7   19.91    8.28
   3  13   7    9.70    5.49
   3  13  -7   11.63    7.23
  -3  13  -8   -1.58    5.10
   3  13  -8    6.87    3.43
  -3  13   8   -0.02    3.92
  -3  13   8    6.58    2.87
   3  13   8    4.98    3.67
   3  13  -8    0.30    2.95
  -3  13  -9   54.73   16.68
   3  13  -9   40.21   13.64
  -3  13   9   71.26   16.87
   3  13   9   26.41   10.10
  -3  13   9   46.96   12.95
   3  13  -9   23.99    8.25
   3  13   9   53.62   14.90
  -3  13  10   -1.51    3.56
  -3  13 -10   -4.06    4.45
   3  13 -10   -6.80    7.97
  -3  13  10   -2.78    5.54
   3  13  10    1.50    2.98
   3  13  10    3.62    3.79
   3  13 -10    6.41    3.31
  -3  13 -11    8.09    7.41
   3  13 -11    3.04    6.80
   3  13  11   17.07    9.59
  -3  13  11   14.62    5.26
   3  13  11   11.73    3.57
   3  13 -11    7.23    0.97
  -3  13  11    8.31    1.22
  -3  13 -12    2.98    2.03
   3  13 -12    7.12    4.41
   3  13 -12    2.15    2.37
   3  13  12    1.11    2.49
  -3  13  12    8.35    5.58
   3  13  12    1.59    2.37
  -3  13  12    2.72    5.06
   3  13  13   61.92   16.89
  -3  13 -13   71.73   16.88
   3  13 -13   45.32   12.76
  -3  13  13   49.47   13.15
  -3  13  13   57.45   14.84
   3  13  13   16.74    8.78
   3  13 -13   79.07   18.25
  -3  13 -14    2.40    2.82
   3  13 -14    2.51    4.05
   3  13 -14    3.71    6.25
  -3  13  14    5.92    6.36
   3  13  14   -5.99    1.96
   3  13  14   -3.86    5.99
  -3  13 -15   -1.83    3.39
   3  13 -15   -2.42    5.76
   3  13  15    7.34    2.04
   3  13 -15   -1.58    3.49
  -3  13  15   -5.05    4.91
   3  13  15   10.66    8.34
  -3  13 -16   10.28    5.62
   3  13 -16    3.85    0.63
   3  13 -16    4.01    3.74
  -3  13  16   14.29    6.57
   3  13  16    4.44    3.56
   3  13  16    6.01    3.94
   3  13 -17    4.48    3.33
  -3  13 -17    3.94    3.64
   3  13 -17   17.91    9.40
  -3  13  17    4.56    2.17
   3  13  17    6.90    4.53
   3  13  17   21.04   11.09
   3  13 -18   -3.39    1.28
  -3  13 -18    7.07    9.37
   3  13 -18   -3.30    5.10
  -3  13  18    6.24    4.06
   3  13  18    0.76    1.43
   3  13  18    4.64    6.80
   3 -13 -18    2.38    3.48
   3  13 -19   20.55   11.00
  -3  13 -19   16.51    9.50
   3  13 -19    9.34    5.15
  -3  13  19    9.05    7.29
   3  13  19    4.19    1.95
   3 -13 -19   16.81    8.22
   3  13  19    8.96    8.92
  -3  14   0   -0.37    5.21
   3  14   0    7.57    8.75
   3  14   0   -1.14    2.00
  -3  14  -1   13.80    8.33
  -3  14   1    4.05    2.86
   3  14  -1   11.58    8.47
   3  14   1    4.46    4.47
   3  14  -1   -2.62    4.73
   3  14   1    8.49    2.03
  -3  14  -2   -1.69    3.89
   3  14  -2    2.80    4.68
  -3  14   2    1.39    5.77
   3  14  -2    2.09    3.61
   3  14   2   -0.66    3.95
   3  14   2   -5.11    5.07
   3  14  -3   -2.42    3.32
  -3  14  -3    7.84    8.87
   3  14  -3    4.37    6.06
  -3  14   3    3.60    4.04
   3  14   3   -0.65    2.71
   3  14   3   -4.29    4.35
   3  14  -4    1.69    4.37
  -3  14  -4   -1.21    2.33
   3  14  -4    0.87    1.04
  -3  14   4   -3.81    5.99
   3  14   4    0.77    5.44
   3  14   4   -0.42    1.66
   3  14   5    7.75    7.40
   3  14  -5    2.38    4.45
  -3  14  -5    1.03    2.24
   3  14  -5   -7.62    7.64
  -3  14   5   -0.50    3.20
   3  14   5    0.81    2.72
   3  14   6   18.23    9.14
  -3  14  -6   12.08    9.12
   3  14  -6   15.07    7.62
  -3  14   6   23.50   10.06
   3  14   6    9.86    7.14
   3  14  -6    2.02    4.44
  -3  14  -7    4.19    4.78
   3  14  -7   14.59    6.50
   3  14   7    4.84    2.41
  -3  14   7   19.44   10.60
   3  14   7    9.74    4.23
   3  14  -7    0.02    3.50
  -3  14  -8   10.68    7.37
   3  14  -8   -1.77    2.69
  -3  14   8    5.57    4.90
   3  14   8   -7.07    8.34
   3  14   8    7.09    6.49
   3  14  -8    2.77    1.45
  -3  14  -9    3.57    6.63
   3  14  -9   -1.91    5.14
   3  14  -9   -2.15    2.81
  -3  14   9   12.12    7.57
   3  14   9   -0.34    6.04
   3  14   9    2.68    1.92
  -3  14 -10   -1.87    5.62
   3  14 -10    8.75    6.90
  -3  14  10   -1.17    5.57
   3  14  10    7.64    5.76
   3  14  10    0.85    2.40
   3  14 -10    3.35    3.18
  -3  14 -11   -3.79    9.11
   3  14 -11    0.67    3.92
  -3  14  11   -1.20    2.65
   3  14  11    1.61    2.80
   3  14 -11    3.41    8.10
   3  14  11   -2.67    6.30
  -3  14 -12   -1.86    4.80
   3  14 -12   -1.88    0.83
  -3  14  12   -2.59    4.57
   3  14  12    2.91    4.30
   3  14 -12    5.80    5.72
   3  14  12    2.72    4.44
  -3  14 -13    0.76    1.45
   3  14 -13   -2.61    4.96
   3  14  13   -3.33    1.52
  -3  14  13    9.40    8.23
  -3  14  13   -4.73    1.46
   3  14 -13    8.58    4.41
   3  14  13    8.79    7.28
  -3  14 -14    4.78    5.89
   3  14 -14    2.76    1.60
   3  14  14   -1.92    3.47
   3  14 -14    4.52    4.53
  -3  14  14    6.90    3.03
   3  14  14    0.56    1.29
  -3  14 -15   -2.42    4.02
   3  14 -15    9.50    9.30
   3  14 -15    1.52    2.64
  -3  14  15    8.74    8.58
   3  14  15    0.23    4.00
   3  14  15   -4.66    6.11
  -3  14  15   12.59   10.64
  -3  14 -16    1.51    2.38
   3  14 -16    2.53    4.48
   3  14 -16    2.63    4.87
  -3  14  16   -7.86    6.69
   3  14  16   -3.58    5.69
   3  14  16    0.28    7.02
  -3  14  16   -1.95    4.51
  -3  15   0    2.38    2.36
   3  15   0   -1.52    4.77
   3  15   0    4.42    4.73
  -3  15  -1   11.45    7.60
   3  15  -1    4.32    7.68
  -3  15   1    0.52    1.37
   3  15   1    3.30    3.71
   3  15  -1    2.95    4.55
   3  15   1   16.74   10.09
   3  15   2   52.11   12.92
  -3  15  -2   36.04   13.09
   3  15  -2   65.97   15.21
   3  15  -2   57.35   14.46
  -3  15   2   70.12   17.43
   3  15   2   40.97   14.07
   3  15  -3    6.57    6.72
  -3  15  -3    7.13    4.89
   3  15  -3    3.82    3.46
  -3  15   3   14.22    8.07
   3  15   3    9.65    7.76
   3  15   3   16.90   10.09
   3  15  -4   47.77   13.04
  -3  15  -4   27.88    9.36
   3  15  -4   45.60   14.49
  -3  15   4   48.10   16.09
   3  15   4   48.93   14.75
   3  15   4   18.66    8.79
  -3  15  -5    3.17    8.48
   3  15  -5    2.56    5.26
  -3  15   5   -2.44    5.92
   3  15   5   -1.59    5.16
   3  15   5    2.95    5.73
   3  15  -5    0.49    2.93
  -3  15  -6   14.38    6.79
   3  15  -6   37.90   12.99
  -3  15   6   42.02   15.31
   3  15   6   33.31   14.93
   3  15  -6   42.84   13.22
   3  15   6   45.31   12.42
   3  15   7    8.68    7.18
  -3  15  -7    4.95    4.17
   3  15  -7   -1.56    5.78
  -3  15   7    3.34    4.27
   3  15   7   12.43    9.42
   3  15  -7    3.98    2.61
  -3  15  -8   11.97    6.73
   3  15  -8   17.81    8.37
   3  15   8   14.70    6.15
  -3  15   8    3.50    3.47
   3  15   8    8.34    6.67
   3  15  -8   15.70    9.51
  -3  15  -9   -1.49    6.21
   3  15  -9    3.19    4.94
   3  15   9    1.41    1.70
  -3  15   9   -0.03    4.80
   3  15   9    3.73    4.64
   3  15  -9   -8.42    6.14
   3  15 -10   11.20    6.95
  -3  15 -10    3.50    5.78
   3  15 -10   17.05    8.76
  -3  15  10   21.02   12.23
   3  15  10    4.55    2.45
   3  15  10   22.38    9.25
  -3  15 -11   -7.51    7.04
   3  15 -11    3.02    7.03
  -3  15  11   -0.51    2.55
   3  15  11   -0.74    4.80
   3  15 -11    5.86    5.99
   3  15  11    0.02    3.36
  -3  15 -12   23.79   11.69
   3  15 -12    0.26    6.19
  -3  15  12   30.53   11.46
   3  15  12   35.13   12.28
   3  15 -12   11.95    8.23
  -3  16   0   -0.09    4.94
   3  16   0   -5.53    3.31
   3  16   0   -1.46    5.74
  -3  16  -1   10.90    7.85
   3  16  -1   10.85    7.84
   3  16  -1    4.94    6.19
  -3  16   1    2.52    1.97
   3  16   1    0.34    4.83
   3  16   1   11.41    6.89
   3  16  -2   -4.10    7.25
  -3  16  -2   -0.52    6.56
   3  16  -2    3.63    4.90
  -3  16   2    2.74    5.00
   3  16   2   10.06    8.20
   3  16   2   -1.25    1.08
   3  16  -3   -0.37    2.54
  -3  16  -3    2.91    4.19
   3  16  -3   -5.62    7.82
  -3  16   3    6.43    5.13
   3  16   3   -6.89    5.93
   3  16   3    6.12    6.02
   3  16  -4   -5.68    6.19
   3  16   4    2.78    1.11
  -3  16  -4   -0.48    0.93
   3  16  -4    9.52    8.03
  -3  16   4    8.19    8.17
   3  16   4    1.81    5.21
  -3  16  -5   -0.25    4.96
   3  16  -5   -4.09    5.62
  -3  16   5   -2.97    6.15
   3  16   5    5.66    4.12
   3  16  -5   -5.02    7.53
   3  16   5    4.67    3.84
  -4   0   0 4255.97   77.84
   4   0   0 4612.53   56.53
   4   0   1   -0.57    1.20
   4   0  -1   -1.13    0.59
  -4   0   1   -0.66    2.87
  -4   0  -1    0.21    1.28
   4   0  -2  447.36   20.23
   4   0   2  413.18   15.72
  -4   0  -2  408.24   23.31
   4   0   3   -0.12    0.19
   4   0  -3    0.75    0.88
  -4   0  -3   -0.32    0.82
   4   0   4  314.97   16.92
  -4   0  -4  275.78   19.84
  -4   0  -5   -0.17    1.57
  -4   0   5   -0.21    0.33
  -4   0  -5    0.67    1.78
   4   0  -5   -0.36    1.03
   4   0  -6   46.47    7.81
  -4   0  -6   57.13    9.79
  -4   0  -6   62.12    7.54
  -4   0  -7    1.54    1.74
  -4   0  -7    0.12    1.30
   4   0  -7   -0.71    1.43
   4   0  -8  251.15   20.30
  -4   0  -8  277.74   22.49
  -4   0  -8  292.80   18.96
  -4   0  -9    0.02    1.03
  -4   0  -9    1.81    3.44
   4   0  -9    2.23    3.72
  -4   0 -10  127.06   16.85
  -4   0 -10  168.32   15.34
  -4   0 -11    0.61    2.18
   4   0 -11   -0.77    0.61
  -4   0 -11    0.33    1.30
   4   0 -12  163.49   18.81
  -4   0 -12  142.01   15.51
  -4   0 -13   -1.97    2.09
  -4   0 -13    3.39    4.72
   4   0 -13   -2.67    3.00
  -4   0 -14 1569.42   62.51
  -4   0 -14 1254.28   51.90
  -4   0 -15    3.69    3.26
   4   0 -15   -0.37    3.96
  -4   0 -15    1.13    2.12
   4   0 -16  226.05   24.72
  -4   0 -16  178.64   22.59
  -4   0 -17    0.78    1.49
   4   0 -17    1.00    2.00
  -4   0 -17    2.00    1.97
   4   0 -17    1.83    2.47
  -4   0 -18   42.98   10.48
   4   0 -18   47.31   12.11
  -4   0 -18   33.64   10.95
   4   0 -18   15.59    6.85
  -4   0 -19    2.28    2.12
   4   0 -19    1.48    2.91
  -4   0 -19   -0.10    1.85
   4   0 -19    3.36    6.73
  -4   0 -20   32.87   10.83
  -4   0 -20   31.18   11.17
   4   0 -20   36.69   11.83
   4   0 -20   36.52   10.64
  -4   0 -21    1.56    2.72
  -4   0 -21   12.55    9.77
   4   0 -21   -4.87    6.59
   4   0 -21    4.34    5.44
  -4   0 -22   44.61   11.93
   4   0 -22   34.62   12.05
  -4   0 -22   59.16   14.56
   4   0 -22   37.64   10.93
  -4   0 -23    3.45    2.29
   4   0 -23   -1.56    0.47
  -4   0 -23   -2.33    3.45
   4   0 -23   -0.66    1.17
  -4   0 -24   -1.70    2.72
   4   0 -24   11.28    6.50
  -4   0 -24    4.49    1.67
   4   0 -24   12.31    6.32
  -4   0 -25    4.20    6.49
   4   0 -25   -0.91    4.18
  -4   0 -25   -1.78    2.57
   4   0 -25   -1.66    2.20
  -4   0 -26    4.82    5.94
   4   0 -26    1.06    1.60
  -4   0 -26   -3.29    4.99
   4   0 -26   -3.18    3.04
  -4   0 -27   -3.95    5.95
   4   0 -27    1.23    3.74
  -4   0 -27    0.52    1.74
   4   0 -27    2.58    3.50
  -4   0 -28   37.48   12.43
   4   0 -28   21.72    9.86
  -4   0 -28   31.68   10.74
   4   0 -28   27.76   10.80
  -4   0 -29    2.10    2.47
   4   0 -29    2.77    6.19
  -4   0 -29   -4.78    4.83
   4   0 -29  -12.12    7.42
  -4   0 -30   10.57    7.83
   4   0 -30   11.62    8.85
  -4   0 -30   18.07    8.15
  -4   0 -31   -5.06    5.97
   4   0 -31   11.40    9.45
   4   0 -31    3.35    5.66
  -4   0 -31    2.57    3.11
  -4   1   0  124.24   12.58
   4  -1   0  139.87    7.87
  -4   1   0  125.35    8.34
   4   1  -1  393.97   19.43
  -4   1   1  344.69   20.56
   4  -1  -1  346.53   13.86
   4   1   1  366.43   17.83
  -4  -1   1  238.92   19.16
  -4  -1  -1  274.73   21.19
   4   1   1  354.20   11.48
   4  -1   1  325.79   11.05
  -4   1  -1  363.34   21.86
  -4   1   1  305.57   12.42
  -4   1   2  195.04    9.53
  -4  -1  -2  189.88   17.51
  -4   1  -2  188.45   15.07
   4   1   2  138.73   10.50
   4   1  -2  225.44   15.10
   4  -1   2  193.63    7.53
  -4   1  -2  148.92   11.67
  -4   1   3   48.48    4.68
   4  -1  -3   61.99    7.28
  -4   1  -3   72.26    9.61
  -4  -1  -3   80.03   10.81
   4  -1   3   51.18    3.95
   4   1  -3   51.98    8.05
   4   1   3   59.63    7.70
  -4   1  -3   60.26    7.88
   4   1   4 1844.51   41.26
  -4  -1  -4 1702.57   51.78
  -4   1  -4 1748.28   48.70
   4   1  -4 1723.82   47.48
   4  -1  -5  214.66   16.07
  -4   1   5  341.78   15.33
  -4   1  -5  293.14   20.96
  -4  -1  -5  173.33   17.25
   4   1  -5  203.32   17.57
  -4   1  -5  243.40   11.68
   4   1  -6   21.54    6.08
  -4   1   6   18.65    4.00
  -4  -1  -6   27.68    7.74
   4  -1  -6   19.37    4.72
  -4  -1  -6   10.96    3.48
  -4   1  -6   12.24    2.86
  -4   1  -6    7.17    3.17
   4  -1  -7  108.92   12.58
  -4   1   7   74.31    7.97
  -4   1  -7   95.91   12.53
  -4  -1  -7  122.67   15.07
   4   1  -7   92.70   12.57
  -4  -1  -7  101.26   11.01
  -4   1  -7   84.71    8.80
  -4   1  -8  575.66   31.96
   4  -1  -8  734.63   34.40
  -4  -1  -8  608.71   27.83
   4   1  -8  565.86   30.79
  -4   1  -8  691.27   26.15
  -4   1  -9   10.27    3.75
   4  -1  -9   15.36    5.67
  -4  -1  -9    1.97    3.35
  -4   1  -9    9.02    4.38
  -4  -1  -9    8.25    3.62
   4   1  -9    8.43    3.78
  -4  -1 -10  122.36   16.15
   4   1 -10  127.61   15.65
  -4  -1 -10  115.88   13.76
  -4   1 -10  150.78   13.97
   4  -1 -11  105.80   15.19
  -4   1 -11  100.32   14.45
   4   1 -11  102.32   14.21
  -4  -1 -11   90.87   14.99
  -4  -1 -11  101.88   13.44
  -4   1 -11  137.13   14.72
   4  -1 -12  121.36   15.91
   4   1 -12  118.78   16.45
  -4  -1 -12   89.28   14.67
  -4  -1 -12  132.73   15.87
  -4   1 -12  103.96   13.50
  -4  -1 -13   38.69    8.38
   4  -1 -13   81.34   13.42
   4   1 -13   56.15   12.08
  -4  -1 -13   70.25   14.35
  -4   1 -13   73.25   13.59
  -4   1 -13   57.04   10.54
   4  -1 -14  326.01   27.75
   4   1 -14  345.44   29.77
  -4   1 -14  294.91   27.24
  -4  -1 -14  336.53   27.23
   4  -1 -14  370.16   29.67
  -4   1 -14  356.22   26.82
   4  -1 -15  949.80   49.30
  -4  -1 -15  931.77   46.26
   4   1 -15  941.24   50.54
  -4   1 -15  954.03   50.04
  -4   1 -15  937.36   46.66
   4  -1 -16  168.46   21.55
   4   1 -16  176.11   22.16
  -4  -1 -16  207.32   23.33
  -4   1 -16  100.08   17.41
  -4  -1 -16  169.15   19.93
   4  -1 -16  169.31   20.79
  -4   1 -16  163.68   20.71
  -4  -1 -17   20.15    7.37
  -4   1 -17    8.97    5.06
  -4   1 -17   29.70    9.55
   4   1 -17   12.48    4.81
  -4  -1 -17   31.23    8.25
   4  -1 -17   17.75    7.58
   4  -1 -17    7.75    1.63
   4   1 -17   11.65    8.03
   4  -1 -18  239.49   27.02
  -4  -1 -18  242.43   26.77
   4   1 -18  225.95   25.64
  -4   1 -18  168.07   22.78
   4  -1 -18  215.37   24.79
  -4  -1 -18  254.67   26.64
  -4   1 -18  202.89   23.94
  -4  -1 -19    4.67    5.14
  -4   1 -19    2.66    3.18
   4  -1 -19   -3.42    3.29
   4   1 -19   -3.05    4.39
  -4  -1 -19    1.55    3.10
  -4   1 -19    1.79    5.10
   4  -1 -19    3.22    2.86
   4   1 -19   -4.44    3.34
  -4  -1 -20    5.89    4.98
  -4   1 -20   23.10    8.20
   4  -1 -20    5.92    3.02
   4   1 -20   21.79    8.92
  -4  -1 -20   23.61    7.64
  -4   1 -20    2.41    1.57
   4  -1 -20   21.58    8.66
   4   1 -20    6.59    5.68
  -4  -1 -21   50.49   12.27
  -4   1 -21   51.97   13.12
   4  -1 -21   41.94   11.20
  -4   1 -21   35.63   10.91
   4   1 -21   11.44   11.73
  -4  -1 -21   54.83   13.65
   4  -1 -21   45.94   11.05
   4   1 -21   47.37   12.23
   4  -1 -22  191.36   25.92
   4   1 -22  166.95   24.22
  -4   1 -22  147.04   23.23
  -4  -1 -22  103.33   18.58
   4  -1 -22  145.87   20.61
   4   1 -22  160.31   23.49
  -4  -1 -22  193.63   25.18
  -4   1 -22  168.77   24.21
  -4  -1 -23   -3.30    6.18
  -4   1 -23    7.10    4.84
   4  -1 -23    3.25    4.01
   4   1 -23    1.45    4.45
  -4  -1 -23    2.61    4.90
  -4   1 -23    4.05    6.34
   4  -1 -23    0.12    2.65
   4   1 -23   -1.28    3.79
  -4  -1 -24   10.54    7.17
  -4   1 -24    8.85    5.20
   4  -1 -24    5.19    4.35
   4   1 -24   14.16    8.76
  -4  -1 -24   18.33    7.73
  -4   1 -24   12.62    7.49
   4  -1 -24   16.32    7.82
   4   1 -25   63.95   16.80
  -4  -1 -25   48.86   13.52
   4  -1 -25   55.74   13.86
  -4   1 -25   42.26   13.48
   4  -1 -25   61.85   15.18
  -4  -1 -25   57.32   15.01
  -4   1 -25   68.13   16.72
   4   1 -25   48.07   12.49
   4   1 -26   88.58   19.55
  -4  -1 -26   74.79   16.88
  -4   1 -26   84.25   18.36
  -4   1 -26   85.09   18.69
   4  -1 -26   96.11   20.64
  -4  -1 -26   73.95   16.56
   4   1 -26   88.82   18.35
   4  -1 -26   80.58   18.52
  -4  -1 -27   -2.44    3.01
  -4   1 -27   -2.18    3.65
   4  -1 -27    0.58    6.02
   4   1 -27    7.77    7.71
  -4  -1 -27    4.43    5.74
  -4   1 -27    0.28    2.91
   4  -1 -27    9.23    8.25
   4   1 -27   -3.18    5.19
  -4  -1 -28   37.70   12.13
  -4   1 -28   50.13   14.05
   4  -1 -28   30.13   11.61
   4   1 -28   38.04   12.99
  -4  -1 -28   26.16   10.61
  -4   1 -28   41.36   13.90
   4  -1 -28    2.05    6.01
   4   1 -28   16.21   10.17
  -4  -1 -29    8.41    9.38
  -4   1 -29   12.26   10.37
  -4  -1 -29    4.29    3.85
   4  -1 -29   11.61    8.21
   4  -1 -29    8.44    4.91
   4   1 -29   10.91    4.71
  -4   1 -29   17.30    9.85
   4   1 -29   10.95    4.48
  -4  -1 -30    9.93    7.79
   4  -1 -30    6.66    7.54
   4   1 -30    1.29    2.67
  -4  -1 -30    4.69    5.59
  -4   1 -30    7.08    4.67
   4  -1 -30    4.17    1.90
   4   1 -30    2.96    3.12
  -4  -1 -31    6.70    7.73
   4  -1 -31   17.03    7.89
   4   1 -31   14.81    6.56
  -4  -1 -31    9.52    8.55
   4  -1 -31   10.78   11.44
   4   1 -31   24.41    8.45
  -4   1 -31   20.42   11.03
  -4   2   0  400.64   20.03
   4   2   0  415.96   22.11
  -4   2   0  385.96   20.91
  -4   2  -1    7.23    2.65
  -4   2   1    1.80    0.98
   4   2  -1    3.99    1.47
   4  -2  -1    3.04    1.13
  -4  -2   1    1.84    3.07
  -4   2  -1    5.99    2.87
   4   2   1    1.01    0.91
   4   2   1    1.00    1.96
  -4  -2  -1    5.49    2.69
   4   2  -2  309.41   10.96
   4  -2  -2  426.56   16.84
   4   2  -2  409.08   21.88
  -4   2   2  287.30   15.24
   4   2   2  498.12   19.81
  -4   2  -2  439.29   22.43
   4   2   2  370.67   19.72
  -4  -2  -2  275.26   22.06
  -4   2  -2  334.76   18.35
   4  -2  -3  913.13   27.77
  -4   2   3  853.90   26.30
  -4  -2  -3 1135.80   42.83
  -4   2  -3 1024.23   34.76
   4   2   3  997.22   28.03
   4   2   3  943.87   33.87
   4   2  -3  734.91   31.06
  -4   2  -3  639.55   27.13
   4   2  -3 1132.17   22.13
   4  -2  -4 1443.17   38.12
   4   2   4 1463.27   41.56
  -4   2   4 1492.90   34.26
  -4  -2  -4 1439.59   49.63
   4   2  -4 1505.04   46.16
   4  -2  -5  100.74   10.74
  -4  -2  -5  107.72   13.12
  -4   2  -5  121.67   13.23
   4   2  -5   96.68   12.14
  -4   2  -5   97.06    5.30
   4  -2  -6  180.07   15.60
  -4   2   6  232.42   15.84
  -4  -2  -6  198.64   19.21
   4   2  -6  180.88   17.07
  -4   2  -6  213.26   18.38
  -4   2  -6  193.70   10.08
  -4   2  -6  257.82   21.47
   4  -2  -7  635.53   30.68
  -4   2  -7  547.96   29.78
   4   2  -7  479.91   29.98
  -4  -2  -7  632.24   30.90
  -4   2  -7  580.06   20.92
  -4   2  -7  507.34   30.28
   4  -2  -8  110.70   13.31
   4   2  -8   82.06   12.17
  -4   2  -8  101.97   14.18
  -4  -2  -8  122.59   15.78
  -4  -2  -8   92.64   11.74
  -4   2  -8  136.16   11.20
   4   2  -9    3.09    1.44
  -4   2  -9    3.89    1.88
   4  -2  -9    4.33    1.69
  -4   2  -9    5.23    3.52
  -4   2   9    3.71    2.52
  -4  -2  -9    9.29    5.25
  -4  -2  -9    2.88    1.28
   4   2 -10    0.75    1.24
  -4   2 -10   14.04    4.48
   4  -2 -10   11.19    5.52
  -4  -2 -10   14.13    4.64
  -4   2  10    8.25    2.97
  -4   2 -10    4.68    2.10
  -4  -2 -10    8.44    4.38
   4  -2 -11   65.17   11.55
  -4   2  11   82.24   11.45
   4   2 -11   57.17   10.38
  -4   2 -11   74.68   12.62
  -4  -2 -11   54.43   10.26
  -4   2 -11   65.79   10.23
  -4  -2 -11   77.37   12.53
   4  -2 -12  113.96   16.22
  -4  -2 -12  104.16   15.98
   4   2 -12   75.36   13.09
  -4   2 -12   76.58   13.52
  -4  -2 -12   77.68   12.65
  -4   2 -12   83.98   12.36
   4  -2 -13   69.81   13.36
   4   2 -13   78.73   13.13
  -4  -2 -13   79.71   14.22
  -4   2 -13   77.32   13.87
  -4  -2 -13   50.78   11.19
   4  -2 -13   59.76   11.82
  -4   2 -13   77.46   12.28
  -4  -2 -14   27.20    8.16
  -4   2 -14   44.01    9.25
   4  -2 -14   33.31   10.12
  -4  -2 -14   41.23   10.75
  -4   2 -14   37.07    9.65
   4   2 -14   25.52   10.12
   4  -2 -14   30.05    7.92
   4  -2 -15  101.13   16.76
   4   2 -15  149.12   19.38
  -4  -2 -15   81.88   15.14
  -4   2 -15  138.65   17.24
  -4   2 -15   79.15   14.71
  -4  -2 -15  105.21   16.34
   4  -2 -15   99.67   15.69
   4  -2 -16   67.63   14.37
  -4   2 -16   48.00    9.81
   4   2 -16   61.44   13.46
  -4  -2 -16   63.49   14.08
  -4  -2 -16   46.35   11.14
   4  -2 -16   61.07   12.66
  -4   2 -16   72.51   14.29
  -4  -2 -17   26.02    8.74
   4   2 -17   37.92   10.15
   4  -2 -17   49.91   12.50
  -4  -2 -17   38.46   11.89
  -4   2 -17   37.82   10.67
  -4   2 -17   64.61   13.21
   4  -2 -17   47.78   11.09
   4  -2 -18  135.75   20.42
   4   2 -18  174.35   22.54
  -4  -2 -18  153.83   21.74
  -4   2 -18  174.24   23.00
   4  -2 -18  138.74   19.39
  -4  -2 -18  114.75   18.15
   4   2 -18  109.91   19.18
  -4   2 -18  124.72   18.39
  -4  -2 -19    5.09    1.33
  -4   2 -19   11.12    5.42
   4  -2 -19    7.88    4.65
   4   2 -19    7.94    7.88
  -4   2 -19    9.51    6.33
  -4  -2 -19    0.61    4.05
   4  -2 -19    3.78    0.52
   4   2 -19    4.23    5.15
  -4  -2 -20    0.27    3.47
  -4   2 -20    6.49    2.91
   4  -2 -20    4.54    2.80
   4   2 -20    2.28    4.56
  -4  -2 -20   -5.45    5.12
  -4   2 -20   -1.31    5.42
   4  -2 -20   -1.02    4.39
   4   2 -20    2.81    1.22
  -4  -2 -21   10.31    7.53
  -4   2 -21   13.22    5.70
   4   2 -21   10.33    3.91
  -4  -2 -21   10.67    4.06
   4  -2 -21   25.64    8.24
  -4   2 -21   16.36    9.86
   4  -2 -21   18.23    8.70
   4   2 -21   16.25    6.79
  -4  -2 -22   13.98    6.63
  -4   2 -22    6.64    5.89
   4  -2 -22    9.14    6.99
   4   2 -22    9.62    6.85
  -4  -2 -22   -2.61    5.36
  -4   2 -22    6.23    5.58
   4  -2 -22   -0.37    3.94
   4   2 -22   11.86    6.59
  -4  -2 -23    9.55    8.91
  -4   2 -23    9.05    7.78
   4  -2 -23    8.22    7.12
   4   2 -23    2.88    5.70
  -4  -2 -23    5.14    2.97
  -4   2 -23    7.75    4.78
   4  -2 -23   -0.24    2.67
   4   2 -23    4.38    1.55
  -4  -2 -24    4.52    6.57
  -4   2 -24   11.54    9.35
   4  -2 -24    0.91    2.10
   4   2 -24    0.62    3.31
  -4   2 -24   -2.25    5.52
   4  -2 -24   -1.56    2.77
   4   2 -24   -1.83    5.54
  -4  -2 -24    4.46    4.93
  -4  -2 -25   -0.12    2.83
  -4   2 -25    3.38    1.26
   4  -2 -25   -4.04    2.40
   4   2 -25    4.96    6.79
  -4  -2 -25    2.97    3.57
  -4   2 -25    1.82    5.87
   4   2 -25    5.51    5.29
   4  -2 -25    3.48    3.43
  -4  -2 -26    4.51    2.63
  -4   2 -26    1.63    6.07
   4  -2 -26   17.70    7.43
   4   2 -26   13.82    6.60
  -4  -2 -26    8.03    4.98
  -4   2 -26   17.73   11.37
   4  -2 -26   20.24   11.70
   4   2 -26   23.19   10.18
  -4  -2 -27   -3.38    5.45
  -4   2 -27   16.92    9.44
   4  -2 -27   -1.42    4.23
  -4   2 -27    5.26    6.44
   4   2 -27    7.24    2.21
  -4  -2 -27    2.85    3.42
   4  -2 -27    6.72    6.34
   4   2 -27    0.97    3.38
  -4  -2 -28   -9.43    9.36
   4  -2 -28   -0.29    3.73
   4   2 -28   -2.14    4.20
  -4  -2 -28    9.77    7.05
  -4   2 -28   -2.95    6.52
   4  -2 -28    1.07    6.12
   4   2 -28    1.53    3.93
  -4  -2 -29    5.09    5.07
  -4  -2 -29    5.73    3.76
   4  -2 -29    5.36    3.67
   4   2 -29   -3.33    5.84
  -4   2 -29    3.23    5.45
   4  -2 -29    1.03    5.57
   4   2 -29    3.41    3.55
  -4  -2 -30    9.65    8.21
   4  -2 -30   -5.75    7.88
   4   2 -30    4.95    3.82
  -4  -2 -30   -2.13    6.15
  -4   2 -30   -2.15    1.28
   4  -2 -30    0.75    1.84
   4   2 -30    1.68    1.87
  -4   3   0 1169.52   38.37
   4   3   0  901.84   25.55
  -4   3   0  996.74   30.70
  -4  -3   0 1152.71   46.45
   4   3   0  936.19   36.33
   4   3   1   14.81    4.59
  -4   3  -1   29.25    5.87
   4   3  -1   20.92    4.46
   4   3   1   33.05    5.28
  -4   3   1   18.68    4.55
   4   3  -1   17.37    5.44
  -4  -3   1   11.95    4.84
  -4   3  -1   27.75    5.28
  -4  -3  -1   20.35    6.29
   4  -3  -1   15.79    2.82
  -4   3  -2   35.98    7.60
   4   3  -2   35.68    5.14
  -4   3   2   47.34    7.52
   4   3  -2   69.22   10.43
   4   3   2   55.48    7.54
  -4  -3  -2   57.80   10.32
  -4   3  -2   38.66    6.06
   4   3   2   34.98    6.61
   4  -3  -2   35.62    4.85
   4   3  -3  380.39   17.15
   4   3  -3  372.55   23.06
  -4   3   3  463.96   22.82
   4   3   3  474.18   23.21
  -4  -3  -3  270.00   22.48
  -4   3  -3  254.03   17.83
   4  -3  -3  370.95   17.75
   4   3   3  334.53   22.58
  -4   3  -3  518.41   27.64
  -4   3  -4    1.22    1.30
   4   3   4   -1.21    2.44
   4   3  -4    0.64    0.92
   4  -3  -4    1.10    1.88
  -4   3   4    0.38    1.55
  -4  -3  -4   -0.23    1.61
  -4   3  -4    0.47    1.63
   4   3  -4    2.12    3.08
   4   3   4   -1.66    2.93
  -4   3   5  213.52   15.80
   4   3   5  153.04   14.62
  -4   3  -5  172.25   15.23
  -4  -3  -5  171.89   17.65
   4   3  -5  194.76   18.02
   4  -3  -5  158.99   14.14
   4   3   5  198.13   15.11
  -4   3  -5  111.32   13.06
   4   3  -5  159.04   12.02
  -4   3   6  535.28   26.54
  -4  -3  -6  600.52   33.44
  -4   3  -6  605.34   29.77
  -4   3  -6  613.43   19.69
   4   3  -6  717.35   36.13
   4  -3  -6  622.48   29.57
   4   3  -6  688.31   25.98
  -4  -3  -7  114.52   13.96
  -4   3  -7  101.31   12.80
  -4  -3  -7   86.45   13.34
   4   3  -7   83.19   12.50
  -4   3  -7   90.40    8.18
   4  -3  -7   95.53   11.78
   4   3  -7  141.86   13.23
  -4   3  -7   51.80   10.27
  -4   3   8   79.88   11.16
  -4   3  -8   94.83   12.82
  -4  -3  -8  121.81   16.28
  -4  -3  -8  114.01   14.19
   4   3  -8   93.70   13.75
   4   3  -8  149.12   14.29
   4  -3  -8  158.96   15.91
  -4   3  -8  112.83   10.47
  -4   3  -8  146.19   17.33
  -4   3   9  113.92   13.52
  -4  -3  -9   60.21   11.92
  -4   3  -9   94.86   12.75
   4   3  -9  113.93   15.76
  -4  -3  -9   86.39   12.66
   4  -3  -9  100.19   13.57
  -4   3  -9  103.69   10.57
  -4   3 -10   39.48    9.61
   4   3 -10   15.37    5.71
  -4   3  10   18.70    6.29
   4  -3 -10   25.15    7.26
  -4  -3 -10   29.85    9.38
  -4   3 -10   16.56    6.13
  -4  -3 -10   24.66    6.59
   4  -3 -10    2.38    5.67
  -4   3 -10   32.42    6.84
  -4   3  11  151.69   17.33
   4   3 -11  144.37   18.06
  -4  -3 -11  236.57   23.94
  -4   3 -11  247.48   22.96
   4  -3 -11  206.27   20.35
  -4  -3 -11  197.25   19.27
   4  -3 -11  203.20   19.65
  -4   3 -11  196.83   16.98
   4   3 -12   14.32    5.29
   4  -3 -12    8.05    4.08
  -4   3 -12   27.84    7.14
  -4   3 -12   26.07    8.13
  -4   3  12   21.26    6.27
  -4  -3 -12   14.56    6.50
  -4  -3 -12   18.67    4.68
   4  -3 -12   29.23    7.37
  -4   3  13   13.09    5.17
   4  -3 -13    6.74    5.45
  -4   3 -13   15.25    5.21
  -4  -3 -13   16.49    5.38
  -4   3 -13    4.59    4.20
   4  -3 -13    6.95    3.33
  -4  -3 -13    3.98    5.12
   4   3 -13   13.39    5.70
   4  -3 -14    0.12    0.77
  -4   3 -14    4.14    0.93
  -4  -3 -14    9.68    6.71
  -4   3  14    2.85    3.53
  -4   3 -14    6.50    4.48
   4  -3 -14    9.31    5.29
   4   3 -14    0.72    1.52
  -4  -3 -14    9.53    7.31
   4   3 -15   61.25   13.38
  -4   3  15  115.20   15.99
  -4  -3 -15   67.04   13.86
  -4   3 -15   76.18   14.34
  -4  -3 -15   72.30   14.49
   4  -3 -15   57.59   10.88
   4  -3 -15   66.69   13.34
  -4   3 -15   68.30   12.27
  -4   3 -16    1.15    3.55
   4  -3 -16    0.68    1.56
  -4   3 -16    0.36    2.51
  -4  -3 -16    2.20    4.88
   4   3 -16   -1.94    4.97
   4  -3 -16   -1.23    1.51
  -4  -3 -16   -0.68    2.40
   4   3 -17  100.15   17.04
  -4  -3 -17   89.46   17.00
  -4   3 -17   61.52   14.02
   4  -3 -17  112.66   15.63
  -4  -3 -17   97.60   16.61
   4  -3 -17   86.36   16.55
  -4   3 -17   89.50   15.29
  -4  -3 -18   42.53   11.50
   4   3 -18   63.97   14.27
   4  -3 -18   46.83   12.39
  -4   3 -18   38.48   10.19
  -4  -3 -18   36.23   10.71
  -4   3 -18   56.70   13.66
   4  -3 -18   41.61    9.85
  -4   3 -19   60.59   12.70
  -4  -3 -19   86.33   17.68
  -4   3 -19   84.30   18.02
   4  -3 -19   58.71   13.13
   4   3 -19   59.09   12.99
  -4  -3 -19   68.32   15.31
   4   3 -19   26.75   15.79
   4  -3 -19   78.04   16.59
  -4  -3 -20   54.22   13.19
  -4   3 -20   27.86    9.03
   4  -3 -20   30.14   10.16
  -4  -3 -20   63.25   13.59
   4   3 -20   18.52    9.31
  -4   3 -20   55.55   14.21
   4  -3 -20   40.13   11.13
   4   3 -20   22.81   10.99
   4   3 -21  362.06   34.85
  -4  -3 -21  371.13   37.21
  -4   3 -21  221.56   29.85
   4  -3 -21  315.73   31.29
  -4  -3 -21  321.26   33.05
   4   3 -21  360.53   33.90
  -4   3 -21  278.53   29.67
   4  -3 -21  259.54   30.44
  -4  -3 -22   -2.10    2.52
  -4   3 -22   -0.88    4.21
   4  -3 -22    2.82    3.08
   4   3 -22   -2.79    4.19
  -4  -3 -22    2.74    6.95
  -4   3 -22   -0.85    3.96
   4  -3 -22    9.22    8.03
   4   3 -22    2.25    2.68
  -4  -3 -23   29.45   10.27
  -4   3 -23   19.30    7.01
   4  -3 -23   20.76    9.65
   4   3 -23   25.63   10.20
  -4  -3 -23   23.42   11.94
  -4   3 -23   27.71    9.09
   4  -3 -23    9.83    8.50
   4   3 -23   21.05    9.95
  -4  -3 -24   -4.01    5.90
   4  -3 -24   -6.21    7.81
  -4  -3 -24    8.55    9.01
   4   3 -24   -0.69    5.07
  -4   3 -24    1.71    4.56
   4  -3 -24   -4.93    5.95
   4   3 -24    0.28    3.59
  -4  -3 -25   40.04   13.65
   4  -3 -25   52.16   14.17
   4   3 -25    8.37    5.47
  -4  -3 -25   31.09   12.41
  -4   3 -25   14.43    7.52
   4  -3 -25   47.61   14.72
   4   3 -25   51.18   14.45
  -4  -3 -26    9.95    6.69
   4  -3 -26   19.83   10.48
   4   3 -26   23.18   10.51
  -4  -3 -26   13.04    7.04
  -4   3 -26   17.96    9.32
   4  -3 -26   11.14    6.79
   4   3 -26    8.33    4.20
  -4  -3 -27    3.09    2.07
   4  -3 -27   -8.05    8.89
  -4  -3 -27    7.11    6.71
   4   3 -27    6.06    4.56
  -4   3 -27   13.38    7.32
   4  -3 -27    5.16    5.49
   4   3 -27    5.78    5.52
  -4  -3 -28   -1.85    2.23
   4  -3 -28    6.87    1.54
  -4  -3 -28   -1.69    2.48
   4   3 -28    9.68    5.26
  -4   3 -28    7.57    7.82
   4  -3 -28   11.51    4.39
   4   3 -28    4.10    3.93
  -4  -3 -29   33.45   11.23
   4   3 -29   47.43   14.32
   4  -3 -29   51.69   17.72
  -4  -3 -29   29.98   11.95
  -4   3 -29   45.40   14.57
   4  -3 -29   34.59   11.40
   4   3 -29   11.65    7.83
  -4  -3 -30   -3.86    3.94
   4   3 -30   -1.45    3.45
   4  -3 -30    2.40    5.37
  -4  -3 -30    1.06    2.18
  -4   3 -30   -2.71    6.04
   4  -3 -30    2.54    4.50
   4   3 -30    2.75    3.11
  -4   4   0   20.68    5.61
   4   4   0   11.85    3.38
  -4   4   0   13.58    2.75
  -4  -4   0    8.05    3.72
   4   4   0    9.83    3.46
  -4   4   0   16.03    2.65
   4   4   1   23.02    5.76
   4   4  -1   23.81    5.33
  -4   4  -1   30.92    7.18
   4   4   1   22.42    5.29
  -4   4   1   28.98    6.58
  -4   4  -1   26.93    2.94
  -4  -4  -1   12.85    5.99
   4   4  -1    9.31    3.35
  -4   4  -1   18.96    3.69
   4  -4  -1   33.84    4.70
  -4   4  -2  106.42   13.11
   4   4  -2   84.19    9.90
  -4   4   2   92.19   11.78
   4   4   2   86.69   10.19
  -4   4  -2  105.25    9.81
   4  -4  -2  117.50    9.32
   4   4   2   95.37   12.02
  -4  -4  -2   92.86   14.09
  -4   4  -3   41.54    8.89
   4   4  -3   45.64    7.21
   4   4  -3   35.00    7.79
  -4   4   3   41.93    7.85
   4   4   3   61.45    9.46
  -4  -4  -3   45.58    9.97
  -4   4  -3   16.60    4.32
   4  -4  -3   43.64    6.46
   4   4   3   43.19    8.51
  -4   4  -4   86.67   12.77
   4   4  -4  101.73   10.96
   4   4  -4  103.60   13.12
   4   4   4  101.39   13.28
  -4   4  -4  127.16   12.11
  -4   4   4   81.63   10.31
   4   4   4  136.59   13.98
  -4  -4  -4   97.87   14.46
   4  -4  -4  106.45   10.97
   4   4  -5  598.26   27.82
  -4   4  -5  613.17   16.73
   4   4   5  513.96   29.53
  -4   4   5  723.56   32.05
   4   4   5  570.63   30.59
  -4   4  -5  656.35   29.03
  -4  -4  -5  725.60   37.65
   4  -4  -5  708.15   30.20
   4   4  -5  623.69   33.37
  -4   4  -5  595.60   33.13
  -4   4  -6  107.45    8.55
  -4   4   6   66.05   10.10
   4   4   6   79.12   11.37
  -4  -4  -6   83.61   13.35
  -4   4  -6   87.37   10.79
   4  -4  -6  120.66   13.08
   4   4  -6  111.18   14.16
  -4   4  -6   73.44   12.19
   4   4  -6   87.67   10.69
  -4   4  -7  165.30   11.73
  -4   4   7  301.18   22.41
   4   4   7  247.86   19.99
  -4  -4  -7  244.18   22.58
  -4   4  -7  161.24   16.01
   4   4  -7  227.01   21.42
   4  -4  -7  239.77   19.75
   4   4  -7  207.21   16.58
  -4   4  -7  173.77   18.42
   4   4  -8    5.12    2.88
  -4   4  -8   -0.07    1.65
   4  -4  -8    3.01    3.32
  -4  -4  -8    0.56    2.35
   4   4  -8   -0.54    1.15
  -4   4  -8   -0.46    1.33
  -4   4   8    1.83    2.16
  -4  -4  -8    1.59    1.55
   4   4   8   -0.58    1.25
  -4   4  -8    4.01    2.63
   4  -4  -8    0.27    1.74
   4   4  -9    0.65    1.47
  -4   4  -9   -2.55    4.07
   4  -4  -9    1.48    3.71
   4   4  -9   -1.41    3.09
  -4   4  -9    1.10    2.60
  -4   4   9    0.46    2.25
  -4  -4  -9    1.57    4.35
   4   4   9    1.11    2.18
  -4   4  -9   -0.22    2.31
  -4  -4  -9    0.08    2.44
   4  -4  -9    3.06    2.68
   4   4 -10   26.49    7.49
  -4   4  10   26.17    7.93
   4  -4 -10   26.70    7.28
   4   4 -10   34.46    9.80
  -4  -4 -10   23.09    7.42
  -4   4 -10   29.90    6.48
  -4   4 -10   29.73    7.40
  -4  -4 -10   35.13    9.15
   4  -4 -10   30.62    6.70
  -4   4 -10   47.73   11.44
   4   4 -11   18.92    6.38
  -4   4 -11    3.38    5.63
   4   4 -11   12.63    7.24
   4  -4 -11   15.98    6.29
  -4   4 -11   13.29    3.82
  -4   4  11   13.20    5.02
  -4  -4 -11   10.30    4.96
  -4   4 -11   10.58    5.16
  -4  -4 -11    7.37    5.20
   4  -4 -11    6.45    3.54
  -4   4 -12    1.29    2.94
   4   4 -12    8.57    5.58
  -4   4 -12    3.39    2.73
   4  -4 -12    4.63    3.44
  -4   4  12    1.44    3.45
  -4  -4 -12    3.30    4.58
  -4   4 -12    1.86    1.25
  -4  -4 -12    1.64    3.37
   4  -4 -12    2.63    1.72
   4   4 -13   -0.81    2.60
   4  -4 -13   10.96    5.72
  -4   4 -13   13.60    5.37
  -4   4  13    8.58    3.83
  -4  -4 -13    1.48    2.68
  -4   4 -13    4.89    3.92
  -4  -4 -13   10.59    5.69
   4  -4 -13    8.75    5.12
  -4   4 -13    3.60    2.81
  -4   4 -14   83.74   13.79
  -4   4  14   48.90   11.06
   4   4 -14   62.79   12.42
  -4  -4 -14   85.28   15.46
  -4   4 -14   86.32   15.58
   4  -4 -14   98.68   14.10
  -4  -4 -14   87.62   15.03
   4  -4 -14  100.55   16.61
   4  -4 -15   29.69    9.27
  -4   4 -15   18.85    5.66
  -4   4  15   10.61    4.70
  -4  -4 -15   33.65    9.27
  -4   4 -15   18.67    9.43
   4  -4 -15   25.41    6.85
  -4  -4 -15   19.87    7.43
   4   4 -15   15.54    8.37
   4  -4 -16   19.88    8.93
  -4   4 -16   12.10    5.87
  -4   4  16   11.82    6.66
  -4  -4 -16   11.80    7.64
  -4   4 -16   15.30    5.58
   4  -4 -16    3.94    2.54
   4   4 -16   20.24    8.11
  -4  -4 -16    8.38    6.27
   4  -4 -17   15.99    8.30
  -4   4 -17   15.72    6.07
  -4   4  17   14.08    6.10
  -4  -4 -17   25.18    7.60
  -4   4 -17    7.92    5.06
   4  -4 -17   17.68    7.79
   4   4 -17    7.97    5.43
  -4  -4 -17   19.73    9.52
   4  -4 -18   58.44   13.80
  -4   4 -18   50.04   12.39
  -4   4  18   13.84    7.09
  -4  -4 -18   34.09   11.69
  -4   4 -18   68.80   14.40
   4   4 -18   53.01   13.15
   4  -4 -18   28.17    9.24
  -4  -4 -18   48.18   11.85
  -4   4 -19   59.10   14.53
   4   4 -19   69.27   14.46
  -4   4  19   62.93   13.89
  -4  -4 -19  124.71   20.95
  -4   4 -19   74.46   16.25
   4  -4 -19   88.85   16.92
  -4  -4 -19   67.35   15.08
   4  -4 -19   82.01   17.54
   4  -4 -20   -2.57    5.16
  -4  -4 -20    3.21    6.83
  -4   4 -20    2.19    2.45
  -4   4  20   -0.04    2.73
  -4   4 -20   -3.10    5.39
   4   4 -20    1.06    3.78
   4  -4 -20    4.08    2.02
   4   4 -20    3.40    6.31
  -4  -4 -20   -2.74    5.88
   4   4 -21    1.14    3.88
   4  -4 -21    2.28    1.70
  -4   4 -21   11.97    7.73
   4   4 -21   15.09    7.90
  -4  -4 -21   -1.03    0.93
  -4   4 -21   16.32    9.17
   4  -4 -21   -0.19    2.62
  -4   4  21    3.56    3.17
  -4  -4 -21    3.77    4.58
   4  -4 -22   36.99   12.38
  -4   4  22   25.44    8.14
  -4  -4 -22   31.30   11.57
   4   4 -22   11.78    6.46
  -4   4 -22   42.28   12.39
   4  -4 -22   31.71   10.05
   4   4 -22   22.41    7.44
  -4  -4 -22   23.34    9.56
   4  -4 -23    1.36    2.71
   4   4 -23    2.70    2.97
  -4   4  23    1.20    2.99
  -4  -4 -23   -0.05    7.01
  -4   4 -23    1.73    4.72
   4  -4 -23   -0.87    3.98
   4   4 -23   -0.54    4.42
  -4  -4 -23   -2.23    2.53
   4  -4 -24   -3.13    4.71
  -4   4  24   -3.40    3.22
   4   4 -24    3.57    3.73
  -4  -4 -24    1.27    4.86
  -4   4 -24    7.41    5.80
   4  -4 -24   -1.26    5.22
   4   4 -24    2.93    7.14
  -4  -4 -24   -2.47    3.62
   4  -4 -25   -3.59    5.89
   4   4 -25    3.14    1.76
  -4   4  25    4.09    4.74
  -4  -4 -25   -3.05    4.59
  -4   4 -25   -2.40    2.77
   4  -4 -25    5.84    6.95
   4   4 -25    1.25    4.31
  -4  -4 -25   -4.81    6.51
   4  -4 -26   -0.97    3.73
   4   4 -26    0.79    5.96
  -4   4  26    5.28    6.02
  -4  -4 -26   -0.07    5.27
  -4   4 -26    2.06    1.01
   4  -4 -26    2.66    2.64
   4   4 -26   -2.43    3.20
  -4  -4 -26    2.33    1.91
   4  -4 -27   -2.02    4.71
   4   4 -27    0.07    3.60
  -4   4  27    5.73    3.87
  -4  -4 -27    1.48    2.59
  -4   4 -27    0.69    5.21
   4  -4 -27    8.73    9.15
   4   4 -27   -1.61    1.21
  -4  -4 -27    6.87    7.16
   4  -4 -28    4.84    7.70
   4   4 -28    2.94    4.73
  -4   4  28   -1.48    3.27
  -4  -4 -28    4.32    6.33
  -4   4 -28    1.55    5.46
   4  -4 -28   -1.60    1.40
   4   4 -28   17.19    7.97
  -4  -4 -28   -0.54    1.22
   4  -4 -29   -5.08    6.39
  -4   4  29    2.53    4.87
   4   4 -29   -5.45    8.15
  -4  -4 -29    0.51    2.63
  -4   4 -29    4.72    2.78
   4  -4 -29   -2.30    3.97
   4   4 -29   -5.87    6.35
  -4  -4 -29    5.69    6.65
   4  -4 -30   -0.88    6.92
   4   4 -30   -4.03    6.04
  -4   4  30    2.92    2.22
  -4  -4 -30    0.71    6.53
  -4   4 -30    0.99    4.02
   4  -4 -30   11.84   11.33
   4   4 -30   -1.74    3.86
  -4  -4 -30    3.53    1.78
  -4   5   0  297.20   23.58
   4   5   0  245.74   19.11
  -4  -5   0  248.82   23.15
   4   5   0  259.85   21.27
  -4   5   0  269.61   14.14
  -4   5   1    0.89    1.29
   4   5   1    1.20    2.50
  -4   5  -1   -0.22    2.12
  -4   5   1    0.17    2.44
   4   5  -1    0.47    1.92
   4   5   1   -0.85    0.87
  -4  -5  -1    3.02    3.10
   4   5  -1   -0.25    0.39
  -4   5  -1   -0.36    0.52
  -4   5  -1    1.36    1.18
  -4  -5  -2   84.96   13.96
  -4   5  -2  155.02   17.32
  -4   5  -2  125.84    9.18
   4   5  -2  113.38   13.00
  -4   5   2  126.31   15.11
   4   5   2   82.28   10.90
   4   5  -2  126.89   15.57
  -4   5  -2  107.64    9.06
   4  -5  -2  128.72   11.37
   4   5   2  123.79   14.44
  -4   5  -3  231.80   21.31
   4   5  -3  188.92   17.08
  -4   5   3  222.29   19.90
   4   5  -3  252.15   22.93
   4   5   3  106.72   12.99
  -4  -5  -3  161.76   19.20
  -4   5  -3  231.20   14.16
   4  -5  -3  162.70   12.92
  -4   5  -3  190.86   10.96
   4   5   3  268.61   22.11
  -4   5  -4   93.53   14.90
   4   5   4  123.46   15.50
   4   5  -4  104.86   12.96
   4   5  -4  102.46   13.86
  -4   5  -4  127.10   11.37
  -4   5   4   80.76   11.85
  -4  -5  -4  112.14   15.75
   4   5   4   70.19   11.27
  -4   5  -4  101.80    8.38
   4  -5  -4  134.28   12.93
   4  -5  -4   88.37    6.54
  -4   5  -5  126.69   16.25
   4   5  -5   58.72    9.84
   4   5  -5   75.81   12.29
   4   5   5   71.55   11.82
  -4   5   5   42.91    8.29
   4   5   5   93.48   13.31
  -4   5  -5   93.87    8.38
  -4  -5  -5   79.10   13.47
  -4   5  -5   52.73    8.07
   4  -5  -5   63.48    9.71
   4  -5  -5   52.72    5.48
   4  -5  -6    8.40    3.07
   4   5   6   18.09    6.72
  -4   5  -6    7.42    2.07
   4   5  -6   10.09    3.77
  -4   5  -6   14.89    3.45
   4   5   6   12.12    4.73
  -4   5   6    7.85    4.22
  -4  -5  -6   12.11    4.09
  -4   5  -6   10.68    3.93
   4   5  -6   12.57    4.62
   4  -5  -6   15.51    3.60
   4  -5  -7    2.79    2.20
  -4   5  -7    0.25    1.91
   4   5  -7    1.78    0.78
  -4   5   7    5.49    3.79
  -4  -5  -7    8.43    4.35
   4   5   7   -0.72    2.75
   4   5  -7    8.19    4.61
  -4   5  -7    7.65    2.58
  -4   5  -7    5.71    2.32
   4  -5  -7    4.51    1.89
  -4   5  -8  162.62   13.59
  -4   5   8  213.27   20.71
   4   5   8  298.01   25.12
  -4  -5  -8  205.62   21.74
  -4   5  -8  161.79   16.85
   4  -5  -8  176.48   13.38
   4  -5  -8  221.50   19.79
   4   5  -8  151.81   18.79
  -4   5  -8  212.47   22.67
   4   5  -8  121.28   14.56
  -4   5  -9  118.98   12.75
  -4   5   9  127.89   16.68
  -4  -5  -9  131.51   17.00
   4   5   9   90.83   13.81
  -4   5  -9   85.84   12.75
  -4  -5  -9  124.51   16.69
   4  -5  -9  104.79   11.27
   4   5  -9  101.02   15.65
   4  -5  -9  136.49   16.37
   4   5  -9  135.33   15.31
  -4   5  -9  135.32   17.65
  -4   5 -10  226.38   18.13
  -4   5  10  220.07   22.62
   4   5  10  246.05   23.08
  -4  -5 -10  225.51   23.67
   4   5 -10  294.62   26.21
  -4   5 -10  244.59   22.88
  -4  -5 -10  219.15   23.43
   4  -5 -10  260.23   19.29
   4  -5 -10  227.05   22.27
   4   5 -10  215.70   20.54
  -4   5 -10  196.97   22.39
   4   5 -11   25.05    7.91
  -4   5 -11   48.94   11.22
   4  -5 -11   27.11    7.53
  -4   5 -11   23.28    6.27
   4   5 -11   31.23   10.02
  -4   5 -11   44.89   10.27
  -4  -5 -11   41.73    9.32
   4   5  11   31.72    8.32
   4  -5 -11   36.09    7.74
  -4  -5 -11   21.89    7.29
  -4   5  11   15.13    5.80
  -4   5 -12   67.56   10.88
  -4   5  12   68.51   13.06
  -4  -5 -12   65.53   13.18
   4   5  12   75.31   12.95
   4   5 -12  107.78   17.55
  -4   5 -12   59.74   12.83
  -4   5 -12   55.78   12.03
   4  -5 -12   74.90   11.55
  -4  -5 -12   89.77   14.51
   4  -5 -12  103.92   16.04
   4   5 -12   56.76   11.85
   4   5 -13   20.03    6.82
  -4   5 -13   11.24    7.47
   4  -5 -13   21.00    6.81
   4   5 -13   20.58    8.09
  -4   5  13   19.76    5.26
  -4  -5 -13   14.31    6.07
   4   5  13   22.50    6.20
  -4   5 -13   23.08    8.21
  -4   5 -13   16.04    5.04
  -4  -5 -13   18.29    7.77
   4  -5 -13   20.46    6.81
  -4   5 -14  304.14   25.52
  -4   5  14  316.77   29.41
   4   5 -14  318.06   29.52
  -4  -5 -14  404.04   34.47
  -4   5 -14  420.71   35.05
   4   5  14  363.38   30.47
   4  -5 -14  336.42   27.23
  -4  -5 -14  328.61   29.76
   4  -5 -14  405.77   33.72
  -4   5 -14  330.64   32.48
   4   5 -15    8.49    5.87
   4  -5 -15   -0.63    4.15
  -4   5  15    4.58    4.48
  -4  -5 -15    2.26    1.70
  -4   5 -15   -0.44    2.51
   4  -5 -15    0.29    1.32
  -4  -5 -15    2.47    5.06
  -4   5 -15    3.43    1.15
  -4   5 -15    4.46    3.52
  -4   5 -16  115.32   17.53
  -4   5  16   88.41   16.37
   4   5 -16   78.54   15.26
  -4  -5 -16   87.29   16.77
  -4   5 -16  100.17   18.04
   4  -5 -16   95.70   16.08
  -4  -5 -16   78.99   14.46
   4  -5 -16  123.92   19.21
   4  -5 -17   41.39   11.60
  -4   5 -17   10.29    6.41
  -4   5  17    4.07    7.47
  -4  -5 -17   46.39   12.48
  -4   5 -17   40.39   11.64
   4  -5 -17   32.67    8.76
  -4  -5 -17   32.78   10.52
   4   5 -17   41.17   12.55
   4  -5 -18   48.84   13.42
  -4  -5 -18   72.98   15.64
  -4   5  18   20.47   12.79
  -4  -5 -18   68.25   14.68
  -4   5 -18   50.14   13.70
   4  -5 -18   58.33   13.15
   4   5 -18   51.41   12.61
   4  -5 -19   -1.08    4.71
  -4   5  19    1.27    3.10
  -4   5 -19    1.02    5.59
   4  -5 -19    0.23    1.34
   4   5 -19   -2.57    6.29
  -4  -5 -19    4.75    2.93
  -4  -5 -19    1.98    5.45
   4  -5 -20   21.86    7.70
  -4   5  20   45.15   13.20
  -4  -5 -20   64.47   14.80
  -4   5 -20   52.45   14.50
   4   5 -20   42.65   11.54
   4  -5 -20   44.52   12.96
  -4  -5 -20   39.70   11.40
   4   5 -20   44.80   12.54
   4  -5 -21   12.89    7.78
  -4  -5 -21    3.13    6.73
  -4   5  21    7.59    6.11
  -4   5 -21    7.69    6.72
   4   5 -21    3.41    9.13
   4  -5 -21    2.95    4.01
  -4  -5 -21    2.64    6.03
   4   5 -21    3.87    2.21
  -4   5  22  110.87   19.35
  -4  -5 -22   71.05   16.75
  -4  -5 -22   69.81   15.10
   4   5 -22  106.58   20.35
   4  -5 -22  104.48   19.34
  -4   5 -22   75.82   17.53
   4   5 -22  108.60   20.58
   4  -5 -22   95.80   19.65
   4  -5 -23   12.06    6.61
  -4   5  23   17.77    8.63
  -4  -5 -23   20.79    8.19
   4   5 -23   12.56    8.76
  -4   5 -23   17.83    8.32
   4  -5 -23   12.83    6.94
   4   5 -23   33.03   12.94
  -4  -5 -23   13.92    7.14
   4  -5 -24   40.91   14.23
  -4   5  24   38.96   12.30
  -4  -5 -24   48.25   14.41
   4   5 -24   20.26    9.75
  -4   5 -24   35.47   12.59
   4  -5 -24   24.25    9.71
   4   5 -24   28.00   11.66
  -4  -5 -24   33.41   10.38
   4  -5 -25   11.46    6.94
   4   5 -25    6.74    3.58
  -4   5  25   15.41    7.47
  -4  -5 -25    3.56    5.00
  -4   5 -25   18.41    6.11
   4  -5 -25   14.69    6.87
   4   5 -25    6.49    6.17
  -4  -5 -25    4.14    4.38
   4  -5 -26    4.23    3.90
   4   5 -26   -3.14    5.35
  -4   5  26   -1.96    4.51
  -4  -5 -26    2.10    3.44
  -4   5 -26    2.15    2.82
   4  -5 -26    3.04    7.02
   4   5 -26    2.22    2.04
  -4  -5 -26    9.63    7.95
   4  -5 -27    5.05    3.11
   4   5 -27    4.55    4.34
  -4   5  27   -2.81    5.77
  -4  -5 -27    1.34    1.60
  -4   5 -27    5.37   10.08
   4  -5 -27   -2.14    5.73
   4   5 -27   -2.35    4.83
  -4  -5 -27    1.09    4.94
   4  -5 -28    1.28    3.77
   4   5 -28    7.80    2.48
  -4   5  28    3.58    3.02
  -4  -5 -28   11.75    9.11
  -4   5 -28   11.12    7.16
   4  -5 -28    3.13    2.32
   4   5 -28   12.81    7.93
  -4  -5 -28    2.99    1.45
   4  -5 -29    8.13    4.58
   4   5 -29   -1.18    4.21
  -4   5  29    7.52    6.94
  -4  -5 -29    6.88    9.25
  -4   5 -29    5.66    3.99
   4  -5 -29   -3.38    4.12
   4   5 -29   -3.10    4.59
  -4  -5 -29    7.04    2.75
  -4   6   0  213.25   21.53
   4   6   0  174.64   17.37
   4   6   0  207.55   20.16
  -4   6   0  180.20   13.84
  -4   6   1   37.49    6.37
   4   6  -1   33.04    7.72
   4   6   1   71.35   10.48
  -4   6  -1   30.01    5.35
  -4   6  -1   44.03    9.38
  -4   6   1   44.04    8.96
   4   6  -1   36.69    8.99
   4   6   1   41.60    9.19
  -4  -6  -1   28.21    8.62
  -4   6  -2  167.27   19.12
   4   6  -2  113.93   14.18
  -4   6   2   92.91   14.61
   4   6   2   66.96   10.34
  -4   6  -2  116.77   11.13
   4   6  -2  107.34   14.77
  -4  -6  -2  113.68   16.63
  -4   6  -2  104.04    7.23
   4   6   2  143.11   16.38
  -4   6  -3    4.04    1.83
  -4   6  -3    6.08    1.67
   4   6  -3    8.17    4.09
   4   6  -3    4.57    2.46
  -4   6   3    9.58    5.77
   4   6   3    7.30    4.23
  -4  -6  -3   12.52    5.77
   4   6   3    8.45    3.68
   4  -6  -3    5.25    2.00
  -4   6  -3    3.92    1.07
  -4   6  -4  197.07   21.05
   4   6  -4  143.30   16.56
   4   6  -4  177.45   19.38
  -4   6   4  177.90   19.22
   4   6   4  157.89   17.19
  -4  -6  -4  186.28   21.70
  -4   6  -4  149.83   11.92
   4  -6  -4  217.59   17.80
  -4   6  -4  170.90   12.91
   4   6   4  197.01   20.72
   4   6   5   13.88    5.26
  -4   6  -5   11.83    6.94
   4   6  -5   24.28    6.87
  -4   6   5   26.98    6.89
  -4  -6  -5   16.22    6.69
   4   6   5   26.33    7.35
  -4   6  -5   29.66    5.57
  -4   6  -5   13.34    3.92
   4  -6  -5   14.84    4.79
   4   6  -5   14.99    5.78
  -4   6  -6  216.88   23.15
   4   6  -6  145.40   17.78
   4   6  -6  181.39   18.40
   4   6   6  204.65   21.60
  -4   6   6  124.43   15.13
  -4   6  -6  126.81   12.94
  -4  -6  -6  152.06   19.21
   4  -6  -6  107.38   13.46
  -4   6  -6  131.69   12.07
  -4   6  -7   24.59    5.24
  -4   6  -7   32.11    8.53
   4   6  -7   22.80    7.00
   4   6   7   29.40    7.09
   4   6   7   44.76   10.08
  -4   6   7   43.01    9.13
  -4  -6  -7   43.44    9.20
  -4   6  -7   16.19    4.54
   4   6  -7   32.65    9.03
   4  -6  -7   39.86    8.64
  -4   6  -8   -1.46    1.34
   4   6  -8   12.42    5.92
  -4   6   8   -2.73    3.72
  -4  -6  -8    8.93    8.04
   4   6   8    4.07    5.25
   4   6  -8   -0.03    3.93
  -4   6  -8   -1.60    2.07
   4  -6  -8   -0.66    1.37
  -4   6  -8   -1.07    1.01
   4  -6  -8   -1.71    3.11
   4  -6  -9   24.39    7.75
  -4   6  -9   18.79    6.90
   4   6  -9    9.56    4.57
   4   6  -9   18.83    7.25
  -4   6   9   18.06    5.79
  -4  -6  -9   21.21    6.93
   4   6   9   12.20    5.33
  -4   6  -9   14.87    4.39
   4  -6  -9   16.57    4.79
  -4   6  -9    8.17    4.78
   4  -6 -10   31.72    8.36
  -4   6 -10   20.72    7.45
   4   6 -10   31.02    8.01
  -4  -6 -10   32.73   10.06
  -4   6 -10   29.44    7.76
   4   6 -10   31.43    8.69
   4   6  10   25.10    8.62
   4  -6 -10   36.23    7.12
  -4   6 -10   25.18    7.93
  -4   6  10   34.50    9.24
   4  -6 -11   22.61    7.79
   4   6 -11   28.87    7.96
  -4   6 -11   17.49    6.16
  -4   6 -11   33.12    8.69
   4   6 -11   34.18    9.53
  -4   6  11   36.76   10.69
  -4  -6 -11   34.38    9.60
   4   6  11   43.87   11.14
   4  -6 -11   20.14    7.52
  -4   6 -11   27.92    8.06
  -4  -6 -11   26.26    8.91
  -4  -6 -12  142.03   19.52
  -4   6  12  113.33   17.61
   4   6  12  199.44   23.12
   4   6 -12  146.95   20.87
  -4   6 -12   82.43   15.30
  -4  -6 -12  159.40   20.90
   4  -6 -12   97.17   14.79
   4   6 -12  112.93   16.84
  -4   6 -12  153.03   20.94
   4   6 -13   -2.74    3.41
  -4   6 -13    1.17    4.87
   4  -6 -13    2.19    3.39
   4   6 -13    3.48    8.20
  -4   6  13    6.13    5.12
  -4  -6 -13   -0.39    0.44
   4   6  13    3.99    4.53
  -4   6 -13   -1.96    4.17
  -4  -6 -13    0.20    3.75
   4  -6 -13    0.72    0.64
   4   6 -14    6.95    2.43
  -4   6 -14   33.38   12.52
   4  -6 -14   16.59    8.44
   4   6 -14   18.07    4.29
  -4   6  14   15.71    6.43
  -4  -6 -14   18.88    5.65
   4   6  14   22.10    5.86
  -4   6 -14   15.81    6.64
   4  -6 -14   12.45    5.02
  -4  -6 -14   18.18    7.27
  -4  -6 -15  247.69   27.82
  -4   6  15  322.34   32.11
  -4  -6 -15  279.09   30.80
   4   6  15  251.67   26.23
   4   6 -15  244.27   27.49
  -4   6 -15  257.72   28.83
   4  -6 -15  272.64   28.27
   4   6 -15  316.13   30.12
  -4   6 -15  212.10   27.48
  -4   6 -16   10.43    7.26
   4   6 -16   -0.79    2.67
   4  -6 -16    1.09    2.66
  -4   6 -16    2.14    4.50
  -4   6  16   -2.18    5.18
  -4  -6 -16    2.80    5.91
   4   6  16    1.21    1.50
   4  -6 -16    0.95    2.91
  -4  -6 -16    4.19    0.90
   4   6 -17   25.22    9.13
  -4   6  17   36.59   12.05
   4  -6 -17    7.26    2.44
  -4  -6 -17   22.55    8.61
   4   6  17   19.19    8.14
  -4   6 -17   25.58    9.94
   4  -6 -17   29.85    9.43
  -4  -6 -17   13.97    7.27
  -4   6 -17    7.20    6.27
   4  -6 -18   28.61    8.92
   4   6  18   33.68    9.92
  -4   6  18   14.68    9.73
  -4  -6 -18   32.57   10.84
  -4   6 -18   54.33   14.60
   4  -6 -18   30.39   10.67
  -4  -6 -18   25.12    9.07
   4   6 -18   28.94    9.53
   4  -6 -19   11.86    5.33
  -4   6  19    3.78    7.41
  -4  -6 -19   14.16    6.06
   4   6  19   14.70    6.19
  -4   6 -19   10.81    7.39
   4  -6 -19    8.17    7.02
  -4  -6 -19    5.58    3.21
   4   6 -19    6.82    2.23
   4  -6 -20    6.49    7.13
  -4   6  20   20.35    9.84
  -4  -6 -20    3.16    2.12
   4   6  20   13.31    6.27
  -4   6 -20    7.40    6.05
   4  -6 -20   17.53    9.80
   4   6 -20    7.85    6.68
  -4  -6 -20   21.87    9.22
   4  -6 -21   35.22   12.06
  -4   6  21   45.90   13.53
  -4  -6 -21   35.72   10.81
   4   6  21   23.47    9.70
  -4   6 -21   34.86   12.03
   4  -6 -21   57.83   14.86
   4   6 -21   40.68   12.90
  -4  -6 -21   42.33   11.88
   4   6 -21   23.74   11.05
   4  -6 -22    0.28    2.57
   4   6 -22   19.49    8.00
  -4   6  22    9.34    7.82
  -4  -6 -22    4.33    5.79
   4   6  22    8.38    7.68
  -4   6 -22   10.18    7.04
   4  -6 -22    8.48    4.22
   4   6 -22    7.56    3.25
  -4  -6 -22    7.78    5.61
   4  -6 -23    4.41    1.29
  -4   6  23    1.85    5.34
  -4  -6 -23    8.90    6.40
   4   6  23    5.26    4.78
  -4   6 -23    5.08    4.39
   4   6 -23   -2.89    4.93
  -4  -6 -23    4.91    5.45
   4   6 -23   10.13    7.77
   4  -6 -24    2.77    3.57
   4   6  24    8.78    6.58
  -4  -6 -24    2.48    3.35
  -4   6  24   -0.44    5.33
   4   6 -24   15.53    8.18
  -4   6 -24    4.42    4.49
  -4  -6 -24    8.18    1.53
   4   6 -24    6.33    7.34
   4  -6 -25   11.71    7.92
   4   6 -25   10.06    6.39
  -4  -6 -25   -1.26    4.26
  -4   6  25    4.96    1.61
   4   6  25    4.56    5.47
  -4   6 -25   -3.40    6.93
   4   6 -25    6.72    2.93
  -4  -6 -25    3.41    5.44
   4  -6 -26   34.69   12.90
  -4   6  26    9.55    5.90
  -4  -6 -26   42.47   12.97
   4   6 -26   47.02   13.71
   4   6  26   37.33   13.73
  -4   6 -26   28.07   13.65
   4   6 -26   36.85   12.44
  -4  -6 -26   43.20   14.12
   4  -6 -27    5.23    6.47
   4   6 -27    5.19    6.47
  -4   6  27   -0.28    6.27
  -4  -6 -27    9.13    5.96
   4   6  27    8.65    3.30
  -4   6 -27    5.56    7.87
   4   6 -27    4.86    4.04
  -4  -6 -27   13.02    8.98
   4  -6 -28    5.32    7.22
  -4   6  28    1.89    3.01
   4   6 -28    0.90    3.37
  -4  -6 -28   -5.41   13.90
   4   6  28    1.20    3.95
  -4   6 -28   -1.20    5.91
   4   6 -28    0.62    2.35
  -4  -6 -28   -0.45    4.50
   4   7   0   43.95    9.66
  -4   7   0   29.24    8.26
  -4   7   0   37.71    6.99
   4   7   0   38.18    9.39
  -4   7  -1  100.76   15.96
  -4   7   1   92.53   15.91
   4   7  -1  125.62   16.05
   4   7   1   93.48   13.67
  -4   7  -1   83.57   10.54
   4   7  -1  138.14   16.54
  -4  -7  -1  117.08   16.87
   4   7   1   79.22   12.29
  -4   7   1   78.46   11.11
  -4   7   2   11.56    3.79
   4   7   2   10.16    2.96
  -4   7  -2   16.46    6.61
  -4  -7  -2   10.80    7.42
   4   7  -2   27.56    8.04
  -4   7   2   20.31    8.16
  -4   7  -2   12.40    5.32
   4   7   2    9.62    5.47
   4   7  -2   20.38    7.95
  -4   7  -3 1240.97   57.22
  -4   7  -3  902.47   33.66
   4   7  -3 1144.93   49.15
  -4   7   3  952.60   48.48
   4   7   3  982.42   44.18
   4   7  -3 1437.23   60.39
  -4  -7  -3 1136.91   54.19
   4   7   3 1238.01   52.94
  -4   7  -4  224.01   24.13
   4   7  -4  204.65   22.05
  -4   7   4  143.03   19.37
   4   7  -4  232.17   24.39
   4   7   4  174.44   18.96
   4   7   4  266.91   25.49
  -4  -7  -4  275.83   26.16
  -4   7  -4  296.88   19.94
  -4   7  -5   52.03   11.98
   4   7  -5   48.94   10.62
  -4   7   5   52.50   10.72
   4   7   5   49.65   10.80
   4   7  -5   33.52    8.72
   4   7   5   39.33    9.38
   4  -7  -5   33.70    8.11
  -4   7  -5   46.06    8.21
  -4  -7  -5   44.64   11.75
   4   7  -6   54.07   10.47
   4   7  -6   63.85   12.47
  -4  -7  -6   60.27   12.90
  -4   7   6   60.65   12.17
   4   7   6   62.06   12.04
   4   7   6   35.74    8.57
   4  -7  -6   57.28   10.59
  -4   7  -7  224.70   24.78
   4   7  -7  160.06   19.87
   4   7   7  220.21   23.24
  -4   7   7  154.42   18.83
   4   7   7  136.23   18.57
  -4  -7  -7  194.31   22.95
   4  -7  -7  217.67   20.17
   4   7  -7  176.68   21.02
  -4   7  -8    1.74    2.85
   4   7  -8    0.89    1.11
   4   7   8    2.48    1.95
   4   7  -8    0.03    0.88
  -4   7   8    4.98    2.89
  -4  -7  -8    4.48    4.08
   4   7   8   -0.44    1.20
   4  -7  -8    0.23    0.69
  -4   7  -9    4.77    5.56
   4   7  -9    5.42    4.32
  -4   7   9   -0.46    3.37
   4   7   9    3.95    2.74
  -4  -7  -9    3.93    5.53
   4   7  -9    3.37    4.76
  -4   7  -9    6.05    4.49
   4  -7  -9    8.25    4.80
  -4   7 -10    7.48    3.81
   4   7 -10    8.03    5.87
  -4   7  10   14.53    6.16
   4   7 -10    5.37    2.88
  -4  -7 -10   25.46    8.46
  -4   7 -10    9.09    4.68
   4   7  10   15.42    5.05
   4  -7 -10    7.65    4.61
  -4   7  11  195.67   23.57
   4   7  11  349.27   31.82
  -4  -7 -11  288.85   28.49
  -4   7 -11  274.41   25.71
   4   7 -11  296.33   28.54
   4  -7 -11  248.12   25.45
  -4   7 -11  249.28   26.85
   4   7 -11  257.01   25.15
   4  -7 -12    6.53    2.31
   4   7 -12    1.38    3.21
  -4   7 -12    8.99    7.51
   4   7 -12   11.39    6.62
  -4   7  12   17.48    8.80
   4   7  12    7.14    5.58
  -4  -7 -12    5.91    2.95
  -4  -7 -12    5.71    3.16
  -4   7 -12    9.36    4.79
  -4   7  13  170.68   23.29
  -4  -7 -13  141.14   20.36
  -4   7 -13  182.40   22.94
   4   7 -13  215.54   25.07
  -4  -7 -13  155.37   21.74
   4  -7 -13  164.60   22.19
   4   7 -13  140.57   19.54
  -4   7 -13  150.18   21.47
   4  -7 -14   20.26    6.62
   4   7 -14   21.62    8.87
  -4   7 -14   30.89    8.26
   4   7 -14   20.66    7.73
  -4  -7 -14   18.39    7.87
  -4   7  14   21.78    9.74
   4   7  14   25.98    6.46
  -4   7 -14   22.01    9.57
  -4  -7 -14   18.41    8.58
  -4   7  15  203.94   25.67
   4   7  15  275.32   29.75
  -4  -7 -15  296.08   30.39
   4   7 -15  190.38   23.43
  -4   7 -15  300.72   31.50
  -4  -7 -15  250.00   28.29
   4  -7 -15  222.35   26.26
   4   7 -15  185.83   24.88
  -4   7 -15  259.70   30.44
   4   7 -16    5.17    5.28
  -4   7 -16    8.25    5.66
   4  -7 -16   13.81    7.25
   4   7 -16   14.89    7.83
  -4  -7 -16   10.04    7.98
   4   7  16    7.58    5.91
  -4   7 -16   10.78    7.27
  -4  -7 -16    0.20    4.03
  -4   7  16   12.20    8.89
  -4   7 -17    2.97    1.45
   4  -7 -17    7.88    2.37
   4   7 -17   15.69    5.08
  -4   7  17    9.31    4.00
  -4  -7 -17   18.46    6.13
   4   7  17   17.64    7.88
  -4   7 -17   12.52    8.15
  -4  -7 -17   15.80    6.35
   4   7 -17   18.83    8.58
  -4   7 -18   27.65    9.66
   4   7 -18   19.18    8.37
   4  -7 -18   16.95    7.60
  -4  -7 -18   14.42    8.98
  -4   7  18   23.68    9.57
   4   7  18   21.20   10.48
  -4   7 -18   32.79   10.42
  -4  -7 -18   17.15    6.08
   4  -7 -19   25.43    9.16
  -4   7  19   17.22    8.08
  -4  -7 -19   23.20    9.63
   4   7  19    8.62    4.86
  -4   7 -19   16.14    8.23
  -4  -7 -19   10.06    4.41
   4   7 -19   13.54    7.44
   4  -7 -20    9.93    6.59
  -4   7  20    5.31    2.79
  -4  -7 -20    0.37    3.76
   4   7  20    6.82    5.78
  -4   7 -20    4.69    4.42
  -4  -7 -20    4.54    3.79
   4   7 -20    4.00    3.94
   4   7 -21  100.09   19.03
  -4   7  21  104.81   21.34
  -4  -7 -21  116.50   21.35
  -4  -7 -21   91.14   17.60
   4  -7 -21   75.67   16.72
  -4   7 -21   44.39   14.05
   4   7  21   78.50   16.41
   4  -7 -22   11.87    7.30
   4   7  22    2.84    1.96
  -4   7  22   15.57    9.37
  -4  -7 -22   18.53    9.12
  -4   7 -22    7.53    4.25
   4   7 -22    1.20    2.33
  -4  -7 -22    9.14    7.18
   4   7 -22    2.92    2.33
   4  -7 -23   -2.19    2.75
   4   7  23   10.56    9.41
  -4   7  23    5.70    6.01
  -4  -7 -23    2.07    2.11
  -4   7 -23    7.19    6.96
   4   7 -23   -0.64    3.19
  -4  -7 -23   14.10    7.83
   4   7 -23    4.12    7.63
   4  -7 -24   10.95    8.32
  -4   7  24    4.34    2.07
  -4  -7 -24   24.20   10.10
   4   7  24    3.88    4.10
  -4   7 -24   18.69    9.88
   4   7 -24   13.31    8.64
  -4  -7 -24   27.89    9.81
   4   7 -24   15.47    8.09
   4  -7 -25   32.16   11.08
  -4   7  25   53.49   14.81
  -4  -7 -25   39.22   12.75
   4   7  25   48.62   13.77
   4   7 -25   20.39   10.22
  -4   7 -25   30.09   11.80
  -4  -7 -25   29.23   10.42
   4   7 -25   40.51   11.94
   4  -7 -26   -6.03    4.72
   4   7  26   -0.28    1.68
  -4   7  26    0.11    3.20
  -4  -7 -26   -0.19    1.97
   4   7 -26   -2.02    5.92
  -4   7 -26    1.36    1.73
  -4  -7 -26    6.90    7.21
   4   7 -26    0.52    4.16
   4   7  27    4.66    5.96
   4  -7 -27    6.32    6.27
  -4   7  27    2.38    9.65
  -4  -7 -27    8.75    7.71
   4   7 -27    4.79    5.49
  -4   7 -27   -0.39    2.62
  -4  -7 -27   -0.91    1.69
   4   7 -27    1.18    5.14
  -4   8   0  106.98   17.92
   4   8   0  158.42   19.73
  -4   8   0   84.09   11.39
   4   8   0  174.12   20.68
  -4   8  -1   15.98    7.19
  -4   8   1   11.58    4.70
   4   8  -1    4.01    1.30
   4   8   1   10.39    5.45
  -4   8   1   11.60    4.57
   4   8  -1   11.93    6.08
  -4   8  -1    8.24    3.12
   4   8   1   17.20    6.06
   4   8   2   -1.14    1.87
  -4   8   2   -1.69    2.20
  -4   8  -2    1.78    4.23
   4   8  -2    1.14    4.25
  -4   8   2    4.96    5.25
  -4   8  -2    7.85    5.55
   4   8   2    0.58    2.50
  -4  -8  -2    3.16    4.54
   4   8  -2   -4.83    7.20
  -4   8  -3  161.83   21.18
   4   8  -3  188.19   21.67
  -4   8   3  203.19   19.41
  -4   8   3  196.12   23.37
   4   8   3  152.74   18.52
   4   8  -3  163.48   21.28
  -4  -8  -3  183.24   23.68
   4   8   3  194.10   21.10
  -4   8  -4   65.97   13.98
   4   8  -4   60.34   12.50
   4   8  -4   81.43   14.94
   4   8   4   54.44   11.09
  -4  -8  -4   74.24   14.18
  -4   8   4   51.13   11.40
   4   8   4   44.38   10.60
   4   8  -5    3.64    2.13
  -4   8  -5    0.07    2.65
   4   8  -5    1.56    3.11
  -4   8   5   -1.69    2.21
   4   8   5    9.66    6.76
  -4  -8  -5    3.59    1.48
   4   8   5    8.05    5.44
  -4   8  -6   77.66   15.50
   4   8  -6   55.43   12.44
  -4   8   6   47.58   11.58
   4   8   6   38.66   10.29
   4   8   6   43.78   11.05
  -4  -8  -6   40.74   11.47
   4  -8  -6   74.96   12.65
   4   8  -6   35.73    8.81
   4   8  -7  138.26   19.02
  -4   8  -7  104.96   18.18
   4   8  -7   82.31   14.57
   4   8   7  129.11   18.43
  -4   8   7   99.15   16.10
   4   8   7  149.82   19.51
  -4  -8  -7   87.86   16.40
   4  -8  -7  126.03   17.09
   4   8  -8   87.29   15.97
   4   8   8   74.18   13.45
  -4   8   8   83.36   15.07
   4   8   8   77.37   14.38
  -4  -8  -8   77.99   15.65
   4  -8  -8   63.81   12.06
   4   8  -8   80.31   14.93
  -4   8  -8   98.44   18.03
  -4   8  -9   13.21    7.62
   4   8  -9   17.95    8.45
  -4   8   9   12.96    6.90
   4   8  -9   20.23    7.61
   4   8   9   44.72   11.90
  -4  -8  -9   20.03    6.94
   4  -8  -9   27.04    8.45
   4   8   9   13.83    6.08
  -4   8 -10    1.64    4.11
   4   8 -10    8.58    5.62
   4   8  10    4.13    2.69
  -4   8  10    3.72    3.33
   4   8 -10    7.23    5.37
   4   8  10    2.12    5.59
  -4  -8 -10    4.26    2.04
   4  -8 -10   -0.86    3.50
  -4   8 -11   15.73    7.47
   4   8 -11   10.17    5.26
   4   8 -11   38.12   10.50
  -4   8  11   18.74    9.12
   4   8  11   33.48   10.99
  -4  -8 -11   26.74    9.40
   4  -8 -11   20.06    7.76
  -4   8 -12   13.80    6.88
   4   8 -12   17.37    7.93
   4   8 -12   15.78    7.56
  -4   8  12   10.57    6.63
   4   8  12    2.62    2.33
  -4  -8 -12   18.43    8.38
   4  -8 -12    7.93    4.43
   4   8 -13    9.24    3.75
  -4   8 -13    6.66    5.18
   4   8 -13   20.03    7.56
  -4   8  13   12.87    8.37
   4   8  13    5.83    3.51
  -4  -8 -13   13.13    7.43
   4  -8 -13    6.10    5.55
   4   8 -14    1.51    5.21
  -4   8 -14    4.05    3.67
  -4   8  14    7.29    7.29
   4   8  14   10.27    7.26
   4   8 -14   -0.30    2.35
  -4  -8 -14    1.10    5.09
   4  -8 -14    8.88    6.90
   4   8 -15   23.77   10.51
  -4   8 -15   30.32   10.65
  -4  -8 -15   34.68   10.27
  -4  -8 -15   19.57    6.39
   4   8 -15   30.26   11.17
  -4   8  15   27.51   11.94
   4   8  15   34.03   11.13
   4  -8 -15   42.42   12.83
   4   8 -16   10.15   10.25
  -4   8 -16   25.18   10.96
   4   8 -16    8.09    3.28
  -4   8  16    7.08    6.39
   4   8  16    4.49    4.94
  -4  -8 -16    4.14    3.98
  -4  -8 -16    1.99    3.78
   4  -8 -16   17.38    8.44
   4   8 -17   73.59   16.33
   4   8 -17   56.97   13.84
  -4  -8 -17   40.49   11.43
   4   8  17   48.82   13.69
  -4   8  17   51.91   13.77
  -4  -8 -17   48.63   12.89
  -4   8 -17   71.17   18.41
   4  -8 -17   60.51   13.85
   4  -8 -18    8.02    7.06
   4   8 -18    5.81    6.34
  -4   8 -18    8.90    7.63
   4   8 -18   10.32    6.43
  -4   8  18    9.74    2.95
  -4  -8 -18    8.60    6.96
   4   8  18   -7.39    5.05
  -4  -8 -18    3.98    3.11
  -4   8 -19    8.50    5.80
   4  -8 -19    8.70    4.24
   4   8 -19   10.70    2.84
   4   8  19   19.20    7.17
  -4   8  19   29.96   11.15
  -4  -8 -19   14.82    7.56
  -4   8 -19  -11.36    6.73
  -4  -8 -19    5.56    3.70
   4  -8 -20    0.65    3.23
  -4   8  20   -6.30    7.22
   4   8  20    0.30    1.45
  -4  -8 -20   -1.00    0.68
  -4   8 -20   -2.44    3.24
  -4  -8 -20    8.92    6.89
  -4   8 -20    1.80    4.36
   4   8 -20    4.49    7.57
   4  -8 -21   64.29   16.51
  -4   8  21   57.41   16.45
   4   8  21   12.66    6.07
  -4  -8 -21   31.91   11.35
  -4   8 -21    0.14    9.23
  -4  -8 -21   41.09   12.60
   4   8 -21   24.91    9.48
   4   8 -21   32.22   10.88
   4  -8 -22   -2.22    2.56
   4   8  22    1.18    3.42
  -4   8  22    1.61    3.62
  -4  -8 -22   -8.36    7.93
  -4   8 -22    1.06    8.64
  -4  -8 -22    3.89    5.04
   4   8 -22   -2.67    6.14
   4   8 -22    2.06    3.67
   4  -8 -23   12.79    9.29
  -4   8  23   20.69   12.08
  -4  -8 -23   11.74    6.51
   4   8  23    2.12    0.73
  -4  -8 -23   -0.63    3.43
   4   8 -23    6.40    2.71
   4   8 -23    3.58    6.36
   4  -8 -24   -0.86    3.10
  -4   8  24    6.45    9.64
  -4  -8 -24    4.14    6.81
   4   8  24    6.50    7.57
  -4   8 -24   -5.60    9.50
   4   8 -24    0.34    6.07
  -4  -8 -24   -6.37    7.97
   4   8 -24    3.30    6.60
   4  -8 -25   30.13   12.17
  -4   8  25   31.94   11.09
   4   8  25   15.57    7.05
  -4  -8 -25   35.79   11.50
  -4   8 -25   -8.08    6.67
   4   8 -25   24.24    8.49
  -4  -8 -25   21.03    9.24
   4   8 -25   14.74   10.31
   4  -8 -26    0.69    2.58
  -4   8  26    1.40    4.51
   4   8  26    0.54    2.20
  -4  -8 -26    7.19    8.20
   4   8 -26   -5.21    5.37
  -4  -8 -26    7.26    6.67
   4   8 -26    0.23    2.35
   4   9   0  332.38   30.17
   4   9   0  398.16   32.14
  -4   9  -1  204.31   25.00
  -4   9   1  185.71   24.23
   4   9  -1  179.06   22.52
   4   9   1  121.88   18.34
   4   9  -1   87.76   15.50
  -4   9   1  107.17   15.13
   4   9   1  154.84   19.05
  -4   9  -2  209.10   26.03
   4   9  -2  159.20   20.84
  -4   9   2  132.19   20.45
   4   9   2  188.90   22.31
   4   9   2  121.33   17.19
   4   9  -2  139.87   19.79
  -4   9   2  141.00   17.58
  -4   9   3  238.21   22.67
  -4   9  -3  350.88   33.42
   4   9  -3  196.58   22.80
  -4   9   3  275.36   28.99
   4   9   3  121.80   17.60
   4   9  -3  193.93   24.64
   4   9   3  172.55   20.36
  -4  -9  -3  212.11   24.23
  -4   9  -4  420.96   36.24
   4   9  -4  406.75   34.20
  -4   9   4  284.71   25.09
  -4   9   4  210.02   25.23
   4   9   4  322.50   28.30
   4   9  -4  354.62   31.95
  -4  -9  -4  264.72   27.83
   4   9   4  257.10   26.28
   4   9  -5    4.07    4.64
  -4   9  -5   -2.49    2.01
   4   9  -5   -0.28    2.99
  -4   9   5   -1.82    0.99
   4   9   5   -0.46    3.57
  -4  -9  -5    3.87    5.72
   4   9   5    5.43    7.06
  -4   9   5   -0.44    3.72
  -4   9  -6   80.00   16.08
   4   9  -6  114.36   18.03
   4   9  -6  147.08   19.54
  -4   9   6  118.15   18.20
  -4  -9  -6  109.53   18.29
   4   9   6  103.91   16.86
   4   9   6  111.60   18.84
  -4   9  -7  367.95   35.72
   4   9   7  322.81   31.13
   4   9  -7  362.03   31.87
   4   9  -7  328.88   31.05
  -4   9   7  335.85   31.56
   4   9   7  277.89   27.61
  -4  -9  -7  332.20   32.81
  -4   9  -8   42.24   11.76
   4   9  -8   32.29    8.60
  -4   9   8   27.86    8.70
   4   9   8   42.77   11.76
  -4  -9  -8   63.81   14.67
   4   9   8   40.61   11.08
   4  -9  -8   35.70   10.26
   4   9  -8   56.70   13.36
   4   9   9   51.75   12.49
  -4   9  -9   40.53   11.33
   4   9  -9   45.64   11.62
  -4   9   9   47.11   11.30
   4   9   9   59.85   12.69
  -4  -9  -9   47.04   12.63
   4   9  -9   41.46   10.79
   4  -9  -9   39.17   10.23
  -4   9 -10    8.30    6.26
   4   9 -10    1.30    5.13
  -4  -9 -10   19.60    9.13
  -4   9  10   10.11    5.29
   4   9  10   13.58    7.26
   4   9 -10   13.57    6.77
   4   9  10    8.63    4.83
   4  -9 -10    4.71    5.25
  -4   9 -11   47.98   12.94
   4   9 -11   50.37   12.84
   4   9 -11   37.78   11.87
  -4   9  11   45.36   12.39
   4   9  11   67.52   15.25
  -4  -9 -11   41.60   11.63
   4   9  11   56.06   12.15
   4  -9 -11   43.58   11.94
  -4   9 -12   10.77    7.47
   4   9 -12    2.34    2.96
   4   9 -12    7.63    4.21
  -4   9  12    9.99    6.90
   4   9  12    3.87    3.06
  -4  -9 -12   -0.94    2.55
   4  -9 -12   -0.68    2.25
  -4   9 -13    1.52    4.11
   4   9 -13   -2.90    5.84
   4   9 -13   14.04    7.00
  -4   9  13    7.03    5.53
  -4  -9 -13    4.58    4.76
   4   9  13   13.02    7.12
   4  -9 -13    1.21    5.34
   4   9 -14   35.25   10.49
  -4   9 -14   33.93   10.05
  -4  -9 -14   31.07   10.87
   4   9 -14   40.97   11.36
   4   9  14   60.83   15.63
  -4   9  14   41.69   12.55
   4  -9 -14   55.26   12.97
   4   9 -15   56.53   13.88
  -4   9 -15   65.04   14.18
   4   9  15   40.61   12.10
   4   9 -15   54.90   13.53
  -4  -9 -15   62.41   14.02
  -4   9  15   72.57   14.60
   4  -9 -15   55.00   13.54
   4   9 -16   13.03    8.84
  -4   9 -16    0.60    5.66
   4   9 -16    4.24    5.80
  -4   9  16   -0.97    5.82
   4   9  16    4.07    4.16
  -4  -9 -16   -1.00    4.39
   4  -9 -16   -2.19    4.39
  -4   9 -17   74.35   17.87
   4   9  17   55.21   14.46
   4   9 -17   72.54   15.21
  -4   9  17   81.50   17.58
  -4  -9 -17   44.58   13.09
  -4  -9 -17   66.90   15.53
   4  -9 -17   87.31   17.88
   4   9 -18   39.41   12.93
  -4   9 -18   20.89    7.95
   4   9 -18   32.30   10.43
  -4   9  18   26.85    9.65
   4   9  18   22.62   10.31
  -4  -9 -18   19.76    8.93
   4  -9 -18   27.25   10.40
  -4  -9 -18   31.64   11.79
   4   9 -19    2.33    4.85
  -4   9 -19   -0.40    4.23
   4   9 -19    9.28    8.02
  -4   9  19   -1.25    6.88
  -4  -9 -19    3.19    4.86
   4   9  19    6.34    9.27
  -4  -9 -19   -0.14    1.12
   4  -9 -19   -4.32    3.35
  -4   9 -20   -2.45    5.29
   4   9 -20    5.28    4.72
  -4   9  20    7.69    5.88
   4   9  20    0.08    5.26
  -4  -9 -20   -0.92    5.24
  -4  -9 -20    1.41    4.02
   4  -9 -20    0.88    2.87
  -4   9  21   39.82   13.87
   4   9  21   18.88    8.34
  -4  -9 -21   26.70   11.41
  -4  -9 -21   47.90   13.11
   4   9 -21   32.61   15.44
  -4   9 -21   29.94   12.65
   4  -9 -21   26.86   11.79
   4   9 -21   34.37   11.65
   4   9  22   20.19    9.88
  -4  -9 -22   22.39    7.80
  -4  -9 -22   30.68   10.07
   4   9 -22   29.10    9.31
   4   9 -22   23.89    7.81
   4  -9 -22   15.63    7.36
  -4   9  23    4.76    2.91
   4   9  23    0.93    3.14
  -4  -9 -23   -0.35    3.73
  -4  -9 -23    7.93    7.69
   4   9 -23    4.76    4.55
   4   9 -23    1.17    3.09
   4  -9 -23    5.18    3.28
  -4   9  24    5.89    6.06
   4   9  24   22.71   11.32
  -4  -9 -24   17.89    7.95
  -4  -9 -24    8.53    7.96
   4   9 -24    6.86    4.12
   4   9 -24   23.27   12.18
   4  -9 -24   -3.88    6.44
  -4   9  25    2.17    6.09
   4   9  25    2.57    4.63
  -4  -9 -25    6.08    7.61
   4   9 -25    5.67    8.45
  -4  -9 -25    6.70    3.78
   4   9 -25    7.34    7.10
   4  -9 -25    3.94    5.75
  -4  10   0   13.49    6.95
   4  10   0   19.10    6.95
   4  10   0    7.07    1.13
  -4  10  -1   10.91    5.52
  -4  10   1    3.12    2.75
   4  10  -1   23.99    9.67
   4  10   1   11.92    4.36
   4  10  -1    6.37    6.15
   4  10   1    7.39    3.49
  -4  10  -2   12.34    8.13
   4  10  -2   12.19    6.20
  -4  10   2    0.43    3.43
   4  10   2    5.27    3.58
   4  10  -2    6.63    3.36
   4  10   2    2.51    2.96
   4  10   3    1.38    1.33
  -4  10  -3   -0.19    2.46
   4  10  -3    6.40    0.78
  -4  10   3    3.34    2.08
   4  10  -3    2.14    2.53
   4  10   3    1.00    4.48
   4  10  -4    0.85    2.28
  -4  10  -4    1.20    4.58
   4  10  -4    0.97    1.77
   4  10   4    4.13    2.47
  -4  10   4   -4.68    4.88
   4  10   4    0.50    1.89
  -4 -10  -4    2.51    7.92
   4  10  -5    0.61    5.29
  -4  10  -5    0.79    4.65
   4  10  -5    4.80    5.35
  -4  10   5    0.79    5.18
   4  10   5    0.34    2.57
   4  10   5    1.85    5.20
  -4 -10  -5   -2.62    5.32
  -4  10   5    1.93    2.45
  -4  10  -6   79.10   17.21
   4  10  -6   89.39   16.54
   4  10  -6  119.20   18.82
  -4 -10  -6   97.75   17.14
  -4  10   6  118.03   19.53
   4  10   6  126.73   18.76
  -4  10   6   91.05   15.23
   4  10   6  158.16   22.10
  -4  10  -7    1.80    2.97
   4  10  -7   -1.91    2.15
  -4  10   7   -0.82    5.44
   4  10   7    1.08    3.30
  -4 -10  -7   -5.01    4.31
   4  10  -7    2.52    2.21
   4  10   7    5.11    3.17
   4  10  -8  110.06   18.60
  -4  10   8   98.35   17.85
   4  10   8  130.35   19.96
  -4 -10  -8   88.90   17.52
   4  10  -8   94.72   16.96
   4  10   8  135.74   20.73
  -4 -10  -9    0.52    3.68
  -4  10  -9    2.61    6.14
   4  10  -9    2.92    3.93
  -4  10   9   -0.46    4.07
   4  10   9    4.23    3.48
   4  10   9   -0.61    2.50
   4  10  -9   -0.98    5.20
  -4  10 -10    3.61    2.39
   4  10 -10   -2.76    2.48
  -4  10  10   -1.09    3.04
  -4 -10 -10   -4.74    7.18
   4  10  10    3.13    1.63
   4  10 -10   -0.37    3.03
   4 -10 -10    2.19    2.34
   4  10  10    1.10    2.85
  -4  10 -11   48.78   12.63
   4  10 -11   64.60   14.14
   4  10  11   73.81   15.03
  -4  10  11   83.36   17.08
  -4 -10 -11   77.30   16.98
   4  10 -11   75.40   15.62
   4 -10 -11   64.60   14.42
   4  10  11   59.03   15.42
  -4  10 -12    6.46    5.70
   4  10 -12    9.44    5.86
   4  10 -12   19.35    8.04
  -4  10  12    9.41    3.95
   4  10  12   12.24    9.63
  -4 -10 -12    8.91    7.45
   4 -10 -12    4.71    2.06
   4  10  12   14.21    7.49
  -4  10 -13    0.86    4.04
   4  10 -13    9.03    7.33
   4  10 -13    4.13    4.71
  -4  10  13   11.83    6.72
   4  10  13    0.25    4.00
  -4 -10 -13   -2.39    5.15
   4  10  13    4.39    3.39
   4 -10 -13    4.65    5.44
  -4  10 -14   10.23    5.63
   4  10 -14    5.57    4.65
   4  10  14    6.87    7.42
   4  10 -14    4.98    3.74
  -4  10  14    5.84    2.48
   4  10  14   12.35    6.41
  -4 -10 -14   11.95    4.09
   4 -10 -14    9.54    5.70
  -4  10  15    6.52    5.71
   4  10 -15   -2.85    0.38
  -4  10 -15   -3.12    3.08
   4  10 -15   -1.12    4.44
  -4 -10 -15    0.52    4.55
   4 -10 -15    5.79    6.34
   4  10  15    4.99    4.72
   4  10 -16    7.05    6.09
  -4  10 -16   -0.76    4.90
   4  10 -16   10.59    4.96
   4  10  16    1.55    1.28
  -4  10  16    7.63    5.71
  -4 -10 -16   10.22    5.66
   4 -10 -16   -0.64    2.75
   4  10 -17   -0.85    0.62
  -4  10 -17   -3.51    5.72
   4  10 -17   -0.98    2.60
  -4  10  17    2.18    0.72
  -4 -10 -17    0.68    2.90
   4 -10 -17   -0.82    2.56
   4  10  17    4.48    3.57
   4  10 -18    7.20    6.97
  -4  10 -18   23.93   10.02
   4  10 -18   21.84    7.61
  -4  10  18   13.15    6.62
  -4 -10 -18   22.51    9.98
   4 -10 -18   13.73    7.58
   4  10  18    2.70    3.24
   4  10 -19    3.90    4.19
  -4  10 -19    6.66    8.30
  -4 -10 -19    3.71    2.89
   4  10 -19    8.09    8.59
  -4  10  19   -3.18    6.43
   4  10  19    4.18    2.56
   4 -10 -19    5.19    4.65
   4  10 -20   11.62    7.83
  -4  10  20    4.34    4.20
  -4  10 -20   12.18    7.37
   4  10 -20    6.88    7.83
   4  10  20   17.15   10.16
  -4 -10 -20    2.96    3.57
  -4 -10 -20   -3.52    6.01
   4 -10 -20   10.51    6.58
  -4  10 -21    0.98    5.51
  -4  10  21   -2.68    3.62
   4  10  21    1.66    1.13
  -4 -10 -21    5.80    1.57
  -4 -10 -21    1.67    3.76
   4 -10 -21    0.15    4.68
   4  10 -21    6.76    5.10
   4  10 -21    5.75    7.01
  -4  10  22   30.27   11.25
   4  10  22   32.23   12.90
  -4 -10 -22   29.08   10.46
   4 -10 -22   34.42   10.81
   4  10 -22   11.46   11.13
  -4  10 -22   23.74   12.66
   4  10 -22   37.92   14.34
  -4  10  23    0.52    5.59
   4  10  23    2.28    5.28
  -4 -10 -23    6.80    6.42
   4  10 -23    8.05    5.58
   4 -10 -23   -0.03    4.05
   4  10 -23    2.91    3.91
  -4 -10 -23   10.06   10.11
  -4  10  24    0.18    5.51
  -4 -10 -24    9.22    5.49
   4  10  24    7.41    7.11
  -4 -10 -24    9.00    6.09
   4  10 -24   -1.01    4.81
   4  10 -24    7.92    6.94
   4 -10 -24    4.73    6.45
  -4  11   0  204.63   27.03
   4  11   0  233.24   28.49
   4  11   0  221.26   25.94
  -4  11  -1    5.93    6.81
  -4  11   1   24.53    8.09
   4  11  -1   32.91   11.01
   4  11   1   22.35    8.51
   4  11  -1   18.61    8.38
   4  11   1   23.04    9.75
  -4  11  -2   -0.27    2.16
   4  11  -2   -2.70    2.87
  -4  11   2    5.47    5.70
   4  11   2   -1.04    4.97
   4  11  -2   -0.34    3.44
   4  11   2    6.27    7.13
   4  11   3   25.59    7.33
   4  11  -3    9.50    5.09
   4  11  -3   28.86    7.39
  -4  11   3   22.33    9.64
   4  11   3   27.66    9.43
  -4  11  -4  193.38   25.41
   4  11  -4  206.04   27.54
  -4  11   4  204.99   26.89
   4  11   4  196.71   25.43
   4  11  -4  273.18   29.81
   4  11   4  190.64   23.56
   4  11  -5   39.21    9.14
  -4  11  -5   40.28   11.91
   4  11  -5   44.97   12.34
   4  11   5   46.91   10.95
  -4  11   5   38.67   11.95
   4  11   5   32.51   10.61
   4  11  -6  119.04   20.63
   4  11  -6  111.67   18.17
  -4  11   6   99.21   19.39
   4  11   6  109.45   17.48
  -4 -11  -6  107.61   19.37
   4  11   6  143.42   20.58
  -4 -11  -7    1.12    4.76
  -4  11  -7    7.82    5.99
   4  11  -7    8.65    5.70
  -4  11   7   12.05    8.20
   4  11   7   10.38    5.31
   4  11   7    5.48    6.60
   4  11  -7    9.84    9.09
  -4  11  -8    3.96    5.25
   4  11  -8   -4.62    5.59
  -4  11   8   -0.59    4.71
  -4  11   8    3.71    3.64
   4  11   8    3.56    4.17
  -4 -11  -8   -1.33    7.96
   4  11  -8   -2.45    4.55
   4  11   8    4.90    6.00
   4  11   9   14.39    7.94
  -4  11  -9    3.62    3.08
   4  11  -9    9.77    6.60
   4  11   9    8.08    4.28
  -4  11   9    5.66    4.60
  -4 -11  -9   18.35   11.18
   4  11  -9   13.30    5.48
   4  11  10  111.46   19.46
  -4 -11 -10  102.95   19.80
   4  11 -10   64.25   15.70
  -4  11  10   98.26   18.57
   4  11  10  106.78   19.09
   4  11 -10  111.79   19.18
  -4  11 -10   92.44   18.43
   4  11  11    1.81    1.60
  -4  11 -11   -2.73    4.00
   4  11 -11    3.09    4.60
  -4  11  11   -3.85    5.84
   4  11  11    4.76    6.09
  -4 -11 -11    1.23    0.80
   4  11 -11    1.09    1.14
  -4  11 -12   12.32    5.75
   4  11 -12   16.77    6.32
  -4  11  12   23.09   10.41
   4 -11 -12   16.22    7.78
   4  11 -12   18.49    8.70
   4  11  12    8.83    8.16
  -4 -11 -12   19.48    8.22
   4  11  12    1.68    2.83
  -4  11 -13   12.23    8.12
   4  11 -13    3.45    3.32
   4  11  13    0.85    4.86
   4  11 -13   10.44    6.07
  -4  11  13   13.43    7.17
  -4 -11 -13    8.27    7.58
   4  11  13    7.31    6.88
   4 -11 -13   20.53    9.06
  -4  11 -14   11.89    4.66
   4  11 -14   53.18   13.42
   4  11 -14   54.94   14.16
  -4  11  14   46.84   13.09
   4  11  14   28.29   10.24
  -4 -11 -14   62.12   16.53
   4 -11 -14   88.36   18.40
   4  11  14   54.21   14.22
   4  11 -15    2.52    3.85
  -4  11 -15   -1.01    6.00
   4  11 -15   -0.35    2.45
   4  11  15    2.41    5.56
  -4  11  15   -0.93    2.98
   4  11  15    3.03    4.94
  -4 -11 -15   -1.24    4.71
   4 -11 -15   -4.86    5.82
   4  11  16   12.75    8.66
   4  11 -16   -4.32    4.84
  -4  11 -16    8.44    8.45
  -4  11  16    4.49    5.48
   4  11 -16    3.15    3.77
   4  11  16    4.99    3.90
  -4 -11 -16   -7.03    6.26
   4 -11 -16    6.07    5.79
   4  11 -17   -0.18    4.46
  -4  11 -17    0.05    1.37
   4  11 -17   -1.43    3.60
  -4 -11 -17    1.64    1.12
  -4  11  17    0.26    4.37
   4  11  17   -6.04    6.13
   4 -11 -17    7.68    6.47
   4  11 -18   -2.70    6.67
  -4  11 -18   23.01   13.00
   4  11  18   12.25   10.57
   4  11 -18    5.07    5.74
  -4  11  18   11.50    8.77
  -4 -11 -18    8.18    1.81
   4 -11 -18    6.62    3.58
   4  11 -19    2.78    4.96
  -4  11 -19    8.48   10.53
   4  11 -19   -6.74    7.68
  -4  11  19    3.63    5.23
   4  11  19    7.33    3.52
  -4 -11 -19    9.03    8.93
   4 -11 -19    6.22    3.98
   4  11 -20   -1.84    7.19
  -4  11 -20   15.00    8.96
   4  11 -20   15.87   10.15
   4  11  20    3.71    3.20
  -4  11  20   -0.62    2.60
  -4 -11 -20   -3.42    5.67
   4 -11 -20    4.98    1.02
   4  11 -20   -5.11    6.51
  -4  11 -21    8.77    6.52
   4  11 -21    3.01    2.39
  -4  11  21    0.64    4.51
   4  11  21    6.27    5.41
  -4 -11 -21    4.66    8.45
   4 -11 -21    3.03    4.69
   4  11 -21    3.50    5.43
   4  11 -21   -1.32    5.34
  -4  11 -22    5.70    4.75
  -4  11  22   10.39    9.37
   4  11  22    2.71    2.44
  -4 -11 -22   12.41   12.78
   4 -11 -22   -3.84    5.96
   4  11 -22   21.88   11.66
   4  11 -22    5.78    7.32
  -4  12   0   27.04   11.47
   4  12   0   30.78   10.65
   4  12   0   11.78    6.43
  -4  12  -1   -2.36    6.47
  -4  12   1    0.97    2.52
   4  12  -1   -1.38    1.97
   4  12   1   11.56    9.42
   4  12  -1    1.37    2.13
   4  12   1    1.64    4.27
  -4  12  -2    1.77    3.33
   4  12  -2    8.28    5.99
  -4  12   2    3.87    4.89
   4  12   2   -4.42    5.12
   4  12  -2    6.54    3.58
   4  12   2    1.47    4.23
  -4  12  -3   13.01    8.79
   4  12  -3   40.19   13.87
   4  12  -3   42.32   13.24
  -4  12   3   28.56    9.97
   4  12   3   27.14   10.45
   4  12   3   20.59    8.42
   4  12   4   -0.42    5.58
   4  12  -4    1.46    4.81
  -4  12  -4   -0.31    4.34
   4  12  -4    2.78    5.12
  -4  12   4    8.17    7.83
   4  12   4    0.07    4.05
   4  12  -5   -4.24    4.76
   4  12   5    1.23    2.27
  -4  12  -5   -2.32    2.58
   4  12  -5   -2.28    2.03
  -4  12   5    1.51    1.41
   4  12   5   -2.88    4.59
  -4  12  -6   22.20   10.18
   4  12  -6    8.93    4.23
   4  12   6   19.68    6.95
  -4  12   6   27.95   11.55
   4  12   6   23.16    8.75
   4  12  -6   26.34    9.13
  -4  12  -7    8.73    6.84
   4  12  -7   14.72    6.31
  -4  12   7   24.27   11.49
   4  12   7    8.77    6.24
  -4 -12  -7   10.22    8.18
   4  12   7    1.66    2.64
   4  12  -7   -0.33    1.27
  -4  12  -8    6.67    3.60
   4  12  -8    6.97    4.88
  -4  12   8   -6.05    7.24
   4  12   8   13.07    5.90
  -4 -12  -8    2.71    4.02
   4  12   8    8.78    4.57
   4  12  -8    9.15    4.51
  -4  12  -9    0.76    1.92
   4  12  -9   18.40    8.34
  -4  12   9   14.90    8.71
   4  12   9   11.76    7.76
  -4 -12  -9   23.99   10.47
   4  12  -9    6.80    5.77
   4  12   9    8.28    3.31
   4  12  10    1.45    3.86
  -4  12 -10   19.36   10.54
   4  12 -10   -2.34    4.92
  -4  12  10    9.78    9.33
   4  12  10    2.53    5.13
  -4 -12 -10   11.24    7.77
   4  12 -10    9.45    5.27
  -4  12 -11   16.51    8.81
   4  12 -11    7.76    5.10
   4  12  11    9.11    5.77
  -4  12  11   20.53    8.92
   4  12  11   15.15    8.09
  -4 -12 -11   26.04    9.62
   4  12 -11   20.96    8.09
  -4  12 -12    2.06    2.46
  -4  12  12   -1.33    2.12
   4  12  12    2.57    6.86
   4  12 -12   -1.81    1.45
  -4 -12 -12   -4.91    5.28
   4  12  12   -1.24    1.92
  -4  12 -13    1.88    2.97
   4  12 -13    6.83    6.61
   4  12 -13    3.89    4.12
  -4  12  13    4.54    2.62
   4  12  13    4.79    5.46
  -4 -12 -13   -2.08    8.26
   4  12  13    9.00    6.37
  -4  12 -14    4.71    0.83
   4  12 -14   26.38   10.57
   4  12  14   31.32   11.42
   4  12 -14   15.72    9.18
  -4  12  14   14.12    8.50
  -4 -12 -14   25.63   11.42
   4  12  14    7.80    5.38
  -4  12 -15    1.71    3.50
   4  12 -15    5.15    5.63
   4  12  15    1.52    2.83
   4  12 -15    0.10    1.59
  -4  12  15   -0.07    4.90
   4  12  15    1.69    2.91
  -4 -12 -15   -1.02    5.93
   4 -12 -15   -4.01    5.11
   4  12 -16    1.90    4.16
  -4  12 -16   -1.68    3.21
   4  12  16    8.07    8.33
   4  12 -16    4.60    4.23
  -4  12  16    7.42    4.89
   4  12  16   -6.63    8.22
  -4 -12 -16    2.17    2.76
   4 -12 -16    5.54    8.16
   4  12  17    3.51    1.83
   4  12 -17    1.13    3.44
  -4  12 -17   -0.50    3.84
   4  12 -17    3.08    4.79
   4  12  17    1.47    4.54
  -4  12  17   -4.16    4.99
  -4 -12 -17    8.79    7.55
   4 -12 -17    1.78    3.20
   4  12 -18    6.69    6.98
  -4  12 -18   15.06    6.41
   4  12 -18    7.05    6.48
  -4  12  18    6.46    4.57
   4  12  18   12.35    9.30
  -4 -12 -18   11.41    8.53
   4  12  18    9.09    6.12
   4 -12 -18   10.60    8.58
   4  12 -19   -1.82    4.18
  -4  12 -19    3.99    2.93
   4  12 -19   10.83    5.60
  -4 -12 -19   10.27    5.97
   4  12  19    3.69    5.17
  -4  12  19    6.72    6.02
   4  12  19   -0.05    2.85
   4 -12 -19   17.67   10.21
   4  12 -20    3.30    7.10
  -4  12 -20    2.53    6.78
   4  12 -20    8.06    7.79
  -4  12  20   -3.61    6.45
   4  12  20    2.59    5.82
   4 -12 -20    0.42    4.52
   4  12  20    0.96    1.04
   4  12 -20    9.92    7.74
  -4  13   0   25.60   11.54
   4  13   0   10.46    8.06
   4  13   0   12.84    7.39
  -4  13  -1    8.06    8.11
  -4  13   1   26.25   11.77
   4  13  -1   15.77    9.66
   4  13   1   13.25    5.07
   4  13  -1    8.72    5.99
   4  13   1   24.93    9.43
  -4  13  -2    4.77    3.24
   4  13  -2    9.97    5.81
  -4  13   2    7.99    8.40
   4  13  -2    3.49    4.48
   4  13   2   -1.19    2.13
   4  13   2   -3.10    7.22
  -4  13  -3   91.11   19.02
   4  13  -3  109.89   22.65
  -4  13   3   81.25   18.22
   4  13  -3   67.75   16.00
   4  13   3   63.42   16.67
   4  13   3   95.08   18.71
   4  13  -4   -0.92    4.05
  -4  13  -4   -0.33    3.07
   4  13  -4   -1.43    4.10
  -4  13   4   -3.21    4.55
   4  13   4    2.91    3.45
   4  13   4    3.01    2.07
   4  13  -5   -1.95    4.22
   4  13   5    8.93    4.57
  -4  13  -5    4.58    4.21
   4  13  -5    0.63    1.21
  -4  13   5    3.98    4.00
   4  13   5    0.97    1.28
   4  13   6    1.32    2.36
  -4  13  -6    6.39    6.74
   4  13  -6    0.54    3.69
  -4  13   6   14.01    8.38
   4  13   6    2.85    6.27
   4  13  -6    4.95    6.43
  -4  13  -7   11.06    6.92
   4  13  -7   36.33   11.62
   4  13   7   34.47   10.07
  -4  13   7   31.65   11.46
   4  13   7   27.06   11.64
   4  13  -7   37.75   12.19
  -4  13  -8    8.04    6.68
   4  13  -8   41.38   13.42
  -4  13   8   26.62   10.81
   4  13   8   11.52    5.68
   4  13   8   28.83   11.51
   4  13  -8   36.87   11.17
  -4  13  -9   -0.78    5.12
   4  13  -9   18.54   10.52
  -4  13   9    6.45    7.49
   4  13   9    5.75    4.38
  -4 -13  -9   11.40    8.38
   4  13   9    7.04    5.07
   4  13  -9    0.64    2.35
  -4  13 -10    1.23    2.77
   4  13 -10  -10.05    7.75
  -4  13  10   -4.45    4.75
   4  13  10    4.47    4.39
   4  13 -10    0.07    3.38
   4  13  10   -5.15    8.80
  -4  13 -11    2.62    4.18
   4  13 -11    1.44    3.49
  -4  13  11   -0.41    2.22
   4  13  11   -2.45    4.32
   4  13 -11    1.50    4.47
   4  13  11   -2.73    2.90
   4  13  12   11.16    5.76
  -4  13 -12   23.18   10.00
   4  13 -12   21.47   10.57
  -4  13  12   19.03    7.70
   4  13  12   17.68    8.77
   4  13 -12   18.28    8.45
  -4  13 -13   15.32    9.59
   4  13 -13    8.02    4.87
   4  13  13    7.41    2.84
  -4  13  13    7.62    0.54
   4  13 -13    7.31    6.11
   4  13  13    9.25    6.31
  -4  13 -14    1.47    4.60
   4  13 -14    5.59    5.74
   4  13 -14    2.99    2.89
   4  13  14   -4.40    5.86
  -4  13  14   -1.92    5.12
   4  13  14   -0.46    3.54
  -4  13 -15   32.59   13.28
   4  13 -15   22.62    9.98
   4  13 -15    4.59    3.59
  -4  13  15   15.37    7.43
   4  13  15   24.97   10.97
   4  13  15    7.67    6.24
   4  13 -16   -3.14    1.47
  -4  13 -16    1.19    1.61
   4  13 -16    1.98    4.08
  -4  13  16    4.06    1.90
   4  13  16   -0.89    3.14
   4  13  16    1.25    5.90
   4  13  17    3.92    4.75
   4  13 -17    7.13    5.38
  -4  13 -17    1.58    5.70
   4  13 -17   -0.03    2.71
  -4  13  17    3.34    4.79
   4  13  17    3.55    6.26
  -4  14   0   33.87   13.03
   4  14   0   32.31   12.18
   4  14   0   46.60   12.73
  -4  14  -1    2.69    3.96
  -4  14   1   10.02    5.59
   4  14  -1    1.03    0.73
   4  14   1    2.14    5.77
   4  14  -1    1.83    2.14
   4  14   1    0.48    4.17
  -4  14  -2   -4.83    8.14
   4  14  -2    5.32    8.35
   4  14  -2    0.02    1.94
  -4  14   2   -0.38    2.12
   4  14   2    6.41    2.82
   4  14   2   -4.64    6.12
   4  14  -3    0.38    2.15
  -4  14  -3    1.72    2.09
   4  14  -3   -1.27    2.78
  -4  14   3    1.76    4.10
   4  14   3    1.41    6.37
   4  14   3   -0.86    3.10
   4  14  -4    6.42    7.03
  -4  14  -4    0.58    3.47
   4  14  -4    2.57    3.12
  -4  14   4    5.02    3.20
   4  14   4   -0.26    3.81
   4  14   4    7.46    6.32
  -4  14  -5   -5.84    8.50
   4  14  -5   -2.40    4.77
  -4  14   5   -0.38    5.87
   4  14   5    5.39    8.88
   4  14   5    5.63    5.84
   4  14  -5    0.02    2.31
   4  14   6   22.52    9.17
  -4  14  -6    1.45    6.52
   4  14  -6   12.34    6.53
  -4  14   6   13.80    5.79
   4  14   6    4.93    6.28
   4  14  -6   15.80    9.23
   4  14   7    4.30    1.74
  -4  14  -7   20.23   12.97
   4  14  -7   20.46    9.39
  -4  14   7    8.54    5.61
   4  14   7   -1.38    5.54
   4  14  -7   13.85    7.57
  -4  14  -8   12.78    3.24
   4  14  -8    4.74    5.00
   4  14   8   10.17    7.57
  -4  14   8   11.56    5.26
   4  14   8    1.77    5.69
   4  14  -8    3.10    2.81
  -4  14  -9    3.38    6.67
   4  14  -9    0.95    3.22
  -4  14   9    4.00    4.70
   4  14   9    1.57    0.78
   4  14   9    1.14    4.54
   4  14  -9    4.87    2.86
  -4  14 -10   -1.13    6.09
   4  14 -10    5.73    8.27
  -4  14  10   11.92    8.95
   4  14  10   -2.77    4.27
   4  14  10   -3.40    2.18
   4  14 -10    1.30    4.97
  -4  14 -11    6.24    7.52
   4  14 -11   -7.78    8.78
  -4  14  11    3.98    4.94
   4  14  11   -3.82    6.31
   4  14 -11    2.66    3.93
   4  14  11   -1.81    3.50
  -4  14 -12   -2.23    4.13
   4  14 -12    8.40    6.19
  -4  14  12    2.90    4.76
   4  14  12    3.26    2.20
   4  14 -12   -2.48    3.81
   4  14  12    0.72    5.84
  -4  14 -13    5.87    7.04
   4  14 -13   13.78    9.24
  -4  14  13   14.03   10.15
   4  14 -13    5.43    3.67
   4  14  13   12.28    8.73
   4  14  13   16.22    8.53
   4  14  14    1.39    4.04
  -4  14 -14   -2.62    5.44
   4  14 -14   -2.54    3.74
   4  14 -14    2.46    4.38
  -4  14  14   -2.04    2.99
   4  14  14    0.38    2.90
  -4  15   0   11.33    8.14
   4  15   0    6.99    7.03
   4  15   0   23.05   11.47
  -4  15  -1    8.20    7.97
  -4  15   1    2.25    4.53
   4  15  -1   -2.27    5.39
   4  15   1   -0.45    4.28
   4  15  -1    3.17    5.11
   4  15   1    6.62    6.16
   4  15  -2    8.73    7.60
  -4  15  -2    8.85    9.08
   4  15  -2    9.92    8.32
  -4  15   2    9.63    8.70
   4  15   2    0.41    2.00
   4  15   2    6.80    4.27
   4  15  -3    7.90    8.55
  -4  15  -3   -7.93    7.16
   4  15  -3    0.48    4.40
  -4  15   3   -5.88    2.89
   4  15   3   -2.04    3.32
   4  15   3    0.48    3.77
   4  15  -4   24.14   10.81
  -4  15  -4   26.18   11.30
   4  15  -4   30.41   10.90
  -4  15   4   30.91   11.05
   4  15   4   23.21   11.79
   4  15   4    3.04    3.08
   4  15  -5    1.68    2.78
  -4  15   5   -0.64    5.50
   4  15   5   -3.11    4.27
   4  15   5   -1.94    0.93
   4  15  -5   -1.04    4.56
  -4  15  -6    4.07    4.38
   4  15  -6   17.56   11.70
  -4  15   6   16.57   10.89
   4  15   6   11.50    4.89
   4  15  -6   10.70    7.23
   4  15   6   18.40    9.61
  -4  15  -7    8.58    9.33
   4  15  -7    0.76    9.17
  -4  15   7   -4.07    6.69
   4  15   7    1.93    4.39
   4  15  -7    4.11    4.74
   4  15   7    3.83    4.17
   4  15   8   19.30    8.68
  -4  15  -8   16.33    9.26
   4  15  -8   19.16   10.97
  -4  15   8   27.30   12.67
   4  15   8   10.80    5.73
   4  15  -8   22.75    9.45
  -4  15  -9    3.01    3.27
   4  15  -9    0.98    1.43
   4  15   9    3.02    1.26
  -4  15   9   -2.52    5.39
   4  15   9    1.31    5.87
   4  15  -9    1.60    3.07
  -4  15 -10    0.03    6.89
   4  15 -10    0.61    5.01
   4  15  10    3.89    5.80
  -4  15  10    0.90    7.06
   4  15  10    5.07    6.13
   4  15 -10   -3.29    5.00
  -5   0   0   -0.22    3.65
   5   0   0    1.01    1.25
   5   0  -1    0.54    0.67
  -5   0   1   -0.35    1.33
  -5   0  -1   -0.42    1.72
   5   0   1    0.55    0.97
   5   0   2  909.35   27.81
  -5   0  -2  875.81   40.36
   5   0  -3    0.92    2.36
   5   0   3    1.08    1.54
  -5   0  -3    2.24    4.13
  -5   0  -4 1524.00   52.07
   5   0   4 1284.11   30.67
   5   0   5   -1.29    1.71
  -5   0  -5    1.79    2.98
   5   0  -5    1.21    1.37
  -5   0  -6  773.92   38.84
   5   0   6  999.18   30.50
  -5   0   6  748.45   19.16
   5   0  -6  997.67   39.00
  -5   0  -7    0.74    1.66
  -5   0   7    0.08    0.56
   5   0  -7   -1.58    1.27
   5   0  -8  302.22   23.07
  -5   0  -8  262.07   23.86
  -5   0  -8  268.76   18.47
  -5   0  -9   -3.38    4.55
   5   0  -9   -0.37    1.03
  -5   0  -9    0.18    1.89
   5   0 -10   94.24   14.35
  -5   0 -10  107.86   16.20
  -5   0 -10  120.49   13.01
   5   0 -11   -1.43    1.79
  -5   0 -11    0.77    3.51
  -5   0 -11   -0.77    1.30
   5   0 -12  431.63   32.08
  -5   0 -12  399.14   31.58
  -5   0 -12  439.94   28.72
   5   0 -13   -1.68    4.38
  -5   0 -13    2.02    2.92
  -5   0 -13    0.89    2.02
   5   0 -14   73.90   13.69
  -5   0 -14   77.77   14.30
  -5   0 -14   74.61   13.48
  -5   0 -15    0.26    3.07
   5   0 -15    2.01    4.80
  -5   0 -15    2.97    4.57
   5   0 -16  469.97   37.16
  -5   0 -16  422.34   32.70
  -5   0 -17   -0.52    3.77
  -5   0 -17    3.57    4.29
   5   0 -17    3.97    3.52
  -5   0 -18   15.89    6.23
   5   0 -18    4.54    4.63
  -5   0 -18   24.01    9.07
   5   0 -18    5.04    9.12
  -5   0 -19    0.90    3.98
   5   0 -19   -0.66    3.48
  -5   0 -19    0.31    2.64
   5   0 -19    1.80    3.69
   5   0 -20   75.78   15.89
  -5   0 -20   44.42   13.21
  -5   0 -20   92.44   17.13
   5   0 -20   89.43   17.84
  -5   0 -21   -1.62    1.91
   5   0 -21   -2.38    2.76
  -5   0 -21   -4.32    4.48
   5   0 -21   -3.54    5.22
  -5   0 -22   14.34    6.66
  -5   0 -22    6.19    8.04
   5   0 -22   20.76    8.37
   5   0 -22   14.91    3.36
  -5   0 -23   -2.27    4.53
   5   0 -23   -6.42    5.20
  -5   0 -23   -3.79    6.31
   5   0 -23   -0.02    3.90
   5   0 -24  172.67   25.49
   5   0 -24  156.99   23.10
  -5   0 -24  131.32   22.79
  -5   0 -25    1.96    3.90
   5   0 -25   -1.27    1.52
   5   0 -25    2.68    1.07
   5   0 -26   62.49   16.69
  -5   0 -26   20.03    9.21
   5   0 -26   65.81   15.55
   5   0 -27   -2.17    7.41
  -5   0 -27   -0.58    3.78
   5   0 -27   -1.72    4.54
   5   0 -28   28.73   11.10
  -5   0 -28   21.24   10.39
   5   0 -28   30.17   11.05
   5   0 -29   -1.56    5.61
  -5   0 -29    2.28    4.29
   5   0 -29    1.51    7.20
   5   0 -30    7.96    6.38
  -5   0 -30   16.86    8.35
   5   0 -30   25.08   11.23
  -5   1   0    0.99    0.88
   5  -1   0   -0.30    0.49
  -5  -1   0    1.18    2.69
  -5   1   0    2.69    1.82
   5   1   0    1.16    1.51
   5   1   1  152.11   13.50
   5  -1  -1  121.90    9.61
   5   1   1  132.72    7.46
  -5  -1   1  125.28   14.98
  -5  -1  -1  119.04   15.70
   5  -1   1  172.18    9.67
  -5   1   1  161.96   15.74
  -5   1  -1  121.75   14.15
   5   1  -1  133.65   12.25
  -5   1   1  139.01    8.33
  -5   1   2    6.48    1.60
  -5  -1  -2   11.10    5.21
   5   1   2    9.93    3.44
  -5   1  -2   11.51    4.70
   5  -1   2   10.42    2.26
   5  -1  -2    4.81    2.73
   5   1  -2    9.29    3.71
  -5   1   3    6.38    1.55
   5   1  -3    8.13    3.42
  -5   1  -3    7.40    3.69
   5  -1  -3    7.84    3.11
   5  -1   3    6.06    1.51
   5   1   3    7.19    2.51
  -5   1   4   13.89    2.54
   5   1  -4   21.91    5.63
   5  -1   4   15.05    2.58
   5   1   4   20.99    4.50
  -5  -1  -4   21.54    6.96
  -5   1  -4   24.08    6.19
   5  -1  -4   12.70    4.01
   5   1  -5    2.40    2.03
   5  -1  -5    5.01    3.17
   5   1   5    1.95    1.35
  -5   1   5    2.92    1.24
  -5  -1  -5    2.87    1.04
   5  -1   5    3.38    1.49
  -5   1  -5    0.82    1.44
  -5  -1  -6  291.21   23.57
   5  -1  -6  257.10   20.52
  -5   1   6  184.74   11.14
   5   1   6  213.02   16.09
   5  -1   6  260.21   13.26
  -5   1  -6  227.31   20.84
   5   1  -6  215.89   18.83
   5   1  -7   30.88    6.56
  -5   1   7   30.28    4.76
  -5  -1  -7   35.12    7.84
   5  -1  -7   21.58    5.98
  -5   1  -7   31.49    5.17
   5   1  -8    9.83    5.25
  -5   1   8   16.06    4.40
  -5  -1  -8    7.91    5.72
  -5   1  -8   12.18    5.61
   5  -1  -8   13.20    4.77
  -5  -1  -8   16.46    4.82
  -5   1  -8   13.74    3.70
   5  -1  -9   55.04   10.22
   5   1  -9   43.60    8.96
  -5   1   9   95.93   10.30
  -5  -1  -9   39.03   10.47
  -5   1  -9   82.68   13.99
  -5  -1  -9   62.69    9.81
  -5   1  -9   59.13    8.14
   5   1 -10  388.85   28.97
  -5   1  10  377.17   21.61
  -5  -1 -10  399.08   31.32
  -5   1 -10  411.70   30.86
  -5  -1 -10  401.28   25.04
  -5   1 -10  396.73   23.47
  -5   1 -11   27.93    6.23
   5  -1 -11   19.59    6.66
  -5  -1 -11   33.97    9.14
  -5   1 -11   30.75    8.71
   5   1 -11   20.91    7.41
  -5  -1 -11   33.12    7.56
   5  -1 -12  131.80   17.84
   5   1 -12  146.04   18.33
  -5   1 -12  110.92   16.68
  -5  -1 -12  169.93   17.97
  -5   1 -12  138.47   15.24
   5  -1 -13  283.22   26.03
   5   1 -13  288.36   27.23
  -5  -1 -13  304.71   28.92
  -5  -1 -13  251.15   23.25
  -5   1 -13  276.80   22.52
   5  -1 -14   99.94   16.09
   5   1 -14   70.65   13.65
  -5  -1 -14  108.48   17.97
  -5   1 -14  106.28   17.19
  -5  -1 -14  118.04   16.00
  -5   1 -14   98.38   13.85
  -5   1 -15   14.41    5.88
   5  -1 -15    7.05    4.60
  -5  -1 -15    3.38    5.28
  -5   1 -15    9.88    3.99
   5   1 -15   11.52    5.61
  -5  -1 -15   15.45    6.05
   5   1 -16   88.53   15.74
  -5  -1 -16   67.63   14.29
  -5  -1 -16  115.91   17.74
  -5   1 -16  101.59   15.56
   5  -1 -16  101.62   16.75
  -5  -1 -17   17.71    7.17
  -5   1 -17   14.45    5.71
   5   1 -17   22.53    8.19
  -5  -1 -17   25.36    9.39
  -5   1 -17   16.45    9.75
   5  -1 -17   27.54    8.51
   5  -1 -17   11.88   11.13
  -5  -1 -18   25.42    7.68
  -5   1 -18   14.51    7.01
   5  -1 -18   29.36    9.65
   5   1 -18   12.65    6.81
  -5  -1 -18   24.63    7.94
  -5   1 -18   16.33    7.15
   5  -1 -18   24.13    6.56
  -5  -1 -19   13.93    7.52
  -5   1 -19   19.69    6.56
   5  -1 -19   -0.30    3.79
   5   1 -19    9.72    5.06
  -5  -1 -19    0.41    3.55
  -5   1 -19   23.64    9.22
   5  -1 -19   12.72    6.67
   5   1 -19   10.96    5.58
  -5   1 -20   49.28   12.14
   5  -1 -20   56.55   13.51
  -5   1 -20   57.64   14.35
   5   1 -20   68.80   14.42
  -5  -1 -20   22.92    9.79
  -5  -1 -20   74.18   14.94
   5  -1 -20   70.02   14.38
   5   1 -20   36.08   11.86
  -5  -1 -21   34.64   11.04
  -5   1 -21   21.50    9.16
  -5  -1 -21   19.47    7.57
   5  -1 -21   55.08   13.97
   5   1 -21   19.52    8.85
  -5   1 -21   23.42    7.89
   5  -1 -21   10.77    5.88
   5   1 -21   33.76   12.22
  -5  -1 -22    0.15    3.97
  -5   1 -22   13.60    9.65
   5  -1 -22   -3.07    1.20
  -5  -1 -22    2.91    5.92
  -5   1 -22   -1.32    4.72
   5  -1 -22    0.62    2.74
   5   1 -22   -2.69    2.21
   5   1 -22    4.78    7.26
  -5  -1 -23   49.55   14.02
  -5   1 -23   60.00   15.57
   5  -1 -23   38.92   11.50
  -5  -1 -23   12.27   15.06
   5  -1 -23   46.98   11.67
   5   1 -23   37.28   11.73
   5   1 -23   54.57   15.64
   5  -1 -24   84.93   18.82
  -5  -1 -24   46.03   14.70
   5   1 -24   60.47   16.04
  -5  -1 -24   79.68   20.35
  -5   1 -24   61.71   15.18
   5   1 -24   67.60   16.24
   5  -1 -24   60.34   13.63
  -5  -1 -25    6.20    6.10
  -5   1 -25    0.57    3.34
   5  -1 -25    5.10    1.83
  -5  -1 -25    3.44    5.04
   5   1 -25   -1.81    6.28
   5  -1 -25   -0.66    4.04
   5   1 -25   -1.31    6.20
  -5  -1 -26   18.51    9.02
   5  -1 -26   23.34   10.42
   5   1 -26   14.16    5.71
  -5  -1 -26   24.16   12.80
  -5   1 -26   12.60    5.91
   5  -1 -26   23.48    9.55
   5   1 -26    2.89    3.84
  -5  -1 -27    5.88    3.02
   5  -1 -27    6.15    5.79
   5   1 -27   23.09    8.19
  -5  -1 -27    7.21    6.22
  -5   1 -27   16.15    7.95
   5  -1 -27   13.30    7.52
   5   1 -27   14.70    6.58
   5  -1 -28    1.78    5.72
   5   1 -28    7.52    6.95
  -5  -1 -28    3.03    7.60
  -5   1 -28    1.63    0.64
   5  -1 -28   -1.08    3.20
   5   1 -28   -3.66    2.26
   5  -1 -29    7.80    3.33
   5   1 -29   19.00   10.29
  -5  -1 -29    6.02    7.93
  -5   1 -29   12.81    7.90
   5  -1 -29    2.20    1.85
   5   1 -29    4.47    3.98
   5  -1 -30    4.88    7.37
   5   1 -30    9.39    8.21
  -5  -1 -30   22.45   11.01
  -5   1 -30   12.71    8.12
   5  -1 -30   18.50    8.72
   5   1 -30   14.90    7.29
  -5   2   0   -0.91    1.10
   5   2   0    5.90    4.21
   5  -2   0    0.04    0.25
   5   2   0   -0.13    0.52
  -5   2   0    2.05    3.63
  -5  -2   0   -2.32    3.78
  -5   2   1   87.91    8.75
   5  -2  -1   79.31    6.49
   5   2  -1   83.97   10.76
   5   2   1   88.22    7.38
   5   2   1   82.84   10.58
  -5  -2  -1  100.94   14.22
  -5   2  -1   68.51    9.84
  -5  -2   1   88.01   13.58
  -5   2  -1  111.21   10.76
  -5   2   2   43.54    6.24
   5  -2  -2   68.69    6.88
   5   2   2   58.23    6.92
  -5  -2  -2   60.75   11.30
  -5   2  -2   58.35    9.57
   5   2   2   59.77    8.60
   5   2  -2   67.78    9.71
  -5   2  -2   89.76    9.94
   5  -2  -3  891.94   28.50
  -5   2   3  741.28   25.19
   5   2   3  714.68   24.86
  -5  -2  -3  791.11   40.69
  -5   2  -3  773.87   33.98
   5   2   3  812.08   31.74
   5   2  -3  633.49   31.09
  -5   2  -3  703.17   30.10
   5  -2  -4  480.41   22.96
  -5   2   4  648.67   23.69
  -5   2  -4  626.63   31.63
  -5  -2  -4  489.90   31.13
   5   2   4  513.15   27.08
  -5   2  -4  577.60   30.21
   5   2   5  608.39   29.47
   5  -2  -5  699.91   29.99
  -5   2   5  580.38   22.08
   5   2  -5  684.22   34.48
  -5   2  -5  638.84   33.01
   5  -2  -6  472.31   26.24
   5   2   6  416.59   24.19
  -5   2   6  392.57   19.56
  -5  -2  -6  561.58   34.42
   5   2  -6  382.77   26.54
  -5   2  -6  253.17   21.02
   5  -2  -7   73.39   10.55
  -5   2   7   79.99    9.37
  -5  -2  -7   68.43   11.44
  -5   2  -7   75.28   11.68
   5   2  -7   53.11   10.78
  -5   2  -7   93.24    7.39
   5   2  -8   -0.45    2.04
   5  -2  -8    3.86    2.92
  -5   2   8    0.82    1.62
  -5  -2  -8   -1.22    3.27
  -5   2  -8    2.54    2.40
  -5   2  -8    3.93    2.05
   5  -2  -9  390.95   27.60
   5   2  -9  326.00   26.28
  -5  -2  -9  347.63   25.56
  -5  -2  -9  371.69   29.92
  -5   2  -9  409.00   20.36
   5  -2 -10   98.60   14.49
  -5   2  10   66.63   10.95
   5   2 -10  110.95   15.64
  -5   2 -10  140.43   17.58
  -5  -2 -10  161.52   20.30
  -5  -2 -10  135.76   16.28
  -5   2 -10  121.74   11.96
   5  -2 -11   42.93    9.81
  -5   2  11   44.13    8.91
  -5  -2 -11   43.89   10.94
  -5   2 -11   41.12    9.31
  -5  -2 -11   42.13    8.76
  -5   2 -11   48.74    8.07
   5   2 -11   36.63    8.74
   5  -2 -12  119.91   16.92
   5   2 -12   99.92   15.95
  -5  -2 -12   66.40   13.73
  -5   2 -12  122.38   17.50
  -5  -2 -12   80.85   12.56
  -5   2 -12   89.20   11.80
   5  -2 -13  440.84   33.17
   5   2 -13  438.17   33.70
  -5   2  13  373.50   25.63
  -5  -2 -13  315.69   29.09
  -5   2 -13  486.35   36.86
  -5  -2 -13  400.27   29.53
  -5   2 -13  332.53   24.50
  -5   2 -14   30.82    8.16
   5  -2 -14   26.47    8.63
  -5  -2 -14   20.44    9.15
  -5   2 -14   20.85    7.56
   5   2 -14   31.67    9.21
  -5  -2 -14   18.45    6.34
   5  -2 -15  130.77   19.08
   5   2 -15  116.15   18.79
  -5   2  15   94.10   14.11
  -5  -2 -15  147.55   20.90
  -5  -2 -15  103.57   16.37
  -5   2 -15  115.33   15.61
   5  -2 -16   74.31   14.87
  -5  -2 -16   72.93   15.11
  -5   2 -16   69.09   14.03
  -5  -2 -16   63.56   13.12
   5   2 -16   43.05   10.94
   5  -2 -16   64.38   13.29
  -5   2 -16   75.23   13.45
   5  -2 -17  123.68   19.19
   5   2 -17  137.97   20.87
  -5  -2 -17  129.08   19.69
  -5   2 -17  123.81   19.71
  -5  -2 -17  136.65   19.72
   5  -2 -17   98.40   17.57
  -5   2 -17  122.28   17.87
   5   2 -18   73.77   15.42
   5  -2 -18   61.45   14.58
  -5  -2 -18   80.01   17.61
  -5   2 -18   75.38   15.70
  -5  -2 -18   85.17   15.61
  -5   2 -18   79.65   15.72
   5  -2 -18   50.65   12.36
   5  -2 -19   45.26   13.55
   5   2 -19   24.56    9.18
  -5  -2 -19   36.43   12.54
  -5   2 -19   29.74    9.41
   5  -2 -19   28.77   10.16
  -5  -2 -19   42.32   12.59
   5  -2 -20  105.56   19.27
   5   2 -20   91.79   17.16
  -5  -2 -20  114.45   20.52
  -5   2 -20   95.25   18.70
  -5  -2 -20   91.63   16.88
   5  -2 -20  105.24   18.67
   5   2 -20   48.15   12.68
   5  -2 -21    7.98    5.77
   5   2 -21    6.07    1.22
  -5   2 -21   12.65    6.39
  -5  -2 -21   12.81    5.63
   5  -2 -21   18.65    8.84
   5   2 -21   12.04    6.17
  -5  -2 -22   20.97   10.88
   5  -2 -22   26.87    9.95
   5   2 -22   25.35   11.37
  -5  -2 -22   33.60   11.09
  -5   2 -22   33.52   11.34
   5  -2 -22   17.59    8.13
   5   2 -22   16.66    7.51
  -5  -2 -23   27.27    9.81
   5  -2 -23   11.99    4.12
   5   2 -23   16.72    8.05
  -5  -2 -23   13.05    8.47
  -5   2 -23   11.27    5.76
   5  -2 -23   11.65    6.11
   5   2 -23   13.70    7.86
  -5  -2 -24   27.87   10.44
   5   2 -24   22.20    8.88
   5  -2 -24   12.43    6.92
  -5  -2 -24   15.31    8.83
  -5   2 -24    9.47    4.08
   5  -2 -24   10.60    6.30
  -5  -2 -25    1.56    3.32
   5  -2 -25    1.04    2.49
   5   2 -25    1.91    7.70
  -5  -2 -25   -2.94    5.02
  -5   2 -25    1.93    2.47
   5  -2 -25    1.34    1.55
   5   2 -25    3.97    5.60
  -5  -2 -26    6.58    4.85
   5  -2 -26    9.29    5.74
   5   2 -26    7.86    7.39
  -5  -2 -26   12.26    7.02
  -5   2 -26    5.06    4.11
   5  -2 -26    9.16    6.13
   5   2 -26   -4.85    6.24
  -5  -2 -27   54.60   15.91
   5  -2 -27   41.88   14.17
   5   2 -27   61.75   15.85
  -5  -2 -27   53.71   16.25
  -5   2 -27   71.87   17.57
   5  -2 -27   61.22   16.43
   5   2 -27   54.39   16.06
  -5  -2 -28   -6.29    7.38
   5  -2 -28   -0.47    2.95
   5   2 -28   -2.90    3.18
  -5  -2 -28    0.21    3.71
  -5   2 -28    2.66    3.31
   5  -2 -28    3.87    4.72
   5   2 -28    8.84    7.76
  -5  -2 -29    4.56    2.60
   5  -2 -29    0.74    2.74
   5   2 -29    1.85    5.74
  -5  -2 -29   11.18    5.93
  -5   2 -29    2.63    3.65
   5   2 -29   15.16    9.14
  -5   3   0    0.62    2.24
   5   3   0    0.12    0.39
   5   3   0    1.62    2.20
  -5   3   0   -0.40    1.53
  -5  -3   0    0.03    1.08
   5  -3  -1    5.65    1.59
  -5   3  -1    9.62    2.67
  -5   3   1    4.30    2.90
   5   3  -1    9.42    4.13
  -5   3  -1    3.11    1.60
   5   3  -1    3.93    1.32
   5   3   1    6.62    2.55
  -5  -3  -1   -1.02    2.43
   5   3   1    7.07    3.14
   5   3  -2  142.97   10.10
  -5   3   2  152.76   13.85
   5   3  -2  182.45   17.02
   5   3   2  164.06   13.41
  -5  -3  -2  112.61   15.71
  -5   3  -2  135.19   13.75
   5   3   2  186.70   16.20
   5  -3  -2  150.09    9.78
  -5   3  -3    2.47    3.65
   5   3  -3    1.23    1.32
   5  -3  -3    2.34    1.50
   5   3   3    4.80    2.25
  -5   3   3    0.55    1.55
  -5  -3  -3   -2.12    1.74
  -5   3  -3    5.02    3.62
   5   3   3    3.14    1.30
   5   3  -3    0.98    1.86
  -5   3  -4    1.89    2.89
   5   3  -4    0.86    0.98
   5  -3  -4   -0.65    1.91
  -5   3   4   -0.18    1.55
  -5  -3  -4    0.89    2.70
  -5   3  -4    3.95    3.01
   5   3   4   -0.71    2.30
   5   3  -4   -0.23    2.82
   5   3   4    0.53    1.54
   5   3   5  184.55   17.23
  -5   3   5   75.41    9.75
  -5  -3  -5  199.08   20.38
   5   3   5  204.78   16.27
  -5   3  -5  174.02   16.54
   5   3  -5  245.08   21.14
   5  -3  -5  153.99   14.13
   5   3  -5  175.97   12.17
  -5   3  -5   94.13   13.11
  -5   3  -6   14.92    6.17
   5   3   6   39.31    8.08
  -5   3   6   24.11    5.31
   5   3  -6   29.14    6.87
   5   3   6   29.45    6.35
  -5  -3  -6   41.78   10.03
  -5   3  -6   30.90    7.83
   5  -3  -6   31.66    7.18
   5   3  -6   30.32    5.05
   5   3   7  187.67   17.50
  -5  -3  -7  162.91   18.68
  -5   3  -7  211.75   19.97
   5   3  -7  201.07   20.50
   5  -3  -7  136.20   14.49
  -5   3  -8    8.77    2.73
  -5   3  -8    4.80    2.40
   5   3  -8    6.90    4.14
   5  -3  -8    4.72    3.73
  -5  -3  -8    6.82    3.03
  -5   3  -8    7.74    3.72
  -5   3   8    0.89    0.55
   5   3  -9   20.35    8.16
   5  -3  -9   22.70    5.96
  -5   3  -9   44.11    9.96
  -5   3   9   27.36    7.59
  -5  -3  -9   32.12    8.99
  -5  -3  -9   27.98    7.69
  -5   3  -9   27.24    5.44
  -5   3  -9   30.07    8.47
   5   3 -10   19.90    7.91
   5  -3 -10   18.23    6.65
  -5   3  10    9.81    3.58
  -5  -3 -10    6.90    5.33
  -5   3 -10   17.41    5.57
  -5  -3 -10   12.22    4.26
  -5   3 -10   18.08    5.39
   5   3 -11    2.53    3.80
   5  -3 -11    2.77    3.23
  -5   3  11    0.82    2.59
  -5  -3 -11   -0.13    1.98
  -5   3 -11    2.59    1.87
  -5  -3 -11    3.84    2.61
   5   3 -12    2.47    3.56
  -5  -3 -12    1.63    0.79
   5  -3 -12    4.91    2.99
  -5   3  12    0.04    3.20
  -5   3 -12    0.52    1.35
  -5  -3 -12   -1.39    4.59
   5   3 -13  142.34   18.72
  -5  -3 -13  140.39   20.06
  -5   3 -13   79.92   14.38
  -5  -3 -13   97.12   14.64
   5  -3 -13  122.27   16.96
   5  -3 -13  137.14   18.54
   5  -3 -14    0.18    1.67
  -5   3  14   -2.29    4.13
  -5  -3 -14   -1.10    1.08
  -5   3 -14   -0.03    3.06
  -5  -3 -14    1.09    4.47
   5  -3 -14   -1.00    1.85
   5   3 -14    1.47    3.50
  -5   3  15   65.86   13.39
  -5  -3 -15  112.63   18.60
  -5   3 -15  116.11   17.69
  -5  -3 -15   96.98   15.80
   5  -3 -15  108.65   16.68
   5  -3 -15   72.03   14.02
   5  -3 -16   13.63    5.31
  -5   3  16    9.83    6.14
  -5  -3 -16   19.32    7.59
  -5   3 -16    6.40    4.12
   5   3 -16   25.90    9.18
  -5  -3 -16   21.67    7.92
   5  -3 -16   20.06    6.86
   5  -3 -17    5.47    5.15
  -5   3  17   -2.70    1.94
  -5  -3 -17    0.63    3.05
  -5   3 -17   -2.23    4.85
   5   3 -17   -1.49    2.62
   5  -3 -17    0.42    2.37
  -5  -3 -17   -3.71    6.31
   5  -3 -18    2.38    3.56
  -5   3  18   -3.23    3.21
  -5  -3 -18    1.51    2.01
  -5   3 -18   -0.55    1.27
   5   3 -18    1.27    3.66
   5  -3 -18   -1.74    4.64
  -5  -3 -18    7.21    5.55
  -5   3  19   10.18    3.68
   5  -3 -19   19.21    8.09
  -5  -3 -19   26.56    9.45
   5   3 -19   24.16   10.23
   5  -3 -19   13.66    8.25
  -5  -3 -19   26.72    9.15
   5  -3 -20   12.01    6.17
  -5  -3 -20   13.87    6.80
  -5   3  20   13.30    6.49
   5   3 -20    7.79    4.05
  -5   3 -20    8.79    6.47
   5  -3 -20    3.06    4.71
  -5  -3 -20    5.20    4.18
   5  -3 -21   16.54    7.85
  -5  -3 -21   13.97    9.06
  -5   3  21    1.29    1.89
   5   3 -21    3.90    3.30
  -5   3 -21    4.11    1.80
   5  -3 -21    7.99    1.63
   5   3 -21    3.98    6.22
  -5  -3 -21    7.27    5.80
   5  -3 -22    1.19    4.67
   5   3 -22    4.78    6.41
  -5  -3 -22   -3.18    6.31
  -5   3  22    3.65    3.49
  -5   3 -22    3.90    3.49
   5  -3 -22   -1.32    5.72
   5   3 -22    5.89    6.13
  -5  -3 -22    8.10    6.15
   5  -3 -23    9.65    4.96
   5   3 -23    0.79    6.84
  -5  -3 -23    4.60    4.65
  -5   3  23   26.83    9.47
  -5   3 -23   10.16    7.50
   5  -3 -23   23.29    9.83
   5   3 -23    7.86    6.04
  -5  -3 -23   13.84    6.84
   5  -3 -24   70.04   16.34
   5   3 -24   34.51   12.02
  -5  -3 -24   29.33   10.64
  -5   3  24   41.00   12.19
  -5   3 -24   58.64   15.75
   5  -3 -24   39.83   12.18
   5   3 -24   43.14   11.53
  -5  -3 -24   50.81   14.21
   5  -3 -25   12.18    6.85
   5   3 -25    2.69    4.23
  -5  -3 -25   10.20    8.84
  -5   3 -25   -6.70    8.01
   5  -3 -25    8.32    7.78
   5   3 -25    8.36    6.01
  -5  -3 -25   10.67    7.64
   5  -3 -26    5.18    4.74
   5   3 -26   -0.72    5.38
  -5  -3 -26    2.67    6.20
  -5   3 -26   -2.86    7.22
   5  -3 -26   -4.53    3.48
   5   3 -26   -0.47    0.29
  -5  -3 -26   -3.74    4.69
   5  -3 -27   36.57   15.74
   5   3 -27    2.13    4.84
  -5  -3 -27   23.15   11.71
  -5   3 -27   25.84   10.04
   5  -3 -27   27.01    8.44
   5   3 -27    5.81    4.19
  -5  -3 -27   28.91   11.50
   5  -3 -28   -1.33    2.81
   5   3 -28   -4.19    3.59
  -5  -3 -28    0.74    5.13
  -5   3 -28    4.83    6.72
   5  -3 -28    3.80    3.41
   5   3 -28   -8.97    6.85
  -5  -3 -28   -6.62    7.39
   5  -3 -29    7.14    9.77
   5   3 -29   12.23   10.06
  -5  -3 -29    6.04    5.65
  -5   3 -29   12.88    4.24
   5  -3 -29    3.61    5.38
   5   3 -29    8.60    5.36
  -5  -3 -29    6.87    2.86
  -5   4   0    0.39    1.96
   5   4   0   -0.42    1.18
  -5  -4   0   -1.60    1.57
   5   4   0    0.36    2.34
  -5   4  -1  276.87   21.53
  -5   4   1  312.80   22.50
   5   4  -1  221.91   15.50
   5   4   1  322.75   18.35
   5   4  -1  282.01   23.35
  -5  -4  -1  237.17   23.11
  -5   4  -1  183.93   14.81
   5   4   1  228.23   19.59
   5   4   2    6.10    2.69
  -5   4  -2    2.81    1.91
   5   4  -2    5.78    3.94
   5   4  -2    4.17    2.47
  -5   4   2    2.17    1.73
   5   4   2    8.27    3.11
  -5  -4  -2    1.33    3.68
  -5   4  -2    8.69    4.10
   5  -4  -2    3.85    1.70
   5  -4  -3    3.23    0.88
   5   4  -3    3.08    0.62
  -5   4  -3    6.34    3.72
   5   4  -3    0.58    1.35
  -5   4   3    2.03    3.00
   5   4   3    0.97    2.08
   5   4   3    0.92    1.49
  -5  -4  -3    1.33    4.78
  -5   4  -3   -0.76    2.20
   5   4  -4   49.92   10.04
   5   4  -4   69.14    8.68
  -5   4   4   58.92    9.85
   5   4   4   71.86   10.33
  -5  -4  -4   51.22   11.46
  -5   4  -4   41.59    7.07
   5  -4  -4   46.59    7.21
   5   4   4   69.12   11.20
  -5   4  -4   40.78    8.14
  -5   4  -5   23.09    6.51
   5   4   5   27.38    7.08
   5   4   5   36.77    7.86
  -5   4   5   15.16    4.72
  -5  -4  -5   27.69    8.40
  -5   4  -5   29.44    6.14
   5   4  -5   16.51    5.60
   5  -4  -5   29.62    5.94
   5   4  -5   27.93    5.63
   5   4   6  404.23   27.93
  -5   4   6  313.43   21.59
   5   4   6  606.94   33.44
  -5  -4  -6  489.10   33.80
  -5   4  -6  569.11   31.98
   5  -4  -6  341.44   22.65
   5   4  -6  376.61   28.37
   5   4  -6  383.38   21.21
  -5   4  -6  403.92   28.33
  -5   4   7  346.79   23.68
   5   4   7  246.32   22.16
   5   4   7  341.93   24.64
  -5  -4  -7  262.73   25.18
  -5   4  -7  236.14   20.55
   5   4  -7  334.97   27.48
   5  -4  -7  328.63   23.46
   5   4  -7  215.75   16.52
  -5   4  -7  377.37   28.06
  -5   4   8   63.12   10.72
  -5   4  -8  109.58   14.39
   5   4   8   98.44   13.13
  -5  -4  -8   83.28   14.57
   5   4  -8   71.32   12.47
   5  -4  -8   82.77   12.69
   5   4  -8   89.18   11.93
  -5   4  -8  111.72   15.64
   5   4   9   45.10    9.33
  -5  -4  -9   59.96   11.61
  -5   4   9   19.89    6.58
  -5   4  -9   69.73   11.47
   5   4  -9   51.30   11.86
   5  -4  -9   65.39   11.79
   5   4  -9   46.86    9.00
  -5   4  -9   77.80   14.59
  -5   4 -10    4.89    3.00
   5  -4 -10    5.00    4.14
   5   4 -10    0.09    3.92
  -5   4  10   -0.19    1.87
  -5  -4 -10   -0.13    4.66
   5   4  10   -0.44    2.44
  -5   4 -10   -0.03    0.91
  -5  -4 -10    3.74    4.43
   5  -4 -10   -1.21    0.68
  -5   4 -11   -1.32    4.66
   5   4 -11    6.57    5.70
   5  -4 -11    7.32    4.29
  -5   4  11   -0.77    1.15
  -5  -4 -11    2.58    3.47
  -5   4 -11    8.76    5.22
  -5  -4 -11    0.94    2.01
   5  -4 -11    2.66    4.28
  -5   4  12  129.62   18.07
  -5  -4 -12   83.43   16.10
   5   4 -12  104.90   16.51
  -5   4 -12  100.24   15.74
  -5  -4 -12  116.99   18.25
   5  -4 -12  118.25   15.59
   5  -4 -12  126.68   18.06
  -5   4 -12  155.45   21.48
   5   4 -13    9.69    3.39
   5  -4 -13   12.58    4.63
  -5   4  13   17.96    7.25
  -5  -4 -13   12.08    6.65
  -5   4 -13   17.30    8.31
  -5  -4 -13   12.75    6.77
   5  -4 -13   23.57    6.62
   5   4 -14   26.60    9.27
   5  -4 -14   41.95   11.63
  -5   4  14   14.53    6.17
  -5  -4 -14   24.10    7.29
  -5   4 -14   23.15    8.46
  -5  -4 -14   27.58    8.30
   5  -4 -14   19.94    6.80
   5  -4 -15    9.69    4.55
  -5   4  15    2.70    3.70
  -5  -4 -15    5.87    5.45
  -5   4 -15    1.04    4.64
  -5  -4 -15    2.76    0.47
   5  -4 -15    2.34    2.60
   5   4 -15    4.08    2.25
   5   4 -16  119.34   18.33
  -5   4  16  186.19   23.29
  -5  -4 -16  188.38   23.94
  -5   4 -16  191.76   23.62
  -5  -4 -16  135.19   19.16
   5  -4 -16  115.11   17.04
   5  -4 -16  113.82   18.71
   5   4 -17   86.90   16.45
  -5   4  17  125.44   18.85
  -5  -4 -17   79.65   15.69
  -5   4 -17   88.71   16.21
  -5  -4 -17   75.63   14.58
   5  -4 -17   56.23   12.48
   5  -4 -17   95.33   16.65
   5  -4 -18    0.29    1.23
  -5   4  18    5.09    7.42
  -5  -4 -18   -0.97    3.15
  -5   4 -18    0.52    3.12
   5   4 -18   -1.51    4.94
   5  -4 -18    0.26    2.89
  -5  -4 -18    9.88    6.74
   5  -4 -19   27.84   11.57
  -5   4  19   44.70   11.83
  -5  -4 -19   42.94   11.93
  -5   4 -19   39.09   11.53
   5   4 -19   23.61    9.84
   5  -4 -19   31.02    8.66
  -5  -4 -19   38.85   12.02
   5  -4 -20   10.36    9.68
  -5   4  20    8.08    7.73
  -5  -4 -20    6.05    5.73
  -5   4 -20    2.34    3.19
   5   4 -20    0.21    4.43
   5  -4 -20   -2.34    1.28
  -5  -4 -20   -2.96    4.04
   5  -4 -21    1.48    3.50
  -5   4  21    1.42    1.50
  -5  -4 -21    1.95    2.13
  -5   4 -21    2.97    4.72
   5   4 -21    7.23    1.57
   5  -4 -21    6.57    6.68
  -5  -4 -21    2.32    4.94
   5   4 -21    8.47    6.80
   5  -4 -22    3.67    5.30
  -5   4  22   -4.41    6.06
  -5  -4 -22   -2.05    3.33
   5   4 -22    6.03    1.21
  -5   4 -22    1.03    2.22
   5  -4 -22    4.99    8.19
  -5  -4 -22   -1.53    2.64
   5   4 -22   -1.50    2.61
   5   4 -23  139.18   22.99
  -5   4  23   85.42   17.77
  -5  -4 -23  129.15   22.82
  -5   4 -23  165.64   25.60
   5  -4 -23  147.34   23.52
  -5  -4 -23  173.93   25.38
   5   4 -23  138.21   23.79
   5  -4 -23  209.05   29.11
   5  -4 -24   11.54    8.85
  -5   4  24   -0.27    7.71
   5   4 -24   -3.22    1.81
  -5  -4 -24   -5.23    6.10
  -5   4 -24   -1.17    3.14
   5  -4 -24   -3.43    2.11
   5   4 -24   -1.85    3.15
  -5  -4 -24    2.08    3.37
   5  -4 -25    2.64    6.25
   5   4 -25   -1.64    5.16
  -5  -4 -25    0.68    1.82
  -5   4 -25    3.07    3.53
   5  -4 -25   -4.78    2.19
   5   4 -25   -1.47    4.13
  -5  -4 -25    1.72    4.70
   5  -4 -26   17.23    9.50
   5   4 -26   10.34    7.27
  -5  -4 -26   14.91    8.25
  -5   4 -26    0.70    3.17
   5  -4 -26   17.49   11.12
   5   4 -26   -0.38    4.91
  -5  -4 -26    0.36    3.08
   5  -4 -27   -0.22    3.90
   5   4 -27   -0.91    6.48
  -5  -4 -27   -0.63    5.07
  -5   4 -27   -1.44    3.40
   5  -4 -27    4.52    0.59
   5   4 -27    3.79    6.40
  -5  -4 -27    1.24    0.47
   5  -4 -28    2.80    6.02
   5   4 -28   -4.69    3.15
  -5  -4 -28   -5.94    5.73
  -5   4 -28   -2.01    3.59
   5  -4 -28    1.09    3.28
   5   4 -28   -5.93    6.07
  -5  -4 -28   -0.65    1.95
   5  -4 -29   -4.28    5.86
   5   4 -29    1.22    4.27
  -5  -4 -29   -1.56    3.14
  -5   4 -29    1.13    1.29
   5  -4 -29   -0.32    7.96
   5   4 -29   10.60    8.30
  -5  -4 -29    3.64    5.42
  -5   5   0    2.64    3.89
   5   5   0    2.81    2.42
  -5  -5   0    2.01    2.40
   5   5   0   -1.67    3.79
  -5   5  -1  344.58   26.51
  -5   5   1  228.32   21.53
  -5   5   1  254.25   13.25
   5   5  -1  266.37   19.67
   5   5   1  313.48   20.54
   5   5  -1  288.91   24.69
  -5   5  -1  308.36   17.21
  -5  -5  -1  246.96   24.75
   5   5   1  325.87   25.14
  -5   5  -2  119.40   15.72
   5   5  -2  121.74   13.10
  -5   5   2  129.09   15.80
   5   5   2  143.70   14.39
   5   5  -2  157.77   18.78
  -5  -5  -2  108.48   17.11
  -5   5  -2   91.68   11.21
   5   5   2  134.41   15.44
   5  -5  -2  189.33   12.67
   5   5  -3    2.27    3.04
  -5   5  -3    7.78    4.11
   5   5  -3    3.08    2.09
   5   5   3    0.39    1.76
  -5   5   3    5.93    2.42
  -5  -5  -3    4.14    3.57
  -5   5  -3    7.91    4.14
   5   5   3    4.12    3.09
   5  -5  -3    2.80    1.92
  -5   5  -4   29.55    7.04
   5   5  -4   26.83    5.96
   5   5   4   36.87    8.23
  -5   5   4   24.71    6.81
  -5  -5  -4   17.38    5.12
  -5   5  -4   12.04    4.13
   5   5   4   18.48    6.46
   5  -5  -4   21.96    5.62
   5   5  -4   21.49    6.21
  -5   5   5   77.42   12.66
   5   5   5   49.06    9.46
  -5  -5  -5   76.00   14.43
  -5   5  -5   65.48    9.64
   5  -5  -5   80.43   11.04
   5   5   5   63.34   11.67
   5   5  -5   95.95   14.34
  -5   5  -5   81.01   13.37
   5   5   6  167.00   18.87
  -5   5  -6  114.72   13.26
  -5   5   6  103.81   13.61
   5   5   6  184.45   19.31
  -5  -5  -6  144.19   19.25
   5  -5  -6  139.04   15.08
   5   5  -6  145.81   17.73
  -5   5  -6  199.76   21.25
   5   5  -6  164.02   16.52
   5   5   7   87.58   13.78
  -5   5   7  197.11   18.87
   5   5   7   96.29   14.15
  -5  -5  -7  130.05   18.11
  -5   5  -7  136.13   15.73
   5  -5  -7  192.43   18.22
   5   5  -7  117.01   16.78
  -5   5  -7  106.81   16.23
   5   5  -7  148.22   15.37
  -5   5   8   68.99   12.10
   5   5   8   52.96   10.71
   5   5   8   65.85   12.40
  -5  -5  -8   99.03   15.33
  -5   5  -8   68.66   11.09
   5   5  -8  101.20   16.11
   5  -5  -8   65.23   11.28
   5  -5  -8   73.72   10.12
   5   5  -8   89.10   11.66
  -5   5  -8   84.25   14.55
   5   5  -9    7.66    2.93
  -5   5  -9    4.98    4.70
   5  -5  -9   11.35    5.76
   5   5  -9    3.90    5.55
  -5   5   9    4.96    4.06
  -5  -5  -9    2.82    0.76
   5   5   9    6.09    3.47
  -5   5  -9    8.02    3.98
   5  -5  -9    8.58    4.01
   5   5 -10    6.58    3.07
  -5   5 -10    5.50    4.03
   5  -5 -10    7.94    4.05
   5   5 -10    3.60    4.12
  -5   5  10    4.71    4.12
  -5  -5 -10    8.82    4.45
   5   5  10    8.79    2.77
  -5   5 -10    0.86    3.71
   5  -5 -10    1.48    1.35
   5   5 -11   42.67    9.60
   5  -5 -11   27.91    8.41
   5   5 -11   35.81    9.11
   5   5  11   73.83   12.88
  -5   5  11   49.30   11.10
  -5  -5 -11   50.38   10.71
  -5   5 -11   29.18    7.82
   5  -5 -11   34.07    7.86
  -5   5 -11   51.55   13.41
  -5   5  12  258.01   26.03
   5   5  12  179.06   20.55
   5   5 -12  163.00   21.98
  -5   5 -12  196.03   21.84
  -5  -5 -12  208.43   23.49
   5  -5 -12  140.10   16.30
   5  -5 -12  162.87   20.79
   5   5 -12  141.76   18.39
  -5   5 -12  254.50   28.90
  -5   5 -13    6.53    6.64
   5   5 -13    6.57    7.74
   5  -5 -13    9.82    6.55
  -5   5  13    6.53    5.26
  -5  -5 -13   -1.61    5.19
   5   5  13    5.59    3.56
  -5   5 -13    7.68    5.05
  -5  -5 -13   -0.99    2.37
   5  -5 -13   -0.73    3.01
   5   5 -14    3.36    2.85
   5  -5 -14   10.74    7.55
  -5   5  14    2.16    3.96
  -5  -5 -14    3.98    5.06
   5   5  14    4.72    5.36
  -5   5 -14    7.34    4.57
  -5  -5 -14    3.00    3.30
   5  -5 -14    0.55    1.47
  -5   5 -14    7.79    5.45
   5   5 -15    9.97    5.84
   5  -5 -15    5.23    3.21
  -5   5  15   11.24    6.54
  -5  -5 -15   10.30    6.97
   5   5  15    9.66    4.65
  -5   5 -15    6.47    4.98
  -5  -5 -15    7.92    5.91
   5  -5 -15    4.13    3.04
   5   5 -16   20.68    9.03
   5  -5 -16   13.93    7.09
  -5   5  16   12.66    5.84
  -5  -5 -16   23.01   10.53
  -5   5 -16   13.87    7.45
  -5  -5 -16    8.22    4.64
   5  -5 -16    8.37    5.28
   5  -5 -17   -0.48    1.48
  -5   5  17    2.83    3.97
  -5  -5 -17    1.79    7.37
  -5   5 -17    3.07    5.29
  -5  -5 -17    5.14    6.35
   5  -5 -17    2.81    4.46
   5   5 -17    0.28    3.05
   5  -5 -18   12.11    6.75
  -5   5  18    9.04    3.20
  -5  -5 -18   13.62    6.04
  -5   5 -18   17.17   10.76
   5  -5 -18   18.73    6.88
  -5  -5 -18    6.78    3.86
   5   5 -18   18.17    8.31
   5  -5 -19   -2.76    5.74
  -5   5  19    7.78    7.07
  -5  -5 -19    6.00    4.85
  -5   5 -19    9.29    9.20
   5  -5 -19   -6.87    8.24
  -5  -5 -19    3.74    6.21
   5   5 -19   -3.09    2.15
   5  -5 -20    0.20    0.89
  -5   5  20    1.83    3.62
  -5  -5 -20    2.54    5.52
  -5   5 -20    0.90    3.49
   5   5 -20    0.58    2.33
   5  -5 -20    1.43    4.13
  -5  -5 -20   -0.14    1.08
   5  -5 -21   16.19    6.77
  -5   5  21   51.87   14.95
  -5  -5 -21   59.33   14.83
  -5   5 -21   30.30   12.51
   5   5 -21   35.75   11.69
  -5  -5 -21   36.61   11.28
   5  -5 -22   -3.28    5.64
  -5   5  22    1.06    2.03
  -5  -5 -22    3.63    4.37
  -5   5 -22    3.50    4.35
   5   5 -22   -0.02    3.10
   5  -5 -22    2.08    0.96
  -5  -5 -22    6.68    4.04
   5   5 -22   14.83   11.74
   5  -5 -23   20.05    9.40
  -5   5  23   30.82   10.55
  -5  -5 -23   22.27    7.20
   5   5 -23   24.94    9.78
  -5   5 -23   17.93    8.45
   5  -5 -23   24.44   10.96
  -5  -5 -23   28.42   10.70
   5   5 -23    3.66    6.81
   5  -5 -24   13.42    7.31
  -5   5  24   21.54   10.70
  -5  -5 -24   34.05   12.05
   5   5 -24   28.46   11.24
  -5   5 -24   31.56   11.66
  -5  -5 -24   41.99   11.02
   5   5 -24   18.70    4.44
   5  -5 -25    6.06    6.10
  -5   5  25   -4.68    7.05
  -5  -5 -25   -0.05    4.69
   5   5 -25    2.40    6.47
  -5   5 -25    5.37    6.17
  -5  -5 -25   18.96    9.41
   5   5 -25    3.39    5.25
   5  -5 -26   -1.71    3.37
   5   5 -26   24.58   12.38
  -5  -5 -26   29.58   11.78
  -5   5 -26    4.77    3.74
  -5  -5 -26   11.52    8.77
   5   5 -26    4.65    3.89
   5  -5 -27   -3.63    7.61
   5   5 -27   -1.38    2.98
  -5  -5 -27   -4.21    4.79
  -5   5 -27    7.84    7.98
  -5  -5 -27    4.77    5.82
   5  -5 -28    9.56    6.40
   5   5 -28   10.74   10.60
  -5  -5 -28   14.20    9.98
  -5   5 -28   16.35   12.33
   5   5 -28   -3.75    2.02
  -5  -5 -28   -2.08    4.49
  -5   6   0    0.89    2.18
   5   6   0    0.24    1.36
   5   6   0    1.43    2.50
  -5   6  -1  390.66   30.75
  -5   6   1  374.20   29.66
   5   6  -1  290.86   22.78
   5   6   1  405.66   26.63
   5   6  -1  433.20   30.91
   5   6   1  333.88   26.40
  -5  -6  -1  327.67   28.75
  -5   6  -2  240.59   23.39
   5   6  -2  172.01   17.24
  -5   6   2  236.13   22.72
   5   6   2  179.99   17.26
   5   6  -2  206.46   22.28
   5   6   2  175.51   18.61
  -5  -6  -2  216.04   23.98
  -5   6  -3  186.47   21.29
   5   6  -3  207.21   19.50
  -5   6   3  217.50   22.19
   5   6  -3  254.65   24.09
   5   6   3  250.48   21.12
  -5  -6  -3  229.74   24.61
   5  -6  -3  308.85   19.34
   5   6   3  179.50   19.06
  -5   6  -4   63.52   12.91
   5   6  -4   73.86   11.45
   5   6  -4   53.66   11.41
  -5   6   4   76.66   13.26
   5   6   4   92.97   13.70
  -5  -6  -4   80.65   15.79
   5  -6  -4   69.94    9.87
   5   6   4   51.23   10.46
  -5   6  -5   94.80   15.01
   5   6  -5   78.52   12.04
   5   6  -5  117.32   16.01
  -5   6   5  163.56   19.33
   5   6   5  182.79   19.34
  -5  -6  -5  126.16   18.30
   5  -6  -5  178.22   15.99
   5   6   5  111.62   16.61
  -5   6  -6    7.35    3.50
   5   6  -6    7.34    1.82
   5   6   6    5.77    4.38
  -5   6   6    8.01    3.84
   5   6   6   12.76    6.39
  -5   6  -6   16.24    6.57
  -5  -6  -6   13.53    8.09
   5   6  -6   12.14    4.96
   5  -6  -6   14.54    5.10
  -5   6  -7   27.07    8.17
   5   6  -7   15.05    5.90
  -5   6   7    9.40    4.55
  -5  -6  -7   23.46    7.76
   5   6   7    9.99    5.18
  -5   6  -7    7.86    2.90
   5   6  -7   20.72    7.13
   5   6   7   26.84    8.00
   5  -6  -7   21.90    7.79
  -5   6  -8   33.94    9.35
   5   6   8   51.97   11.93
   5   6   8   45.85   10.68
  -5   6   8   24.45    6.73
  -5  -6  -8   34.56   10.13
   5   6  -8   41.96   11.05
  -5   6  -8   34.48    7.98
   5  -6  -8   42.19    9.36
   5   6  -8   46.99    9.76
  -5   6   9  243.23   23.99
   5   6   9  175.84   21.06
   5   6   9  153.97   20.70
  -5  -6  -9  164.24   21.65
  -5   6  -9  227.11   21.35
   5  -6  -9  170.80   19.07
   5   6  -9  220.91   24.42
  -5   6  -9  171.10   20.89
   5   6  -9  157.54   18.05
   5  -6 -10    1.67    0.90
   5   6 -10    2.41    2.55
  -5   6 -10    4.82    3.16
   5   6 -10    2.21    4.41
  -5   6  10    2.95    3.36
  -5  -6 -10    3.32    2.65
   5   6  10    1.15    2.86
  -5   6 -10   -1.38    4.45
   5   6 -11   41.45    9.73
  -5   6 -11   30.19   10.32
   5  -6 -11   24.95    7.90
   5   6  11   73.14   14.78
  -5   6  11   41.69   10.42
  -5  -6 -11   51.38   11.67
   5   6 -11   64.50   13.82
  -5   6 -11   24.23    7.21
  -5   6  12  163.78   21.58
   5   6  12  173.23   22.32
  -5  -6 -12  136.01   19.82
  -5   6 -12   66.93   12.99
   5   6 -12  112.21   17.95
   5  -6 -12  103.65   16.65
   5   6 -12  117.77   18.03
  -5   6 -12  124.24   20.33
  -5   6 -13   23.71   10.03
   5  -6 -13   57.45   12.59
   5   6 -13   56.71   14.33
  -5   6  13   31.19    9.31
  -5  -6 -13   36.27   10.30
   5   6  13   41.87   10.58
  -5  -6 -13   30.95    8.59
  -5   6 -13   43.59   10.81
   5   6 -13   71.54   14.76
  -5   6 -14    3.41    4.98
   5  -6 -14    9.15    4.27
   5   6 -14   -0.37    3.29
  -5   6  14   11.68    6.19
  -5  -6 -14    2.40    4.42
   5   6  14    7.90    5.94
  -5   6 -14    8.04    3.41
  -5  -6 -14    4.14    3.95
   5   6 -14    5.44    2.88
  -5   6  15  105.26   17.45
  -5  -6 -15  127.60   20.42
   5   6 -15  116.92   19.09
   5   6  15   94.03   17.21
  -5   6 -15   79.88   16.17
  -5  -6 -15  146.39   21.48
   5  -6 -15  100.28   16.97
  -5   6 -15   94.24   18.74
   5   6 -16   -0.19    4.80
   5  -6 -16   -3.02    2.12
  -5   6  16    0.18    0.26
  -5  -6 -16    2.07    4.24
   5   6  16   -0.66    1.52
  -5   6 -16    7.98    6.62
  -5  -6 -16   -2.02    1.59
  -5   6 -16    0.18    0.93
   5   6 -17    7.80    1.97
   5  -6 -17   -1.98    2.32
  -5   6  17   -0.53    2.49
  -5  -6 -17    2.39    0.72
   5   6  17    4.15    4.32
  -5   6 -17    1.76    4.07
  -5  -6 -17    1.49    3.10
   5  -6 -18    2.16    6.91
  -5   6  18    5.94    4.98
  -5  -6 -18   -6.64    6.97
   5   6  18    3.75    6.06
  -5   6 -18    0.30    2.99
  -5  -6 -18    2.35    5.46
   5   6 -18   -0.38    1.52
   5  -6 -19   12.00    5.44
  -5   6  19    8.81    7.57
  -5  -6 -19    9.06    4.12
   5   6  19    1.90    0.99
  -5   6 -19    4.76    7.29
  -5  -6 -19    7.87    5.70
   5   6 -19   -1.76    0.77
   5   6 -20  142.83   22.59
  -5   6  20  127.42   21.99
   5   6  20   98.37   18.63
  -5   6 -20  125.35   21.93
  -5  -6 -20   82.95   18.36
   5  -6 -20   88.88   18.81
  -5  -6 -20  121.06   23.45
   5  -6 -21    2.36    5.29
  -5   6  21    2.53    6.06
  -5  -6 -21   -2.52    1.94
   5   6  21    0.13    2.15
  -5   6 -21   -0.12    3.09
   5   6 -21    0.96    3.26
  -5  -6 -21   -0.76    1.82
  -5  -6 -22   82.93   18.38
  -5   6  22   45.26   14.27
  -5   6 -22  114.74   21.01
   5   6  22   54.72   13.89
  -5  -6 -22   92.46   18.68
   5  -6 -22   86.14   19.01
   5   6 -22   58.13   14.15
   5   6 -22   64.91   18.15
   5  -6 -23    4.46    3.68
  -5   6  23    8.20    4.77
  -5  -6 -23    2.71    2.91
   5   6  23   11.09    6.98
  -5   6 -23   15.75    8.87
   5   6 -23    0.02    2.34
  -5  -6 -23    9.82    5.62
   5   6 -23    0.67    4.12
   5  -6 -24   18.63    8.08
  -5   6  24    7.59    4.32
  -5  -6 -24   21.09    9.55
   5   6  24    9.00    8.54
  -5   6 -24   19.15    9.67
   5   6 -24   14.23    8.07
  -5  -6 -24   19.31    7.97
   5   6 -24   14.01    7.47
   5  -6 -25    1.11    3.01
  -5  -6 -25    4.04    5.74
   5   6  25    3.59    6.98
   5   6 -25   10.80   11.24
  -5   6 -25    9.66    5.99
  -5  -6 -25   -4.95    3.80
   5   6 -25   13.09    9.20
   5  -6 -26    6.14    2.36
  -5  -6 -26   -2.20    3.11
   5   6  26   14.33    7.28
   5   6 -26    5.24    5.37
  -5   6 -26   -2.29    5.93
  -5  -6 -26    5.25    4.55
   5   6 -26    1.70    4.58
   5  -6 -27   24.19   11.78
  -5  -6 -27   11.94    6.98
   5   6 -27   20.41   10.35
   5   6  27   13.93    7.06
  -5   6 -27   16.26   10.23
  -5  -6 -27   18.98   10.71
   5   6 -27    9.90    6.63
  -5   7   0    2.51    3.38
   5   7   0   -0.82    2.72
   5   7   0   -0.19    2.79
   5   7  -1   51.67   10.71
  -5   7  -1   32.35    8.54
  -5   7   1   41.34   10.45
   5   7   1   35.71    8.65
   5   7  -1   33.05    8.67
   5   7   1   34.30    8.81
  -5   7  -2  393.78   32.77
   5   7  -2  356.89   27.25
  -5   7   2  308.26   28.22
   5   7   2  267.27   23.00
   5   7  -2  320.16   29.31
  -5  -7  -2  357.69   30.99
   5   7   2  284.71   25.33
  -5   7  -3  160.39   20.49
   5   7  -3  111.50   15.54
  -5   7   3  132.68   18.65
   5   7   3  154.48   17.43
   5   7  -3  165.20   21.05
  -5  -7  -3  126.85   19.03
   5   7   3  130.93   17.51
  -5   7  -4   66.09   12.62
   5   7  -4  102.23   15.23
   5   7  -4   95.64   15.53
  -5   7   4  103.35   16.60
   5   7   4   79.14   13.12
  -5  -7  -4  109.06   18.00
   5   7   4   78.19   13.86
  -5  -7  -5   39.46   10.30
  -5   7  -5   36.03   10.48
   5   7  -5   29.07    7.71
   5   7   5   24.51    8.19
  -5   7   5   29.97    8.66
   5   7   5   37.97    9.65
   5  -7  -5   29.83    7.20
   5   7  -5   31.21    8.48
   5   7   6    1.44    2.16
  -5   7  -6    5.34    5.05
   5   7  -6    5.00    4.27
  -5   7   6    6.20    4.99
   5   7   6    6.92    4.44
  -5  -7  -6   17.95    8.20
   5  -7  -6    1.06    1.20
   5   7  -6    1.47    3.93
  -5   7  -7   -1.50    2.27
   5   7  -7    0.95    1.35
   5   7   7   -0.68    1.70
  -5   7   7   -1.65    3.05
   5   7   7    1.51    6.29
  -5  -7  -7    2.48    2.25
   5   7  -7   -3.02    4.97
   5  -7  -7    1.25    1.81
  -5   7  -8   37.12   10.38
   5   7  -8   31.32    8.02
  -5   7   8   43.36   10.72
   5   7   8   41.59   10.62
  -5  -7  -8   43.63   11.26
   5   7  -8   21.17    7.23
   5   7   8   29.02    8.08
   5  -7  -8   29.19    8.16
   5   7   9  145.79   19.65
  -5   7   9  123.32   17.63
   5   7   9  129.16   19.25
  -5  -7  -9  103.41   18.44
   5  -7  -9  169.81   19.91
   5   7  -9  151.04   20.26
  -5   7  -9  152.65   20.77
   5   7  -9  158.06   18.85
  -5   7 -10    2.86    3.94
   5   7 -10    8.82    3.28
   5   7  10   -0.77    0.41
   5   7 -10    2.39    2.06
  -5  -7 -10   -1.35    4.50
   5   7  10    0.68    2.56
  -5   7  10    4.79    2.30
   5  -7 -10    5.09    4.38
   5   7 -11   18.99    6.42
  -5   7 -11   36.31   10.22
   5   7  11   33.71   10.77
   5   7 -11   38.13   10.54
  -5   7  11   16.50    5.71
  -5  -7 -11   49.95   12.92
   5   7  11   41.17   12.28
   5  -7 -11   29.13    6.89
   5  -7 -12   20.90    8.39
   5   7 -12   28.03    8.03
  -5   7 -12   26.83    8.18
   5   7 -12   23.20    8.55
  -5   7  12   11.31    6.55
  -5  -7 -12   40.13   12.61
   5   7  12   11.69    6.40
   5  -7 -13   47.71   12.29
   5   7 -13   27.49   10.58
  -5   7 -13   55.49   14.38
   5   7 -13   42.78   11.79
  -5   7  13   56.92   14.22
  -5  -7 -13   69.45   14.81
   5   7  13   48.87   12.73
   5   7 -14   58.65   14.88
  -5   7  14   41.58   12.57
  -5  -7 -14   38.84   11.26
   5   7  14   46.61   13.34
   5  -7 -14   73.01   14.83
   5   7 -14   91.88   17.19
  -5   7 -14   58.82   15.44
   5   7 -15   13.57    7.16
  -5   7 -15   27.95   11.81
   5  -7 -15    7.71    5.75
   5   7 -15   17.03    9.71
  -5   7  15   13.27    6.78
  -5  -7 -15   11.16    6.53
   5   7  15    8.54    3.48
  -5  -7 -15   20.57    7.61
  -5   7 -15   -7.71    4.73
   5  -7 -16    1.68    2.21
   5   7 -16   10.48    5.21
  -5   7  16   17.01    9.45
  -5  -7 -16   15.23    8.27
   5   7  16    5.24    1.36
  -5  -7 -16   13.75    3.73
   5   7 -16   11.37    6.02
  -5   7 -17    9.51    8.19
   5  -7 -17    4.25    3.09
   5   7 -17   10.51    7.90
  -5   7  17    0.28    1.62
  -5  -7 -17    1.77    1.06
   5   7  17    1.70    2.78
  -5   7 -17    9.82    9.29
  -5  -7 -17    6.02    4.56
   5   7 -18    1.58    4.13
   5  -7 -18   -1.53    4.30
  -5   7  18    1.94    5.16
  -5  -7 -18   -3.97    5.00
   5   7  18   -4.19    3.46
  -5   7 -18   -1.90    2.82
  -5  -7 -18    2.02    3.65
   5  -7 -19    0.46    4.24
  -5   7  19    3.85    5.00
  -5  -7 -19    4.63    7.59
   5   7  19    1.59    3.77
  -5   7 -19    5.24    6.47
  -5  -7 -19   -2.92    3.12
   5   7 -19   -0.70    1.88
   5  -7 -20    2.78    4.92
  -5   7  20   -2.16    3.86
  -5  -7 -20    2.51    5.90
   5   7  20   -3.10    6.01
  -5   7 -20   -3.27    1.09
  -5  -7 -20   -2.35    3.90
   5   7 -20    0.02    2.45
   5  -7 -21   -0.02    3.63
  -5   7  21    9.17    4.62
  -5  -7 -21    0.48    3.70
   5   7  21    1.41    3.99
  -5   7 -21    3.34    3.84
  -5  -7 -21   10.47    6.27
   5   7 -21   -2.46    1.34
   5  -7 -22   -1.87    2.12
  -5   7  22    7.77    8.14
  -5  -7 -22   -0.70    3.12
   5   7  22    3.57    5.09
  -5   7 -22    3.43    6.31
  -5  -7 -22   -1.47    4.42
   5   7 -22   -4.42    5.06
   5   7 -22    5.07    6.44
   5  -7 -23   -2.47    4.40
  -5   7  23    2.66    7.19
  -5  -7 -23   24.07    9.96
   5   7  23    5.13    7.10
  -5   7 -23    4.75    5.21
   5   7 -23    3.68    5.17
  -5  -7 -23    6.91    6.44
   5   7 -23   -0.46    3.75
   5  -7 -24    8.75    6.63
  -5   7  24    6.87    6.29
  -5  -7 -24   15.47    8.70
   5   7  24    6.08    6.12
  -5   7 -24   -0.66    4.77
   5   7 -24    3.20    4.56
  -5  -7 -24    9.27    5.68
   5   7 -24   11.56    8.71
   5  -7 -25   10.66    8.88
  -5   7  25   28.78   15.59
  -5  -7 -25   21.72    5.38
   5   7  25    7.81    5.25
  -5   7 -25   11.07    9.37
   5   7 -25   14.62    6.65
  -5  -7 -25    5.59    7.54
   5   7 -25    3.54    5.13
   5  -7 -26   -1.04    5.25
  -5  -7 -26   -0.28    4.76
   5   7  26    2.67    4.38
   5   7 -26    2.65    1.46
  -5   7 -26   -1.70    7.98
  -5  -7 -26    2.03    3.99
   5   7 -26   -5.58    5.77
  -5   8   0    0.93    3.33
   5   8   0    0.63    2.25
   5   8   0   -0.17    1.60
   5   8  -1  490.07   34.94
   5   8   1  430.04   32.77
   5   8  -1  529.54   36.57
   5   8   1  515.70   35.74
  -5   8  -2  146.80   21.32
   5   8  -2   73.70   13.65
  -5   8   2   83.21   15.50
   5   8   2  103.79   15.78
   5   8  -2  112.10   17.85
  -5  -8  -2   59.37   13.71
   5   8   2   99.99   15.40
   5   8   3    1.34    3.35
  -5   8  -3    1.58    3.33
   5   8  -3    0.60    1.54
   5   8  -3    0.44    3.34
  -5   8   3    6.37    6.64
   5   8   3    3.91    1.56
  -5  -8  -3   -0.50    2.10
   5   8  -4   17.01    6.19
  -5   8  -4   14.12    7.40
   5   8  -4    9.64    5.62
   5   8   4    1.94    2.97
  -5   8   4   16.47    6.88
   5   8   4    6.80    2.38
  -5  -8  -4    7.30    5.26
  -5   8  -5 1049.10   57.80
   5   8  -5  817.49   45.12
   5   8  -5 1000.02   51.71
  -5   8   5  797.03   48.54
   5   8   5  629.41   39.49
  -5  -8  -5  963.73   54.44
   5   8   5  608.18   40.93
  -5   8  -6    2.15    3.05
   5   8  -6    6.56    5.49
  -5   8   6    9.80    6.44
   5   8   6   12.05    6.19
  -5  -8  -6   11.73    6.36
   5  -8  -6   12.24    6.15
   5   8   6   21.00    7.88
   5   8  -6   11.45    6.29
   5   8   7    0.71    1.90
  -5   8  -7   -1.40    4.15
   5   8  -7   -0.80    1.51
  -5   8   7    8.85    6.77
   5   8   7    0.44    1.59
  -5  -8  -7    4.90    2.89
   5   8  -7    3.84    0.79
   5  -8  -7    3.52    3.16
  -5   8  -8   12.44    6.55
   5   8  -8   16.36    6.83
   5   8   8   25.49    8.35
   5   8   8   21.90    7.78
  -5   8   8   13.95    6.58
  -5  -8  -8    8.75    5.24
   5   8  -8   13.08    6.97
   5  -8  -8   15.55    5.61
   5   8   9  364.41   32.87
  -5   8   9  266.96   27.82
  -5  -8  -9  313.46   32.76
   5  -8  -9  353.54   28.84
   5   8  -9  352.39   32.03
  -5   8  -9  234.29   27.15
   5   8  -9  332.87   30.82
   5   8  10   60.33   14.30
  -5   8  10   61.30   12.85
   5   8 -10   64.96   13.93
   5   8  10   50.71   13.25
  -5  -8 -10   51.46   13.48
   5  -8 -10   48.26   11.38
  -5   8 -10   67.49   15.43
   5   8 -10   72.98   14.57
  -5   8 -11   29.28    9.52
   5   8 -11   32.06    8.92
   5   8 -11   25.94    9.67
  -5   8  11   18.77    6.26
   5   8  11   46.68   13.84
  -5  -8 -11   30.14    9.56
   5  -8 -11   26.59    8.74
   5   8  11   20.85    6.92
   5   8 -12   25.62    7.64
  -5   8 -12   37.81   10.95
   5   8  12   30.27   10.02
   5   8 -12   44.62   11.22
  -5   8  12   32.81    9.92
   5   8  12   44.28   12.83
  -5  -8 -12   32.36   10.48
   5  -8 -12   29.73   10.40
  -5   8  13  105.56   18.88
   5   8  13  159.98   23.94
  -5  -8 -13  109.30   18.32
   5   8 -13  116.90   19.82
   5  -8 -13  166.91   22.61
   5   8 -13  126.49   19.54
  -5   8 -13  119.83   20.62
   5   8 -14   -0.51    3.34
  -5   8 -14   -1.96    3.54
   5   8 -14   -4.12    2.66
  -5   8  14    4.19    5.66
  -5  -8 -14    1.68    6.79
   5   8  14    1.29    3.09
   5  -8 -14   -0.38    3.85
   5   8 -15    7.75    6.85
  -5   8 -15   -0.62    7.01
   5   8 -15   13.39    6.04
  -5   8  15    1.53    3.62
  -5  -8 -15   12.04    7.10
   5   8  15    3.32    3.95
   5  -8 -15   12.20    7.57
   5   8 -16   -2.91    4.02
  -5   8 -16    2.59    3.15
   5   8 -16    7.84    8.58
  -5  -8 -16    1.81    5.95
   5   8  16    8.05    6.03
  -5   8  16   -6.97    5.36
   5  -8 -16    5.80    5.14
  -5   8  17  145.09   22.89
   5   8  17  109.98   20.30
   5   8 -17  112.20   19.50
  -5  -8 -17   59.14   13.74
   5  -8 -17   94.40   18.12
   5   8 -17   84.07   18.19
  -5   8 -17  116.28   22.09
   5  -8 -18    4.67    7.08
  -5   8 -18   -6.21    8.17
   5   8 -18    3.61    6.29
  -5  -8 -18   -0.18    4.37
   5   8  18    6.38    5.01
  -5  -8 -18   -2.82    2.62
  -5   8  18    0.49    3.50
   5  -8 -19   60.17   15.77
   5   8 -19   64.32   15.40
   5   8  19   86.07   19.65
  -5   8  19   56.26   16.54
  -5  -8 -19   49.30   13.16
  -5  -8 -19   73.22   16.22
  -5   8 -19  106.58   21.49
   5  -8 -20    7.63    6.74
  -5   8  20    0.98    3.27
  -5  -8 -20   -2.94    4.28
   5   8  20    5.87    6.15
  -5  -8 -20    2.85    2.27
   5   8 -20   14.16   10.49
   5  -8 -21   38.91   12.36
  -5   8  21   11.31    5.84
  -5  -8 -21   16.75    7.47
   5   8  21   33.62   11.52
  -5  -8 -21   22.22    7.13
   5   8 -21   15.18    9.81
   5  -8 -22    6.55    6.42
  -5   8  22    2.89    6.06
  -5  -8 -22    7.62    3.16
   5   8  22    3.78    2.80
  -5  -8 -22    6.30    4.56
   5   8 -22    1.85    5.17
   5   8 -22   -0.28    5.22
  -5   8  23   76.57   19.00
  -5  -8 -23   50.70   14.50
   5   8  23   53.84   16.34
   5  -8 -23   76.37   18.24
  -5  -8 -23   68.15   18.15
   5   8 -23   16.87   10.84
   5   8 -23   48.39   15.34
   5  -8 -24    8.87    8.57
  -5   8  24    6.36    7.77
  -5  -8 -24    0.16    4.66
   5   8  24    8.08    7.97
  -5  -8 -24    3.64    5.60
   5   8 -24   -3.23    6.34
   5   8 -24    3.92    1.63
   5  -8 -25    2.98    4.00
  -5  -8 -25   -0.56    7.38
   5   8  25   -1.36    3.69
   5   8 -25   -0.43    3.89
  -5  -8 -25   11.38    7.20
   5   8 -25    3.56    4.11
  -5   9   0    4.42    4.48
   5   9   0    3.26    4.55
   5   9   0    0.97    5.07
   5   9   1  190.43   22.70
  -5   9  -1  221.01   27.21
  -5   9   1  245.81   28.24
   5   9  -1  176.44   22.02
   5   9   1  267.66   27.60
   5   9  -1  171.43   22.36
  -5   9  -2    5.70    4.85
   5   9  -2   11.14    7.04
  -5   9   2    5.93    5.00
   5   9   2   12.32    5.79
   5   9  -2   15.16    7.25
   5   9   2    5.17    5.01
   5   9   3   15.49    6.99
  -5   9  -3    6.36    3.08
   5   9  -3    4.05    2.51
   5   9  -3    9.69    6.27
  -5   9   3    2.28    2.22
   5   9   3    1.58    4.23
  -5  -9  -3   11.22    5.50
   5   9  -4   61.10   13.54
  -5   9  -4   38.96   10.64
   5   9   4   23.91    7.90
   5   9  -4   26.05    8.10
  -5   9   4   38.65   11.51
   5   9   4   48.01   11.35
  -5  -9  -4   15.88    6.56
   5   9  -5   42.35   10.63
   5   9  -5   28.83    9.80
  -5   9   5   31.32    9.90
   5   9   5   23.51    7.66
   5   9   5   25.77    6.75
  -5  -9  -5   14.22    5.16
  -5   9  -6   97.49   16.78
   5   9  -6   82.71   15.30
   5   9  -6   63.51   13.51
  -5   9   6   76.08   15.54
   5   9   6   75.27   15.10
   5   9   6   78.21   14.86
  -5  -9  -6   76.89   17.32
  -5   9  -7    3.54    4.16
   5   9  -7   -2.73    5.10
  -5   9   7   -0.77    3.32
   5   9   7    4.86    5.13
  -5  -9  -7   -5.38    6.66
   5   9  -7   -2.52    4.78
   5   9   7    0.74    3.06
   5   9   8    8.93    6.23
  -5   9  -8    0.29    2.94
   5   9  -8    9.84    5.77
  -5   9   8   21.45    8.77
   5   9   8   11.37    6.57
  -5  -9  -8    3.39    4.11
   5   9  -8   14.03    7.64
   5  -9  -8   13.32    6.81
   5   9  -9    4.55    2.74
   5   9   9   20.76    8.15
  -5   9   9    9.08    5.90
  -5  -9  -9   17.97    8.70
   5   9   9   19.73    7.56
   5   9  -9   17.40    6.96
   5  -9  -9    4.77    3.64
  -5   9 -10    7.69    3.87
   5   9 -10    8.51    4.78
  -5   9  10    6.68    4.02
   5   9  10   12.35    7.52
  -5  -9 -10    7.79    5.12
   5   9 -10   24.79   10.81
   5   9  10   23.82    9.31
   5  -9 -10    7.85    5.85
  -5   9 -11   10.92    7.68
   5   9 -11   19.93    7.25
   5   9  11   27.43   10.04
  -5   9  11   18.88    7.07
   5   9 -11   27.32   11.01
   5   9  11   19.90    7.71
  -5  -9 -11   23.23    7.80
   5  -9 -11   16.24    8.59
   5   9 -12   23.72    9.47
  -5   9  12   83.19   16.38
   5   9  12   63.51   14.65
   5   9 -12   58.42   13.66
   5   9  12   67.41   16.35
  -5  -9 -12   79.88   16.35
   5  -9 -12   44.05   10.90
  -5   9 -12   71.39   15.44
   5   9 -13   -1.74    2.33
  -5   9 -13   -0.70    3.85
   5   9  13    0.18    2.31
   5   9 -13    0.33    2.18
  -5   9  13    1.55    3.76
   5   9  13   -6.19    4.66
  -5  -9 -13    3.23    6.18
   5  -9 -13   -6.13    5.99
   5   9 -14    3.62    5.67
  -5   9 -14    6.87    6.03
   5   9 -14    9.66    6.59
   5   9  14    1.96    3.70
  -5  -9 -14   -3.26    4.92
  -5   9  14   -0.86    3.31
   5   9  14   -2.59    1.74
   5  -9 -14    1.41    3.70
   5   9 -15   33.12   10.75
  -5   9 -15    7.19    6.68
   5   9 -15   13.34    7.11
  -5   9  15   24.46    9.22
   5   9  15   21.59    8.40
  -5  -9 -15   36.53   10.29
   5  -9 -15   14.39    6.68
   5   9 -16   43.94   15.91
  -5   9 -16   48.14   13.81
   5   9 -16   30.63    9.10
  -5   9  16   10.80    5.96
   5   9  16   24.36   11.13
  -5  -9 -16   19.46    8.90
   5  -9 -16    4.64    1.23
   5   9 -17   11.19    4.41
  -5   9 -17    9.56    7.44
   5   9 -17   14.88    5.45
  -5   9  17    2.46    5.18
   5   9  17    1.64    2.46
  -5  -9 -17    6.33    8.57
   5  -9 -17    2.39    3.93
  -5   9 -18   -3.27    5.40
   5   9 -18    3.06    1.80
   5   9  18    3.16    8.40
  -5  -9 -18    0.17    1.06
  -5   9  18   -0.07    5.52
   5  -9 -18   -2.31    3.73
   5   9 -18   -2.89    2.43
  -5   9 -19    1.78    6.35
   5   9 -19   -0.47    1.83
  -5  -9 -19   -3.92    2.63
  -5   9  19    0.52    2.09
   5   9  19    0.68    3.08
   5  -9 -19    4.63    5.85
   5   9 -20   16.24    8.48
  -5   9  20    4.95    7.57
   5   9  20   16.54    8.23
  -5  -9 -20    6.65    6.71
  -5   9 -20   17.14    6.55
   5  -9 -20   16.09    5.17
  -5   9  21    1.87    4.55
   5   9  21   -2.14    8.91
  -5  -9 -21   -4.57    7.98
  -5  -9 -21    1.24    3.63
   5   9 -21   -0.05    3.37
   5  -9 -21    9.24    6.68
  -5   9  22   -1.56    4.78
   5   9  22   -2.24    5.77
  -5  -9 -22   -1.53    3.83
  -5  -9 -22    2.52    6.05
   5   9 -22    2.80    4.85
   5   9 -22    1.11    6.30
   5  -9 -22    4.23    5.81
  -5   9  23    0.57    2.17
   5   9  23    4.93    3.83
  -5  -9 -23    0.82    4.61
  -5  -9 -23    2.13    2.64
   5   9 -23    5.61    7.13
   5   9 -23   -3.42    6.00
   5  -9 -23    4.08    1.54
  -5   9  24   -1.53    2.61
   5   9  24    4.32    3.84
  -5  -9 -24    8.35   10.75
  -5  -9 -24   -2.80    2.06
   5   9 -24   -0.30    3.32
   5   9 -24    5.22    4.30
   5  -9 -24    6.59    2.11
  -5  10   0   -3.02    4.52
   5  10   0    1.96    3.71
   5  10   0   -1.87    3.47
  -5  10  -1   20.78    8.16
  -5  10   1   50.80   13.28
   5  10  -1   36.43   10.71
   5  10   1   35.79   10.02
   5  10  -1   32.30   11.13
   5  10   1   38.38   10.96
   5  10  -2  116.14   18.68
  -5  10   2  115.44   20.31
   5  10   2  123.64   19.95
   5  10  -2  114.23   20.28
   5  10   2  108.92   18.30
  -5  10  -3  115.28   19.86
   5  10  -3   68.65   15.07
  -5  10   3   95.49   18.67
   5  10   3   86.82   16.87
   5  10  -3  100.67   17.13
   5  10   3   81.24   15.25
  -5  10  -4  209.29   27.04
   5  10  -4  183.79   24.01
  -5  10   4  206.56   26.87
   5  10  -4  185.17   23.88
   5  10   4  204.90   24.84
   5  10   4  178.29   21.82
  -5  10  -5  137.82   22.19
   5  10  -5  181.82   23.73
   5  10  -5  178.61   22.95
  -5  10   5  173.41   24.79
   5  10   5   96.04   16.53
  -5 -10  -5  119.60   19.09
   5  10   5  171.87   21.78
  -5  10  -6  108.60   21.58
   5  10  -6  108.13   18.47
   5  10  -6  124.42   19.54
  -5  10   6  174.31   24.60
   5  10   6  141.70   21.88
  -5 -10  -6  135.67   20.89
   5  10   6  125.43   19.22
  -5  10  -7   -0.41    6.32
   5  10  -7    3.47    2.93
  -5  10   7   -0.49    1.30
   5  10   7    3.25    5.17
  -5 -10  -7   10.53    8.30
   5  10   7    6.75    6.47
   5  10  -7    2.39    2.85
  -5  10  -8   11.01    6.20
   5  10  -8   26.13    9.37
  -5  10   8    7.84    7.14
  -5 -10  -8   14.77    7.00
   5  10   8   18.59    7.50
   5  10  -8    9.36    6.31
   5  10   8    3.55    5.47
   5  10   9    4.63    3.19
  -5  10  -9   -0.23    4.86
   5  10  -9    5.61    4.88
  -5  10   9   -1.05    5.56
   5  10   9   -0.79    1.05
  -5 -10  -9    3.68    4.19
   5  10  -9    1.57    5.53
  -5  10 -10   10.60    5.71
   5  10 -10    6.22    7.84
   5  10  10    3.30    2.33
  -5  10  10    7.64    4.91
   5  10  10    2.80    5.11
  -5 -10 -10    9.75    5.14
   5  10 -10    1.25    3.54
   5 -10 -10    2.71    3.67
  -5  10 -11   33.12   10.39
   5  10 -11   36.08   11.65
  -5  10  11   14.25    6.49
   5  10 -11   31.62   10.71
   5  10  11   42.27   11.05
  -5 -10 -11   35.76   11.21
   5  10  11   40.89   12.18
   5 -10 -11   46.56   12.82
  -5  10 -12   14.97    7.98
   5  10 -12   12.31    7.06
  -5  10  12   24.91    9.49
   5  10 -12   22.30   10.14
   5  10  12   22.14    8.76
  -5 -10 -12    6.15    1.73
   5 -10 -12    6.26    5.34
   5  10  12    2.06    3.48
  -5  10 -13   31.47   10.45
   5  10 -13   41.80   11.70
   5  10  13   55.22   14.08
   5  10 -13   28.83   11.32
  -5  10  13   37.11   11.14
   5  10  13   28.18    8.67
  -5 -10 -13   40.90   12.61
   5 -10 -13   61.47   14.13
   5  10 -14    2.86    5.27
  -5  10 -14   -0.05    2.80
   5  10 -14    8.22    9.52
  -5  10  14    9.84    6.17
   5  10  14    0.78    3.85
  -5 -10 -14    0.68    0.74
   5  10  14   -2.76    3.36
   5 -10 -14    1.13    2.42
   5  10 -15    0.46    3.09
  -5  10 -15   -0.29    2.56
   5  10  15   -0.19    3.08
   5  10 -15   -1.38    0.58
  -5  10  15    0.94    2.31
  -5 -10 -15   -2.17    4.24
   5  10  15   -5.30    7.35
   5 -10 -15    5.75    6.91
   5  10 -16   51.67   14.45
  -5  10 -16   42.00   13.81
   5  10  16   30.08    9.75
   5  10 -16   40.63   13.09
  -5 -10 -16   60.54   15.11
  -5  10  16   51.10   13.30
   5  10  16   77.22   18.01
   5 -10 -16   32.38    9.63
   5  10 -17   -2.31    0.92
  -5  10 -17    9.06    9.52
   5  10 -17    7.05    5.95
  -5  10  17   -2.43    6.96
   5  10  17    4.37    5.26
  -5 -10 -17    4.26    4.70
   5  10  17    5.48    5.12
   5 -10 -17    0.90    2.54
  -5  10 -18    5.08    6.55
   5  10 -18    4.35    2.89
  -5  10  18   -1.42    2.49
   5  10  18   -3.59    2.78
  -5 -10 -18   -5.45    4.04
   5 -10 -18   -0.61    4.99
  -5  10 -19   -1.79    4.83
   5  10 -19    1.79    2.66
  -5  10  19    4.22    1.76
  -5 -10 -19    5.00    7.12
   5 -10 -19    4.93    5.88
   5  10  19    2.18    4.84
  -5  10 -20   17.26    9.98
   5  10 -20   20.73    9.77
  -5  10  20   22.77   10.92
   5  10  20   34.71   13.21
  -5 -10 -20   43.68   13.59
   5 -10 -20    8.84    2.06
   5  10 -21   -4.42    5.50
  -5  10  21    6.80    7.48
   5  10  21   -0.82    1.22
  -5 -10 -21   -0.08    1.84
   5 -10 -21    5.73    2.43
  -5  10 -21    4.40    7.47
   5  10  22   25.41   11.58
  -5 -10 -22    8.11    2.87
  -5  10  22   27.97   11.85
   5 -10 -22   21.11    9.61
   5  10 -22    7.48    7.61
   5  10 -22   17.26    9.86
  -5  10  23    5.50    7.51
   5  10  23    5.76    0.97
  -5 -10 -23   19.75    8.62
   5  10 -23   11.47    7.66
   5 -10 -23    6.58    4.61
   5  10 -23    5.53    6.61
   5  11   0   -4.17    0.96
   5  11   0   -2.58    2.41
  -5  11  -1   -0.71    4.18
  -5  11   1    0.77    3.80
   5  11  -1    2.84    1.05
   5  11   1   -0.43    0.71
   5  11  -1   -0.80    2.47
   5  11   1   -0.94    3.82
  -5  11  -2   71.07   16.04
   5  11  -2   62.19   14.37
  -5  11   2   33.25   11.41
   5  11  -2   41.58   12.39
   5  11   2   43.04   11.77
   5  11   2   57.45   11.86
  -5  11  -3   10.32    9.95
   5  11  -3   32.85   11.71
   5  11  -3    9.11    2.30
  -5  11   3   11.01    7.89
   5  11   3   11.06    6.28
   5  11   3   11.16    5.68
   5  11   4    0.96    7.87
   5  11  -4    3.65    5.19
  -5  11  -4    8.90    5.00
   5  11  -4    2.97    2.43
  -5  11   4   -6.51    6.89
   5  11   4    7.67    6.86
   5  11  -5   -1.46    0.73
   5  11   5    4.94    4.99
  -5  11  -5   -1.16    5.11
   5  11  -5    8.47    6.49
  -5  11   5    1.65    4.54
   5  11   5   -0.96    3.82
  -5  11  -6   10.26    5.84
   5  11  -6    3.02    3.61
   5  11   6    2.94    6.52
  -5  11   6    5.04    7.35
   5  11   6    5.72    3.78
  -5 -11  -6    0.61    1.09
   5  11  -6    1.10    3.95
  -5  11  -7   22.07    8.34
   5  11  -7   42.74   12.37
  -5  11   7   21.08    7.81
   5  11   7   33.52   11.04
   5  11   7   26.44    7.93
  -5 -11  -7   28.32    9.91
   5  11  -7   22.48    8.27
  -5  11  -8    1.35    1.41
   5  11  -8   12.27    6.50
  -5  11   8   11.28    6.99
   5  11   8   10.79    5.55
  -5 -11  -8   17.51    8.55
   5  11   8    2.45    2.51
   5  11  -8   12.51    8.17
  -5  11  -9   52.16   12.39
   5  11  -9   29.87   10.48
  -5  11   9   35.52   12.53
   5  11   9   39.14   12.11
  -5 -11  -9   43.01   13.35
   5  11  -9   37.63   11.00
   5  11   9   54.59   13.67
  -5  11 -10   13.98    9.39
   5  11 -10    8.59    2.18
  -5  11  10   21.54    9.32
   5  11  10   19.62    8.44
  -5 -11 -10   27.28    9.75
   5  11 -10   30.49    9.65
   5  11  10   23.32    9.57
  -5  11 -11   27.91   11.90
   5  11 -11   33.47   10.86
   5  11  11   30.06    9.77
  -5  11  11   13.39    7.51
   5  11  11   37.56   10.49
  -5 -11 -11   20.02    9.39
   5  11 -11   32.47    9.36
  -5  11 -12   20.01    8.95
   5  11 -12   18.65    8.73
   5  11  12   26.70   10.40
  -5  11  12   21.88    9.02
   5  11 -12   19.86    7.94
   5  11  12   16.19    7.64
  -5 -11 -12   20.11   10.59
  -5  11 -13    1.12    0.80
   5  11 -13   11.96    7.40
   5  11 -13    3.89    5.50
  -5  11  13   -7.05    7.66
   5  11  13   12.99    8.30
  -5 -11 -13    4.63    7.61
   5  11  13    2.23    3.37
   5  11 -14   -4.72    3.77
  -5  11 -14   -2.35    3.36
   5  11 -14   -2.69    4.58
  -5  11  14   -4.50    5.01
   5  11  14    3.71    6.18
  -5 -11 -14    0.66    1.71
   5 -11 -14    7.84    7.20
   5  11  14    5.56    1.92
   5  11 -15    2.96    4.40
  -5  11 -15    2.02    6.39
  -5 -11 -15   -1.92    5.39
   5  11  15    7.55    6.23
   5  11 -15    0.60    2.59
  -5  11  15    1.81    2.36
   5  11  15    4.41    2.26
   5 -11 -15    9.22    6.03
   5  11 -16   23.02    9.98
  -5  11 -16    9.32    2.65
   5  11 -16   12.93    7.90
  -5  11  16   16.13    6.94
   5  11  16   18.89    7.24
   5  11  16   21.54    8.81
  -5 -11 -16   23.75    8.68
   5 -11 -16   15.37    8.32
  -5  11 -17    6.58    5.80
   5  11 -17   11.05    8.07
  -5  11  17    7.68    6.64
   5  11  17    6.42    5.21
  -5 -11 -17   -6.53    3.72
   5 -11 -17    6.62    5.83
   5  11  17    2.87    1.75
  -5  11 -18   -5.15    6.31
   5  11 -18    0.93    3.95
   5  11  18    6.49    4.73
  -5  11  18    5.31    5.18
   5  11  18    3.02    5.75
  -5 -11 -18    6.07    6.56
   5 -11 -18   -0.50    4.64
  -5  11 -19    6.93    7.31
   5  11 -19   -4.76    6.50
  -5  11  19   -0.64    1.91
   5  11  19   -2.63    4.70
   5  11  19   -1.04    0.36
  -5 -11 -19   -4.13    5.02
   5 -11 -19   -3.60    3.43
  -5  11 -20    8.28    6.88
   5  11 -20    6.34    4.50
  -5  11  20    2.54    5.31
   5  11  20   14.04    6.97
  -5 -11 -20   15.36    9.87
   5  11  20    2.29    2.98
   5 -11 -20    7.35    4.76
  -5  11 -21    3.22    3.88
   5  11 -21   -4.95    8.73
  -5  11  21   -0.43    1.87
   5  11  21   -2.30    4.34
  -5 -11 -21   -7.25    9.12
   5 -11 -21   -2.37    8.81
  -5  12   0    6.95    8.36
   5  12   0   -1.82    4.95
   5  12   0    4.97    7.05
  -5  12  -1   29.02   11.66
  -5  12   1   28.75   10.69
   5  12  -1   28.42   11.43
   5  12   1   14.15    7.64
   5  12  -1   18.37    8.27
   5  12   1   15.54    8.66
  -5  12  -2   36.23    9.90
   5  12  -2   10.97    5.86
  -5  12   2   27.31   11.97
   5  12  -2   17.14    7.57
   5  12   2   13.21    5.49
   5  12   2   18.56   10.22
   5  12  -3   -3.76    5.31
  -5  12  -3    1.45    3.96
   5  12  -3   -0.95    5.22
  -5  12   3   -2.35    3.84
   5  12   3   -2.08    3.87
   5  12   3   -1.48    3.70
   5  12  -4   -3.78    4.58
  -5  12  -4   12.28    8.98
   5  12  -4   -2.17    5.13
  -5  12   4    6.57    6.87
   5  12   4    7.75    7.83
   5  12   4   -0.36    3.81
   5  12  -5   26.87    8.80
   5  12   5   24.64    8.96
  -5  12  -5    7.37    3.74
   5  12  -5   20.24    9.69
  -5  12   5   20.83    8.68
   5  12   5   27.64   11.68
   5  12   6    2.09    1.34
  -5  12  -6    7.72    1.14
   5  12  -6   11.26    6.40
  -5  12   6    6.98    4.57
   5  12   6    8.65    6.33
   5  12  -6   10.95    5.06
  -5  12  -7   -0.57    6.22
   5  12  -7    3.33    2.41
   5  12   7    0.02    0.25
  -5  12   7   -0.71    4.73
   5  12   7   -1.43    6.55
   5  12  -7    5.93    5.38
  -5  12  -8    1.20    6.50
   5  12  -8   26.82   11.89
  -5  12   8   25.22   11.85
   5  12   8   28.21    9.91
   5  12   8   17.37    6.51
  -5 -12  -8   17.12    8.06
   5  12  -8   21.95    8.38
  -5  12  -9   -1.44    2.22
   5  12  -9   -3.95    5.61
  -5  12   9    1.73    7.87
   5  12   9    0.73    4.03
  -5 -12  -9    0.70    2.97
   5  12   9    6.54    4.77
   5  12  -9   -1.37    5.52
  -5  12 -10   11.07    9.22
   5  12 -10   10.94   10.24
  -5  12  10    8.76    5.64
   5  12  10    7.36    4.24
  -5 -12 -10    6.66    7.44
   5  12 -10   16.63    8.89
   5  12  10    9.03    6.75
  -5  12 -11   -4.44    7.00
   5  12 -11    0.85    4.22
  -5  12  11    2.51    3.33
   5  12  11    0.02    2.71
   5  12 -11   -4.11    4.43
  -5 -12 -11    0.62    4.00
   5  12  11    1.54    5.45
   5  12  12   32.76   11.39
  -5  12 -12   18.13   11.48
   5  12 -12   37.73   12.72
  -5  12  12   23.76   11.14
   5  12  12   26.86   10.51
   5  12 -12   41.41   12.91
  -5 -12 -12   37.48   13.05
  -5  12 -13   27.88    9.83
   5  12 -13   42.49   13.69
   5  12  13   35.47   11.53
  -5  12  13   25.53   10.48
   5  12 -13   23.76    8.86
  -5 -12 -13   24.72    9.06
   5  12  13   11.79    5.95
  -5  12 -14   12.08   10.15
   5  12 -14   -3.56    4.14
   5  12 -14   -2.86    3.45
   5  12  14    3.88    4.03
  -5  12  14    3.58    5.24
   5  12  14    2.11    1.06
  -5 -12 -14   -7.28    7.05
  -5  12 -15    7.43    6.58
   5  12 -15    0.65    3.40
  -5  12  15   -0.81    6.19
   5  12  15   -2.07    4.52
   5  12  15    0.58    3.33
  -5 -12 -15    7.33    5.61
  -5  12 -16   16.52    9.04
   5  12 -16    7.88    6.34
  -5  12  16   11.89    7.79
   5  12  16    5.01    2.32
  -5 -12 -16    5.29    5.53
   5  12  16   -6.54    6.83
  -5  12 -17   22.54    9.61
   5  12  17   23.83   10.55
   5  12 -17   12.19    6.80
  -5  12  17    9.14    9.14
   5  12  17   -0.11    5.86
  -5 -12 -17   15.24    7.93
  -5  12 -18   -0.87    4.16
   5  12 -18    2.56    5.52
   5  12  18    3.04    5.34
  -5  12  18    1.56    3.89
   5  12  18    4.96    7.93
  -5 -12 -18    0.43    4.63
  -5  12 -19    4.32    3.94
   5  12 -19    9.73    6.74
  -5  12  19   10.14    8.77
   5  12  19    5.85    4.92
   5  12  19   -5.57    6.05
  -5  13   0   -1.10    3.73
   5  13   0   11.97    9.26
   5  13   0    1.73    5.95
  -5  13  -1   11.39    8.73
  -5  13   1   13.58    7.41
   5  13  -1    4.57    2.83
   5  13   1    7.52    4.83
   5  13  -1   12.18    7.31
   5  13   1   16.03    8.34
  -5  13  -2    4.72    6.60
   5  13  -2    6.97    2.52
   5  13  -2   -0.94    4.88
  -5  13   2    2.55    5.09
   5  13   2   -5.37    3.37
   5  13   2    2.47    1.61
   5  13  -3    2.34    3.80
   5  13  -3   -0.26    3.20
  -5  13   3    4.13    3.33
   5  13   3    7.58    5.63
   5  13   3    2.27    3.34
   5  13  -4   10.30    4.48
  -5  13  -4   16.72    4.71
   5  13  -4   11.23    8.01
  -5  13   4    5.02    4.01
   5  13   4   -1.40    6.17
   5  13   4   10.64    8.19
  -5  13  -5    8.40    9.67
   5  13  -5    4.30    2.31
  -5  13   5   -0.39    4.37
   5  13   5    4.63    4.61
   5  13   5    2.74    3.99
   5  13  -5    5.80    7.54
   5  13   6    2.52    3.06
  -5  13  -6    1.11    2.99
   5  13  -6    4.42    6.03
  -5  13   6   -2.86    5.34
   5  13   6    2.33    4.23
   5  13  -6    3.71    4.26
   5  13   7   -1.80    4.26
  -5  13  -7    4.74    7.83
   5  13  -7    9.09    4.99
  -5  13   7   13.14   10.23
   5  13   7    5.73    4.81
   5  13  -7   -0.07    4.99
  -5  13  -8   16.57    5.93
   5  13  -8    8.67    7.30
   5  13   8    6.26    4.98
  -5  13   8   -0.62    7.65
   5  13   8    7.65    5.26
   5  13  -8    4.05    6.73
  -5  13  -9   15.88    9.86
   5  13  -9   10.50    5.74
  -5  13   9   23.72    8.91
   5  13   9   29.73   10.27
   5  13   9   24.08   11.20
  -5 -13  -9   27.32   12.40
   5  13  -9   23.08   10.64
  -5  13 -10   -0.67    3.23
   5  13 -10    6.96    6.89
  -5  13  10   -2.82    2.77
   5  13  10   -3.08    3.57
  -5 -13 -10   -2.71    0.89
   5  13  10    0.27    2.33
   5  13 -10   -0.71    2.26
  -5  13 -11   -4.88    4.41
   5  13 -11   -2.57    7.46
  -5  13  11   -2.29    5.80
   5  13  11    7.36    9.32
  -5 -13 -11   -1.26    1.95
   5  13 -11   -4.57    4.89
   5  13  11    6.54    5.60
  -5  13 -12   19.03    9.05
   5  13 -12    9.41    6.13
  -5  13  12    1.81    5.03
   5  13  12   16.43    8.86
   5  13 -12   10.51    7.33
  -5 -13 -12   21.94   11.71
   5  13  12   13.97    9.64
  -5  13 -13    3.86    3.29
  -5  13  13    3.94    4.60
   5  13 -13   -1.28    4.64
   5  13  13    8.44    3.46
  -5 -13 -13    1.30    4.73
   5  13  13    6.48    5.93
   5  13  14   11.71    7.15
  -5  13 -14   19.52   11.92
   5  13 -14   21.69    9.91
  -5  13  14    6.58    5.94
   5  13  14    0.76    1.41
  -5 -13 -14   20.47   10.87
  -5  13 -15    7.22    8.63
   5  13  15    5.75    5.30
   5  13 -15    2.67    4.68
  -5  13  15   -5.78    7.50
   5  13  15    3.97    6.15
  -5 -13 -15   -9.41    9.99
  -5  13 -16    2.49    6.50
   5  13 -16    4.26    1.05
   5  13  16    2.82    5.91
  -5  13  16    4.82    5.22
   5  13  16   -4.86    5.25
  -5  14   0    4.35    6.82
   5  14   0    3.04    4.65
   5  14   0   -4.55    7.26
  -5  14  -1   -2.39    4.20
  -5  14   1    1.75    5.85
   5  14  -1    0.75    5.85
   5  14  -1   13.92    6.93
   5  14   1    3.96    3.75
   5  14   1    6.18    3.74
   5  14  -2    4.19    6.01
  -5  14  -2   12.37    8.17
   5  14  -2   13.11    9.10
  -5  14   2   11.62    9.29
   5  14   2    9.80    6.28
   5  14   2    7.08    6.15
   5  14  -3    2.56    5.78
  -5  14  -3   -0.90    3.46
   5  14  -3    3.69    3.13
  -5  14   3   -4.51    3.80
   5  14   3   -1.23    2.16
   5  14   3    4.38    4.30
   5  14  -4    4.05    2.24
  -5  14  -4    9.36    8.34
   5  14  -4   -1.03    4.82
  -5  14   4   14.20    9.54
   5  14   4   11.00   10.27
   5  14   4   -1.29    2.60
  -5  14  -5   26.30   10.91
   5  14  -5   15.91    7.36
  -5  14   5   26.36   12.38
   5  14   5   20.68    8.71
   5  14   5   29.92   10.67
   5  14  -5   23.31    9.37
  -5  14  -6    2.49    4.37
   5  14  -6    8.05    8.78
  -5  14   6   -3.18    5.62
   5  14   6    5.92    7.13
   5  14  -6   -0.69    2.06
   5  14   6    3.99    5.94
  -5  14  -7   -5.23    7.51
   5  14  -7    1.68    1.70
  -5  14   7    7.40    5.69
   5  14   7   -1.04    6.62
   5  14  -7   -0.16    3.01
   5  14   7   -0.24    5.45
   5  14   8    4.14    2.77
  -5  14  -8    1.68    2.37
   5  14  -8   -1.12    6.50
  -5  14   8    6.62    6.00
   5  14   8   13.17    6.65
   5  14  -8    2.08    1.79
  -5  14  -9    4.32    6.31
   5  14  -9    6.10    6.22
   5  14   9    2.25    5.84
  -5  14   9   -3.14    7.22
   5  14   9    2.77    3.89
   5  14  -9    1.60    4.36
  -5  14 -10   17.16    9.26
   5  14  10    8.88    3.47
  -5  14  10   26.97   11.02
   5  14  10    7.88    4.91
   5  14 -10   15.31    9.45
  -5  14 -11   -2.53    3.98
  -5  14  11    3.80    5.89
   5  14  11   -3.34    6.57
   5  14  11    2.49   12.60
   5  14 -11   -3.10    7.76
  -5  14 -12    7.18    7.67
  -5  14  12   -6.09    6.22
   5  14  12   -2.30    7.40
   5  14 -12   -2.19    5.82
   5  14  12   -1.05    4.04
  -5  15   0    1.71    7.12
   5  15   0   -0.79    4.20
   5  15   0   -0.51    5.02
   5  15  -1   -0.03    4.57
  -5  15  -1   13.13   10.11
  -5  15   1    4.36    7.47
   5  15  -1   11.93   10.16
   5  15   1   10.19   10.10
   5  15   1   -3.97    4.91
   5  15  -2    7.04    3.53
  -5  15  -2   14.01    8.38
   5  15  -2    8.31    4.43
  -5  15   2   10.49    6.34
   5  15   2    2.76    2.35
   5  15   2   -1.38    3.15
   5  15  -3   -0.68    4.46
  -5  15  -3    6.62    6.54
   5  15  -3   11.39    8.36
  -5  15   3   -1.33    5.83
   5  15   3    4.61    3.35
   5  15   3    8.09    7.22
  -5  15  -4   11.10    6.47
   5  15  -4   -4.36    6.92
  -5  15   4   -1.78    2.19
   5  15   4   -0.47    5.85
   5  15   4   -4.43    0.68
   5  15  -4   10.44    3.07
  -5  15  -5    1.28    5.91
   5  15  -5    4.97    6.07
  -5  15   5    4.88    6.95
   5  15   5    1.30    8.31
   5  15   5    7.99    8.77
   5  15  -5   -0.98    4.61
  -5  15  -6   10.89    8.99
   5  15  -6    7.87    3.81
  -5  15   6    3.04    0.52
   5  15   6   -4.34    2.92
   5  15   6    6.65    6.32
   5  15  -6    7.19    5.70
  -5  15  -7   -2.12    4.73
   5  15  -7    0.09    1.51
  -5  15   7    0.99    4.54
   5  15   7   -0.56    2.61
   5  15  -7    3.17    2.21
   5  15   7    6.19    8.62
  -6   0   0 3322.08   84.59
   6   0   0 4430.98   67.66
   6   0  -1   -0.55    2.15
  -6   0  -1    2.16    1.75
   6   0   1    0.27    0.16
   6   0  -2  145.72   14.23
  -6   0  -2  153.38   18.36
   6   0   2  125.56   10.87
   6   0  -3    1.86    2.62
   6   0   3   -0.80    0.48
  -6   0  -3    0.04    1.29
   6   0   4  659.11   24.80
  -6   0  -4  794.07   41.54
  -6   0  -5   -1.07    1.37
   6   0   5   -0.56    0.29
   6   0  -5    0.87    0.20
   6   0  -6  128.41   15.30
  -6   0  -6  158.07   18.93
   6   0   6  159.36   12.70
  -6   0  -7   -2.55    1.82
   6   0   7    1.68    2.37
   6   0  -7    0.05    2.31
   6   0  -8 1058.77   45.70
  -6   0  -8 1029.30   49.86
  -6   0  -9    0.29    1.99
   6   0  -9   -1.08    1.77
   6   0 -10 1420.52   58.55
  -6   0 -10 1428.81   48.62
  -6   0 -11   -0.87    2.03
   6   0 -11    3.45    4.38
  -6   0 -11   -0.04    1.77
  -6   0 -12   27.11    9.03
   6   0 -12   18.05    5.54
  -6   0 -12   32.74    7.76
  -6   0 -13   -0.30    3.07
   6   0 -13    1.55    4.82
  -6   0 -13   -2.32    2.03
  -6   0 -14  626.38   43.03
  -6   0 -14  543.56   33.54
   6   0 -15    0.61    2.13
  -6   0 -15   -1.15    4.00
  -6   0 -15    1.10    4.60
   6   0 -16    6.48    8.01
  -6   0 -16    2.98    1.20
   6   0 -17   -3.66    2.28
  -6   0 -17   -4.87    5.71
  -6   0 -18   45.29   14.58
   6   0 -18   16.17    8.04
   6   0 -19    4.54    3.51
  -6   0 -19    8.01    7.09
   6   0 -20   10.36    6.11
  -6   0 -20   -1.06    5.91
   6   0 -20   -0.74    2.50
   6   0 -21    3.41    4.99
  -6   0 -21    5.26    4.03
   6   0 -21   -0.20    0.67
   6   0 -22   41.93   12.42
   6   0 -22   47.57   13.50
   6   0 -23    6.93    6.58
  -6   0 -23    4.39    7.27
   6   0 -23   -1.79    3.83
   6   0 -24   33.50   11.84
  -6   0 -24   34.24   12.16
   6   0 -24   27.54    8.53
   6   0 -25    0.41    1.52
  -6   0 -25   -0.43    0.54
   6   0 -25    5.25    7.17
   6   0 -26   85.06   20.05
  -6   0 -26   62.08   16.15
   6   0 -26   70.08   16.74
   6   0 -27   -0.59    1.88
  -6   0 -27    1.13    3.65
   6   0 -27    7.26    6.15
   6   0 -28    5.44    3.29
  -6   0 -28    1.29    3.75
   6   0 -28    0.81    3.32
   6   0 -29   11.19    7.62
  -6   0 -29    6.61    6.72
   6   0 -29    3.38    2.25
   6  -1   0   17.24    3.92
  -6   1   0   30.90    8.27
  -6  -1   0   24.76    7.92
   6   1   0   24.03    5.61
   6   1   1   27.48    5.87
   6  -1  -1   30.78    5.89
   6  -1   1   22.39    3.96
  -6  -1  -1   18.98    6.17
  -6   1  -1   10.57    5.96
   6   1  -1   26.44    5.85
   6   1   2   -0.33    0.89
   6  -1   2    0.28    0.36
   6   1  -2    0.28    2.09
  -6  -1  -2   -0.35    2.78
  -6   1  -2   -1.40    1.82
   6   1   2    0.10    0.57
   6  -1  -2   -0.37    0.64
   6   1  -3    3.98    2.83
   6  -1   3    3.87    1.53
   6   1   3    3.41    2.12
  -6  -1  -3   -0.52    1.04
  -6   1  -3    4.52    2.90
   6  -1  -3    0.62    1.55
   6  -1  -4  232.94   18.36
  -6   1  -4  182.67   19.47
   6   1   4  201.44   15.40
  -6  -1  -4  148.46   18.84
   6   1  -4  185.00   17.73
   6  -1   4  208.40   10.53
   6   1  -5    3.24    1.94
   6   1   5    3.16    2.15
   6  -1   5    3.76    1.44
  -6  -1  -5    4.51    3.88
  -6   1  -5    2.96    3.30
   6  -1  -5    7.25    3.76
   6  -1  -6  149.44   15.90
  -6  -1  -6   86.83   14.51
  -6   1  -6  126.41   16.72
   6   1  -6  127.78   15.28
   6  -1   6  125.33    8.64
   6   1   6  132.69   13.84
   6   1  -7   24.03    6.84
   6   1   7   45.27    7.89
   6  -1  -7   38.39    8.75
  -6  -1  -7   36.91    9.09
  -6   1  -7   21.06    6.97
   6  -1   7   21.36    4.05
  -6  -1  -8   11.07    5.03
   6  -1   8   18.67    3.88
  -6   1  -8   11.57    5.77
   6  -1  -8    5.53    3.90
   6   1   8    8.15    3.27
   6   1  -8   21.31    7.21
  -6  -1  -9   12.44    6.55
  -6   1  -9   12.52    4.42
   6  -1  -9   14.57    6.28
   6   1  -9    1.84    2.61
   6  -1 -10    1.28    3.04
  -6  -1 -10    5.39    4.96
  -6   1 -10   -0.54    3.70
   6   1 -10    1.65    2.89
   6  -1 -11   -0.87    2.36
  -6  -1 -11    1.11    0.86
  -6   1 -11    2.65    3.10
  -6  -1 -11    4.67    3.39
   6   1 -11    6.76    4.77
   6  -1 -12   27.00    8.57
  -6  -1 -12   28.16    9.25
  -6   1 -12   45.36   10.85
   6   1 -12   25.64    8.77
  -6  -1 -12   31.14    8.14
   6  -1 -13  217.04   23.94
   6   1 -13  233.57   25.21
  -6   1 -13  269.27   27.12
  -6  -1 -13  297.06   24.98
   6  -1 -14  214.53   24.49
   6   1 -14  267.28   27.68
  -6  -1 -14  236.61   26.38
  -6   1 -14  273.97   28.23
  -6  -1 -14  178.96   19.20
   6  -1 -15   86.73   16.21
   6   1 -15   85.76   16.04
  -6  -1 -15   64.58   14.11
  -6   1 -15   89.54   16.87
  -6  -1 -15   68.73   12.62
   6  -1 -16   -0.81    1.52
  -6  -1 -16    2.55    3.41
  -6   1 -16   -1.17    3.87
   6   1 -16    4.13    3.85
   6  -1 -17   13.58    8.08
   6   1 -17   21.29    9.35
  -6  -1 -17   19.18    7.26
  -6   1 -17   22.49    8.81
  -6  -1 -17   24.62    8.30
   6  -1 -18   12.92    8.01
   6   1 -18    6.86    5.16
  -6  -1 -18   11.67    7.57
  -6   1 -18   -1.74    4.49
  -6  -1 -18    4.06    5.69
   6  -1 -18    0.69    2.60
   6  -1 -19   98.58   17.89
   6   1 -19   73.47   16.32
  -6  -1 -19  102.22   19.27
  -6   1 -19  155.61   22.37
  -6  -1 -19  128.08   21.07
   6  -1 -20   -1.84    1.69
   6   1 -20    0.15    4.11
  -6  -1 -20    1.99    4.35
  -6   1 -20   -1.01    3.58
   6  -1 -20    5.78    8.51
   6   1 -20    3.16    2.59
   6  -1 -21   50.53   13.87
  -6  -1 -21   89.20   18.57
   6   1 -21   62.21   14.61
  -6   1 -21   52.58   14.36
   6  -1 -21   71.95   14.81
   6   1 -21   37.36   13.29
   6  -1 -22    3.68    6.85
   6   1 -22    1.21    3.12
  -6  -1 -22    0.66    1.87
  -6   1 -22    9.88    6.95
   6  -1 -22   -1.87    2.60
   6   1 -22    8.01    3.90
   6  -1 -23   -2.04    4.08
   6   1 -23   -3.89    4.01
  -6  -1 -23   -4.90    4.92
  -6   1 -23    1.08    1.73
   6  -1 -23   -3.55    5.05
   6   1 -23    2.41    5.59
   6  -1 -24    4.03    7.04
   6   1 -24    3.66    5.63
  -6  -1 -24    0.88    2.01
  -6   1 -24   -0.96    5.47
   6  -1 -24    2.09    4.35
   6   1 -24    3.78    5.70
  -6   1 -25    2.53    0.46
   6  -1 -25    0.87    6.12
   6   1 -25    2.96    5.05
  -6  -1 -25    2.36    3.02
   6  -1 -25    7.88    5.77
   6   1 -25    0.14    6.49
   6  -1 -26    0.59    5.29
   6   1 -26    9.84    3.98
  -6  -1 -26    2.21    4.23
  -6   1 -26   -1.64    3.97
   6  -1 -26    0.14    3.15
   6   1 -26    5.31    3.74
   6  -1 -27   -0.41    3.78
   6   1 -27    1.42    1.94
  -6  -1 -27    7.74    8.04
  -6   1 -27    2.81    3.23
   6  -1 -27    1.58    3.23
   6   1 -27    5.23    5.39
   6  -1 -28   -3.62    6.67
   6   1 -28   -6.06    6.52
  -6  -1 -28    2.42    6.52
  -6   1 -28    2.68    5.63
   6  -1 -28    2.34    5.48
   6   1 -28   -3.07    4.42
   6  -2   0  135.67    8.18
   6   2   0  183.66   16.49
  -6   2   0  160.55   16.96
  -6  -2   0  188.91   20.73
  -6   2   0  168.91   12.93
   6  -2  -1  131.26    9.05
   6   2   1   96.43    6.43
   6   2   1  150.40   15.53
  -6  -2  -1  149.58   18.97
  -6   2  -1  159.12   17.31
  -6   2  -1   71.42    8.87
   6   2  -1  162.07   15.85
  -6   2   1  113.49   10.12
  -6   2  -2    6.88    2.78
  -6   2   2   10.39    2.96
   6   2   2   14.54    4.36
   6  -2  -2   10.01    3.14
  -6  -2  -2    5.15    5.08
  -6   2  -2    3.79    1.82
   6   2   2   10.17    2.30
   6   2  -2    6.44    2.87
  -6   2   3  430.69   18.80
   6  -2  -3  368.28   19.75
   6   2   3  322.52   17.62
   6   2   3  360.32   23.05
  -6  -2  -3  365.12   30.12
  -6   2  -3  533.65   32.79
   6   2  -3  452.38   28.00
  -6   2  -3  493.11   26.67
  -6   2   4  567.83   22.32
   6  -2  -4  731.10   30.08
   6   2   4  488.60   22.54
  -6  -2  -4  349.16   29.94
  -6   2  -4  523.79   31.24
   6   2   4  555.15   27.44
   6   2  -4  687.25   35.15
   6  -2  -5   48.53    7.87
  -6   2   5   41.92    6.55
   6   2  -5   27.53    6.99
  -6  -2  -5   65.06   11.91
  -6   2  -5   65.81   11.68
   6   2   5   52.71    8.70
   6  -2  -6  223.26   19.11
  -6   2   6  259.67   16.73
  -6  -2  -6  268.80   25.04
  -6   2  -6  325.47   25.26
   6   2  -6  335.60   26.93
   6   2   6  381.48   25.84
   6   2   7  568.74   31.04
   6  -2  -7  487.43   29.61
  -6   2  -7  631.60   37.05
   6   2  -7  460.13   31.89
  -6  -2  -7  414.84   33.45
   6  -2  -8   34.94    8.57
   6  -2   8   39.93    4.63
   6   2   8   39.49    8.33
   6   2  -8   40.66    9.87
  -6  -2  -8   29.88    8.17
  -6   2  -8   43.33    9.83
   6   2  -9    4.04    5.16
   6  -2  -9    1.44    2.28
  -6  -2  -9    0.88    2.42
  -6   2  -9    3.65    4.03
   6  -2 -10   89.09   13.92
   6   2 -10   64.73   12.33
  -6   2 -10   76.99   14.38
   6  -2 -11  510.09   34.70
   6   2 -11  535.37   36.47
  -6  -2 -11  595.01   40.50
  -6  -2 -11  522.85   33.62
   6  -2 -12   64.18   12.60
   6   2 -12   55.89   12.08
  -6  -2 -12   60.05   15.21
  -6   2 -12   32.54    9.74
  -6  -2 -12   86.17   14.20
   6  -2 -13  270.20   27.14
   6   2 -13  261.34   26.65
  -6  -2 -13  245.88   28.23
  -6   2 -13  356.80   32.64
  -6  -2 -13  389.95   30.96
   6  -2 -14    7.23    2.52
  -6  -2 -14   16.61    8.71
  -6   2 -14   10.53    5.40
   6   2 -14   18.19    7.47
  -6  -2 -14   10.52    4.85
   6  -2 -15    9.77    6.52
  -6  -2 -15    1.22    1.41
  -6   2 -15    4.53    5.00
   6   2 -15    1.70    2.77
  -6  -2 -15    6.79    4.43
   6  -2 -16   25.19    9.13
  -6  -2 -16   29.93    7.08
   6   2 -16   24.76    8.49
  -6  -2 -16   14.62    6.62
   6  -2 -16   19.27    8.21
   6  -2 -17   32.96   10.28
  -6  -2 -17   68.27   15.69
  -6   2 -17   35.36   11.08
   6   2 -17   17.24    7.11
  -6  -2 -17   49.10   11.35
   6  -2 -17   36.17   12.88
   6  -2 -18   30.23    9.15
  -6   2 -18   62.83   14.25
   6   2 -18   57.56   13.97
  -6  -2 -18   45.59   12.15
   6  -2 -18   66.49   14.06
   6  -2 -19   46.81   12.66
  -6  -2 -19   54.76   13.41
   6   2 -19   31.71    8.93
  -6   2 -19   21.20    6.48
  -6  -2 -19   31.09    9.94
   6  -2 -19   31.49   10.50
   6  -2 -20    3.80    6.81
   6   2 -20    7.24    6.52
  -6  -2 -20   -1.19    2.82
  -6   2 -20   -2.49    2.38
   6  -2 -20    2.81    4.29
  -6  -2 -20   -3.45    6.77
   6  -2 -21   55.69   14.46
   6   2 -21   64.23   15.11
  -6  -2 -21   65.14   15.05
  -6   2 -21   58.35   14.20
   6  -2 -21   71.32   15.62
  -6  -2 -21   47.66   13.39
   6   2 -21   38.59   12.28
   6  -2 -22   33.28   12.20
   6   2 -22   14.91    5.82
  -6  -2 -22   15.88    6.68
  -6   2 -22   25.29   10.81
   6  -2 -22   13.87    7.90
  -6  -2 -22   17.43    9.79
   6   2 -22    8.67    5.66
   6  -2 -23    5.20    7.48
   6   2 -23    0.16    4.03
  -6  -2 -23   -1.43    2.63
  -6   2 -23   -0.90    0.70
   6  -2 -23    4.15    7.89
   6   2 -23   -2.92    1.51
   6  -2 -24    4.53    4.20
   6   2 -24    2.66    6.61
  -6  -2 -24   -0.84    5.53
  -6   2 -24    4.59    6.96
   6  -2 -24    0.26    3.72
   6   2 -24    3.64    5.05
   6  -2 -25   43.35   13.69
   6   2 -25   38.37   12.99
  -6  -2 -25   26.02   12.39
  -6   2 -25   23.09   17.63
   6  -2 -25   25.30   10.40
   6   2 -25   27.77    8.78
   6  -2 -26    7.23    5.71
   6   2 -26    5.31    7.44
  -6  -2 -26   12.61    7.91
  -6   2 -26    2.22    6.78
   6  -2 -26   -0.85    5.28
   6   2 -26    4.62    4.76
   6  -2 -27    2.83    4.89
   6   2 -27   -0.63    6.09
  -6  -2 -27   -1.61    4.16
  -6   2 -27    3.94    8.57
   6  -2 -27    3.92    0.72
   6   2 -27   -3.76    4.70
   6   2 -28    8.01    7.01
  -6  -2 -28    8.13    5.89
  -6   2 -28   19.80   10.34
   6  -2 -28    1.88    0.98
   6   2 -28   15.88    8.89
  -6   3   0   -0.50    1.57
   6   3   0   -0.54    1.41
  -6   3   0    1.01    1.10
  -6  -3   0   -2.18    1.18
   6   3  -1   23.67    6.47
   6   3  -1   18.62    3.24
  -6   3  -1   33.92    6.52
  -6   3   1   22.89    5.62
   6   3   1   26.90    4.52
   6   3   1   15.56    5.31
  -6   3  -1   28.45    6.83
   6  -3  -1   15.35    2.28
  -6  -3  -1   36.28    9.64
  -6   3  -2    4.93    3.34
   6   3  -2    4.43    1.45
   6  -3  -2    3.48    2.01
  -6   3   2    9.84    3.51
   6   3   2    5.38    2.35
  -6  -3  -2    8.31    4.58
  -6   3  -2    7.74    2.45
   6   3   2   11.93    5.52
   6   3  -2   11.08    5.51
  -6   3  -3    3.86    3.16
   6  -3  -3   -0.25    1.49
  -6   3   3   -0.61    1.00
  -6  -3  -3    3.12    5.08
  -6   3  -3   -0.23    1.72
   6   3   3    0.11    1.54
   6   3  -3    2.26    2.16
   6   3   3   -1.02    0.73
  -6   3   4  381.28   22.28
   6   3   4  338.41   21.55
  -6  -3  -4  470.46   35.19
  -6   3  -4  489.27   29.80
   6   3   4  355.45   24.10
   6   3  -4  460.21   30.29
   6  -3  -4  499.83   23.93
  -6   3  -4  269.44   22.40
  -6   3   5   40.38    7.58
   6   3   5   49.82    8.62
  -6   3  -5   43.15    8.87
  -6  -3  -5   41.24   10.91
   6   3   5   39.63    8.70
   6   3  -5   58.06   11.16
   6  -3  -5   41.90    7.71
  -6   3  -5   64.80   11.76
  -6   3  -6    3.05    1.25
   6  -3  -6    0.75    1.25
  -6   3   6    2.55    1.02
   6   3  -6    4.26    5.34
  -6  -3  -6    2.14    3.83
  -6   3  -6    2.71    1.86
   6   3   6   -0.67    2.12
   6   3   6    1.70    1.50
   6   3   7  123.18   15.24
  -6   3   7  104.55   11.70
  -6  -3  -7  144.71   19.22
   6   3   7  142.36   15.02
  -6   3  -7   98.35   14.17
   6   3  -7  117.70   16.35
  -6   3  -7  117.21   15.92
   6  -3  -7  142.45   15.51
   6   3   8   94.50   13.32
  -6   3   8   66.66    9.91
  -6  -3  -8  141.26   19.02
  -6   3  -8  101.63   16.05
   6   3  -8  113.23   16.37
   6  -3  -8  107.17   13.56
   6   3  -9   -1.41    2.92
   6  -3  -9   -0.29    0.73
   6   3   9   -0.68    0.48
  -6   3   9    2.37    4.22
  -6  -3  -9   -0.95    2.68
  -6   3  -9    1.92    1.78
  -6  -3 -10   57.97   12.94
   6   3 -10   83.98   14.90
  -6   3 -10   72.69   14.13
   6  -3 -10   79.16   13.63
   6   3 -11    1.54    3.12
   6  -3 -11    5.66    4.55
  -6   3  11   -5.23    3.18
  -6  -3 -11    1.09    4.93
  -6   3 -11   -0.36    3.00
   6   3 -12  165.51   20.60
  -6  -3 -12  175.24   22.99
  -6   3 -12  133.66   19.58
  -6  -3 -12  162.75   19.95
   6  -3 -12  181.13   21.48
   6  -3 -13   16.24    5.76
  -6  -3 -13   14.47    8.32
  -6   3 -13   14.30    5.61
  -6  -3 -13   12.59    4.59
   6   3 -13    9.45    6.84
   6  -3 -14   17.72    7.75
  -6  -3 -14   14.98    6.17
  -6   3 -14   25.94    9.72
  -6  -3 -14   24.42    8.14
   6   3 -14   28.14    8.98
   6  -3 -14   22.33    8.39
   6  -3 -15   13.28    5.30
  -6  -3 -15   13.67    6.74
  -6   3 -15    3.54    0.84
  -6  -3 -15   10.67    5.24
   6   3 -15   11.96    6.89
   6  -3 -15   -0.70    3.50
   6   3 -16  119.43   19.14
  -6  -3 -16  169.00   23.61
  -6   3 -16  173.78   24.30
  -6  -3 -16  162.68   21.57
   6  -3 -16  140.43   20.28
   6  -3 -16  138.10   20.45
   6  -3 -17    5.62    4.87
  -6  -3 -17    5.78    1.94
  -6   3 -17   -1.09    3.15
   6   3 -17    3.05    0.53
  -6  -3 -17   10.26    6.51
   6  -3 -17    1.10    2.20
   6   3 -18   96.05   18.24
  -6  -3 -18   76.59   17.27
  -6   3 -18  111.49   20.28
  -6  -3 -18   81.13   15.56
   6  -3 -18   89.21   16.92
   6  -3 -18   90.07   17.36
   6  -3 -19   32.64   10.22
  -6  -3 -19   68.58   17.00
  -6   3 -19   39.58   13.09
   6   3 -19   55.80   13.71
  -6  -3 -19   48.57   12.60
   6  -3 -19   37.54   10.26
   6  -3 -20    2.09    2.14
  -6  -3 -20   22.79    9.14
  -6   3 -20    6.65    5.51
   6   3 -20   11.52    8.22
  -6  -3 -20   15.09    6.29
   6  -3 -20    4.65    3.96
   6  -3 -21    2.05    1.91
  -6  -3 -21    5.07    6.79
   6   3 -21    3.50    1.41
  -6   3 -21   10.73    8.55
   6  -3 -21   -0.37    2.71
  -6  -3 -21   -2.60    5.72
   6  -3 -22   34.03   10.74
  -6  -3 -22   29.79    9.39
   6   3 -22   24.06    8.80
  -6   3 -22   12.17    8.29
   6  -3 -22   15.37    6.61
  -6  -3 -22   44.21   12.58
   6   3 -22   26.75   11.34
   6  -3 -23    4.64    2.00
   6   3 -23    3.52    3.31
  -6  -3 -23   21.43    9.94
  -6   3 -23   13.40    8.85
   6  -3 -23    9.36    5.45
  -6  -3 -23    7.95    6.41
   6   3 -23    8.24    7.22
   6  -3 -24    8.33    4.45
   6   3 -24   -0.14    2.61
  -6  -3 -24    3.77    5.00
  -6   3 -24    2.28    4.41
   6  -3 -24    5.69    4.40
  -6  -3 -24    5.66    4.87
   6  -3 -25   -5.23    5.12
   6   3 -25    3.98    3.98
  -6  -3 -25   -1.49    1.81
  -6   3 -25    6.28    6.98
   6  -3 -25    2.96    4.22
   6   3 -25   -2.15    3.28
   6  -3 -26    2.65    5.70
   6   3 -26   -2.65    4.84
  -6  -3 -26    4.27    4.89
  -6   3 -26    3.36    2.60
   6  -3 -26    7.73    7.29
   6   3 -26    3.19    3.83
   6  -3 -27    5.57    3.25
   6   3 -27   -2.97    1.35
  -6  -3 -27    6.82    6.15
  -6   3 -27    5.92    8.49
   6  -3 -27    3.90    3.18
   6   3 -27   -3.95    3.88
   6  -3 -28    4.89    6.04
   6   3 -28    5.08    4.79
  -6  -3 -28   -1.26    4.49
  -6   3 -28    0.06    6.35
   6  -3 -28   -7.11    6.48
   6   3 -28    7.83    7.71
  -6   4   0   63.80   10.78
   6   4   0   92.29   10.04
   6   4   0   75.83   12.82
  -6   4  -1  103.32   13.75
  -6   4   1   85.93   11.96
   6   4  -1   90.05    9.59
   6   4   1   95.45   10.13
   6   4  -1  107.06   14.78
   6   4   1   90.32   13.23
  -6   4  -1   90.21   12.19
  -6  -4  -1  115.71   17.46
   6   4  -2    1.99    2.57
  -6   4  -2    2.78    3.06
   6   4  -2    1.37    0.71
  -6   4   2    5.86    4.01
   6   4   2    6.78    3.15
  -6  -4  -2    6.98    4.96
  -6   4  -2    3.90    3.33
   6   4   2    1.03    0.58
   6  -4  -2    3.53    1.39
   6   4  -3   84.04   12.95
  -6   4   3   95.41   12.55
  -6  -4  -3  103.91   16.97
   6   4   3   98.10   11.63
  -6   4  -3   91.59   12.28
   6   4   3   89.08   12.37
   6  -4  -3   69.21    7.62
  -6   4  -3   85.48   12.50
   6   4  -3   54.59    6.90
   6  -4  -4   22.86    4.77
  -6   4  -4   24.53    7.73
   6   4   4   16.36    3.97
  -6   4   4   26.00    6.39
  -6   4  -4   10.76    4.54
  -6  -4  -4   11.63    6.43
   6   4   4   15.78    5.04
   6   4  -4   17.62    6.04
   6   4  -4   18.92    4.18
   6   4  -5   14.13    3.72
  -6   4  -5   19.72    6.78
   6  -4  -5   14.37    3.83
  -6   4   5   15.97    5.55
   6   4   5   17.21    6.20
  -6  -4  -5   16.46    6.93
   6   4   5    5.80    3.23
  -6   4  -5   11.48    4.29
   6   4  -5   14.05    6.11
   6   4  -6    8.85    2.94
  -6   4  -6   11.35    4.61
   6  -4  -6    5.21    1.63
  -6   4   6    8.25    3.81
   6   4  -6    2.41    3.09
  -6  -4  -6   17.49    7.78
  -6   4  -6   10.95    4.91
   6   4   6    3.46    3.02
   6   4   6   10.40    5.08
   6   4   7  226.82   21.85
  -6   4   7  183.00   17.63
   6   4   7  109.25   15.00
  -6  -4  -7  175.93   21.50
  -6   4  -7  155.51   17.78
   6   4  -7  170.74   19.65
   6  -4  -7  216.18   19.95
   6   4  -7  169.65   14.39
   6   4   8  565.23   35.48
  -6   4   8  694.61   33.91
   6   4   8  476.44   31.05
  -6  -4  -8  390.02   33.26
  -6   4  -8  387.65   29.71
   6   4  -8  517.44   35.51
   6  -4  -8  526.33   33.08
  -6   4  -8  278.62   28.32
  -6   4   9  123.72   14.86
   6   4   9  128.49   16.03
  -6  -4  -9   93.51   16.46
  -6   4  -9   91.50   14.65
   6   4  -9  111.01   17.12
   6  -4  -9   95.48   14.67
  -6   4  -9  116.80   18.10
  -6   4  10  253.35   22.58
  -6  -4 -10  221.05   25.65
   6   4  10  122.11   16.26
  -6   4 -10  172.51   20.56
   6   4 -10  152.37   21.09
   6   4  10  182.53   20.77
   6  -4 -10  186.97   21.08
  -6   4 -10  150.48   20.55
   6   4 -11   11.24    6.29
   6  -4 -11    9.01    4.77
  -6   4  11    8.20    5.46
  -6  -4 -11    7.28    4.74
  -6   4 -11    8.90    4.41
   6   4  11   11.31    5.91
   6   4 -12   21.32    8.17
   6  -4 -12    8.36    5.00
  -6  -4 -12   11.89    6.48
  -6   4 -12   10.18    5.30
   6  -4 -12    4.95    5.37
   6   4 -13   19.07    8.18
   6  -4 -13   14.16    8.17
  -6   4  13   -2.96    1.54
  -6  -4 -13   27.36   11.39
  -6   4 -13   38.61   10.87
  -6  -4 -13   29.29    8.46
   6  -4 -13    1.43    6.71
   6   4 -14   19.71    7.95
   6  -4 -14   29.41    9.47
  -6  -4 -14   18.82    9.25
  -6   4 -14   22.20    9.44
  -6  -4 -14   26.63    7.17
   6  -4 -14   15.15    7.00
   6   4 -15   80.93   15.22
  -6  -4 -15  157.64   23.06
  -6   4 -15  146.86   20.57
  -6  -4 -15  151.43   21.78
   6  -4 -15   94.54   15.32
   6  -4 -15  131.32   20.71
   6  -4 -16   14.02    6.18
  -6  -4 -16   18.86    7.93
  -6   4 -16   27.01    9.11
  -6  -4 -16   31.17   10.31
   6  -4 -16   31.88    9.16
   6   4 -16   23.30    8.51
   6  -4 -17   51.08   13.68
  -6  -4 -17   42.01   13.51
  -6   4 -17   41.70   13.16
  -6  -4 -17   43.87   13.02
   6   4 -17   56.48   13.90
   6  -4 -17   47.66   10.89
   6   4 -18   78.89   16.88
  -6   4 -18  118.42   20.92
  -6  -4 -18   62.93   15.69
  -6  -4 -18   68.16   15.62
   6  -4 -18   63.64   14.70
   6  -4 -18   89.13   18.15
   6  -4 -19   12.99    7.50
  -6  -4 -19    9.18    5.78
  -6   4 -19    4.92    7.59
   6   4 -19    6.16    0.93
  -6  -4 -19   17.97    7.95
   6  -4 -19   15.65    6.02
   6  -4 -20    7.52    6.81
  -6  -4 -20    0.86    5.71
  -6   4 -20   -2.44    1.55
   6   4 -20    0.88    5.61
  -6  -4 -20    1.31    2.31
   6  -4 -20    3.21    3.42
   6  -4 -21   26.32    9.86
  -6  -4 -21   -0.61    3.35
  -6   4 -21   14.09    6.98
   6   4 -21   20.62    8.21
  -6  -4 -21   11.26    6.11
   6  -4 -21   14.67    7.36
   6  -4 -22   46.76   14.88
  -6  -4 -22   33.34   12.29
  -6   4 -22   26.61   12.00
   6   4 -22   48.49   13.17
   6  -4 -22   31.92   12.08
  -6  -4 -22   31.11   10.86
   6   4 -22    7.69   14.00
   6  -4 -23   29.16    9.36
  -6  -4 -23   17.07    8.88
   6   4 -23   31.13   10.59
  -6   4 -23   11.79    6.59
   6  -4 -23   23.79   11.54
  -6  -4 -23   27.75   10.06
   6   4 -23   10.52   10.87
   6  -4 -24    2.35    4.59
  -6  -4 -24    2.63    3.75
   6   4 -24   -1.70    3.77
  -6   4 -24   -3.75    4.57
   6  -4 -24   -1.42    4.22
  -6  -4 -24    0.61    2.08
   6   4 -24   -2.51    2.30
   6  -4 -25   15.19   11.60
   6   4 -25   14.00    8.31
  -6  -4 -25   10.17    6.62
  -6   4 -25    6.67    4.65
  -6  -4 -25   15.39    7.14
   6   4 -25   13.49    9.81
   6  -4 -26   14.25    6.50
   6   4 -26    6.88    3.70
  -6  -4 -26   17.67   11.44
  -6   4 -26   -1.22    4.19
  -6  -4 -26    7.38    4.28
   6   4 -26    3.69    4.64
   6  -4 -27    2.55    1.13
   6   4 -27    8.75    7.77
  -6  -4 -27    3.16    5.83
  -6   4 -27    0.14    3.29
   6   4 -27   -1.38    4.77
  -6   5   0   10.80    4.50
   6   5   0    7.14    4.06
   6   5   0    9.83    6.02
  -6   5  -1  152.15   18.53
  -6   5   1  163.73   18.20
   6   5  -1  182.94   15.89
   6   5   1  125.49   13.32
   6   5  -1  144.75   18.58
   6   5   1  133.74   16.95
  -6  -5  -1  121.73   18.35
   6   5  -2   25.40    8.23
  -6   5  -2   13.77    5.24
   6   5  -2   17.65    4.21
  -6   5   2   37.26    8.55
   6   5   2   26.77    6.15
  -6  -5  -2   41.35   10.95
   6   5   2   21.02    6.53
  -6   5  -3   -0.26    2.73
   6   5  -3    1.10    0.60
  -6   5   3    3.84    3.67
   6   5   3    0.62    1.46
  -6  -5  -3    2.44    7.64
  -6   5  -3    8.20    5.86
   6  -5  -3    2.33    2.53
   6   5   3   -0.67    2.58
   6   5  -3    1.41    0.55
  -6  -5  -4    4.80    6.39
  -6   5  -4    0.30    2.73
   6   5  -4   -0.03    1.96
   6   5   4    1.08    2.83
  -6   5   4   -1.69    3.48
   6   5   4    1.17    2.19
  -6   5  -4    0.18    2.63
   6   5  -4    5.32    6.00
   6  -5  -4    0.36    1.34
  -6   5   5  111.95   15.25
   6   5   5  130.44   16.45
  -6  -5  -5  150.41   20.70
  -6   5  -5  173.12   17.31
   6  -5  -5   93.39   11.41
   6   5   5  124.68   16.30
   6   5  -5  104.57   16.01
  -6   5  -5  126.62   17.59
   6   5  -5  122.40   12.62
  -6   5   6  101.89   14.24
   6   5   6   71.59   12.27
  -6  -5  -6   84.06   15.87
  -6   5  -6   65.20   10.15
   6  -5  -6   83.26   11.88
   6   5   6   76.64   13.29
   6   5  -6   65.84   13.07
  -6   5  -6   69.51   13.05
   6   5  -6   55.41    8.81
  -6   5   7   96.25   14.26
  -6  -5  -7   97.80   16.31
  -6   5  -7  128.67   16.31
   6  -5  -7   79.87   11.70
   6   5  -7  132.59   18.49
   6   5   7   95.38   14.76
   6   5  -7  139.59   14.53
  -6   5  -7  140.12   18.50
   6   5  -8   19.57    5.99
  -6   5  -8   22.28    7.46
   6  -5  -8    9.85    4.68
  -6   5   8   12.73    5.15
   6   5  -8    2.01    5.22
   6   5   8   10.09    5.87
  -6  -5  -8    7.91    5.61
   6   5   8    6.10    2.87
  -6   5  -8   11.52    5.04
   6   5   9  103.52   15.67
  -6   5   9   60.82   10.80
   6   5   9  148.33   19.60
  -6  -5  -9  116.72   17.64
  -6   5  -9  111.37   16.26
   6   5  -9  104.55   16.32
   6  -5  -9   87.36   14.16
   6   5  -9   45.36    9.36
  -6   5  -9   91.75   16.49
  -6   5 -10   14.58    6.84
   6  -5 -10   14.70    6.88
   6   5 -10    7.34    2.98
  -6   5  10   11.60    4.26
  -6  -5 -10    8.81    3.48
   6   5  10    7.77    5.27
  -6   5 -10   16.76    6.86
   6   5  10   23.50    8.19
   6  -5 -10    5.05    5.34
   6   5 -10   12.18    5.47
  -6   5 -11    8.67    3.97
   6  -5 -11    9.20    3.89
   6   5 -11   10.03    6.58
   6   5  11    2.45    4.99
  -6   5  11    3.34    0.87
  -6  -5 -11    8.78    5.53
   6   5  11    9.61    6.69
  -6   5 -11    4.96    3.91
   6  -5 -11    4.82    1.94
  -6   5 -12   15.85    6.92
   6  -5 -12   25.10    8.33
   6   5 -12    7.12    3.68
  -6   5  12   19.79    7.68
  -6  -5 -12   33.63   10.05
   6   5  12   10.42    5.28
  -6   5 -12    9.11    4.63
   6  -5 -12   22.91    7.21
  -6   5  13   93.91   17.18
  -6  -5 -13  117.91   18.72
   6   5 -13  102.89   17.87
  -6   5 -13   74.64   14.83
   6   5  13   45.25   11.44
   6  -5 -13   93.20   14.38
   6  -5 -13   77.84   15.43
  -6   5 -13   73.61   15.36
   6   5 -14   28.81   10.81
   6  -5 -14   19.41    8.74
  -6  -5 -14   20.39    9.22
   6   5  14   21.40    7.42
  -6   5 -14   23.70    8.16
   6  -5 -14   15.79    5.60
   6   5 -15   11.67    6.11
   6  -5 -15    9.93    6.22
  -6  -5 -15   14.76    6.62
   6   5  15   28.24    9.83
  -6   5 -15   19.53    7.60
  -6  -5 -15   17.67    6.85
   6  -5 -16    1.98    3.34
  -6  -5 -16   -2.60    4.22
   6   5  16    9.13    6.85
  -6   5 -16    2.29    3.62
  -6  -5 -16    2.51    1.23
   6   5 -16   -2.12    3.98
   6  -5 -17    1.16    4.41
  -6  -5 -17   10.98    7.80
   6   5  17   -0.53    2.08
  -6   5 -17   -1.41    3.58
  -6  -5 -17    3.13    4.64
   6   5 -17   -2.44    2.73
   6  -5 -18   69.38   16.48
   6   5 -18   74.32   15.62
  -6  -5 -18   87.46   18.04
  -6   5 -18   85.08   17.87
  -6  -5 -18   53.20   14.36
   6  -5 -19   26.89    9.93
  -6  -5 -19   27.28   10.87
  -6   5 -19   12.67    6.70
  -6  -5 -19   16.61    7.94
   6   5 -19   14.91    7.99
   6  -5 -20    0.07    1.71
  -6  -5 -20   -7.84    7.34
  -6   5 -20   -1.41    4.66
   6   5 -20    5.55    3.37
  -6  -5 -20   -0.37    2.49
   6  -5 -21   28.01   11.38
  -6  -5 -21   19.61   12.04
  -6   5 -21   21.40    8.56
   6   5 -21   29.72    9.54
  -6  -5 -21   24.35    9.50
   6  -5 -22   -5.96    6.20
  -6  -5 -22    2.06    1.53
  -6   5 -22    1.17    5.17
   6   5 -22    6.81    5.22
  -6  -5 -22   -2.14    4.52
   6  -5 -23    7.52    5.80
  -6  -5 -23   11.78    9.27
  -6   5 -23    4.06    3.79
   6   5 -23    4.74    4.37
  -6  -5 -23    1.61    3.29
   6   5 -23    2.62    2.45
   6  -5 -24    8.86    5.99
  -6  -5 -24   11.44    9.33
   6   5 -24   19.15    9.52
  -6   5 -24   23.17   10.22
  -6  -5 -24   16.98    8.73
   6   5 -24   14.14    8.87
   6  -5 -25   12.41    6.99
  -6  -5 -25    0.64    3.74
   6   5 -25   20.82    9.13
  -6   5 -25   10.34    7.70
  -6  -5 -25    4.48    5.33
   6   5 -25   18.92   10.82
   6  -5 -26    1.25    7.45
  -6  -5 -26   10.64    8.67
   6   5 -26    0.56    6.83
  -6   5 -26   -3.78    3.86
  -6  -5 -26    2.70    4.57
   6   5 -26    9.64    8.72
   6  -5 -27    1.90    2.98
   6   5 -27   -1.89    5.70
  -6  -5 -27   -0.78    2.37
  -6   5 -27  -10.03    8.85
  -6  -5 -27    2.59    6.02
   6   5 -27    2.63    5.73
  -6   6   0    1.20    2.76
   6   6   0   -0.04    2.09
   6   6   0    4.12    4.88
  -6   6  -1   68.61   12.85
  -6   6   1   84.78   14.75
   6   6  -1   88.36   12.64
   6   6   1   92.53   12.99
   6   6  -1  133.56   18.53
   6   6   1   97.59   15.19
  -6  -6  -1   82.72   15.49
  -6   6  -2    7.03    2.90
   6   6  -2   15.94    6.19
   6   6  -2   11.19    4.41
  -6   6   2    4.08    1.82
   6   6   2    9.02    4.78
  -6  -6  -2   15.54    6.39
   6   6   2    6.80    4.98
   6   6  -3   13.13    5.55
  -6   6  -3    9.06    5.36
   6   6  -3    8.68    3.95
  -6   6   3   12.63    5.48
   6   6   3    6.36    3.25
  -6  -6  -3   13.51    7.13
   6   6   3   16.13    6.13
   6   6  -4  463.44   28.54
   6   6  -4  415.23   31.72
  -6   6   4  503.86   34.97
   6   6   4  397.08   28.06
  -6  -6  -4  376.37   34.13
   6   6   4  498.24   33.39
   6   6  -5   67.96   11.46
  -6   6  -5   38.25   10.83
  -6   6   5   50.33   11.12
   6   6   5   89.83   14.36
   6   6   5   48.42   10.39
  -6  -6  -5   75.07   15.93
   6  -6  -5   44.21    7.82
   6   6  -5   64.67   13.16
  -6   6  -6   34.97    9.91
   6   6  -6   21.37    6.16
  -6   6   6   27.82    8.36
   6   6   6   23.36    7.48
  -6  -6  -6   17.43    8.09
   6   6   6   15.66    6.02
   6   6  -6   23.54    8.33
   6  -6  -6   16.18    5.57
  -6   6   7  149.92   19.18
  -6  -6  -7  164.84   23.10
   6  -6  -7  141.85   17.58
   6   6  -7  145.27   19.45
   6   6   7  131.32   18.50
  -6   6  -7  118.41   18.00
   6   6  -7  110.63   14.21
   6   6  -8    8.82    4.35
  -6   6  -8    9.05    6.27
   6   6   8   11.17    5.45
  -6   6   8    3.95    2.92
   6   6  -8    1.37    1.66
  -6  -6  -8    8.22    5.89
   6   6   8    7.07    2.73
   6  -6  -8    6.80    3.91
   6  -6  -9    3.21    2.20
   6   6  -9    6.43    4.40
  -6   6  -9    3.66    3.67
  -6   6   9   17.81    6.12
   6   6  -9   -1.33    5.65
  -6  -6  -9    2.21    5.39
   6   6   9    6.06    4.99
   6   6   9    4.19    4.16
  -6   6 -10   43.53   11.20
   6   6  10   32.80    9.94
   6   6 -10   58.64   12.86
  -6   6  10   35.14    9.57
  -6  -6 -10   50.10   13.43
   6   6  10   28.71    8.15
   6  -6 -10   47.92   10.84
  -6   6  11  145.58   18.97
   6   6  11  176.42   21.01
   6   6  11  128.55   18.81
  -6  -6 -11  126.87   19.53
   6   6 -11  175.59   23.60
   6  -6 -11  161.76   19.90
  -6   6 -11  179.33   24.19
  -6   6 -12   57.74   13.90
   6  -6 -12   37.40    9.70
   6   6 -12   44.38   11.46
  -6   6  12   55.22   12.22
  -6  -6 -12   53.71   11.97
   6   6  12   66.58   13.90
   6   6  12   70.87   13.94
  -6   6 -13    9.26    6.32
   6  -6 -13   14.62    6.04
   6   6 -13   19.50    8.25
  -6   6  13    9.01    6.53
  -6  -6 -13   14.72    5.87
   6   6  13   20.53    7.84
  -6   6 -13   20.07    9.68
  -6   6  14  195.27   25.62
   6   6  14  289.06   30.31
  -6  -6 -14  235.11   27.45
   6   6 -14  222.14   27.13
  -6   6 -14  222.32   25.95
   6  -6 -14  163.15   22.00
  -6   6 -14  280.91   32.44
   6  -6 -15   49.14   11.87
  -6  -6 -15   71.82   15.60
   6   6 -15   72.30   15.16
  -6   6 -15   86.91   16.67
   6   6  15   39.39   11.90
   6   6 -16   12.52    4.92
   6  -6 -16   11.96    4.89
  -6  -6 -16   32.49   11.59
   6   6  16   31.36    9.40
  -6   6 -16   12.93    8.23
   6   6 -17   14.09    7.73
  -6  -6 -17    3.21    3.07
   6   6  17    1.43    1.31
  -6   6 -17    5.12    4.49
  -6  -6 -17    7.16    5.51
   6  -6 -18   38.83   11.72
  -6  -6 -18   36.26   11.81
   6   6  18   51.67   13.89
  -6   6 -18    9.40    4.62
  -6  -6 -18   27.90   10.14
   6   6 -18   50.40   14.00
   6  -6 -19    7.44    6.92
  -6  -6 -19   10.84    7.12
   6   6  19    0.85    2.47
  -6   6 -19   19.90    7.83
  -6  -6 -19    3.91    1.56
   6   6 -19    7.74    4.97
   6  -6 -20    9.79    8.24
  -6  -6 -20   18.60    8.03
   6   6  20    5.32    4.26
  -6   6 -20    6.27    7.31
  -6  -6 -20   12.91    7.70
   6   6 -20    6.35    5.32
   6  -6 -21   17.94    9.08
  -6  -6 -21    5.74    4.94
   6   6  21    1.56    3.86
  -6   6 -21    8.69    5.84
  -6  -6 -21    5.65    5.88
   6   6 -21   11.07    7.73
   6  -6 -22   30.37   11.58
  -6  -6 -22   36.82   13.20
   6   6  22   42.68   12.19
  -6   6 -22   12.62    8.63
   6   6 -22   15.75    7.57
  -6  -6 -22   26.73   10.61
   6  -6 -23    6.79    9.33
  -6  -6 -23   18.40    7.24
   6   6  23    7.67    5.27
  -6   6 -23    4.96    5.22
   6   6 -23    9.36    4.51
  -6  -6 -23    9.14    6.97
   6   6 -23   10.56    8.36
   6  -6 -24   24.88   10.56
  -6  -6 -24   17.88    8.41
   6   6  24    7.26    5.07
  -6   6 -24   17.94    8.86
   6   6 -24   20.86    6.91
  -6  -6 -24   10.36    5.53
   6   6 -24   21.49   10.62
   6  -6 -25   44.16   13.99
  -6  -6 -25   33.21   11.47
   6   6  25   22.53   10.27
  -6   6 -25   10.32    7.16
   6   6 -25   29.28   12.01
  -6  -6 -25   18.80   12.76
   6   6 -25   38.80   15.80
   6  -6 -26    5.84    4.34
  -6  -6 -26   38.71   13.68
   6   6  26   10.17    5.89
   6   6 -26   21.32    7.85
  -6   6 -26   12.00    7.33
  -6  -6 -26   39.88   12.20
   6   6 -26   29.92   13.11
  -6   7   0  120.64   17.84
   6   7   0   94.82   14.05
   6   7   0  120.34   18.08
  -6   7   1   72.31   14.65
   6   7  -1   59.35   11.02
   6   7   1   65.32   11.90
  -6   7  -1   27.44    8.91
   6   7  -1   79.91   14.87
   6   7   1   47.34   11.71
  -6   7  -2   85.36   15.69
   6   7  -2  155.98   18.12
  -6   7   2  205.15   23.63
   6   7   2  176.64   19.52
   6   7  -2  221.92   25.01
   6   7   2  165.37   20.30
  -6  -7  -2  134.29   19.48
  -6   7  -3  144.58   20.63
   6   7  -3   73.41   12.91
  -6   7   3  119.64   18.21
   6   7  -3  111.23   16.04
   6   7   3   52.46   10.78
  -6  -7  -3   73.56   14.67
   6   7   3   94.08   15.01
   6   7   4   -1.07    2.56
  -6   7  -4    4.14    5.64
   6   7  -4    1.02    1.70
  -6   7   4   -3.71    3.97
   6   7   4   -0.25    1.05
  -6  -7  -4   -0.62    4.00
   6   7  -4   -0.52    1.27
  -6   7  -5   45.00   11.08
   6   7  -5   17.95    7.07
   6   7   5   15.89    5.26
  -6   7   5   16.48    5.87
   6   7   5   18.77    7.05
  -6  -7  -5   14.13    7.07
   6   7  -5   19.53    8.17
  -6   7  -6    3.18    2.64
   6   7  -6   -0.30    2.27
  -6   7   6   -1.86    4.59
   6   7   6    2.40    3.75
  -6  -7  -6    1.59    1.03
   6   7  -6   -1.14    1.93
   6   7   6    1.51    4.69
  -6   7  -7    3.48    3.87
   6   7  -7    3.73    4.55
  -6   7   7    0.26    2.41
   6   7   7   -3.18    4.88
  -6  -7  -7    1.97    1.63
   6   7  -7    4.47    4.84
   6   7   7   -2.11    5.08
   6   7   8    1.05    1.97
  -6   7  -8   -2.69    3.63
   6   7  -8   -0.93    1.94
  -6   7   8   -0.27    1.74
   6   7   8    0.09    2.52
  -6  -7  -8   -0.34    4.76
   6   7  -8    2.76    6.28
   6  -7  -8    1.93    3.26
  -6   7  -9    2.26    4.51
   6   7  -9    3.41    3.20
   6   7   9    4.85    4.35
  -6   7   9    4.16    3.66
   6   7  -9    4.90    4.05
  -6  -7  -9    6.26    3.68
   6   7   9    5.65    3.93
   6  -7  -9   -0.70    2.93
  -6   7 -10   43.00   11.31
  -6   7  10   17.09    6.47
   6   7 -10   46.11   11.59
  -6  -7 -10   32.60   10.61
   6   7  10   17.99    7.18
   6   7  10   29.51    9.38
   6  -7 -10   20.98    7.99
  -6   7 -11   -2.76    4.36
   6   7  11   -0.29    4.26
   6   7 -11    1.35    3.69
  -6   7  11    1.10    1.70
  -6  -7 -11    8.70    4.40
   6   7  11   -3.48    5.55
   6  -7 -11   -5.03    6.45
   6  -7 -12   13.05    8.02
   6   7 -12   20.06    9.80
  -6   7  12   15.68    8.81
  -6  -7 -12    8.72    5.61
   6   7  12   10.85    4.65
   6   7  12    0.99    2.07
   6  -7 -13    0.47    3.95
  -6   7 -13   11.80    6.08
   6   7 -13    4.91    6.13
  -6   7  13   12.00    6.36
  -6  -7 -13   10.12    8.51
   6   7  13   11.48    7.31
   6   7  13    3.67    7.95
  -6   7 -14   26.10   10.10
   6  -7 -14   15.17    7.51
   6   7 -14   22.62    9.72
  -6   7  14   21.58    8.55
  -6  -7 -14   23.94    9.58
   6   7  14   11.98    7.89
  -6   7 -15    7.67    7.17
   6  -7 -15   -1.22    1.90
   6   7 -15    1.89    3.89
  -6   7  15   12.63    9.85
  -6  -7 -15    2.27    0.95
   6   7  15    3.41    3.06
   6  -7 -16    3.03    3.18
   6   7 -16    0.86    3.41
  -6   7  16   -4.31    4.37
  -6  -7 -16    4.44    5.09
   6   7  16    1.29    4.19
  -6   7 -16    1.26    5.53
   6   7 -17    5.61    4.86
   6  -7 -17   19.38    8.99
  -6  -7 -17    4.94    6.00
   6   7  17    4.29    2.05
   6   7 -18    1.57    4.85
   6  -7 -18   13.01    9.28
  -6  -7 -18   18.17    7.03
   6   7  18   18.55    9.27
   6  -7 -19    5.75    5.48
  -6  -7 -19   -0.32    2.65
   6   7  19   -1.93    3.03
  -6  -7 -19   -1.97    1.94
   6   7 -19   -3.46    5.61
   6  -7 -20   12.28    9.22
  -6  -7 -20    4.49    8.13
   6   7  20    9.55    5.46
  -6  -7 -20    5.59    6.93
   6   7 -20    6.13    6.86
   6  -7 -21   -4.28    6.99
  -6  -7 -21   -3.29    7.38
   6   7  21   -0.45    1.80
  -6  -7 -21    3.08    3.96
   6   7 -21   -1.13    1.35
   6  -7 -22    3.81    5.83
  -6  -7 -22   15.49    8.26
   6   7  22    8.32    4.66
  -6  -7 -22   11.16    8.66
   6   7 -22    2.23    6.17
   6  -7 -23   -6.76    7.45
  -6  -7 -23   -7.57    6.28
   6   7  23    1.42    1.89
  -6  -7 -23   -1.38    6.08
   6   7 -23   -2.26    0.90
   6   7 -23   -1.62    3.67
   6  -7 -24    0.13    2.45
  -6  -7 -24    1.58    7.40
   6   7  24   -5.66    6.04
   6   7 -24    1.70    3.46
  -6  -7 -24    1.02    5.10
   6   7 -24    3.30    3.22
   6  -7 -25    1.01    4.51
   6   7  25    6.85    5.87
   6   7 -25    2.41    2.19
  -6  -7 -25   -3.31    1.96
   6   7 -25    0.54    2.07
  -6   8   0    7.10    4.90
   6   8   0   -0.20    2.79
   6   8   0    8.54    4.22
  -6   8  -1   17.23    6.18
  -6   8   1   18.90    8.79
   6   8  -1    2.94    1.81
   6   8   1    7.44    3.46
   6   8  -1    7.16    5.87
   6   8   1   10.50    5.59
  -6   8  -2   26.47    8.74
   6   8  -2    8.22    4.28
   6   8  -2   24.63    7.47
  -6   8   2   35.31   11.53
   6   8   2   41.95   10.53
   6   8   2   32.27    9.95
  -6   8  -3   95.21   17.48
   6   8  -3  114.89   17.29
  -6   8   3  111.03   18.31
   6   8  -3  125.74   19.00
   6   8   3   70.21   13.21
  -6  -8  -3   97.21   17.53
   6   8   3  126.53   18.12
   6   8  -4   41.17    9.83
   6   8   4   32.21    7.39
  -6   8  -4   31.01   10.14
   6   8  -4   31.97    8.59
  -6   8   4   36.00   11.61
   6   8   4   29.50    8.57
  -6  -8  -4   24.08    8.24
  -6   8  -5  138.75   21.05
   6   8  -5   89.84   15.07
   6   8  -5  107.47   17.56
  -6   8   5  102.76   18.45
   6   8   5  108.84   16.54
  -6  -8  -5  116.36   19.53
   6   8   5   82.78   14.88
  -6   8  -6    2.58    4.26
   6   8  -6    0.50    1.49
  -6   8   6    7.53    5.07
   6   8   6    1.90    3.64
   6   8   6    4.72    6.72
  -6  -8  -6    7.24    5.17
   6   8  -6   -2.80    4.27
  -6   8   7  203.13   25.49
   6   8   7  213.28   24.60
  -6  -8  -7  258.90   30.05
   6   8   7  281.70   28.36
   6   8  -7  257.40   27.87
  -6   8  -7  195.14   24.98
   6   8  -7  180.75   21.88
  -6   8  -8    3.10    3.33
   6   8  -8    3.25    2.50
  -6   8   8   11.18    6.14
   6   8   8    6.32    6.02
  -6  -8  -8    9.68    6.47
   6   8  -8    1.04    1.35
   6   8   8    2.75    1.26
   6   8   9    6.76    6.24
  -6   8  -9    7.07    6.33
  -6   8   9    3.41    5.36
   6   8   9   11.06    5.85
  -6  -8  -9    8.70    4.53
   6   8  -9   12.35    5.82
  -6   8 -10    4.21    4.43
   6   8  10   21.11    9.24
  -6   8  10    8.57    6.10
   6   8 -10   18.66    7.73
   6   8  10    7.58    6.25
  -6  -8 -10   11.63    8.51
   6   8  11  121.95   18.68
  -6   8  11  153.11   20.99
   6   8  11  142.44   21.32
  -6  -8 -11  129.18   22.07
   6   8 -11  125.99   20.22
   6  -8 -11  116.97   18.59
  -6   8 -11  103.69   18.11
  -6   8 -12   -0.48    3.76
   6   8  12   10.04    6.49
   6   8 -12   -1.26    4.34
  -6   8  12   -0.04    4.87
   6   8  12    6.44    6.36
  -6  -8 -12    1.77    1.63
   6  -8 -12    6.26    2.67
  -6   8 -13    1.42    5.83
   6   8 -13    2.98    5.50
  -6   8  13    5.37    4.43
   6   8  13    1.73    4.93
  -6  -8 -13    4.29    3.54
   6   8  13    2.53    3.60
   6  -8 -13   -1.42    4.07
  -6   8 -14   23.06   10.21
   6   8  14   17.36    8.03
   6   8 -14    9.44    6.45
  -6   8  14   11.75    5.44
  -6  -8 -14   17.89    8.54
   6   8  14   13.95    5.91
   6  -8 -14    2.03    4.34
  -6   8  15  164.89   24.59
   6   8  15  158.23   24.71
  -6  -8 -15  157.20   24.86
   6   8  15  133.74   21.82
   6   8 -15  149.88   23.62
   6  -8 -15  154.49   24.36
  -6   8 -15  190.53   29.72
  -6   8 -16    1.12    5.77
   6   8 -16   -4.97    3.53
  -6  -8 -16   -3.96    7.62
   6   8  16   -0.99    5.46
   6  -8 -16   -0.61    2.67
   6  -8 -17   74.30   16.51
  -6   8 -17   49.19   14.17
   6   8 -17   79.31   16.92
  -6  -8 -17   47.45   12.69
   6   8  17   69.37   17.60
   6  -8 -18    1.93    5.14
   6   8 -18    4.01    2.53
  -6  -8 -18    9.07    9.19
   6   8  18   -0.33    7.32
  -6   8 -18   -2.64    2.44
   6   8 -19   26.97    9.89
   6  -8 -19   11.30    6.04
  -6  -8 -19   32.12   11.02
   6   8  19   29.55   11.43
   6  -8 -20    1.63    2.42
  -6  -8 -20   10.92    6.36
   6   8  20   14.72    9.91
   6   8 -20    5.94    5.71
  -6  -8 -21   33.84    9.69
   6   8  21   37.32   12.68
   6   8 -21   36.18   11.24
   6  -8 -22    6.00    7.00
  -6  -8 -22    1.49    4.94
   6   8  22    2.39    3.33
  -6  -8 -22    3.60    6.38
   6   8 -22   -1.59    5.09
   6  -8 -23   21.72   10.66
  -6  -8 -23   18.46    9.25
   6   8  23   18.94   10.22
  -6  -8 -23   11.46    4.16
   6   8 -23   13.08    5.45
   6   8 -23    5.40    5.98
   6  -8 -24    1.56    2.37
  -6  -8 -24   -4.58    6.42
   6   8  24   -4.74    7.24
  -6  -8 -24    6.44    7.49
   6   8 -24    8.83    8.40
   6   8 -24    0.78    3.71
   6   9   0   68.19   14.15
  -6   9   0   61.17   14.45
   6   9   0   67.32   14.15
  -6   9  -1   11.82    6.35
  -6   9   1   13.91    7.19
   6   9  -1   11.76    4.38
   6   9   1    8.89    5.71
   6   9  -1   14.61    6.89
   6   9   1   13.34    7.10
  -6   9  -2   -4.99    4.35
   6   9  -2    1.62    5.16
   6   9  -2    7.78    6.17
  -6   9   2   -4.51    6.43
   6   9   2    6.93    7.36
   6   9   2    1.16    4.72
   6   9  -3    7.36    6.66
  -6   9  -3   13.69    5.92
   6   9  -3    9.23    5.89
  -6   9   3    9.16    7.76
   6   9   3   14.64    7.19
   6   9   3    5.59    4.24
   6   9  -4   -0.56    2.01
  -6   9  -4    2.12    4.89
   6   9  -4    6.17    4.74
  -6   9   4    4.15    4.48
   6   9   4    1.29    1.34
  -6  -9  -4    5.08    2.57
   6   9   4   -0.72    3.56
  -6   9  -5  150.32   23.14
   6   9  -5  110.81   18.58
   6   9  -5  112.09   17.76
  -6   9   5  102.03   19.44
   6   9   5   98.29   15.82
  -6  -9  -5   81.39   16.67
   6   9   5  100.68   16.33
  -6   9  -6   28.53    9.35
   6   9  -6   31.36    9.89
   6   9   6    8.03    5.39
  -6   9   6   15.14    9.01
   6   9   6   26.42    8.50
  -6  -9  -6   15.51    6.12
   6   9  -6    9.70    6.25
  -6   9  -7   -2.49    4.15
   6   9  -7    2.83    4.70
  -6   9   7   -5.99    6.10
   6   9   7    4.24    5.60
   6   9   7   -2.43    4.41
  -6  -9  -7    2.40    5.11
   6   9  -7    7.98    6.41
  -6   9  -8   25.80   10.25
  -6   9   8   15.72    8.26
   6   9   8   17.60    8.22
  -6  -9  -8   11.18    6.32
   6   9   8   11.59    5.43
   6   9  -8   13.64    7.18
  -6   9  -9   -0.36    4.43
  -6   9   9    4.51    5.07
   6   9   9    4.87    2.08
  -6  -9  -9    7.66    3.45
   6   9  -9    1.82    4.11
   6   9   9    7.48    6.61
   6   9  10    5.25    5.21
  -6   9 -10   14.00    8.71
  -6   9  10   11.46    7.66
   6   9 -10    1.43    5.08
   6   9  10    4.68    3.40
  -6  -9 -10    6.97    5.03
  -6   9 -11    7.04    6.86
   6   9  11   -0.65    3.65
  -6   9  11    4.51    5.55
   6   9 -11    3.88    1.86
   6   9  11    1.33    4.50
  -6  -9 -11    1.86    4.24
  -6   9 -12   21.82    8.43
   6   9 -12   16.56    9.06
  -6   9  12   10.44    4.05
   6   9  12    1.65    2.14
  -6  -9 -12   11.21    8.57
   6   9  12    7.64    6.45
  -6   9 -13    0.12    3.94
   6   9 -13    8.98    4.91
  -6   9  13   10.36    6.12
   6   9  13   15.88    7.86
  -6  -9 -13   22.38   10.04
   6   9  13   -0.55    3.90
  -6   9 -14   16.19    7.75
   6   9 -14   13.35    4.05
   6   9  14   14.50    7.58
  -6   9  14   11.15    4.93
   6   9  14    0.84    2.64
  -6  -9 -14   12.60    5.31
  -6   9 -15   -4.04    6.04
   6   9 -15    0.60    4.19
  -6   9  15   -0.91    3.74
   6   9  15    1.68    5.79
  -6  -9 -15    5.73    8.15
   6   9  15    0.93    0.89
  -6   9 -16    4.15    4.52
   6   9 -16    2.45    3.21
   6   9  16    0.88    5.49
  -6   9  16   18.33   12.14
   6   9  16   -3.91    7.45
  -6  -9 -16    0.38    4.67
  -6   9 -17   -1.47    3.98
   6   9 -17    4.17    6.63
   6   9  17    2.84    3.71
   6   9  17    0.42    6.29
  -6  -9 -17    3.18    1.98
   6  -9 -17   -4.35    7.15
  -6   9 -18   -2.12    6.68
   6   9 -18    0.35    4.05
   6   9  18    2.26    2.12
  -6  -9 -18    2.37    7.29
   6   9  18    1.36    5.46
   6  -9 -18    0.22    4.25
   6   9 -19    0.60    5.24
  -6  -9 -19    5.25    6.47
   6   9  19   -4.19    6.57
  -6   9 -19    3.92    8.39
   6  -9 -19   -7.23    7.36
   6   9 -20   11.43    5.85
  -6  -9 -20    6.21    8.76
   6   9  20    0.44    6.17
   6  -9 -20    4.33    5.28
  -6  -9 -21   11.51   10.71
   6   9  21   15.10    9.38
   6   9 -21   10.89    4.16
   6  -9 -21   11.92    9.83
  -6  -9 -22   23.29   12.99
   6   9  22   23.66   12.03
   6   9 -22    2.69    2.78
   6  -9 -22    8.98    7.63
  -6  -9 -23   -4.26    4.22
   6   9  23    0.84    5.92
   6   9 -23   -0.65    0.62
   6   9 -23    4.41    5.07
   6  -9 -23    4.07    5.25
  -6  10   0   64.04   15.27
   6  10   0   70.43   14.92
   6  10   0   72.98   16.44
  -6  10  -1   -3.16    3.56
  -6  10   1   -1.87    3.71
   6  10  -1    1.79    1.47
   6  10   1    7.37    6.02
   6  10  -1   12.09    5.03
   6  10   1    5.45    4.79
  -6  10  -2   -2.82    1.97
   6  10  -2   -0.70    4.80
   6  10  -2   -1.62    5.18
  -6  10   2    2.49    5.38
   6  10   2    0.42    3.68
   6  10   2    3.65    4.26
   6  10  -3   28.45    9.51
  -6  10  -3   38.90   12.54
   6  10  -3   24.70    9.69
  -6  10   3   30.68   10.56
   6  10   3   28.15    9.05
   6  10   3   36.66   12.16
  -6  10  -4   81.21   17.81
   6  10  -4   95.20   17.75
   6  10  -4  138.16   20.52
  -6  10   4   91.54   18.23
   6  10   4  107.43   19.25
   6  10   4   76.19   14.92
   6  10   5   -1.61    4.59
  -6  10  -5    3.14    2.31
   6  10  -5    5.56    5.68
  -6  10   5    9.06    6.45
   6  10   5   -0.21    2.77
  -6 -10  -5    3.34    6.46
   6  10  -5   -0.27    3.32
  -6  10  -6   25.90   10.02
   6  10   6   11.87    5.29
   6  10  -6   11.24    5.09
  -6  10   6   20.77    8.02
   6  10   6    8.74    5.34
  -6 -10  -6   23.16    9.80
   6  10  -6   12.15    7.34
  -6  10  -7    4.19    6.11
   6  10   7    7.96    6.07
  -6  10   7   11.67    5.37
   6  10   7   15.05    7.18
  -6 -10  -7    1.34    2.65
   6  10  -7   13.26    5.66
  -6  10   8   73.40   17.20
   6  10   8   66.28   15.18
   6  10   8   55.91   13.50
  -6 -10  -8   97.67   18.63
   6  10  -8  101.17   19.13
  -6  10  -8   87.61   18.42
  -6  10  -9   14.48    9.21
  -6  10   9   -2.08    4.16
   6  10   9    0.53    1.84
  -6 -10  -9    3.07    8.04
   6  10  -9   -3.52    4.01
   6  10   9   -1.79    4.52
  -6  10 -10   42.55   13.13
  -6  10  10   17.51    7.79
   6  10  10   41.16   12.63
  -6 -10 -10   41.62   13.86
   6  10 -10   28.10    7.29
   6  10  10   34.08   10.46
   6  10  11   45.81   12.90
  -6  10 -11   46.36   13.80
  -6  10  11   42.29   13.32
   6  10 -11   57.50   14.91
   6  10  11   36.14   11.54
  -6 -10 -11   28.74    8.66
  -6  10 -12   51.80   14.24
  -6  10  12   41.55   11.11
   6  10 -12   26.41    9.18
  -6 -10 -12   54.61   14.96
   6  10  12   30.66   10.51
   6  10  12   75.72   17.30
  -6  10 -13   -1.80    3.29
   6  10 -13   -2.59    5.34
  -6  10  13    6.39    6.58
   6  10  13   -1.32    2.32
   6  10  13   -1.55    6.63
  -6 -10 -13    2.90    2.10
  -6  10 -14   56.52   15.70
   6  10  14   75.69   17.14
   6  10 -14   53.50   15.16
  -6  10  14   35.02   10.96
   6  10  14   49.90   15.16
  -6 -10 -14   60.41   15.44
   6  10 -15   15.79    8.08
  -6  10  15   17.66   10.02
   6  10  15    9.99    4.67
  -6 -10 -15   21.20    9.90
   6  10  15   13.64    6.34
  -6  10 -16    6.37    4.31
   6  10 -16    2.14    6.96
   6  10  16   -0.90    4.85
  -6  10  16    5.09    6.24
   6  10  16    6.20    5.03
  -6 -10 -16   12.39    4.96
  -6  10 -17    4.05    1.25
   6  10 -17    0.81    1.74
   6  10  17    8.15    8.21
  -6 -10 -17    9.53    7.07
   6  10  17   -5.36    4.39
   6  10  18   45.52   12.25
  -6  10 -18   61.05   16.55
   6  10 -18   41.83   12.98
   6  10  18   64.26   18.83
  -6 -10 -18   26.25   10.20
  -6  10 -19   16.15    7.88
   6  10 -19    8.36    6.55
   6  10  19    2.45    1.25
   6  10  19   15.54    9.11
  -6 -10 -19   -2.76    4.68
   6  10 -20   -0.07    2.61
   6  10  20   -4.60    0.96
  -6 -10 -20    0.95    5.25
   6  10  20   -0.80    4.78
   6  10  21   35.37   12.89
  -6 -10 -21   26.17   12.20
   6  10  21   30.46   10.97
   6  10 -21   12.10    3.19
  -6  11   0    9.99    6.58
   6  11   0    1.27    2.96
   6  11   0   -4.29    5.50
  -6  11  -1    8.25    6.66
  -6  11   1   13.79    7.25
   6  11  -1   15.78    9.39
   6  11   1    7.11    6.04
   6  11  -1   18.30    9.65
   6  11   1   10.97    8.12
  -6  11  -2   14.79    2.80
   6  11  -2   17.87    7.05
   6  11  -2   14.39    7.76
  -6  11   2    3.24    5.15
   6  11   2   21.46    9.15
   6  11   2   26.34   10.33
   6  11  -3   28.68   10.75
  -6  11  -3   26.45   10.56
   6  11  -3   19.33    7.35
  -6  11   3   32.86   12.28
   6  11   3   28.64    8.74
   6  11   3   38.74   11.39
   6  11  -4    2.96    3.50
  -6  11  -4   -3.26    5.06
   6  11  -4   -6.23    5.94
  -6  11   4    5.21    6.16
   6  11   4   -1.45    4.84
   6  11   4    0.54    2.66
  -6  11  -5    6.26    6.87
  -6  11   5    2.61    2.27
   6  11   5   -0.33    3.43
   6  11   5   -2.91    2.73
   6  11  -5    3.05    5.15
   6  11   6    3.04    3.02
  -6  11  -6    6.36    3.56
  -6  11   6    4.22    6.24
   6  11   6    1.87    2.82
  -6 -11  -6    4.42    9.96
   6  11  -6    3.70    2.66
  -6  11  -7    8.12    5.69
   6  11   7    0.18    2.90
  -6  11   7    3.13    5.70
   6  11   7    5.10    5.78
  -6 -11  -7    4.61    1.75
   6  11  -7    9.93    8.93
  -6  11  -8   -1.89    3.00
   6  11   8    7.16    5.98
  -6  11   8    7.42    5.73
   6  11   8    8.48    6.70
  -6 -11  -8    5.69    5.54
   6  11  -8    5.31    4.41
  -6  11  -9    2.61    5.27
  -6  11   9    6.78    7.20
   6  11   9   -4.12    4.91
   6  11   9    9.73    6.96
  -6 -11  -9    3.89    3.91
   6  11  -9   10.75    6.80
  -6  11 -10   -5.99    9.11
  -6  11  10    3.01    5.93
   6  11  10    3.51    5.48
  -6 -11 -10    3.52    5.15
   6  11 -10    9.50    8.27
   6  11  10    2.51    4.47
  -6  11 -11    1.15    4.58
  -6  11  11    1.19    4.42
   6  11  11   -1.70    3.85
   6  11 -11   -2.61    4.05
  -6 -11 -11    3.46    6.09
   6  11  11    2.21    4.99
  -6  11 -12   15.21    8.12
  -6  11  12    5.67    5.23
   6  11 -12   23.53    9.57
   6  11  12   17.95    9.08
  -6 -11 -12    8.47    8.80
   6  11  12    6.59    7.56
  -6  11 -13   -2.69    3.85
   6  11  13    6.81    4.31
   6  11 -13    9.88    6.57
  -6  11  13    7.38    5.60
  -6 -11 -13    0.22    2.84
  -6  11 -14    2.02    8.19
   6  11  14    3.12    1.35
   6  11 -14   -1.58    5.07
  -6  11  14   -5.19    5.16
   6  11  14   -7.86    7.77
  -6 -11 -14    5.28    5.49
  -6  11 -15   -2.58    4.28
   6  11 -15    3.50    4.95
  -6  11  15    5.29    0.68
   6  11  15   -0.89    2.90
  -6 -11 -15   -2.83    4.47
  -6  11 -16   11.43    7.75
   6  11 -16   -2.38    1.95
  -6  11  16   11.63    9.76
   6  11  16    2.07    3.34
  -6 -11 -16   11.14    8.40
   6  11  16    0.19    1.17
  -6  11 -17   18.47   10.59
   6  11 -17   12.73    6.79
   6  11  17    2.13    7.87
  -6 -11 -17   15.34    8.88
   6  11  17    7.70    3.92
  -6  11 -18   11.33    8.16
   6  11 -18    2.94    3.36
   6  11  18   12.67    1.61
   6  11  18   14.71    9.79
  -6 -11 -18   12.87    7.99
  -6  11 -19   11.94    9.00
   6  11 -19   -1.62    4.59
   6  11  19    5.64    2.45
   6  11  19    1.62    2.54
  -6 -11 -19    1.61    4.79
  -6  12   0    6.61    8.52
   6  12   0   19.68    9.62
   6  12   0    6.27    1.74
  -6  12  -1   15.01    9.42
  -6  12   1   31.75   13.65
   6  12  -1   21.61    8.31
   6  12  -1    9.67    2.73
   6  12   1   13.53    7.61
   6  12   1   17.45    8.36
   6  12  -2   17.49    5.93
  -6  12  -2    1.18    2.84
   6  12  -2   18.75    7.88
   6  12   2   21.57   11.49
   6  12   2   13.81    6.67
   6  12  -3    7.23    6.46
  -6  12  -3    2.98    2.83
   6  12  -3   28.14   10.67
  -6  12   3   20.80    9.52
   6  12   3   13.44    6.58
   6  12   3   24.85    9.99
   6  12  -4    6.04    4.89
  -6  12  -4   11.68    8.31
  -6  12   4    4.05    4.28
   6  12   4   -4.94    6.41
  -6  12  -5   -1.26    5.58
  -6  12   5    8.07    4.45
   6  12   5    1.46    1.96
   6  12   5   13.27    5.62
   6  12  -5    3.50    4.01
  -6  12  -6   -4.04    4.90
  -6  12   6   -1.65    4.75
   6  12   6    4.47    4.44
   6  12  -6    6.37    5.68
   6  12   6   -0.55    2.99
   6  12   7    5.65    6.67
  -6  12  -7   10.24    6.54
  -6  12   7    1.42    5.46
   6  12   7   -0.46    2.29
   6  12  -7   -2.94    4.82
  -6  12  -8    8.84    7.30
   6  12   8   -0.39    1.65
  -6  12   8   13.32    7.50
   6  12   8   -1.31    4.55
  -6 -12  -8    6.13    4.22
   6  12  -8    3.05    7.18
  -6  12  -9   19.84    9.67
   6  12   9   12.98    7.76
  -6  12   9   10.15    6.84
   6  12   9   -1.22    1.22
   6  12  -9   14.88    7.68
  -6  12 -10   -6.08    3.08
   6  12  10   -4.38    2.98
   6  12  10    4.14    4.94
  -6 -12 -10   -5.15    1.75
   6  12 -10   -1.74    4.59
  -6  12 -11   25.24   11.76
  -6  12  11   34.93   11.24
   6  12  11   25.94   10.66
   6  12 -11   52.49   15.95
  -6 -12 -11   15.70    4.06
   6  12  11   19.18    8.28
  -6  12 -12   -2.39    7.41
  -6  12  12   -4.20    4.45
   6  12 -12   -2.56    4.20
  -6 -12 -12   -2.05    3.35
   6  12  12   -3.66    3.76
   6  12  12    3.14    4.49
  -6  12 -13    4.28    6.11
  -6  12  13    1.95    2.43
   6  12 -13    1.20    3.35
   6  12  13   -2.36    6.08
  -6 -12 -13    4.08    5.58
   6  12  13   14.22    7.91
  -6  12 -14    1.56    2.93
   6  12 -14    7.76    2.84
  -6  12  14    5.31    1.73
   6  12  14    5.23    4.31
  -6 -12 -14    5.42    5.78
   6  12  14    8.05    5.50
  -6  12 -15   -3.09    2.94
   6  12  15   -4.36    5.51
   6  12 -15   -3.31    6.00
  -6  12  15    7.45    6.85
   6  12  15    6.00    5.95
  -6 -12 -15    4.43    5.54
  -6  12 -16   15.98    8.53
   6  12 -16   34.08   11.89
   6  12  16   10.06    7.56
   6  12  16    7.82    8.05
  -6 -12 -16   14.12    7.48
  -6  12 -17    2.31    6.36
   6  12 -17   -1.89    3.35
   6  12  17   -4.66    4.71
   6  12  17    1.15    4.91
  -6 -12 -17   -0.62    1.35
  -6  13   0   15.51    7.04
   6  13   0   19.32    6.43
   6  13   0   16.70    7.12
  -6  13  -1   -2.43    4.52
  -6  13   1    7.65    5.80
   6  13  -1    6.39    4.79
   6  13   1    0.13    3.05
   6  13   1    8.75    7.17
   6  13  -2   -1.77    3.68
  -6  13  -2    0.03    5.14
  -6  13   2    7.94    4.23
   6  13   2   -1.53    4.47
   6  13   2    7.08    6.63
   6  13  -3   -0.63    3.97
  -6  13  -3   -3.83    6.21
  -6  13   3    2.95    3.63
   6  13   3    1.44    4.25
   6  13   3   -4.47    4.69
  -6  13  -4    7.14    5.79
  -6  13   4   -3.12    5.23
   6  13   4   10.45    7.81
   6  13   4    4.51    5.46
   6  13  -4    3.70    4.11
  -6  13  -5    3.11    5.69
  -6  13   5   10.92    9.60
   6  13   5    2.79    5.11
   6  13   5   -0.84    2.05
   6  13  -5    7.53    6.00
  -6  13  -6    6.10    5.76
  -6  13   6   -1.08    5.99
   6  13   6   -7.74    4.61
   6  13  -6    1.33    0.56
   6  13   6   -2.70    6.24
  -6  13  -7   -7.25    9.73
  -6  13   7    6.07    5.46
   6  13   7    6.59    7.02
   6  13  -7    8.97    5.83
   6  13   7    5.18    6.82
   6  13   8    1.96    3.14
  -6  13  -8   -2.61    3.89
  -6  13   8    1.80    4.29
   6  13   8   -1.57    3.43
   6  13  -8   -3.63    3.70
  -6  13  -9    7.63    4.91
   6  13   9   -0.04    1.82
  -6  13   9    6.59    3.45
   6  13   9    8.53   10.30
   6  13  -9   -0.12    4.99
  -6  13 -10    1.51    5.64
   6  13  10    8.00    7.54
  -6  13  10   -4.86    6.56
   6  13  10    5.04    3.87
  -6 -13 -10    2.48    4.07
   6  13 -10   -0.10    4.17
  -6  13 -11    2.62    6.92
  -6  13  11    3.28    3.80
   6  13  11    9.41    5.49
   6  13  11   -2.16    4.20
  -6 -13 -11   13.76    8.95
   6  13 -11    4.35    5.97
  -6  13 -12   -0.53    2.12
  -6  13  12   -0.76    4.94
   6  13  12    6.55    5.51
   6  13 -12    2.56    4.66
   6  13  12    0.05    3.85
  -6 -13 -12   -0.48    2.56
  -6  13 -13    6.30    7.15
   6  13 -13    2.23    3.50
   6  13  13   -5.80    2.97
  -6 -13 -13   -2.54    5.52
   6  13  13    0.81    3.41
  -6  13 -14   27.78   11.00
   6  13 -14   46.56   14.63
  -6  13  14    8.21    5.52
   6  13  14   12.80    8.36
  -6 -13 -14   25.10   10.97
   6  13  14   26.81   12.06
  -6  14   0   16.78    9.15
   6  14   0   33.64   11.21
   6  14  -1    2.76    2.90
  -6  14  -1   -3.21    5.49
  -6  14   1    9.92    5.09
   6  14   1   -2.36    6.16
   6  14  -2   -1.58    5.56
  -6  14  -2   12.82    7.43
  -6  14   2    7.15    4.88
   6  14   2    0.31    6.62
   6  14   2    2.08    5.28
   6  14  -3    8.79    6.60
  -6  14  -3   11.53    6.27
  -6  14   3   17.49    5.87
   6  14   3   14.04    9.62
   6  14   3   20.65    8.72
  -6  14  -4   22.18   10.24
  -6  14   4   12.02    7.38
   6  14   4    9.34    7.89
   6  14   4   31.23   11.01
   6  14  -4   22.56    8.86
  -6  14  -5    1.92    9.76
  -6  14   5   -0.35    5.92
   6  14   5   -0.03    6.08
   6  14   5    1.60    0.30
   6  14  -5    0.12    1.93
  -6  14  -6   -4.62    5.08
  -6  14   6    3.24    5.98
   6  14   6   -3.03    6.75
   6  14   6    3.30    2.56
   6  14  -6    0.45    4.68
  -6  14  -7   15.08   10.14
  -6  14   7    9.30    8.62
   6  14   7   10.19    7.17
   6  14  -7    2.87    1.63
   6  14   7   24.98    9.60
  -6  14  -8   16.39    5.08
  -6  14   8   12.33    8.20
   6  14   8    8.52    6.75
   6  14  -8    5.78    3.68
   6  14   8   11.84    8.13
   6  14   9    3.44    5.14
  -6  14  -9    7.55    8.24
  -6  14   9   -7.94    6.69
   6  14   9   -0.46    3.48
   6  14  -9   -3.14    3.77
   7   0   0    1.49    3.01
  -7   0   0   -1.79    0.81
   7   0  -1    0.65    0.36
   7   0   1   -1.48    1.74
  -7   0  -1   -1.39    2.52
  -7   0  -2  484.47   35.65
   7   0  -2  530.41   28.25
   7   0  -3    0.48    0.49
   7   0   3    0.56    1.47
   7   0   4  316.81   17.91
  -7   0  -4  336.69   29.93
   7   0   5    1.17    2.22
  -7   0  -5    2.55    3.60
   7   0  -5   -0.63    0.35
   7   0  -6   89.52   13.25
   7   0   6   86.09    9.51
  -7   0  -6   92.02   15.06
  -7   0  -7    1.98    2.42
   7   0  -7    0.47    2.05
   7   0   7    1.21    2.10
   7   0  -8  274.61   24.29
  -7   0  -8  250.90   26.52
   7   0   8  333.99   20.60
   7   0   9    0.10    2.60
  -7   0  -9    1.74    1.18
   7   0  -9   -1.25    3.96
   7   0 -10   42.59   10.82
  -7   0 -10   44.00   11.27
  -7   0 -11   -2.31    4.85
   7   0 -11   -4.54    5.20
   7   0 -12   82.82   15.12
  -7   0 -12   75.90   14.74
  -7   0 -13    0.67    1.27
   7   0 -13    0.50    3.59
   7   0 -14  450.28   37.07
  -7   0 -14  616.35   45.31
   7   0 -15   -3.27    2.91
  -7   0 -15    1.60    5.80
   7   0 -16  246.75   28.75
  -7   0 -16  457.40   40.35
   7   0 -17    0.56    2.56
  -7   0 -17    3.62    5.71
   7   0 -18   18.69   12.88
  -7   0 -18   54.36   14.38
   7   0 -19    2.19    5.22
  -7   0 -19    4.64    6.91
   7   0 -20   52.40   14.26
  -7   0 -20   35.68   10.52
   7   0 -20   37.59   13.47
   7   0 -21    2.02    3.60
  -7   0 -21   -4.69    6.12
   7   0 -21   -3.13    5.73
   7   0 -22   42.26   12.52
  -7   0 -22   43.49   13.14
   7   0 -22   17.95   11.81
   7   0 -23   -3.63    3.51
  -7   0 -23    0.98    2.63
   7   0 -24   52.13   13.20
  -7   0 -24   82.82   17.43
   7   0 -24   42.59   11.09
   7   0 -25    4.66    6.01
  -7   0 -25   -0.29    2.76
   7   0 -25   -8.84    8.80
   7   0 -26   25.99   11.34
  -7   0 -26   32.67   12.06
   7   0 -26   31.62   10.34
   7   0 -27   -8.12    7.78
  -7   0 -27   -1.22    2.62
   7   0 -27    0.75    2.13
  -7   1   0    2.15    2.10
  -7  -1   0   -4.06    5.16
   7   1   0    0.60    1.20
   7  -1   0    0.65    1.11
   7  -1   1  155.66   10.75
  -7   1  -1  197.37   22.04
  -7  -1  -1  154.41   20.06
   7   1  -1  157.64   15.92
   7   1   1  174.46   16.07
   7   1   2  318.72   21.50
   7  -1  -2  359.05   20.67
  -7  -1  -2  242.10   25.60
  -7   1  -2  275.99   26.50
   7   1  -2  403.65   26.00
   7   1   3  120.03   13.27
   7  -1  -3  119.56   12.72
   7   1   3   87.09    7.86
  -7  -1  -3   73.01   13.33
  -7   1  -3  112.69   17.40
   7   1  -3   83.10   12.72
  -7   1  -4  101.00   15.08
   7  -1  -4   61.96    9.60
   7   1   4   73.03   10.70
   7   1  -4   86.95   12.98
   7   1  -5    0.42    2.08
  -7  -1  -5    1.72    4.12
  -7   1  -5   -0.51    1.94
   7   1   5    0.26    1.74
   7  -1  -5   -1.78    2.23
   7  -1  -6  224.42   20.47
  -7  -1  -6  200.82   23.69
  -7   1  -6  261.94   25.61
   7   1   6  206.10   17.16
   7   1  -7    2.20    3.86
   7   1   7    1.10    1.32
  -7  -1  -7    2.81    2.85
  -7   1  -7    8.65    5.18
   7  -1  -7   11.57    5.04
   7  -1  -8  219.12   22.25
   7   1  -8  176.61   20.01
  -7  -1  -8  219.92   24.48
  -7   1  -8  207.23   23.38
   7   1   8  218.59   19.04
   7   1   9  166.63   17.40
   7   1  -9  115.97   16.73
  -7   1  -9  150.25   20.26
   7   1  10   15.31    5.73
   7  -1 -10   13.84    6.08
  -7  -1 -10   15.58    7.04
  -7   1 -10   15.99    7.95
   7   1 -10    7.79    2.59
   7  -1 -11  169.46   20.97
   7   1 -11  162.06   20.30
   7   1  11  172.75   18.35
  -7  -1 -11  187.77   23.69
  -7   1 -11  168.71   22.20
   7   1 -12  361.08   31.25
  -7  -1 -12  292.00   30.44
  -7   1 -12  282.49   29.63
   7  -1 -13   -2.41    2.65
  -7  -1 -13   10.16    5.91
  -7   1 -13    7.25    5.69
   7   1 -13    4.35    4.08
   7   1 -14   68.31   14.52
  -7   1 -14   64.14   15.18
   7  -1 -14   27.69   10.70
  -7  -1 -14   52.44   12.86
   7  -1 -15    3.86    4.87
  -7  -1 -15    0.21    0.27
  -7   1 -15   -2.16    5.53
   7   1 -15   -0.45    2.73
   7  -1 -16    0.71    2.46
  -7  -1 -16   -1.17    5.01
  -7   1 -16   -0.96    2.09
   7   1 -16   -1.93    2.08
   7  -1 -17   -0.51    3.99
  -7  -1 -17   -0.82    2.97
   7   1 -17    1.66    6.32
  -7   1 -17   -3.36    4.30
   7  -1 -18    8.81    6.96
   7   1 -18   -1.53    4.71
  -7  -1 -18    6.98    7.06
  -7   1 -18   -1.12    3.34
   7  -1 -19   -0.02    1.73
   7   1 -19    7.49    6.49
  -7  -1 -19    9.72    8.71
  -7   1 -19   -8.44    8.55
   7  -1 -19    2.92    4.57
   7  -1 -20   -2.47    3.56
   7   1 -20    1.79    4.50
  -7  -1 -20    6.39    3.53
  -7   1 -20   -1.93    4.74
   7  -1 -20   -1.64    3.68
   7  -1 -21   -3.02    3.21
   7   1 -21   -0.93    3.47
  -7  -1 -21   -2.50    3.12
  -7   1 -21   -0.05    4.69
   7  -1 -21   -2.87    0.96
   7   1 -21   -7.89    8.23
   7  -1 -22    2.46    3.22
   7   1 -22    0.24    4.08
  -7  -1 -22   -0.02    4.49
  -7   1 -22    2.19    7.38
   7  -1 -22    4.78    8.15
   7   1 -22   -5.69    7.67
   7  -1 -23    6.43    5.39
   7   1 -23   -2.67    1.33
  -7  -1 -23    0.15    2.23
  -7   1 -23    4.50    7.90
   7  -1 -23    3.12    4.83
   7   1 -23   -3.42    5.69
   7  -1 -24   -1.12    4.50
   7   1 -24    2.08    6.87
  -7  -1 -24    4.56    6.42
  -7   1 -24    5.88    5.01
   7  -1 -24    2.45    4.57
   7   1 -24    3.01    5.75
   7  -1 -25   -0.75    0.82
   7   1 -25    0.10    1.87
  -7  -1 -25   -2.53    4.81
  -7   1 -25   -1.75    3.77
   7  -1 -25    4.29    3.85
   7   1 -25   -2.06    2.78
   7  -1 -26   -0.30    4.05
   7   1 -26   -5.06    5.35
  -7  -1 -26    0.24    2.57
  -7   1 -26   -0.38    3.52
   7  -1 -26    2.34    4.13
   7   1 -26   -5.58    6.11
   7  -1 -27    0.30    2.50
   7   1 -27   -2.43    4.87
  -7  -1 -27   -1.82    3.89
  -7   1 -27   -0.50    4.86
   7  -1 -27    6.56    8.89
   7   1 -27   -3.80    3.98
  -7  -2   0   -3.04    4.97
   7   2   0    0.46    1.27
  -7   2  -1  193.73   21.46
   7   2  -1  168.45   17.85
   7  -2  -2   45.00    6.61
   7   2   2   47.82    9.39
  -7  -2  -2   74.22   14.01
  -7   2  -2   73.22   12.84
   7   2  -2   62.78   10.64
   7  -2  -3   57.21    8.00
   7   2   3   38.27    8.12
  -7   2  -3   51.77   11.42
  -7  -2  -3   41.06   11.12
   7   2  -3   37.75    8.37
   7   2  -4    4.20    2.90
   7  -2  -4    3.18    1.71
  -7  -2  -4    5.37    1.52
  -7   2  -4    4.66    4.77
   7   2   4    3.16    1.84
   7   2   4    2.08    1.83
   7  -2  -5  832.21   35.95
   7   2   5  877.97   34.70
  -7  -2  -5  763.90   47.05
  -7   2  -5  623.62   38.79
   7   2   5  659.92   32.99
   7   2  -5  951.39   46.23
   7   2   6   18.33    4.99
   7   2  -6   26.10    7.38
   7  -2  -6   21.00    6.13
  -7  -2  -6   28.17    7.46
  -7   2  -6    7.06    3.36
   7   2   6   17.68    4.64
   7  -2  -7  130.31   15.40
  -7  -2  -7  119.55   17.61
  -7   2  -7  131.38   18.76
   7   2  -7  158.58   19.48
   7   2   7  121.14   14.41
   7   2  -8   11.79    5.07
   7  -2  -8   25.09    7.30
  -7  -2  -8   28.16    8.56
  -7   2  -8   23.29    8.35
   7   2   8   25.67    7.29
   7   2   9    3.14    2.56
   7  -2  -9    0.68    2.09
  -7  -2  -9    8.22    5.49
  -7   2  -9    3.88    1.74
   7  -2 -10  227.70   23.35
   7   2  10  162.87   18.88
   7   2 -10  187.82   22.00
  -7  -2 -10  224.14   26.14
  -7   2 -10  218.95   24.43
   7  -2 -11   59.85   12.17
   7   2  11   70.98   12.50
  -7  -2 -11   71.91   14.38
  -7   2 -11   76.16   15.20
   7   2 -11   47.87   11.65
   7  -2 -12   11.52    3.35
  -7  -2 -12   17.45    7.48
  -7   2 -12   20.06    9.39
   7   2 -12   13.02    7.03
   7  -2 -13  152.62   21.20
   7   2 -13  122.66   18.44
  -7  -2 -13   88.98   17.39
  -7   2 -13  106.86   19.32
   7  -2 -14    4.43    1.70
  -7  -2 -14   -1.46    3.55
  -7   2 -14    6.25    2.90
   7   2 -14    3.14    2.28
   7  -2 -15   34.14    7.99
  -7  -2 -15   37.09   10.79
  -7   2 -15   35.04   10.37
   7   2 -15   30.86   11.03
   7  -2 -16   69.11   16.05
   7   2 -16   80.06   16.52
  -7  -2 -16  119.68   20.23
  -7   2 -16   57.25   14.38
   7  -2 -17   39.93   11.73
  -7  -2 -17   18.66    7.79
  -7   2 -17   19.42    8.93
   7   2 -17   30.33    9.39
   7  -2 -17   10.22    8.39
   7  -2 -18    2.39    5.66
  -7  -2 -18   -0.84    2.03
  -7   2 -18    3.64    4.02
   7   2 -18    1.72    3.71
   7  -2 -18   -3.92    6.49
   7  -2 -19  155.52   23.79
   7   2 -19  136.46   22.06
  -7  -2 -19  119.86   22.10
  -7   2 -19  113.58   20.23
   7  -2 -19  143.24   23.28
   7  -2 -20   86.45   17.87
  -7  -2 -20   92.43   19.20
   7   2 -20   76.54   16.30
  -7   2 -20   64.63   15.54
   7  -2 -20   92.51   16.99
   7  -2 -21   -0.41    5.37
   7   2 -21   -0.99    3.17
  -7  -2 -21    0.97    1.60
  -7   2 -21    7.99    6.94
   7  -2 -21    5.17    5.98
   7  -2 -22   -0.74    3.39
   7   2 -22    0.42    6.11
  -7  -2 -22    0.32    0.54
  -7   2 -22   -0.35    5.50
   7  -2 -22    0.21    2.39
   7   2 -22   -5.41    7.99
   7  -2 -23   66.96   15.63
   7   2 -23   49.08   13.76
  -7  -2 -23   59.53   16.02
  -7   2 -23   66.57   15.70
   7  -2 -23   55.67   13.35
   7   2 -23   20.72   11.45
   7  -2 -24    6.75    6.94
   7   2 -24    7.48    8.54
  -7  -2 -24    5.00    7.91
  -7   2 -24   -2.95    4.70
   7  -2 -24   -0.61    2.45
   7   2 -24   -0.31    2.67
   7  -2 -25    3.51    3.85
   7   2 -25    2.16    1.19
  -7  -2 -25    2.03    2.25
  -7   2 -25    3.48    7.89
   7  -2 -25    1.03    2.86
   7   2 -25    3.11    4.37
   7  -2 -26    7.88    6.01
   7   2 -26    6.76   10.14
  -7  -2 -26   -0.46    5.78
  -7   2 -26    5.66    7.67
   7  -2 -26    0.18    6.38
   7   2 -26    4.49    3.34
   7  -2 -27   13.75    8.41
   7   2 -27    0.43    4.73
  -7  -2 -27   -1.71    4.04
  -7   2 -27   20.96   12.31
   7  -2 -27   10.50    7.33
   7   2 -27    4.31    2.81
  -7  -3   0    1.76    3.75
   7   3   0    0.44    2.18
   7   3  -1   35.50    8.49
   7   3   1   47.37    9.61
  -7   3  -1   26.60    7.20
  -7  -3  -1   31.69    9.52
   7   3   2   10.74    3.06
  -7  -3  -2   14.62    7.10
  -7   3  -2    6.58    4.97
   7   3  -2   11.36    4.86
  -7   3  -3   -4.26    2.81
   7   3   3   16.14    4.65
  -7  -3  -3   14.75    5.69
  -7   3  -3    8.86    5.32
   7   3  -3    9.72    5.47
  -7   3  -4   28.69    8.64
   7   3  -4   23.59    6.83
  -7  -3  -4   28.89    8.36
  -7   3  -4   28.60    8.53
   7   3   4   28.51    6.26
   7   3   4   23.22    6.85
  -7  -3  -5  431.83   35.97
  -7   3  -5  516.11   34.88
   7   3   5  423.44   27.93
   7   3  -5  460.87   32.58
   7  -3  -5  422.24   24.72
  -7   3  -5  554.04   35.18
   7   3   6    0.07    2.22
   7  -3  -6   -1.53    1.73
   7   3  -6    2.68    2.69
  -7  -3  -6   -2.48    6.16
  -7   3  -6    4.62    3.70
   7   3   6   -1.16    2.11
   7   3  -7   48.93   10.45
  -7   3  -7   58.09   12.41
  -7  -3  -7   53.53   12.29
   7   3   7   47.67    9.41
   7  -3  -7   83.64   12.56
   7   3   8   35.88    8.01
  -7  -3  -8   50.94   11.86
   7   3  -8   57.23   12.98
  -7   3  -8   28.43    7.77
   7   3   8   48.02   10.39
   7  -3  -8   52.30   10.67
  -7  -3  -9  102.49   17.84
  -7   3  -9   59.86   13.14
   7   3  -9   77.80   13.71
   7   3   9   96.22   14.75
   7  -3  -9   79.93   13.19
   7   3 -10   -0.34    2.08
   7  -3 -10    6.25    5.61
  -7  -3 -10   -1.23    2.56
  -7   3 -10    0.17    2.43
   7   3  10    1.77    3.05
   7   3  11   99.89   16.66
   7   3 -11  113.70   17.59
  -7  -3 -11  155.76   22.43
  -7   3 -11  169.63   21.57
   7  -3 -11  141.37   18.64
   7   3  12   71.84   13.02
  -7  -3 -12   77.39   15.11
  -7   3 -12   77.12   15.87
   7  -3 -12   78.07   14.22
   7   3 -12   62.95   13.17
   7  -3 -13    6.16    4.30
  -7  -3 -13   10.45    6.03
  -7   3 -13   12.08    5.63
   7   3 -13   15.28    6.92
   7  -3 -14   -0.89    1.81
  -7   3 -14   -0.43    0.24
   7  -3 -15   13.09    5.91
  -7  -3 -15   23.31    9.34
  -7   3 -15   23.75    9.37
   7   3 -15   24.68    8.67
   7  -3 -16    5.74    5.40
  -7  -3 -16   -0.17    0.65
  -7   3 -16    1.38    3.69
   7   3 -16   -0.41    3.22
   7  -3 -16    1.07    5.34
   7  -3 -17   13.17    7.86
  -7  -3 -17   13.79    6.86
  -7   3 -17    4.80    2.97
  -7  -3 -17   -5.33    4.12
   7   3 -17   10.33    7.23
   7  -3 -17    9.24    8.10
   7  -3 -18    1.13    4.10
  -7  -3 -18    9.79    5.30
  -7   3 -18    2.03    1.52
   7   3 -18    0.09    4.07
   7  -3 -18    0.71    0.64
   7  -3 -19    6.69    6.30
  -7  -3 -19    3.32    4.71
  -7   3 -19   11.76    6.40
   7   3 -19    5.07    5.38
   7  -3 -19    1.56    5.85
   7  -3 -20   -1.31    3.85
  -7  -3 -20    5.47    6.95
  -7   3 -20   -1.09    4.78
   7   3 -20   -0.35    3.11
   7  -3 -20    3.77    3.25
   7  -3 -21   -4.76    4.74
  -7  -3 -21    4.22    7.01
  -7   3 -21    6.08    4.29
   7   3 -21   -1.47    4.85
   7  -3 -21    6.26    6.97
   7  -3 -22    0.59    4.09
  -7  -3 -22    0.28    1.97
   7   3 -22   -0.67    3.32
  -7   3 -22    3.00    3.82
   7  -3 -22   -2.87    4.83
   7  -3 -23    1.54    0.64
   7   3 -23    3.04    4.34
  -7  -3 -23   10.33    8.35
  -7   3 -23    6.67    8.22
   7  -3 -23    1.23    0.49
   7   3 -23    1.87    3.59
   7  -3 -24    5.30    1.38
   7   3 -24    6.04    7.95
  -7  -3 -24   18.45   10.13
  -7   3 -24   11.31    8.83
   7  -3 -24    2.00    2.70
   7   3 -24    3.17    6.83
   7  -3 -25    3.40    3.52
   7   3 -25    0.30    1.89
  -7  -3 -25   -0.85    2.26
  -7   3 -25    5.01    4.95
   7  -3 -25   -2.15    3.14
   7   3 -25    2.82    5.46
   7  -3 -26    4.15    4.34
   7   3 -26   -6.08    7.81
  -7  -3 -26   -0.05    3.17
  -7   3 -26    2.69    2.80
   7   3 -26    2.69    5.48
   7   4   0    0.61    0.82
   7   4  -1  104.66   15.05
   7   4   1   98.62   15.81
  -7  -4  -1  111.17   17.44
   7   4  -2  353.29   27.96
   7   4   2  368.82   28.71
  -7   4  -2  261.96   23.77
  -7  -4  -2  153.66   21.63
  -7   4  -2  520.86   31.44
  -7   4  -3    4.88    3.72
  -7  -4  -3    5.19    1.43
  -7   4  -3    2.14    2.34
   7   4   3   -0.96    3.47
   7   4   4  440.96   25.87
  -7  -4  -4  359.51   33.67
  -7   4  -4  281.09   25.09
   7   4   4  325.94   25.75
   7   4  -4  365.78   28.76
  -7   4  -4  233.27   23.24
   7   4   5   88.96   12.88
  -7  -4  -5  104.66   18.40
  -7   4  -5   65.09   11.88
   7   4   5   77.55   12.58
   7   4  -5  113.06   17.24
  -7   4  -5   88.37   14.55
  -7   4  -6   37.36    9.85
   7   4   6   36.15    8.49
  -7  -4  -6   22.86    8.15
  -7   4  -6   36.23    9.26
   7   4   6   24.92    6.48
   7   4  -6   46.53   11.79
  -7   4  -7   47.38   11.40
   7  -4  -7   18.98    6.02
   7   4  -7   27.75    8.32
   7   4   7   24.90    7.12
  -7  -4  -7   19.54    7.09
  -7   4  -7   31.19    8.78
   7   4   7   37.23    9.24
   7   4   8   87.40   14.00
  -7  -4  -8  135.31   19.55
  -7   4  -8   79.65   14.40
   7   4  -8   94.30   15.93
   7   4   8  109.23   16.23
   7  -4  -8  116.61   15.94
  -7   4  -8   91.35   15.95
   7   4   9   86.09   14.16
  -7  -4  -9   80.86   15.77
  -7   4  -9  118.99   17.97
   7   4  -9  102.99   17.69
   7  -4  -9  112.31   16.87
   7   4   9   99.75   15.31
   7   4 -10   -0.98    3.05
   7  -4 -10    0.88    2.78
   7   4  10    0.37    2.90
  -7  -4 -10    2.91    3.49
  -7   4 -10   -1.70    4.33
   7   4  10   -0.71    2.79
   7   4 -11    2.92    5.33
   7   4  11    0.51    0.39
   7  -4 -11    0.05    1.78
  -7  -4 -11   -3.55    5.76
  -7   4 -11   -4.06    5.43
   7   4  11   -1.83    2.83
   7   4 -12   -3.86    4.23
   7  -4 -12    8.93    6.64
  -7  -4 -12    8.77    6.58
  -7   4 -12    0.06    1.66
   7   4  12    4.98    4.66
   7   4  12    2.45    2.71
   7   4 -13  110.82   18.65
  -7  -4 -13  125.84   20.56
   7   4  13   83.75   15.53
  -7   4 -13   85.70   17.27
   7  -4 -13   96.72   18.29
   7  -4 -14    8.07    6.67
  -7  -4 -14    1.62    3.38
  -7   4 -14    7.33    5.95
   7  -4 -14   -1.00    3.98
   7   4 -14    3.43    5.07
   7  -4 -15   16.21    7.64
  -7  -4 -15   14.69    9.10
  -7   4 -15    1.12    4.33
   7  -4 -15    0.62    2.49
   7   4 -15    8.15    4.32
   7  -4 -16   54.52   13.75
  -7  -4 -16   66.78   15.56
  -7   4 -16   34.49   11.12
   7   4 -16   28.71   10.64
   7  -4 -16   68.68   13.38
   7  -4 -17   48.37   12.44
  -7  -4 -17   31.10   10.34
  -7   4 -17   23.37   10.38
  -7  -4 -17   25.63   10.23
   7   4 -17   23.18    8.79
   7  -4 -17   30.14    9.72
   7  -4 -18   23.43   10.94
  -7  -4 -18   42.81   12.24
  -7   4 -18   21.71   10.08
  -7  -4 -18   33.09   11.49
   7   4 -18   19.69    8.07
   7  -4 -19   34.57   12.27
  -7  -4 -19   20.17    9.49
  -7   4 -19    2.16    1.58
  -7  -4 -19   11.49    7.20
   7   4 -19   36.39   11.83
   7  -4 -20   49.64   14.53
  -7  -4 -20   78.19   18.17
  -7   4 -20   43.44   13.58
   7   4 -20   45.68   14.18
   7  -4 -21    4.19    4.52
  -7  -4 -21    9.00    4.70
  -7   4 -21    7.28    6.07
   7   4 -21    0.10    5.22
   7  -4 -22    5.27    7.41
  -7  -4 -22    3.44    3.46
  -7   4 -22   11.68    7.08
   7   4 -22    9.66    8.70
   7  -4 -23    1.18    6.04
  -7  -4 -23    8.89    5.52
   7   4 -23    1.33    2.94
  -7   4 -23   11.10    8.92
   7   4 -23    2.30    5.48
   7  -4 -24   -3.39    2.46
  -7  -4 -24   -3.26    8.66
   7   4 -24   12.64    7.80
  -7   4 -24    8.22    8.98
   7   4 -24   -4.75    8.96
   7  -4 -25   10.50    6.39
   7   4 -25   15.27   10.58
  -7  -4 -25   -2.57    3.52
  -7   4 -25   -4.38    6.18
   7   4 -25   10.67    7.81
   7  -4 -26   16.12    7.58
   7   4 -26   -6.28    5.15
  -7  -4 -26   10.52    8.63
  -7   4 -26   -2.11    2.79
   7   4 -26    8.91    7.25
  -7   5   0   -4.54    2.49
   7   5   0    0.51    2.77
   7   5  -1   -1.92    4.35
  -7   5  -1    7.23    6.14
   7   5   1    7.88    4.45
  -7  -5  -1    2.88    4.31
  -7   5  -2    6.03    2.49
  -7  -5  -2    6.76    4.78
   7   5   2    1.89    0.60
   7   5  -2    4.75    2.01
  -7   5  -3   44.42    9.71
  -7  -5  -3   49.24   11.63
   7   5   3   35.02    8.73
   7   5  -3   49.49   10.75
  -7   5  -4    7.44    4.25
   7   5   4   10.77    5.45
  -7  -5  -4   12.48    7.52
   7   5  -4   15.81    4.01
   7   5   4   11.55    5.03
   7   5   5    7.07    3.85
  -7   5  -5    9.10    4.80
   7   5   5    0.88    2.45
  -7  -5  -5   16.14    6.21
   7   5  -5    6.50    3.36
   7   5   6   57.55   11.85
  -7  -5  -6   59.85   14.86
   7   5   6   62.36   11.99
   7   5  -6   62.39   12.94
  -7   5  -6   74.74   13.81
   7   5   7   75.84   13.47
  -7  -5  -7   80.96   16.16
   7   5  -7  112.23   17.49
   7   5   7   77.66   12.96
  -7   5  -7   59.79   13.55
  -7   5  -8   -0.76    1.91
   7   5  -8   -2.18    4.26
  -7  -5  -8    3.06    5.81
   7   5   8   -3.24    4.57
   7   5   8   -3.22    3.53
   7   5   9    6.38    5.82
  -7   5  -9   -2.82    5.06
   7   5  -9    1.96    5.34
  -7  -5  -9   -0.49    0.88
   7   5   9   -0.06    3.86
  -7   5  -9   -5.14    3.52
  -7   5 -10    7.73    4.98
   7  -5 -10   13.07    6.23
   7   5 -10    2.15    2.69
   7   5  10    6.56    4.77
  -7  -5 -10    5.54    5.56
   7   5  10   -0.76    2.46
  -7   5 -10    9.58    8.32
   7  -5 -11    9.08    4.43
   7   5 -11   28.78    8.29
  -7  -5 -11    9.75    6.78
   7   5  11   27.55    9.50
  -7   5 -11    9.89    6.66
   7   5  11   24.02    7.19
  -7   5 -11   25.37    9.22
   7  -5 -12   18.13    7.00
   7   5 -12   21.00    8.67
   7   5  12   19.29    9.12
  -7  -5 -12   17.66    7.05
  -7   5 -12   32.98   11.22
   7   5  12   20.38    7.81
   7   5  13    2.64    5.70
   7   5 -13    2.75    2.86
   7  -5 -13   -0.04    3.93
  -7  -5 -13    6.28    7.81
  -7   5 -13   -1.78    4.34
   7   5  13   -0.78    2.74
   7   5 -14    3.94    0.49
   7  -5 -14    7.81    5.48
  -7  -5 -14    2.25    2.49
  -7   5 -14    0.22    1.44
   7   5  14    3.88    3.01
   7   5  14    3.98    4.51
   7   5 -15   16.74    6.05
   7  -5 -15   14.79    7.73
  -7  -5 -15    4.23    1.72
  -7   5 -15   14.82    7.64
   7   5  15    8.81    6.55
   7  -5 -16    8.49    6.69
  -7  -5 -16   15.85    7.41
  -7   5 -16   12.66    5.93
   7   5  16   19.87    9.52
   7   5 -16   24.63   10.39
   7  -5 -17    2.91    2.98
  -7   5 -17    7.46    2.25
   7   5  17    3.55    2.17
   7   5 -17    0.76    2.80
   7  -5 -18    4.61    2.38
  -7  -5 -18   -4.47    5.27
  -7   5 -18    4.93    1.00
   7   5  18    3.56    4.55
   7   5 -18   -2.73    6.32
   7  -5 -19    1.54    5.44
  -7  -5 -19    2.20    2.49
  -7   5 -19    6.45    5.44
   7   5  19    3.95    5.71
  -7  -5 -19   -2.34    3.90
   7   5 -19   -1.26    1.20
   7  -5 -20   -1.10    2.98
  -7  -5 -20    5.65    5.35
  -7   5 -20    6.75    5.01
   7   5  20    1.53    1.68
  -7  -5 -20    4.63    3.59
   7   5 -20    9.09    9.11
   7  -5 -21   -1.00    0.91
  -7  -5 -21   -1.56    2.60
  -7   5 -21   -1.14    4.11
   7   5  21   -0.89    1.06
  -7  -5 -21    0.58    5.20
   7   5 -21    9.26    7.43
   7  -5 -22   13.88    4.72
  -7  -5 -22   23.14   10.91
  -7   5 -22   10.91    8.12
   7   5  22   20.61    8.61
   7   5 -22    6.66    4.60
  -7  -5 -22   24.74   12.94
   7  -5 -23    2.56    2.66
  -7  -5 -23    5.70    3.41
  -7   5 -23   10.57    7.76
   7   5  23   -0.19    7.11
   7   5 -23    1.51    7.90
   7  -5 -24   28.08   10.97
  -7  -5 -24    8.71    6.17
  -7   5 -24    7.63    7.95
   7   5  24   19.01    9.36
   7   5 -24   12.74   10.62
   7   5 -24    7.33    6.17
   7  -5 -25   10.10    6.49
  -7  -5 -25   -1.24    5.88
   7   5 -25    4.24    1.73
  -7   5 -25   -3.19    5.77
   7   5  25    3.55    3.89
   7   5 -25   -4.22    8.66
  -7   6   0   -2.29    3.42
   7   6   0   -3.56    3.66
  -7   6   1  307.94   28.41
   7   6  -1  294.79   28.10
   7   6   1  257.86   26.60
   7   6  -2  178.57   21.56
   7   6   2  186.67   22.00
  -7  -6  -2  158.11   22.75
  -7   6  -2  128.72   18.51
  -7   6  -3    0.12    1.89
  -7  -6  -3    5.91    6.42
   7   6   3    3.20    6.17
   7   6  -3   -0.22    3.49
  -7   6  -4    1.80    2.48
   7   6   4   -0.60    2.39
  -7  -6  -4    1.00    3.36
   7   6  -4    0.91    2.50
   7   6   4    3.83    3.16
   7   6   5  144.58   17.82
  -7  -6  -5  205.35   26.95
   7   6   5  172.49   20.99
   7   6  -5  191.64   22.94
  -7   6  -5  139.73   20.04
  -7   6  -6    0.74    0.89
   7   6   6    2.91    4.77
   7   6   6    1.15    2.29
  -7  -6  -6    3.78    7.49
   7   6  -6   -1.63    0.74
  -7   6  -7   40.08   10.81
   7   6   7   20.51    6.39
   7   6  -7   58.75   13.03
  -7  -6  -7   48.01   14.76
   7   6   7   57.28   12.38
  -7   6  -8   12.41    6.65
   7   6  -8    9.16    5.87
  -7  -6  -8    9.90    4.98
   7   6   8    5.47    3.00
   7   6   8    4.41    4.63
  -7   6  -9   45.06   13.38
   7   6  -9   34.81   10.07
  -7  -6  -9   16.08    7.88
   7   6   9   49.26   10.78
   7   6   9   50.78   12.20
   7   6  10  118.54   17.94
  -7  -6 -10   55.37   15.47
   7   6 -10  101.61   18.84
  -7   6 -10  129.56   23.47
   7   6  10   63.16   14.41
  -7   6 -11    8.03    5.61
   7   6 -11    4.26    2.56
   7   6  11   13.82    5.64
  -7  -6 -11   14.17    7.03
   7   6  11    7.66    5.11
   7   6  12  183.91   23.28
   7   6  12  233.78   27.59
  -7  -6 -12  158.23   22.95
   7   6 -12  161.76   24.48
  -7   6 -12  241.62   30.07
   7   6 -13   43.12   11.63
   7   6  13   49.52   14.28
  -7  -6 -13   63.82   15.61
   7   6  13   32.02   11.18
  -7   6 -13   72.99   17.75
   7  -6 -14    3.90    4.86
   7   6 -14   -4.71    4.14
  -7  -6 -14   -0.44    5.77
   7   6  14   -1.42    0.55
   7   6  14   -3.42    6.01
   7   6  15    5.31    4.54
   7   6 -15   11.95    7.27
   7  -6 -15    9.81    4.88
  -7  -6 -15   12.98    6.68
   7   6  15    2.99    4.31
   7   6 -16   32.89   10.44
   7  -6 -16   33.19    9.28
  -7  -6 -16   36.05   11.11
   7   6  16   43.35   12.14
   7  -6 -17    5.94    4.00
  -7  -6 -17   11.09    6.72
   7   6  17   20.47    8.93
   7   6 -17    5.86    6.07
   7  -6 -18    6.19    6.15
  -7  -6 -18   15.37    8.44
   7   6  18    5.46    4.67
   7   6 -18    1.59    3.61
   7  -6 -19    8.21    5.25
  -7  -6 -19    3.38    3.76
   7   6  19   10.81    5.80
   7   6 -19   14.84    8.58
   7  -6 -20   35.47   11.89
  -7  -6 -20   35.54   11.30
   7   6  20   17.49    8.79
   7   6 -20   21.80    9.24
   7  -6 -21    4.83    4.78
  -7  -6 -21   -4.39    5.60
   7   6  21    2.97    4.98
   7   6 -21   -0.96    5.19
   7  -6 -22   -4.27    5.72
  -7  -6 -22    5.05    6.52
   7   6  22    8.27    7.84
  -7  -6 -22   13.08    9.41
   7   6 -22   -4.07    6.28
   7  -6 -23    3.38    3.32
  -7  -6 -23   30.66   14.35
   7   6  23   16.24    8.02
  -7  -6 -23   12.86    6.84
   7   6 -23   20.63    9.38
   7  -6 -24    1.83    4.13
  -7  -6 -24   -6.39    7.82
   7   6  24   -0.75    1.82
   7   6 -24    8.01    6.46
   7   6 -24    5.28    4.64
  -7   7   0   -0.66    3.30
   7   7   0   -4.67    3.30
  -7   7  -1   -6.70    7.41
   7   7  -1    4.18    3.40
  -7   7   1   -0.64    3.57
   7   7   1    3.72    3.99
  -7   7   2   42.59   12.84
   7   7  -2   27.09    8.46
  -7   7  -2   35.12   12.32
   7   7   2   13.90    7.18
  -7   7  -3   57.12   13.23
   7   7   3   70.42   13.87
  -7  -7  -3   70.06   14.23
   7   7  -3   49.80   11.73
  -7   7  -4    1.95    2.73
  -7  -7  -4    4.16    7.39
   7   7   4    1.13    1.20
   7   7  -4    1.02    2.25
  -7   7  -5   18.43    8.49
   7   7   5   16.67    6.94
  -7  -7  -5    7.93    4.58
   7   7  -5   21.09    7.69
   7   7   5   10.38    4.83
  -7   7  -6   -0.31    1.39
   7   7   6   -1.42    2.99
   7   7   6    0.76    1.43
  -7  -7  -6    2.16    2.18
   7   7  -6   -1.45    3.72
  -7   7  -7    3.36    3.48
   7   7   7    3.36    2.82
   7   7   7   13.40    6.93
  -7  -7  -7    8.09    8.14
   7   7  -7   -0.13    2.44
  -7   7  -8    0.40    0.75
   7   7   8    0.34    0.83
   7   7   8   -0.46    2.49
   7   7  -8   -4.66    6.30
  -7  -7  -8   -3.19    4.71
  -7   7  -9   37.58   10.60
   7   7  -9   35.57   11.26
   7   7   9   28.46   10.46
  -7  -7  -9   68.18   16.77
   7   7   9   62.42   14.39
  -7   7 -10   -0.34    3.22
   7   7 -10    5.27    6.55
  -7  -7 -10    6.29    6.12
   7   7  10    6.95    4.78
   7   7  10   11.84    7.87
  -7   7 -11   -1.78    1.56
   7   7  11    9.18    7.69
   7   7 -11   14.49    7.74
  -7  -7 -11    3.18    4.40
   7   7  11    3.70    2.53
  -7   7 -12    5.41    5.80
   7   7 -12    1.44    0.46
   7   7  12    4.96    5.16
  -7  -7 -12    8.04    8.31
   7   7  12   11.17    6.52
   7   7  13  127.55   21.10
   7   7  13  165.23   24.52
  -7  -7 -13   99.76   18.50
   7   7 -13  131.61   21.55
  -7   7 -13   85.06   18.59
  -7   7 -14    4.06    4.44
   7   7 -14    7.35    1.73
   7   7  14    9.74    7.76
  -7  -7 -14   25.39    8.52
   7   7  14    7.33    8.95
   7   7 -15   -2.04    1.58
  -7  -7 -15    4.76    7.01
   7   7  15    5.64    3.86
   7   7  15    1.44    2.16
  -7   7 -15    6.39    6.93
   7   7 -16   16.08    7.59
   7   7  16   13.99    8.26
  -7  -7 -16    5.59    3.87
   7   7  16   10.31    4.55
   7   7 -17    3.11    3.86
  -7  -7 -17   10.56    5.54
   7   7  17   14.63    7.35
   7   7  17    4.80    5.71
  -7  -7 -18   -1.84    0.92
   7   7  18    4.05    5.88
   7   7 -18    0.57    4.99
  -7  -7 -19   23.38   10.42
   7   7  19   48.87   14.41
   7   7 -19   26.26   10.49
   7   7  20    4.94    2.92
   7   7 -20    8.75    4.68
  -7  -7 -21   19.51   10.70
   7   7  21   29.48   11.02
   7   7 -21   13.04    8.89
   7  -7 -22   19.02    9.02
  -7  -7 -22    5.91    2.45
   7   7  22   23.90   10.79
   7   7 -22   17.93   11.12
   7  -7 -23   15.75    8.55
  -7  -7 -23    4.76    2.25
   7   7  23   10.32    7.84
   7   7 -23   15.85    8.61
  -7   8   0   -0.74    0.66
   7   8   0   -3.45    5.35
  -7   8  -1  269.94   29.44
  -7   8   1  218.77   27.07
   7   8  -1  226.55   27.08
   7   8   1  195.14   25.27
   7   8  -2   42.75   12.60
  -7   8  -2   14.22    2.26
  -7   8   2   24.96    8.49
   7   8   2   43.31   11.03
   7   8  -3   30.51    8.30
  -7   8  -3   43.92   12.07
  -7   8   3   29.44   10.37
  -7  -8  -3   44.66   13.39
   7   8   3   23.99    8.40
  -7   8  -4   27.89    9.88
  -7  -8  -4   11.72    4.26
   7   8   4   15.94    6.19
   7   8  -4   17.74    7.24
  -7   8  -5   36.25   12.15
   7   8   5   23.32    8.36
  -7  -8  -5   32.94   11.57
   7   8  -5   28.93    9.78
   7   8   5   15.60    7.49
   7   8   6    1.92    2.85
  -7   8  -6   -1.73    2.10
   7   8   6   -0.84    3.95
  -7  -8  -6   -0.49    3.75
   7   8  -6    1.34    1.19
  -7   8  -7   26.34    8.32
   7   8   7   38.48   10.66
   7   8   7   40.10   10.32
  -7  -8  -7   38.47   13.63
   7   8  -7   16.32    6.79
  -7   8  -8   -2.12    2.91
   7   8   8   -3.07    2.64
   7   8   8    2.46    4.58
  -7  -8  -8    2.61    2.38
   7   8  -8   -1.29    1.76
   7   8   9   97.72   17.87
  -7  -8  -9  119.71   21.62
   7   8  -9  136.95   21.43
   7   8   9  106.53   18.85
  -7   8  -9  161.51   23.57
  -7   8 -10    2.22    0.91
   7   8  10    2.05    2.72
  -7  -8 -10   -1.83    1.47
   7   8  10    4.69    5.80
  -7   8 -11   12.67    7.47
   7   8 -11    7.32    4.75
   7   8  11   -3.11    4.00
  -7  -8 -11   15.70    9.01
   7   8  11   20.20    9.89
  -7   8 -12   -0.70    3.72
   7   8  12   12.98    6.75
   7   8 -12   13.51    7.38
   7   8  12    4.29    3.11
  -7  -8 -12   -0.53    1.17
  -7   8 -13   13.35    9.51
   7   8 -13   17.57    9.07
   7   8  13   15.20    6.58
  -7  -8 -13   14.37    8.75
  -7   8 -14    9.88    4.59
   7   8 -14   16.30    8.67
  -7  -8 -14   -2.42    5.16
   7   8  14    3.60    6.16
   7   8  14    6.13    5.72
  -7   8 -15   63.91   17.88
   7   8  15   49.12   14.13
   7   8 -15   36.80   10.53
  -7  -8 -15   29.31   10.21
   7   8  15   43.47   13.90
   7   8 -16   -1.29    2.01
   7   8  16    1.55    4.42
  -7  -8 -16    0.93    2.83
   7   8  16   -3.83    5.62
  -7   8 -16   -0.44    4.67
   7   8 -17   44.51   12.80
  -7  -8 -17   35.93   11.11
   7   8  17   44.79   13.05
   7   8  17   36.72   11.83
   7   8 -18   10.79    7.78
   7   8  18    4.08    4.24
  -7  -8 -18   10.31    8.14
   7   8  18    9.18    6.65
   7   8  19   40.77   12.87
  -7  -8 -19    7.57    3.93
   7   8  19   58.71   16.28
   7   8 -19   48.26   14.42
  -7  -8 -20    6.29    1.89
   7   8  20    1.44    5.81
   7   8 -20    7.27    6.84
  -7  -8 -21    5.74    7.27
   7   8  21   12.69    8.38
   7   8 -21    1.29    4.12
  -7  -8 -22   28.00   10.72
   7   8  22   18.01    9.86
   7   8 -22   23.15   12.70
  -7   9   0   -2.19    6.66
   7   9   0   -0.34    2.10
  -7   9  -1    4.97    8.30
  -7   9   1    3.29    3.75
   7   9  -1   13.32    7.67
   7   9   1   -2.67    4.94
   7   9  -2   -2.85    2.64
  -7   9  -2    2.73    1.14
  -7   9   2   -6.97    7.56
   7   9   2    3.57    5.06
   7   9  -3    5.86    3.67
  -7   9  -3    0.83    4.96
  -7   9   3    3.03    3.80
   7   9   3    9.63    7.60
  -7   9  -4    0.65    5.71
  -7   9   4   12.09    8.77
  -7  -9  -4    6.35    5.40
   7   9   4    4.41    1.52
   7   9  -4    4.58    5.45
  -7   9  -5   24.90    8.88
  -7  -9  -5   75.65   17.08
   7   9  -5   40.43   12.01
   7   9   5   48.11   11.74
   7   9   6    2.37    3.71
  -7   9  -6    0.73    6.02
  -7  -9  -6    3.58    4.32
   7   9  -6    8.17    3.55
  -7   9  -7   14.51    5.62
   7   9   7   33.53   11.51
   7   9   7   17.61    7.06
  -7  -9  -7   27.29    9.42
   7   9  -7   32.81   11.12
  -7   9  -8    9.04    4.81
   7   9   8    8.63    5.59
   7   9   8   15.16    5.88
  -7  -9  -8    2.68    2.54
   7   9  -8   14.36    8.48
  -7   9  -9   24.14   10.32
   7   9   9    8.28    6.01
   7   9   9   21.49   10.16
  -7  -9  -9   15.40    9.81
   7   9  -9   14.60    7.13
  -7   9 -10   14.59    8.18
   7   9 -10    8.91    6.84
   7   9  10   15.67    8.33
  -7  -9 -10   12.57    7.01
   7   9  10    3.05    1.87
  -7   9 -11   17.45    9.88
   7   9 -11   29.50   11.04
   7   9  11   34.39    9.41
  -7  -9 -11   14.47    9.35
   7   9  11   26.13   10.96
  -7   9 -12   -2.47    1.62
   7   9 -12    0.45    2.75
   7   9  12   -3.90    5.10
  -7  -9 -12    9.02    7.82
   7   9  12    3.53    5.62
  -7   9 -13    0.59    7.42
   7   9  13   44.92   13.54
   7   9 -13   20.03    9.83
   7   9  13   24.89   10.60
  -7  -9 -13   29.59    9.21
  -7   9 -14    5.58    2.62
   7   9 -14    3.88    3.04
   7   9  14   -2.09    0.81
   7   9  14    3.47    5.25
  -7   9 -15    7.94    6.54
   7   9 -15    3.95    3.61
   7   9  15   10.69    9.16
  -7  -9 -15    0.74    4.19
   7   9  15   -1.51    4.20
  -7   9 -16    9.83    9.97
   7   9 -16    0.93    3.26
   7   9  16    0.82    3.27
  -7  -9 -16   -2.22    1.47
   7   9  16    2.21    5.12
  -7   9 -17  103.43   20.86
   7   9 -17   42.33   13.83
   7   9  17   87.51   17.89
   7   9  17   49.63   14.35
  -7  -9 -17   55.37   15.81
   7   9 -18   -0.43    3.18
   7   9  18    1.07    4.41
  -7  -9 -18   -4.27    6.98
   7   9  18    2.89    2.20
   7   9 -19   -4.25    6.08
  -7  -9 -19   -2.52    5.21
   7   9  19    2.28    3.12
   7   9  20   -9.36    9.34
  -7  -9 -20  -11.64    8.43
   7   9  20    8.03    6.08
   7   9 -20    1.82    5.74
  -7  -9 -21    3.16    2.47
   7   9  21   -9.18   10.99
   7   9 -21    2.84    4.57
  -7  10   0    9.33   11.24
   7  10   0    4.46    4.63
  -7  10  -1   -4.13    5.14
   7  10  -1   -1.32    4.32
  -7  10   1    2.35    4.76
   7  10   1   -0.15    3.48
   7  10  -2   50.58   14.24
  -7  10  -2   24.65   12.05
  -7  10   2   68.79   16.56
   7  10   2   79.53   16.56
   7  10  -3    8.82    5.23
  -7  10  -3   12.25    7.84
  -7  10   3   25.86   11.68
   7  10   3   22.11    8.05
  -7  10  -4    3.14    6.83
  -7  10   4    3.06    4.31
   7  10   4   -2.98    3.76
   7  10  -4   -2.30    3.29
  -7  10  -5   -3.12    4.01
   7  10   5    1.75    3.42
   7  10  -5    0.33    4.33
  -7  10  -6   11.22    5.83
   7  10  -6   15.97    5.93
   7  10   6   27.78    9.51
   7  10   7   19.32    6.53
  -7  10  -7   13.32    5.48
  -7 -10  -7   19.10    9.99
   7  10  -7   39.53   12.37
  -7  10  -8   15.97    7.47
   7  10   8   36.87   11.91
   7  10   8   12.23    6.21
  -7 -10  -8   18.50   10.32
   7  10  -8   37.49   11.92
  -7  10  -9   19.71   10.39
   7  10   9   20.30    8.49
   7  10   9   15.96    8.79
  -7 -10  -9   14.44    5.16
   7  10  -9   23.14   10.76
  -7  10 -10   62.46   15.01
   7  10  10   36.63   11.74
   7  10  10   34.93   10.44
   7  10 -10   40.06   12.57
  -7 -10 -10   51.60   15.10
  -7  10 -11    2.76    4.43
   7  10 -11   -5.39    5.38
   7  10  11    7.19    5.84
  -7 -10 -11   -7.79    8.37
   7  10  11   -3.75    2.88
  -7  10 -12   42.68   12.91
   7  10 -12   47.86   12.68
   7  10  12   47.03   13.72
  -7 -10 -12   45.80   13.29
   7  10  12   52.53   14.46
  -7  10 -13    9.21    5.21
   7  10 -13    2.22    3.67
   7  10  13   -3.37    6.45
  -7 -10 -13   -0.16    0.84
   7  10  13    0.80    2.99
  -7  10 -14    4.16    8.03
   7  10  14    4.76    7.21
   7  10 -14   -0.02    4.71
   7  10  14    1.73    0.84
  -7 -10 -14    1.20    3.51
  -7  10 -15    3.08    7.80
   7  10 -15    4.66    2.19
   7  10  15   13.14    7.73
   7  10  15   -3.42    4.75
  -7 -10 -15    8.38    7.34
  -7  10 -16   37.11   12.56
   7  10 -16   51.42   15.22
   7  10  16   55.66   14.67
   7  10  16   63.11   18.20
  -7 -10 -16   37.94   10.63
  -7  10 -17   11.48    8.16
   7  10 -17   -0.24    3.56
   7  10  17    3.58    5.66
  -7 -10 -17    5.43    5.23
   7  10  17   12.05    7.68
  -7  10 -18   -1.43    3.62
   7  10 -18   10.51    6.00
   7  10  18    6.00    8.09
  -7 -10 -18   10.11    7.56
   7  10  18    7.12    7.81
   7  10  19    7.05    8.02
   7  10 -19    2.39    4.52
   7  10  19   -6.26    4.39
  -7 -10 -19    8.03    8.42
  -7  10 -19    2.99    4.33
  -7  11   0   -1.02    3.59
   7  11   0    3.29    4.88
  -7  11  -1    1.40    1.27
   7  11  -1    4.46    6.35
  -7  11   1   -0.65    6.63
   7  11   1    7.42    6.59
   7  11  -2    8.87    5.98
  -7  11  -2    6.43    1.50
  -7  11   2   -2.59    6.54
   7  11   2   15.67    8.12
   7  11  -3    3.08    0.59
  -7  11  -3   -3.43    2.20
  -7  11   3    8.17    7.36
   7  11   3    4.92    2.68
  -7  11   4    5.33    2.06
   7  11   4    7.22    3.87
   7  11  -4   -2.59    6.89
  -7  11  -5    1.70    3.43
   7  11   5   14.94    8.54
   7  11  -5    5.82    6.42
  -7  11  -6    7.19    6.89
   7  11  -6   -0.09    3.91
   7  11   6    0.52    2.63
  -7  11  -7   -0.24    1.13
  -7 -11  -7    0.96    1.10
   7  11  -7   -1.12    2.42
   7  11   7    4.26    6.04
   7  11   8    1.56    3.61
  -7  11  -8   -1.80    2.12
  -7 -11  -8    3.82    6.32
   7  11  -8    1.58    5.50
  -7  11  -9   11.43    9.43
   7  11   9    4.21    1.46
  -7 -11  -9    5.30    9.55
   7  11  -9    0.35    4.68
  -7  11 -10   -7.07    5.82
   7  11  10   -3.08    1.97
   7  11 -10   -0.24    4.99
  -7 -11 -10    1.32    3.19
  -7  11 -11   -1.08    2.50
   7  11  11    3.77    6.25
   7  11 -11   -2.35    3.99
   7  11  11   -0.96    4.60
  -7 -11 -11   14.67    7.61
  -7  11 -12   -3.33    4.07
   7  11 -12   10.62    7.98
   7  11  12    4.04    6.61
  -7 -11 -12    6.13    7.89
   7  11  12    5.04    4.49
  -7  11 -13    2.38    7.87
   7  11 -13    0.29    2.94
   7  11  13   12.80    6.47
  -7 -11 -13   -5.59    7.33
   7  11  13   -4.14    2.03
  -7  11 -14   17.21   10.48
   7  11 -14    4.82    4.61
   7  11  14   -2.14    6.39
  -7 -11 -14   11.60    9.02
   7  11  14    5.36    1.06
  -7  11 -15   -0.03    3.70
   7  11 -15   -0.60    2.77
   7  11  15   12.34    9.49
  -7 -11 -15    4.17    6.70
   7  11  15    7.93    3.98
  -7  11 -16   -2.02    7.83
   7  11  16   -4.68    6.32
   7  11 -16    3.62    3.17
   7  11  16   -0.52    1.80
  -7 -11 -16   10.27   10.52
  -7  11 -17    3.48    3.19
   7  11 -17    0.89    3.27
   7  11  17   -6.14    6.66
   7  11  17    0.51    5.32
  -7 -11 -17   -2.31    3.36
  -7  12   0   -4.12    6.48
   7  12   0    4.36    6.92
   7  12  -1   12.82    6.33
  -7  12  -1    8.53    9.11
  -7  12   1    6.99    6.14
   7  12   1    0.35    4.11
   7  12  -2   14.68    5.09
  -7  12  -2   22.85    9.76
  -7  12   2   23.65   10.63
   7  12   2   20.51    8.53
   7  12  -3   27.87   11.59
  -7  12  -3   20.23    5.71
  -7  12   3   32.44   12.62
   7  12   3   42.19   12.64
  -7  12  -4   -2.36    3.24
  -7  12   4    2.55    8.13
   7  12   4   -2.84    5.20
   7  12  -4   12.48    8.80
  -7  12  -5    7.43    7.27
  -7  12   5   18.33   11.97
   7  12   5    9.96    6.75
   7  12  -5   -0.27    3.50
  -7  12  -6    5.88    1.02
   7  12   6   10.02    4.49
   7  12  -6    1.31    4.67
  -7  12  -7    3.78    6.16
   7  12  -7   -5.39    7.27
   7  12   7    0.24    5.01
  -7  12  -8   14.44    7.16
   7  12  -8   21.27   11.32
   7  12   8   22.74    9.07
   7  12   9   24.57   10.83
  -7  12  -9   34.16   12.70
  -7 -12  -9   48.60   14.68
   7  12  -9   32.58   10.15
  -7  12 -10   -6.60    6.44
   7  12  10    2.97    3.93
  -7 -12 -10   12.70    6.47
   7  12 -10   -0.46    5.16
  -7  12 -11   -1.07    5.09
   7  12  11   -1.00    5.98
   7  12 -11    3.41    3.87
  -7 -12 -11   -1.73    4.29
  -7  12 -12   -5.50    4.46
   7  12  12    1.50    3.82
   7  12 -12   14.05    9.73
  -7 -12 -12   11.73   10.09
  -7  12 -13   12.90    6.79
   7  12 -13   18.29    6.81
   7  12  13   12.67    5.08
  -7 -12 -13   16.37    3.15
  -7  12 -14    8.85    8.98
   7  12 -14   11.22    7.87
  -7 -12 -14    0.06    5.48
   7  12  14    2.77    2.94
  -7  13   0    3.39    3.19
   7  13   0    3.20    5.21
   7  13  -1   31.53   11.81
  -7  13  -1   12.60    9.93
  -7  13   1    3.15    5.88
   7  13   1   29.65   11.78
   7  13  -2   -0.73    2.45
  -7  13  -2   -2.84    2.91
  -7  13   2    9.13    7.47
   7  13   2    4.67    6.94
  -7  13  -3   -4.95    5.34
  -7  13   3   -3.36    2.56
   7  13   3   -8.49    7.22
   7  13  -3   -3.35    4.01
  -7  13  -4   13.86   10.94
  -7  13   4    9.65   10.74
   7  13   4   -5.55    3.88
   7  13  -4    0.51    3.22
  -7  13  -5   -0.17    6.90
  -7  13   5   -7.59    5.93
   7  13   5    3.31    3.65
   7  13  -5    1.84    5.17
  -7  13  -6    2.61    6.79
   7  13   6   -0.38    1.37
   7  13  -6   -2.76    5.83
  -7  13  -7   -7.02    6.37
   7  13  -7   -0.53    1.84
   7  13   7   -5.51    7.21
  -7  13  -8   -2.17    5.60
   7  13  -8    2.32    3.00
   7  13   8    4.02    5.07
  -7  13  -9   -1.30    2.74
   7  13   9   -3.35    5.27
   7  13  10    8.51    4.44
   7  13 -10    4.76    1.74
   7  14   0   -4.93    4.83
  -7  14   0    4.14    6.31
   7  14  -1   -1.69    4.49
  -7  14  -1   -3.65    8.52
  -7  14   1   -8.32    9.67
   7  14   1   -3.74    5.69
   7  14  -2    9.17    8.21
  -7  14  -2    1.52    4.25
  -7  14   2    6.25    5.84
   7  14   2   13.41    8.39
  -7  14  -3   -2.66    4.91
  -7  14   3   -0.78    3.15
   7  14   3   -1.57    3.05
   7  14  -3   -4.31    5.00
  -8   0  -1    4.66    5.28
   8   0  -2   59.60   10.10
  -8   0  -2  136.57   19.70
  -8   0  -3    0.92    4.58
   8   0  -3    1.00    2.23
  -8   0  -4   24.63    8.05
   8   0  -4   32.74    8.28
  -8   0  -5    3.40    6.54
   8   0  -5    0.05    1.08
   8   0  -6   48.15   10.81
  -8   0  -6   45.95   11.53
  -8   0  -7   -1.86    2.58
   8   0  -7    0.87    1.93
  -8   0  -8   14.72    7.21
   8   0  -8   14.13    4.92
  -8   0  -9   -0.06    3.64
   8   0  -9   -0.77    1.02
   8   0 -10  299.88   29.38
  -8   0 -10  237.53   27.46
  -8   0 -11    1.17    5.21
   8   0 -11    0.44    4.41
  -8   0 -12   -1.63    3.18
   8   0 -12    3.51    4.06
  -8   0 -13   -2.82    6.10
   8   0 -13   -4.60    5.76
   8   0 -14   74.20   15.55
  -8   0 -14   65.20   14.45
   8   0 -15   -1.92    3.91
  -8   0 -15   -3.06    4.11
   8   0 -16    3.53    4.34
  -8   0 -16   25.47   11.07
   8   0 -17    1.12    2.68
  -8   0 -17    1.82    5.33
   8   0 -18   19.18    8.41
  -8   0 -18   13.24    6.50
   8   0 -19    3.17    4.92
  -8   0 -19   -6.70    7.11
   8   0 -20   13.95    6.02
  -8   0 -20   28.93   12.14
   8   0 -21    1.61    3.21
  -8   0 -21   -4.56    6.86
   8   0 -21    7.92    7.46
   8   0 -22   10.82    6.83
  -8   0 -22   25.59   10.66
   8   0 -22   15.58   10.71
   8   0 -23   -0.74    6.30
  -8   0 -23    1.39    4.73
   8   0 -23   -1.77    0.92
   8   0 -24    9.67    3.34
  -8   0 -24   11.14    4.94
   8   0 -24    3.48    3.75
   8   0 -25   15.15   11.41
  -8   0 -25    1.38    5.36
   8   0 -25    0.59    4.63
   8   1   0  243.12   20.51
  -8   1  -1  156.26   20.71
  -8  -1  -1  170.16   21.41
   8   1  -1  208.26   19.78
   8   1   1  187.56   18.32
   8   1  -2    3.09    3.48
  -8   1  -2    2.65    4.87
  -8  -1  -2    2.52    1.50
   8   1   2   -2.46    3.22
  -8  -1  -3   24.17    8.96
  -8   1  -3   46.88   11.03
   8   1  -3   43.43    9.54
  -8   1  -4  235.91   26.49
   8   1  -4  209.53   21.35
   8   1  -5    5.61    3.00
  -8  -1  -5    7.16    3.95
  -8   1  -5    1.31    2.64
   8  -1  -6   55.58   11.47
   8   1  -6   72.89   12.43
  -8  -1  -6   96.02   17.72
  -8   1  -6   90.79   16.44
   8  -1  -7   57.29   10.48
   8   1  -7   53.63   11.53
  -8  -1  -7   68.86   15.16
  -8   1  -7   41.52   11.37
   8  -1  -8   57.43   11.67
   8   1  -8   51.87   11.54
  -8  -1  -8   62.97   14.34
  -8   1  -8   51.91   11.06
  -8  -1  -9   28.33    8.12
  -8   1  -9   20.56    7.75
   8  -1  -9   29.14    8.51
   8   1  -9   20.84    6.65
   8  -1 -10    9.19    4.02
  -8  -1 -10   12.22    5.62
  -8   1 -10   21.72    8.10
   8   1 -10   16.07    7.03
   8  -1 -11   11.28    6.45
  -8  -1 -11    1.12    4.42
  -8   1 -11   -1.84    4.83
   8   1 -11    0.21    3.81
   8   1 -12  208.72   24.88
  -8  -1 -12  176.48   24.28
  -8   1 -12  180.80   23.52
   8  -1 -13    6.53    5.95
  -8  -1 -13    2.73    4.20
  -8   1 -13   -2.41    4.04
   8   1 -13   -1.12    2.54
  -8  -1 -14   63.99   15.69
  -8   1 -14   75.15   15.92
   8  -1 -14   49.66   12.40
   8   1 -14   50.25   11.97
   8  -1 -15   47.52   12.08
  -8   1 -15   37.97   11.26
   8   1 -15   30.56    9.92
   8  -1 -16   17.44    5.61
  -8  -1 -16   18.85    7.49
  -8   1 -16   33.94   12.13
   8   1 -16   22.61    9.96
   8  -1 -17   44.22   12.38
  -8  -1 -17   21.97    9.59
  -8   1 -17   24.12    9.23
   8   1 -17   17.08    6.53
   8  -1 -18  191.41   25.93
   8   1 -18  161.50   25.75
  -8  -1 -18  214.91   28.98
  -8   1 -18  183.73   28.88
   8  -1 -19   -2.11    3.97
   8   1 -19   -2.05    4.97
  -8  -1 -19    1.16    3.96
  -8   1 -19    7.99    7.73
   8  -1 -20    3.30    3.98
   8   1 -20   -5.17    6.75
  -8  -1 -20    3.23    7.90
  -8   1 -20    3.34    6.32
   8  -1 -20    2.33    4.24
   8  -1 -21   19.66    7.76
   8   1 -21   20.75    8.69
  -8  -1 -21   22.06    9.10
  -8   1 -21   31.80   11.37
   8  -1 -21    2.71    2.91
   8  -1 -22   34.58   10.26
   8   1 -22   46.51   13.91
  -8  -1 -22   30.71   11.92
  -8   1 -22   19.39    6.85
   8  -1 -22   52.48   13.81
   8   1 -22    0.69    8.65
   8  -1 -23   -5.20    5.40
   8   1 -23   -0.36    4.19
  -8  -1 -23    1.87    7.43
  -8   1 -23   -3.61    3.21
   8  -1 -23    3.89    3.96
   8   1 -23   -2.61    5.93
   8  -1 -24   39.42   13.81
   8   1 -24   33.62    9.86
  -8  -1 -24   36.53   12.20
  -8   1 -24   24.41   11.92
   8  -1 -24   29.66    3.86
   8   1 -24    3.30    9.17
   8  -1 -25    9.12    3.21
   8   1 -25   12.68    8.02
  -8  -1 -25   29.80   12.17
  -8   1 -25   10.03    6.27
   8  -1 -25    6.92    6.28
   8   1 -25   11.33    5.75
   8   2   0   29.03    7.23
  -8   2  -1   56.97   12.29
  -8  -2  -1   72.68   14.00
   8   2  -1   69.46   12.34
   8   2   1   61.19   10.51
   8   2  -2   13.06    4.98
  -8   2  -2   11.04    5.41
  -8  -2  -2   13.92    6.67
   8   2   2   15.57    5.00
   8   2   3  187.66   19.00
  -8   2  -3  148.84   20.21
   8   2   4   17.48    7.29
   8   2  -4    9.50    5.67
  -8  -2  -4   18.05    8.28
  -8   2  -4    7.69    3.29
   8   2  -5   20.51    7.44
   8   2   5   21.46    6.86
  -8  -2  -5   17.10    5.41
  -8   2  -5   15.12    6.75
   8   2   6   37.00    9.31
   8   2  -6   59.70   12.82
  -8  -2  -6   40.84   11.44
  -8   2  -6   17.35    6.88
  -8  -2  -7  227.54   27.37
  -8   2  -7  170.82   22.08
   8   2  -7  258.28   25.71
   8   2   7  238.70   20.90
   8   2  -8    0.90    1.76
  -8  -2  -8   -0.61    4.37
  -8   2  -8    3.95    4.41
   8  -2  -9    1.90    3.01
  -8  -2  -9    4.20    5.79
  -8   2  -9    5.98    4.73
   8   2  -9   12.87    6.69
   8  -2 -10    6.50    4.43
  -8  -2 -10   -0.23    4.38
  -8   2 -10    5.82    6.57
   8   2 -10    1.82    3.00
   8  -2 -11   59.53   12.74
   8   2 -11   57.17   13.34
  -8  -2 -11   36.32   11.86
  -8   2 -11   47.50   11.94
   8  -2 -12   42.10   10.99
  -8  -2 -12   23.25    8.92
  -8   2 -12   14.78    6.57
   8   2 -12   33.89   10.31
   8  -2 -13   19.37    7.73
  -8  -2 -13   22.63    9.08
  -8   2 -13    4.93    5.78
   8   2 -13   19.33    8.58
   8  -2 -14   10.71    6.90
  -8  -2 -14   21.12    9.18
  -8   2 -14    8.96    6.61
   8   2 -14    2.12    3.71
   8  -2 -15   -0.04    5.31
  -8  -2 -15    2.41    3.43
  -8   2 -15    1.44    3.99
   8   2 -15    9.58    3.79
   8  -2 -16    8.29    5.63
  -8  -2 -16    0.87    4.99
  -8   2 -16    5.23    4.48
   8   2 -16    6.41    6.39
   8  -2 -17    2.77    2.14
  -8  -2 -17   -1.17    3.30
  -8   2 -17   -0.46    1.74
   8   2 -17   -5.30    5.79
   8  -2 -18    3.09    3.79
  -8  -2 -18    3.01    2.17
  -8   2 -18    6.17    7.22
   8   2 -18    2.03    2.72
   8  -2 -18   -1.15    3.50
   8  -2 -19   16.52    5.95
  -8  -2 -19   22.59    9.71
  -8   2 -19   13.28    6.83
   8   2 -19   26.65   10.52
   8  -2 -19    9.61    6.11
   8  -2 -20    4.70    5.66
  -8  -2 -20    3.52    6.09
   8   2 -20   -2.85    3.19
  -8   2 -20    3.14    9.39
   8  -2 -20    7.32    6.91
   8  -2 -21   71.10   15.95
   8   2 -21   41.19   13.06
  -8  -2 -21   58.88   15.27
  -8   2 -21   46.81   14.10
   8  -2 -21   39.66   13.40
   8  -2 -22    1.57    4.60
   8   2 -22    6.26    7.78
  -8  -2 -22    1.32    5.86
  -8   2 -22    1.50    3.21
   8  -2 -22    3.88    6.69
   8  -2 -23   -1.54    0.46
   8   2 -23    2.13    4.17
  -8  -2 -23    0.44    4.26
  -8   2 -23    3.01    5.58
   8  -2 -23    1.28    5.46
   8   2 -23   -0.60    1.90
   8  -2 -24    7.09    7.49
   8   2 -24   -1.51    5.21
  -8  -2 -24   -2.59    8.34
  -8   2 -24    1.88    4.87
   8  -2 -24   -2.38    1.44
   8   2 -24   -2.39    3.64
   8  -2 -25   -1.10    3.19
   8   2 -25   13.25   10.09
  -8  -2 -25   -1.37    2.88
  -8   2 -25   -1.42    1.15
   8  -2 -25    7.33    5.93
   8   2 -25    6.90    2.73
   8   3   0   38.74    9.15
  -8  -3  -1   27.68    9.27
   8   3  -1   25.93    8.08
   8   3   1   23.18    6.88
   8   3   2   16.61    5.68
  -8   3  -2   14.92    6.33
  -8  -3  -2   15.55    8.29
   8   3  -2    4.59    2.12
   8   3   3  102.81   15.71
  -8  -3  -3  101.31   18.07
  -8   3  -3  114.94   17.25
   8   3  -3  128.06   17.37
   8   3   4   59.65   11.75
  -8   3  -4   54.16   12.71
  -8  -3  -4   59.74   13.75
   8   3  -4   75.01   14.01
   8   3  -5   30.76    9.94
  -8  -3  -5   17.24    6.17
   8   3   5    8.45    4.61
  -8   3  -5   10.92    6.75
   8   3   6  226.86   22.31
  -8  -3  -6  269.71   30.02
  -8   3  -6  230.97   25.18
   8   3  -6  251.18   26.13
  -8  -3  -7   69.92   15.88
  -8   3  -7   79.73   14.68
   8   3   7   84.55   13.47
  -8  -3  -8   65.86   15.63
  -8   3  -8   78.59   14.97
   8   3  -8   73.15   14.58
   8   3   8   62.52   11.28
   8   3  -9   -4.33    5.08
   8   3   9   -1.75    3.71
  -8  -3  -9   -1.23    2.75
  -8   3  -9   -1.92    0.90
   8   3 -10    3.39    5.17
  -8  -3 -10    3.36    4.54
  -8   3 -10    6.90    2.92
   8   3  10    1.22    3.35
   8   3 -11   71.80   15.16
  -8  -3 -11   92.26   17.34
  -8   3 -11   62.92   13.76
   8   3  11   80.78   14.48
   8   3  12   -4.09    6.06
  -8  -3 -12   -0.80    4.01
  -8   3 -12    5.00    4.79
   8   3 -12   -1.98    1.59
   8  -3 -13    6.54    5.47
  -8  -3 -13    2.53    3.04
  -8   3 -13    8.50    4.79
   8   3 -13    1.99    3.67
   8  -3 -14    2.42    1.60
  -8  -3 -14    3.64    2.86
  -8   3 -14    3.63    1.60
   8  -3 -15   23.52    9.79
  -8  -3 -15   38.56   11.14
  -8   3 -15   42.69   10.93
   8   3 -15   17.90   10.27
   8  -3 -16   12.58    7.15
  -8  -3 -16   20.51   11.23
  -8   3 -16   14.27    6.43
   8   3 -16   19.35    8.55
   8  -3 -17   52.41   13.55
  -8  -3 -17   63.14   15.55
  -8   3 -17   30.71   13.38
   8   3 -17   68.83   16.87
   8  -3 -18    0.48    5.43
  -8  -3 -18    2.10    4.59
  -8   3 -18    5.17    0.43
   8   3 -18    3.10    4.50
   8  -3 -18    3.09    5.13
   8  -3 -19   70.97   16.93
  -8  -3 -19   51.19   13.90
  -8   3 -19   51.22   16.09
   8   3 -19   59.79   14.85
   8  -3 -19   53.70   14.73
   8  -3 -20    2.86    3.58
  -8  -3 -20    0.77    2.47
  -8   3 -20    0.18    1.93
   8   3 -20    0.88    3.04
   8  -3 -21   44.21   12.24
  -8  -3 -21   56.83   15.54
  -8   3 -21   42.72   14.77
   8   3 -21   58.05   14.73
   8  -3 -22   13.39    6.43
  -8  -3 -22    6.47    4.99
   8   3 -22   11.52    9.08
  -8   3 -22    5.51    5.53
   8  -3 -23   -0.80    3.72
   8   3 -23   -1.61    5.97
  -8  -3 -23    4.12    5.17
  -8   3 -23   -3.20    4.89
   8   3 -23    0.65    3.83
   8  -3 -24    7.43    8.36
   8   3 -24    0.03    2.78
  -8  -3 -24   -4.66    5.40
  -8   3 -24   -4.55    6.66
   8   3 -24   -3.30    5.32
   8  -3 -25   25.62   12.66
   8   3 -25   19.90   11.18
  -8  -3 -25    3.19    7.17
  -8   3 -25    8.79    3.88
   8   3 -25   19.82   10.82
   8   4   0   11.85    4.43
   8   4   1   13.81    4.74
  -8  -4  -1   30.16    9.40
   8   4  -1   29.43    9.51
   8   4   2  113.64   17.12
  -8  -4  -2   74.93   14.97
   8   4  -2   95.42   14.99
   8   4   3    3.49    4.74
  -8  -4  -3   -2.25    4.24
   8   4  -3   -0.75    0.70
   8   4   4   28.21    7.40
   8   4  -4   34.50    9.57
  -8  -4  -4   25.71    7.54
   8   4   5  110.72   16.14
   8   4  -5   96.21   16.49
   8   4  -6   28.97    9.59
  -8  -4  -6   44.43   12.03
  -8   4  -6   16.42    7.52
   8   4   6   31.12    8.69
   8   4  -7   43.05   12.49
  -8   4  -7   39.14   11.99
  -8  -4  -7   38.76   12.52
   8   4   7   40.96    9.37
  -8  -4  -8   57.62   14.27
  -8   4  -8   45.04   11.46
   8   4  -8   79.40   15.99
   8   4   8   66.42   12.65
   8   4  -9   34.53   11.29
   8   4   9   18.46    6.79
  -8  -4  -9   15.83    9.02
  -8   4  -9   16.87    6.81
   8   4 -10   32.64    8.29
  -8  -4 -10   25.62    7.28
  -8   4 -10   13.80    5.17
   8   4  10   18.26    7.49
   8   4 -11   15.26    6.51
  -8  -4 -11   12.55    9.08
  -8   4 -11   16.43    7.83
   8   4  11   11.40    5.90
   8   4 -12    7.60    5.98
   8   4  12    7.06    4.66
  -8  -4 -12   -0.36    4.35
  -8   4 -12    5.51    5.25
   8   4 -13    1.95    4.09
   8   4  13    3.75    4.41
  -8  -4 -13    2.05    5.30
  -8   4 -13    3.98    2.83
   8   4  14   -0.09    4.20
  -8  -4 -14   -1.56    1.69
  -8   4 -14    0.19    0.80
   8   4 -14    5.89    3.68
   8   4  15   22.87    8.88
  -8  -4 -15   18.89    8.92
  -8   4 -15    5.95    3.84
   8   4  15   -3.04    4.25
   8   4 -15    4.68    6.40
   8   4  16    1.11    2.62
  -8  -4 -16   -0.81    4.68
  -8   4 -16    0.41    4.90
   8   4  16    0.78    4.26
   8   4 -16    0.86    3.89
  -8  -4 -17   24.46   10.88
  -8   4 -17   11.54    7.18
   8   4  17   15.85    7.24
   8   4 -17    0.29    2.09
   8  -4 -18   26.53   11.46
  -8  -4 -18   51.46   12.38
  -8   4 -18   34.12   11.94
   8   4 -18   35.39   10.58
   8  -4 -19   15.69    8.03
  -8  -4 -19   23.73   10.31
  -8   4 -19   27.68   10.58
   8   4 -19   23.45   10.80
   8  -4 -20    2.98    5.28
  -8  -4 -20   14.13    7.73
  -8   4 -20    5.53    7.79
   8   4 -20   10.26    6.45
   8  -4 -21    0.65    1.98
  -8  -4 -21   -5.28    7.07
  -8   4 -21    3.43    4.56
   8   4 -21   -4.91    6.03
   8  -4 -22   -2.35    6.82
  -8  -4 -22   -3.68    3.66
  -8   4 -22   -2.81    2.02
   8   4 -22   -1.73    8.41
   8  -4 -23    7.92   10.24
  -8  -4 -23    5.12    8.29
  -8   4 -23   -2.16    4.63
   8   4 -23    4.53    3.84
   8  -4 -24   12.36    8.39
  -8  -4 -24   -0.89    6.63
   8   4 -24    0.93    4.16
  -8   4 -24    6.79    6.64
   8   4 -24    0.19    6.36
   8   5   0  588.36   39.01
   8   5   1   20.68    7.59
   8   5  -1   17.67    6.52
   8   5   2    6.92    5.66
  -8  -5  -2   10.21    6.90
   8   5  -2   10.06    4.84
   8   5   3   74.56   14.11
  -8  -5  -3   38.33   12.77
   8   5  -3   71.79   13.70
   8   5   4   79.34   13.82
  -8  -5  -4   86.43   16.55
   8   5  -4   49.23   12.28
   8   5   5   67.47   12.96
  -8  -5  -5   40.06   11.68
   8   5  -5   47.36   11.89
   8   5  -6   62.86   13.22
  -8  -5  -6   79.97   17.66
   8   5   6   86.11   14.51
   8   5   7   40.44   10.13
   8   5  -7   39.77   11.68
  -8  -5  -7   34.49   11.51
   8   5   8   42.30   10.13
   8   5  -8   50.25   13.06
  -8  -5  -8   25.14   10.41
   8   5  -9   22.48    8.94
   8   5   9   19.82    8.06
  -8  -5  -9   22.29    8.57
   8   5 -10   55.10   13.46
  -8  -5 -10   60.13   13.67
   8   5  10   48.23   11.72
   8   5 -11   28.97   10.56
  -8  -5 -11   19.66    8.15
   8   5  11   16.11    6.82
   8   5  12    1.06    2.36
   8   5 -12   -0.36    2.71
  -8  -5 -12   -0.02    1.28
   8   5 -13    1.46    2.90
   8   5  13   11.49    7.90
  -8  -5 -13   15.02    7.47
   8   5 -14   46.28   11.93
  -8  -5 -14   31.71   11.08
   8   5  14   42.26   11.32
   8   5  15    2.45    4.38
  -8  -5 -15   -3.06    4.31
   8   5 -15    5.19    5.95
   8   5  16   -2.09    5.54
  -8  -5 -16    4.98    3.56
   8   5 -16    0.42    0.95
   8   5  17   -1.19    5.12
  -8  -5 -17    3.53    3.64
   8   5  17   10.04    8.01
   8   5 -17    6.82    5.82
   8   5  18   52.70   13.28
  -8  -5 -18   39.83   12.25
   8   5  18   28.34    8.30
   8   5 -18   28.34   10.80
  -8  -5 -19    1.09    0.91
   8   5  19   -1.76    4.04
   8   5 -19    1.71    4.29
   8   5  20   -5.20    5.63
   8   5 -20   -1.94    2.78
  -8  -5 -21   -1.52    3.56
   8   5  21    6.00    5.44
   8   5 -21    7.93    6.50
   8   5  22    6.76    6.00
   8   5 -22    5.92    5.68
  -8  -5 -23    3.84    2.29
   8   5  23   -2.62    4.74
   8   5 -23   -1.69    2.01
   8   6   0    0.84    1.53
   8   6   1   -0.35    3.17
   8   6  -1   -0.68    2.95
   8   6  -2  293.69   29.05
   8   6   2  240.80   27.94
   8   6   3   72.18   14.61
  -8  -6  -3   77.49   14.88
   8   6  -3   77.07   14.65
  -8  -6  -4    1.31    5.61
   8   6   4    2.63    2.51
   8   6  -4    5.28    3.41
  -8  -6  -5    1.23    2.57
   8   6  -5   -4.64    5.89
   8   6   5    0.82    3.00
  -8  -6  -6    8.10    8.41
   8   6  -6    1.10    1.41
   8   6   6    4.26    5.52
   8   6  -7   10.29    6.28
  -8  -6  -7    4.90    4.70
   8   6   7   -3.78    3.93
   8   6   8    1.63    3.62
   8   6  -8    7.24    6.55
  -8  -6  -8    4.07    5.32
   8   6   9    0.52    1.25
   8   6  -9    2.43    2.34
  -8  -6  -9    2.64    5.89
   8   6 -10    8.56    5.05
   8   6  10    1.86    4.09
  -8  -6 -10    8.03    5.88
   8   6 -11    8.94    6.55
  -8  -6 -11    8.33    6.98
   8   6  11   18.55    8.12
   8   6 -12    9.35    5.10
  -8  -6 -12   21.58    9.31
   8   6  12   13.88    6.46
   8   6 -13    1.40    3.41
   8   6  13   -7.27    0.59
  -8  -6 -13    0.53    3.54
   8   6 -14   22.21   10.02
   8   6  14   21.23    9.29
  -8  -6 -14   11.21    7.90
   8   6 -15   -1.84    2.88
  -8  -6 -15    3.36    2.65
   8   6  15    2.44    5.11
   8   6 -16    1.49    4.13
   8   6  16   -1.26    3.28
  -8  -6 -16    6.12    4.89
   8   6  17    2.83    3.95
  -8  -6 -17   16.65    8.84
   8   6 -17   10.08    5.73
  -8  -6 -18   22.14    8.62
   8   6  18   15.11    8.10
   8   6 -18    5.89    5.12
  -8  -6 -19    8.30    5.59
   8   6  19    6.11    3.11
   8   6 -19    0.31    2.76
   8   6  20   -4.16    2.21
  -8  -6 -20   11.08    4.50
   8   6  20   -1.82    4.99
   8   6 -20    2.06    4.44
  -8  -6 -21   -0.66    5.86
   8   6  21    2.95    3.95
   8   6 -21    6.92    6.56
  -8  -6 -22   -3.37    4.04
   8   6  22    0.61    8.21
   8   6 -22   -2.06    4.18
  -8  -6 -23    6.08    5.15
   8   6  23    2.05    5.80
   8   6 -23   -7.38    6.96
   8   7   0    8.45    3.29
   8   7  -1   93.00   15.85
   8   7   1  133.24   20.21
   8   7   2    2.13    3.18
   8   7  -2    9.58    4.77
   8   7  -3  145.63   20.65
   8   7   3  191.85   24.00
  -8  -7  -3  207.34   26.76
  -8  -7  -4   21.29    9.33
   8   7   4   10.86    5.13
   8   7  -4   12.27    5.22
  -8  -7  -5   -0.48    2.98
   8   7  -5   -2.76    5.66
   8   7   5    0.91    0.84
  -8  -7  -6   -3.96    5.88
   8   7  -6   -1.96    1.42
   8   7   6   -1.70    1.14
   8   7  -7   63.31   14.29
  -8  -7  -7   53.66   13.44
   8   7   7   46.20   11.48
   8   7   8   33.61    9.54
  -8  -7  -8   59.60   15.43
   8   7  -8   69.62   15.99
   8   7   9    8.23    5.13
   8   7  -9    4.81    3.77
  -8  -7  -9   10.64    8.59
   8   7 -10   24.83    9.09
   8   7  10   36.50   10.58
  -8  -7 -10   32.17   10.66
  -8  -7 -11  156.59   25.48
   8   7 -11  134.34   22.13
   8   7  11   84.20   17.07
  -8   7 -12   17.25   14.55
   8   7 -12   -2.20    3.98
  -8  -7 -12    8.71    7.76
   8   7  12   -5.27    5.23
   8   7 -13   13.74    9.40
  -8  -7 -13    8.48    4.81
  -8   7 -13   19.71   13.54
   8   7  13   17.93   10.41
   8   7 -14   16.35    9.50
   8   7  14    3.78    5.93
  -8  -7 -14    5.14    6.66
   8   7 -15   19.12    8.79
   8   7  15   18.90   10.45
  -8  -7 -15    8.44    8.32
   8   7 -16    2.52    1.85
  -8  -7 -16   -5.84    6.47
   8   7  16   -6.12    6.27
   8   7 -17    6.66    5.07
   8   7  17    5.50    4.83
  -8  -7 -18    0.38    1.99
   8   7 -18   -5.06    4.90
  -8  -7 -19   27.52   11.51
   8   7  19   12.83    5.61
   8   7 -19   29.46   10.32
  -8  -7 -20   -1.57    5.48
   8   7 -20   -3.21    6.16
   8   7  20    4.64    7.04
   8   7  21   20.39   10.97
  -8  -7 -21   13.77    6.82
   8   7 -21    4.76    6.55
   8   8   0  112.84   18.18
   8   8  -1   18.66    7.40
   8   8   1   23.69   10.07
   8   8   2    2.14    3.07
   8   8  -2    3.01    3.71
   8   8   3    3.62    2.99
   8   8  -3    8.57    6.03
  -8  -8  -4   10.30    5.50
   8   8   4    4.70    5.93
   8   8  -4    4.56    3.32
  -8  -8  -5   22.59    8.72
   8   8   5   24.23   10.87
   8   8  -5   23.16    9.42
  -8  -8  -6   26.07   10.28
   8   8  -6   17.56    7.80
   8   8   6   10.52    7.80
  -8  -8  -7   30.17   12.59
   8   8  -7   28.64   11.32
   8   8   7   21.42    8.62
   8   8   8   -2.61    3.10
   8   8  -8    0.54    3.71
  -8  -8  -8   -3.01    0.81
   8   8   9    1.67    3.54
   8   8  -9    2.09    4.72
  -8  -8  -9   -5.32    6.82
   8   8  10   -0.84    4.94
   8   8 -10    0.31    6.67
  -8  -8 -10   11.97    8.10
  -8   8 -11   22.20   13.45
   8   8 -11   28.79   10.34
   8   8  11   18.27    9.35
  -8  -8 -11   35.52   11.73
  -8   8 -12   13.52   11.30
   8   8 -12    7.04    5.59
  -8  -8 -12   12.10    9.40
   8   8  12    1.18    3.57
  -8   8 -13    6.04    9.58
   8   8 -13   -1.71    5.60
  -8  -8 -13    5.35    2.54
   8   8  13   -4.86    4.96
   8   8 -14   10.48    4.33
  -8  -8 -14    5.88    4.52
  -8   8 -14    6.20    6.84
   8   8  14    4.05    1.39
   8   8 -15   33.03   11.26
   8   8  15   64.49   15.59
  -8  -8 -15   51.44   15.65
   8   8 -16    0.07    4.69
   8   8  16    1.93    1.66
  -8  -8 -16    7.67    6.22
   8   8 -17   23.57    9.16
   8   8  17   18.32    9.07
  -8  -8 -17   13.12    4.35
   8   8 -18    6.87    7.98
  -8  -8 -18   -3.67    3.80
   8   8  18   -2.51   12.00
  -8  -8 -19    7.10    3.15
   8   8 -19    9.93    5.92
  -8  -8 -20   -4.67    5.98
   8   8 -20    1.05    6.66
   8   9   0   70.69   17.19
   8   9  -1   25.86    8.30
   8   9   1   32.16    9.37
   8   9   2    7.97    2.65
   8   9  -2   15.19    8.80
   8   9   3   30.40   10.26
   8   9  -3   21.31    7.07
   8   9   4   15.03    7.49
   8   9  -4   -1.28    1.23
  -8  -9  -5   11.44    8.54
   8   9   5   15.83    6.73
   8   9  -5   28.53   10.27
  -8  -9  -6    6.97    5.56
   8   9  -6    8.29    8.19
   8   9   6   14.12    6.62
  -8  -9  -7  108.96   21.42
   8   9   7  104.55   19.19
   8   9  -7  108.03   21.01
  -8  -9  -8   49.00   13.42
   8   9  -8   52.89   14.47
   8   9   8   48.57   13.02
   8   9   9    1.07    3.17
   8   9  -9    1.59    1.44
  -8  -9  -9   -1.50    3.34
  -8   9 -10  -11.52    6.76
   8   9  10   11.01    6.79
   8   9 -10    6.11    3.50
  -8  -9 -10    5.73    8.73
  -8   9 -11   49.22   17.09
   8   9 -11   22.89    9.42
   8   9  11   25.51    8.87
  -8  -9 -11   19.64    7.46
  -8   9 -12   15.96   10.98
   8   9 -12   -0.12    4.73
   8   9  12   18.56    7.28
  -8  -9 -12    9.68    6.64
  -8   9 -13   39.10   15.49
   8   9 -13   33.96   10.32
  -8  -9 -13   35.67   11.77
   8   9  13   14.96    6.88
   8   9 -14    8.58    5.43
  -8  -9 -14    2.51    2.57
   8   9  14   15.11    6.44
  -8   9 -15    1.62    6.11
   8   9 -15   17.69    8.07
  -8  -9 -15   12.50    8.55
   8   9  15    8.72    6.13
   8   9  16   -3.73    4.75
   8   9 -16   -3.70    1.79
  -8  -9 -16   -0.47    4.96
  -8   9 -16    8.63    9.81
   8   9 -17   16.72    8.84
   8   9  17    7.70    6.22
  -8  -9 -17   13.20    7.43
   8   9 -18    4.56    1.35
   8   9  18   26.61   12.11
   8  10   0   -4.56    7.76
   8  10  -1    0.32    4.00
   8  10   1    5.18    5.66
   8  10  -2   -1.25    3.45
   8  10   2    1.89    3.81
   8  10   3    4.89    3.56
   8  10  -3    5.40    6.25
   8  10   4   32.25   10.68
   8  10  -4   35.02   13.15
   8  10   5    5.38    4.88
   8  10  -5    1.60    2.98
  -8 -10  -6    2.65    6.80
   8  10  -6    8.05    6.60
   8  10   6   -1.68    3.23
  -8 -10  -7    6.27    3.97
   8  10  -7    6.64    5.62
   8  10   7    5.19    3.53
  -8 -10  -8    1.35    4.18
   8  10   8   -1.99    4.42
   8  10  -9   -1.03    1.73
  -8 -10  -9   -0.80    3.95
  -8  10 -10  -10.33    6.17
   8  10  10   -2.74    4.19
   8  10 -10    2.71    1.74
  -8 -10 -10   -4.15    6.28
   8  10  11    6.59    9.14
   8  10 -11    3.77    2.85
  -8 -10 -11    1.35    5.84
  -8  10 -12   21.19   12.55
   8  10 -12   14.73    7.51
   8  10  12    4.28    5.10
  -8  10 -13   -2.82    3.54
   8  10 -13    3.58    5.10
   8  10  13   -6.84    6.90
  -8 -10 -13    3.85    7.25
  -8  10 -14   40.02   14.70
   8  10 -14   42.05   10.41
  -8 -10 -14   34.35    8.27
   8  10  14   36.78   11.80
  -8  10 -15    7.77    7.84
   8  10 -15   -4.02    5.04
  -8 -10 -15  -11.02    7.50
   8  10  15    0.81    4.81
  -8  10 -16   -3.72    1.57
   8  10 -16    5.49    8.02
  -8 -10 -16    2.42    2.96
   8  10  16   -5.39    4.06
   8  11   0   39.39   12.85
   8  11  -1   -0.29    6.03
   8  11   1    7.30    5.74
   8  11  -2    1.09    2.05
   8  11   2    6.20    6.81
   8  11   3   -2.08    3.42
   8  11  -3    4.90    2.59
   8  11   4   49.51   13.24
   8  11  -4   56.27   15.99
   8  11   5   -4.00    4.60
   8  11  -5   -6.10    7.63
   8  11   6   13.15    8.24
   8  11  -6    1.33    3.91
   8  11  -7    1.67    3.43
   8  11   7    1.00    1.19
  -8 -11  -8   17.08    7.78
   8  11  -8   20.05   10.35
   8  11   8   13.14    6.51
  -8 -11  -9   11.41    6.59
   8  11  -9    7.79    5.72
   8  11   9    4.61    4.29
   8  11  10   41.64   10.79
   8  11 -10   44.38   13.18
  -8 -11 -10   26.49   10.29
   8  11  11    4.47    4.81
   8  11 -11    7.01    6.63
  -8 -11 -11    5.07    7.02
  -8  11 -12   13.15   10.24
   8  11  12    9.51    7.84
   8  11 -12    3.67    2.17
  -8 -11 -12   13.41    5.66
  -8  11 -13   -5.96    7.61
   8  11 -13   -0.10    4.65
   8  11  13    9.19    8.52
  -8 -11 -13   -1.15    6.15
  -8  11 -14   26.79   11.91
   8  11 -14   19.44    8.75
   8  11  14   21.94    9.52
  -8 -11 -14   14.17    2.28
   8  12   0    2.91    5.75
   8  12  -1    6.14    6.59
   8  12   1   22.24   10.33
   8  12   2    3.67    5.43
   8  12  -2   -1.50    4.95
   8  12   3    0.34    3.71
   8  12  -3    3.90    6.32
   8  12   4    8.00    5.06
   8  12  -4   -5.06    4.76
   8  12   5    0.24    5.07
   8  12  -5   -1.25    5.34
   8  12   6    6.15    6.06
   8  12  -6    6.07    8.80
   8  12  -7    2.54    4.28
   8  12   7   -1.54    3.62
   8  12  -8    2.41    3.63
   8  12   8    4.37    3.26
   8  12  -9    2.00    5.08
   8  12   9   -4.52    6.99
  -8 -12 -10    2.43    2.49
   8  12 -10    1.61    0.77
   8  12  10    1.46    5.57
   8  13   0    5.72    3.82
   8  13  -1    6.10    6.88
   8  13   1    2.96    2.06
   8  13   2   -2.01    2.93
   8  13  -2    2.31    3.92
   8  13   3    8.34    4.25
   8  13  -3   -2.72    5.16
   8  13   4    7.33    8.94
   8  13  -4    2.75    2.79
  -9   0  -2    3.38    3.15
  -9   0  -3    3.67    2.13
  -9   0  -4    7.86    6.65
  -9   0  -5   -4.68    5.10
  -9   0  -6   57.13   13.59
  -9   0  -7   -2.34    6.12
  -9   0  -8   18.94    9.17
  -9   0  -9    4.57    7.56
  -9   0 -10    3.34    5.29
  -9   0 -11   -5.04    7.29
  -9   0 -12    7.93    6.04
   9   0 -12   -2.30    2.89
  -9   0 -13    2.95    3.66
   9   0 -13    7.37    5.88
   9   0 -14   28.95   10.91
  -9   0 -14   27.11   10.36
   9   0 -15    2.51    2.68
  -9   0 -15    4.93    8.25
   9   0 -16   -2.27    2.04
  -9   0 -16    4.28    4.02
   9   0 -17    0.99    1.50
  -9   0 -17    1.09    4.75
   9   0 -18   32.23   10.88
  -9   0 -18   39.80   13.00
   9   0 -19    5.44    7.77
  -9   0 -19   -4.00    4.54
   9   0 -20   -1.79    6.35
  -9   0 -20    9.54    5.63
   9   0 -21    2.37    3.62
  -9   0 -21    0.40    7.13
   9   0 -21    0.08    3.71
   9   0 -22    7.71    5.21
  -9   0 -22    1.86    5.76
   9   0 -22    9.61    9.74
   9   0 -23    6.24    2.79
  -9   0 -23    4.10    6.49
   9   0 -23    1.93    3.83
  -9   1  -2  281.58   29.23
  -9  -1  -2  319.99   32.23
  -9   1  -3    4.78    3.37
  -9  -1  -3    3.56    0.52
  -9  -1  -4  155.99   23.36
  -9   1  -4  135.15   21.01
  -9  -1  -5   37.99   11.72
  -9   1  -5   42.34   11.96
  -9   1  -6   96.80   19.33
  -9  -1  -6   53.57   13.48
  -9  -1  -7    1.10    3.26
  -9   1  -7   -3.12    4.61
   9   1  -8  112.28   19.18
  -9  -1  -8  148.29   23.78
  -9   1  -8  119.35   21.12
   9   1  -9   73.84   15.01
  -9  -1  -9   83.75   18.51
  -9   1  -9   70.85   15.27
   9   1 -10   95.32   17.61
  -9  -1 -10   98.56   18.78
  -9   1 -10   50.60   13.87
  -9  -1 -11   16.88    7.85
  -9   1 -11    9.90    3.52
   9   1 -11    2.29    5.39
  -9  -1 -12   58.42   12.80
  -9   1 -12   72.41   15.14
   9   1 -12   71.29   15.69
  -9  -1 -13   47.79   13.94
  -9   1 -13   31.04   10.92
   9   1 -13   18.59    8.44
  -9  -1 -14    2.47    2.82
  -9   1 -14   10.09    6.62
   9   1 -14    2.33    5.95
  -9  -1 -15    3.35    4.44
  -9   1 -15    4.78    3.52
   9   1 -15    5.94    4.92
  -9  -1 -16   38.95   12.33
  -9   1 -16   44.85   13.40
   9  -1 -17    7.83    3.66
  -9  -1 -17    5.24    5.19
   9   1 -17   15.05    7.96
  -9   1 -17   17.69    7.97
   9  -1 -18    7.03    4.60
   9   1 -18    2.56    3.67
  -9  -1 -18   10.17    7.27
  -9   1 -18    6.83    5.15
   9  -1 -19   -7.10   10.03
   9   1 -19    6.84    5.64
  -9  -1 -19    1.27    1.10
  -9   1 -19   -3.01    5.32
   9  -1 -20    6.70    7.66
   9   1 -20   19.27    9.35
  -9  -1 -20   30.97   12.14
  -9   1 -20   24.26   11.33
   9  -1 -20    3.50    7.26
   9  -1 -21    0.11    6.55
   9   1 -21   -1.70    3.12
  -9  -1 -21   -6.75    5.77
  -9   1 -21    2.69    3.07
   9  -1 -21   -9.74    7.81
   9  -1 -22    4.22    5.84
   9   1 -22    3.90    3.31
  -9  -1 -22   11.72    6.42
  -9   1 -22   12.26    9.56
   9  -1 -22    7.74    8.60
   9   1 -22    2.64    1.58
   9  -1 -23   20.11   10.04
   9   1 -23   20.79    9.35
  -9  -1 -23    2.56    7.26
  -9   1 -23   14.76    2.64
   9  -1 -23   22.14   10.37
   9   1 -23    4.79    4.96
  -9   2  -2    5.27    7.24
  -9  -2  -2    7.43    4.77
   9   2  -3    3.08    3.35
  -9   2  -3   -2.38    2.85
  -9  -2  -3    1.16    1.29
   9   2  -4   -2.69    4.79
  -9  -2  -4    1.30    3.49
  -9   2  -4    0.08    3.71
   9   2  -5   13.77    5.18
  -9  -2  -5   29.80    9.80
  -9   2  -5   13.04    6.83
   9   2  -6   10.12    7.23
  -9  -2  -6    9.94    5.71
  -9   2  -6   16.10    9.06
   9   2  -7   28.95    8.52
  -9  -2  -7   14.89    9.63
  -9   2  -7   22.81    8.16
  -9  -2  -8    3.13    3.93
  -9   2  -8   11.39    6.61
   9   2  -8    2.76    3.91
  -9  -2  -9   24.63    9.69
  -9   2  -9   10.59    3.90
   9   2  -9   33.32    9.03
  -9  -2 -10   -2.26    3.92
  -9   2 -10    4.65    2.65
   9   2 -10   -0.49    1.59
  -9  -2 -11    1.31    1.08
  -9   2 -11   -3.98    3.47
   9   2 -11   -1.42    5.27
  -9  -2 -12    1.00    2.49
  -9   2 -12    0.53    1.31
   9   2 -12    2.66    3.39
  -9  -2 -13    3.63    3.66
  -9   2 -13   -2.64    1.63
   9   2 -13    1.46    2.06
  -9  -2 -14    4.55    4.74
  -9   2 -14    6.90    5.20
   9   2 -14    3.48    4.59
  -9  -2 -15   26.16    8.93
  -9   2 -15   24.39   10.05
   9   2 -15   36.25   12.10
  -9  -2 -16    0.02    5.79
  -9   2 -16    1.18    1.45
   9   2 -16   -1.48    4.52
  -9  -2 -17   22.29    9.16
  -9   2 -17   18.00    7.58
   9   2 -17   38.64   11.86
  -9  -2 -18   -8.53    8.17
  -9   2 -18    3.66    6.58
   9   2 -18    5.30    4.96
  -9  -2 -19    2.33    5.71
  -9   2 -19    1.39    4.56
   9   2 -19    7.84    6.46
   9  -2 -19   -4.63    7.36
  -9  -2 -20   -0.49    6.89
   9   2 -20   -3.77    5.40
  -9   2 -20   11.66    9.28
   9   2 -21    1.35    2.02
  -9  -2 -21    3.68    3.36
  -9   2 -21   -1.69    4.48
   9   2 -22   -6.30    6.15
  -9  -2 -22    6.03    4.05
  -9   2 -22   12.46    9.51
   9   2 -23    2.95    2.74
  -9  -2 -23   -1.25    3.35
  -9   2 -23    6.85    7.92
   9   2 -23   -0.82    1.41
   9   3   0   -1.76    1.35
   9   3  -1  164.74   20.98
   9   3   1  121.90   17.62
   9   3  -2    0.48    1.98
  -9  -3  -2    7.58    4.54
   9   3  -3   36.21    8.85
  -9  -3  -3   50.43   13.12
   9   3  -4   13.65    6.74
  -9   3  -4   25.08   11.80
  -9  -3  -4   11.27    7.41
  -9  -3  -5  139.96   22.71
  -9   3  -5  156.87   22.57
   9   3  -5   93.90   17.76
   9   3  -6    0.91    0.52
  -9   3  -6   -4.61    4.03
   9   3  -7    6.91    4.76
  -9  -3  -7    8.34    7.03
  -9   3  -7   -4.35    5.19
   9   3  -8    2.83    3.62
  -9  -3  -8    1.59    5.29
  -9   3  -8   -1.60    4.54
   9   3  -9  128.01   19.96
  -9   3  -9  137.60   22.35
  -9  -3 -10   34.02   12.25
  -9   3 -10   26.63    9.79
   9   3 -10   13.05    7.14
  -9  -3 -11    4.82    5.21
  -9   3 -11    9.39    3.10
   9   3 -11    7.37    5.32
  -9   3 -12    5.08    4.31
   9   3 -12    6.28    0.26
  -9  -3 -13   13.02    5.51
  -9   3 -13    2.31    4.11
   9   3 -13   16.74    5.94
  -9  -3 -14    4.10    2.18
  -9   3 -14    6.99    6.96
   9   3 -14    1.73    3.55
  -9  -3 -15   70.19   15.50
  -9   3 -15   43.32   12.42
   9   3 -15   74.05   16.02
  -9  -3 -16   -0.95    4.35
  -9   3 -16    4.41    6.47
   9   3 -16    6.93    5.26
  -9  -3 -17    4.73    1.41
  -9   3 -17   -3.59    4.14
   9   3 -17   -2.76    3.57
  -9   3 -18   -3.65    0.64
   9   3 -18    0.76    2.66
  -9  -3 -19   45.92   12.96
  -9   3 -19   30.30   12.37
   9   3 -19   45.35   11.88
  -9  -3 -20    7.36    5.28
  -9   3 -20   18.29    9.13
   9   3 -20   15.16    9.08
  -9  -3 -21   10.98    3.05
  -9   3 -21   13.91    7.19
   9   3 -21    0.05    2.22
  -9  -3 -22   15.08    7.60
   9   3 -22   15.84    6.85
  -9   3 -22   18.22    9.61
   9   4   0   -0.18    4.13
   9   4  -1    3.47    3.46
   9   4   1    5.02    3.81
  -9  -4  -2    4.12    7.27
   9   4  -2    2.89    2.00
   9   4   3   -4.62    4.65
   9   4  -3    1.41    1.88
  -9  -4  -3    5.17    5.48
   9   4   4    0.81    4.16
   9   4  -4   -0.60    2.15
  -9  -4  -4   -0.74    2.79
   9   4  -5   15.06    4.93
   9   4   5   26.40    9.45
  -9  -4  -5   16.33    8.13
   9   4  -6    6.87    4.03
  -9  -4  -6   16.07   10.27
   9   4  -7    1.59    3.80
  -9  -4  -7   10.76    7.42
   9   4  -8   58.12   13.86
  -9  -4  -8   44.55   15.08
   9   4  -9   17.89    9.18
  -9  -4  -9   10.25    7.07
   9   4 -10    1.34    0.67
  -9  -4 -10   -0.33    3.09
   9   4 -11    2.21    4.44
  -9  -4 -11    5.28    2.85
  -9  -4 -12   10.57    8.72
   9   4 -12   10.30    7.41
  -9  -4 -13    2.39    5.64
   9   4 -13    1.24    5.61
  -9  -4 -14   19.57    7.80
   9   4 -14   21.98    8.32
  -9  -4 -15    5.13    5.34
   9   4 -15   -1.02    3.53
  -9  -4 -16    5.38    7.43
   9   4 -16    0.25    3.81
  -9  -4 -17   -3.12    7.15
   9   4 -17    0.45    4.78
  -9  -4 -18   -6.30    6.30
   9   4 -18    3.88    7.59
  -9  -4 -19    2.11    4.32
   9   4 -19    1.73    5.27
  -9  -4 -20   11.31    7.85
   9   4 -20    0.29    6.71
  -9  -4 -21   -3.98    3.71
   9   4 -21   -4.80    9.36
  -9  -4 -22   -2.64    5.72
   9   4 -22    3.15    6.48
   9   5   0    0.75    2.22
   9   5  -1    1.93    1.27
   9   5   1   -1.35    2.21
   9   5   2   81.14   15.31
   9   5  -2   89.36   15.54
   9   5   3    5.60    3.75
  -9  -5  -3   14.54    6.03
   9   5  -3    9.55    4.95
   9   5   4    1.18    1.91
  -9  -5  -4   -0.96    5.28
   9   5  -4    1.40    3.37
   9   5   5   -1.93    4.91
   9   5  -5    7.37    3.66
  -9  -5  -5    1.42    4.51
   9   5  -6   34.06    9.36
  -9  -5  -6   35.00   11.97
   9   5   6   43.39   10.98
   9   5  -7    1.95    5.46
  -9  -5  -7   -1.53    3.13
   9   5   7    7.65    5.22
   9   5  -8   69.05   15.60
  -9  -5  -8   44.73   13.61
   9   5   8   57.67   12.91
   9   5  -9    6.98    2.62
  -9  -5  -9    6.72    1.39
   9   5 -10   38.62   11.77
  -9  -5 -10   49.76   15.41
   9   5 -11   15.09    6.53
  -9  -5 -11    5.60    8.12
   9   5 -12   54.49   13.79
  -9  -5 -12   53.70   15.86
   9   5 -13   19.97    9.09
  -9  -5 -13    5.61    7.37
  -9  -5 -14   17.57    7.37
   9   5 -14   12.43    6.50
  -9  -5 -15   20.16    9.17
   9   5 -15    1.73    3.53
   9   5 -16   81.70   18.33
  -9  -5 -16   87.98   18.44
  -9  -5 -17   -4.78    4.39
   9   5 -17   -3.76    6.43
  -9  -5 -18   11.85    6.63
   9   5 -18    5.68    4.75
  -9  -5 -19    7.24    3.52
   9   5 -19   -0.15    4.53
  -9  -5 -20    0.16    4.75
   9   5 -20   27.11   12.16
  -9  -5 -21    7.37    5.48
   9   5 -21    0.71    5.04
   9   6   0    1.45    4.74
   9   6   1    1.87    3.04
   9   6  -1    7.08    3.99
   9   6   2    0.02    1.48
   9   6  -2    2.30    1.86
   9   6   3    6.59    2.59
   9   6  -3    2.90    1.31
   9   6   4   -4.64    5.22
  -9  -6  -4   -4.45    5.25
   9   6  -4   -1.98    2.59
   9   6   5    6.39    5.58
  -9  -6  -5    2.21    4.29
   9   6  -5    1.82    2.94
   9   6  -6    0.29    2.31
  -9  -6  -6    6.17    7.22
   9   6   6   -2.81    1.92
   9   6  -7    1.46    4.85
  -9  -6  -7    2.88    3.03
   9   6   7   -2.81    4.64
   9   6  -8   15.77    8.42
  -9  -6  -8    8.85    5.04
   9   6   8   11.48    4.94
   9   6  -9    8.57    5.21
  -9  -6  -9    9.28    4.28
   9   6   9   -1.16    3.90
   9   6  10   -2.45    1.83
   9   6 -10   -2.88    3.73
  -9  -6 -10    4.90    4.28
   9   6 -11    3.37    2.83
   9   6  11    0.47    4.25
  -9  -6 -11   -0.03    2.08
   9   6 -12   -1.08    0.84
   9   6  12    3.55    3.97
  -9  -6 -12    3.32    5.65
   9   6 -13    2.64    2.11
  -9  -6 -13    4.93    1.98
   9   6 -14   -1.43    0.99
  -9  -6 -14    0.78    1.21
   9   6 -15    2.26    4.68
  -9  -6 -15   -2.77    2.30
  -9  -6 -16    3.39    6.42
   9   6 -16    1.19    2.55
  -9  -6 -17    6.92    4.31
   9   6 -17    2.04    1.45
  -9  -6 -18   12.28    5.30
   9   6 -18   11.51    7.62
  -9  -6 -19   -0.44    3.90
   9   6 -19   -1.44    5.07
  -9  -6 -20    2.28    4.24
   9   6 -20   -1.41    3.67
   9   7   0   -4.37    4.70
   9   7   1   16.83    7.97
   9   7  -1   14.13    6.56
   9   7   2   25.56    9.17
   9   7  -2    8.06    3.60
   9   7   3   98.88   19.22
   9   7  -3   61.37   14.45
   9   7   4    4.56    1.90
  -9  -7  -4    9.04    6.96
   9   7  -4   -5.47    4.74
   9   7   5   55.56   14.16
  -9  -7  -5   54.31   14.55
   9   7  -5   52.76   13.78
   9   7  -6   24.22    8.89
  -9  -7  -6   13.25   11.61
   9   7   6   10.29    4.80
   9   7  -7    5.46    1.15
  -9  -7  -7    2.43    3.86
   9   7   7    0.56    3.50
   9   7  -8    5.33    6.39
  -9  -7  -8    3.29    0.89
   9   7   8    4.69    2.84
   9   7  -9   50.92   13.69
  -9  -7  -9   79.86   17.79
   9   7   9   56.38   13.71
   9   7 -10   12.42    5.98
  -9  -7 -10    0.28    3.41
   9   7  11   -1.78    2.79
   9   7 -11    1.02    6.93
  -9  -7 -11    7.10   10.12
   9   7 -12   15.75    7.61
   9   7  12   12.10    7.53
  -9  -7 -12   24.81   10.59
  -9  -7 -13  105.01   21.71
   9   7 -13   98.39   19.63
   9   7  13   87.97   17.50
   9   7 -14    1.80    1.55
  -9  -7 -14   -3.43    3.88
   9   7  14    3.81    7.23
   9   7 -15   26.35    9.39
  -9  -7 -15   34.01   13.31
   9   7  15   20.84    7.89
   9   7 -16   22.76    8.85
  -9  -7 -16   34.76   13.04
  -9  -7 -17   42.44   14.60
   9   7 -17   33.80   11.31
  -9  -7 -18    0.59    3.53
   9   7 -18    7.38    6.71
  -9  -7 -19    7.41    6.75
   9   7 -19   10.83    6.08
   9   8   0    0.12    3.70
   9   8   1    4.30    5.99
   9   8  -1    2.53    1.68
   9   8   2    3.72    7.79
   9   8  -2    5.93    5.85
   9   8   3    7.78    7.05
   9   8  -3    8.59    7.29
   9   8   4   -0.81    3.77
   9   8  -4    3.64    5.80
  -9  -8  -5   15.63    7.03
   9   8   5   15.45    6.12
  -9  -8  -6   14.71    6.90
   9   8  -6    5.42    6.25
   9   8   6    8.29    4.55
   9   8  -7   11.05    8.36
  -9  -8  -7   -3.39    6.37
   9   8   7   -0.74    3.52
   9   8  -8    4.44    5.48
  -9  -8  -8    2.61    8.22
   9   8   8   -2.30    4.15
   9   8  -9    6.85    5.75
  -9  -8  -9   10.79    5.41
   9   8   9    4.52    4.20
   9   8 -10    0.63    3.94
  -9  -8 -10    0.37    3.75
   9   8  10   -0.45    2.89
   9   8  11   -4.48    6.95
   9   8 -11   -2.42    4.52
  -9  -8 -11   -5.42    3.62
   9   8  12    2.83    2.80
   9   8 -12    0.94    2.82
  -9  -8 -12   -0.96    2.69
   9   8 -13   -2.04    3.22
   9   8  13    9.90    8.71
  -9  -8 -13   -2.10    5.45
   9   8 -14    1.83    2.77
   9   8  14    5.18    6.18
  -9  -8 -14   14.32   10.60
   9   8 -15    4.74    4.94
  -9  -8 -15   13.09    7.25
   9   8  15   25.94   10.24
   9   8 -16    0.12    2.44
  -9  -8 -16    3.00    6.48
   9   8  16    2.46    4.93
   9   8 -17    5.12    1.40
  -9  -8 -17   10.18    6.80
   9   8  17   -0.91    4.28
   9   9   0   -2.47    1.69
   9   9   1   27.63    9.96
   9   9  -1   27.64    9.70
   9   9   2   12.57    6.64
   9   9  -2   12.23    4.10
   9   9   3   11.47    7.31
   9   9  -3    7.87    7.28
   9   9   4    8.27    7.79
   9   9  -4   -2.56    2.83
   9   9   5    2.98    6.04
   9   9  -5   14.10    8.96
  -9  -9  -6   50.07   15.31
   9   9   6   47.92   13.01
   9   9  -6   64.10   16.05
  -9  -9  -7   -0.05    1.30
   9   9   7    8.52    8.37
   9   9  -8    3.75    4.76
  -9  -9  -8    7.85    7.97
   9   9   8   11.15    6.28
   9   9  -9   70.24   16.96
  -9  -9  -9   60.65   16.38
   9   9   9   28.65   10.18
   9   9 -10    2.20    7.48
  -9  -9 -10   -5.35    7.00
   9   9  10    0.42    4.73
   9   9  11    7.60    3.65
   9   9 -11   -0.74    5.51
  -9  -9 -11   -7.16    5.03
   9   9  12   11.79    7.20
   9   9 -12    5.91    1.80
  -9  -9 -12   17.87    9.35
   9   9 -13   18.69    7.53
   9   9  13   49.38   13.18
  -9  -9 -13   28.46   10.32
   9   9 -14    3.49    6.31
   9   9  14    4.38    4.56
  -9  -9 -14    2.20    5.57
   9   9 -15   15.92    8.29
   9   9  15   14.43    7.93
  -9  -9 -15   16.22   11.09
   9  10   0   -4.31    5.39
   9  10   1    4.95    4.84
   9  10  -1   -2.27    5.00
   9  10   2    1.79    3.68
   9  10  -2   -2.75    1.84
   9  10   3    2.76    3.94
   9  10  -3    1.78    1.00
   9  10   4   20.39    9.05
   9  10  -4    8.78    2.53
   9  10   5    2.40    4.86
   9  10  -5    3.21    1.39
   9  10   6   -3.49    4.10
   9  10  -6    1.69    3.33
   9  10  -7   -2.11    3.65
   9  10   7    3.81    5.61
  -9 -10  -8   -0.83    6.37
   9  10  -8    4.28    4.94
   9  10   8   -4.24    4.76
   9  10  -9   10.04    6.59
  -9 -10  -9   21.60   10.63
   9  10   9   15.96    4.51
   9  10 -10    0.50    0.93
  -9 -10 -10    0.98    3.36
   9  10  10   -1.42    3.84
   9  10 -11   11.06    9.54
  -9 -10 -11    8.09    3.35
   9  10  11   -2.13    1.91
   9  10  12   -5.18    3.64
   9  10 -12   -1.58    3.25
  -9 -10 -12   -2.94    6.40
   9  10  13    0.45    2.26
   9  10 -13    7.89    4.23
  -9 -10 -13   -0.38    8.61
   9  11   0   -1.63    3.17
   9  11   1    0.05    4.84
   9  11  -1    0.94    1.25
   9  11   2   38.46   11.84
   9  11  -2   24.64   11.22
   9  11   3   21.10    8.18
   9  11  -3   11.65    5.93
   9  11   4    0.62    0.59
   9  11  -4   -2.45    5.70
   9  11   5   -0.57    2.84
   9  11  -5    4.72    4.47
   9  11   6    5.66    3.35
   9  11  -6    0.87    3.35
   9  11   7   -5.38    6.74
   9  11  -7    1.17    3.49
   9  11  -8   11.80    6.88
   9  11   8   17.25    9.44
   9  11  -9   16.00    9.93
  -9 -11  -9   18.73    6.60
   9  11   9   16.88    8.57
   9  12   0   -0.78    1.83
   9  12   1    3.58    7.32
   9  12  -1    1.52   12.01
   9  12   2    1.39    4.97
   9  12  -2   -2.18    4.94
   9  12   3   13.13    5.63
   9  12  -3   -1.57    4.82
 -10   0  -3    0.48    4.74
 -10   0  -4   35.50   11.28
 -10   0  -5    2.35    3.74
 -10   0  -6   -0.28    4.33
 -10   0  -7    0.12    1.22
 -10   0  -8   19.42    7.60
 -10   0  -9    1.38    3.87
 -10   0 -10   13.16    8.15
 -10   0 -11   -2.30    5.68
 -10   0 -12   44.38   12.93
 -10   0 -13    0.02    2.85
 -10   0 -14    8.40    3.91
 -10   0 -15   -3.34    4.46
 -10   0 -16   -0.85    3.47
 -10   0 -17   -1.93    4.79
 -10   0 -18   37.24   13.24
 -10   0 -19    2.98    6.47
 -10   0 -20   -0.43    2.93
 -10   0 -21   -1.05    2.68
 -10   1  -3    9.87    7.34
 -10  -1  -3   11.40    5.25
 -10   1  -4   23.86    8.66
 -10  -1  -4   56.26   14.68
 -10  -1  -5   14.22    8.21
 -10   1  -5    6.17    3.61
 -10  -1  -6   16.60    8.67
 -10   1  -6   12.89    6.39
 -10  -1  -7   45.81   13.50
 -10   1  -7   29.57   10.45
 -10  -1  -8   48.12   12.60
 -10   1  -8   31.71   11.04
 -10  -1  -9    7.65    7.10
 -10   1  -9   14.94    6.75
 -10  -1 -10   32.32   12.92
 -10   1 -10   20.30    9.41
 -10  -1 -11   55.93   14.33
 -10   1 -11   38.15   11.83
 -10  -1 -12    9.96    6.77
 -10   1 -12   -3.00    3.57
 -10  -1 -13    9.71    6.42
 -10   1 -13   10.09    6.87
 -10  -1 -14    8.23    6.62
 -10   1 -14   10.94    6.62
 -10  -1 -15    2.29    4.94
 -10   1 -15    6.50    4.56
 -10  -1 -16    1.12    3.99
 -10   1 -16    3.90    5.34
 -10  -1 -17    7.45    6.70
 -10   1 -17   21.28   13.21
 -10  -1 -18   29.70   11.20
 -10   1 -18   11.47    6.72
 -10  -1 -19   -0.81    1.74
 -10   1 -19   -9.07   10.27
 -10  -1 -20    6.06    9.21
 -10   1 -20    8.60    5.05
 -10   2  -3    4.52    6.02
 -10  -2  -3   -0.13    2.31
 -10   2  -4   19.82    7.34
 -10  -2  -4   44.64   13.52
 -10   2  -5    7.63    5.36
 -10  -2  -5    0.73    4.60
 -10  -2  -6    2.18    4.36
 -10   2  -6    6.39    4.33
 -10  -2  -7    0.48    2.50
 -10   2  -7    5.36    3.46
 -10  -2  -8   29.49   11.19
 -10   2  -8    5.68    3.86
 -10  -2  -9    2.82    3.75
 -10   2  -9    2.29    4.12
 -10  -2 -10    7.17    4.67
 -10   2 -10   37.18   10.83
 -10  -2 -11    8.59    5.17
 -10   2 -11   30.41   10.82
 -10  -2 -12    6.16    4.44
 -10   2 -12    6.22    7.27
 -10  -2 -13    7.82    6.49
 -10   2 -13    5.25    6.02
 -10  -2 -14   -5.81    7.51
 -10   2 -14   13.47    7.41
 -10  -2 -15   -0.91    1.01
 -10   2 -15   -3.19    6.32
 -10  -2 -16   -3.69    2.76
 -10   2 -16    2.71    3.65
 -10  -2 -17    3.01    7.44
 -10   2 -17    0.82    4.15
 -10  -2 -18   -2.06    3.52
 -10   2 -18   -0.08    5.83
  10   2 -18   12.06    7.41
 -10  -2 -19   27.48    8.80
 -10   2 -19   17.85    8.71
  10   2 -19   12.72    7.08
  10   2 -20    1.06    8.63
 -10  -2 -20    3.72    7.41
 -10   2 -20    4.17    5.00
 -10  -3  -3   66.63   16.29
 -10  -3  -4    8.43    7.25
 -10  -3  -5   37.40   10.94
 -10  -3  -6    3.38    6.29
 -10  -3  -7  131.45   22.91
 -10  -3  -8    5.04    4.41
 -10  -3  -9    5.76    5.81
 -10  -3 -10    1.97    7.03
 -10  -3 -11   18.44    8.15
 -10  -3 -12    7.61    5.97
  10   3 -12    0.14    3.11
 -10  -3 -13   22.30    9.59
  10   3 -13   23.69    9.73
 -10  -3 -14    2.48    2.50
  10   3 -14   -2.47    2.89
 -10  -3 -15   42.83   14.70
  10   3 -15   26.40    9.76
 -10  -3 -16    0.89    4.25
  10   3 -16    5.81    6.97
 -10  -3 -17   28.75   10.11
  10   3 -17    5.54    5.84
 -10  -3 -18    5.22    6.49
  10   3 -18   -7.96    9.91
 -10  -3 -19   30.86    9.97
  10   3 -19   12.81    9.32
 -10  -3 -20    5.41    3.20
  10   3 -20    8.58    7.20
 -10  -4  -4    3.51    6.15
 -10  -4  -5    1.67    4.74
 -10  -4  -6   -4.08    6.89
  10   4  -7   20.87    8.83
 -10  -4  -7   35.88   11.80
  10   4  -8    6.06    4.78
 -10  -4  -8    1.37    6.82
  10   4  -9    3.08    3.07
 -10  -4  -9    6.59    6.00
  10   4 -10   -0.33    6.47
 -10  -4 -10   -5.26    6.82
 -10  -4 -11    9.60    7.36
  10   4 -11   -3.06    4.00
 -10  -4 -12   21.60    8.62
  10   4 -12    3.78    1.77
 -10  -4 -13   33.47   11.18
  10   4 -13   15.53    6.75
 -10  -4 -14   -3.29    1.15
  10   4 -14    0.19    6.13
 -10  -4 -15   -1.59    3.20
  10   4 -15    6.61    7.01
 -10  -4 -16    8.95    6.98
  10   4 -16   -4.97    6.81
 -10  -4 -17   17.32    9.38
  10   4 -17    2.39    8.07
 -10  -4 -18   -0.57    3.27
  10   4 -18    1.94    5.41
 -10  -4 -19   -1.56    4.03
  10   4 -19    7.14    3.00
  10   5  -3    1.17    1.45
  10   5  -4   45.15   12.32
 -10  -5  -4   33.93   11.00
  10   5  -5    1.17    4.89
 -10  -5  -5    4.54    1.07
  10   5  -6   -2.45    4.81
 -10  -5  -6   -4.17    2.33
  10   5  -7   -2.85    2.60
 -10  -5  -7   -3.12    3.52
  10   5  -8   33.77   11.71
 -10  -5  -8   33.38   12.81
  10   5  -9    4.82    3.35
 -10  -5  -9   10.16    7.71
  10   5 -10   64.06   15.37
 -10  -5 -10   79.08   17.59
  10   5 -11   -1.64    0.96
 -10  -5 -11    2.74    5.71
  10   5 -12    8.56    5.86
 -10  -5 -12    4.23    5.47
 -10  -5 -13    4.67    6.35
  10   5 -13    4.78    6.08
 -10  -5 -14   26.71   11.35
  10   5 -14   12.30    5.52
 -10  -5 -15   -4.54    6.29
  10   5 -15    2.76    5.20
 -10  -5 -16    0.41    6.40
  10   5 -16   -4.10    7.16
 -10  -5 -17   -1.35    3.60
  10   5 -17    1.62    4.64
 -10  -5 -18   -1.72    2.38
  10   5 -18   14.77    8.22
  10   6   0   74.67   15.29
  10   6  -1    1.49    2.54
  10   6   1    4.42    5.59
  10   6  -2    0.54    4.63
  10   6  -3    1.60    0.84
  10   6  -4   34.93   10.93
  10   6  -5    5.20    4.15
 -10  -6  -5   12.41    8.27
  10   6  -6    2.15    4.99
 -10  -6  -6   -0.88    3.03
  10   6  -7   -3.06    6.42
 -10  -6  -7    0.57    2.52
  10   6  -8   15.51   10.28
 -10  -6  -8    1.17    1.91
  10   6  -9   12.15    8.54
 -10  -6  -9    3.73    5.07
  10   6 -10   46.71   14.90
 -10  -6 -10   58.73   15.88
  10   6 -11   -4.22    5.47
 -10  -6 -11   -1.13    2.49
  10   6 -12   -5.92    5.00
 -10  -6 -12   -5.04    7.56
  10   6 -13   -3.05    5.23
 -10  -6 -13    2.85    1.62
 -10  -6 -14   -2.59    0.60
  10   6 -14   12.50    9.36
 -10  -6 -15    5.55    6.09
  10   6 -15   13.63    9.69
 -10  -6 -16    2.69    1.48
  10   6 -16   -7.28    9.01
 -10  -6 -17   -3.75    5.00
  10   6 -17   -2.82    5.18
  10   7   0    4.81    1.16
  10   7   1   51.67   13.80
  10   7  -1   85.38   18.28
  10   7  -2    9.40    5.01
  10   7   2    1.83    2.20
  10   7   3   16.85    5.65
  10   7  -3   24.76    9.31
  10   7   4    5.82    3.46
  10   7  -4    2.21    5.11
  10   7   5   -2.07    4.18
  10   7  -5    1.84    1.03
  10   7  -6   -2.72    0.65
 -10  -7  -6    0.02    3.71
  10   7  -7   22.37    9.26
 -10  -7  -7   19.84    7.69
  10   7  -8    9.08    8.91
 -10  -7  -8    0.79    2.62
  10   7  -9    6.90    4.14
 -10  -7  -9   -5.38    6.05
  10   7 -10    8.20    7.62
 -10  -7 -10    1.98    3.88
  10   7 -11   41.88   10.84
 -10  -7 -11   78.03   19.38
  10   7 -12    3.91    3.15
 -10  -7 -12    8.87    5.91
  10   7 -13   28.59   11.76
 -10  -7 -13    4.46    4.43
  10   7 -14   -0.99    6.74
 -10  -7 -14   -2.23    3.10
  10   7 -15   19.75   10.06
 -10  -7 -15    9.47    2.95
  10   8   0   16.43    8.51
  10   8  -1    5.80    5.04
  10   8   1   -0.11    5.51
  10   8   2   -5.15    6.06
  10   8  -2   10.15    7.33
  10   8   3   -8.26   10.39
  10   8  -3    3.42    1.67
  10   8   4   -1.04    2.09
  10   8  -4   -0.44    4.66
  10   8   5   12.33    8.21
  10   8  -5    5.59    7.33
  10   8   6   22.72   12.33
  10   8  -6    3.35    4.41
  10   8  -7   38.41   12.57
  10   8   7   21.62    8.88
 -10  -8  -7   13.35    5.37
  10   8  -8   -2.70    2.25
 -10  -8  -8    9.23    9.02
  10   8  -9   -0.44    4.32
 -10  -8  -9    0.33    6.51
  10   8 -10   -2.96    2.35
 -10  -8 -10   -3.59    4.98
  10   8 -11   24.43    8.39
 -10  -8 -11   23.82   10.58
  10   8 -12    5.81    7.04
 -10  -8 -12   11.97    5.08
  10   8 -13   10.07    7.31
 -10  -8 -13    7.05    6.08
  10   8 -14    0.89    3.59
 -10  -8 -14   -1.45    1.25
  10   9   0   49.61   15.96
  10   9  -1    1.75    4.93
  10   9   1    1.06    0.97
  10   9   2    4.62    5.59
  10   9  -2   -1.73    6.10
  10   9   3   16.90    9.15
  10   9  -3   23.65   10.07
  10   9   4   21.52   10.90
  10   9  -4   28.10   11.28
  10   9   5    8.06    8.93
  10   9  -5    0.69    4.04
  10   9   6   -4.66    8.25
  10   9  -6   -0.93    2.08
  10   9  -7   38.18   12.22
  10   9   7   23.33    9.30
  10   9  -8    0.69    6.46
 -10  -9  -8    9.79    6.41
  10   9   8   15.44    8.53
  10   9  -9    2.03    5.22
 -10  -9  -9    5.16    6.23
  10   9   9    0.97    4.72
  10   9 -10   20.59   12.02
 -10  -9 -10    7.07    4.12
  10   9  10    6.77    6.75
  10   9 -11    5.88    4.01
 -10  -9 -11   12.76    8.67
  10  10   0    1.68    2.92
  10  10  -1    2.16    1.02
  10  10   1    4.23    2.74
  10  10   2   -0.15    3.67
  10  10  -2    3.37    6.34
  10  10   3    5.72    7.99
  10  10  -3   11.13    7.86
  10  10   4   -0.96    3.96
  10  10  -4    0.31    3.14
  10  10   5   -1.76    5.38
  10  10  -5    1.57    4.68
  10  10   6   -1.34    4.98
  10  10  -6   -3.95    5.80
  10  10   7    6.93    7.03
  10  10  -7    0.49    3.95
 -11   0  -4   29.70   12.60
 -11   0  -5   -4.61    7.36
 -11   0  -6   25.07   10.66
 -11   0  -7    2.44    4.41
 -11   0  -8    5.49    6.36
 -11   0  -9   -4.75    3.51
 -11   0 -10   23.29   11.33
 -11   0 -11    8.70    7.99
 -11   0 -12    5.66    6.13
 -11   0 -13   -1.97    6.80
 -11   0 -14   21.16   12.29
 -11   0 -15    3.81    1.40
 -11   0 -16   58.83   15.30
 -11   0 -17   -0.77    2.69
 -11  -1  -4    1.55    2.25
 -11   1  -5    1.86    1.20
 -11  -1  -5   -1.48    1.05
 -11   1  -6   11.15    6.95
 -11  -1  -6   14.07    7.11
 -11  -1  -7    0.41    5.01
 -11   1  -7    9.78    6.21
 -11  -1  -8   -2.79    3.27
 -11   1  -8    3.40    6.76
 -11  -1  -9   -0.74    3.60
 -11   1  -9   -5.14    6.19
 -11  -1 -10   25.05   10.19
 -11   1 -10   12.58    5.62
 -11  -1 -11    6.25    5.41
 -11   1 -11   -0.86    2.52
 -11  -1 -12    1.34    4.63
 -11   1 -12    2.34    2.53
 -11  -1 -13   15.59    9.92
 -11   1 -13    8.17    6.83
 -11  -1 -14   12.35    6.25
 -11   1 -14    2.46    0.86
 -11  -1 -15    2.04    3.18
 -11   1 -15    0.65    6.38
 -11  -1 -16    6.49    7.92
 -11   1 -16    6.33    6.36
 -11  -1 -17   -0.45    2.10
 -11   1 -17    5.58    4.26
 -11  -2  -5   15.64    8.00
 -11  -2  -6    1.72    3.03
 -11  -2  -7    1.09    3.99
 -11  -2  -8   20.08    9.92
 -11  -2  -9   19.86   11.22
 -11  -2 -10    7.42    4.86
 -11  -2 -11   35.32   10.04
 -11  -2 -12    4.89    5.52
 -11  -2 -13    6.84    4.78
 -11  -2 -14    5.76    8.14
 -11  -2 -15    1.51    0.80
 -11  -2 -16    4.35    7.51
 -11  -2 -17   29.36    9.74
 -11  -3  -5   11.89    6.75
 -11  -3  -6    1.86    5.45
 -11  -3  -7    1.42    2.43
 -11  -3  -8    3.35    5.53
 -11  -3  -9    2.51    4.85
 -11  -3 -10   11.94    6.06
 -11  -3 -11   -1.92    3.06
 -11  -3 -12   -6.85    9.01
 -11  -3 -13   15.05    9.02
 -11  -3 -14   14.82   10.65
 -11  -3 -15   -2.35    6.60
 -11  -3 -16    7.30    8.87
 -11  -4  -5    2.88    7.94
 -11  -4  -6   -8.04    7.54
 -11  -4  -7   -1.43    3.89
 -11  -4  -8   -0.03    4.90
 -11  -4  -9    7.16    6.52
 -11  -4 -10   47.51   14.58
 -11  -4 -11   14.37   10.28
 -11  -4 -12    2.91    4.11
 -11  -4 -13    3.65    0.62
 -11  -4 -14   13.46   11.46
 -11  -4 -15   11.38    5.34
 -11  -5  -6    9.50    1.64
 -11  -5  -7    1.40    6.75
 -11  -5  -8   14.95    8.48
 -11  -5  -9   11.83    8.26
 -11  -5 -10   -2.02    5.45
 -11  -5 -11    2.75    2.37
 -11  -5 -12   -8.15    9.99
 -11  -5 -13   10.98    8.85
 -11  -5 -14    3.23    4.80
 -11  -6  -6    5.20    2.73
 -11  -6  -7    3.40    7.65
 -11  -6  -8    4.74    4.99
 -11  -6  -9   10.65    6.84
 -11  -6 -10    7.58    7.91
 -11  -6 -11   -7.53    9.72
 -11  -6 -12   58.47   16.43
 -11  -6 -13    6.62   10.62
 -11  -7  -7    6.47    5.28
 -11  -7  -8   -5.05    6.62
 -11  -7  -9    6.21    5.88
  11   7 -10    2.43    8.26
 -11  -7 -10    0.74    5.59
  11   7 -11   -2.85    2.92
 -11  -7 -11   -0.71    4.64
  11   8  -6   14.53    9.68
  11   8  -7   -0.97    5.24
  11   8  -8   -0.37    3.11
 -11  -8  -8   -0.11    4.27
 -12   0  -6   -5.33    4.61
 -12   0  -7    2.21    5.59
 -12   0  -8   52.51   14.67
 -12   0  -9    2.97    5.02
 -12   0 -10   56.36   16.41
 -12   0 -11   12.88   10.51
 -12   0 -12   27.35    8.68
 -12  -1  -6    1.02    4.76
 -12  -1  -7   -1.21    2.09
 -12  -1  -8    5.74    8.91
 -12  -1  -9    0.99    4.73
 -12  -1 -10   -4.98    7.89
 -12  -1 -11   14.50    9.89
 -12  -1 -12    8.27    3.96
 -12  -2  -6   13.68   11.53
 -12  -2  -7   43.32   13.36
 -12  -2  -8   -4.49    4.66
 -12  -2  -9   12.75    9.81
 -12  -2 -10    4.51    2.67
 -12  -2 -11   37.92   14.30
 -12  -2 -12    3.75    5.37
 -12  -3  -7    5.15    7.12
 -12  -3  -8   23.94   11.40
 -12  -3  -9    0.89    3.46
 -12  -3 -10   -6.70    9.63
 -12  -3 -11    0.41    6.20
 -12  -4  -7   24.91   12.18
 -12  -4  -8   17.63    7.79
 -12  -4  -9   27.27   12.64
 -12  -4 -10    6.14    5.78
 -12  -5  -7   -2.47    0.68
 -12  -5  -8   10.89    8.75
   0   0   0    0.00    0.00

TITL 030_300K_SulfamerazineF2_ in Pbca
REM Pbca (#61 in standard setting)
CELL 0.68890   9.144500  11.712987  22.886223  90.0000  90.0000  90.0000
ZERR    8.00   0.000299   0.000277   0.000478   0.0000   0.0000   0.0000
LATT  1
SYMM -x+1/2,-y, z+1/2
SYMM -x, y+1/2,-z+1/2
SYMM  x+1/2,-y+1/2,-z
SFAC C H N O S
UNIT 88.00 96.00 32.00 16.00 8.00
TREF
HKLF 4
END
_computing_structure_solution     'SHELXT 2014/5 (Sheldrick, 2014)'
;
_shelx_hkl_checksum              25075
loop_
_space_group_symop_operation_xyz
'x, y, z'
'-x+1/2, -y, z+1/2'
'-x, y+1/2, -z+1/2'
'x+1/2, -y+1/2, -z'
'-x, -y, -z'
'x-1/2, y, -z-1/2'
'x, -y-1/2, z-1/2'
'-x-1/2, y-1/2, z'
loop_
_atom_site_label
_atom_site_type_symbol
_atom_site_fract_x
_atom_site_fract_y
_atom_site_fract_z
_atom_site_U_iso_or_equiv
_atom_site_adp_type
_atom_site_occupancy
_atom_site_site_symmetry_order
_atom_site_calc_flag
_atom_site_refinement_flags_posn
_atom_site_refinement_flags_adp
_atom_site_refinement_flags_occupancy
_atom_site_disorder_assembly
_atom_site_disorder_group
S1 S 0.33335(7) 0.34682(5) 0.38981(2) 0.04124(19) Uani 1 1 d . . . . .
O2 O 0.1987(2) 0.39707(16) 0.40962(8) 0.0509(5) Uani 1 1 d . . . . .
O1 O 0.3433(2) 0.22526(14) 0.38624(8) 0.0547(5) Uani 1 1 d . . . . .
N4 N 0.6660(2) 0.42640(19) 0.48530(9) 0.0461(5) Uani 1 1 d . . . . .
N3 N 0.6552(2) 0.28659(17) 0.40938(10) 0.0463(5) Uani 1 1 d . . . . .
N2 N 0.4519(2) 0.39436(19) 0.43779(10) 0.0449(5) Uani 1 1 d . . . . .
N1 N 0.4578(4) 0.5339(3) 0.15589(12) 0.0657(8) Uani 1 1 d . . . . .
C1 C 0.3777(3) 0.4048(2) 0.32208(10) 0.0412(5) Uani 1 1 d . . . . .
C2 C 0.4496(3) 0.3394(2) 0.28058(12) 0.0543(7) Uani 1 1 d . . . . .
H2 H 0.4783 0.2653 0.2896 0.071 Uiso 1 1 calc R U . . .
C3 C 0.4786(4) 0.3837(2) 0.22632(12) 0.0593(8) Uani 1 1 d . . . . .
H3 H 0.5290 0.3395 0.1992 0.077 Uiso 1 1 calc R U . . .
C4 C 0.4343(3) 0.4936(2) 0.21094(11) 0.0487(6) Uani 1 1 d . . . . .
C5 C 0.3625(3) 0.5588(2) 0.25368(12) 0.0513(7) Uani 1 1 d . . . . .
H5 H 0.3330 0.6328 0.2448 0.067 Uiso 1 1 calc R U . . .
C6 C 0.3350(3) 0.5153(2) 0.30855(11) 0.0463(6) Uani 1 1 d . . . . .
H6 H 0.2879 0.5599 0.3364 0.060 Uiso 1 1 calc R U . . .
C7 C 0.5976(3) 0.3667(2) 0.44341(10) 0.0409(5) Uani 1 1 d . . . . .
C8 C 0.8074(3) 0.4018(3) 0.49262(12) 0.0527(7) Uani 1 1 d . . . . .
H8 H 0.8599 0.4414 0.5209 0.069 Uiso 1 1 calc R U . . .
C9 C 0.8778(3) 0.3212(2) 0.46029(12) 0.0545(7) Uani 1 1 d . . . . .
H9 H 0.9764 0.3054 0.4662 0.071 Uiso 1 1 calc R U . . .
C10 C 0.7978(3) 0.2633(2) 0.41822(12) 0.0505(6) Uani 1 1 d . . . . .
C11 C 0.8658(4) 0.1712(3) 0.38199(16) 0.0738(10) Uani 1 1 d . . . . .
H11A H 0.8214 0.0993 0.3914 0.096 Uiso 1 1 calc R U . . .
H11B H 0.9687 0.1677 0.3900 0.096 Uiso 1 1 calc R U . . .
H11C H 0.8508 0.1877 0.3413 0.096 Uiso 1 1 calc R U . . .
H1N2 H 0.420(3) 0.441(2) 0.4573(12) 0.044(8) Uiso 1 1 d . . . . .
H1N1 H 0.505(4) 0.492(3) 0.1356(17) 0.073(11) Uiso 1 1 d . . . . .
H2N1 H 0.462(5) 0.604(4) 0.1477(19) 0.108(15) Uiso 1 1 d . . . . .
loop_
_atom_site_aniso_label
_atom_site_aniso_U_11
_atom_site_aniso_U_22
_atom_site_aniso_U_33
_atom_site_aniso_U_23
_atom_site_aniso_U_13
_atom_site_aniso_U_12
S1 0.0424(4) 0.0437(3) 0.0377(3) -0.0035(2) 0.0000(2) -0.0047(3)
O2 0.0405(11) 0.0673(12) 0.0450(9) -0.0023(8) 0.0009(8) -0.0033(9)
O1 0.0753(15) 0.0390(9) 0.0497(10) -0.0022(7) 0.0002(9) -0.0100(9)
N4 0.0421(13) 0.0535(12) 0.0427(11) -0.0054(9) -0.0033(9) 0.0057(10)
N3 0.0477(14) 0.0467(11) 0.0445(11) -0.0027(8) 0.0026(9) 0.0073(10)
N2 0.0412(13) 0.0488(12) 0.0448(11) -0.0125(9) -0.0034(9) 0.0059(10)
N1 0.088(2) 0.0595(16) 0.0497(14) 0.0072(12) 0.0196(13) 0.0033(16)
C1 0.0422(14) 0.0425(12) 0.0387(11) -0.0028(9) 0.0016(10) -0.0032(10)
C2 0.068(2) 0.0460(14) 0.0486(14) 0.0025(10) 0.0114(13) 0.0116(13)
C3 0.074(2) 0.0545(15) 0.0492(15) -0.0034(11) 0.0200(14) 0.0102(14)
C4 0.0541(17) 0.0471(13) 0.0450(13) 0.0002(10) 0.0068(12) -0.0065(12)
C5 0.0639(19) 0.0374(12) 0.0525(14) 0.0032(10) 0.0066(13) 0.0005(11)
C6 0.0522(17) 0.0425(12) 0.0442(12) -0.0065(9) 0.0080(11) -0.0027(11)
C7 0.0448(15) 0.0424(12) 0.0357(11) 0.0022(9) 0.0004(10) 0.0045(11)
C8 0.0437(17) 0.0645(17) 0.0500(14) 0.0004(12) -0.0074(12) 0.0036(13)
C9 0.0463(17) 0.0630(16) 0.0542(16) 0.0086(13) 0.0017(13) 0.0087(13)
C10 0.0488(17) 0.0505(14) 0.0522(14) 0.0086(11) 0.0103(12) 0.0096(12)
C11 0.072(2) 0.070(2) 0.079(2) -0.0083(16) 0.0172(18) 0.0224(17)
loop_
_atom_type_symbol
_atom_type_description
_atom_type_scat_dispersion_real
_atom_type_scat_dispersion_imag
_atom_type_scat_source
C C 0.0033 0.0016 'International Tables Vol C Tables 4.2.6.8 and 6.1.1.4'
H H 0.0000 0.0000 'International Tables Vol C Tables 4.2.6.8 and 6.1.1.4'
N N 0.0061 0.0033 'International Tables Vol C Tables 4.2.6.8 and 6.1.1.4'
O O 0.0106 0.0060 'International Tables Vol C Tables 4.2.6.8 and 6.1.1.4'
S S 0.1246 0.1234 'International Tables Vol C Tables 4.2.6.8 and 6.1.1.4'
loop_
_geom_angle_atom_site_label_1
_geom_angle_atom_site_label_2
_geom_angle_atom_site_label_3
_geom_angle
_geom_angle_site_symmetry_1
_geom_angle_site_symmetry_3
O1 S1 O2 118.72(12) . .
O1 S1 N2 109.53(12) . .
O2 S1 N2 102.47(11) . .
O1 S1 C1 108.83(11) . .
O2 S1 C1 108.70(12) . .
N2 S1 C1 108.05(12) . .
C8 N4 C7 115.4(2) . .
C7 N3 C10 116.0(2) . .
C7 N2 S1 128.48(18) . .
C7 N2 H1N2 119(2) . .
S1 N2 H1N2 112(2) . .
C4 N1 H1N1 114(3) . .
C4 N1 H2N1 123(3) . .
H1N1 N1 H2N1 116(4) . .
C2 C1 C6 119.8(2) . .
C2 C1 S1 120.37(19) . .
C6 C1 S1 119.81(18) . .
C3 C2 C1 120.3(2) . .
C3 C2 H2 119.9 . .
C1 C2 H2 119.9 . .
C2 C3 C4 121.4(2) . .
C2 C3 H3 119.3 . .
C4 C3 H3 119.3 . .
N1 C4 C3 120.5(3) . .
N1 C4 C5 121.9(3) . .
C3 C4 C5 117.5(2) . .
C6 C5 C4 121.3(2) . .
C6 C5 H5 119.4 . .
C4 C5 H5 119.4 . .
C5 C6 C1 119.8(2) . .
C5 C6 H6 120.1 . .
C1 C6 H6 120.1 . .
N3 C7 N4 127.1(2) . .
N3 C7 N2 119.6(2) . .
N4 C7 N2 113.3(2) . .
N4 C8 C9 122.6(3) . .
N4 C8 H8 118.7 . .
C9 C8 H8 118.7 . .
C8 C9 C10 117.8(3) . .
C8 C9 H9 121.1 . .
C10 C9 H9 121.1 . .
N3 C10 C9 121.1(3) . .
N3 C10 C11 117.7(3) . .
C9 C10 C11 121.2(3) . .
C10 C11 H11A 109.5 . .
C10 C11 H11B 109.5 . .
H11A C11 H11B 109.5 . .
C10 C11 H11C 109.5 . .
H11A C11 H11C 109.5 . .
H11B C11 H11C 109.5 . .
loop_
_geom_bond_atom_site_label_1
_geom_bond_atom_site_label_2
_geom_bond_distance
_geom_bond_site_symmetry_2
S1 O1 1.4291(18) .
S1 O2 1.4382(19) .
S1 N2 1.640(2) .
S1 C1 1.740(2) .
N4 C8 1.335(3) .
N4 C7 1.341(3) .
N3 C7 1.329(3) .
N3 C10 1.347(3) .
N2 C7 1.377(3) .
N2 H1N2 0.77(3) .
N1 C4 1.363(3) .
N1 H1N1 0.80(4) .
N1 H2N1 0.84(5) .
C1 C2 1.386(3) .
C1 C6 1.388(3) .
C2 C3 1.371(4) .
C2 H2 0.9300 .
C3 C4 1.395(4) .
C3 H3 0.9300 .
C4 C5 1.404(4) .
C5 C6 1.378(4) .
C5 H5 0.9300 .
C6 H6 0.9300 .
C8 C9 1.362(4) .
C8 H8 0.9300 .
C9 C10 1.386(4) .
C9 H9 0.9300 .
C10 C11 1.495(4) .
C11 H11A 0.9600 .
C11 H11B 0.9600 .
C11 H11C 0.9600 .
loop_
_geom_hbond_atom_site_label_D
_geom_hbond_atom_site_label_H
_geom_hbond_atom_site_label_A
_geom_hbond_distance_DH
_geom_hbond_distance_HA
_geom_hbond_distance_DA
_geom_hbond_angle_DHA
_geom_hbond_site_symmetry_A
C6 H6 O1 0.93 2.55 3.445(3) 162.2 8_665
C8 H8 O2 0.93 2.53 3.249(4) 134.5 5_666
C9 H9 O2 0.93 2.64 3.278(4) 126.4 1_655
N2 H1N2 N4 0.77(3) 2.18(3) 2.944(3) 178(3) 5_666
N1 H1N1 O2 0.80(4) 2.33(4) 3.110(4) 164(3) 6_656
N1 H2N1 O1 0.84(5) 2.41(5) 3.043(4) 133(4) 3_655
N1 H2N1 N3 0.84(5) 2.72(5) 3.472(4) 149(4) 3_655
loop_
_geom_torsion_atom_site_label_1
_geom_torsion_atom_site_label_2
_geom_torsion_atom_site_label_3
_geom_torsion_atom_site_label_4
_geom_torsion
_geom_torsion_site_symmetry_1
_geom_torsion_site_symmetry_2
_geom_torsion_site_symmetry_3
_geom_torsion_site_symmetry_4
O1 S1 N2 C7 47.5(3) . . . .
O2 S1 N2 C7 174.4(2) . . . .
C1 S1 N2 C7 -70.9(3) . . . .
O1 S1 C1 C2 -16.5(3) . . . .
O2 S1 C1 C2 -147.1(2) . . . .
N2 S1 C1 C2 102.4(2) . . . .
O1 S1 C1 C6 160.6(2) . . . .
O2 S1 C1 C6 29.9(2) . . . .
N2 S1 C1 C6 -80.6(2) . . . .
C6 C1 C2 C3 0.0(5) . . . .
S1 C1 C2 C3 177.1(2) . . . .
C1 C2 C3 C4 -1.5(5) . . . .
C2 C3 C4 N1 -176.8(3) . . . .
C2 C3 C4 C5 1.9(5) . . . .
N1 C4 C5 C6 177.7(3) . . . .
C3 C4 C5 C6 -0.9(4) . . . .
C4 C5 C6 C1 -0.4(4) . . . .
C2 C1 C6 C5 0.9(4) . . . .
S1 C1 C6 C5 -176.2(2) . . . .
C10 N3 C7 N4 0.0(4) . . . .
C10 N3 C7 N2 -179.0(2) . . . .
C8 N4 C7 N3 0.5(4) . . . .
C8 N4 C7 N2 179.5(2) . . . .
S1 N2 C7 N3 -4.7(4) . . . .
S1 N2 C7 N4 176.21(19) . . . .
C7 N4 C8 C9 -0.5(4) . . . .
N4 C8 C9 C10 0.1(4) . . . .
C7 N3 C10 C9 -0.4(4) . . . .
C7 N3 C10 C11 178.3(3) . . . .
C8 C9 C10 N3 0.4(4) . . . .
C8 C9 C10 C11 -178.3(3) . . . .
