#------------------------------------------------------------------------------
#$Date: 2017-11-07 03:31:38 +0200 (Tue, 07 Nov 2017) $
#$Revision: 202869 $
#$URL: file:///home/coder/svn-repositories/cod/cif/1/54/77/1547766.cif $
#------------------------------------------------------------------------------
#
# This file is available in the Crystallography Open Database (COD),
# http://www.crystallography.net/
#
# All data on this site have been placed in the public domain by the
# contributors.
#
data_1547766
loop_
_publ_author_name
'Pal, Kuntal'
'Shukla, Rahul K.'
'Volla, Chandra M. R.'
_publ_section_title
;
 Rh(II)-Catalyzed Denitrogenative Reaction of N-Sulfonyl-1,2,3-triazoles
 with Isatins for the Construction of Indigoids.
;
_journal_issue                   21
_journal_name_full               'Organic letters'
_journal_page_first              5764
_journal_page_last               5767
_journal_paper_doi               10.1021/acs.orglett.7b02697
_journal_volume                  19
_journal_year                    2017
_chemical_formula_moiety         'C24 H20 N2 O5 S'
_chemical_formula_sum            'C24 H20 Cl0 N2 O5 S'
_chemical_formula_weight         448.48
_space_group_crystal_system      orthorhombic
_space_group_IT_number           61
_space_group_name_Hall           '-P 2ac 2ab'
_space_group_name_H-M_alt        'P b c a'
_symmetry_space_group_name_Hall  '-P 2ac 2ab'
_symmetry_space_group_name_H-M   'P b c a'
_atom_sites_solution_hydrogens   mixed
_audit_creation_date             2017-10-14
_audit_creation_method
;
Olex2 1.2-alpha
(compiled 2015.10.28 svn.r3245 for OlexSys, GUI svn.r5128)
;
_cell_angle_alpha                90
_cell_angle_beta                 90
_cell_angle_gamma                90
_cell_formula_units_Z            8
_cell_length_a                   11.3088(7)
_cell_length_b                   13.4942(7)
_cell_length_c                   27.4368(13)
_cell_measurement_reflns_used    4384
_cell_measurement_temperature    150(2)
_cell_measurement_theta_max      31.0410
_cell_measurement_theta_min      2.3140
_cell_volume                     4186.9(4)
_computing_cell_refinement       'CrysAlisPro 1.171.38.43 (Rigaku OD, 2015)'
_computing_data_collection       'CrysAlisPro 1.171.38.43 (Rigaku OD, 2015)'
_computing_data_reduction        'CrysAlisPro 1.171.38.43 (Rigaku OD, 2015)'
_computing_molecular_graphics    'Olex2 (Dolomanov et al., 2009)'
_computing_publication_material  'Olex2 (Dolomanov et al., 2009)'
_computing_structure_refinement  'ShelXL (Sheldrick, 2015)'
_computing_structure_solution    'SHELXL-2014/7 (Sheldrick, 2014)'
_diffrn_ambient_temperature      150(2)
_diffrn_detector                 'CCD plate'
_diffrn_measured_fraction_theta_full 0.998
_diffrn_measured_fraction_theta_max 0.998
_diffrn_measurement_details
;
List of Runs (angles in degrees, time in seconds):

  # Type    Start    End  Width  t~exp~   \w     \q     \k     \f   Frames
--------------------------------------------------------------------------
  1  \w    -98.00  19.00   0.50    8.00    --  -20.00 -72.00  36.00  234
  2  \w    -62.00  -4.00   0.50    8.00    --  -20.00   0.00  36.00  116
;
_diffrn_measurement_device       'abstract diffractometer'
_diffrn_measurement_device_type
'dtrek-CrysAlisPro-abstract goniometer imported rigaku-d*trek images'
_diffrn_measurement_method       '\w scans'
_diffrn_orient_matrix_type
'CrysAlisPro convention (1999,Acta A55,543-557)'
_diffrn_orient_matrix_UB_11      0.0619446000
_diffrn_orient_matrix_UB_12      -0.0070838000
_diffrn_orient_matrix_UB_13      0.0019404000
_diffrn_orient_matrix_UB_21      0.0061609000
_diffrn_orient_matrix_UB_22      0.0090186000
_diffrn_orient_matrix_UB_23      -0.0253407000
_diffrn_orient_matrix_UB_31      0.0074065000
_diffrn_orient_matrix_UB_32      0.0513234000
_diffrn_orient_matrix_UB_33      0.0047371000
_diffrn_radiation_monochromator  graphite
_diffrn_radiation_probe          x-ray
_diffrn_radiation_type           MoK\a
_diffrn_radiation_wavelength     0.71073
_diffrn_reflns_av_R_equivalents  0.0728
_diffrn_reflns_av_unetI/netI     0.0747
_diffrn_reflns_Laue_measured_fraction_full 0.998
_diffrn_reflns_Laue_measured_fraction_max 0.998
_diffrn_reflns_limit_h_max       10
_diffrn_reflns_limit_h_min       -13
_diffrn_reflns_limit_k_max       10
_diffrn_reflns_limit_k_min       -16
_diffrn_reflns_limit_l_max       32
_diffrn_reflns_limit_l_min       -22
_diffrn_reflns_number            12875
_diffrn_reflns_point_group_measured_fraction_full 0.998
_diffrn_reflns_point_group_measured_fraction_max 0.998
_diffrn_reflns_theta_full        24.995
_diffrn_reflns_theta_max         24.995
_diffrn_reflns_theta_min         2.334
_diffrn_source                   'fine-focus sealed X-ray tube'
_diffrn_source_type              'Enhance (Mo) X-ray Source'
_exptl_absorpt_coefficient_mu    0.195
_exptl_absorpt_correction_T_max  1.00000
_exptl_absorpt_correction_T_min  0.47289
_exptl_absorpt_correction_type   multi-scan
_exptl_absorpt_process_details
;
CrysAlisPro 1.171.38.43 (Rigaku Oxford Diffraction, 2015)
Empirical absorption correction using spherical harmonics,
 implemented in SCALE3 ABSPACK scaling algorithm.
;
_exptl_crystal_colour            red
_exptl_crystal_colour_primary    red
_exptl_crystal_density_diffrn    1.423
_exptl_crystal_description       plate
_exptl_crystal_F_000             1872
_exptl_crystal_size_max          0.247
_exptl_crystal_size_mid          0.177
_exptl_crystal_size_min          0.042
_refine_diff_density_max         0.704
_refine_diff_density_min         -0.562
_refine_diff_density_rms         0.091
_refine_ls_extinction_method     none
_refine_ls_goodness_of_fit_ref   1.053
_refine_ls_hydrogen_treatment    constr
_refine_ls_matrix_type           full
_refine_ls_number_parameters     291
_refine_ls_number_reflns         3675
_refine_ls_number_restraints     0
_refine_ls_restrained_S_all      1.053
_refine_ls_R_factor_all          0.0890
_refine_ls_R_factor_gt           0.0618
_refine_ls_shift/su_max          0.009
_refine_ls_shift/su_mean         0.000
_refine_ls_structure_factor_coef Fsqd
_refine_ls_weighting_details
'w=1/[\s^2^(Fo^2^)+(0.0706P)^2^+3.7062P] where P=(Fo^2^+2Fc^2^)/3'
_refine_ls_weighting_scheme      calc
_refine_ls_wR_factor_gt          0.1440
_refine_ls_wR_factor_ref         0.1649
_reflns_Friedel_coverage         0.000
_reflns_number_gt                2718
_reflns_number_total             3675
_reflns_threshold_expression     'I > 2\s(I)'
_cod_data_source_file            ol7b02697_si_002.cif
_cod_data_source_block           cmrv
_cod_depositor_comments          'Adding full bibliography for 1547766.cif.'
_cod_original_cell_volume        4187.0(4)
_cod_database_code               1547766
_chemical_oxdiff_formula         C24H20N2O5S1
_shelx_space_group_comment
;
The symmetry employed for this shelxl refinement is uniquely defined
by the following loop, which should always be used as a source of
symmetry information in preference to the above space-group names.
They are only intended as comments.
;
_reflns_odcompleteness_completeness 91.27
_reflns_odcompleteness_iscentric 1
_reflns_odcompleteness_theta     31.10
_olex2_refinement_description
;
1. Fixed Uiso
 At 1.2 times of:
  All C(H) groups, All N(H) groups
 At 1.5 times of:
  All C(H,H,H) groups
2.a Riding coordinates:
 N008(H008)
2.b Aromatic/amide H refined with riding coordinates:
 N007(H007), C00C(H00C), C00F(H00F), C00H(H00H), C00J(H00J), C00K(H00K),
 C00L(H00L), C00O(H00O), C00Q(H00Q), C00R(H00R), C00S(H00S), C00T(H00T),
 C00V(H00V)
2.c Idealised Me refined as rotating group:
 C00U(H00A,H00B,H00D), C00W(H00E,H00G,H00I)
;
_shelx_res_file
;
    cmrv.res created by SHELXL-2014/7

TITL cmrv-kp-379_mo_a.res in Pbca
REM Old TITL cmrv-kp-379_mo_a.res in Pbca
REM SHELXT solution in Pbca
REM R1 0.146, Rweak 0.004, Alpha 0.033, Orientation as input
REM Formula found by SHELXT: C24 N2 O5 S
CELL 0.71073 11.308808 13.494212 27.436801 90 90 90
ZERR 8 0.00071 0.00067 0.001268 0 0 0
LATT 1
SYMM 0.5-X,-Y,0.5+Z
SYMM -X,0.5+Y,0.5-Z
SYMM 0.5+X,0.5-Y,-Z
SFAC C H N O Cl S
UNIT 192 160 16 40 0 8

L.S. 4
PLAN  20
TEMP -123(2)
BOND $H
list 4
MORE -1
CONF
fmap 2
acta 52
OMIT -3 50
OMIT 1 2 1
OMIT 2 0 2
OMIT 2 7 0
REM <olex2.extras>
REM <HklSrc "%.\\cmrv.hkl">
REM </olex2.extras>

WGHT    0.070600    3.706200
FVAR       0.28797
S001  6    0.648835    0.528573    0.227755    11.00000    0.02002    0.01329 =
         0.01850   -0.00075    0.00121   -0.00046
O002  4    0.762543    0.351678    0.131999    11.00000    0.01896    0.01978 =
         0.02221    0.00068    0.00218   -0.00154
O003  4    0.579531    0.532742    0.271476    11.00000    0.02690    0.01594 =
         0.01940    0.00043    0.00270    0.00278
O004  4    0.747167    0.594240    0.221288    11.00000    0.02278    0.01806 =
         0.02597    0.00089   -0.00196   -0.00740
O005  4    0.460357    0.280231    0.269338    11.00000    0.01953    0.03190 =
         0.02333    0.00003    0.00060   -0.00784
O006  4    0.787745    0.303835    0.454865    11.00000    0.02062    0.02509 =
         0.01943   -0.00040   -0.00154    0.00513
N007  3    0.548984    0.192176    0.180695    11.00000    0.01938    0.01679 =
         0.01814   -0.00069    0.00156    0.00010
AFIX  43
H007  2    0.497414    0.170533    0.202226    11.00000   -1.20000
AFIX   0
N008  3    0.706599    0.415888    0.224567    11.00000    0.01710    0.01528 =
         0.02094    0.00172   -0.00739    0.00393
AFIX   3
H008  2    0.762849    0.408848    0.245377    11.00000   -1.20000
AFIX   0
C009  1    0.617706    0.275701    0.186175    11.00000    0.01810    0.01340 =
         0.01784    0.00328   -0.00265    0.00381
C00A  1    0.572829    0.147060    0.136291    11.00000    0.01597    0.01734 =
         0.01869    0.00066   -0.00190    0.00596
C00B  1    0.688771    0.286848    0.140072    11.00000    0.01413    0.01363 =
         0.02203    0.00458   -0.00042    0.00591
C00C  1    0.560773    0.312306    0.362515    11.00000    0.02043    0.01501 =
         0.02172    0.00066    0.00064    0.00243
AFIX  43
H00C  2    0.476871    0.314278    0.361098    11.00000   -1.20000
AFIX   0
C00D  1    0.627229    0.334243    0.226178    11.00000    0.01846    0.01450 =
         0.01825    0.00237   -0.00242    0.00033
C00E  1    0.654219    0.203859    0.109724    11.00000    0.01880    0.01347 =
         0.01931    0.00285    0.00114    0.00398
C00F  1    0.749820    0.306892    0.321988    11.00000    0.02009    0.01480 =
         0.01845    0.00240    0.00355    0.00260
AFIX  43
H00F  2    0.795095    0.305780    0.292827    11.00000   -1.20000
AFIX   0
C00G  1    0.562189    0.309356    0.272191    11.00000    0.02230    0.01493 =
         0.01965   -0.00302    0.00125   -0.00016
C00H  1    0.430456    0.543727    0.185344    11.00000    0.02464    0.01601 =
         0.02576   -0.00201    0.00088    0.00094
AFIX  43
H00H  2    0.398651    0.541373    0.217371    11.00000   -1.20000
AFIX   0
C00I  1    0.627142    0.312064    0.319422    11.00000    0.02307    0.01018 =
         0.01871    0.00115   -0.00041    0.00202
C00J  1    0.617605    0.309668    0.407167    11.00000    0.02055    0.01816 =
         0.01884    0.00107    0.00489    0.00209
AFIX  43
H00J  2    0.572701    0.310681    0.436425    11.00000   -1.20000
AFIX   0
C00K  1    0.356593    0.551975    0.145374    11.00000    0.02078    0.01825 =
         0.03549   -0.00274   -0.00345   -0.00173
AFIX  43
H00K  2    0.273598    0.556022    0.150343    11.00000   -1.20000
AFIX   0
C00L  1    0.525884    0.059990    0.117432    11.00000    0.02232    0.01739 =
         0.02372    0.00241   -0.00071   -0.00069
AFIX  43
H00L  2    0.471663    0.020813    0.135547    11.00000   -1.20000
AFIX   0
C00M  1    0.400455    0.554471    0.098442    11.00000    0.03374    0.01163 =
         0.03139   -0.00179   -0.00998    0.00131
C00N  1    0.552824    0.538898    0.177902    11.00000    0.02259    0.01065 =
         0.01979    0.00022   -0.00260   -0.00151
C00O  1    0.806282    0.303364    0.366495    11.00000    0.01564    0.01730 =
         0.02272   -0.00151    0.00092    0.00305
AFIX  43
H00O  2    0.890083    0.299456    0.367952    11.00000   -1.20000
AFIX   0
C00P  1    0.740273    0.305541    0.409253    11.00000    0.03028    0.01272 =
         0.01600   -0.00217    0.00098    0.00239
C00Q  1    0.561538    0.032972    0.071217    11.00000    0.03361    0.01677 =
         0.02456   -0.00411   -0.00141   -0.00225
AFIX  43
H00Q  2    0.531590   -0.026697    0.057604    11.00000   -1.20000
AFIX   0
C00R  1    0.599159    0.542636    0.130773    11.00000    0.02474    0.01540 =
         0.02276    0.00223   -0.00080   -0.00198
AFIX  43
H00R  2    0.682190    0.540204    0.125654    11.00000   -1.20000
AFIX   0
C00S  1    0.687531    0.176558    0.062973    11.00000    0.02025    0.02196 =
         0.02105    0.00324    0.00424    0.00439
AFIX  43
H00S  2    0.741269    0.215908    0.044705    11.00000   -1.20000
AFIX   0
C00T  1    0.522791    0.549903    0.091751    11.00000    0.03331    0.01887 =
         0.02328    0.00223    0.00134   -0.00049
AFIX  43
H00T  2    0.554051    0.551845    0.059627    11.00000   -1.20000
AFIX   0
C00U  1    0.318939    0.560978    0.054928    11.00000    0.04590    0.02334 =
         0.03498   -0.00221   -0.01369    0.00436
AFIX 137
H00A  2    0.330057    0.502559    0.034208    11.00000   -1.50000
H00B  2    0.337175    0.620932    0.036225    11.00000   -1.50000
H00D  2    0.236712    0.563662    0.066126    11.00000   -1.50000
AFIX   0
C00V  1    0.640287    0.090241    0.043587    11.00000    0.02750    0.02429 =
         0.01637   -0.00071    0.00290    0.00424
AFIX  43
H00V  2    0.661311    0.069949    0.011584    11.00000   -1.20000
AFIX   0
C00W  1    0.912435    0.289772    0.459055    11.00000    0.02459    0.02651 =
         0.02217   -0.00080   -0.00382    0.00543
AFIX 137
H00E  2    0.953669    0.344395    0.442770    11.00000   -1.50000
H00G  2    0.934617    0.226896    0.443696    11.00000   -1.50000
H00I  2    0.934623    0.288371    0.493576    11.00000   -1.50000
AFIX   0
HKLF 4

REM  cmrv-kp-379_mo_a.res in Pbca
REM R1 =  0.0618 for    2718 Fo > 4sig(Fo)  and  0.0890 for all    3675 data
REM    291 parameters refined using      0 restraints

END

WGHT      0.0692      3.7134

REM Highest difference peak  0.704,  deepest hole -0.562,  1-sigma level  0.091
Q1    1   0.7746  0.4150  0.1964  11.00000  0.05    0.70
Q2    1   0.3257  0.4853  0.1818  11.00000  0.05    0.30
Q3    1   0.3608  0.4789  0.2281  11.00000  0.05    0.30
Q4    1   0.6591  0.2805  0.1679  11.00000  0.05    0.30
Q5    1   0.6078  0.3187  0.2997  11.00000  0.05    0.30
Q6    1   0.5439  0.1609  0.2003  11.00000  0.05    0.29
Q7    1   0.6455  0.2884  0.2131  11.00000  0.05    0.29
Q8    1   0.6013  0.3119  0.2496  11.00000  0.05    0.28
Q9    1   0.2727  0.4808  0.0854  11.00000  0.05    0.28
Q10   1   0.3370  0.5581  0.0388  11.00000  0.05    0.28
Q11   1   0.8574  0.3708  0.2196  11.00000  0.05    0.28
Q12   1   0.3677  0.4971  0.2416  11.00000  0.05    0.27
Q13   1   0.6019  0.0963 -0.0026  11.00000  0.05    0.27
Q14   1   0.4392  0.2947  0.2719  11.00000  0.05    0.26
Q15   1   0.7505  0.2994  0.4932  11.00000  0.05    0.26
Q16   1   0.3795  0.3709  0.3151  11.00000  0.05    0.26
Q17   1   0.5567  0.0988  0.1302  11.00000  0.05    0.25
Q18   1   0.5249  0.3776  0.4706  11.00000  0.05    0.25
Q19   1   0.4624  0.4013  0.3521  11.00000  0.05    0.25
Q20   1   0.4974 -0.0839  0.0683  11.00000  0.05    0.24
;
_shelx_res_checksum              38052
_shelx_hkl_file
;
   0   0  -3    0.02    0.23
   0   0   3   -0.25    0.37
   0   0  -4  883.92   19.08
   0   0   4   -0.35    0.60
   0   0  -5   -0.10    0.61
   0   0   5    1.46    0.68
   0   0   5    0.78    1.04
   0   0  -6 3018.59   42.09
   0   0   6 2976.22   30.04
   0   0  -7    0.83    0.53
   0   0   7    1.12    0.54
   0   0   7   -0.40    0.84
   0   0   8   51.76    4.61
   0   0  -8   49.46    6.33
   0   0   8   59.06    6.86
   0   0  -9    0.29    0.56
   0   0   9    1.29    1.12
   0   0   9   -0.13    0.51
   0   0  10 1341.94   26.36
   0   0  10 1340.11   36.73
   0   0 -10 1350.22   37.30
   0   0  11    0.81    1.25
   0   0  11   -0.03    1.24
   0   0 -11   -1.02    1.71
   0   0  12 2443.63   54.79
   0   0 -12 2531.14   56.75
   0   0  12 2573.96   40.61
   0   0  13    2.39    1.87
   0   0  13   -1.41    1.23
   0   0  14   98.18    8.53
   0   0  14  102.61   12.19
   0   0  15   -1.23    2.21
   0   0  15   -0.40    1.15
   0   0  16   18.89    3.93
   0   0  16   12.04    5.30
   0   0  17    0.70    0.96
   0   0  17    0.25    2.74
   0   0  18  666.12   25.72
   0   0  18  705.81   36.59
   0   0  19    1.88    1.12
   0   0  19    0.02    3.10
   0   0  20 2042.44   48.15
   0   0  20 2046.58   66.85
   0   0  21   -1.26    2.01
   0   0  21    6.10    3.90
   0   0  22 9378.41  107.08
   0   0  22 9097.58  148.84
   0   0  23    5.19    3.05
   0   0  23   17.09    8.55
   0   0  24 1547.69   65.61
   0   0  24 1621.97   46.96
   0   0  25    4.34    4.94
   0   0  25   -0.94    2.00
   0   0  26   36.43    7.40
   0   0  26   24.85    9.80
   0   0  27    4.10    3.98
   0   0  28   30.94   10.75
   0   0  29    0.10    4.91
   0   0  30   81.10   18.20
   0   0  31    0.57    6.08
   0   0  32   20.00    9.57
   0   0  33    5.78    7.44
   0   0  34   28.99   11.69
   0   0  35    1.12    3.25
   0   0  36   23.28   12.49
   0   0  37    4.85    6.85
   0   1  -2    0.55    0.44
   0  -1   2   -0.01    0.20
   0   1   3   -0.28    0.49
   0   1  -3    0.35    0.88
   0  -1   3    0.22    0.35
   0  -1  -3   -0.80    0.53
   0   1   4   -0.20    0.55
   0  -1   4   -0.17    0.21
   0   1  -4   -0.72    0.69
   0  -1  -4    1.05    0.69
   0  -1   4   -0.04    0.35
   0   1  -5   -0.87    0.68
   0  -1   5   -0.32    0.62
   0  -1  -5   -0.39    0.75
   0   1   5    0.68    0.53
   0  -1   5    0.12    0.51
   0   1   6    0.43    0.84
   0  -1  -6    2.31    1.53
   0  -1   6    2.00    1.14
   0  -1   6    0.76    1.04
   0   1  -6    1.18    1.10
   0  -1  -7    0.99    0.63
   0  -1   7    1.17    1.38
   0  -1   7    0.16    0.82
   0   1  -7    2.39    1.62
   0   1   7    1.18    1.32
   0   1   8    2.71    0.92
   0   1  -8   -0.84    1.23
   0  -1   8   -0.31    0.84
   0  -1   8    1.46    1.85
   0  -1  -8   -1.39    1.18
   0   1   9    0.99    0.66
   0  -1  -9    1.38    1.05
   0  -1   9    0.44    1.22
   0   1  -9    2.34    2.13
   0  -1   9    0.30    0.73
   0   1   9    0.17    1.48
   0   1 -10   -2.11    2.13
   0   1  10    0.36    0.56
   0  -1  10   -2.45    1.91
   0  -1  10   -1.62    1.26
   0  -1 -10    0.12    0.90
   0   1  10    2.99    2.56
   0   1  11   -2.11    1.63
   0   1  11    0.37    0.32
   0   1 -11   -0.27    0.89
   0  -1  11   -0.25    1.17
   0  -1 -11    0.99    1.84
   0   1  12    1.14    1.67
   0  -1  12   -0.10    0.76
   0  -1 -12   -0.06    1.43
   0   1  12    1.91    0.88
   0  -1  12    1.75    3.84
   0   1 -12   -0.20    1.01
   0   1  13   -0.35    0.81
   0  -1  13   -2.45    2.29
   0  -1  13   -0.32    0.82
   0   1  13   -1.66    0.98
   0  -1  14    2.17    1.71
   0  -1  14    2.19    1.83
   0   1  14    0.45    1.10
   0   1  14    0.44    2.43
   0   1  15   -0.90    0.89
   0  -1  15   -0.30    1.22
   0   1  15   -0.95    1.23
   0  -1  15    1.99    2.35
   0   1  16    1.77    1.85
   0  -1  16    0.01    1.89
   0   1  16    0.16    1.44
   0  -1  16    1.44    2.08
   0  -1  17   -0.91    1.83
   0  -1  17    0.27    1.45
   0   1  17    1.22    2.91
   0   1  17    1.51    0.93
   0   1  18   -0.75    2.09
   0   1  18    0.37    1.05
   0  -1  18   -0.45    1.50
   0  -1  18    1.41    3.70
   0  -1  19   -1.09    2.03
   0  -1  19    4.19    3.02
   0   1  19   -1.06    1.36
   0   1  19    0.75    1.37
   0   1  20   -1.70    3.14
   0  -1  20   -0.62    1.83
   0  -1  20    0.10    1.81
   0   1  20    2.44    2.85
   0  -1  21    2.89    1.77
   0  -1  21   -1.13    1.46
   0   1  21    5.09    3.74
   0   1  21    2.36    1.78
   0   1  22    5.98    2.95
   0  -1  22    7.11    5.55
   0  -1  22    0.24    0.85
   0   1  22   -1.44    3.82
   0  -1  23   -2.52    3.11
   0   1  23    1.48    1.69
   0   1  23   -0.91    2.02
   0  -1  23    0.71    2.27
   0   1  24   -0.99    2.97
   0   1  24   -1.33    0.85
   0  -1  24   -3.19    1.28
   0   1  25   -2.16    1.96
   0  -1  25    4.15    5.06
   0   1  25    1.58    4.03
   0  -1  25   -1.58    1.60
   0   1  26    7.79    6.12
   0  -1  26    3.29    3.14
   0  -1  26    9.54    6.28
   0  -1  27    2.20    2.86
   0  -1  27   -3.97    4.44
   0   1  27   -1.43    3.75
   0  -1  28   -1.18    3.23
   0   1  28    2.89    3.51
   0   1  29   -1.88    3.26
   0  -1  29    0.26    2.85
   0  -1  30    7.66    7.36
   0   1  30    0.57    1.96
   0  -1  31   -1.71    3.32
   0   1  31   -0.95    2.67
   0  -1  32    1.64    3.12
   0   1  32    5.15    5.70
   0  -1  33    4.02    6.58
   0   1  33    0.08    3.58
   0  -1  34    7.45    6.92
   0   1  34   -1.60    5.60
   0   1  35    0.21    4.38
   0  -1  35    6.74    8.07
   0   1  36   -6.29    8.91
   0  -1  36   29.37   13.50
   0  -1  37   -5.65    7.75
   0   2  -2   -0.11    0.25
   0  -2   2  396.65   10.20
   0  -2  -3  537.17   10.99
   0   2   3  520.81   11.23
   0  -2   4  949.36   21.58
   0  -2  -4  893.63   17.10
   0   2   4  907.45   17.46
   0  -2  -5  207.74    9.53
   0  -2   5  206.38   11.64
   0   2   5  205.85    9.39
   0  -2   5  198.32   10.80
   0  -2  -6 1519.32   28.55
   0   2   6 1452.21   27.65
   0  -2   6 1446.16   32.00
   0  -2   6 1494.16   31.86
   0  -2   7   18.13    3.73
   0  -2   7   17.85    3.81
   0  -2  -7   18.61    3.52
   0   2   7   24.28    3.89
   0  -2   8  158.01   11.97
   0  -2   8  179.34   12.03
   0  -2  -8  173.69   11.09
   0   2   8  176.08   11.35
   0  -2   9  244.37   15.56
   0  -2  -9  272.71   14.92
   0  -2   9  243.10   14.32
   0   2   9  238.01   14.11
   0   2  10   37.80    6.13
   0  -2  10   45.27    6.93
   0  -2 -10   38.43    5.98
   0   2 -10   29.31    6.24
   0  -2  10   47.24    6.61
   0  -2  11   -1.02    1.75
   0  -2 -11    1.37    1.95
   0  -2  11    0.13    2.35
   0   2 -11   -0.01    1.16
   0   2  11    1.40    1.22
   0  -2  12   41.03    7.32
   0  -2  12   36.97    5.96
   0  -2 -12   42.03    7.00
   0   2  12   42.99    7.10
   0  -2 -13   -1.27    2.46
   0  -2  13    2.01    0.81
   0  -2  13    1.64    2.23
   0   2  13    2.49    1.48
   0   2  14  517.17   26.76
   0  -2  14  501.45   23.25
   0  -2  15   35.50    6.41
   0  -2  15   42.44    7.99
   0   2  15   35.57    7.43
   0  -2  16  289.61   22.57
   0  -2  16  308.40   19.42
   0   2  16  329.52   23.33
   0   2  17   42.68    9.06
   0  -2  17   55.36    9.97
   0  -2  17   56.66    8.58
   0   2  18  561.45   32.68
   0  -2  18  548.67   32.72
   0  -2  18  512.39   26.24
   0  -2  19  168.84   15.41
   0  -2  19  170.72   18.90
   0   2  19  166.75   18.76
   0  -2  20  280.35   25.12
   0  -2  20  250.60   19.53
   0   2  20  297.94   25.60
   0   2  21  227.15   22.99
   0  -2  21  206.38   17.96
   0  -2  21  236.68   23.77
   0  -2  22   39.50    7.92
   0   2  22   48.77   11.49
   0  -2  22   60.53   12.64
   0   2  23   10.05    5.74
   0  -2  23    9.76    6.88
   0  -2  23    8.37    4.31
   0   2  24  122.29   18.36
   0  -2  24  142.48   19.96
   0  -2  24  133.16   15.36
   0   2  25   96.64   17.03
   0  -2  25   89.02   12.44
   0  -2  25   82.76   15.68
   0   2  26  177.24   23.39
   0  -2  26  162.25   17.65
   0  -2  26  172.88   23.02
   0   2  27    9.30    5.80
   0  -2  27    2.13    1.99
   0  -2  27   11.96    4.65
   0  -2  28  114.35   15.74
   0   2  28  157.98   23.15
   0  -2  28  145.88   22.97
   0  -2  29   14.11    7.01
   0   2  29   23.10   11.23
   0  -2  30    5.28    2.61
   0   2  30    0.40    2.63
   0   2  31   15.64    8.27
   0  -2  31   21.18   10.62
   0   2  32   14.07    8.36
   0  -2  32   11.66    5.82
   0   2  33    4.75    5.03
   0  -2  33   10.82    8.27
   0  -2  34   -4.97    5.49
   0   2  34    7.93    5.90
   0   2  35    6.22    6.20
   0  -2  35    4.52    8.51
   0  -2  36    6.28    7.63
   0  -2  37  -12.01    9.35
   0  -3   1    0.31    0.42
   0   3  -2    1.07    0.98
   0  -3   2    2.65    1.15
   0  -3   3   -0.33    0.85
   0   3  -3   -0.55    0.71
   0  -3  -4    0.28    0.56
   0   3  -4    0.68    0.89
   0  -3   4    0.03    0.36
   0   3   4    0.10    0.49
   0   3   5   -0.85    0.92
   0  -3   5   -1.27    1.06
   0  -3  -5    0.21    0.69
   0   3  -5   -0.48    0.83
   0  -3   6    0.38    1.63
   0   3   6   -0.58    0.95
   0  -3  -6    0.62    1.15
   0  -3   6    0.16    1.02
   0   3  -6    0.24    0.84
   0   3  -7    1.57    1.34
   0  -3   7   -2.13    1.43
   0  -3   7   -0.22    1.15
   0   3   7   -0.01    0.73
   0  -3  -7    0.81    0.64
   0  -3   8   -0.45    1.82
   0   3   8   -0.27    0.45
   0  -3  -8    3.38    2.34
   0  -3   8    0.79    0.78
   0   3  -8    0.94    1.08
   0  -3  -8    1.00    0.91
   0   3   9   -0.01    0.76
   0  -3  -9    1.20    1.64
   0  -3   9    0.48    1.14
   0   3  -9    0.24    1.83
   0  -3   9    0.09    0.95
   0   3  10   -0.07    0.80
   0  -3  10    1.04    1.76
   0  -3 -10    0.67    0.73
   0   3 -10   -0.96    1.74
   0  -3  10   -2.31    2.49
   0  -3 -11    1.04    1.11
   0   3 -11   -0.33    0.95
   0  -3  11    1.11    1.55
   0   3  11    1.14    0.92
   0  -3  11    4.76    2.68
   0   3  12   -0.18    0.79
   0  -3  12    0.49    1.23
   0  -3 -12    2.09    2.44
   0  -3  12    1.15    2.47
   0  -3  13   -0.19    1.72
   0  -3 -13    3.75    3.22
   0   3  13   -1.99    2.83
   0  -3  13   -0.49    1.44
   0   3  14   -1.65    1.90
   0  -3  14   -2.34    2.75
   0  -3  14    2.38    1.82
   0  -3  15   -0.75    1.78
   0   3  15    2.83    2.54
   0  -3  15   -2.64    2.51
   0  -3  16    0.29    2.18
   0   3  16   -0.42    1.12
   0  -3  16   -0.95    2.30
   0  -3  17   -1.40    2.94
   0  -3  17   -0.06    1.86
   0   3  17    3.67    3.94
   0  -3  18   -0.86    2.36
   0   3  18    0.10    2.12
   0  -3  18   -2.47    3.23
   0  -3  19   -2.41    2.94
   0   3  19    0.11    1.73
   0  -3  19    1.24    2.25
   0  -3  20   -0.94    1.54
   0  -3  20   -3.02    1.51
   0   3  20    1.74    3.94
   0  -3  21    0.48    0.98
   0  -3  21   -2.18    2.27
   0   3  21    2.27    3.50
   0   3  22    7.71    6.26
   0  -3  22   12.48    6.63
   0  -3  22    1.59    2.66
   0  -3  23   -0.67    1.91
   0   3  23    3.64    4.81
   0  -3  23    3.72    3.42
   0   3  24    1.94    4.01
   0  -3  24    0.24    2.93
   0  -3  24    1.01    2.71
   0  -3  25    4.76    4.55
   0   3  25   -0.39    3.59
   0  -3  25    0.44    2.06
   0  -3  26   -0.42    2.31
   0   3  26   -0.98    1.51
   0   3  27    1.61    5.34
   0  -3  27    2.68    4.36
   0  -3  27   -1.81    1.87
   0   3  28    6.12    6.11
   0  -3  28    0.36    2.32
   0  -3  28    0.84    2.08
   0  -3  29    4.76    3.91
   0  -3  29    1.21    1.93
   0   3  29    0.16    1.72
   0  -3  30    4.12    5.79
   0   3  30    4.26    5.71
   0  -3  31    4.72    6.78
   0   3  31   -1.53    3.90
   0  -3  32   -2.07    4.52
   0   3  32   -3.49    4.57
   0   3  33   14.02   10.47
   0  -3  33    1.80    4.11
   0  -3  34   -6.51    6.25
   0  -3  35    9.76    8.65
   0  -3  36   -1.25    4.77
   0  -4   2  541.39   13.92
   0   4  -3 1300.06   27.31
   0  -4   3 1245.09   23.94
   0  -4   4  127.37    8.45
   0  -4  -4  111.92    5.42
   0   4  -4  123.02    9.15
   0  -4   5  404.47   16.28
   0  -4  -5  446.87   12.61
   0   4  -5  427.68   18.56
   0  -4  -6  142.92    7.87
   0  -4   6  141.50   10.36
   0   4  -6  170.23   12.41
   0  -4   6  155.63   13.33
   0   4   7  164.22   10.14
   0  -4   7  158.76   11.67
   0   4  -7  186.61   13.69
   0  -4  -7  150.88    9.07
   0  -4   7  162.38   13.81
   0  -4  -8   62.12    6.38
   0   4   8   52.42    6.27
   0   4  -8   69.62    8.86
   0  -4   8   66.28    8.99
   0  -4   8   65.84    8.05
   0  -4   9  727.52   30.27
   0  -4  -9  677.85   22.89
   0   4  -9  733.62   30.21
   0  -4   9  680.05   26.92
   0   4   9  720.95   24.59
   0  -4  10    2.13    1.93
   0  -4 -10    3.05    1.87
   0   4 -10    6.91    3.20
   0  -4  10    6.21    3.56
   0  -4 -10    6.10    1.99
   0   4  10   10.46    3.44
   0  -4 -11    7.82    1.59
   0  -4  11   11.89    4.19
   0  -4 -11    3.45    1.61
   0   4  11   10.29    3.06
   0  -4 -11    5.95    1.57
   0  -4  11   11.84    3.58
   0  -4  12  185.52   16.00
   0  -4  12  210.35   17.37
   0   4  12  191.81   14.83
   0  -4 -12  219.34   15.86
   0  -4  13  265.93   19.84
   0   4  13  264.11   18.34
   0  -4 -13  254.34   18.06
   0  -4  13  230.71   18.52
   0  -4  14  140.89   14.71
   0  -4  14  149.05   15.18
   0   4  14  150.92   14.45
   0  -4  15   52.30    9.54
   0  -4  15   58.28    9.92
   0   4  15   40.63    7.80
   0   4  16    2.16    1.26
   0  -4  16    0.55    0.90
   0   4  17  237.64   20.56
   0  -4  17  230.53   21.08
   0  -4  17  263.50   20.92
   0  -4  18   54.51   10.46
   0  -4  18   44.05    8.69
   0   4  18   59.35   10.65
   0   4  19   21.17    7.23
   0  -4  19   10.06    4.66
   0  -4  19   19.46    7.19
   0  -4  20  106.77   14.22
   0   4  20  107.91   15.47
   0  -4  20  127.45   17.62
   0  -4  21 2722.17   80.84
   0   4  21 2620.51   77.75
   0  -4  21 2613.52   71.75
   0   4  22  226.51   23.81
   0  -4  22  222.03   21.00
   0  -4  22  242.71   25.20
   0  -4  23 1655.37   58.67
   0   4  23 1674.34   66.45
   0  -4  23 1650.73   66.91
   0  -4  24  272.25   28.54
   0  -4  24  305.20   25.99
   0   4  24  289.34   28.58
   0  -4  25   18.63    7.31
   0   4  25   25.29    9.25
   0  -4  25    7.88    5.01
   0   4  26  216.30   25.90
   0  -4  26  220.66   22.67
   0  -4  26  278.03   29.89
   0  -4  27  119.69   20.26
   0   4  27  154.62   22.51
   0  -4  27  127.74   17.14
   0  -4  28   26.71    8.46
   0   4  28   23.37    8.69
   0  -4  28   13.10    6.55
   0   4  29   28.34    9.93
   0  -4  29   30.43    9.94
   0  -4  29   25.55    8.11
   0   4  30    3.14    3.57
   0  -4  30    0.35    2.26
   0   4  31   23.56   11.16
   0  -4  31   26.85   12.35
   0  -4  32    4.64    3.14
   0  -4  33   12.76   10.48
   0  -4  34   30.86   13.29
   0  -4  35   -0.49    5.34
   0  -4  36    9.65    6.63
   0  -5   1   -0.12    0.31
   0  -5   2   -0.06    0.61
   0  -5   3    0.09    1.00
   0  -5   4   -1.10    1.59
   0   5  -5    1.39    0.54
   0  -5  -5   -0.07    0.44
   0  -5   5   -0.71    1.24
   0  -5  -6    1.23    1.04
   0   5  -6    0.86    1.44
   0  -5   6   -0.67    0.55
   0  -5   6    0.33    1.71
   0  -5  -7   -0.07    0.49
   0  -5   7   -0.81    2.57
   0  -5   7    0.15    0.53
   0   5  -7    0.26    1.11
   0  -5  -8    0.09    1.28
   0   5  -8    1.16    2.56
   0  -5   8    4.28    3.36
   0  -5   8   -0.28    0.51
   0   5  -9    0.36    1.57
   0  -5   9   -1.28    1.55
   0  -5   9   -0.12    1.04
   0  -5  -9    1.83    1.64
   0   5  10    0.14    1.99
   0  -5  10    1.55    2.56
   0  -5  10    0.56    2.84
   0  -5 -10   -0.03    0.96
   0   5 -10   -0.44    0.76
   0  -5 -11    0.85    1.37
   0   5  11    0.76    1.57
   0  -5  11    1.11    1.69
   0  -5 -11   -1.85    1.93
   0  -5 -11   -0.74    1.12
   0  -5  11    0.17    1.57
   0  -5  12    1.21    2.41
   0  -5 -12    0.43    0.41
   0   5  12    1.79    2.02
   0  -5  12   -1.01    2.44
   0  -5 -12    0.92    1.43
   0  -5 -12    2.59    1.92
   0  -5 -13    0.64    0.55
   0  -5  13   -1.33    2.49
   0  -5 -13    3.53    2.11
   0  -5  13   -1.09    1.32
   0   5  13    2.16    2.74
   0  -5 -13    1.03    1.25
   0   5  14    0.57    2.09
   0  -5  14   -0.24    1.61
   0  -5 -14    1.55    1.57
   0  -5  14   -2.03    1.49
   0  -5  15   -1.88    1.10
   0  -5  15   -0.06    2.27
   0   5  15    2.54    2.94
   0   5  16   -1.56    2.44
   0  -5  16    1.63    3.53
   0  -5  16   -2.09    2.54
   0  -5  17    0.43    1.00
   0  -5  17    2.42    2.81
   0   5  17    5.48    2.98
   0   5  18   -2.14    2.18
   0  -5  18   -1.57    3.21
   0  -5  19    0.08    1.46
   0   5  19    1.01    3.50
   0  -5  19    4.39    4.09
   0  -5  20    4.71    3.86
   0  -5  20    6.45    5.80
   0   5  20    1.10    3.85
   0  -5  21    2.94    3.71
   0   5  21    2.75    3.67
   0  -5  21   -2.58    3.72
   0  -5  22    4.16    1.78
   0   5  22    1.08    1.59
   0  -5  22    2.60    4.82
   0   5  23   -2.33    3.63
   0  -5  23   -0.10    3.02
   0  -5  23    0.77    1.33
   0   5  24   10.80    6.57
   0  -5  24   -3.55    3.95
   0  -5  24    5.49    4.05
   0   5  25   -0.55    2.90
   0  -5  25   -3.12    3.83
   0  -5  25    1.56    2.85
   0   5  26    0.84    2.32
   0  -5  26   -6.63    7.14
   0  -5  26    1.86    3.11
   0  -5  27   -4.14    5.36
   0  -5  27    7.21    4.09
   0   5  27    9.12    4.94
   0  -5  28    3.84    5.08
   0   5  28    9.55    7.92
   0  -5  28    7.22    6.07
   0  -5  29   -1.57    4.52
   0  -5  29    2.41    3.24
   0  -5  30    2.89    3.63
   0  -5  30   -6.43    5.80
   0  -5  31    5.69    7.16
   0  -5  32    8.64    7.26
   0  -5  33   -2.66    3.12
   0  -5  34    3.21    6.76
   0  -5  35   10.31    9.81
   0  -5  36    3.00    5.67
   0  -6   1  610.48   13.46
   0  -6   2  100.50    6.37
   0  -6   3    0.88    0.62
   0  -6   4  359.11   14.97
   0  -6   5    0.89    1.40
   0  -6  -5    1.27    0.66
   0  -6   5    0.30    0.66
   0  -6   6   11.03    2.97
   0  -6   6    2.64    1.17
   0  -6  -6    9.57    1.91
   0   6  -7  728.28   30.23
   0  -6  -7  664.17   18.27
   0  -6   7  657.43   24.58
   0  -6   7  687.78   33.88
   0  -6   8    6.99    2.65
   0  -6  -8   11.64    2.71
   0  -6   8   15.59    5.06
   0   6  -8   10.78    3.37
   0  -6  -9  218.01   12.68
   0  -6   9  185.77   18.11
   0   6  -9  228.39   18.58
   0  -6   9  208.49   15.35
   0  -6 -10   83.15    8.35
   0  -6 -10   68.15    7.13
   0   6 -10   60.17   10.17
   0  -6  10   70.14    9.29
   0  -6  10   79.85   11.84
   0  -6  11   -1.23    1.81
   0  -6 -11   -0.40    0.77
   0  -6  11   -0.36    1.08
   0  -6 -11    2.28    1.47
   0  -6  12   23.88    5.85
   0  -6 -12   28.57    5.63
   0  -6 -12   22.54    3.79
   0  -6  12   19.90    6.00
   0  -6 -12   24.99    5.21
   0  -6 -13    9.56    3.41
   0  -6 -13   18.55    4.91
   0  -6  13   15.67    5.10
   0  -6  13   17.68    5.96
   0  -6 -13   16.67    3.18
   0  -6  14   39.81    8.39
   0  -6 -14   29.56    3.74
   0  -6 -14   38.29    7.35
   0  -6  14   28.97    7.51
   0  -6 -14   39.24    5.54
   0   6  15    6.84    3.61
   0  -6  15    1.01    2.65
   0  -6  15    5.02    2.59
   0  -6 -15    0.36    0.75
   0  -6  16  102.76   14.53
   0   6  16  126.89   14.61
   0  -6  16  116.26   15.12
   0  -6  17   -3.18    2.91
   0   6  17    0.54    0.94
   0  -6  18   42.11    9.62
   0   6  18   50.33   10.08
   0  -6  18   53.77   10.80
   0   6  19  927.82   44.23
   0  -6  19 1022.26   47.87
   0  -6  19  978.51   47.27
   0  -6  20  204.19   21.86
   0  -6  20  200.03   21.85
   0   6  20  223.58   22.41
   0   6  21   15.55    5.91
   0  -6  21   12.44    5.37
   0  -6  21   13.71    6.55
   0   6  22  220.76   23.70
   0  -6  22  211.44   22.94
   0  -6  22  235.39   25.45
   0  -6  23   14.81    7.47
   0  -6  23   18.61    7.39
   0  -6  24   56.05   13.76
   0  -6  24   32.90    8.83
   0  -6  25  302.06   28.40
   0  -6  25  300.29   30.90
   0  -6  26   53.76   12.25
   0  -6  26   54.33   13.93
   0  -6  27   11.57    7.24
   0  -6  27   17.47    7.47
   0  -6  28    4.04    3.01
   0  -6  28    5.93    5.84
   0  -6  29   45.13   11.28
   0  -6  29   44.47   13.09
   0  -6  30  113.69   18.64
   0  -6  30  133.66   23.27
   0  -6  31   21.65    7.97
   0  -6  31   12.45    7.22
   0  -6  32   19.47   10.58
   0  -6  33    0.80    2.87
   0  -6  34    0.76    3.75
   0  -6  35   18.17    9.35
   0  -7   1   -0.66    0.61
   0  -7   2    1.45    0.79
   0  -7   3    1.03    1.25
   0  -7   3    1.59    1.59
   0  -7   4    1.27    1.21
   0  -7   4    1.66    2.61
   0  -7   5   -0.22    0.71
   0  -7   5   -1.84    2.78
   0  -7   6    0.83    1.91
   0  -7   6   -0.79    1.50
   0  -7  -7    0.55    0.70
   0  -7   7   -1.38    1.41
   0  -7   7   -1.27    2.28
   0  -7   8   -2.09    2.51
   0  -7  -8    1.70    2.42
   0  -7  -8   -0.84    0.86
   0  -7   8   -2.12    2.00
   0  -7   9   -0.73    0.84
   0  -7  -9   -0.34    0.92
   0  -7  -9    1.30    1.65
   0  -7 -10   -0.80    1.36
   0  -7  10    0.16    2.34
   0  -7 -10   -0.34    1.62
   0  -7  10    2.47    2.72
   0  -7 -11    2.21    2.19
   0  -7  11    0.11    1.11
   0  -7  11   -0.04    1.70
   0  -7 -11    0.31    0.68
   0  -7 -12    0.02    0.93
   0  -7  12    1.63    3.09
   0  -7 -12   -0.87    0.66
   0  -7  12   -0.02    1.78
   0  -7  13   -0.47    3.15
   0  -7 -13    2.31    2.86
   0  -7 -13    0.45    0.49
   0  -7  13    4.84    3.01
   0  -7 -13    0.81    1.78
   0  -7 -14   -0.50    0.77
   0  -7 -14   -0.66    0.87
   0  -7  14   -1.19    1.52
   0  -7  14   -1.09    2.97
   0  -7 -14    0.68    2.03
   0  -7  15   -1.95    1.84
   0  -7  15   -0.62    1.78
   0  -7 -15   -0.38    1.96
   0  -7 -15    0.44    1.47
   0  -7 -15    0.63    0.88
   0  -7 -16   -0.44    1.14
   0  -7  16   -0.69    1.03
   0  -7 -16    0.27    0.78
   0  -7  17   -0.30    1.78
   0  -7  17    3.53    4.28
   0  -7  18    2.37    3.01
   0  -7  18    0.85    2.17
   0  -7  19    0.98    3.31
   0  -7  19    4.25    2.69
   0  -7  20    2.58    2.87
   0  -7  20   -0.49    2.04
   0  -7  21    0.26    3.48
   0  -7  21    3.46    4.46
   0  -7  22    8.73    5.63
   0  -7  22    6.48    4.82
   0  -7  23    0.90    2.54
   0  -7  23   -0.85    2.42
   0  -7  24   -4.13    5.07
   0  -7  24   -1.55    3.66
   0  -7  25    1.51    1.58
   0  -7  25    5.91    3.20
   0  -7  26    1.08    2.93
   0  -7  26    8.41    6.25
   0  -7  27   -0.22    3.50
   0  -7  27   -4.74    4.68
   0  -7  28    6.46    6.89
   0  -7  28   -0.17    2.74
   0  -7  29   12.21    7.61
   0  -7  29   -0.07    4.49
   0  -7  30   -3.62    3.42
   0  -7  30    6.00    6.69
   0  -7  31   -2.24    4.39
   0  -7  31    5.03    6.80
   0  -7  32   12.20    6.92
   0  -7  32    7.11    6.77
   0  -7  33   14.53   10.57
   0  -7  34   -4.34    3.71
   0  -7  35    5.15    4.50
   0  -8   0 9999.00  129.31
   0  -8   1 3668.10   35.22
   0  -8   1 3776.76   81.62
   0  -8  -1 3671.02   78.14
   0  -8   2    3.83    3.83
   0  -8  -2    7.09    4.33
   0  -8   2    1.40    0.86
   0  -8  -3  213.14   18.38
   0  -8   3  179.65   10.07
   0  -8   3  182.38   18.19
   0  -8  -4  627.57   30.64
   0  -8   4  653.12   20.99
   0  -8   4  641.85   35.68
   0  -8  -5  198.47   16.91
   0  -8   5  204.56   20.09
   0  -8   5  166.57   11.54
   0  -8   6   67.01   11.72
   0  -8   6   57.42    7.23
   0  -8  -6   60.95    9.21
   0  -8   7   40.09    6.31
   0  -8   7   47.19   10.31
   0  -8  -7   43.33    7.68
   0  -8   8  129.90   16.62
   0  -8   8  145.28   12.87
   0  -8  -8  165.62   14.77
   0  -8  -9    9.47    3.28
   0  -8   9   10.40    3.79
   0  -8   9    6.90    1.11
   0  -8  10   -0.13    1.88
   0  -8 -10    6.36    2.67
   0  -8  10    6.65    5.13
   0  -8 -10    5.59    2.19
   0  -8  11  103.43   15.64
   0  -8 -11  127.41   11.92
   0  -8 -11  121.65   10.65
   0  -8  11  126.50   13.73
   0  -8  12    1.33    1.37
   0  -8 -12    0.84    0.72
   0  -8  12    0.66    3.28
   0  -8 -12    6.08    3.09
   0  -8  13   10.06    4.01
   0  -8 -13    5.18    2.44
   0  -8  13    4.42    4.67
   0  -8 -13    7.70    3.43
   0  -8 -14  177.09   15.68
   0  -8 -14  158.95   16.00
   0  -8  14  155.23   19.82
   0  -8  14  167.17   17.21
   0  -8 -14  161.56   11.92
   0  -8 -15   73.54   10.74
   0  -8 -15   72.22   10.43
   0  -8  15   67.27   13.14
   0  -8 -15   68.60    7.41
   0  -8  15   76.73   12.31
   0  -8 -16    4.05    1.99
   0  -8 -16   -0.71    1.69
   0  -8  16    5.40    3.37
   0  -8  16    2.10    5.35
   0  -8  17    5.01    4.75
   0  -8 -17    0.86    0.55
   0  -8  17   -0.51    5.81
   0  -8  18   19.52    6.86
   0  -8  18   24.71    8.85
   0  -8  19   58.66   11.91
   0  -8  19   66.44   13.74
   0  -8  20    0.24    2.89
   0  -8  20    3.83    3.60
   0  -8  21  718.45   45.08
   0  -8  21  735.90   45.73
   0  -8  22  808.50   48.67
   0  -8  22  638.18   43.82
   0  -8  23  874.99   51.67
   0  -8  23  808.35   49.84
   0  -8  24   60.65   14.34
   0  -8  24   66.99   14.86
   0  -8  25  238.16   28.62
   0  -8  25  246.15   27.99
   0  -8  26   75.82   15.93
   0  -8  26   60.07   13.71
   0  -8  27   30.12   11.34
   0  -8  27   51.11   13.28
   0  -8  28   10.53    6.14
   0  -8  28    2.12    3.56
   0  -8  29  100.63   19.05
   0  -8  29  105.80   21.19
   0  -8  30   26.88   10.80
   0  -8  30   14.11    8.28
   0  -8  31   28.42    9.57
   0  -8  31   49.81   16.06
   0  -8  32   12.68    9.13
   0  -8  32    5.35    6.76
   0  -8  33   -2.11    6.14
   0  -8  34   12.53    9.06
   0  -9   0   -1.31    0.93
   0  -9  -1   -0.51    2.70
   0  -9   1    5.91    3.49
   0  -9   2    4.04    3.36
   0  -9  -2   -1.83    2.80
   0  -9   2   -1.10    0.88
   0  -9   3   -2.27    3.17
   0  -9   3    0.91    0.96
   0  -9  -3   -0.89    1.90
   0  -9  -4    1.14    3.03
   0  -9   4    2.96    3.30
   0  -9   4   -0.56    0.90
   0  -9  -5   -1.18    1.72
   0  -9   5   -1.06    1.70
   0  -9   5    1.70    1.43
   0  -9   6    1.63    0.62
   0  -9   6   -0.12    3.95
   0  -9  -6    1.85    1.56
   0  -9   7    1.96    1.34
   0  -9   7   -0.67    2.97
   0  -9  -7    4.84    3.75
   0  -9   8    0.20    1.95
   0  -9  -8    2.03    1.32
   0  -9   9   -0.03    1.73
   0  -9  -9   -0.60    0.75
   0  -9   9    1.86    4.63
   0  -9  10    2.54    4.53
   0  -9  10   -0.82    1.56
   0  -9 -10    0.51    1.44
   0  -9  11   -0.27    1.34
   0  -9  11   -1.23    2.35
   0  -9 -11   -2.66    2.27
   0  -9  12   -2.61    2.78
   0  -9  12    2.55    3.29
   0  -9 -12    1.56    2.72
   0  -9  13    5.42    3.51
   0  -9  13    5.44    3.48
   0  -9 -13    4.58    2.98
   0  -9  14    0.44    2.31
   0  -9  14   -3.61    5.74
   0  -9 -14    1.22    2.37
   0  -9 -15   -0.63    1.06
   0  -9  15    0.88    2.75
   0  -9  15    0.37    2.10
   0  -9  16    2.25    2.90
   0  -9  16    0.47    4.16
   0  -9 -16    0.97    1.94
   0  -9  17   -0.71    2.22
   0  -9  17    1.18    1.90
   0  -9 -17    1.17    1.43
   0  -9  18    4.05    4.94
   0  -9  18   -0.13    1.44
   0  -9  19   -0.60    3.53
   0  -9  19    7.18    4.65
   0  -9  20   -0.35    1.73
   0  -9  20    7.35    5.40
   0  -9  21   -0.19    2.55
   0  -9  21   -0.03    2.34
   0  -9  22    3.84    5.44
   0  -9  22   -2.55    2.83
   0  -9  23    3.51    4.80
   0  -9  23    2.18    2.24
   0  -9  24    7.43    5.88
   0  -9  24    1.53    4.37
   0  -9  25   12.88    7.63
   0  -9  25    0.78    4.82
   0  -9  26   -6.20    5.00
   0  -9  26   -3.73    5.46
   0  -9  27    3.65    5.02
   0  -9  27    0.18    2.16
   0  -9  28    6.41    6.39
   0  -9  28    5.34    5.72
   0  -9  29   -3.82    5.53
   0  -9  29    0.88    4.26
   0  -9  30   -7.80    7.69
   0  -9  30   -6.46    5.11
   0  -9  31   -4.07    6.89
   0  -9  31    2.42    3.43
   0  -9  32    0.84    3.13
   0  -9  32    6.92    6.95
   0  -9  33  -11.30    9.48
   0 -10   0   78.67   13.41
   0 -10   1  744.81   40.77
   0 -10  -1  786.12   40.75
   0 -10   2    9.46    7.12
   0 -10  -2    5.31    4.39
   0 -10  -3  533.84   32.91
   0 -10   3  554.43   36.03
   0 -10   4  227.83   24.07
   0 -10   4  256.49   13.94
   0 -10  -4  246.41   22.15
   0 -10  -5  104.18   14.43
   0 -10   5  114.43   16.91
   0 -10   5   99.45    9.50
   0 -10  -6    2.53    3.05
   0 -10   6    0.33    3.00
   0 -10   6    4.61    2.51
   0 -10   7  298.34   18.58
   0 -10  -7  295.44   23.19
   0 -10   7  320.29   28.79
   0 -10   8  146.14   13.57
   0 -10   8  177.09   22.00
   0 -10  -8  167.59   17.31
   0 -10   9    2.75    1.25
   0 -10   9    1.02    2.91
   0 -10  -9    0.86    3.29
   0 -10  10    4.13    4.11
   0 -10 -10   -1.22    2.48
   0 -10  10    1.78    1.89
   0 -10 -11    7.05    3.76
   0 -10  11   -0.43    1.06
   0 -10  11    4.68    3.53
   0 -10  12    1.84    2.09
   0 -10 -12    2.48    1.05
   0 -10  13    2.75    3.19
   0 -10 -13   -0.11    1.03
   0 -10  13    3.84    5.51
   0 -10  14  147.41   17.02
   0 -10 -14  125.92   13.02
   0 -10  14  144.79   20.70
   0 -10 -15  228.98   16.87
   0 -10  15  251.34   23.12
   0 -10  15  272.63   29.31
   0 -10  16   81.78   16.00
   0 -10  16  105.80   15.35
   0 -10 -16   92.36   10.43
   0 -10  17   80.75   16.00
   0 -10  17   88.42   14.68
   0 -10  18   16.06    6.15
   0 -10  18   38.62   11.06
   0 -10  19  289.22   28.00
   0 -10  19  258.03   29.41
   0 -10  20    7.47    6.49
   0 -10  20   -1.31    3.14
   0 -10  21  615.24   46.19
   0 -10  21  539.62   40.65
   0 -10  22  129.52   21.45
   0 -10  22  101.36   18.14
   0 -10  23  205.79   26.68
   0 -10  23  241.42   29.89
   0 -10  24   20.62   10.57
   0 -10  24    2.22    4.97
   0 -10  25   92.92   18.38
   0 -10  25   81.77   18.28
   0 -10  26    0.28    3.05
   0 -10  26   15.50    8.05
   0 -10  27   51.95   14.67
   0 -10  27   60.61   15.73
   0 -10  28   69.50   17.44
   0 -10  28   88.28   20.12
   0 -10  29   71.82   18.01
   0 -10  29   57.94   16.50
   0 -10  30   45.01   14.62
   0 -10  30   36.73   13.34
   0 -10  31   11.41    9.24
   0 -10  31   17.35    9.64
   0 -10  32   -1.20    3.56
   0 -10  32    8.06    9.32
   0 -10  33   12.29    8.36
   0 -10  33    4.38    6.88
   0 -11   0    0.19    1.11
   0 -11   1    0.71    2.75
   0 -11  -1   -0.55    1.46
   0 -11   2   -0.16    3.71
   0 -11  -2    2.31    3.04
   0 -11  -3   -3.46    3.61
   0 -11   3   -1.66    3.93
   0 -11  -4    0.67    3.84
   0 -11   4    4.72    5.45
   0 -11  -5    2.46    2.50
   0 -11   5    8.30    6.01
   0 -11  -6   -0.59    2.58
   0 -11   6    1.26    3.13
   0 -11   6    1.30    2.01
   0 -11  -7   -0.94    1.37
   0 -11   7    0.57    0.85
   0 -11   7    1.46    4.29
   0 -11   8    1.31    2.98
   0 -11  -8   -1.15    1.08
   0 -11   8   -1.00    0.90
   0 -11  -9   -2.14    3.03
   0 -11   9   -0.26    1.95
   0 -11   9    3.00    2.94
   0 -11 -10    4.82    2.72
   0 -11  10   -2.16    2.55
   0 -11  10    0.91    3.44
   0 -11  11    5.49    6.39
   0 -11 -11    3.10    3.45
   0 -11  11   -3.10    3.04
   0 -11  12   -1.55    1.39
   0 -11 -12    0.83    2.86
   0 -11  12   -5.24    3.63
   0 -11 -13    4.97    3.82
   0 -11  13    2.77    2.71
   0 -11  13   -0.26    2.66
   0 -11 -14   -0.18    1.04
   0 -11  14    0.77    1.14
   0 -11  15    1.36    2.33
   0 -11  15    2.79    4.20
   0 -11 -15   -1.92    2.74
   0 -11  16    1.49    3.52
   0 -11  16    1.77    2.44
   0 -11  17   -0.77    2.08
   0 -11  17   -0.07    2.36
   0 -11  18    2.92    3.10
   0 -11  18    2.56    5.66
   0 -11  19   -1.88    1.45
   0 -11  19   -7.20    5.63
   0 -11  20    5.02    5.01
   0 -11  20    3.11    3.43
   0 -11  21    1.46    4.07
   0 -11  21   15.09    8.29
   0 -11  22   -1.85    4.29
   0 -11  22    0.03    2.76
   0 -11  23    2.47    4.41
   0 -11  23    2.25    4.49
   0 -11  24   -0.26    3.13
   0 -11  24    6.09    7.31
   0 -11  25    5.50    3.75
   0 -11  25   -0.10    4.52
   0 -11  26   -2.52    3.57
   0 -11  26   11.62    8.10
   0 -11  27   -1.10    2.84
   0 -11  27    1.90    4.77
   0 -11  28   -4.09    6.02
   0 -11  28    5.59    6.30
   0 -11  29   -2.56    3.73
   0 -11  29    5.20    7.09
   0 -11  30   -6.37    4.67
   0 -11  30    1.10    4.07
   0 -11  31    1.33    4.61
   0 -11  31    8.29    5.70
   0 -11  32    1.05    5.66
   0 -11  32    8.48    8.64
   0 -12   0 1519.41   64.40
   0 -12  -1   47.62   11.77
   0 -12   1   32.26    9.45
   0 -12   2   51.16   14.05
   0 -12  -2   37.91   10.03
   0 -12   3 1091.76   56.00
   0 -12  -3 1050.03   52.26
   0 -12   4  189.08   23.82
   0 -12  -4  177.22   21.51
   0 -12  -5  276.41   26.00
   0 -12   5  260.73   28.43
   0 -12  -6    4.53    5.10
   0 -12   6    0.46    2.44
   0 -12   7    8.39    5.67
   0 -12  -7    8.77    5.32
   0 -12   8    3.68    3.24
   0 -12  -8    1.44    3.37
   0 -12  -9    4.81    3.55
   0 -12   9   -2.18    4.35
   0 -12   9    3.71    3.27
   0 -12  10    3.74    3.53
   0 -12  10   -1.42    2.75
   0 -12 -10   -1.79    2.69
   0 -12 -11    5.50    4.64
   0 -12  11    0.95    1.29
   0 -12  11   10.14    6.80
   0 -12  12    1.92    2.45
   0 -12  12   -3.00    3.16
   0 -12  13   25.59    9.33
   0 -12 -13   30.74    7.87
   0 -12  13   26.11    7.52
   0 -12 -14   66.06   10.94
   0 -12  14   46.55   10.06
   0 -12  14   62.50   14.83
   0 -12  15    5.15    3.83
   0 -12  15   20.22    9.48
   0 -12  16   16.04    7.78
   0 -12  16    7.16    4.30
   0 -12  17    8.08    5.67
   0 -12  17    6.78    7.40
   0 -12  18   22.05    9.08
   0 -12  18   29.72    9.78
   0 -12  19  432.21   41.12
   0 -12  19  482.26   38.44
   0 -12  20   22.80   12.30
   0 -12  20    6.04    5.92
   0 -12  21   75.54   17.90
   0 -12  21   18.40    8.62
   0 -12  22  270.93   34.31
   0 -12  22  216.50   28.27
   0 -12  23    0.46    4.65
   0 -12  23    2.08    4.13
   0 -12  24   54.19   15.87
   0 -12  24   44.57   14.41
   0 -12  25  324.57   36.08
   0 -12  25  348.66   40.14
   0 -12  26   14.93   10.16
   0 -12  26   -3.19    3.56
   0 -12  27   47.67   15.81
   0 -12  27   50.50   16.55
   0 -12  28   -4.02    4.75
   0 -12  28    2.88    4.75
   0 -12  29    8.57    8.43
   0 -12  29    4.05    7.05
   0 -12  30    2.48    6.31
   0 -12  31    9.25    8.26
   0 -13   0   -0.46    3.96
   0 -13  -1    1.32    1.92
   0 -13   1   -0.11    2.23
   0 -13  -2    1.70    2.90
   0 -13   2   -5.01    4.82
   0 -13  -3   -3.16    3.58
   0 -13   3    0.83    4.45
   0 -13  -4   -3.49    4.37
   0 -13   4    0.55    5.03
   0 -13  -5    2.16    3.53
   0 -13   5    0.56    1.88
   0 -13  -6    2.99    3.41
   0 -13   6   -2.47    1.45
   0 -13   7   -1.51    4.50
   0 -13  -7   -0.60    3.44
   0 -13  -8    1.01    3.58
   0 -13   8    1.78    2.92
   0 -13  -9    1.51    1.35
   0 -13   9    3.17    5.34
   0 -13  10    2.26    4.86
   0 -13 -10   -0.64    2.78
   0 -13  11    2.00    6.73
   0 -13 -11   -1.72    2.44
   0 -13 -12    1.08    1.41
   0 -13  12   -3.07    4.43
   0 -13  13   -3.91    5.25
   0 -13  13   -3.32    4.16
   0 -13 -13   -0.81    1.33
   0 -13  14   -2.11    2.96
   0 -13  14    3.19    3.47
   0 -13  15    9.63    6.87
   0 -13  15    1.13    1.93
   0 -13  16   -0.57    2.32
   0 -13  16   -3.98    5.90
   0 -13  17   10.60    7.69
   0 -13  17   12.03    8.06
   0 -13  18    0.66    4.74
   0 -13  18    2.20    3.47
   0 -13  19    6.40    5.64
   0 -13  19    3.49    3.19
   0 -13  20    9.49    8.54
   0 -13  20    1.50    3.56
   0 -13  21    1.16    5.99
   0 -13  21    3.93    4.74
   0 -13  22    0.85    2.96
   0 -13  22    2.30    5.91
   0 -13  23   -2.35    2.80
   0 -13  23    1.03    3.81
   0 -13  24    1.19    3.49
   0 -13  24   -4.73    4.65
   0 -13  25    6.43    7.26
   0 -13  25   -4.62    5.77
   0 -13  26    8.32    5.80
   0 -13  27    8.89    7.13
   0 -13  28    7.74    7.87
   0 -14   0  298.33   31.90
   0 -14  -1   10.18    7.52
   0 -14   1   23.69   10.86
   0 -14  -2  270.12   29.69
   0 -14   2  267.84   30.76
   0 -14   3   33.12   12.50
   0 -14  -3   35.02   11.59
   0 -14  -4  137.19   20.68
   0 -14   4  164.70   24.58
   0 -14   5  156.82   23.60
   0 -14  -5  170.70   22.77
   0 -14  -6   83.72   15.94
   0 -14   6   63.14   15.39
   0 -14   7    9.57    6.85
   0 -14  -7   12.61    6.58
   0 -14  -8   89.89   16.38
   0 -14   8   90.85   18.89
   0 -14  -9   80.44   14.92
   0 -14   9   51.64   13.67
   0 -14  10   10.97    6.37
   0 -14 -10    6.84    4.36
   0 -14  11   13.92    6.56
   0 -14 -11    7.15    4.17
   0 -14 -12   77.66   14.01
   0 -14  12   92.97   19.84
   0 -14  13   58.58   15.82
   0 -14  14    2.76    3.37
   0 -14  15   77.55   18.72
   0 -14  16    6.44    7.31
   0 -14  17   36.49   13.53
   0 -14  18  100.65   22.14
   0 -14  19   -1.29    4.24
   0 -14  20  335.65   40.91
   0 -14  21  115.57   23.58
   0 -14  22  120.90   24.79
   0 -14  23   15.04    8.74
   0 -14  24   87.11   21.28
   0 -14  25   28.63   12.95
   0 -15   0   -5.52    4.73
   0 -15   1    1.39    3.28
   0 -15  -1    5.17    6.95
   0 -15   2    1.04    4.19
   0 -15  -2    3.52    5.69
   0 -15   3   -1.30    4.41
   0 -15  -3    4.78    6.36
   0 -15  -4    4.00    3.96
   0 -15   4   -2.26    4.97
   0 -15  -5    1.58    3.16
   0 -15   5   -4.50    6.32
   0 -15  -6    7.53    6.96
   0 -15   6   20.17   11.23
   0 -15   7   10.01    7.39
   0 -15  -7    4.10    4.32
   0 -15  -8   -0.50    2.73
   0 -15   8    3.73    5.26
   0 -15  -9   10.10    6.99
   0 -15   9    3.53    3.86
   0 -15 -10    1.47    4.32
   0 -15  10   -1.35    2.87
   0 -15  11   -0.90    4.73
   0 -15 -11    4.31    4.44
   0 -15  12    0.04    3.18
   0 -15  13   -1.29    5.52
   0 -15  14    1.29    2.65
   0 -15  15    1.78    5.58
   0 -15  16   -6.15    5.40
   0 -15  17   -5.77    7.99
   0 -15  18    4.33    3.95
   0 -15  19   -0.78    5.94
   0 -15  20    8.76    8.50
   0 -15  21    8.60   11.18
   0 -15  22    3.63    3.81
   0 -16   0  122.30   22.05
   0 -16  -1  141.81   23.80
   0 -16   1   89.59   19.92
   0 -16  -2  323.40   35.58
   0 -16   2  368.72   39.53
   0 -16  -3  128.43   22.57
   0 -16   3  145.93   25.49
   0 -16  -4  370.36   37.79
   0 -16   4  407.25   41.99
   0 -16   5    4.86    2.90
   0 -16  -5    6.78    5.53
   0 -16   6   68.11   17.46
   0 -16  -6   35.26   11.75
   0 -16   7    8.29    7.69
   0 -16  -7    9.69    7.39
   0 -16   8   46.08   15.21
   0 -16  -8   54.90   12.88
   0 -16  -9   -2.87    4.40
   0 -16   9    6.10    7.52
   0 -16  10   32.59   13.53
   0 -16 -10   67.21   15.37
   0 -16  11   10.90    8.48
   0 -16  12   62.13   18.04
   0 -16  13   15.37    7.33
   0 -16  14  202.34   32.74
   0 -16  15   -5.15    7.39
   0 -16  16   66.73   19.91
   0 -16  17   12.77    8.44
   0 -16  18   70.21   20.40
   0 -17   0    4.37    4.62
   0 -17  -1    2.25    5.41
   0 -17   1    7.41    6.25
   0 -17   2    1.91    3.20
   0 -17  -2    8.34    7.44
   0 -17  -3    3.29    2.62
   0 -17   3    0.44    4.83
   0 -17  -4   -5.56    5.15
   0 -17   4   10.10    8.41
   0 -17   5    3.84    8.83
   0 -17  -5    7.44    6.71
   0 -17  -6   11.93    8.15
   0 -17   7   -8.62    8.02
   0 -17  -7   -2.39    3.12
   0 -17   8   -3.34    5.14
   0 -17  -8    1.06    3.81
   0 -17   9    2.25    5.89
   0 -17  10   -3.93    4.74
   0 -17  11   26.98   14.43
   0 -17  12   -3.68    4.79
   0 -17  13    6.77    5.67
   0 -17  14   -1.78    6.13
   0 -18   0  435.76   46.56
   0 -18  -1   86.71   20.69
   0 -18   1  107.46   23.15
   0 -18  -2  109.76   22.60
   0 -18   2  116.15   27.06
   0 -18  -3   13.90    8.39
   0 -18   3    2.37    5.27
   0 -18  -4   56.60   15.85
   0 -18   4   50.59   18.01
   0 -18   5   -2.77    6.90
   0 -18  -5   -3.94    6.79
   0 -18   6   34.75   13.93
   0 -18  -6   31.70   13.15
   0 -18   7   -4.65    6.59
   0 -18   8   10.00    8.71
   0 -18   9   17.21    9.62
   0 -19   0    9.16    7.48
   0 -19  -1    1.31    4.59
   0 -19   1   13.11    9.28
   0 -19   2   -5.49    5.93
   0 -19  -2  -10.02    8.81
   0 -19  -3   -1.93    3.07
   0 -19   3   -2.93    7.50
   0 -19  -4    6.70    8.29
   0 -19  -5   -3.52    4.30
  -1   0   0    0.27    0.37
   1   0   0   -1.25    0.69
   1   0  -1    0.01    0.27
  -1   0  -1   -0.10    0.33
  -1   0   1   -0.08    0.26
   1   0   1    0.43    0.64
  -1   0  -2   -0.01    0.28
   1   0   2   36.28    3.83
   1   0  -2   51.03    4.73
  -1   0   2   -0.06    0.17
  -1   0   3   -0.22    0.76
   1   0  -3    1.24    0.68
   1   0   3   -0.17    0.20
   1   0  -4 2154.33   34.28
   1   0  -4 2130.19   31.22
  -1   0   5    0.26    0.94
   1   0   5    0.96    1.30
   1   0  -5    0.30    0.57
   1   0  -5   -0.28    0.79
  -1   0   6   57.47    6.04
   1   0   6   70.98    7.14
  -1   0   6   60.77    6.52
   1   0  -6   64.94    5.78
   1   0  -6   67.32    6.83
   1   0  -7    0.13    0.64
   1   0  -7    0.93    1.03
   1   0   7    0.17    1.53
  -1   0   7   -2.19    1.93
  -1   0   7    0.72    0.62
  -1   0  -7   -1.47    1.75
   1   0  -8 2141.16   42.59
   1   0   8 2172.10   43.58
   1   0  -8 2236.38   35.95
  -1   0   8 2168.68   44.51
  -1   0  -8 2241.81   48.40
  -1   0   8 2176.77   38.44
   1   0  -9   -1.04    1.57
   1   0  -9    0.94    0.64
  -1   0  -9    2.07    2.23
   1   0   9    0.95    1.01
  -1   0   9    0.90    1.03
  -1   0   9    1.19    0.55
  -1   0  10 3787.01   54.67
  -1   0  10 3843.78   65.62
  -1   0 -10 3853.50   69.75
   1   0  10 3856.46   62.69
   1   0 -10 3778.42   63.64
   1   0 -10 3904.73   50.29
   1   0 -11    0.26    1.21
   1   0  11    1.80    2.39
  -1   0  11    2.21    2.35
  -1   0  11   -0.18    1.19
   1   0 -11    1.24    1.16
  -1   0 -11    0.53    1.27
   1   0 -12 2037.94   50.65
   1   0  12 2193.48   52.23
  -1   0  12 2092.31   43.39
  -1   0  12 2226.51   54.35
   1   0 -12 2091.47   39.52
  -1   0 -12 2120.06   57.40
   1   0  12 2051.33   33.48
   1   0 -13    1.80    1.61
   1   0  13    2.68    1.68
  -1   0  13   -0.23    1.43
  -1   0  13    1.05    1.62
   1   0  13    0.21    1.09
   1   0  14   76.01    6.88
  -1   0  14   71.12   10.58
  -1   0  14   69.51    8.42
   1   0  14   72.49   10.68
   1   0 -14   64.39    7.29
  -1   0  15   -0.53    1.78
   1   0 -15    1.81    2.02
   1   0  15    1.51    1.39
   1   0  15    4.79    3.00
  -1   0  15    0.65    1.13
  -1   0  16    3.21    2.65
   1   0  16   13.56    3.06
   1   0  16   11.18    4.85
  -1   0  16   10.73    3.93
  -1   0  17    4.22    2.86
   1   0  17    0.78    2.13
   1   0  17   -0.69    1.33
  -1   0  17    1.53    1.72
  -1   0  18 1011.69   46.06
   1   0  18 1035.42   29.03
  -1   0  18 1083.74   36.76
   1   0  18 1004.24   44.22
  -1   0  19   -0.46    1.72
   1   0  19   -2.17    1.71
  -1   0  19   -1.49    2.03
   1   0  19    0.89    1.81
  -1   0  20   63.33    9.57
   1   0  20   76.32   12.71
   1   0  20   64.92    7.62
  -1   0  20   73.21   12.93
  -1   0  21    2.45    2.64
   1   0  21    2.22    2.47
  -1   0  21    1.07    1.81
   1   0  21   -2.72    1.48
  -1   0  22   49.52    8.84
   1   0  22   47.83    7.12
   1   0  22   41.14   10.18
  -1   0  22   51.95   11.46
  -1   0  23    1.61    2.82
   1   0  23   -3.22    2.99
  -1   0  23   -1.67    1.82
   1   0  23    0.28    1.95
  -1   0  24   10.69    6.13
   1   0  24    0.71    3.25
  -1   0  24    3.70    3.52
   1   0  24    6.54    2.68
  -1   0  25   -5.13    4.20
  -1   0  25    5.07    4.56
   1   0  25    5.15    5.22
   1   0  25   -1.33    1.68
  -1   0  26  340.02   25.24
   1   0  26  296.19   18.98
  -1   0  26  253.10   28.34
   1   0  26  278.22   28.42
  -1   0  27    0.20    2.23
  -1   0  27    2.16    6.08
  -1   0  28  107.37   19.64
   1   0  28   83.59   16.69
  -1   0  29    0.10    3.61
   1   0  29    5.54    5.47
   1   0  30  124.06   21.32
  -1   0  30  107.40   21.51
   1   0  31    3.58    5.12
  -1   0  31    0.97    3.48
  -1   0  32  338.45   38.92
   1   0  32  329.65   36.32
   1   0  33    3.45    4.81
   1   0  34  161.43   26.65
   1   0  35   12.58    8.14
   1   0  36   14.25    8.23
   1   0  37   -0.05    4.60
   1  -1   0    0.36    0.71
  -1  -1   0    0.06    0.27
   1   1   0    1.20    1.01
   1   1  -1   36.38    3.88
   1   1   1   49.80    4.19
  -1  -1  -1   -0.09    0.30
  -1  -1   1    0.02    0.28
   1  -1  -1   43.60    4.73
  -1   1   1    0.17    0.44
   1   1  -2  149.16    8.26
   1  -1  -2  144.20    8.61
   1   1   2   -0.26    0.40
  -1   1   2   -0.04    0.26
  -1  -1  -2   -0.05    0.31
  -1  -1   2    0.42    0.75
  -1  -1  -3  403.18   11.05
  -1   1   3   -1.11    1.02
   1   1   3    0.19    0.65
   1  -1  -3  363.85   13.34
   1   1  -3  366.60   13.33
   1   1  -3  401.82   14.42
   1   1  -4  127.62    8.40
  -1   1   4  124.47    7.92
  -1  -1   4    0.20    0.36
   1   1   4   30.71    3.97
   1   1  -4  121.21    8.08
   1  -1  -4  101.86    7.21
   1   1  -5  237.63   12.25
   1  -1  -5  202.68   11.08
  -1  -1   5  175.42   10.62
   1   1   5  202.36   10.78
  -1  -1   5  226.79   11.88
   1   1  -5  202.85   10.98
   1  -1  -5  190.79    9.78
  -1   1   5  202.10   10.15
  -1  -1   6  108.31    8.69
   1  -1   6  101.87    9.00
   1   1   6   99.66    8.03
   1  -1  -6  102.86    7.11
   1   1  -6   92.78    7.60
  -1   1   6   90.43    7.05
   1   1  -6  113.16    8.86
   1  -1  -6   91.10    7.80
  -1  -1   6   94.03    8.41
  -1   1  -7   28.82    5.53
   1  -1   7   32.18    5.36
  -1  -1   7   27.47    4.87
  -1   1   7   22.46    4.50
   1  -1  -7   24.12    3.52
   1   1  -7   27.66    4.29
  -1  -1   7   30.71    4.84
  -1  -1  -7   36.70    5.63
  -1   1   7   31.15    4.15
   1  -1  -7   32.26    4.87
   1   1   7   31.25    4.74
   1   1  -7   28.53    4.84
   1   1   8  877.58   26.46
  -1   1   8  817.77   27.20
  -1  -1   8  812.08   27.44
   1   1  -8  865.96   24.81
  -1   1  -8  951.14   32.57
   1  -1   8  812.52   27.93
  -1   1   8  805.09   22.27
   1  -1  -8  837.45   20.72
   1  -1  -8  836.46   26.18
   1   1  -8  862.03   27.46
  -1  -1  -8  898.90   29.74
  -1  -1   8  854.70   25.73
   1   1   9    1.27    0.85
   1   1  -9    1.75    1.91
   1   1   9    4.35    2.63
  -1  -1   9    6.96    2.68
  -1  -1  -9   -0.63    1.10
  -1   1   9    3.50    1.94
  -1  -1   9    5.12    2.40
  -1   1  -9    2.79    2.38
   1  -1  -9    2.49    1.25
  -1   1   9    2.11    0.56
   1  -1   9    4.01    1.99
   1  -1  -9    2.92    2.33
   1   1  -9    2.48    1.51
   1  -1 -10   13.49    2.89
   1  -1 -10   15.24    4.48
   1   1 -10   16.53    4.26
  -1  -1  10   10.84    3.10
   1   1 -10   13.61    3.42
   1   1  10   11.26    1.73
  -1   1  10   11.63    3.03
  -1   1  10   12.18    3.08
   1  -1  10   10.93    2.86
  -1  -1 -10   13.66    4.09
  -1   1 -10   12.23    3.56
  -1  -1  10    8.62    3.32
   1   1  10    7.67    3.06
  -1  -1 -11  131.92   13.34
  -1  -1  11  129.54   12.67
  -1  -1  11  112.57   10.37
   1  -1  11   86.53    9.83
   1  -1 -11  145.10   13.05
   1  -1 -11  121.62    8.37
   1   1 -11  128.25   10.51
  -1   1  11  119.97    9.40
  -1   1 -11  140.25   14.53
   1   1  11  130.07   12.10
   1   1  11  107.18    5.54
  -1   1  11  126.21   12.39
   1   1 -11  112.83   11.59
  -1   1  12  142.11   13.86
   1  -1  12  148.78   14.05
   1   1  12  137.13    6.64
   1  -1 -12  167.56   14.39
   1   1 -12  143.35   11.51
   1   1  12  162.52   14.15
   1  -1 -12  154.56    9.65
  -1   1  12  156.56   11.22
  -1  -1 -12  144.20   14.34
  -1   1 -12  166.40   16.32
  -1  -1  12  155.38   14.59
  -1  -1  12  159.58   12.77
   1   1 -13    1.40    1.66
   1   1  13    2.16    2.68
  -1   1  13    2.37    1.63
  -1  -1  13   -1.19    1.89
   1  -1  13    0.94    1.20
   1  -1  13    6.07    3.35
   1   1  13   -0.03    0.53
   1  -1 -13    0.66    0.39
  -1   1  13    2.26    1.07
  -1  -1  13    3.09    1.98
   1   1 -14  827.92   28.91
   1   1  14  836.18   18.26
   1  -1  14  942.89   37.86
  -1   1  14  832.38   36.28
  -1  -1  14  862.99   31.26
   1   1  14  888.66   35.37
   1  -1  14  883.46   27.29
   1  -1 -14  843.31   23.52
  -1   1  14  870.36   27.97
   1  -1  15  190.68   13.07
  -1   1  15  177.58   12.98
   1  -1  15  172.93   16.80
   1   1  15  204.96   17.62
  -1   1  15  179.98   17.56
  -1  -1  15  187.99   17.73
   1   1  15  181.49    9.16
  -1  -1  15  192.45   15.19
   1  -1 -15  188.28   11.31
   1   1  16    4.72    1.83
  -1   1  16    1.79    2.15
   1   1  16    4.60    3.78
  -1  -1  16    2.39    2.33
   1  -1  16    4.63    2.38
  -1   1  16    1.41    1.55
   1  -1  16    1.35    2.79
   1  -1 -16    1.66    1.91
  -1  -1  16    1.16    2.29
   1  -1  17   22.42    4.84
  -1  -1  17   22.24    6.37
   1   1  17   15.50    3.06
   1   1  17   22.25    6.28
  -1   1  17   19.21    6.05
   1  -1  17   19.37    6.59
  -1   1  17   16.51    4.46
  -1  -1  17   29.08    6.19
  -1   1  18   -0.55    1.66
  -1  -1  18    5.18    3.25
  -1  -1  18    2.66    3.13
   1  -1  18    3.15    2.01
   1   1  18    4.65    2.01
   1  -1  18    1.78    3.73
  -1   1  18    3.36    2.51
   1   1  18    4.23    2.08
   1  -1  19   -0.25    1.43
  -1  -1  19    3.80    4.77
  -1   1  19    3.81    2.97
   1   1  19   -0.14    2.45
   1  -1  19    2.23    3.58
  -1  -1  19    0.92    0.94
   1   1  19    3.48    1.85
  -1   1  19    0.74    2.71
   1   1  20   23.89    4.29
  -1  -1  20   26.92    8.23
  -1   1  20   26.19    5.49
   1  -1  20   13.77    3.81
  -1   1  20   15.92    6.54
   1  -1  20   28.67    8.70
  -1  -1  20   24.57    6.09
   1   1  20   23.70    7.15
  -1  -1  21  126.22   14.11
  -1   1  21  108.27   16.48
   1   1  21  140.20   17.34
  -1   1  21  152.37   13.87
   1   1  21  114.44    8.98
  -1  -1  21  118.20   17.22
   1  -1  21  140.07   12.98
   1  -1  21  106.43   15.50
  -1  -1  22   15.68    6.40
  -1   1  22   17.05    5.62
   1  -1  22   13.91    4.75
   1  -1  22   24.07    5.45
  -1   1  22   19.95    5.55
  -1  -1  22   27.98    7.68
   1   1  22   13.64    3.27
   1   1  22   16.41    6.83
   1   1  23   40.04   10.37
   1  -1  23   63.25   12.92
   1  -1  23   56.84    8.94
   1   1  23   48.66    6.18
  -1  -1  23   61.74   13.28
  -1   1  23   57.65    9.12
  -1   1  23   45.74   11.24
  -1  -1  23   49.85    9.74
   1  -1  24    2.82    1.27
   1   1  24    9.12    2.94
  -1   1  24   14.76    6.58
  -1   1  24    9.90    3.48
  -1  -1  24    1.23    3.95
   1   1  24    1.73    2.33
  -1  -1  24    8.27    4.24
   1  -1  24   14.95    4.61
   1   1  25   95.90   16.67
  -1   1  25   82.03   16.17
  -1  -1  25   90.75   13.11
  -1   1  25   86.85   11.41
  -1  -1  25   96.08   17.76
   1  -1  25  115.60   12.90
   1   1  25   54.67    6.75
   1  -1  25   86.68   15.81
   1  -1  26   15.59    6.16
  -1  -1  26    7.48    4.48
  -1  -1  26    2.15    2.76
   1   1  26    7.03    4.65
  -1   1  26    3.66    6.21
  -1   1  26    7.62    3.85
   1  -1  26    6.58    3.36
   1   1  27   11.92    6.33
  -1  -1  27    2.21    1.68
  -1   1  27    8.64    6.71
   1  -1  27    6.92    3.60
  -1  -1  27   -1.16    2.04
   1  -1  27    5.85    4.84
   1   1  28   41.42   11.27
  -1  -1  28   58.03   14.68
  -1  -1  28   39.44    9.76
  -1   1  28   41.66   13.82
   1  -1  28   27.85   10.09
   1   1  29   54.05   13.07
   1  -1  29   45.36   12.75
  -1  -1  29   28.07   10.43
  -1   1  29   46.53   13.96
   1   1  30   87.44   18.07
   1  -1  30   49.76   14.42
  -1   1  30  107.62   21.04
  -1  -1  30   65.08   15.76
  -1   1  31   39.04   12.91
   1   1  31   34.93   11.30
   1  -1  31   42.80   12.83
  -1  -1  31   37.06   13.54
  -1  -1  32    6.08    8.91
   1  -1  32    2.46    3.48
   1   1  32    0.63    2.12
   1  -1  33   -3.95    7.66
   1   1  33    0.22    4.46
  -1  -1  33    4.75    7.22
   1   1  34   15.43   10.50
   1  -1  34    1.81    4.83
   1   1  35    5.09    7.25
   1  -1  35   -1.00    3.18
   1   1  36   43.83   15.95
   1  -1  36   17.84    7.60
   1  -1  37   -9.50    7.02
   1   1  37   11.45    9.38
   1   2   0   -0.21    0.35
  -1  -2   0   -0.54    0.94
   1   2   1    0.00    0.55
  -1  -2   1   -0.50    0.52
   1   2   2   -0.03    0.72
   1   2  -2    0.30    0.67
   1   2  -2  203.41   10.99
  -1  -2   2    0.36    0.75
  -1  -2  -2  220.77    9.52
  -1  -2   3   -0.93    1.13
   1   2  -3    0.12    0.85
   1   2  -3    9.99    2.39
  -1  -2  -3    8.73    1.79
   1   2   3    7.11    1.61
   1  -2  -3    8.59    2.50
   1  -2  -4    0.68    1.30
   1   2   4    0.58    0.70
  -1  -2   4    0.51    0.59
   1   2   4    0.46    0.26
   1   2  -4    1.54    1.66
  -1  -2   4    0.12    0.79
  -1  -2  -4    0.90    0.61
   1  -2   4   -0.20    0.92
   1   2  -4    1.39    2.05
   1  -2   5    2.16    1.16
  -1  -2   5    2.81    1.27
  -1  -2   5    1.56    1.46
  -1  -2  -5    1.61    0.54
   1  -2  -5    1.13    0.83
   1   2   5    3.40    1.48
   1   2  -5   -0.54    0.70
   1  -2  -5    4.55    2.27
   1   2   5    1.28    0.32
   1   2  -5    4.74    2.16
   1  -2  -6  934.38   23.80
  -1  -2   6  944.89   27.74
   1  -2   6  959.68   27.84
  -1  -2   6  965.32   26.73
   1  -2  -6  967.06   25.34
   1   2   6  985.34   23.95
  -1   2   6  935.89   23.66
   1   2  -6  979.94   27.88
  -1  -2  -7  495.32   20.47
   1  -2  -7  460.07   16.63
  -1  -2   7  489.28   20.19
  -1  -2   7  495.79   20.63
   1  -2  -7  475.81   18.75
   1   2  -7  509.86   20.74
   1  -2   7  504.37   21.29
  -1   2   7  477.30   16.94
   1   2   7  469.93   17.60
  -1   2   8  292.42   13.50
   1   2   8  270.95   14.16
  -1  -2   8  293.67   16.55
   1  -2  -8  290.67   15.22
  -1  -2  -8  305.59   16.83
   1   2  -8  291.75   16.38
   1  -2  -8  265.01   12.14
   1  -2   8  278.83   16.60
  -1  -2   8  293.22   16.62
  -1  -2   9   97.55    9.87
   1   2   9   90.39    8.66
   1  -2  -9   89.81    6.99
  -1   2   9   86.12    7.39
  -1  -2  -9   88.14    9.89
  -1   2   9   93.03    9.69
   1  -2   9   81.56    9.18
  -1   2  -9   92.44   10.84
   1  -2  -9   88.77    8.90
   1   2  -9  101.82   10.01
  -1  -2   9   95.72   10.06
   1   2  10  270.76   16.33
  -1  -2  10  274.34   17.66
  -1   2 -10  301.63   20.77
   1   2 -10  279.60   16.79
   1  -2 -10  276.41   12.10
  -1  -2  10  241.74   15.90
   1  -2 -10  275.63   16.39
   1  -2  10  254.01   17.01
  -1   2  10  280.84   17.68
  -1   2  10  272.82   13.41
  -1  -2 -10  267.77   17.80
  -1  -2  11   45.46    7.18
  -1  -2  11   41.87    7.22
   1   2 -11   44.88    6.96
  -1  -2 -11   46.35    7.87
  -1   2  11   31.26    6.31
   1   2 -11   22.41    5.42
   1  -2  11   38.67    6.86
   1   2  11   49.51    7.26
  -1   2  11   44.97    5.35
   1  -2 -11   46.30    7.16
  -1   2 -11   33.29    7.12
   1  -2 -11   40.75    4.58
   1  -2 -12   55.93    5.44
  -1   2  12   44.89    5.71
   1  -2 -12   46.57    7.70
   1   2 -12   56.93    7.85
   1   2  12   63.10    8.47
   1  -2  12   75.96   10.04
  -1  -2  12   46.30    7.44
  -1   2  12   39.34    7.23
  -1  -2  12   60.10    9.22
  -1  -2 -12   47.95    8.46
  -1   2  13  103.07    8.61
   1  -2  13  108.64   10.49
   1  -2 -13  113.94    7.75
  -1  -2  13  114.81   11.87
  -1  -2 -13  101.19   12.78
   1  -2  13  131.61   14.02
   1   2  13  118.96   12.61
  -1  -2  13  113.06   13.09
  -1   2  13  120.84   13.28
  -1   2  14  223.14   18.66
   1  -2  14  216.18   15.10
   1   2  14  191.85   16.37
  -1   2  14  217.03   12.94
  -1  -2  14  236.70   19.55
  -1  -2  14  250.21   17.97
   1  -2  14  277.98   20.76
   1  -2 -14  223.30   10.71
   1  -2  15  145.08   12.66
  -1   2  15  132.36   10.28
   1   2  15  149.24   15.14
  -1  -2  15  121.57   14.33
   1  -2  15  130.57   15.16
  -1  -2  15  142.87   13.78
   1  -2 -15  134.30    8.44
  -1   2  15  132.55   15.08
  -1  -2  16  233.42   18.19
   1  -2  16  246.05   16.89
  -1   2  16  232.68   20.72
   1  -2 -16  233.06   11.32
  -1   2  16  240.79   14.13
  -1  -2  16  206.93   19.77
   1   2  16  219.35   18.77
   1  -2  16  224.17   19.72
  -1  -2  17   36.29    8.80
   1  -2  17   34.01    6.40
  -1   2  17   27.80    5.05
   1  -2  17   42.90    9.02
  -1   2  17   38.74    8.70
   1  -2 -17   31.23    4.31
  -1  -2  17   36.08    7.47
   1   2  17   34.18    7.89
  -1  -2  18    0.73    0.90
  -1  -2  18    2.87    2.99
   1  -2  18    0.65    3.68
   1   2  18    2.80    1.69
   1  -2  18    2.27    1.84
  -1   2  18    3.14    2.42
  -1   2  18    3.24    2.12
   1   2  19    4.93    2.68
  -1   2  19    5.78    2.46
  -1  -2  19    7.05    3.36
  -1  -2  19    2.24    1.79
   1  -2  19    7.28    3.45
   1  -2  19   15.81    6.06
  -1   2  19    7.79    5.57
   1  -2  20  137.16   13.38
  -1  -2  20  130.82   14.83
   1   2  20  157.90   17.92
  -1  -2  20  176.59   20.63
  -1   2  20  162.96   12.70
  -1   2  20  147.24   18.47
   1  -2  20  134.34   17.17
  -1   2  21    4.80    4.79
  -1  -2  21    2.69    1.53
   1  -2  21    1.93    2.93
   1   2  21    5.00    1.91
  -1  -2  21    1.24    1.76
  -1   2  21    2.22    2.13
   1  -2  21    1.19    1.19
   1  -2  22  239.30   18.69
   1   2  22  239.22   23.21
  -1  -2  22  302.98   24.62
  -1   2  22  252.78   16.34
  -1  -2  22  230.72   25.18
   1  -2  22  275.09   25.62
  -1   2  22  269.90   26.83
   1   2  23  151.86   19.39
  -1   2  23  117.92   11.17
   1  -2  23  145.32   19.18
  -1  -2  23  132.15   16.01
  -1   2  23  151.34   21.01
  -1  -2  23  122.59   18.16
   1  -2  23  135.45   14.24
  -1   2  24  191.61   23.70
   1   2  24  138.96   18.88
  -1  -2  24  123.13   15.44
   1  -2  24  148.53   15.28
  -1   2  24  122.49   11.22
  -1  -2  24  143.37   20.99
   1  -2  24  138.68   19.08
   1   2  25    7.16    4.93
   1  -2  25    5.29    5.72
  -1  -2  25    1.09    3.21
  -1   2  25    2.09    3.00
   1  -2  25    4.15    3.31
  -1  -2  25   10.42    5.46
   1  -2  26   38.35    8.43
  -1  -2  26   41.66   11.71
  -1   2  26   31.78    9.85
   1   2  26   35.41   10.50
  -1  -2  26   48.35   10.31
   1  -2  26   24.49    8.35
  -1  -2  27    5.45    2.63
   1  -2  27    4.61    3.46
   1  -2  27    9.76    4.36
  -1  -2  27    6.63    3.65
  -1   2  27    9.57    6.70
   1   2  27   14.13    8.01
   1   2  28   88.58   17.13
   1  -2  28   55.34   10.36
   1  -2  28   51.05   13.40
  -1   2  28   57.42   15.19
  -1  -2  28   62.30   12.42
  -1  -2  28   54.16   13.52
  -1  -2  29    1.67    4.81
  -1  -2  29    8.49    6.44
  -1   2  29    1.72    3.03
   1  -2  29   -2.49    1.72
   1   2  29    0.79    2.72
   1  -2  30   25.23   10.43
  -1  -2  30   31.30   11.44
   1   2  30   41.23   11.86
   1   2  31   13.01    6.14
   1  -2  31    0.65    4.62
  -1  -2  31    4.24    4.36
  -1  -2  32   93.34   21.26
   1  -2  32   74.70   17.06
   1   2  32   70.74   18.26
   1  -2  33    5.16    7.14
  -1  -2  33   -1.96    6.45
   1   2  33    0.82    2.28
   1  -2  34    2.10    3.28
   1   2  34    2.70    3.63
  -1  -2  34    7.61    8.75
   1   2  35    4.34    2.90
   1  -2  35    3.30    3.11
   1  -2  36   34.54   14.21
   1   2  36   15.32    8.03
   1  -2  37    5.45    7.88
   1   2  37   14.45    9.77
   1   2  38   89.95   22.35
  -1  -3   0   -0.18    0.82
   1   3   0   -0.24    0.67
  -1  -3   1 1184.23   29.03
  -1  -3  -1 1234.59   27.30
   1   3  -1 1261.07   19.58
   1   3  -2  995.51   27.92
   1   3   2  993.09   23.60
  -1  -3  -2  936.31   22.89
   1   3  -2  924.11   18.87
  -1  -3   2  937.68   26.73
   1   3  -3 3831.95   42.00
  -1  -3   3 3806.00   55.43
   1   3   3 3857.52   44.58
   1   3  -3 3819.94   56.66
  -1  -3  -3 3801.84   44.54
   1   3   4   36.09    4.07
  -1  -3  -4   38.98    4.25
  -1  -3   4   36.37    4.72
   1  -3   4   42.29    5.63
   1   3  -4   36.33    4.62
   1   3  -4   51.42    6.77
  -1  -3   4   35.09    6.04
   1   3   4   31.55    3.36
  -1  -3  -5   24.61    3.36
   1   3  -5   27.21    5.04
   1  -3   5   21.43    4.15
   1   3  -5   27.46    4.20
  -1  -3   5   20.83    3.69
   1  -3  -5   23.53    4.70
   1  -3  -5   16.79    3.12
  -1  -3   5   19.99    4.27
   1   3   5   24.02    3.26
   1   3   6   -0.02    0.63
   1  -3  -6    1.42    0.96
  -1  -3  -6    1.86    0.91
  -1  -3   6    0.99    0.89
   1   3  -6   -0.28    1.06
  -1  -3   6   -1.39    1.82
   1  -3  -6    0.27    0.90
   1   3  -6    2.19    1.83
   1  -3   6   -0.17    0.72
  -1  -3   7   -0.70    0.85
  -1  -3   7    0.78    1.69
   1  -3  -7   -1.03    0.93
   1   3   7   -0.69    0.67
   1  -3   7    1.36    0.75
   1   3  -7   -0.20    0.52
   1   3  -7    1.08    1.38
   1  -3  -7   -0.48    1.18
  -1  -3  -7   -0.45    0.55
   1  -3  -8  288.37   14.87
   1   3  -8  285.43   17.90
  -1  -3   8  279.04   17.37
  -1  -3  -8  310.53   16.71
   1   3   8  301.21   14.80
   1  -3   8  287.48   17.32
  -1  -3   8  327.29   17.72
   1   3  -8  320.77   17.64
   1  -3  -8  280.74   14.89
  -1  -3  -9   59.44    7.70
   1  -3  -9   71.53    7.12
   1  -3   9   68.30    8.57
   1  -3  -9   76.13    8.04
  -1  -3   9   75.42    8.93
   1   3  -9   72.27    9.33
   1   3  -9   67.10    8.62
   1   3   9   67.78    7.49
  -1  -3   9   73.82    9.29
   1  -3 -10  636.20   24.72
   1   3  10  643.89   24.68
  -1  -3 -10  681.11   27.59
   1  -3 -10  555.18   19.09
  -1  -3  10  641.11   27.85
   1  -3  10  627.34   26.84
  -1  -3  10  635.72   27.27
  -1  -3  11   90.84   10.72
   1   3  11  109.03   10.64
  -1  -3 -11   92.73   10.83
  -1  -3  11   76.21   10.19
  -1   3 -11    0.55    1.36
   1  -3 -11   95.65   10.25
   1  -3 -11   92.01    7.54
   1  -3  11   87.81   10.42
   1   3 -11   -0.39    1.44
  -1  -3 -12  594.32   28.65
  -1   3  12  613.12   29.20
   1   3  12  678.71   27.79
  -1  -3  12  660.96   29.99
   1  -3  12  561.59   27.71
  -1  -3  12  543.76   27.68
   1  -3 -12  609.63   18.49
   1  -3 -12  642.60   27.70
   1   3  13   23.88    5.29
  -1   3  13   10.40    4.09
  -1  -3  13   25.41    6.21
   1  -3 -13   17.49    3.13
  -1  -3  13   24.01    5.91
   1  -3  13   19.81    5.24
   1  -3 -13   13.81    4.18
  -1  -3 -13   16.68    5.33
   1   3  14  113.78   12.35
  -1   3  14  101.97   12.70
   1  -3  14  108.46   11.77
  -1  -3  14  114.65   13.78
   1  -3 -14   98.17    6.82
  -1  -3  14  117.14   13.03
   1  -3  14  108.58   13.49
   1  -3  15   90.48   10.95
   1  -3  15   96.74   12.77
   1  -3 -15   86.76    6.18
  -1  -3  15   72.76   10.85
  -1   3  15  100.95   13.48
   1   3  15   79.81   10.74
  -1  -3  15   83.59   11.11
   1  -3  16    3.07    2.90
  -1  -3  16   -0.10    1.51
  -1  -3  16    3.10    2.98
   1  -3  16   -0.77    0.71
  -1   3  16   -0.53    1.75
   1   3  16   -2.06    3.36
   1  -3 -16    3.98    1.41
  -1  -3  17   80.96   12.19
   1  -3  17   78.14   10.56
   1  -3 -17   53.01    4.67
  -1  -3  17   69.88   11.12
   1   3  17   76.16   11.51
  -1   3  17   42.57    9.17
   1  -3  17   57.16   10.39
   1   3  18   31.52    7.44
  -1  -3  18   38.68    9.04
  -1  -3  18   40.68    8.53
   1  -3  18   35.40    7.06
   1  -3  18   39.37    9.65
  -1   3  18   34.54    8.46
  -1  -3  19  234.73   20.52
   1  -3  19  248.06   19.34
   1  -3  19  278.19   24.53
   1   3  19  248.87   21.44
  -1   3  19  282.32   24.95
  -1  -3  19  212.58   22.01
  -1   3  20   50.74   10.89
   1   3  20   73.89   12.13
  -1  -3  20   59.76   10.65
  -1  -3  20   64.21   12.90
   1  -3  20   62.20   11.68
   1  -3  20   73.06   10.56
   1   3  21  222.71   22.00
  -1  -3  21  214.07   20.20
   1  -3  21  207.91   22.29
  -1  -3  21  213.03   23.67
  -1   3  21  245.99   24.73
   1  -3  21  203.46   17.99
   1  -3  22   26.44    6.57
  -1  -3  22   16.42    6.95
  -1  -3  22   18.70    5.98
   1   3  22   19.41    7.15
   1  -3  22   21.03    7.99
  -1   3  22   21.06    8.58
   1  -3  23   66.19   10.76
   1   3  23   42.57   10.19
  -1   3  23   33.64   10.94
   1  -3  23   77.77   14.49
  -1  -3  23   56.02   10.66
  -1  -3  23   78.33   15.06
   1  -3  24   96.14   16.59
  -1  -3  24  140.85   20.65
   1   3  24  115.92   17.23
  -1   3  24   96.14   17.41
  -1  -3  24  110.89   15.44
   1  -3  24  107.33   13.70
   1  -3  25  369.06   26.05
  -1   3  25  391.58   35.15
  -1  -3  25  402.79   30.42
  -1  -3  25  363.11   33.87
   1   3  25  367.48   31.95
   1  -3  25  375.66   32.76
   1  -3  26   28.85    7.47
  -1  -3  26   11.53    5.65
   1   3  26   20.15    7.09
  -1  -3  26   30.33   10.21
  -1   3  26   27.68    9.58
   1  -3  26   30.72    9.51
  -1  -3  27    5.85    4.80
   1  -3  27   -0.69    1.79
   1   3  27    5.41    7.47
  -1  -3  27    4.66    4.88
   1  -3  27    9.13    6.86
   1   3  28   -2.06    3.47
  -1  -3  28    4.55    4.87
   1  -3  28   -2.12    1.86
   1  -3  28    0.48    1.57
  -1  -3  28    7.85    4.56
   1  -3  29    2.82    3.50
   1   3  29   -2.74    4.20
  -1  -3  29   -3.83    5.12
  -1  -3  29   -5.03    6.04
   1  -3  29   -4.07    3.80
  -1  -3  30   -0.87    4.56
   1  -3  30    3.30    6.19
   1   3  30   -2.53    3.15
   1   3  31   16.39    9.22
  -1  -3  31    5.65    6.22
   1  -3  31    9.36    8.20
   1   3  32    7.45    2.48
   1  -3  32    2.87    4.04
   1   3  33   12.92    9.24
   1  -3  33    1.30    4.53
  -1  -3  33    4.85    6.20
   1  -3  34   33.90   13.20
  -1  -3  34   15.75    8.55
   1   3  34   25.11   10.69
   1   3  35   36.87   13.44
   1  -3  35  100.05   24.04
   1  -3  36   16.77    9.56
   1   3  36   28.42   12.40
   1   3  37    7.14    6.85
   1   3  38    1.37    7.20
  -1  -4   0    3.76    2.43
  -1  -4  -1 3235.62   51.03
   1   4  -1 3293.08   30.35
  -1  -4   1 3118.42   53.26
  -1  -4  -2  285.09   14.68
   1   4  -2  269.61   10.21
  -1  -4   2  261.10   15.87
   1   4  -3   45.46    4.70
   1  -4   3   37.53    5.06
  -1  -4  -3   34.05    4.94
  -1  -4   3   39.70    6.67
  -1  -4  -4   16.37    3.30
  -1  -4   4   19.83    3.57
   1   4  -4   19.04    3.65
   1  -4   4   14.04    3.47
  -1  -4   4   16.94    3.96
   1   4   4   16.61    2.09
  -1  -4   5  285.83   14.43
   1   4   5  309.50   10.73
  -1  -4   5  294.89   18.36
   1   4  -5  311.79   14.82
   1  -4  -5  299.55   13.12
  -1  -4  -5  269.17   12.80
   1  -4   5  290.04   15.39
   1  -4  -6   17.79    3.32
   1   4   6   27.08    3.60
   1   4  -6   24.91    4.45
  -1  -4  -6   24.85    3.86
  -1  -4   6   19.95    4.86
   1  -4   6   21.54    4.36
  -1  -4   6   14.95    3.44
  -1  -4  -7  174.67    9.35
   1   4   7  183.68   10.19
   1  -4  -7  165.77   10.68
   1  -4   7  163.28   12.57
  -1  -4   7  160.66   11.97
   1  -4  -7  177.08   13.49
   1   4  -7  158.37   12.19
  -1  -4   7  175.06   14.67
   1   4   8   17.64    3.43
   1  -4   8   22.44    5.02
  -1  -4  -8   19.15    2.86
   1  -4  -8   16.20    3.86
  -1  -4   8   20.04    4.59
   1   4  -8   21.73    4.98
   1  -4  -8   23.15    4.19
  -1  -4   8   32.46    6.46
  -1  -4  -9  946.62   30.98
  -1  -4   9  936.68   32.24
   1   4  -9  910.58   32.24
   1   4   9  964.44   27.43
  -1  -4  -9  883.41   18.62
   1  -4  -9  941.56   30.59
   1  -4  -9  962.37   28.38
   1  -4   9  929.51   32.19
  -1  -4   9  901.84   34.61
   1   4  10  207.34   13.69
   1  -4 -10  208.56   14.03
  -1  -4  10  226.39   17.69
   1  -4  10  215.72   15.97
  -1  -4 -10  186.51    7.74
   1  -4 -10  206.15   13.76
  -1  -4  10  189.06   15.24
  -1  -4 -10  215.72   15.50
   1   4 -10  210.96   15.95
   1  -4  11  344.52   21.11
   1   4  11  370.38   19.05
   1  -4 -11  355.19   19.42
  -1  -4  11  346.71   21.44
   1  -4 -11  366.68   17.59
  -1  -4  11  338.64   22.12
  -1  -4 -11  349.77   20.74
   1  -4 -12   77.55    7.59
   1  -4  12   97.27   12.25
  -1  -4  12   60.03    9.32
  -1  -4  12   93.64   11.68
   1   4  12   78.83    9.48
   1  -4 -12   79.89    9.81
  -1  -4 -12   80.71   10.58
  -1  -4  13  320.59   22.52
  -1  -4  13  303.68   21.95
   1  -4 -13  289.63   13.93
   1  -4 -13  275.54   18.72
   1   4  13  293.83   18.63
  -1  -4 -13  272.28   20.27
   1  -4  13  316.50   22.49
  -1  -4  14   60.02   10.20
   1  -4  14   60.78    9.66
   1  -4 -14   52.25    5.46
  -1  -4  14   42.72    8.60
   1   4  14   55.10    8.34
   1  -4  14   75.94   11.22
  -1  -4  15   43.35    8.49
   1   4  15   31.76    6.51
   1  -4  15   36.72    8.41
   1  -4  15   28.94    6.67
   1  -4 -15   29.34    3.79
  -1  -4  15   27.96    6.83
   1   4  16   19.41    5.73
   1  -4  16   17.82    5.85
   1  -4 -16   17.22    2.61
  -1  -4  16   15.30    5.46
   1  -4  16   15.04    5.18
  -1  -4  16   15.19    5.65
   1  -4  17    2.94    3.15
   1  -4  17    2.18    3.28
   1   4  17   -0.60    1.24
   1  -4 -17    0.35    0.38
  -1  -4  17   -3.30    4.33
  -1  -4  17    1.77    2.97
  -1  -4  18   66.97   12.26
   1  -4  18   56.21   10.97
   1  -4  18   69.62   10.83
   1   4  18   32.77    8.00
  -1  -4  18   60.55   10.93
   1  -4  19   90.11   12.74
  -1  -4  19   87.75   13.59
  -1  -4  19   72.15   12.72
   1   4  19   75.61   12.13
   1  -4  19   97.83   14.80
   1  -4  20    5.76    3.58
   1   4  20    5.49    3.64
   1  -4  20   -0.57    1.13
  -1  -4  20    2.23    3.80
  -1  -4  20    1.36    2.30
   1   4  21  215.71   21.70
  -1  -4  21  180.19   19.46
  -1  -4  21  217.71   24.14
   1  -4  21  163.69   17.32
   1  -4  21  208.32   22.44
   1   4  22   40.71    9.81
  -1  -4  22   59.07   11.28
   1  -4  22   39.47   10.33
  -1  -4  22   44.39   10.32
   1  -4  22   25.85    6.78
  -1  -4  23    0.48    3.17
   1  -4  23    8.27    4.48
  -1  -4  23    2.37    5.11
   1  -4  23   -1.86    3.45
   1   4  23    9.75    5.12
  -1  -4  24   78.30   13.73
  -1  -4  24   72.30   14.55
   1  -4  24   70.79   14.15
   1  -4  24   65.79   11.67
   1   4  24   46.08   10.99
   1  -4  25   51.31   12.70
   1   4  25   44.82   11.42
  -1  -4  25   67.98   12.35
  -1  -4  25   76.37   16.28
   1  -4  25   44.15    9.72
   1  -4  26   17.96    7.78
  -1  -4  26   15.09    6.67
  -1  -4  26   15.41    7.49
   1   4  26   21.81    8.07
   1  -4  26   13.42    5.24
   1  -4  27   20.25    6.80
  -1  -4  27   16.33    7.75
   1  -4  27   44.86   12.63
   1   4  27   26.09    9.60
  -1  -4  27   18.89    8.61
  -1  -4  28    7.40    4.24
   1  -4  28    6.07    4.88
  -1  -4  28    8.46    6.58
   1  -4  28   12.53    6.18
   1   4  28   10.94    7.20
   1  -4  29   14.01    7.01
   1   4  29   15.63    8.71
   1  -4  29   16.43    8.27
  -1  -4  29   13.33    7.91
  -1  -4  29   17.28    7.77
  -1  -4  30    1.66    4.08
   1   4  30    2.72    3.58
  -1  -4  30    1.55    1.94
   1  -4  30   -0.98    1.84
   1  -4  31   89.44   19.56
  -1  -4  31   60.73   16.42
   1   4  31   41.29   13.85
   1   4  32    1.57    4.85
   1  -4  32   -1.87    4.40
   1   4  33   69.34   16.90
   1  -4  33   81.56   18.32
  -1  -4  33   98.06   21.48
   1  -4  34   15.62   10.49
  -1  -4  34    8.24    4.71
   1   4  34   22.93   10.00
   1   4  35    7.20    6.14
   1  -4  35    9.27    8.62
   1  -4  36   26.19   13.24
   1   4  36   19.68   10.58
  -1  -5   0    0.22    1.12
   1   5  -1   46.99    3.67
  -1  -5  -1   49.82    7.17
  -1  -5   1   61.31    8.43
  -1  -5   2  706.23   28.79
   1   5  -2  756.71   17.12
  -1  -5  -2  762.93   27.02
   1   5  -3  457.05   15.30
   1  -5   3  487.73   18.84
  -1  -5  -3  451.04   20.46
  -1  -5   3  486.87   24.29
  -1  -5   4  236.08   17.21
  -1  -5   4  256.66   13.03
  -1  -5  -4  259.75   14.97
   1  -5   4  246.43   13.84
   1   5  -4  261.25   12.87
   1  -5   5   18.01    3.86
  -1  -5  -5   24.21    4.25
   1   5   5   23.25    2.64
  -1  -5   5   20.61    5.41
  -1  -5   5   20.89    4.07
   1   5  -5   24.88    4.32
   1  -5  -5   19.75    3.34
  -1  -5  -6   19.75    4.03
   1   5   6   20.07    2.82
   1  -5  -6   16.54    3.10
  -1  -5   6   31.69    7.28
   1  -5   6   19.63    4.33
  -1  -5   6   16.31    3.76
   1   5  -6   20.01    4.12
  -1  -5   7  239.27   15.03
   1   5  -7  261.61   15.67
   1  -5  -7  257.08   13.07
  -1  -5  -7  244.41   12.97
   1  -5   7  292.85   17.25
   1   5   7  258.50   11.31
  -1  -5   7  272.95   19.73
  -1  -5  -8   45.41    5.41
   1  -5   8   41.46    6.68
   1  -5  -8   44.32    5.84
  -1  -5   8   44.50    6.86
   1   5  -8   44.09    6.83
   1   5   8   52.82    5.72
  -1  -5   8   49.13    8.89
   1  -5  -9   72.04    7.72
   1  -5   9   78.29    9.37
  -1  -5   9   77.41   10.76
   1   5  -9   91.49   10.42
   1  -5  -9   87.78   10.81
  -1  -5  -9   86.80    7.03
  -1  -5   9   72.46    8.98
   1   5   9   95.29    8.32
  -1  -5  10    0.94    1.34
   1  -5 -10    1.84    1.38
  -1  -5 -10   -0.67    0.66
   1  -5 -10    1.08    1.61
   1   5  10    2.67    2.18
   1  -5  10    1.13    1.41
   1   5 -10    1.94    1.59
  -1  -5  10   -0.08    1.62
  -1  -5 -11   96.56   11.08
  -1  -5  11   87.77   11.88
  -1  -5 -11  101.60    6.81
   1  -5 -11   88.68    9.55
   1  -5 -11   97.72   10.64
   1  -5  11   91.00   11.29
   1   5  11   89.10    9.19
  -1  -5  11   90.50   11.12
  -1  -5 -12   39.49    7.29
   1  -5 -12   28.05    5.63
   1  -5 -12   28.92    5.66
  -1  -5  12   20.53    5.85
   1  -5  12   36.03    7.40
  -1  -5  12   24.88    5.89
  -1  -5 -12   24.44    3.09
   1   5  12   32.14    5.85
   1  -5  13  268.43   21.12
   1  -5 -13  252.44   17.84
  -1  -5 -13  269.22   19.94
   1  -5 -13  254.12   15.56
   1   5  13  288.38   18.40
   1  -5  13  254.29   20.45
  -1  -5  13  262.90   20.50
  -1  -5  13  283.24   22.36
   1  -5  14   83.39   12.52
  -1  -5 -14   92.64   12.25
  -1  -5  14   87.46   12.36
   1  -5  14  118.27   14.37
   1  -5 -14   85.04    8.50
   1   5  14  101.88   11.42
  -1  -5  14   85.51   12.64
   1  -5  15   12.20    4.17
   1   5  15   23.59    5.88
   1  -5 -15   21.28    4.04
  -1  -5  15   37.39    8.28
  -1  -5  15   28.75    8.01
   1  -5  15   17.02    5.78
  -1  -5  16   24.84    6.85
   1  -5  16   18.02    6.71
   1  -5 -16   13.31    2.68
   1   5  16   18.25    5.65
   1  -5  16   20.06    5.89
  -1  -5  16   13.16    4.60
  -1  -5  17   72.66   12.76
   1  -5  17   56.38   10.04
  -1  -5  17   40.98    8.88
   1  -5 -17   48.86    3.99
   1  -5  17   60.47   11.23
   1   5  17   64.33   10.29
   1  -5  18   -1.32    2.50
  -1  -5  18    7.16    4.49
  -1  -5  18   -2.78    4.84
   1  -5  18    5.81    4.46
   1   5  18    2.70    2.49
  -1  -5  19   41.78    9.65
   1   5  19   38.18    8.74
   1  -5  19   52.77   10.23
  -1  -5  19   21.94    6.42
   1  -5  19   39.98    8.99
   1  -5  20  143.16   17.17
   1   5  20  154.88   17.76
  -1  -5  20  125.16   17.76
   1  -5  20  142.55   18.20
  -1  -5  20  137.53   17.53
   1  -5  21    6.48    4.14
   1   5  21    2.68    3.79
   1  -5  21    2.06    1.67
  -1  -5  21    1.37    3.39
   1   5  22   27.70    7.50
  -1  -5  22   39.73   10.40
  -1  -5  22   29.63    8.29
   1  -5  22   36.04    8.68
   1  -5  22   35.17    9.81
   1   5  23   30.01    8.76
  -1  -5  23   29.67    9.82
   1  -5  23   38.56   10.91
  -1  -5  23   26.08    8.53
   1  -5  23   38.63    8.97
   1  -5  24  245.87   26.43
  -1  -5  24  229.92   26.68
   1  -5  24  212.40   21.66
  -1  -5  24  238.63   24.71
   1   5  24  264.08   26.24
  -1  -5  25   89.76   15.24
   1  -5  25  111.80   16.21
   1  -5  25  121.72   18.84
   1   5  25  105.24   17.31
  -1  -5  25  129.82   20.82
  -1  -5  26   18.00    7.44
  -1  -5  26   15.67    6.62
   1  -5  26    4.02    3.26
   1  -5  26   18.66    8.63
   1   5  26   14.53    6.01
  -1  -5  27    6.77    6.20
   1  -5  27   -0.39    1.66
   1  -5  27    0.62    3.08
   1   5  27    2.67    4.01
  -1  -5  27    6.78    5.66
  -1  -5  28   19.72    7.91
   1  -5  28   14.14    6.34
   1   5  28   14.51    6.23
  -1  -5  28   19.43    7.43
   1  -5  28   35.38   10.84
  -1  -5  29    7.47    5.57
   1   5  29    4.68    4.50
  -1  -5  29    5.66    4.60
   1  -5  29    3.63    2.33
   1  -5  29   13.06    7.33
   1   5  30   61.39   15.85
  -1  -5  30   39.65   10.99
  -1  -5  30   32.25   11.13
   1  -5  30   46.45   10.89
   1  -5  30   56.98   15.02
   1  -5  31   -1.78    2.97
  -1  -5  31    0.40    3.82
  -1  -5  31    4.29    5.47
   1   5  31    4.97    5.87
  -1  -5  32    8.46    6.52
   1  -5  32   14.21    9.49
   1   5  32    0.14    4.87
  -1  -5  33   25.45   11.33
   1   5  33    2.60    6.31
   1  -5  33   11.58    6.33
   1   5  34   -1.04    3.36
  -1  -5  34   -1.87    3.39
   1  -5  35   20.89   11.59
   1  -5  36   -1.48    2.97
  -1  -6   0    0.26    1.66
  -1  -6  -1 1192.45   37.60
  -1  -6   1 1139.01   39.08
   1   6  -1 1200.29   20.44
  -1  -6   2   30.11    6.76
  -1  -6  -2   27.38    5.77
   1   6  -2   29.27    3.65
   1  -6   2   34.94    4.83
   1   6  -3   78.00    6.79
  -1  -6  -3   76.80    9.14
  -1  -6   3   72.48    9.97
   1  -6   3   64.15    6.92
  -1  -6   4  137.23   14.42
  -1  -6  -4  147.81   12.61
   1  -6   4  127.53   10.03
  -1  -6   4  146.84   10.12
   1   6  -4  137.33    9.96
  -1  -6   5   72.34    7.53
  -1  -6  -5   70.91    8.38
   1   6  -5   73.31    7.82
  -1  -6   5   91.66   12.15
   1  -6  -5   79.49    6.35
   1  -6   5   85.17    8.52
  -1  -6   6  391.54   25.24
   1  -6   6  415.07   19.92
   1   6  -6  411.83   19.84
   1   6   6  381.31   11.58
   1  -6  -6  404.75   14.92
  -1  -6   6  371.73   18.31
  -1  -6  -6  402.32   19.43
  -1  -6  -7   78.71    8.31
   1  -6  -7   75.64    6.70
  -1  -6   7   77.31    8.75
   1  -6   7   76.54    8.99
   1   6  -7   72.70    8.82
  -1  -6   7   67.85   11.04
   1   6   7   68.16    5.63
  -1  -6   8   34.08    7.85
   1   6   8   43.86    4.94
   1   6  -8   42.91    7.16
   1  -6  -8   38.26    5.10
  -1  -6   8   47.73    7.34
   1  -6   8   40.46    6.56
  -1  -6  -8   41.71    5.92
   1   6   9   68.71    6.84
  -1  -6   9   60.72    8.60
   1   6  -9   58.61    8.93
   1  -6  -9   66.57    7.28
  -1  -6  -9   66.82    7.23
   1  -6   9   65.59    8.75
  -1  -6   9   58.55   10.41
  -1  -6  10    2.21    1.37
  -1  -6  10    5.23    2.04
   1  -6 -10    5.38    3.15
   1  -6 -10    5.14    2.12
   1   6  10    5.68    2.44
  -1  -6 -10    7.43    2.46
   1  -6  10    4.18    2.45
   1   6 -10    7.95    3.60
   1  -6  11   28.17    6.46
  -1  -6  11   39.32    8.97
  -1  -6 -11   22.51    3.85
  -1  -6  11   26.06    6.37
   1   6  11   28.34    5.13
   1  -6 -11   29.58    6.83
   1  -6 -11   33.94    6.03
  -1  -6 -12  107.64    8.02
  -1  -6  12   98.33   13.74
   1  -6 -12  101.06   11.95
  -1  -6  12  109.39   13.28
   1  -6 -12  107.41   11.20
   1  -6  12  120.80   13.66
   1   6  12  141.26   12.12
   1   6  13   42.44    6.87
  -1  -6  13   44.99    8.82
   1  -6  13   47.15    9.65
  -1  -6  13   58.55   10.73
   1  -6 -13   51.64    8.17
  -1  -6 -13   47.45    4.97
   1  -6 -13   41.46    7.53
   1  -6  13   51.52    9.13
   1  -6  14   48.38   10.40
  -1  -6 -14   30.14    4.01
  -1  -6  14   26.78    7.61
   1  -6 -14   35.04    6.20
   1  -6  14   43.22    8.70
   1  -6 -14   38.06    7.01
  -1  -6  14   45.02    9.44
   1   6  14   36.76    6.86
   1  -6 -15  108.88   10.62
   1  -6  15  126.49   16.19
  -1  -6  15  118.72   15.12
  -1  -6  15  124.76   16.50
   1  -6  15  134.00   15.81
   1   6  15  105.84   12.17
  -1  -6  16   39.97    9.44
   1  -6 -16   40.39    5.79
  -1  -6  16   36.66    8.78
   1   6  16   55.66    9.46
   1  -6  16   27.71    7.42
   1  -6  16   44.51    9.53
  -1  -6  17  186.71   20.38
  -1  -6  17  149.76   17.71
   1  -6  17  170.68   18.90
   1   6  17  185.07   17.46
   1  -6  17  171.35   19.13
   1  -6 -17  126.02    8.56
  -1  -6  18   68.66   12.75
   1  -6  18   87.50   14.22
   1   6  18   72.89   11.56
   1  -6  18   55.62   11.20
  -1  -6  18   62.51   12.43
   1  -6  19  131.35   17.13
  -1  -6  19  132.11   17.90
   1  -6  19  127.25   16.95
  -1  -6  19  111.04   16.68
   1   6  19  125.83   15.56
   1   6  20   61.65   11.49
  -1  -6  20   55.62   12.19
   1  -6  20   62.19   12.02
   1  -6  20   46.10   10.19
  -1  -6  20   37.09    9.65
   1   6  21    2.72    2.38
   1  -6  21   -1.25    2.09
   1  -6  21    6.92    4.86
  -1  -6  21    6.34    4.88
  -1  -6  21   -2.85    4.07
  -1  -6  22   44.50   10.79
  -1  -6  22   61.92   13.88
   1  -6  22   48.45   11.10
   1   6  22   54.36   11.70
   1  -6  22   38.08   10.65
   1  -6  23  247.14   26.32
  -1  -6  23  275.85   29.12
   1  -6  23  243.53   24.64
  -1  -6  23  266.13   27.12
   1   6  23  253.15   25.12
  -1  -6  24   46.01   11.35
  -1  -6  24   56.75   13.45
   1   6  24   38.92   10.57
   1  -6  24   43.66   10.22
   1  -6  24   32.27    9.38
  -1  -6  25   -2.20    3.13
   1   6  25    0.85    3.10
   1  -6  25   -3.87    3.31
   1  -6  25    1.43    4.08
  -1  -6  25    1.24    2.90
   1  -6  26    2.11    3.88
   1   6  26    5.84    6.40
  -1  -6  26    0.88    3.37
   1  -6  26   -3.84    3.86
  -1  -6  26    2.70    4.14
   1   6  27   -2.95    3.40
   1  -6  27    7.44    5.90
   1  -6  27   -4.16    5.38
  -1  -6  27    9.92    5.29
  -1  -6  27    1.06    2.14
   1  -6  28   49.55   11.89
  -1  -6  28   59.03   15.31
   1   6  28   73.20   15.72
  -1  -6  28   61.36   14.01
   1  -6  28   75.49   17.19
   1   6  29    3.27    4.45
  -1  -6  29    4.21    4.49
  -1  -6  29    4.92    4.83
   1  -6  29    7.97    5.21
   1  -6  29    2.21    4.78
  -1  -6  30    5.73    3.76
  -1  -6  30   -3.20    6.04
   1  -6  30   11.62    7.56
   1   6  30   -2.32    5.53
   1  -6  30    9.29    6.85
   1   6  31   26.45    9.89
  -1  -6  31   22.26    8.61
   1  -6  31   13.85    6.37
   1  -6  31   36.01   13.01
  -1  -6  31   33.11   12.24
  -1  -6  32    2.09    4.79
   1  -6  32    3.90    4.37
  -1  -6  33   14.39   10.43
   1  -6  33   34.54   12.94
   1  -6  34   18.54    9.80
   1  -6  35    1.13    4.68
   1  -7   0    1.60    1.32
  -1  -7   0   -1.90    1.59
   1  -7   1   94.68    7.36
  -1  -7  -1   78.27   10.53
  -1  -7   1   84.68   11.33
  -1  -7   2  525.31   29.04
   1  -7   2  494.04   17.93
  -1  -7  -2  506.07   26.34
   1   7  -3    1.04    0.85
  -1  -7   3    1.46    1.01
   1  -7   3    0.96    1.27
  -1  -7  -3    0.71    2.83
   1   7  -4  173.87   11.56
   1  -7   4  139.20   10.68
  -1  -7  -4  148.06   13.74
  -1  -7   4  141.16   15.53
  -1  -7   5   59.84    7.27
  -1  -7   5   63.49   10.86
   1   7  -5   61.54    7.58
  -1  -7  -5   58.04    8.68
   1  -7   5   59.20    7.19
   1  -7  -5   56.62    5.03
  -1  -7   6    7.31    2.92
   1  -7  -6    7.95    2.17
  -1  -7   6    5.23    2.58
   1   7  -6    9.42    3.63
   1  -7   6    7.77    2.51
  -1  -7  -6    4.32    2.10
  -1  -7   7  189.99   18.90
  -1  -7  -7  173.67   13.96
   1  -7   7  156.65   12.77
  -1  -7   7  158.80   13.01
   1  -7  -7  151.88    9.04
   1   7  -7  162.78   13.78
  -1  -7  -8    3.39    2.16
  -1  -7   8    4.18    2.87
   1  -7  -8    5.82    1.95
  -1  -7   8    1.05    1.82
   1   7  -8    5.64    3.26
   1  -7   8    8.37    3.49
  -1  -7   9  289.05   23.65
  -1  -7   9  261.86   18.33
   1  -7  -9  282.56   14.66
  -1  -7  -9  287.79   16.84
   1  -7   9  269.11   18.73
   1   7  -9  261.76   19.43
  -1  -7 -10   -2.00    1.95
  -1  -7  10   -1.16    2.30
   1  -7 -10    0.14    0.61
  -1  -7  10   -0.10    1.10
   1   7  10    0.22    1.01
   1  -7  10    2.59    2.86
  -1  -7  11   20.10    6.70
   1  -7 -11    5.57    3.92
   1  -7  11   11.19    4.10
  -1  -7 -11    9.93    2.97
  -1  -7  11    6.32    2.60
   1   7  11    7.36    2.95
   1  -7 -11   15.15    4.17
   1  -7 -12   30.09    7.57
   1   7  12   21.99    4.98
  -1  -7 -12   27.22    4.71
   1  -7  12   26.77    8.14
   1  -7 -12   18.72    4.63
  -1  -7  12   17.37    5.02
  -1  -7  12   16.20    6.60
   1  -7  12   21.66    5.54
   1  -7  13   33.16    8.00
  -1  -7 -13   52.07    6.36
  -1  -7  13   34.26    8.78
   1  -7 -13   48.60    7.54
   1  -7 -13   47.65    8.68
  -1  -7  13   37.21    8.11
   1  -7  13   31.30    7.18
   1   7  13   37.90    6.66
  -1  -7  14   48.80   10.33
   1   7  14   52.90    8.26
   1  -7 -14   38.60    7.04
   1  -7 -14   36.61    7.84
  -1  -7  14   47.26    9.32
  -1  -7 -14   44.39    5.33
   1  -7  14   50.33    9.67
   1  -7  14   51.93   11.19
   1  -7  15  233.87   21.17
   1  -7  15  217.12   22.67
  -1  -7  15  195.13   21.21
  -1  -7 -15  199.75   10.34
  -1  -7  15  218.68   20.76
  -1  -7 -15  182.79   11.79
   1  -7 -15  221.52   17.63
   1   7  15  220.69   17.85
  -1  -7  16   11.47    4.65
  -1  -7  16    3.44    3.84
   1   7  16    5.78    3.58
   1  -7  16   12.59    5.25
   1  -7  16    7.06    3.70
   1  -7 -16    8.95    3.75
   1   7  17  241.06   19.94
   1  -7 -17  233.40   11.81
  -1  -7  17  238.24   23.14
   1  -7 -17  215.40   14.75
  -1  -7  17  279.33   26.23
   1  -7  17  266.98   24.01
   1  -7  17  275.34   25.70
   1  -7 -18    3.54    1.72
   1  -7  18    9.58    4.53
  -1  -7  18   11.60    6.34
   1   7  18    2.51    2.12
  -1  -7  18    9.90    5.47
   1  -7  18   -0.64    2.38
   1  -7 -18    4.40    1.59
   1  -7  19    3.48    3.54
  -1  -7  19    3.32    4.62
   1  -7  19   -1.14    3.89
   1   7  19    0.61    1.80
  -1  -7  19   -2.51    1.81
  -1  -7  20  281.89   27.55
   1   7  20  276.35   23.98
  -1  -7  20  263.00   27.14
   1  -7  20  280.38   26.18
   1  -7  20  272.83   26.19
   1   7  21   68.53   12.45
   1  -7  21   51.95   11.52
  -1  -7  21   78.11   15.10
  -1  -7  21   67.78   13.92
   1  -7  21   76.34   14.33
  -1  -7  22    2.18    2.86
   1  -7  22   15.67    6.71
  -1  -7  22    6.52    5.52
   1  -7  22    1.85    2.86
   1   7  22    3.25    2.84
  -1  -7  23   44.48   11.81
   1   7  23   36.54    9.77
   1  -7  23   38.90   10.03
  -1  -7  23   34.53   10.59
   1  -7  23   16.11    6.69
   1  -7  24  241.18   26.79
  -1  -7  24  313.38   32.15
   1  -7  24  259.20   26.53
   1   7  24  250.26   26.12
  -1  -7  24  290.65   29.98
  -1  -7  25   19.48    9.00
   1  -7  25   25.77    9.60
   1   7  25   10.92    6.41
  -1  -7  25   12.64    6.68
   1  -7  25   12.13    5.43
   1   7  26    0.08    4.11
  -1  -7  26    2.26    4.34
   1  -7  26    1.28    3.22
   1  -7  26   -0.84    2.14
  -1  -7  26    6.21    4.02
   1  -7  27   18.28    7.28
  -1  -7  27   26.99    9.63
   1   7  27   19.71    7.76
  -1  -7  27   23.91   10.56
   1  -7  27   19.96    8.26
   1  -7  28   -0.47    2.40
  -1  -7  28    0.58    3.18
   1  -7  28    1.55    2.63
  -1  -7  28   -4.90    4.77
  -1  -7  29   29.80   13.66
   1  -7  29   32.44   10.45
  -1  -7  29   44.08   12.75
   1  -7  29   24.06    9.41
  -1  -7  30   13.83    8.04
  -1  -7  30   29.79   10.56
   1  -7  30   36.92   11.01
   1  -7  30   27.12   11.62
  -1  -7  31    9.44    7.71
  -1  -7  31    7.97    6.76
   1  -7  31   -6.17    7.36
   1  -7  31    2.83    4.84
  -1  -7  32   -1.97    3.65
  -1  -7  32    3.19    5.10
   1  -7  32    4.72    6.83
   1  -7  33   -3.90    3.54
   1  -7  34   16.39   10.15
   1  -8   0    1.64    1.19
  -1  -8   0    2.69    4.27
   1  -8  -1  118.15    7.06
   1  -8   1  137.24    8.66
  -1  -8   1  139.87   15.52
  -1  -8  -1  113.11   14.05
  -1  -8   2  772.17   37.24
   1  -8  -2  741.34   17.42
  -1  -8  -2  752.42   34.56
   1  -8   2  796.85   22.09
  -1  -8   3   30.91    7.52
  -1  -8  -3   34.17    7.43
   1  -8   3   35.85    4.98
  -1  -8  -4   -0.05    0.80
  -1  -8   4    1.36    3.72
   1  -8  -4    1.61    1.09
   1  -8   4    0.64    0.49
  -1  -8  -5   62.18    9.60
   1   8  -5   58.06    7.78
  -1  -8   5   71.36   11.89
   1  -8  -5   51.96    4.23
   1  -8   5   55.34    7.11
   1   8  -6   -0.29    1.41
  -1  -8   6    3.02    4.08
   1  -8   6    0.63    0.80
   1  -8  -6   -0.08    0.32
  -1  -8   6    2.01    1.50
  -1  -8  -6    1.78    1.07
   1  -8   7   41.07    6.96
  -1  -8  -7   47.99    8.09
  -1  -8   7   50.91   10.49
  -1  -8   7   50.38    7.67
   1  -8  -7   40.24    4.49
   1   8  -7   50.15    8.40
  -1  -8   8   46.62    7.67
  -1  -8   8   31.79    8.56
  -1  -8  -8   31.83    6.43
   1  -8  -8   26.40    4.06
   1  -8   8   40.45    6.94
   1   8  -8   43.18    8.03
  -1  -8  -9   10.29    3.99
   1  -8  -9   12.53    3.30
   1   8  -9    6.49    3.22
  -1  -8   9    4.98    2.66
  -1  -8   9    2.92    2.45
   1  -8   9   11.03    4.32
   1  -8 -10   14.18    3.36
  -1  -8  10    4.51    3.14
  -1  -8  10   10.42    4.06
   1  -8  10    4.84    2.34
  -1  -8 -10   10.23    3.56
   1  -8 -11    2.24    1.94
  -1  -8 -11   -1.55    1.91
   1  -8  11    2.43    3.31
  -1  -8  11   -1.32    2.74
   1  -8  11   -0.30    1.90
  -1  -8  11    1.96    2.57
   1  -8 -12    2.21    1.79
   1  -8  12    0.07    1.55
   1  -8  12    0.41    1.19
   1  -8 -12    6.28    4.12
  -1  -8  12    3.62    3.95
  -1  -8  12    0.12    1.64
  -1  -8 -12    3.24    2.43
   1  -8 -13  291.49   24.22
   1  -8 -13  273.82   17.80
  -1  -8 -13  307.88   17.48
   1  -8  13  290.15   26.39
  -1  -8  13  297.58   23.32
  -1  -8  13  267.81   25.46
   1  -8  13  297.66   23.10
   1  -8  14    1.05    2.29
  -1  -8 -14   -1.35    1.91
  -1  -8  14   -0.68    1.60
   1  -8 -14    2.72    3.56
   1  -8 -14    1.61    2.02
  -1  -8  14    2.93    2.78
   1  -8  14    0.35    2.53
  -1  -8  15   -0.33    1.47
   1  -8  15   -2.63    1.48
  -1  -8  15    0.04    1.58
   1  -8  15    2.38    3.04
  -1  -8 -15   -0.22    1.40
   1  -8 -15    5.60    3.38
  -1  -8 -16    2.59    1.70
  -1  -8 -16    2.38    1.47
  -1  -8  16    5.68    4.11
  -1  -8  16    2.94    3.87
   1  -8 -16    8.06    3.88
   1  -8  16    4.93    4.77
   1  -8  16    8.52    4.88
   1  -8 -16    9.29    3.13
   1  -8 -17   63.77    7.14
   1  -8  17   47.80   10.78
   1  -8  17   58.31   12.89
  -1  -8  17   52.26   11.76
  -1  -8  17   59.40   12.08
   1  -8  18   19.34    6.74
   1  -8  18   20.55    6.83
   1  -8 -18   10.69    2.83
  -1  -8  18   12.96    5.34
  -1  -8  18   16.59    7.65
  -1  -8  19   81.97   14.48
   1  -8  19  105.65   15.78
   1  -8  19   64.37   13.39
  -1  -8  19   70.73   14.29
  -1  -8  20  306.38   29.20
  -1  -8  20  331.55   31.38
   1  -8  20  287.03   28.49
   1  -8  20  298.98   27.88
   1  -8  21    3.16    4.05
  -1  -8  21    2.28    4.73
   1  -8  21    7.65    5.63
  -1  -8  21   -2.87    4.62
  -1  -8  22    9.76    6.87
   1  -8  22    5.63    3.83
  -1  -8  22   -2.89    3.17
   1  -8  22   -0.46    2.90
  -1  -8  23   65.03   14.91
  -1  -8  23   63.94   14.22
   1  -8  23   80.83   14.74
   1  -8  23   62.02   13.80
  -1  -8  24  223.49   27.55
   1  -8  24  243.67   26.74
   1  -8  24  242.36   27.43
  -1  -8  24  256.63   29.33
  -1  -8  25   45.50   13.78
   1  -8  25   13.79    7.55
   1  -8  25   44.87   12.13
  -1  -8  25   20.24    8.92
   1  -8  26   13.85    6.90
  -1  -8  26    8.75    6.85
   1  -8  26   27.25    9.29
  -1  -8  26    3.76    4.29
  -1  -8  27    5.50    6.27
  -1  -8  27    6.72    6.44
   1  -8  27    0.87    3.31
   1  -8  27    2.88    5.08
  -1  -8  28   -0.39    3.53
   1  -8  28   -0.39    2.23
  -1  -8  28    4.76    6.91
   1  -8  29    7.50    5.73
   1  -8  29    2.24    2.59
  -1  -8  29   10.23    5.71
  -1  -8  29   -2.89    5.23
  -1  -8  30    2.56    4.99
  -1  -8  30    2.46    3.09
   1  -8  30    2.34    3.94
   1  -8  30   -3.32    4.80
  -1  -8  31   39.44   14.83
   1  -8  31   34.28   12.79
   1  -8  31   43.43   12.46
  -1  -8  31   30.30   10.53
   1  -8  32    4.67    5.98
   1  -8  32   -2.75    4.07
  -1  -8  32   -5.30    5.90
   1  -8  33   23.32   11.04
   1  -8  34   -1.19    3.59
  -1  -9   0    0.20    2.56
   1  -9   0    0.10    0.29
   1  -9  -1    5.50    1.44
  -1  -9   1    9.53    4.30
   1  -9   1   10.09    2.28
  -1  -9  -1   11.92    4.81
  -1  -9  -2   46.02    9.15
  -1  -9   2   49.87   10.12
   1  -9   2   43.82    5.20
   1  -9   3   21.68    4.11
  -1  -9  -3   15.43    5.52
  -1  -9   3   14.52    5.55
  -1  -9  -4   38.90    8.08
  -1  -9   4   35.32    8.82
   1  -9   4   36.69    5.51
  -1  -9   5   -0.52    3.21
   1  -9   5    0.03    0.69
  -1  -9  -5    4.12    2.50
   1  -9   6   82.58    9.06
   1  -9  -6   61.63    4.12
  -1  -9   6   95.85   14.66
  -1  -9  -6   84.39   11.91
   1  -9   7   91.91   10.13
  -1  -9   7   83.68   13.92
  -1  -9  -7   80.80   11.58
   1  -9  -7   62.90    4.80
  -1  -9   8   24.44    5.28
  -1  -9   8   15.52    5.30
   1  -9  -8   20.32    3.20
  -1  -9  -8   27.08    6.58
   1   9  -9   31.23    7.15
   1  -9  -9   40.18    4.97
  -1  -9   9   36.95    7.30
   1  -9   9   21.47    7.53
   1  -9   9   43.39    7.56
  -1  -9   9   48.11   10.46
  -1  -9  -9   36.63    7.28
  -1  -9  10    5.14    3.43
   1  -9  10    1.50    2.06
  -1  -9 -10    4.89    2.26
  -1  -9  10   13.37    5.82
   1  -9 -10    8.23    2.42
   1  -9  10    2.25    3.20
   1  -9 -11    3.21    1.21
   1  -9  11    6.08    3.89
  -1  -9 -11    6.57    3.51
   1  -9  11    5.56    3.56
  -1  -9  11    4.22    2.79
  -1  -9  11    3.49    2.18
  -1  -9  12   93.61   13.00
  -1  -9  12   92.34   15.68
   1  -9  12   74.81   14.79
   1  -9  12   80.91   11.83
   1  -9 -12   65.49    7.99
  -1  -9 -12   76.35   10.15
   1  -9  13   63.20   13.65
   1  -9 -13   54.54    7.76
  -1  -9  13   79.46   14.81
  -1  -9  13   63.81   11.19
   1  -9 -13   77.83   13.86
   1  -9  13   67.35   10.80
  -1  -9 -13   60.95    8.71
   1  -9  14   37.01    8.40
   1  -9 -14   18.34    6.19
  -1  -9  14   22.02    8.74
  -1  -9 -14   21.30    4.84
  -1  -9  14   28.89    7.79
   1  -9 -14   16.70    4.39
   1  -9  14   15.32    5.25
   1  -9 -15  123.67   12.21
  -1  -9 -15  122.43   11.28
   1  -9  15  120.20   19.06
   1  -9  15  108.48   14.69
  -1  -9  15  122.64   18.81
  -1  -9  15  122.76   16.37
  -1  -9  16  183.96   23.04
   1  -9  16  208.06   24.50
   1  -9  16  200.51   20.88
   1  -9 -16  194.25   14.62
  -1  -9 -16  178.21   13.00
  -1  -9  16  202.88   21.49
   1  -9  17    2.96    3.32
   1  -9  17    5.47    5.28
  -1  -9  17    2.25    2.97
  -1  -9  17    0.47    5.10
  -1  -9 -17    2.95    2.29
   1  -9 -17    2.20    2.42
  -1  -9  18   -0.18    2.28
  -1  -9  18    5.32    5.16
   1  -9  18    1.68    3.87
   1  -9  18    6.54    4.84
   1  -9 -18    2.06    1.48
   1  -9  19    2.43    3.08
  -1  -9  19   -4.31    2.38
   1  -9  19    7.33    5.00
  -1  -9  19    6.69    6.34
  -1  -9  20    4.73    4.69
   1  -9  20    1.95    2.97
  -1  -9  20    8.71    5.43
   1  -9  20    5.18    4.34
   1  -9  21   50.47   11.92
  -1  -9  21   32.70   10.00
   1  -9  21   38.51   10.38
  -1  -9  21   38.32   10.96
  -1  -9  22    7.65    5.63
  -1  -9  22   10.55    4.82
   1  -9  22    8.51    5.51
   1  -9  22   12.08    8.04
  -1  -9  23    6.81    6.02
  -1  -9  23    3.70    4.64
   1  -9  23    4.52    4.21
   1  -9  23    6.17    3.36
  -1  -9  24    7.04    4.23
   1  -9  24    9.55    6.73
  -1  -9  24    7.88    6.45
   1  -9  24    7.73    4.51
  -1  -9  25   24.15   10.53
  -1  -9  25   17.61    8.99
   1  -9  25   21.81    9.76
   1  -9  25   11.48    6.36
   1  -9  26   -3.49    3.54
  -1  -9  26   10.35    8.82
  -1  -9  26    4.36    4.97
   1  -9  26    9.47    6.83
  -1  -9  27    1.69    2.64
   1  -9  27    1.32    2.30
  -1  -9  27   12.70    8.44
   1  -9  27   16.38    7.25
  -1  -9  28   43.85   13.50
  -1  -9  28   32.79   12.10
   1  -9  28   65.87   16.11
   1  -9  28   53.06   14.90
  -1  -9  29   10.73    5.85
   1  -9  29   21.51   11.77
   1  -9  29    3.26    4.63
  -1  -9  29   21.41   10.78
   1  -9  30   -0.31    3.34
  -1  -9  30    6.25    6.30
  -1  -9  30    2.78    6.06
   1  -9  30    6.28    6.45
  -1  -9  31    3.60    2.75
   1  -9  31   -2.25    3.41
   1  -9  31    7.76    6.73
  -1  -9  32   13.42    7.91
   1  -9  32    1.93    3.99
   1  -9  32    2.31    3.96
  -1  -9  33    3.95    3.57
   1  -9  33    8.69    8.59
  -1 -10   0    0.04    1.96
   1 -10   0    0.01    0.30
  -1 -10  -1   69.58   12.29
   1 -10   1   54.19    4.97
  -1 -10   1   45.52   10.29
  -1 -10   2  172.36   20.10
  -1 -10  -2  176.80   19.00
   1 -10   2  169.52    9.97
  -1 -10  -3   17.19    6.83
  -1 -10   3    6.51    3.73
   1 -10   3   15.79    3.23
   1 -10   4   18.40    3.54
  -1 -10   4   10.18    4.20
  -1 -10  -4   11.27    4.68
   1 -10   5   21.35    4.40
  -1 -10  -5   24.09    6.96
  -1 -10   5   21.00    7.30
   1 -10   6   55.91    7.83
  -1 -10  -6   51.79    9.47
  -1 -10   7   76.20   14.47
   1 -10   7  107.43   16.65
   1 -10   7   83.78    9.91
  -1 -10  -7   68.43   11.00
  -1 -10   8   70.99   14.11
  -1 -10  -8   50.15    9.09
   1 -10   8   52.79    8.09
   1 -10   8   41.48   10.33
   1 -10   9  291.74   28.37
  -1 -10   9  276.86   27.63
  -1 -10  -9  285.00   21.67
   1 -10  -9  259.31   11.00
   1 -10   9  282.27   19.84
   1 -10  10   -1.31    3.30
   1 -10  10   -0.70    1.78
  -1 -10  10    2.86    3.77
  -1 -10 -10   -0.93    1.89
   1 -10  11  212.66   18.62
  -1 -10  11  180.06   17.71
   1 -10 -11  203.37   12.40
  -1 -10  11  208.56   24.09
   1 -10  11  218.54   25.02
  -1 -10 -11  215.96   18.38
   1 -10 -12    6.77    4.00
  -1 -10  12   -1.24    2.53
  -1 -10 -12    6.69    3.95
   1 -10  12   10.72    4.75
   1 -10  12    1.78    1.43
  -1 -10  12    9.48    4.78
   1 -10 -13  171.73   16.38
  -1 -10  13  147.62   17.07
   1 -10  13  145.33   16.42
  -1 -10 -13  164.94   15.65
  -1 -10  13  154.65   21.27
   1 -10  13  117.49   18.80
   1 -10 -14   18.65    5.30
   1 -10  14   39.24   11.76
   1 -10  14   20.44    6.55
  -1 -10  14   21.32    6.91
  -1 -10  14   23.28    7.43
  -1 -10 -14   29.82    6.62
   1 -10 -15   98.16   11.87
   1 -10  15   94.32   17.20
  -1 -10  15  131.72   20.47
   1 -10  15   90.71   13.66
  -1 -10  15  130.71   16.94
  -1 -10 -15  103.92   11.54
  -1 -10 -16    6.31    2.58
  -1 -10  16    9.41    5.11
  -1 -10  16   14.30    7.62
   1 -10 -16    8.42    3.43
   1 -10  16    2.57    2.11
   1 -10  16   12.08    7.02
   1 -10  17   33.52    8.65
   1 -10 -17   27.59    6.21
   1 -10  17   29.08   10.23
  -1 -10  17   27.11    8.70
  -1 -10  17   31.52   11.38
   1 -10  18   69.12   15.99
  -1 -10  18   52.94   14.00
   1 -10  18   86.27   14.54
  -1 -10  18   63.23   13.53
   1 -10  19   -0.70    4.46
  -1 -10  19   13.81    6.14
   1 -10  19    7.34    7.25
  -1 -10  19    3.96    5.92
   1 -10  20  218.89   27.13
   1 -10  20  211.85   24.31
  -1 -10  20  168.21   22.69
  -1 -10  20  238.76   28.98
   1 -10  21   22.72    9.23
   1 -10  21   26.69    9.48
  -1 -10  21   25.03    9.00
  -1 -10  21   17.26    7.73
   1 -10  22  115.73   20.00
  -1 -10  22   85.91   17.84
   1 -10  22   88.14   16.43
  -1 -10  22   79.72   16.20
  -1 -10  23    3.49    6.11
  -1 -10  23    8.78    7.26
   1 -10  23    4.51    3.95
   1 -10  23   -2.06    2.56
   1 -10  24   89.61   17.35
  -1 -10  24   86.28   18.54
  -1 -10  24   99.79   19.54
   1 -10  24   99.50   18.50
   1 -10  25   19.75    9.20
  -1 -10  25   12.84    8.99
  -1 -10  25    7.22    5.74
   1 -10  25    9.78    6.49
   1 -10  26   97.09   19.48
  -1 -10  26  106.20   22.71
   1 -10  26   93.31   18.93
  -1 -10  26   94.23   20.56
  -1 -10  27   23.91    9.30
   1 -10  27   22.83   10.47
   1 -10  27   18.72    8.23
  -1 -10  27   11.28    6.86
   1 -10  28   55.75   15.09
  -1 -10  28   42.54   13.43
   1 -10  28   48.22   14.26
   1 -10  29   33.27   13.40
   1 -10  29   42.10   13.12
  -1 -10  29   10.92    7.05
   1 -10  30   13.05    9.14
   1 -10  30    2.28    4.48
  -1 -10  30    3.79    2.46
  -1 -10  31   28.77   12.16
   1 -10  31   32.92   12.59
   1 -10  32   32.18   13.01
   1 -10  32   33.52   13.51
  -1 -10  32    9.14    5.03
  -1 -10  33   72.58   18.65
  -1 -11   0    3.79    4.07
  -1 -11   1  290.80   26.90
  -1 -11  -1  311.65   27.17
  -1 -11   2    3.30    2.37
  -1 -11  -2   -0.52    2.52
   1 -11   2   -1.17    0.70
   1 -11   3  313.08   28.99
   1 -11   3  279.42   13.66
  -1 -11   3  276.40   27.01
  -1 -11  -3  264.14   24.13
   1 -11   4  186.86   22.68
  -1 -11  -4  137.08   17.52
  -1 -11   4  162.84   21.07
   1 -11   4  129.01   10.29
   1 -11   5   14.58    5.83
  -1 -11   5   26.03    8.63
  -1 -11  -5   28.91    8.70
   1 -11   5   14.71    3.62
   1 -11   6    7.47    2.90
   1 -11   6    7.16    4.57
  -1 -11  -6    8.47    4.56
  -1 -11   6   12.09    6.01
   1 -11   7    3.66    2.94
  -1 -11  -7    0.02    2.69
   1 -11   7    0.59    3.57
  -1 -11   7    2.52    4.58
   1 -11  -8   93.62   14.27
  -1 -11   8   89.49   16.49
   1 -11   8  115.13   18.67
  -1 -11  -8   79.39   12.50
   1 -11   8  109.75   11.98
   1 -11  -9   97.08   14.34
  -1 -11   9   82.97   15.58
   1 -11   9   70.22   13.83
  -1 -11  -9  101.63   14.19
   1 -11   9   85.75   10.91
  -1 -11  10  179.77   23.41
  -1 -11 -10  188.73   18.82
   1 -11  10  151.62   22.31
   1 -11  10  186.87   16.87
   1 -11 -10  186.76   19.45
   1 -11  11  194.08   24.94
  -1 -11  11  163.35   22.91
  -1 -11 -11  169.99   17.76
   1 -11  11  183.06   17.51
   1 -11 -11  183.09   18.99
   1 -11  12  107.95   13.91
   1 -11  12   95.28   17.58
  -1 -11  12   73.28   15.18
  -1 -11 -12  103.82   13.60
   1 -11 -12   95.93   13.57
   1 -11  13   96.61   17.38
   1 -11 -13   70.18   11.32
  -1 -11  13   66.83   14.78
  -1 -11 -13   78.92   11.41
   1 -11  13   74.43   11.80
   1 -11  14   66.71   15.55
  -1 -11 -14   49.72    9.23
   1 -11  14   63.76   11.43
   1 -11 -14   58.52   10.03
  -1 -11  14   67.91   14.64
   1 -11  15   15.33    6.93
  -1 -11  15    6.86    5.24
   1 -11 -15   17.08    5.55
  -1 -11  15   19.05    9.19
  -1 -11 -15   15.13    4.92
   1 -11  15    4.79    4.30
   1 -11  16   23.62    9.26
   1 -11  16   20.94    7.29
  -1 -11  16   32.04    9.18
   1 -11 -16   31.57   12.52
  -1 -11  16   42.22   12.08
   1 -11  17    0.78    2.64
  -1 -11  17    4.09    4.14
   1 -11  17    6.06    5.43
  -1 -11  17    3.18    2.83
   1 -11  18   76.42   17.18
  -1 -11  18   58.41   15.05
   1 -11  18   62.42   12.90
  -1 -11  18   80.35   15.07
   1 -11  19   46.19   11.14
  -1 -11  19   46.84   12.32
   1 -11  19   56.14   15.23
  -1 -11  19   61.46   15.75
  -1 -11  20   11.61    7.29
   1 -11  20    8.63    4.65
  -1 -11  20   13.60    9.04
   1 -11  20    4.55    3.37
  -1 -11  21  176.50   24.43
   1 -11  21  167.33   25.25
  -1 -11  21  160.86   25.11
   1 -11  21  175.05   23.38
  -1 -11  22    5.48    4.13
   1 -11  22   -0.55    1.88
   1 -11  22    3.62    5.26
  -1 -11  22   -0.35    4.87
  -1 -11  23   49.16   13.92
  -1 -11  23   74.21   18.38
   1 -11  23   39.85   13.92
   1 -11  23   79.58   16.51
  -1 -11  24   18.30    7.97
   1 -11  24   15.51    8.87
   1 -11  24   17.94    8.77
  -1 -11  25  121.18   22.98
   1 -11  25  121.39   21.88
   1 -11  25  162.16   25.77
   1 -11  26   11.24    8.21
  -1 -11  26   10.41    8.37
   1 -11  26    3.68    6.61
   1 -11  27   -0.26    3.08
   1 -11  27   12.44   10.00
  -1 -11  27    1.56    4.10
  -1 -11  28    6.35    6.47
   1 -11  28   11.48    8.60
  -1 -11  29   -0.58    2.53
   1 -11  29   -1.01    4.67
   1 -11  29    5.22    8.25
  -1 -11  30   74.25   19.33
   1 -11  30   36.18   13.94
   1 -11  30   92.95   21.27
   1 -11  31   -1.10    5.01
   1 -11  31    5.71    4.54
   1 -11  32    3.00    3.83
   1 -11  32    7.03    6.10
  -1 -11  32    2.71    4.87
   1 -12   0    0.62    4.16
  -1 -12   0   -2.15    2.35
   1 -12   1  732.72   45.95
  -1 -12   1  652.03   42.75
  -1 -12  -1  727.70   43.62
   1 -12  -1  648.57   42.48
   1 -12   2   32.99   10.33
   1 -12  -2   37.32   10.17
  -1 -12   2   40.18   11.07
  -1 -12  -2   40.79   10.71
   1 -12   3  354.96   15.08
   1 -12  -3  378.31   31.79
  -1 -12   3  369.45   32.78
  -1 -12  -3  367.38   30.50
   1 -12   3  394.18   34.45
  -1 -12   4   15.78    6.69
   1 -12  -4   11.79    6.75
  -1 -12  -4   21.58    7.35
   1 -12   4   10.38    2.90
   1 -12   4    5.90    4.91
   1 -12  -5   13.62    7.16
  -1 -12   5   25.54    9.40
   1 -12   5   12.23    6.83
   1 -12   5   15.16    4.01
  -1 -12  -5   20.12    7.49
  -1 -12   6  157.89   22.03
   1 -12  -6  156.87   19.85
  -1 -12  -6  165.94   19.87
   1 -12   6  143.92   20.67
   1 -12   6  154.44   12.71
   1 -12   7  172.78   14.54
   1 -12   7  187.17   24.97
  -1 -12   7  160.83   22.11
   1 -12  -7  178.84   21.29
  -1 -12  -7  187.48   20.54
   1 -12   8    3.05    4.40
   1 -12   8    3.31    2.85
  -1 -12   8    0.31    5.91
   1 -12  -8    3.55    4.56
  -1 -12  -8    1.77    2.30
  -1 -12  -9   12.17    5.47
   1 -12   9    8.36    3.80
   1 -12  -9   20.13    7.31
  -1 -12   9    8.88    5.41
   1 -12   9   12.96    7.30
   1 -12  10    7.61    4.09
  -1 -12 -10    1.90    2.80
  -1 -12  10   11.99    6.10
   1 -12  10    1.05    4.02
   1 -12 -10    6.23    2.65
   1 -12  11   96.57   18.76
   1 -12 -11  108.79   15.59
  -1 -12  11   95.82   18.86
  -1 -12 -11   95.76   14.49
   1 -12  11  109.30   13.92
   1 -12  12   23.03    6.98
   1 -12 -12   29.68    8.05
  -1 -12 -12   14.70    5.42
  -1 -12  12   17.53    8.48
   1 -12  12   19.60    8.17
   1 -12  13   26.76   10.56
  -1 -12  13   46.84   13.56
   1 -12  13   21.69    6.85
   1 -12 -13   39.06    9.82
  -1 -12 -13   32.47    8.11
   1 -12  14   -0.67    3.01
   1 -12 -14   -0.04    2.00
  -1 -12 -14   -0.92    1.46
   1 -12  14    2.67    3.56
  -1 -12  14   -2.80    4.70
   1 -12  15   53.73   11.15
  -1 -12  15   53.37   15.40
   1 -12 -15   37.02    8.54
   1 -12  15   27.71   11.64
  -1 -12  16   20.52    9.31
   1 -12  16    9.73    5.84
   1 -12  16   12.56    7.57
   1 -12  17   92.36   15.39
   1 -12  17   69.28   16.53
  -1 -12  17  111.56   20.71
   1 -12  18   38.34   10.33
  -1 -12  18   33.87   11.40
   1 -12  18   22.15    9.79
   1 -12  19   90.04   19.04
   1 -12  19   78.48   15.15
  -1 -12  19   69.66   16.82
  -1 -12  20   18.87    9.33
   1 -12  20    9.99    7.76
   1 -12  20   16.46    8.69
  -1 -12  21   93.48   20.36
   1 -12  21  113.70   21.59
   1 -12  21  102.05   18.21
  -1 -12  22   -4.58    4.58
   1 -12  22    5.62    6.35
   1 -12  22    0.96    3.60
   1 -12  23   92.09   18.44
   1 -12  23  115.00   22.60
  -1 -12  23  103.88   21.73
  -1 -12  24   52.14   15.91
   1 -12  24   48.27   14.66
   1 -12  24   52.83   13.88
   1 -12  25  128.08   23.12
  -1 -12  25  121.89   23.55
   1 -12  25  175.08   26.08
   1 -12  26   -2.86    4.35
   1 -12  26   -1.21    3.48
  -1 -12  26    2.00    3.81
   1 -12  27    3.44    3.79
   1 -12  27    5.09    6.28
   1 -12  28    5.44    5.43
  -1 -12  28    5.97    5.09
   1 -12  28    6.50    7.45
   1 -12  29   14.55   10.14
   1 -12  29   20.89   11.76
  -1 -12  29   40.48   16.82
  -1 -12  30   15.13   11.44
   1 -12  30    3.65    5.24
   1 -12  30   13.68    8.75
  -1 -12  31   27.83   12.74
   1 -12  31   12.63    8.05
   1 -12  31   25.88   10.87
  -1 -13   0    4.96    4.29
   1 -13   0    0.41    3.77
   1 -13  -1    2.61    4.25
  -1 -13   1    3.30    5.50
  -1 -13  -1   -0.82    3.68
   1 -13   1    2.84    4.56
  -1 -13   2    0.60    3.73
  -1 -13  -2   -2.28    4.93
   1 -13   2   -1.63    3.22
   1 -13  -2    2.00    2.12
   1 -13  -3   -3.85    6.01
  -1 -13   3   -0.89    3.11
  -1 -13  -3    7.06    5.87
   1 -13   3   -3.92    5.16
  -1 -13   4   30.19    8.65
   1 -13  -4   25.29    8.97
  -1 -13  -4   17.89    6.01
   1 -13   4   16.57    7.78
  -1 -13  -5    1.07    1.69
  -1 -13   5    2.87    4.12
   1 -13   5    6.31    6.39
   1 -13  -5    3.04    2.54
   1 -13   6   22.78   10.10
  -1 -13   6   26.84   10.33
  -1 -13  -6    9.14    4.97
   1 -13  -6   12.74    6.78
  -1 -13  -7   26.33    8.35
   1 -13   7   27.22    9.41
  -1 -13   7   25.02    9.84
   1 -13  -7   45.55   11.06
   1 -13   8   22.38   10.32
  -1 -13   8   32.60   11.56
  -1 -13  -8    8.96    4.96
   1 -13  -8   12.37    6.29
   1 -13  -9    8.92    4.35
   1 -13   9    6.04    5.12
  -1 -13   9    7.64    4.05
  -1 -13  -9   11.40    5.76
  -1 -13  10   67.38   15.81
   1 -13  10   50.44    9.58
   1 -13  10   56.64   14.16
   1 -13 -10   63.78   12.66
  -1 -13 -10   62.61   12.51
   1 -13  11   47.54    9.54
  -1 -13 -11   38.40    9.67
   1 -13  11   57.25   14.34
  -1 -13  11   41.99   12.05
   1 -13 -11   45.30   10.90
   1 -13  12   -0.05    1.74
   1 -13  12    2.35    2.37
  -1 -13  12   -0.40    2.36
  -1 -13 -12    6.50    4.45
   1 -13  13   -1.49    2.78
  -1 -13  13    2.59    4.36
   1 -13  13    4.53    3.84
  -1 -13 -13    2.00    1.94
   1 -13 -13    7.97    4.50
   1 -13 -14   35.78    8.92
   1 -13  14   16.30    8.44
   1 -13  14   19.92    6.76
  -1 -13  14   18.51    8.70
   1 -13  15   -2.87    5.83
   1 -13  15    3.39    3.26
  -1 -13  15    5.26    7.69
   1 -13  16    5.30    6.24
   1 -13  16    2.83    3.46
  -1 -13  16    2.77    4.31
   1 -13  17    0.63    6.23
   1 -13  17   11.04    6.54
  -1 -13  17    3.00    4.27
   1 -13  18    9.00    6.15
   1 -13  18   -4.30    5.10
  -1 -13  18   14.04    9.98
   1 -13  19    3.65    5.71
   1 -13  19    0.80    3.30
  -1 -13  19    5.78    7.75
   1 -13  20   13.04    7.91
  -1 -13  20   -4.24    7.70
   1 -13  20   -0.46    3.45
   1 -13  21   -1.77    3.25
  -1 -13  21    8.30    6.58
   1 -13  21   -6.99    9.30
   1 -13  22   22.64   10.50
   1 -13  22    8.95    7.08
  -1 -13  22    5.29    4.18
   1 -13  23   64.62   17.30
  -1 -13  23   28.89   12.49
   1 -13  23   46.59   15.49
  -1 -13  24    0.57    3.02
   1 -13  24    3.80    6.45
   1 -13  24    8.80    5.32
   1 -13  25    8.56    7.76
  -1 -13  25   -5.36    5.29
   1 -13  25    7.86    4.97
   1 -13  26   -6.70    6.03
  -1 -13  26    0.88    4.66
   1 -13  26   -2.88    4.94
  -1 -13  27   14.50    7.17
   1 -13  27   19.32    7.71
   1 -13  27    2.97    6.58
   1 -13  28    1.97    5.72
  -1 -13  28   10.64    7.96
   1 -13  28   18.35   10.28
   1 -13  29   -1.71    4.95
   1 -14   0    2.03    3.38
  -1 -14   0   -5.20    5.65
   1 -14   1   60.13   14.85
   1 -14  -1   33.77   10.58
  -1 -14   1   63.54   14.98
  -1 -14  -1   51.82   12.49
   1 -14  -2   25.48    8.63
   1 -14   2   36.32   10.39
  -1 -14  -2   45.27   12.08
  -1 -14   2   15.06    7.24
   1 -14  -3   62.57   14.91
   1 -14   3   28.52    9.79
  -1 -14  -3   40.31   10.85
  -1 -14   3   51.86   13.03
  -1 -14  -4   37.91   10.55
   1 -14  -4   25.96    9.81
  -1 -14   4   24.26   10.52
   1 -14   4   31.39   10.49
  -1 -14  -5    9.89    5.47
   1 -14  -5   16.96    8.56
  -1 -14   5   19.98    9.41
   1 -14   5    9.34    6.47
   1 -14  -6  213.97   26.05
  -1 -14   6  197.89   26.73
   1 -14   6  213.54   29.38
  -1 -14  -6  211.76   25.25
   1 -14  -7   13.41    7.62
   1 -14   7    4.32    4.90
  -1 -14   7   14.41    7.86
  -1 -14  -7    5.85    5.25
  -1 -14  -8   45.86   11.27
   1 -14  -8   32.08   10.42
  -1 -14   8   39.94   11.85
   1 -14   8   43.35   13.36
  -1 -14  -9    1.15    3.55
   1 -14   9    1.24    2.81
   1 -14  -9    2.90    5.09
  -1 -14   9    3.77    5.11
   1 -14 -10    6.85    5.27
  -1 -14 -10    5.97    5.34
  -1 -14  10   -3.45    2.26
   1 -14  10    6.21    5.78
   1 -14 -11   49.66   11.34
   1 -14  11   58.38   15.51
  -1 -14 -11   62.71   13.13
  -1 -14  11   63.28   16.27
   1 -14  12   62.14   16.03
  -1 -14 -12   74.07   14.16
  -1 -14  12   59.29   15.66
   1 -14 -12  102.63   16.81
   1 -14 -13   45.27   11.54
   1 -14  13   37.23   12.45
  -1 -14  13   32.64   11.63
  -1 -14  14   14.71    9.75
   1 -14  14   22.97   10.59
  -1 -14  15    5.29    5.39
   1 -14  15    4.68    5.41
   1 -14  16   49.57   16.02
  -1 -14  16   45.66   14.45
  -1 -14  17    2.33    4.67
   1 -14  17   -3.88    4.87
   1 -14  18   -0.41    4.72
  -1 -14  18   17.10   11.40
   1 -14  19   50.23   15.48
  -1 -14  19   61.77   17.40
   1 -14  20   47.94   16.18
  -1 -14  20   39.38   13.37
   1 -14  21    8.70    8.09
  -1 -14  21    7.04    6.22
   1 -14  22   -0.21    4.90
  -1 -14  22    5.55    7.41
   1 -14  23   42.04   14.40
  -1 -14  23   35.28   13.45
  -1 -14  24   -7.81    9.79
   1 -14  24   11.58   10.76
   1 -14  25   16.27   10.79
  -1 -14  25    1.39    5.10
   1 -15   0   -0.03    3.63
  -1 -15   0   -1.63    4.09
  -1 -15  -1    1.39    2.52
   1 -15  -1    3.29    4.87
  -1 -15   1   10.15    7.99
   1 -15   1    3.60    5.83
  -1 -15   2  243.65   30.27
  -1 -15  -2  248.13   29.61
   1 -15  -2  248.52   30.10
   1 -15   2  199.12   28.26
   1 -15  -3  265.52   31.37
  -1 -15  -3  213.28   26.96
  -1 -15   3  221.66   29.27
   1 -15   3  261.13   32.97
   1 -15  -4    1.20    4.31
  -1 -15  -4    2.30    4.62
   1 -15   4    4.68    5.64
  -1 -15   4   -0.10    2.13
  -1 -15   5   54.26   15.55
  -1 -15  -5   57.07   13.57
   1 -15   5   69.90   17.62
   1 -15  -5   44.08   11.96
   1 -15  -6   13.34    6.44
  -1 -15  -6   13.95    7.24
  -1 -15   6   21.43   10.64
   1 -15   6   14.43    6.46
   1 -15   7   -2.80    4.62
  -1 -15   7   -2.44    4.77
  -1 -15  -7   -3.41    5.08
   1 -15  -7    1.21    2.57
   1 -15   8   15.89    9.03
   1 -15  -8   19.40    7.79
  -1 -15  -8    9.67    5.89
  -1 -15   8   16.76    9.25
   1 -15  -9   52.35   13.66
   1 -15   9   75.73   17.71
  -1 -15  -9   83.30   16.14
  -1 -15   9   96.89   20.46
   1 -15 -10   12.65    6.57
  -1 -15 -10   11.95    7.27
  -1 -15  10    2.61    6.98
   1 -15  10    8.35    5.28
  -1 -15  11    8.24    4.69
   1 -15 -11   13.73    7.56
   1 -15  11   19.49   10.46
  -1 -15 -11    5.87    4.62
   1 -15  12   22.28   11.00
  -1 -15  12    5.94    5.21
   1 -15  13    1.03    3.32
  -1 -15  13   12.69   10.38
   1 -15  14   -0.54    2.87
  -1 -15  14    1.88    5.44
  -1 -15  15   60.65   18.38
   1 -15  15   36.67   13.51
   1 -15  16   14.57    6.93
  -1 -15  16   31.62   13.40
  -1 -15  17   48.15   15.07
   1 -15  17   60.86   17.36
   1 -15  18   22.01   12.59
  -1 -15  18   24.82   11.06
   1 -15  19   42.58   14.46
  -1 -15  19   57.82   18.20
  -1 -15  20  139.70   26.62
   1 -15  20  120.44   26.04
   1 -15  21   -2.38    5.46
  -1 -15  21    3.07    5.04
   1 -15  22    7.77    7.87
  -1 -15  22    0.69    8.65
  -1 -16   0    1.29    4.82
   1 -16   0   -2.39    3.91
  -1 -16  -1   32.55   12.31
   1 -16   1   30.64   11.99
   1 -16  -1   24.37    8.66
  -1 -16   1   26.85   10.56
   1 -16   2  413.51   42.29
   1 -16  -2  452.17   42.89
  -1 -16   2  505.29   46.37
  -1 -16  -2  431.09   41.55
  -1 -16   3   14.02    7.24
  -1 -16  -3    5.12    2.80
   1 -16   3    9.25    9.10
   1 -16  -3   11.45    8.76
   1 -16  -4   48.15   13.66
  -1 -16  -4   57.99   15.46
   1 -16   4   40.72   13.75
  -1 -16   4   60.37   16.64
   1 -16   5   -0.20    3.11
   1 -16  -5    1.62    6.83
  -1 -16   5    4.81    2.92
  -1 -16  -5   -1.04    3.64
   1 -16  -6   69.28   16.13
   1 -16   6   60.33   16.71
  -1 -16   6   63.36   16.73
  -1 -16  -6   63.72   15.58
  -1 -16  -7    7.17    5.16
  -1 -16   7   10.95    8.14
   1 -16  -7    6.80    3.31
   1 -16   7   10.39    8.38
  -1 -16   8   77.92   18.92
   1 -16   8   92.31   21.28
   1 -16  -8   74.30   17.08
  -1 -16  -8   61.14   14.78
   1 -16  -9    3.37    4.99
   1 -16   9    1.48    3.02
  -1 -16   9    8.76    6.89
  -1 -16  -9   -1.20    4.26
   1 -16  10  144.45   26.14
   1 -16 -10  136.08   21.62
  -1 -16  10  133.50   26.01
  -1 -16  11    4.71    3.79
   1 -16  11    2.88    4.64
   1 -16  12  121.12   24.83
  -1 -16  12  148.83   27.23
  -1 -16  13    5.67    7.47
   1 -16  13    6.97    6.08
   1 -16  14   37.28   14.48
  -1 -16  14   49.26   16.63
   1 -16  15   56.54   18.54
  -1 -16  15   47.34   14.34
  -1 -16  16   15.20    9.23
   1 -16  16   27.47   13.14
   1 -16  17   -4.36    6.17
  -1 -16  17   -4.49    5.43
  -1 -16  18   19.90    9.73
   1 -16  18   19.19    9.87
   1 -17   0    6.86    6.79
  -1 -17   0    1.86    5.05
  -1 -17  -1   16.60    9.52
  -1 -17   1    1.68    4.49
   1 -17   1    5.42    6.00
   1 -17  -1    7.89    5.30
   1 -17  -2   22.53   11.62
  -1 -17  -2   -2.88    4.42
   1 -17   2   18.97   12.02
  -1 -17   2    8.12    7.79
  -1 -17   3    5.25    8.15
   1 -17   3    4.60    3.67
   1 -17  -3    2.38    2.79
  -1 -17  -3    1.65    3.52
  -1 -17  -4    4.07    6.36
   1 -17   4   -3.96    2.74
   1 -17  -4    6.09    6.16
  -1 -17   4   15.66    9.97
  -1 -17   5   14.48    7.56
   1 -17   5   42.79   14.54
  -1 -17  -5   32.35   13.02
   1 -17  -5   32.87   12.49
   1 -17   6   12.64    9.81
   1 -17  -6    1.11    4.38
  -1 -17   6   -0.76    4.31
  -1 -17  -6    5.11    6.65
  -1 -17  -7    8.79    7.38
   1 -17  -7    5.44    4.38
  -1 -17   7   -2.80    5.01
  -1 -17  -8    6.07    5.57
   1 -17  -8   21.24   10.45
   1 -17   8    0.23    5.41
  -1 -17   8    3.86    7.07
  -1 -17   9    5.59    7.88
   1 -17   9   24.70   10.88
   1 -17  10   31.57   12.29
  -1 -17  10   11.19    8.49
   1 -17  11    9.26    6.27
  -1 -17  11    4.52    5.32
  -1 -17  12   35.60   14.63
   1 -17  12   50.21   18.16
  -1 -17  13   20.20   12.32
   1 -17  13    2.29    5.51
  -1 -17  14   15.11   11.57
   1 -17  14    6.64    5.33
   1 -18   0   -3.65    5.54
  -1 -18   0   10.83   10.47
  -1 -18   1   15.27   10.63
   1 -18  -1   10.90    9.66
   1 -18   1   -1.17    5.74
  -1 -18  -1    1.74    4.73
   1 -18  -2   -1.21    5.67
   1 -18   2    7.83    7.06
  -1 -18  -2   -1.03    4.74
  -1 -18   2   -2.28    4.56
   1 -18  -3   23.80   11.85
   1 -18   3   28.39   13.03
  -1 -18   3   18.09   12.11
  -1 -18  -3    9.20    8.17
   1 -18  -4    9.58    8.82
  -1 -18  -4   -4.29    3.08
   1 -18   4   10.10    8.26
  -1 -18   4   -2.96    3.26
   1 -18  -5   12.48    9.61
  -1 -18   5    4.20    4.70
   1 -18   5    5.57    5.07
  -1 -18  -5   -2.03    5.24
   1 -18  -6   13.25    8.99
  -1 -18   6   -5.52    5.75
  -1 -18  -6   11.97    9.96
   1 -18   6    1.98    4.77
   1 -18   7   13.79    9.08
  -1 -18   7   13.00   10.17
  -1 -18   8   21.46   11.88
   1 -18   8   34.98   15.23
   1 -18   9    4.55    4.27
  -1 -18   9    2.38    5.09
   1 -19   0   -6.50    6.15
  -1 -19   0    3.13    5.89
   1 -19   1   60.84   19.85
  -1 -19   1   65.78   20.19
  -1 -19  -1   32.73   12.62
  -1 -19   2   18.85    9.70
  -1 -19  -2    8.78    9.04
   1 -19   2   20.44   11.73
   1 -19  -2    9.90    8.75
  -1 -19   3   10.03    9.84
   1 -19  -3    6.30    6.28
  -1 -19  -3   11.86    7.04
  -1 -19  -4   15.34    9.22
   1 -19  -4   27.70   12.75
   1 -19  -5   13.55    8.92
  -2   0   0    1.37    1.37
   2   0   0  130.79   10.28
  -2   0  -1   -0.72    0.87
  -2   0   1   -0.34    0.84
   2   0   1   -0.11    1.08
   2   0  -1   -0.44    1.01
   2   0   2   -0.29    0.99
  -2   0   2    0.10    0.71
   2   0  -3    0.63    1.58
  -2   0  -3    2.20    2.01
   2   0   3   -0.21    0.77
  -2   0   3    1.56    1.83
  -2   0   4   55.38    6.84
  -2   0  -4   58.13    6.77
   2   0  -4   54.64    6.72
  -2   0   5    1.80    1.48
   2   0   5   -0.23    1.22
   2   0  -5    0.08    0.94
  -2   0   6   12.42    3.21
   2   0  -6   18.38    4.04
   2   0   6   24.77    4.75
   2   0  -7   -0.43    1.39
  -2   0   7    2.68    1.91
   2   0   7    0.01    0.73
   2   0  -7    1.70    1.56
   2   0   8    4.25    2.22
   2   0   8    4.45    2.07
   2   0  -8    9.31    3.23
  -2   0   8    6.62    3.12
   2   0  -8    9.49    3.05
   2   0   9   -0.78    1.04
   2   0  -9    2.14    1.91
   2   0  -9    0.26    1.33
   2   0   9    1.65    0.79
  -2   0   9    2.20    1.72
  -2   0  10  470.20   22.96
   2   0 -10  466.74   23.94
   2   0 -10  466.14   20.85
   2   0  10  499.54   24.87
   2   0  10  436.38   20.13
   2   0 -11    3.03    1.98
  -2   0  11    0.38    1.27
   2   0  11   -1.04    1.13
   2   0 -11    0.53    1.80
   2   0 -12  807.02   28.89
  -2   0  12  797.54   31.28
   2   0  12  828.10   33.82
  -2   0  13   -1.12    1.46
   2   0 -13    1.39    1.38
  -2   0  14  323.32   20.90
   2   0  14  353.76   23.13
   2   0 -14  346.37   19.46
   2   0  15   -0.21    0.78
   2   0 -15   -0.42    1.51
   2   0 -16  146.09   13.00
   2   0  16  131.34   14.56
  -2   0  16  142.90   14.50
  -2   0  16  137.68   16.73
  -2   0  17    0.54    1.88
   2   0  17    0.26    1.04
   2   0  17    0.41    1.16
   2   0 -17   -0.44    0.91
  -2   0  17   -2.05    3.00
   2   0  18   59.41    6.79
  -2   0  18   77.39   11.46
   2   0  18   62.10   11.40
   2   0 -18   62.61    8.68
  -2   0  18   67.50   12.53
   2   0  19    0.14    1.10
  -2   0  19    1.92    2.30
  -2   0  19    6.90    5.14
   2   0 -19    0.65    2.02
   2   0  19    0.67    2.50
   2   0 -20   24.58    5.69
   2   0  20   15.38    5.96
  -2   0  20   27.55    7.34
   2   0  20   19.53    4.02
  -2   0  20   16.72    7.23
   2   0  21   -1.00    1.87
  -2   0  21   -0.43    2.93
  -2   0  21    1.11    2.82
   2   0  21    4.85    2.56
   2   0 -21   -2.36    1.33
   2   0  22   45.89    6.52
  -2   0  22   56.65   13.16
   2   0  22   44.72   10.52
  -2   0  22   44.04    9.40
  -2   0  23    1.95    2.86
   2   0  23   -0.96    1.34
   2   0  23   -0.09    3.65
   2   0  23   -0.50    0.88
   2   0  24   26.12    7.94
  -2   0  24   18.63    5.99
   2   0  24   32.01    5.62
   2   0  25    5.12    4.81
   2   0  25    0.70    1.81
  -2   0  25   -0.55    2.20
   2   0  26   53.72   13.19
  -2   0  26   45.63   10.12
  -2   0  27  237.86   24.45
   2   0  27   -3.02    4.27
   2   0  28    6.96    3.28
   2   0  29   -0.58    2.53
   2   0  30    0.71    2.30
   2   0  31   -4.82    4.94
   2   0  32    4.16    3.56
   2   0  33    1.23    5.63
   2   0  34   32.59   11.56
   2   0  35    8.02    7.68
   2   0  36   67.75   18.31
   2   0  37   -2.49    5.07
   2  -1   0 5776.61   73.74
   2   1   0 5800.77   64.06
   2  -1  -1 1232.61   33.36
   2  -1   1 1200.71   33.43
   2   1   1    1.42    1.23
  -2   1   1   -0.15    1.09
   2   1  -1 1159.87   29.17
  -2  -1  -1  302.09   14.88
  -2  -1   2    4.21    2.62
  -2   1  -2  150.32   11.69
   2  -1   2  424.12   19.88
   2   1   2    0.93    1.16
   2   1  -2  386.74   16.99
  -2  -1  -2  410.44   17.13
   2  -1  -2  359.28   17.74
  -2   1   2  185.03   12.79
  -2  -1  -3 7192.52   69.88
  -2  -1   3 6873.39   77.39
   2   1  -3 7013.16   74.36
  -2   1   3 7037.57   78.52
   2  -1  -3 6913.20   77.73
   2   1  -4 1153.64   31.01
  -2   1   4 1129.73   31.48
  -2  -1   4 1156.06   32.31
   2  -1  -4 1063.60   30.75
  -2  -1  -4 1160.49   27.71
   2   1   4 1181.96   27.68
   2  -1  -5  201.26   13.32
   2   1   5  205.51   11.54
  -2   1   5  198.04   13.40
   2   1  -5  212.16   13.45
  -2  -1  -5  209.64   11.92
  -2  -1   5  222.19   14.72
   2   1  -6    8.73    3.00
  -2  -1  -6   16.68    3.39
  -2   1   6   12.65    3.45
   2   1  -6   15.69    3.79
   2   1   6   16.24    3.31
   2  -1  -6   15.44    3.91
  -2  -1   6    9.78    3.33
   2   1  -7 1563.13   37.81
  -2   1   7 1431.29   36.86
   2   1   7 1499.58   31.02
   2   1  -7 1563.45   39.70
  -2  -1   7 1525.73   39.93
   2  -1  -7 1453.22   36.19
  -2  -1  -7 1546.47   32.08
   2  -1  -8  234.19   14.44
   2   1  -8  260.22   15.85
   2   1   8  249.18   12.78
  -2   1   8  225.65   15.33
  -2  -1   8  226.37   15.82
   2  -1   8  221.18   16.30
   2   1   8  251.30   16.46
   2   1  -8  235.85   15.97
   2  -1  -8  231.69   16.07
   2  -1  -9   26.57    5.77
   2   1  -9   21.91    5.05
  -2   1   9   21.56    4.87
   2   1  -9   29.33    5.74
  -2  -1   9   25.07    5.63
   2  -1  -9   27.04    5.07
   2  -1   9   16.83    4.19
   2   1   9   22.52    5.14
   2   1   9   20.51    3.48
   2   1  10  369.19   20.75
   2  -1  10  329.53   20.32
   2  -1 -10  380.87   21.39
  -2  -1  10  350.42   20.69
   2   1 -10  355.24   19.24
   2  -1 -10  367.89   18.31
   2   1  10  401.69   16.73
   2   1 -10  340.95   20.66
  -2   1  10  306.20   18.24
  -2  -1  11    4.98    2.54
   2  -1 -11    3.80    2.09
   2   1 -11    6.70    3.34
   2   1  11    1.23    0.60
   2   1  11    8.31    2.75
   2  -1 -11    2.93    1.48
  -2   1  11    6.32    2.97
   2  -1  11    0.85    1.69
   2   1 -11    7.95    3.04
   2   1  12  126.95    9.85
   2   1 -12  152.95   13.14
  -2  -1  12  146.23   13.90
  -2   1  12  100.69   10.89
   2  -1 -12  133.84   11.22
   2   1  12  137.65   13.60
   2  -1  12  143.51   14.28
  -2  -1  13    5.85    3.00
   2   1  13    5.78    2.71
   2  -1  13    1.18    1.50
   2   1 -13    5.40    3.28
   2  -1 -13    1.63    2.36
  -2   1  13    0.95    1.33
   2   1  13    3.82    2.11
  -2  -1  13    3.93    2.79
   2   1 -14   35.84    6.43
   2   1  14   20.50    5.55
   2  -1  14   19.91    6.12
  -2  -1  14   30.88    7.85
   2   1  14   25.26    4.48
   2  -1 -14   35.38    5.87
  -2   1  14   21.72    5.31
  -2  -1  14   41.27    8.02
   2  -1  15  463.23   27.25
   2   1  15  426.20   19.03
   2   1 -15  460.38   23.98
   2  -1 -15  465.46   21.45
   2   1  15  443.50   25.97
  -2  -1  15  433.32   28.88
  -2  -1  15  448.75   26.33
  -2   1  15  473.51   25.05
   2   1  16   52.45    5.04
   2  -1 -16   63.32    8.08
   2   1  16   43.38    6.14
  -2  -1  16   60.29   11.23
  -2  -1  16   57.76    9.39
   2   1 -16   48.31    8.05
  -2   1  16   42.88    7.53
   2   1  16   44.89    8.45
   2  -1  16   56.64    9.73
  -2  -1  17  161.03   18.50
   2   1 -17  204.58   16.61
  -2  -1  17  171.95   16.86
   2   1  17  205.99   19.52
   2  -1  17  186.50   18.47
  -2   1  17  200.91   17.22
   2   1  17  171.51   12.38
   2   1  17  178.90    9.54
   2  -1 -17  189.64   13.76
   2   1 -18    8.68    3.64
  -2  -1  18    2.33    0.88
   2  -1 -18    2.28    1.48
   2   1  18    3.17    0.79
  -2  -1  18   11.18    6.37
  -2   1  18    2.35    1.94
   2  -1  18   10.01    4.78
   2   1  18    3.93    2.05
   2   1  18   -0.69    1.84
   2  -1  18    5.72    2.42
   2   1  19  698.35   25.85
   2   1  19  703.05   19.82
  -2  -1  19  764.73   42.86
  -2   1  19  717.34   33.57
   2   1  19  796.56   40.03
   2  -1  19  676.70   26.87
  -2  -1  19  722.77   36.15
   2  -1 -19  681.99   27.19
   2  -1  19  733.62   39.58
   2   1 -19  699.93   32.03
   2  -1  20    2.09    2.23
  -2  -1  20   -2.17    2.39
   2  -1  20    0.99    2.78
  -2  -1  20   -1.12    2.19
   2   1  20    3.38    1.48
   2  -1 -20    1.98    2.28
  -2   1  20   -1.12    1.38
   2   1  20    0.77    0.45
   2   1  20    1.93    1.68
  -2  -1  21  887.13   41.44
  -2  -1  21  919.91   50.28
   2   1  21  843.66   28.80
   2  -1 -21  803.41   30.60
   2  -1  21  823.09   30.42
  -2   1  21  849.40   38.25
   2   1  21  901.66   44.95
   2  -1  21  923.22   45.99
   2   1  21  849.70   22.59
  -2  -1  22   95.20   16.65
  -2  -1  22   58.74   11.13
   2   1  22   67.88    8.14
   2  -1  22   71.32    8.93
   2   1  22   53.67    5.85
   2   1  22   85.05   14.58
  -2   1  22   70.73   11.25
   2  -1  22   69.17   13.40
  -2   1  23  320.67   24.12
   2   1  23  285.38   16.81
   2   1  23  266.94   13.27
   2  -1  23  281.15   27.49
   2  -1  23  317.67   19.61
  -2  -1  23  275.95   29.37
  -2  -1  23  348.01   27.12
   2   1  23  293.08   26.84
   2   1  24  240.07   12.62
  -2  -1  24  307.08   31.31
   2   1  24  326.59   29.07
  -2  -1  24  326.95   26.57
  -2   1  24  300.64   24.08
   2  -1  24  292.83   28.12
   2  -1  24  309.17   19.78
  -2  -1  25  162.09   19.49
  -2  -1  25  141.60   21.65
   2  -1  25  134.73   13.25
  -2   1  25  112.76   14.81
   2   1  25  173.14   21.45
   2  -1  25  163.10   21.53
   2  -1  26   23.64    9.54
   2  -1  26   33.95    6.77
  -2   1  26   22.35    7.24
   2   1  26   24.50    8.87
  -2  -1  26   32.03    9.19
   2   1  27  139.56   20.17
  -2  -1  27  135.11   18.44
   2  -1  27  127.25   13.33
   2  -1  27  175.60   23.34
  -2  -1  28   80.18   14.09
   2  -1  28   64.43   14.03
   2   1  28   61.66   14.37
   2  -1  29  267.57   30.23
   2   1  29  221.78   27.02
   2   1  30   28.52    9.00
   2  -1  30   23.61   10.15
   2  -1  31    4.07    5.80
   2   1  31   -0.97    2.03
   2  -1  32   18.83    8.68
   2   1  32    5.38    3.63
   2   1  33   17.15   10.93
   2  -1  33    8.24    7.60
   2  -1  34   14.54    8.07
   2   1  34   19.00    9.18
   2   1  35   10.64    8.86
   2  -1  35    2.98    4.42
   2  -1  36   13.04    8.92
   2   1  36    4.63    5.77
   2  -1  37   20.29   10.88
   2   1  37   41.79   13.99
  -2  -2   0 1090.44   30.00
   2  -2   0 1099.27   33.68
  -2  -2   1 1274.86   33.53
   2  -2  -1 1308.39   37.37
  -2  -2  -1 1314.70   31.73
   2   2  -1 1303.76   32.11
  -2   2   2 1444.75   37.75
   2   2  -2 1319.71   32.87
  -2  -2  -2 1401.86   32.18
   2  -2  -2 1341.02   37.87
  -2  -2   2 1309.06   34.64
  -2  -2  -3  836.42   24.27
   2   2  -3  836.30   27.06
   2  -2  -3  839.99   30.00
   2   2   3  852.19   23.44
  -2   2   3  818.46   28.15
   2  -2  -4 3513.44   60.32
  -2  -2  -4 3447.96   49.06
   2   2   4 3614.65   46.59
  -2   2   4 3506.15   58.91
  -2  -2   4 3448.10   58.74
   2   2  -4 3518.79   57.19
  -2  -2  -5 1886.86   35.36
   2   2  -5 1971.07   43.60
   2   2   5 1923.75   33.27
  -2  -2   5 1884.71   44.54
   2  -2  -5 1809.61   42.93
  -2   2   5 1922.87   43.63
  -2  -2  -6    1.43    1.21
   2   2   6    1.42    0.81
   2   2  -6    0.55    0.59
  -2  -2   6    1.62    1.47
  -2   2   6    0.69    0.84
   2  -2  -6    1.13    0.57
   2   2  -6    1.73    0.65
   2  -2  -7    1.87    2.15
   2   2  -7    1.11    0.49
   2   2   7    1.14    1.12
  -2   2   7    1.88    1.05
  -2  -2  -7   -0.34    0.73
  -2  -2   7    2.88    2.48
   2   2   7   -0.07    0.81
   2   2  -7   -1.19    0.72
  -2  -2  -8  195.50   10.67
   2   2   8  183.17    9.47
   2   2  -8  186.88   14.38
   2  -2  -8  176.11   13.05
   2   2   8  204.51   14.39
  -2  -2   8  199.69   15.41
   2  -2  -8  169.45   13.81
  -2   2   8  176.49   13.59
   2  -2   8  210.23   15.91
   2  -2   9   29.04    6.31
  -2  -2  -9   15.56    3.05
   2  -2  -9   15.26    4.04
   2   2  -9   14.88    4.03
  -2  -2   9   16.96    4.98
   2   2   9   16.32    2.73
   2   2   9   10.12    2.76
   2  -2  -9    9.94    3.38
   2   2  -9   -0.33    0.52
  -2   2   9   12.61    4.07
   2  -2 -10  121.92   10.83
   2   2 -10  137.02   12.41
   2  -2 -10  125.72   12.23
   2   2  10  128.23   11.92
   2  -2  10  128.26   13.06
  -2   2  10  119.39   11.34
   2   2  10  116.50    7.12
  -2  -2  10  115.43   12.11
   2   2  11  108.05   11.31
   2  -2 -11  107.40   10.14
   2  -2  11  129.83   13.63
   2  -2 -11  100.38   11.36
   2   2 -11  109.34   11.45
  -2   2  11  102.83   10.67
   2   2  11  100.61    6.47
  -2  -2  11   89.94   11.18
  -2  -2  12   14.70    5.08
   2  -2 -12   10.49    2.94
   2   2 -12    5.33    2.70
  -2  -2  12   12.21    3.77
  -2   2  12   14.30    4.38
   2  -2  12   19.93    5.72
   2   2  12   10.28    2.01
   2   2  12    8.80    3.18
   2  -2  13   97.10   12.16
   2   2 -13  109.52   12.13
   2   2  13   80.91    5.52
  -2  -2  13  109.29   12.81
   2  -2 -13  102.84    9.75
  -2  -2  13   86.94   12.52
   2   2  13   95.28   11.38
  -2   2  13   85.85   10.11
  -2  -2  14  209.01   18.46
   2   2 -14  199.35   16.65
   2  -2  14  193.65   17.67
  -2  -2  14  208.16   19.55
  -2   2  14  175.33   14.56
   2  -2 -14  217.55   14.01
   2   2  14  197.37   16.62
   2  -2  15  178.73   17.32
   2   2 -15  152.70   14.90
  -2   2  15  160.66   14.03
   2  -2 -15  157.00   12.00
   2   2  15  177.46   16.44
  -2  -2  15  171.83   16.66
  -2  -2  15  181.58   18.76
   2  -2 -16  163.62   12.49
  -2  -2  16  161.32   18.54
   2   2  16  170.86   16.74
  -2  -2  16  200.34   18.65
  -2   2  16  164.24   14.61
   2  -2  16  151.02   16.26
   2  -2  17  256.56   21.66
  -2  -2  17  263.52   21.48
   2   2  17  252.87   21.26
  -2  -2  17  252.90   23.98
  -2   2  17  270.97   18.90
   2  -2 -17  246.61   15.19
  -2  -2  18  170.31   19.89
  -2  -2  18  178.42   18.07
   2  -2  18  212.60   22.36
   2  -2 -18  143.65   11.42
   2  -2  18  155.79   13.97
  -2   2  18  146.59   14.19
   2   2  18  159.88   17.43
  -2  -2  19   93.92   13.17
   2  -2 -19   81.36    8.56
   2  -2  19   75.24   10.13
  -2  -2  19   60.88   12.39
  -2   2  19   60.65    8.99
   2   2  19   72.43   12.01
   2  -2  19   80.68   13.52
  -2  -2  20   30.77    7.78
   2  -2  20   26.08    6.14
   2   2  20   29.17    7.89
  -2   2  20   32.41    6.61
   2  -2 -20   31.04    5.37
   2  -2  20   19.96    6.58
  -2  -2  20   37.80   10.75
  -2   2  21  262.45   19.93
  -2  -2  21  191.80   23.45
  -2  -2  21  261.88   23.23
   2  -2  21  249.93   18.43
   2  -2  21  231.94   23.63
   2   2  21  272.59   24.69
   2  -2 -21  237.15   14.99
   2   2  22    0.67    2.15
  -2  -2  22    2.89    5.57
   2  -2 -22    1.20    1.20
   2  -2  22   -1.95    3.97
  -2  -2  22    2.25    3.11
  -2   2  22   -0.63    2.14
   2  -2  22   -0.01    1.00
  -2  -2  23    7.39    4.62
  -2  -2  23    3.16    2.35
   2  -2  23    5.80    3.89
  -2   2  23    8.10    4.20
   2  -2  23    2.96    2.65
   2   2  23    4.53    3.59
  -2  -2  24  140.48   18.33
  -2  -2  24  114.24   19.23
   2  -2  24  121.43   13.18
   2  -2  24  100.67   16.81
   2   2  24  131.28   18.22
  -2   2  24  131.21   14.58
   2  -2  25  138.79   14.65
   2  -2  25  142.36   20.10
  -2   2  25  141.06   15.34
  -2  -2  25  132.74   21.11
  -2  -2  25  135.06   18.26
   2   2  25  170.20   21.29
   2  -2  26  110.39   13.52
  -2  -2  26  164.74   20.35
   2  -2  26  155.56   21.24
   2   2  26  119.73   18.51
  -2  -2  26   77.42   17.27
   2  -2  27   23.17    9.12
  -2  -2  27    1.59    2.64
   2   2  27   16.26    7.12
   2  -2  27   14.79    5.38
   2   2  28   19.71    8.24
  -2  -2  28   26.98    8.95
   2  -2  28   24.11    8.46
   2  -2  29    6.03    6.37
   2   2  29   -0.44    1.83
  -2  -2  29    7.04    5.02
   2  -2  30   13.53    9.01
   2   2  30    6.33    3.78
   2  -2  31   -5.20    5.95
   2   2  31   -0.65    3.30
   2  -2  32   11.35    6.02
   2   2  32   10.03    5.76
   2  -2  33   -3.75    2.63
   2   2  33    8.09    7.39
   2  -2  34    5.46    3.87
   2   2  34    4.00    3.09
   2   2  35    9.34    6.76
   2  -2  35   12.13   10.08
   2   2  36   10.04    6.87
   2  -2  36   22.00   11.17
   2  -2  37   14.75    9.14
   2   2  37    5.50    3.46
  -2  -3   0    6.03    1.88
   2   3   0   -0.18    1.11
   2   3  -1    3.81    2.27
  -2  -3   1  298.84   16.90
   2   3   1   -0.38    1.05
  -2  -3  -1  290.12   15.77
  -2  -3  -2 2152.36   42.32
   2   3  -2 2007.25   43.64
   2  -3  -2 2111.96   50.70
   2   3   2 2120.07   39.64
  -2  -3   2 2007.60   44.98
  -2  -3   3   90.27    9.72
   2   3   3   91.39    7.86
  -2  -3  -3   85.86    8.31
   2   3  -3   88.65    9.58
   2  -3  -3   86.87   10.25
   2   3  -4   55.08    6.75
   2   3   4   70.46    6.95
   2   3  -4   53.72    7.47
  -2  -3   4   38.68    6.56
  -2  -3  -4   66.97    7.16
   2  -3  -4   63.35    8.86
   2   3  -5  348.18   17.43
   2  -3  -5  373.19   21.50
  -2  -3  -5  334.77   15.56
  -2  -3   5  347.04   20.12
   2   3   5  376.53   15.25
   2   3  -5  373.04   19.97
  -2  -3   6    3.36    0.94
   2  -3  -6    3.71    2.41
   2   3  -6    2.40    1.23
  -2  -3  -6    3.27    1.02
   2   3   6    4.84    1.74
   2   3  -6    6.81    2.20
   2   3   7  111.20    7.50
   2  -3   7   99.38   11.16
   2   3  -7   91.70   10.40
  -2  -3   7   99.53   11.28
   2   3   7  106.80    9.46
   2   3  -7   90.83    9.56
   2  -3  -7   88.80   10.42
  -2  -3  -7  102.27    8.14
  -2  -3   8   84.16   10.62
   2  -3  -8   64.34    8.26
   2   3   8   70.31    5.68
   2   3  -8   66.68    8.61
  -2  -3  -8   69.31    6.55
   2  -3  -8   80.07    9.67
   2  -3   8   65.77    9.23
   2   3   8   73.92    8.16
   2   3  -8   68.20    9.47
  -2   3   8   79.53    9.28
   2   3  -9 1052.17   34.76
   2   3   9  965.17   30.60
   2   3  -9  993.91   35.89
   2   3   9  990.94   20.05
   2  -3  -9  992.97   33.56
  -2  -3   9 1035.52   37.80
  -2  -3  -9  995.91   23.38
   2  -3  -9 1030.56   34.27
  -2   3   9 1050.70   33.80
   2  -3   9 1015.67   36.35
   2  -3 -10  417.75   22.28
  -2  -3 -10  399.49   14.25
   2  -3 -10  417.76   21.44
  -2   3  10  403.01   21.31
   2   3 -10  408.78   23.44
  -2  -3  10  383.82   23.44
   2  -3  10  404.52   23.64
   2   3 -10  428.97   23.20
   2   3  10  429.34   21.09
   2   3  10  393.68   11.39
   2  -3 -11   32.45    6.42
   2   3  11   23.47    5.01
  -2  -3  11   30.96    6.58
  -2  -3  11   19.53    5.80
   2   3  11   26.05    2.46
   2   3 -11   23.79    6.15
   2  -3 -11   15.22    4.01
   2  -3  11   29.78    6.37
  -2   3  11   23.54    4.98
   2  -3 -12  190.54   15.95
   2   3 -12  209.55   17.64
   2   3  12  161.62   13.66
   2  -3 -12  181.32   13.70
  -2   3  12  171.29   14.03
  -2  -3  12  172.43   16.37
  -2  -3  12  185.62   17.41
   2  -3  12  185.06   17.04
   2  -3 -13  328.81   17.90
  -2  -3  13  327.11   23.89
  -2   3  13  350.42   20.16
   2   3  13  302.41   19.42
   2  -3  13  351.83   24.30
  -2  -3  13  354.88   24.10
  -2   3  14    1.89    2.28
   2  -3  14    2.35    2.73
   2  -3 -14    0.84    1.08
  -2  -3  14    0.18    1.20
   2   3  14   -1.13    1.58
  -2  -3  14   -0.63    1.85
   2  -3  15   43.91    9.43
  -2   3  15   49.97    7.43
  -2  -3  15   47.50    9.03
   2   3  15   53.33    9.02
  -2  -3  15   39.09    8.76
   2  -3 -15   56.17    7.19
  -2  -3  16   30.22    8.17
  -2  -3  16   15.61    5.01
   2   3  16   16.91    5.28
  -2   3  16   17.78    5.35
   2  -3  16   17.28    6.07
   2  -3 -16   18.37    3.97
   2   3  17  112.61   14.04
  -2   3  17  128.29   12.63
   2  -3  17  141.39   16.53
  -2  -3  17  110.35   15.80
  -2  -3  17  105.29   14.21
   2  -3 -17  110.72    9.82
  -2  -3  18    4.31    4.02
   2  -3 -18   -0.49    1.11
   2  -3  18   -1.51    2.33
   2   3  18    3.46    2.77
  -2   3  18    3.09    2.66
   2  -3  18    0.04    2.80
  -2  -3  18    8.74    4.86
   2  -3  19  211.53   17.87
   2  -3 -19  227.84   13.47
  -2  -3  19  221.45   23.82
  -2   3  19  240.84   17.54
   2  -3  19  239.38   23.10
  -2  -3  19  217.41   21.22
   2  -3 -20  275.11   14.65
  -2  -3  20  268.65   26.12
   2  -3  20  351.59   28.37
   2  -3  20  294.09   21.51
  -2   3  20  281.25   19.30
   2   3  20  336.79   26.35
  -2  -3  20  295.72   25.06
  -2  -3  21  166.10   21.24
   2  -3  21  162.12   20.29
   2  -3  21  177.41   16.89
   2  -3 -21  151.45   10.75
  -2  -3  21  182.12   20.13
   2   3  21  198.37   20.76
  -2   3  21  183.50   15.48
   2  -3 -22   33.58    5.09
   2  -3  22   56.92    9.91
  -2   3  22   22.77    5.55
   2  -3  22   52.66   12.13
   2   3  22   35.70    9.13
  -2  -3  22   23.31    7.62
  -2  -3  22   27.98    8.20
   2  -3  23    8.00    5.95
  -2  -3  23   20.33    7.37
  -2  -3  23    6.52    5.06
   2  -3  23   16.63    5.24
  -2   3  23    8.27    3.35
   2   3  23   19.95    7.15
  -2  -3  24  150.92   21.97
   2  -3  24  116.87   14.03
   2   3  24  142.83   18.93
  -2  -3  24  144.53   18.80
  -2   3  24  112.84   11.87
   2  -3  24  164.84   21.27
  -2  -3  25   13.24    6.57
   2   3  25   16.69    6.43
   2  -3  25    7.73    4.14
   2  -3  25    6.20    3.33
  -2  -3  25   19.57    6.58
  -2  -3  26   -0.26    2.32
  -2  -3  26    5.75    4.73
   2  -3  26   -1.56    2.38
   2   3  26    3.49    2.62
   2  -3  26   -1.03    3.30
   2   3  27   69.64   14.38
  -2  -3  27   64.22   13.17
  -2  -3  27   73.65   16.93
   2  -3  27   99.77   17.39
   2  -3  27   48.19    9.51
   2   3  28   10.80    4.47
  -2  -3  28    3.44    3.91
   2  -3  28   10.81    7.13
   2  -3  28    4.61    4.20
  -2  -3  29   41.38   11.57
   2  -3  29   50.94   13.14
   2   3  29   37.91   11.73
   2   3  30    0.99    1.63
  -2  -3  30   -1.13    2.30
   2  -3  31  100.90   19.71
   2   3  31  131.62   22.02
   2  -3  32   10.94    7.79
   2   3  32    8.38    7.91
   2   3  33    8.44    5.99
   2  -3  33   -1.46    3.91
   2   3  34   25.72   11.78
   2  -3  34   22.18   10.53
   2   3  35    5.11    5.48
   2  -3  35    2.91    6.50
   2  -3  36   29.16   12.81
   2   3  36   10.67    7.72
   2   3  37    4.40    5.16
  -2  -4   0 1950.14   44.97
   2   4   0    0.67    0.79
  -2  -4  -1   21.94    4.49
  -2  -4   1   29.85    5.76
   2   4   1   20.12    4.37
  -2  -4   2  514.00   24.73
  -2  -4  -2  482.68   21.47
   2   4   2  483.44   20.76
   2   4   3   64.27    7.29
   2   4  -3   66.73    9.03
  -2  -4  -3   45.21    6.52
  -2  -4   3   65.42    8.90
   2   4  -3   62.48    6.83
  -2  -4   4  172.19   14.93
   2   4  -4  171.33   14.50
  -2  -4  -4  178.42   12.69
   2  -4  -4  192.12   16.43
   2   4  -4  191.87   12.35
   2   4   4  178.94   11.78
  -2  -4  -5  320.65   16.51
   2   4  -5  303.94   20.07
   2   4   5  323.82   15.45
   2  -4  -5  328.06   21.42
   2   4  -5  313.49   16.23
   2  -4  -6  194.10   16.95
   2   4  -6  182.81   15.43
  -2  -4  -6  178.68   11.94
  -2  -4   6  185.93   15.96
   2   4   6  180.13   11.23
   2   4  -6  178.96   13.02
   2   4   6  195.19   11.47
   2   4  -7  956.50   36.24
  -2  -4   7  925.66   36.81
   2  -4  -7  978.27   37.78
   2   4   7  943.01   24.14
   2   4   7  901.67   25.86
   2   4  -7  892.16   29.62
  -2  -4  -7  904.02   26.07
   2  -4   7  902.33   33.74
   2  -4   8   -2.56    2.17
   2  -4  -8    1.07    2.17
  -2  -4  -8    2.00    0.59
   2  -4  -8   -0.70    2.00
  -2  -4   8    1.04    2.85
   2   4   8    0.80    1.19
   2   4  -8   -1.62    1.70
   2   4   8    0.94    1.80
   2   4  -8    0.69    0.56
   2   4  -9   69.84    9.12
  -2  -4  -9   67.72    6.72
   2   4   9   65.29    7.76
   2   4   9   67.38    5.70
   2  -4   9   67.34    9.43
   2  -4  -9   65.79    8.88
   2  -4  -9   64.23    9.35
  -2  -4   9   66.44   10.39
   2  -4  10    4.92    2.48
   2  -4 -10    2.32    2.02
  -2  -4 -10    0.81    0.87
   2   4  10   -0.27    1.16
   2   4 -10    1.69    1.10
   2  -4 -10    1.10    1.02
   2  -4 -11    1.09    1.88
   2  -4 -11   -1.35    0.87
  -2  -4 -11   -0.09    0.63
  -2  -4  11    0.89    1.47
   2  -4  11    2.42    2.92
  -2  -4  11    3.09    2.83
   2   4  11    0.36    1.02
  -2  -4  12    4.15    1.94
   2  -4 -12    9.30    3.79
  -2  -4  12    9.37    4.17
   2   4  12    9.84    3.78
   2  -4  12    5.94    3.85
   2  -4 -12    7.26    3.41
   2  -4 -13   68.08    8.82
   2  -4  13   76.24   11.11
   2   4  13   81.70   10.16
  -2  -4  13   77.02   11.71
  -2  -4  13   69.65   11.36
  -2  -4  14   23.50    6.65
  -2  -4  14   32.90    7.89
   2  -4 -14   28.98    5.59
   2  -4  14   31.27    7.19
   2   4  14   23.05    5.77
   2  -4  15   17.62    5.99
   2   4  15   13.72    4.77
  -2  -4  15    2.44    2.85
   2  -4 -15    4.60    1.77
  -2  -4  15    5.41    3.40
   2   4  16   -0.64    1.55
  -2  -4  16    0.07    2.54
   2  -4 -16    0.16    0.90
  -2  -4  16    0.78    2.53
   2  -4  16    6.16    3.57
   2  -4 -17    3.41    2.38
  -2  -4  17    5.99    4.21
   2   4  17    2.79    2.51
   2  -4  17    0.73    1.62
  -2  -4  17    5.77    3.00
   2   4  18   49.53    9.55
  -2  -4  18   55.59   11.34
   2  -4  18   29.64    7.62
   2  -4 -18   52.95    6.51
   2  -4  18   56.31   11.28
  -2  -4  18   54.53   10.68
  -2  -4  19  124.28   17.90
   2  -4  19  178.11   20.24
   2  -4 -19  123.67    9.64
  -2  -4  19  152.49   18.47
   2   4  19  112.79   14.28
   2  -4  19  142.98   15.77
   2  -4  20  152.40   16.48
   2   4  20  147.70   17.27
  -2  -4  20  160.53   20.57
  -2  -4  20  147.51   18.59
   2  -4  20  157.66   19.35
   2  -4 -20  115.95    8.90
   2   4  21   24.06    7.25
  -2  -4  21   27.52    9.23
   2  -4 -21   30.86    4.45
  -2  -4  21   26.70    7.60
   2  -4  21   41.31   10.43
   2  -4  21   27.76    7.16
  -2  -4  22   62.23   12.38
  -2  -4  22   46.82   12.32
   2  -4  22   38.95    9.87
   2   4  22   46.06   10.01
   2  -4  22   39.87    8.73
   2  -4  23   14.54    5.69
  -2  -4  23    9.42    7.47
   2  -4  23    9.43    6.26
   2   4  23   14.23    7.03
  -2  -4  24    2.81    4.59
   2  -4  24    8.19    4.26
  -2  -4  24    3.38    3.58
   2   4  24    4.95    3.85
   2   4  25  276.11   27.12
   2  -4  25  233.15   21.59
   2  -4  25  239.11   26.52
  -2  -4  25  244.55   29.05
  -2  -4  25  232.66   25.44
   2  -4  26    5.34    7.01
  -2  -4  26   -4.29    2.80
   2   4  26   -0.27    3.05
   2  -4  26    0.12    2.26
  -2  -4  26    6.81    5.36
  -2  -4  27   16.94    7.06
   2   4  27   20.44    8.02
  -2  -4  27   28.94    9.73
   2  -4  27   17.87    5.81
   2  -4  27   36.83   11.03
  -2  -4  28   -3.62    4.99
   2  -4  28   -0.56    2.18
   2  -4  28    7.16    4.93
   2   4  28    1.87    3.08
  -2  -4  29   24.60    9.80
   2  -4  29   55.20   11.29
   2  -4  29   31.08    9.85
   2   4  29   31.19   10.57
  -2  -4  30    1.61    3.80
   2   4  30   -1.17    3.95
   2   4  31    1.04    2.34
   2  -4  31   -5.36    6.61
   2   4  32   17.08    8.93
   2  -4  32   25.36   10.55
   2  -4  33   -0.91    2.08
   2   4  33   -0.11    4.13
   2   4  34    6.01    6.10
   2  -4  34    5.46    7.22
   2   4  35    6.72    6.29
   2  -4  35   16.24    9.61
   2   4  36   17.81   10.13
   2  -4  36   22.84   12.37
   2   4  37   19.93    9.83
   2   4  38    5.78    6.11
  -2  -5   0  614.26   27.25
   2   5   0  618.08   26.87
  -2  -5   1  884.24   33.25
   2   5   1  891.75   31.95
  -2  -5  -1  851.98   31.21
   2   5  -2 1370.10   28.62
  -2  -5   2 1362.19   42.54
  -2  -5  -2 1394.59   39.43
   2   5   2 1402.16   38.90
   2   5   3  397.45   20.29
  -2  -5   3  398.06   23.37
  -2  -5  -3  408.01   21.05
   2   5  -3  401.11   16.32
   2   5   4  855.38   28.63
   2   5  -4  807.89   34.02
  -2  -5  -4  818.75   29.12
  -2  -5   4  789.98   33.45
   2   5  -4  828.87   24.80
   2   5   5    1.06    1.47
   2   5   5    1.00    1.23
   2   5  -5   -1.48    1.82
  -2  -5   5   -0.18    2.35
  -2  -5  -5    0.22    0.98
   2   5  -5    1.06    1.22
   2   5  -6  343.00   17.91
   2   5   6  340.30   16.98
   2  -5   6  343.91   20.64
   2   5   6  361.76   14.51
  -2  -5  -6  350.57   17.97
   2  -5  -6  369.55   24.47
  -2  -5   7   40.49    8.22
   2   5  -7   60.01    7.85
   2   5   7   51.48    5.84
  -2  -5  -7   51.55    6.84
   2  -5   7   64.07    9.14
   2  -5  -7   46.13    8.63
   2  -5  -8  447.18   27.31
   2  -5   8  426.28   23.61
  -2  -5  -8  457.03   19.58
   2   5   8  432.12   17.80
  -2  -5   8  459.27   27.41
   2   5  -8  452.21   22.89
   2  -5  -8  416.80   21.32
   2   5   9   -1.58    1.46
  -2  -5  -9    1.20    1.68
   2  -5   9    2.48    2.10
   2  -5  -9   -1.71    2.25
  -2  -5   9   -0.16    1.06
   2   5  -9   -1.00    0.68
   2  -5  -9    3.86    2.66
  -2  -5  10   77.06   11.72
   2  -5 -10   93.17   12.44
  -2  -5 -10   83.18    7.80
   2  -5  10   84.95   11.24
   2  -5 -10   94.19   10.44
   2   5  10   90.28    8.76
  -2  -5  11   12.66    4.93
   2  -5  11    1.01    2.05
   2   5  11   10.12    3.33
  -2  -5  11   14.18    4.59
   2  -5 -11    5.17    2.55
  -2  -5 -11    4.19    2.28
   2  -5 -11    3.13    1.89
   2   5  12   11.73    4.05
  -2  -5  12   10.33    4.36
   2  -5  12    9.28    4.26
   2  -5 -12   14.63    4.79
  -2  -5 -12   10.70    2.56
  -2  -5  12   18.12    6.03
   2  -5 -12   12.66    4.59
  -2  -5  13    7.79    4.58
   2   5  13    5.42    2.76
  -2  -5  13    1.91    2.31
   2  -5  13    1.73    1.50
  -2  -5 -13    1.74    1.10
   2  -5 -13    1.09    2.07
   2  -5 -14  118.75   12.36
   2   5  14  116.70   12.22
  -2  -5  14  125.05   16.44
   2  -5  14  112.65   14.19
  -2  -5  14   98.43   13.92
  -2  -5  15  144.68   17.21
   2  -5 -15  114.75   11.91
  -2  -5  15  105.98   15.25
   2   5  15  136.80   14.12
   2  -5  15  133.15   15.57
  -2  -5  16  108.81   15.52
   2  -5  16   92.46   13.48
   2   5  16  100.50   12.42
  -2  -5  16   90.08   13.86
   2  -5 -16  106.01   10.76
   2   5  17   11.86    4.15
   2  -5 -17   15.06    3.82
  -2  -5  17   14.02    5.30
  -2  -5  17   14.02    5.84
   2  -5  17   11.34    4.96
   2  -5 -18  155.74   11.64
  -2  -5  18  183.52   20.67
   2  -5  18  186.67   20.43
   2   5  18  170.98   17.14
  -2  -5  18  187.56   21.47
   2  -5  18  166.97   18.27
   2  -5  19    3.04    3.59
  -2  -5  19    4.20    5.04
   2  -5  19   -1.75    3.50
  -2  -5  19    9.11    6.42
   2  -5 -19    0.92    0.88
   2   5  19    4.33    3.72
  -2  -5  20  697.62   43.53
   2  -5  20  646.09   36.10
   2   5  20  625.71   35.11
   2  -5 -20  576.27   19.41
   2  -5  20  671.16   40.39
  -2  -5  20  596.10   38.01
  -2  -5  21  302.89   29.22
   2  -5  21  288.91   27.25
  -2  -5  21  318.57   28.44
   2  -5  21  307.98   25.42
   2   5  21  270.18   23.75
  -2  -5  22  380.66   34.28
  -2  -5  22  388.49   31.75
   2  -5  22  372.29   32.02
   2   5  22  413.77   30.18
   2  -5  22  414.56   29.51
  -2  -5  23  401.16   35.62
   2  -5  23  387.68   32.78
  -2  -5  23  403.83   32.76
   2   5  23  399.30   30.76
   2  -5  23  405.11   29.80
  -2  -5  24   40.58   10.54
  -2  -5  24   82.62   16.13
   2  -5  24   53.38   10.86
   2   5  24   58.74   12.17
   2  -5  24   58.00   13.43
  -2  -5  25    7.19    5.72
  -2  -5  25    2.85    2.77
   2   5  25    7.94    5.88
   2  -5  25    8.87    6.87
   2  -5  25   10.83    5.27
  -2  -5  26   26.40   10.27
   2  -5  26   22.11    6.97
   2  -5  26   29.17    9.96
   2   5  26   25.28    8.42
  -2  -5  26   40.18   10.55
  -2  -5  27   39.11   11.67
   2  -5  27   22.24    7.31
   2  -5  27   25.03    8.71
   2   5  27   14.15    6.01
   2   5  28  154.47   21.89
  -2  -5  28  103.75   18.50
   2  -5  28  130.47   18.05
   2  -5  28  122.52   20.68
   2  -5  29   52.03   13.54
   2  -5  29   48.32   11.36
   2   5  29   56.36   13.45
  -2  -5  29   30.63    9.67
   2  -5  30  124.18   21.48
   2   5  30  117.27   20.17
   2  -5  30  166.43   20.62
  -2  -5  30  173.52   24.34
  -2  -5  31    9.14    6.75
   2   5  31   21.56   10.17
   2  -5  31    6.03    6.59
   2  -5  32    1.30    3.73
   2   5  32    6.37    6.29
   2  -5  33    4.07    5.63
   2   5  33    3.37    6.44
   2   5  34    2.33    4.03
   2  -5  34   -0.16    5.09
   2  -5  35   -3.69    5.40
   2   5  35   -8.03    7.52
   2   5  36    5.84    6.83
   2   5  37   12.88    9.00
   2   5  38    5.87    5.49
   2   6   0   15.49    2.42
  -2  -6   0   12.25    4.15
  -2  -6   1  363.28   23.06
   2   6  -1  354.66   22.91
   2   6   1  413.87   23.63
  -2  -6  -1  387.30   22.81
   2   6  -1  378.12   13.26
  -2  -6  -2  438.53   23.68
   2   6  -2  465.12   15.96
  -2  -6   2  436.60   26.00
   2   6  -3  346.91   14.87
  -2  -6   3  322.51   22.75
  -2  -6  -3  361.98   21.04
   2   6   4  385.82   11.74
  -2  -6   4  407.40   26.31
   2   6  -4  430.22   17.80
  -2  -6  -4  415.71   22.42
   2   6  -5   77.66    8.30
   2  -6   5  102.26   11.19
  -2  -6   5   77.44   12.16
  -2  -6  -5  100.00   10.91
   2   6   5   85.06    5.78
   2   6  -6    6.14    2.52
  -2  -6  -6    1.02    1.32
   2  -6   6    5.00    3.29
  -2  -6   6    3.41    1.15
   2   6   6    0.92    0.99
  -2  -6  -7  261.36   16.56
   2  -6   7  262.13   18.43
  -2  -6   7  247.44   21.34
   2   6   7  253.27   11.41
   2   6  -7  234.91   15.86
   2  -6  -8    7.77    3.17
   2  -6  -8   10.36    4.79
   2  -6   8    4.39    2.40
  -2  -6  -8    7.91    2.81
   2   6   8    5.00    1.90
   2   6  -8    4.45    2.09
  -2  -6   8    6.05    4.50
   2   6  -9  728.68   31.13
  -2  -6   9  655.37   35.41
   2  -6  -9  766.79   38.22
  -2  -6  -9  759.72   27.17
   2   6   9  732.30   23.61
   2  -6   9  691.12   31.59
   2  -6  -9  710.25   27.74
   2  -6  10    4.61    2.77
  -2  -6 -10    4.63    2.34
   2  -6 -10    5.88    4.40
  -2  -6  10   -0.12    1.69
   2  -6 -10    4.71    2.58
   2   6  10    6.44    2.06
   2  -6 -11    6.31    4.18
   2  -6 -11    6.67    3.26
   2  -6  11   13.93    6.09
  -2  -6  11    4.46    2.57
  -2  -6 -11    3.40    1.71
   2   6  11    3.75    2.01
  -2  -6 -12    9.67    2.84
   2  -6 -12    5.65    2.56
   2   6  12    9.58    3.31
  -2  -6  12   12.33    4.59
   2  -6  12   10.41    4.56
   2  -6 -12    5.11    4.06
  -2  -6  13  333.78   24.85
  -2  -6 -13  333.55   15.50
   2  -6 -13  382.23   25.74
   2  -6  13  343.62   23.98
  -2  -6  13  311.72   26.10
   2   6  13  380.85   20.88
   2   6  14  162.42   14.16
   2  -6  14  132.87   15.53
  -2  -6 -14  127.46    8.23
  -2  -6  14  145.57   18.10
   2  -6 -14  141.11   15.20
  -2  -6  14  165.59   18.15
  -2  -6  15   87.46   13.94
  -2  -6  15   83.00   13.86
   2  -6  15   84.06   12.62
   2   6  15  101.09   11.65
   2  -6 -15  100.34   12.29
  -2  -6  16   78.49   13.73
  -2  -6  16  104.37   15.34
   2  -6 -16   72.69    9.90
   2  -6  16   74.72   12.41
   2   6  16   70.29   10.22
   2   6  17    7.71    3.71
  -2  -6  17    7.32    5.33
   2  -6  17    6.68    4.69
   2  -6 -17    6.91    4.03
  -2  -6  17   10.91    5.06
  -2  -6  18   24.64    8.60
   2  -6 -18   17.59    4.27
  -2  -6  18   28.05    8.25
   2  -6  18   22.74    7.25
   2  -6  18   18.30    6.43
   2   6  18   15.81    4.40
   2   6  19   29.11    7.25
   2  -6 -19   30.55    5.31
  -2  -6  19   37.34    9.58
   2  -6  19   30.94    9.12
  -2  -6  19   25.25    7.87
   2  -6  19   22.85    8.12
   2  -6  20    7.67    5.09
   2   6  20   15.86    6.40
  -2  -6  20   11.78    6.07
  -2  -6  20   11.36    5.27
   2  -6  20    1.56    2.59
   2  -6  21   68.89   12.89
  -2  -6  21   45.86   11.54
   2  -6  21   86.55   15.23
  -2  -6  21   67.97   13.26
   2   6  21   89.59   13.87
   2   6  22    5.57    3.48
  -2  -6  22    3.24    4.12
   2  -6  22    8.57    5.22
  -2  -6  22    4.90    5.19
   2  -6  22   12.58    5.76
   2   6  23    0.15    2.02
  -2  -6  23   -0.43    1.73
   2  -6  23    5.21    5.72
   2  -6  23    0.24    3.42
  -2  -6  23    5.88    4.92
  -2  -6  24   22.80    9.13
   2   6  24   44.68   11.23
   2  -6  24   39.68    9.87
  -2  -6  24   30.42    9.32
   2  -6  24   39.36   10.43
   2  -6  25   94.77   17.26
  -2  -6  25  108.86   20.34
  -2  -6  25   85.96   16.75
   2  -6  25   77.53   14.13
   2   6  25   90.68   15.63
   2  -6  26   -1.20    2.90
  -2  -6  26   15.41    7.50
   2  -6  26    4.37    5.01
   2   6  26    4.27    4.57
   2  -6  27   21.33   10.00
   2   6  27   38.36   10.42
   2  -6  27   21.29    7.44
  -2  -6  27   45.65   12.36
   2  -6  28    7.31    5.07
   2  -6  28   17.98    8.14
   2   6  28   11.57    6.23
  -2  -6  28   21.01    8.87
   2   6  29  111.68   19.55
  -2  -6  29   76.27   16.07
   2  -6  29  105.83   19.74
   2  -6  29   86.53   15.87
  -2  -6  30   12.27    7.93
   2  -6  30   -1.24    4.27
   2  -6  30    5.40    3.99
   2   6  30   -3.08    4.53
   2   6  31   57.80   14.61
   2  -6  31   48.43   14.55
  -2  -6  31   75.51   16.64
  -2  -6  32   -5.44    6.07
   2   6  32    8.14    9.01
   2  -6  32    4.63    2.78
   2  -6  33   -8.04    8.69
   2   6  33   13.07    8.39
   2   6  34   13.32    8.69
   2  -6  34   18.16    8.93
   2   6  35   49.57   15.89
   2  -6  35   48.62   15.93
   2   6  36    4.55    5.66
  -2  -7   0    8.29    3.32
   2   7   0    9.97    1.82
  -2  -7   1   49.30    8.86
   2   7   1   62.26    3.72
  -2  -7  -1   63.84   10.17
   2   7  -1   59.06    5.00
  -2  -7  -2  215.60   17.99
   2   7  -2  224.31   10.94
  -2  -7   2  222.77   19.55
  -2  -7  -3   17.25    5.07
  -2  -7   3   20.11    6.91
   2   7  -3   16.81    3.31
   2   7  -4  801.61   25.11
  -2  -7  -4  793.98   33.14
   2  -7   4  772.19   29.87
  -2  -7   4  777.98   37.58
   2   7  -5  525.04   21.77
  -2  -7   5  533.01   31.59
   2  -7   5  516.88   25.05
  -2  -7  -5  556.82   27.29
   2   7   5  459.97   10.50
   2  -7   6   35.58    6.66
  -2  -7  -6   19.73    5.05
   2   7  -6   29.68    5.52
  -2  -7   6   35.74    8.47
   2   7   6   25.85    2.99
  -2  -7  -7    3.36    2.49
   2  -7  -7    1.09    1.78
  -2  -7   7    1.08    2.42
   2  -7   7    4.12    2.74
   2   7  -7    2.81    1.23
   2   7   7    3.43    1.32
   2   7   8  280.11   12.25
  -2  -7   8  256.79   22.98
   2  -7   8  278.58   19.67
   2   7  -8  285.98   18.63
   2  -7  -8  287.28   17.11
  -2  -7  -8  306.57   19.20
   2   7  -9   61.85    8.89
   2  -7   9   63.75    9.80
   2   7   9   74.55    6.87
  -2  -7   9   64.20   11.79
  -2  -7  -9   74.11    9.24
   2  -7  -9   66.69    8.45
   2  -7  -9   82.94   13.42
   2  -7 -10  146.58   12.61
  -2  -7  10  168.08   19.50
  -2  -7 -10  183.66   14.16
   2  -7  10  166.35   16.47
   2  -7 -10  144.11   17.57
   2   7  10  177.78   11.50
   2   7  11   15.17    3.59
  -2  -7 -11   19.55    4.46
   2  -7 -11   20.40    6.91
   2  -7 -11   24.72    5.28
  -2  -7  11   20.66    6.80
   2  -7  11   23.40    6.47
  -2  -7  12  288.50   25.75
  -2  -7 -12  284.53   16.77
   2  -7  12  238.22   20.23
   2  -7 -12  272.45   23.83
   2  -7 -12  251.34   17.52
   2   7  12  251.18   15.65
   2  -7 -13    4.20    3.94
  -2  -7 -13   -0.34    0.91
   2  -7 -13   -1.89    2.79
  -2  -7  13   -4.58    4.94
   2   7  13   -0.22    0.89
   2  -7  13    4.09    3.11
   2  -7  14    8.88    2.84
  -2  -7 -14    6.14    2.08
   2  -7 -14    8.10    3.85
   2   7  14    4.19    2.54
  -2  -7  14    2.69    2.01
  -2  -7 -15   34.53    4.71
  -2  -7  15   57.54   12.99
   2  -7  15   48.38    9.99
   2   7  15   59.57    8.78
  -2  -7  15   36.27    9.14
   2  -7 -15   32.58    7.58
  -2  -7  16   87.32   13.85
   2  -7 -16   76.54   11.38
  -2  -7  16   61.66   12.72
   2  -7  16   81.80   13.25
   2   7  16   73.68   10.31
  -2  -7  17  419.67   33.45
  -2  -7  17  370.63   30.33
   2  -7  17  429.89   31.99
   2  -7  17  385.19   29.50
   2  -7 -17  380.07   24.37
   2   7  17  432.48   25.98
  -2  -7  18   78.87   14.14
   2  -7  18   81.51   14.14
  -2  -7  18   92.57   16.37
   2  -7  18   83.46   13.51
   2   7  18  104.96   13.25
  -2  -7  19   18.63    7.41
   2  -7  19   20.64    6.95
  -2  -7  19   28.41    9.05
   2   7  19   16.07    6.11
   2  -7  19   19.70    6.54
  -2  -7  20  150.46   20.75
   2  -7  20  195.70   22.14
  -2  -7  20  172.78   22.56
   2   7  20  166.88   18.28
   2  -7  20  196.07   22.21
  -2  -7  21    0.03    1.84
   2   7  21    5.52    2.31
  -2  -7  21    6.93    5.00
   2  -7  21    3.06    5.27
   2  -7  21   -3.80    3.69
   2   7  22  172.92   19.60
  -2  -7  22  216.05   26.41
   2  -7  22  181.45   22.01
  -2  -7  22  165.68   23.16
   2  -7  22  208.33   24.18
  -2  -7  23   -2.13    4.66
   2   7  23   -2.33    3.02
   2  -7  23    2.20    2.82
   2  -7  23    6.88    4.63
  -2  -7  23   -3.77    3.50
  -2  -7  24    7.59    5.41
   2   7  24   12.54    6.02
   2  -7  24   11.21    5.57
   2  -7  24   12.87    6.14
   2  -7  25   28.03    8.97
  -2  -7  25   27.24   10.18
   2   7  25   47.24   11.51
   2  -7  25   36.80   10.34
  -2  -7  26  157.43   23.29
   2  -7  26  172.77   22.33
   2   7  26  139.58   20.98
   2  -7  26  107.15   18.93
   2   7  27   69.18   15.01
   2  -7  27   80.42   15.47
   2  -7  27   98.04   18.38
   2  -7  28  155.83   24.12
  -2  -7  28  114.22   20.42
   2  -7  28  127.61   19.08
   2   7  28  135.34   21.00
   2   7  29   15.28    7.08
  -2  -7  29   10.36    7.62
   2  -7  29   11.84    6.80
   2  -7  29   13.02    7.58
   2  -7  30   31.64   12.45
   2   7  30   43.27   13.21
   2  -7  30   20.55    7.88
  -2  -7  30   43.19   13.51
  -2  -7  31    7.89    6.86
   2  -7  31   21.86   10.39
   2   7  31   40.21   13.01
   2  -7  31   15.56    7.68
  -2  -7  32   30.89   11.50
   2  -7  32   25.38    9.45
   2   7  32   34.09   12.07
   2   7  33    9.80    5.11
   2  -7  33   -0.49    3.83
   2  -7  34   52.33   17.05
  -2  -8   0    2.76    1.01
   2   8  -1  380.81   12.61
  -2  -8  -1  399.09   26.42
  -2  -8   1  377.55   26.27
  -2  -8   2  150.41   16.98
  -2  -8  -2  121.98   14.53
   2   8  -2  129.77    8.43
   2  -8   3   -0.18    1.93
  -2  -8   3    3.06    2.96
   2   8  -3    1.54    1.70
  -2  -8  -3    0.03    1.28
   2  -8   4   39.92    6.76
  -2  -8  -4   43.17    8.42
   2   8  -4   44.96    5.76
  -2  -8   4   51.28   10.84
   2   8  -5    0.79    1.39
  -2  -8   5   -0.90    1.00
  -2  -8  -5    2.77    2.52
   2  -8   5    1.23    0.97
  -2  -8   6   10.79    4.17
   2  -8   6   11.37    4.08
   2   8  -6   10.40    3.43
  -2  -8  -6    9.51    3.81
   2  -8  -7   55.46    7.00
  -2  -8   7   61.90   11.50
  -2  -8  -7   70.36   10.13
   2  -8   7   62.73    9.26
   2   8  -7   59.48    8.36
   2  -8  -8  118.21   10.41
   2   8   8   86.49    6.17
  -2  -8  -8  114.90   12.99
   2  -8   8   98.52   11.78
  -2  -8   8  115.25   17.02
   2   8  -8  101.83   11.67
   2   8   9    0.69    1.09
   2  -8  -9    0.52    0.96
  -2  -8   9   -1.38    2.56
  -2  -8  -9   -0.16    0.69
   2   8  -9    0.87    2.16
   2  -8   9    4.32    3.75
   2  -8  10  110.02   13.18
  -2  -8  10   94.15   15.45
  -2  -8 -10  102.07   11.55
   2  -8 -10  107.48   10.42
   2   8  10  106.04    8.29
   2  -8  11   29.58    7.02
  -2  -8 -11   27.93    5.66
   2  -8 -11   23.01    5.13
   2   8  11   32.61    5.08
   2  -8 -12    0.98    1.46
   2  -8  12   -1.83    1.76
   2   8  12    5.25    2.22
  -2  -8  12    5.81    5.19
  -2  -8 -12   -2.78    1.98
   2  -8 -12   -0.40    1.54
  -2  -8 -13    4.14    1.76
   2   8  13    1.44    1.76
   2  -8 -13    0.40    2.56
   2  -8  13   -0.88    2.58
  -2  -8  13    6.59    3.60
   2  -8 -13    2.00    2.11
   2  -8 -14   11.79    4.92
   2   8  14   16.11    4.70
  -2  -8  14   12.08    7.04
   2  -8  14   29.24    8.18
  -2  -8 -14   18.42    4.95
   2   8  15   -0.16    1.38
  -2  -8 -15    3.59    2.10
   2  -8 -15    4.80    4.12
   2  -8  15    1.50    1.91
  -2  -8  15    0.26    4.55
   2  -8  16    0.66    1.85
   2   8  16    4.79    3.52
   2  -8  16    7.22    4.75
  -2  -8 -16    2.14    1.79
  -2  -8  16    4.34    5.54
   2  -8 -16   10.13    5.06
   2  -8  17    4.56    3.52
  -2  -8  17    3.76    2.52
   2   8  17    4.80    2.67
   2  -8  18   -1.14    3.70
   2  -8  18    7.79    4.74
  -2  -8  18    5.06    4.45
   2   8  18    4.64    3.38
   2   8  19   25.73    6.75
   2  -8  19   24.09    8.27
   2  -8  19   15.33    8.38
  -2  -8  19   24.16    9.61
   2  -8  20   41.75   11.12
   2   8  20   35.95    8.91
   2  -8  20   40.15   10.40
  -2  -8  20   42.14   11.77
   2   8  21   68.14   12.01
   2  -8  21   62.00   13.33
   2  -8  21   47.48   12.07
  -2  -8  21   81.72   16.43
   2  -8  22   -0.30    1.98
   2   8  22    5.04    3.40
   2  -8  22    2.04    3.71
  -2  -8  22   -2.11    3.56
   2  -8  23   -3.20    4.56
  -2  -8  23    9.10    5.63
   2   8  23   -0.97    2.21
   2  -8  23    2.82    2.70
   2   8  24    2.62    3.86
   2  -8  24   10.27    6.65
   2  -8  24    9.00    5.12
  -2  -8  24    2.86    3.62
  -2  -8  25    2.21    1.90
   2   8  25   -0.07    2.75
   2  -8  25    0.49    3.37
   2  -8  25   -5.33    5.87
   2  -8  26   34.00   11.47
  -2  -8  26    8.63    5.24
   2  -8  26   12.35    6.62
   2   8  26   18.57    7.96
   2  -8  27    1.11    3.41
   2   8  27    9.09    6.69
   2  -8  27    0.14    3.53
  -2  -8  27   -1.80    1.99
   2   8  28   -1.83    2.58
   2  -8  28    6.91    7.31
  -2  -8  28   10.56    7.61
   2  -8  28    3.96    3.86
   2   8  29   -8.37    7.23
   2  -8  29   -2.82    4.13
   2  -8  29   11.82    8.98
   2   8  30    8.41    5.69
   2  -8  30   -2.47    2.38
  -2  -8  30    3.05    3.04
   2  -8  30   -1.62    4.18
   2  -8  31    7.89    6.48
  -2  -8  31    1.64    4.55
   2  -8  31    4.93    5.67
  -2  -8  32   38.18   14.67
   2  -8  32   -2.72    3.47
   2  -8  33   19.85   11.31
  -2  -8  33   15.45    7.49
   2  -8  34   -1.06    4.21
  -2  -9   0 2039.04   64.39
   2  -9   1    0.88    2.73
  -2  -9   1   -1.19    1.73
  -2  -9  -1    3.65    4.50
  -2  -9  -2  878.21   41.12
   2  -9   2  798.83   28.33
  -2  -9   2  818.39   41.69
   2  -9   3  153.24   12.81
  -2  -9   3  151.13   18.17
  -2  -9  -3  142.63   16.54
   2   9  -3  170.24   10.88
   2   9  -4  167.54   11.61
  -2  -9   4  155.14   18.60
  -2  -9  -4  154.43   16.92
   2  -9   4  161.81   13.40
   2   9  -5  166.84   12.67
   2  -9   5  136.39   12.97
  -2  -9  -5  176.96   17.87
   2  -9  -6  270.58   14.57
   2  -9   6  249.19   18.00
   2   9  -6  257.75   17.11
  -2  -9   6  238.45   23.70
  -2  -9  -6  305.55   22.79
   2   9  -7   58.40    8.76
  -2  -9  -7   39.73    8.16
   2  -9   7   56.83    8.97
   2  -9  -7   46.46    6.01
  -2  -9   7   52.12   11.42
   2  -9  -8   74.24    7.63
   2  -9   8   67.56    9.87
  -2  -9   8   58.99   11.93
   2   9  -8   61.20    9.27
  -2  -9  -8   58.22    9.83
  -2  -9   9   69.11   13.87
  -2  -9  -9   77.97   11.05
   2  -9  -9   68.76    7.69
   2  -9   9   62.95    9.83
  -2  -9 -10    6.28    2.99
  -2  -9  10    8.35    4.49
   2  -9  10    7.10    3.99
   2  -9 -10    8.59    2.82
   2  -9 -11   22.03    5.06
  -2  -9  11   32.87    9.14
   2  -9  11   22.16    5.97
  -2  -9 -11   23.73    5.47
   2  -9 -12    0.21    2.15
   2  -9  12    3.90    2.88
  -2  -9 -12    1.80    1.69
  -2  -9  12    7.07    3.62
   2  -9 -13   10.32    3.71
   2  -9  13    5.37    4.71
  -2  -9  13    6.27    4.47
  -2  -9 -13    6.80    2.89
  -2  -9 -14    4.61    3.21
   2   9  14   -0.26    1.48
  -2  -9  14   -4.40    5.63
   2  -9  14    8.22    4.95
   2  -9  15    8.37    5.44
  -2  -9 -15    4.19    3.11
   2   9  15   11.33    3.89
   2  -9  15   -1.32    2.13
  -2  -9  15    3.81    1.42
   2   9  16  115.70   12.64
  -2  -9  16  124.25   19.51
   2  -9  16  128.20   19.06
   2  -9  16  138.93   17.85
  -2  -9 -16  123.89   11.35
   2  -9  17  114.33   19.05
   2   9  17   95.04   12.23
  -2  -9  17   94.59   16.90
   2  -9  17  119.90   16.79
  -2  -9  18  356.89   34.26
   2   9  18  366.58   24.85
   2  -9  18  341.12   32.19
   2  -9  18  377.09   30.38
   2   9  19   51.74    9.79
   2  -9  19   43.12   11.80
   2  -9  19   34.02    9.31
  -2  -9  19   33.41   10.25
   2  -9  20  293.16   29.87
   2   9  20  291.53   24.07
  -2  -9  20  303.86   32.55
   2  -9  20  303.59   28.68
   2  -9  21  124.92   18.58
   2  -9  21  151.27   22.47
  -2  -9  21  127.82   21.48
   2   9  21  130.96   16.82
  -2  -9  22  468.72   41.23
   2  -9  22  470.75   39.46
   2  -9  22  553.24   40.27
   2   9  22  503.08   34.12
   2  -9  23   16.21    6.95
   2   9  23   18.11    6.85
   2  -9  23   10.73    6.86
  -2  -9  23   30.99   10.53
   2   9  24  278.39   26.96
  -2  -9  24  246.87   30.74
   2  -9  24  286.21   31.48
   2  -9  24  293.44   30.42
   2  -9  25    6.76    4.93
   2  -9  25   10.58    5.92
  -2  -9  25   -4.50    6.22
  -2  -9  26   43.33   13.58
   2  -9  26   19.13    7.98
   2  -9  26   67.08   15.64
   2  -9  27   33.14   10.75
  -2  -9  27   58.88   16.12
   2  -9  27   52.13   14.52
   2  -9  28   83.54   18.24
   2  -9  28   54.35   14.35
  -2  -9  28   65.75   16.84
   2  -9  29    3.69    5.71
   2  -9  29    2.95    4.62
  -2  -9  29    7.27    5.07
  -2  -9  30   -3.67    6.19
   2  -9  30   -6.95    5.71
   2  -9  30    3.11    5.12
   2  -9  31   31.45   11.72
   2  -9  31   21.18    9.70
  -2  -9  31   26.86   10.39
  -2  -9  32    7.64    7.63
   2  -9  32    2.71    4.23
   2  -9  32   -0.78    3.19
  -2  -9  33   -5.60    5.66
   2  -9  33    5.32    5.25
   2 -10   0  710.20   23.89
  -2 -10   0  695.31   39.24
   2 -10  -1   16.78    3.60
  -2 -10   1   12.04    5.56
  -2 -10  -1   10.39    3.82
   2 -10   1    9.67    3.29
  -2 -10  -2    4.21    3.47
  -2 -10   2   -0.76    1.35
   2 -10   2    1.34    1.51
  -2 -10  -3   87.82   13.59
   2 -10   3  105.29   10.31
  -2 -10   3   85.55   14.30
   2 -10   4   17.22    4.80
  -2 -10   4   33.90   10.09
  -2 -10  -4   19.72    6.78
   2 -10   5   20.65    5.07
  -2 -10   5   18.65    6.30
  -2 -10  -5   22.11    6.65
   2 -10  -5   24.28    4.01
   2 -10   6   47.36    7.79
  -2 -10   6   49.84   11.45
   2  10  -6   46.59    7.48
   2 -10  -6   61.44    6.20
  -2 -10  -6   57.78   10.85
   2  10  -7   17.78    5.34
   2 -10   7   19.01    4.98
  -2 -10   7   28.01    9.26
   2 -10  -7   25.52    4.01
  -2 -10  -7   14.64    5.72
  -2 -10   8   34.18   10.03
  -2 -10  -8   30.97    8.11
   2  10  -8   31.83    6.77
   2 -10  -8   25.32    4.08
   2 -10   8   35.16    6.83
  -2 -10  -9    4.87    4.13
   2 -10  -9    2.83    1.78
  -2 -10   9   -0.15    4.15
   2 -10   9    2.92    1.89
   2 -10  10   66.77   10.80
  -2 -10  10   78.18   15.41
  -2 -10 -10   80.07   12.15
   2 -10 -10   72.47    7.75
  -2 -10  11   59.82   13.59
  -2 -10 -11   55.52    9.36
   2 -10  11   77.08   12.04
  -2 -10 -12   -0.01    1.40
  -2 -10  12   -2.24    1.56
  -2 -10  13   74.30   15.03
  -2 -10 -13   71.09   10.68
   2 -10  13   72.08   12.07
  -2 -10 -14   22.56    5.84
  -2 -10  14   17.47    6.88
   2 -10  14   23.76    7.17
   2 -10  14   21.13    8.64
   2 -10  15    4.22    3.10
  -2 -10 -15    5.76    3.00
  -2 -10  15    1.45    3.49
   2 -10  15   12.03    5.43
  -2 -10 -16   32.84    6.67
   2 -10  16   42.63   11.59
  -2 -10  16   54.02   13.84
   2 -10  16   46.82   10.90
   2 -10  17  116.83   19.81
  -2 -10  17   65.55   16.07
   2 -10  17   87.43   14.76
   2 -10  18   -1.91    3.92
   2 -10  18   14.65    8.53
  -2 -10  18    5.39    5.29
   2 -10  19   11.05    6.08
  -2 -10  19    9.51    6.88
   2 -10  19   11.19    6.26
   2 -10  20    5.65    2.69
  -2 -10  20   -0.40    1.99
   2 -10  20    2.04    3.38
   2 -10  21   16.62    7.69
  -2 -10  21   21.70   10.33
   2 -10  21   24.14    8.63
   2 -10  22   90.57   16.74
  -2 -10  22   53.16   14.51
   2 -10  22   63.31   15.40
  -2 -10  23    3.25    5.17
   2 -10  23   -1.70    3.97
   2 -10  23   -1.70    3.49
   2 -10  24   13.46    7.11
   2 -10  24    9.35    7.37
  -2 -10  24    6.52    5.19
  -2 -10  25    5.74    5.58
   2 -10  25   13.50    7.39
   2 -10  25    4.45    4.28
   2 -10  26    7.36    5.94
   2 -10  26    4.67    5.37
  -2 -10  26    6.04    4.22
   2 -10  27   68.89   16.39
  -2 -10  27   71.45   18.17
   2 -10  27   68.42   16.22
   2 -10  28    0.44    2.84
  -2 -10  28    0.28    3.57
  -2 -10  29    1.49    2.72
   2 -10  29    3.69    6.10
  -2 -10  30   22.10   11.09
   2 -10  30   19.11    9.91
   2 -10  30   24.19    9.85
  -2 -10  31    1.27    3.22
   2 -10  31   10.20    7.97
   2 -10  31    9.52   10.24
  -2 -10  32   11.72    9.93
   2 -10  32   -7.43    7.72
   2 -10  32   -3.08    4.73
  -2 -10  33    0.80    4.18
  -2 -11   0  515.76   35.93
   2 -11   0  543.20   19.03
  -2 -11   1    4.24    4.77
  -2 -11  -1    3.07    3.89
   2 -11   1    2.12    1.49
   2 -11  -1    1.63    0.66
   2 -11  -2  176.60    9.81
   2 -11   2  190.70   12.44
  -2 -11   2  203.61   23.27
  -2 -11  -2  209.33   22.33
   2 -11   3   17.73    4.03
  -2 -11   3   16.36    6.64
  -2 -11  -3   19.21    6.44
  -2 -11  -4  426.20   31.51
   2 -11   4  394.49   19.88
  -2 -11   4  395.81   33.28
   2 -11  -4  350.85   12.30
  -2 -11  -5   19.21    6.66
  -2 -11   5   26.10    8.46
   2 -11   5   30.95    6.18
   2 -11  -5   18.20    2.53
  -2 -11   6  171.51   22.15
  -2 -11  -6  127.03   16.71
   2 -11   6  147.95   13.81
  -2 -11   7   34.29   10.33
   2 -11   7   33.36    6.76
  -2 -11  -8  113.32   15.08
   2 -11   8  100.36   12.23
  -2 -11   8   76.81   15.26
  -2 -11   9    2.17    3.60
  -2 -11  -9    7.96    5.02
   2 -11   9    7.48    3.67
  -2 -11  10  199.01   25.33
  -2 -11 -10  207.19   20.64
   2 -11  10  189.62   18.26
   2 -11  11    3.60    2.63
  -2 -11 -11    0.58    3.10
  -2 -11  11   -1.53    4.46
  -2 -11  12  109.50   19.20
   2 -11  12   89.79   17.41
  -2 -11 -12  101.27   14.03
   2 -11  12   82.70   12.42
  -2 -11 -13   14.57    5.42
   2 -11  13   20.62    9.14
  -2 -11  13   14.71    7.21
   2 -11  13   25.64    6.95
   2 -11  14   80.68   16.23
  -2 -11  14   70.29   15.19
  -2 -11 -14   58.94   10.38
   2 -11  14   61.57   11.50
   2 -11  15   65.56   15.22
  -2 -11 -15   47.69    9.47
  -2 -11  15   53.81   13.17
   2 -11  15   61.14   12.01
  -2 -11  16  101.14   20.13
   2 -11  16  123.45   21.08
   2 -11  16  123.52   17.16
   2 -11  17    1.20    1.70
   2 -11  17    7.23    6.72
  -2 -11  17    0.26    5.33
   2 -11  18  185.45   22.08
   2 -11  18  164.57   24.95
  -2 -11  18  166.58   25.49
   2 -11  19   16.10    7.23
  -2 -11  19   25.88   10.46
   2 -11  19   32.03   11.94
   2 -11  20   95.79   16.34
  -2 -11  20  130.92   23.12
   2 -11  20   97.24   19.43
   2 -11  21   23.24    9.07
   2 -11  21   15.48    8.18
  -2 -11  21   16.10    8.77
   2 -11  22  280.20   29.91
   2 -11  22  249.14   32.03
  -2 -11  22  270.91   34.09
  -2 -11  23   -1.83    2.11
   2 -11  23    8.74    6.70
   2 -11  23    4.89    5.87
   2 -11  24   52.82   14.58
   2 -11  24   47.70   13.17
  -2 -11  24   47.30   14.36
   2 -11  25    3.37    6.81
   2 -11  25    6.24    6.36
  -2 -11  25   -2.23    2.82
   2 -11  26   65.07   16.39
  -2 -11  26   65.53   17.05
   2 -11  26   37.21   12.04
  -2 -11  27   25.37   11.82
   2 -11  27   22.75   11.32
   2 -11  27    2.75    4.98
   2 -11  28  133.65   24.13
  -2 -11  28  121.04   24.24
   2 -11  28  105.99   21.51
   2 -11  29    4.13    4.00
   2 -11  29    1.25    3.36
  -2 -11  29   -5.19    5.54
   2 -11  30   56.84   17.48
   2 -11  30   24.21   13.00
  -2 -11  30   41.90   14.81
   2 -11  31   14.57   10.58
   2 -11  31    5.59    7.13
  -2 -11  31   -4.45    5.21
  -2 -11  32   -2.13    5.78
   2 -11  32    1.08    2.81
  -2 -12   0  164.99   21.80
   2 -12   0  172.17    9.38
  -2 -12   1   23.71    8.07
  -2 -12  -1   31.92    9.62
   2 -12   1   23.05    3.90
  -2 -12   2   88.68   15.77
  -2 -12  -2   77.39   14.56
   2 -12   2   61.10    6.76
   2 -12   3    2.98    2.23
  -2 -12   3    2.27    2.62
  -2 -12  -3    7.82    4.66
   2 -12   4   56.36    7.63
  -2 -12  -4   51.42   11.70
  -2 -12   4   58.26   13.50
   2 -12   5   20.30    4.86
  -2 -12   5   12.22    6.46
  -2 -12  -5   21.28    7.48
   2 -12   6   31.25    6.20
  -2 -12   6   43.87   12.28
  -2 -12  -6   28.12    8.79
  -2 -12   7  263.81   29.55
   2 -12   7  224.91   17.67
  -2 -12  -7  235.93   23.65
  -2 -12   8   17.20    8.99
   2 -12   8   26.26    6.40
  -2 -12  -8   36.69    9.69
   2 -12   9  120.71   19.90
   2 -12   9  123.41   14.10
  -2 -12  -9   87.22   14.69
  -2 -12   9   99.05   17.65
   2 -12  10   17.20    7.04
  -2 -12 -10   22.27    7.11
  -2 -12  10   15.70    7.11
   2 -12  10   24.31    6.96
   2 -12  11   31.39    9.98
  -2 -12 -11   35.82    8.68
   2 -12  11   46.86    9.59
   2 -12  12   18.02    6.76
  -2 -12  12   12.16    8.34
   2 -12  12    4.99    2.67
  -2 -12 -12    6.74    4.07
   2 -12  13  129.89   21.63
  -2 -12  13  112.86   21.16
   2 -12  13  140.74   17.13
  -2 -12 -13  103.60   14.72
   2 -12  14   -0.29    4.19
   2 -12  14   -0.75    3.44
  -2 -12  14    0.50    3.76
  -2 -12 -14    4.72    5.15
   2 -12 -15   57.22   11.55
  -2 -12  15   43.38   12.73
   2 -12  15   62.06   15.88
   2 -12  15   43.83   10.12
   2 -12  16    9.04    7.63
  -2 -12  16    4.20    4.74
   2 -12  16    1.04    1.68
   2 -12  17    7.87    4.49
   2 -12  17    0.69    5.80
  -2 -12  17    0.89    4.43
   2 -12  18   13.11    5.87
  -2 -12  18   19.90    8.66
   2 -12  19    9.68    4.73
   2 -12  19    7.50    6.71
  -2 -12  19    1.58    4.87
  -2 -12  20  104.68   21.17
   2 -12  20   57.63   13.57
   2 -12  20   74.26   17.15
   2 -12  21    7.13    6.02
   2 -12  21    1.54    5.25
  -2 -12  21    3.03    6.81
   2 -12  22    9.56    6.75
  -2 -12  22   13.20    6.81
   2 -12  22   17.22    7.77
  -2 -12  23    4.05    3.29
   2 -12  23    7.25    5.80
   2 -12  23    5.98    6.88
   2 -12  24   -4.79    5.85
   2 -12  24   22.84   11.07
  -2 -12  24   17.73    9.44
  -2 -12  25   10.97   10.09
   2 -12  25   11.92    9.18
   2 -12  25    7.44    6.03
   2 -12  26    2.13    3.84
   2 -12  26   11.27    6.89
  -2 -12  26    3.45    3.61
   2 -12  27    0.04    6.17
  -2 -12  27    2.81    7.70
   2 -12  27   13.35    9.64
   2 -12  28    9.53    7.47
  -2 -12  28    7.73    8.36
   2 -12  28   11.81    9.27
   2 -12  29   22.60   13.49
   2 -12  29   25.52   11.35
  -2 -12  29   30.69   13.44
   2 -12  30   -4.63    7.71
   2 -12  30    8.80    9.86
  -2 -12  30   10.51    8.70
   2 -12  31  695.62   65.36
  -2 -13   0   91.49   16.98
  -2 -13   1  131.87   20.93
  -2 -13  -1  153.65   21.75
  -2 -13  -2  105.94   17.97
  -2 -13   2  112.49   19.03
  -2 -13  -3   58.66   13.12
  -2 -13   3   58.02   13.64
  -2 -13   4   13.01    8.08
  -2 -13  -4   19.44    7.87
  -2 -13   5   24.07    8.53
  -2 -13  -5   35.86   10.34
   2 -13   5   27.78   10.06
   2 -13   6   -2.02    6.50
  -2 -13   6    9.31    5.40
  -2 -13  -6    2.40    3.80
   2 -13   7  133.38   21.94
  -2 -13   7  103.92   19.22
  -2 -13  -7  109.11   17.28
  -2 -13   8   88.97   18.69
   2 -13   8   77.52   10.81
  -2 -13  -8   79.64   14.94
   2 -13   8   81.82   17.65
   2 -13   9   50.45   13.42
   2 -13   9   76.37   11.09
  -2 -13  -9   59.73   12.66
  -2 -13   9   76.04   17.90
  -2 -13 -10   15.24    6.12
   2 -13  10   24.03    8.31
  -2 -13  10   15.93    8.31
   2 -13  10   22.24    6.11
   2 -13 -11    5.75    5.13
  -2 -13  11    1.27    3.47
  -2 -13 -11    2.16    4.67
   2 -13  11   -2.99    3.52
   2 -13  11    2.27    5.16
   2 -13  12   -0.23    2.72
  -2 -13 -12    2.75    3.75
  -2 -13  12    6.19    6.57
   2 -13  12    1.52    3.64
   2 -13 -12    7.42    5.52
   2 -13  13   -0.02    2.93
  -2 -13 -13   -0.43    3.79
  -2 -13  13   -3.05    5.19
   2 -13 -13    3.60    2.54
   2 -13  13    9.45    9.04
   2 -13  14    5.60    7.53
  -2 -13  14    6.52    5.74
   2 -13 -14    3.44    3.56
   2 -13  14   11.18    5.52
   2 -13  15   43.84   13.40
  -2 -13  15   45.05   14.10
   2 -13  15   42.55   10.41
   2 -13  16   17.43    9.18
   2 -13  16   12.25    6.57
  -2 -13  16   18.52    9.12
   2 -13  17   21.86    9.76
   2 -13  17   33.26    9.44
  -2 -13  17   24.73   11.16
   2 -13  18   13.56    5.69
   2 -13  18   22.32   10.77
  -2 -13  18   33.04   13.24
   2 -13  19   14.86    7.16
  -2 -13  19    3.82    4.25
   2 -13  19   14.19    8.83
   2 -13  20    0.53    4.55
   2 -13  20    9.65    8.77
  -2 -13  20   -4.54    6.79
   2 -13  21  168.64   27.94
  -2 -13  21  206.24   32.37
   2 -13  21  158.00   22.89
   2 -13  22   20.72   11.10
  -2 -13  22    9.67    6.78
   2 -13  22    4.69    5.20
   2 -13  23   63.63   16.00
   2 -13  23   71.60   17.82
  -2 -13  23   87.84   21.04
  -2 -13  24  104.51   23.60
   2 -13  24  114.83   21.54
   2 -13  24  100.33   21.70
   2 -13  25   13.51   10.65
   2 -13  25   14.16    9.76
  -2 -13  25   18.07   10.65
   2 -13  26   -1.00    6.87
  -2 -13  26   -1.13    5.10
   2 -13  26   11.27    7.31
   2 -13  27   14.35    9.96
   2 -13  27   15.45   10.21
  -2 -13  27   14.13    8.10
   2 -13  28   12.76   11.46
   2 -13  28   14.15   10.41
   2 -13  29   42.22   13.90
  -2 -14   0   24.32    8.66
   2 -14   0   40.11   12.88
   2 -14   1   98.86   18.80
   2 -14  -1  110.73   19.89
  -2 -14   1   90.15   17.94
  -2 -14  -1   88.17   16.83
   2 -14   2   -0.33    3.63
  -2 -14   2   -2.64    5.55
  -2 -14  -2    4.48    6.37
   2 -14  -2    8.98    6.73
   2 -14   3   26.88   11.04
  -2 -14  -3   12.04    6.45
  -2 -14   3    7.04    6.37
   2 -14  -4   75.62   16.21
   2 -14   4   66.27   16.78
  -2 -14   4   22.05    8.77
  -2 -14  -4   59.28   13.11
  -2 -14   5    3.81    4.91
   2 -14   5   -5.81    6.82
  -2 -14  -5    2.10    2.09
   2 -14  -5    6.12    6.51
  -2 -14  -6   38.17   10.60
   2 -14   6   33.98   13.04
  -2 -14   6   49.93   13.88
   2 -14  -6   36.63   11.81
   2 -14   7    7.43    4.68
   2 -14  -7    8.99    4.72
  -2 -14  -7    5.87    4.48
  -2 -14   7   14.66    8.16
   2 -14   8   -1.73    4.35
  -2 -14  -8    5.11    5.44
   2 -14  -8    3.94    6.14
  -2 -14   8   -1.70    5.16
   2 -14   9   63.37   16.36
  -2 -14  -9   80.22   15.63
   2 -14  -9   43.94   11.90
  -2 -14   9   48.43   13.64
   2 -14  10    5.67    6.88
  -2 -14 -10    1.74    2.28
   2 -14 -10   -4.26    5.11
  -2 -14  10    7.19    8.64
   2 -14 -11   12.29    7.95
  -2 -14  11    5.41    5.71
  -2 -14 -11    3.61    3.71
   2 -14  11    4.32    4.25
   2 -14 -12   -2.93    2.34
   2 -14  12    1.34    2.52
  -2 -14  12    6.70    8.00
   2 -14  13   48.37   14.96
  -2 -14  13   54.37   15.93
   2 -14 -13   81.84   15.01
   2 -14  14    3.28    7.05
  -2 -14  14   -0.76    4.42
   2 -14  15   22.95   10.81
  -2 -14  15   32.24   13.32
   2 -14  16   24.37    9.12
  -2 -14  16   26.00   11.82
   2 -14  17   20.30   11.69
  -2 -14  17   22.12   11.44
  -2 -14  18   21.92   12.07
   2 -14  18   49.34   15.40
  -2 -14  19    6.44    7.55
   2 -14  19    4.40    6.28
   2 -14  20   -5.42    9.33
  -2 -14  20    0.42    6.09
  -2 -14  21   88.97   22.13
   2 -14  21   40.00   14.26
  -2 -14  22   15.95    9.55
   2 -14  22   31.60   13.39
  -2 -14  23   10.96    9.55
   2 -14  23   21.33   10.72
   2 -14  24   17.48    9.65
  -2 -14  24   16.05   10.87
   2 -14  25   19.91   10.55
  -2 -15   0  101.39   19.68
   2 -15   0   85.74   19.43
   2 -15   1  323.29   36.56
   2 -15  -1  329.84   36.70
  -2 -15   1  342.89   36.23
  -2 -15  -1  345.12   35.85
   2 -15  -2   10.58    5.00
  -2 -15  -2   17.28    7.69
   2 -15  -3   87.00   18.14
   2 -15   3   89.34   19.25
  -2 -15   3   85.37   18.72
  -2 -15  -3   81.71   17.41
   2 -15  -4   11.46    7.73
   2 -15   4   34.81   12.10
  -2 -15   4   20.59    9.22
  -2 -15  -4   20.98    9.22
   2 -15   5   48.96   14.79
   2 -15  -5   34.16   11.74
  -2 -15  -5   20.40    8.71
  -2 -15   5   38.94   13.11
  -2 -15  -6   37.70   12.27
   2 -15  -6   36.85   11.72
  -2 -15   6   36.74   13.42
   2 -15   6   19.66    8.15
  -2 -15  -7   65.34   15.15
   2 -15  -7   49.68   13.41
   2 -15   7   59.72   16.98
  -2 -15   7   74.49   18.17
  -2 -15  -8   13.96    7.48
   2 -15  -8    7.84    5.88
   2 -15   8    7.59    7.22
  -2 -15   8    7.98    7.06
   2 -15  -9   67.52   15.68
   2 -15   9   41.48   13.04
  -2 -15  -9   42.95   11.79
  -2 -15   9   65.68   17.35
   2 -15 -10    1.94    4.64
   2 -15  10   -0.89    2.79
  -2 -15  10    5.46    5.87
  -2 -15 -10    1.94    2.52
   2 -15  11   24.25   11.38
   2 -15 -11   41.07   12.29
  -2 -15  11   20.64   10.72
   2 -15 -12   21.23    8.29
   2 -15  12   30.58   12.15
  -2 -15  12   25.26   11.24
   2 -15  13   22.75   12.17
  -2 -15  13   46.62   16.34
  -2 -15  14   -0.17    6.22
   2 -15  14    2.73    5.43
   2 -15  15    7.61   10.43
  -2 -15  15    2.82    7.14
  -2 -15  16    6.91    6.30
   2 -15  16    0.13    2.70
  -2 -15  17   60.12   17.05
   2 -15  17  102.10   22.65
   2 -15  18    7.00    6.73
  -2 -15  18    0.81    6.64
   2 -15  19   90.53   20.94
  -2 -15  19   77.21   20.34
  -2 -15  20   -2.18    3.94
   2 -15  20   -6.90    9.78
  -2 -15  21   72.26   19.98
   2 -15  21  112.06   24.70
   2 -16   0   17.82    6.85
  -2 -16   0    6.02    5.30
   2 -16  -1    6.97    7.36
   2 -16   1    9.60    6.17
  -2 -16   1   20.76   10.16
  -2 -16  -1    9.25    7.48
  -2 -16   2   56.51   15.78
  -2 -16  -2   57.94   15.54
   2 -16  -2   81.32   18.77
   2 -16   2   61.14   16.66
  -2 -16   3    2.39    5.29
   2 -16  -3    2.55    3.69
   2 -16   3    2.63    5.97
  -2 -16  -3    1.99    4.56
   2 -16  -4    3.98    2.72
   2 -16   4   -4.02    6.29
  -2 -16   4    2.43    6.28
  -2 -16  -4   -2.36    4.98
   2 -16  -5   -1.31    5.87
   2 -16   5   -4.73    5.01
  -2 -16   5    8.37    6.69
  -2 -16  -5    3.21    6.15
   2 -16  -6    8.27    6.51
  -2 -16   6    4.26    5.95
  -2 -16  -6    3.77    5.55
   2 -16   6    3.78    5.77
   2 -16  -7    4.05    4.59
  -2 -16  -7    1.23    2.00
   2 -16   7   -1.36    3.52
  -2 -16   7   12.11   10.20
   2 -16  -8  117.39   21.48
   2 -16   8  128.41   24.96
  -2 -16   8  112.61   22.84
  -2 -16  -8   73.37   17.00
   2 -16  -9   46.35   14.18
   2 -16   9   26.74   11.13
  -2 -16   9   19.11   11.25
  -2 -16  -9   11.18    6.33
   2 -16  10    1.86    4.07
  -2 -16  10   11.20    7.78
   2 -16 -10    5.95    5.75
   2 -16  11   -9.23    9.27
  -2 -16  11   -4.12    5.19
  -2 -16  12   36.92   14.15
   2 -16  12   38.02   15.95
  -2 -16  13   39.90   15.34
   2 -16  13   59.88   18.18
  -2 -16  14    6.14    3.76
   2 -16  14   17.01    9.27
  -2 -16  15   11.85    8.20
   2 -16  15   15.94   11.44
   2 -16  16   11.01    6.75
  -2 -16  16   18.06   10.18
  -2 -16  17    6.63    5.06
   2 -16  17   12.53   10.59
   2 -16  18   15.01    8.40
   2 -17   0   24.55   13.07
  -2 -17   0   12.17    8.83
  -2 -17  -1   77.61   20.06
   2 -17   1   73.29   19.09
  -2 -17   1   77.61   19.00
   2 -17  -1   71.47   18.90
   2 -17  -2   -6.50    8.00
  -2 -17  -2   -2.61    5.80
  -2 -17   2   -7.27    7.76
   2 -17   2    8.62    7.95
  -2 -17  -3   95.11   20.92
   2 -17  -3  141.13   25.58
   2 -17   3  152.24   28.08
  -2 -17   3  123.88   24.18
   2 -17  -4    8.60    5.43
   2 -17   4   -7.62    8.70
  -2 -17   4    6.31    7.40
  -2 -17  -4    4.35    7.15
   2 -17   5   43.67   15.41
   2 -17  -5   63.00   17.03
  -2 -17   5   50.58   16.19
  -2 -17  -5   47.55   14.88
  -2 -17  -6    8.09    7.08
  -2 -17   6    2.79    5.08
   2 -17   6  -10.17   10.05
   2 -17  -6    1.58    2.55
  -2 -17   7   28.72   11.75
   2 -17   7   46.31   15.33
   2 -17  -7   64.28   16.07
  -2 -17  -7   23.33   10.37
   2 -17  -8    8.08    5.07
  -2 -17   8    2.94    7.16
   2 -17   8    7.89    9.49
  -2 -17   9    0.33    3.26
   2 -17   9   -1.57    5.84
   2 -17  -9    6.48    5.75
  -2 -17  10   -5.36    3.65
   2 -17  10   15.21   10.14
  -2 -17  11    5.94    3.66
   2 -17  11   -0.54    4.07
   2 -17  12   -0.49    5.13
  -2 -17  12    6.85    7.72
  -2 -17  13   -4.27    6.57
   2 -17  13   -4.63    7.84
  -2 -18   0   55.99   16.78
   2 -18   0   72.04   19.58
   2 -18   1   27.52   13.10
   2 -18  -1   33.14   12.79
  -2 -18   1    7.70    7.24
  -2 -18  -1   44.94   16.10
  -2 -18  -2   15.48    8.39
   2 -18   2    9.84    8.42
   2 -18  -2   28.58   14.19
  -2 -18   2    4.45    5.01
   2 -18   3   49.19   17.28
  -2 -18   3   24.11   13.93
   2 -18  -3   62.71   18.41
  -2 -18  -3   19.34   11.39
   2 -18   4   -3.98    8.38
   2 -18  -4   -7.07    6.97
  -2 -18   4   -1.91    6.52
  -2 -18  -4   -3.27    7.45
  -2 -18   5   10.62    6.54
   2 -18   5   10.09    7.16
   2 -18  -5   12.03    7.21
  -2 -18  -5   27.28   11.57
  -2 -18   6   39.56   14.27
   2 -18   6   36.19   16.42
   2 -18  -6   19.92   10.80
  -2 -18   7   -4.66    3.54
   2 -18  -7   -6.94    5.93
   2 -18   8   20.91   11.68
  -2 -18   8    6.72    8.18
  -2 -19   0    5.58    5.13
   2 -19   0   26.13   13.83
   2 -19  -1  154.73   30.16
   2 -19   1  135.42   27.94
  -2 -19   1  161.59   29.46
  -2 -19  -1  187.16   32.70
  -2 -19  -2   12.80    8.96
   2 -19  -2   -0.64    5.84
   2 -19  -3   37.10   14.02
  -2 -19  -3   17.99   10.16
  -2 -19  -4    6.65    8.45
   2 -19  -4    7.11    9.26
   2 -19  -5   39.26   15.73
   3   0   0    1.27    2.03
  -3   0   0   -3.07    1.94
   3   0   1   -0.12    0.77
   3   0  -1    1.42    1.41
   3   0  -2  122.08   11.88
  -3   0   2  125.80   12.49
  -3   0  -2  138.54   12.93
   3   0   3    0.26    0.63
  -3   0  -3    0.96    1.65
   3   0  -3   -0.81    1.23
  -3   0   3   -1.87    2.93
   3   0  -4  106.45   11.42
  -3   0  -4  110.13   11.38
   3   0   4  108.68   11.70
  -3   0   4  129.28   12.93
   3   0  -5    0.22    1.35
  -3   0   5   -1.33    2.47
   3   0   5   -1.23    1.84
  -3   0  -5   -2.59    2.38
   3   0  -6    3.73    2.08
   3   0   6   -1.13    1.97
  -3   0  -6    1.50    1.75
  -3   0   6    2.90    3.21
   3   0   7    0.84    1.18
  -3   0   7   -0.23    2.37
   3   0  -7   -0.85    1.47
   3   0   8  433.40   23.67
  -3   0   8  372.82   22.91
   3   0  -8  390.23   22.13
   3   0  -9    1.57    1.97
   3   0   9   -0.79    1.17
  -3   0   9   -0.44    2.29
  -3   0  10 1308.81   44.57
   3   0  10 1379.26   42.68
   3   0 -10 1371.79   42.05
   3   0 -10 1369.80   45.79
   3   0  11   -2.10    1.58
   3   0 -11   -1.05    1.87
   3   0  11   -0.20    2.30
  -3   0  11   -0.01    2.76
   3   0  12  356.52   23.93
   3   0  12  369.92   22.61
   3   0 -12  376.08   22.39
  -3   0  12  342.62   23.83
  -3   0  13    1.44    3.30
   3   0  13   -0.20    0.95
   3   0 -13    0.48    2.07
   3   0  13    4.42    2.46
  -3   0  14  164.30   17.16
   3   0  14  132.28   15.14
   3   0  14  137.76   14.16
   3   0 -14  123.58   13.09
  -3   0  15    0.71    1.59
   3   0 -15    0.08    1.13
   3   0  15   -0.54    1.03
   3   0  15   -0.27    2.14
   3   0  16   90.38   12.93
  -3   0  16   80.76   12.39
   3   0  16   82.18   11.44
   3   0 -16   54.66    8.94
   3   0  17   -0.41    0.97
   3   0 -17    1.63    1.97
   3   0  17    0.57    2.22
  -3   0  17   -4.03    3.70
  -3   0  18  158.93   18.05
   3   0 -18  137.21   14.27
   3   0  18  150.33   15.45
   3   0  18  148.25   17.37
   3   0  19    1.73    3.04
   3   0  19   -4.06    3.56
  -3   0  19   -2.43    2.43
  -3   0  20   14.04    4.89
   3   0  20   13.88    5.85
   3   0  20    4.99    2.14
  -3   0  21    4.80    4.14
   3   0  21   -2.14    3.14
   3   0  21   -1.95    2.31
   3   0  21    0.86    1.40
   3   0  22   15.84    4.31
  -3   0  22   10.64    4.80
   3   0  22   -0.73    1.75
   3   0  22   17.73    6.66
   3   0  23   -1.94    1.67
   3   0  23   -1.09    2.05
   3   0  24    5.56    2.59
  -3   0  24    0.29    3.65
   3   0  24    5.38    4.46
  -3   0  25    6.43    4.72
   3   0  25    3.78    4.60
   3   0  25    2.67    2.04
   3   0  26   31.38   10.30
  -3   0  26   29.88    8.86
   3   0  27   -2.48    3.79
  -3   0  27    9.07    6.24
   3   0  28   12.63    5.88
   3   0  29    0.73    3.57
   3   0  30   46.39   13.03
   3   0  31    8.37    6.68
   3   0  32   46.64   13.19
   3   0  33    1.40    4.76
   3   0  34    0.11    5.30
   3   0  35   -4.44    4.58
   3   0  36   -5.54    7.31
   3   0  37   35.03   15.75
   3   1   0    1.02    1.38
  -3   1   0    0.25    1.04
   3  -1   0   -0.02    1.67
  -3  -1   0   -1.29    2.23
   3   1  -1  336.15   19.18
  -3  -1   1  299.39   18.74
  -3   1   1  334.91   20.66
  -3  -1  -1  307.59   19.31
  -3   1  -1  332.01   20.26
   3  -1  -1  344.73   20.97
   3  -1   1  298.73   19.92
   3  -1   2  658.45   30.06
  -3  -1   2  626.38   27.43
  -3  -1  -2  618.02   26.28
  -3   1  -2  562.17   26.94
   3  -1  -2  598.60   27.74
   3   1  -2  626.62   26.41
  -3   1   2  596.99   27.36
  -3  -1   3  890.86   33.78
  -3   1  -3  899.68   33.44
   3   1   3  871.41   30.06
   3  -1  -3  872.73   33.27
   3   1  -3  848.94   31.01
  -3  -1  -3  878.16   31.13
  -3   1   3  906.72   33.98
   3   1   4   36.28    6.42
  -3  -1   4   23.82    5.12
   3   1  -4   45.77    7.26
  -3   1  -4   40.09    7.56
  -3   1   4   43.62    7.39
  -3  -1  -4   38.82    6.78
   3  -1  -4   35.51    7.09
  -3  -1   5  256.07   18.56
  -3  -1  -5  296.20   17.91
   3  -1  -5  255.26   18.29
   3   1   5  289.28   17.29
   3  -1   5  264.77   19.21
  -3   1   5  231.84   17.46
   3   1  -5  272.80   17.91
  -3   1   6  111.32   12.14
  -3  -1  -6   99.16   10.40
   3  -1  -6  115.02   12.21
   3   1   6  141.98   12.20
   3  -1   6  124.51   13.15
   3   1  -6  104.68   11.34
  -3  -1   6  125.20   13.19
  -3  -1   7  147.75   14.35
   3  -1  -7  139.16   13.54
  -3  -1  -7  127.52   12.12
   3   1   7  146.38   12.35
   3   1  -7  164.54   14.30
  -3   1   7  154.10   14.60
   3  -1   7  131.78   13.47
  -3   1   8    6.15    2.85
   3   1   8    6.89    2.84
  -3  -1  -8    4.30    2.60
   3  -1  -8    7.00    3.80
   3  -1   8    7.11    3.26
  -3  -1   8    2.38    2.22
   3   1  -8    8.15    3.51
   3   1  -9 1061.77   39.35
  -3   1   9 1016.36   38.09
   3  -1  -9 1049.86   36.54
   3   1   9 1077.28   33.74
   3   1  -9 1071.19   37.23
   3  -1   9 1073.15   39.02
  -3  -1   9 1065.10   40.24
   3  -1 -10  844.30   36.21
  -3  -1  10  863.64   36.88
   3  -1  10  802.41   33.90
   3   1 -10  900.06   34.54
   3   1  10  874.79   30.31
  -3   1  10  792.06   34.42
   3  -1 -10  813.82   32.58
   3   1  10  846.09   35.18
   3  -1  11 3039.64   69.52
  -3   1  11 3184.33   70.35
   3   1 -11 3239.84   66.67
  -3  -1  11 3284.25   72.73
   3   1  11 3319.75   69.96
   3   1  11 3361.04   59.88
   3  -1 -11 3144.61   63.93
   3  -1  11 3207.67   69.07
   3  -1 -12  614.88   28.58
   3  -1  12  584.20   30.00
   3   1  12  591.11   25.57
  -3   1  12  595.40   30.91
   3   1 -12  583.78   28.89
   3  -1  12  594.50   31.40
   3   1  12  519.74   28.13
  -3  -1  12  588.75   31.64
   3  -1  13  753.39   34.63
  -3  -1  13  770.07   36.79
  -3   1  13  726.71   34.48
   3   1  13  735.95   34.15
   3  -1  13  716.04   35.03
   3   1  13  758.78   29.42
   3   1 -13  718.47   32.21
   3  -1 -13  729.43   31.18
  -3  -1  14    8.91    3.56
   3  -1 -14   25.05    5.53
   3   1 -14   17.19    5.43
   3   1  14    7.33    3.29
   3  -1  14   13.75    4.57
   3   1  14   20.13    5.33
  -3   1  14   11.80    4.44
   3  -1  15   54.66   10.16
   3   1  15   86.49   12.37
  -3   1  15   55.36   10.03
   3   1 -15   55.99    9.49
  -3  -1  15   58.19   10.80
   3  -1 -15   51.57    8.18
   3   1  15   56.16    8.06
   3   1  16   44.15    7.35
  -3   1  16   34.21    7.86
   3   1  16   51.59    9.74
   3  -1 -16   34.51    6.89
   3  -1  16   44.84    8.99
  -3  -1  16   51.74    9.99
   3   1  17  238.58   16.98
   3  -1  17  266.93   22.84
  -3   1  17  237.08   20.98
   3  -1 -17  241.08   18.43
  -3  -1  17  229.36   21.34
   3   1  17  246.80   21.51
   3   1  18    3.06    2.82
   3  -1  18    4.22    3.39
   3   1  18    2.64    2.65
  -3  -1  18   -1.17    2.33
   3  -1 -18    1.61    2.31
  -3   1  18   -2.20    3.19
  -3  -1  19   82.13   13.22
   3  -1  19   76.15   12.53
  -3   1  19   84.60   13.25
   3  -1 -19   73.39   10.52
   3   1  19   71.85   11.98
   3   1  19   80.43   10.00
   3   1  20   26.17    8.31
   3   1  20   18.19    4.93
   3  -1  20   12.77    5.28
   3  -1  20   19.14    6.22
   3   1  20   16.09    3.16
  -3  -1  20   15.98    6.48
   3  -1 -20   21.67    5.78
  -3   1  20   17.50    6.49
   3   1  21   -1.03    0.81
   3  -1  21    2.94    3.04
  -3  -1  21    0.27    1.84
   3   1  21    6.80    4.42
   3  -1 -21    5.60    3.39
  -3   1  21    3.32    1.90
   3  -1  21    3.76    2.27
   3  -1  21   -0.53    2.05
   3   1  21    2.69    2.26
   3  -1  22   17.04    5.11
   3   1  22   19.08    3.49
   3  -1  22   15.53    5.56
  -3  -1  22   30.28    9.03
   3   1  22   21.41    5.28
  -3   1  22   17.94    6.47
   3  -1  22   13.42    6.41
   3   1  22   14.16    5.67
   3  -1  23    1.79    2.97
   3  -1  23    6.11    2.99
  -3  -1  23   -1.85    3.93
   3   1  23    4.60    1.57
  -3   1  23    7.38    5.10
   3   1  23    3.88    2.78
   3  -1  24    2.07    4.64
  -3   1  24   -0.19    2.29
   3   1  24    0.74    1.08
   3   1  24    5.59    4.74
   3  -1  24    1.23    2.14
  -3  -1  24   -1.13    2.84
  -3   1  25   16.29    6.62
   3   1  25   33.66   10.08
   3  -1  25   35.23    6.90
   3  -1  25   35.54   10.05
  -3  -1  25   24.49    8.85
  -3   1  26    6.55    3.69
   3  -1  26    5.97    6.51
  -3  -1  26   12.82    7.07
   3  -1  26    8.76    4.10
   3   1  26   13.16    6.09
   3  -1  27  116.68   19.09
  -3   1  27   79.51   14.18
  -3  -1  27   96.14   16.39
   3   1  27  111.36   18.71
   3  -1  28   -3.93    5.05
  -3  -1  28    8.43    6.56
   3   1  28    6.19    4.53
   3  -1  29  134.48   20.93
   3   1  29  112.68   18.75
   3  -1  30    9.57    7.42
   3   1  30    8.76    4.10
   3  -1  31   95.56   19.60
   3   1  31  118.47   20.75
   3   1  32   90.57   19.56
   3  -1  32  331.97   43.92
   3  -1  33  215.37   29.24
   3   1  33  255.91   31.85
   3  -1  34   60.15   15.79
   3   1  34   45.45   14.38
   3  -1  35  153.27   26.74
   3   1  35  142.00   25.47
   3   1  36   12.44    8.96
   3  -1  36    4.44    4.73
   3   1  37   38.57   13.71
  -3   2   0    1.07    3.37
  -3  -2   0    1.54    2.04
   3   2   0   -0.04    0.58
   3  -2   0    4.19    3.52
  -3  -2   1  656.91   28.27
   3  -2   1  733.48   33.12
   3   2  -1  698.21   27.57
  -3   2   1  682.43   30.91
  -3  -2  -1  700.88   28.62
   3  -2  -1  737.21   32.93
   3   2  -2   13.56    3.73
   3   2   2    6.69    2.66
  -3  -2   2    4.46    2.05
   3  -2   2   10.59    4.39
  -3   2   2    8.35    3.46
   3  -2  -2   14.36    4.85
  -3  -2  -2   10.60    3.77
  -3  -2  -3  321.82   18.83
  -3  -2   3  290.56   20.23
  -3   2   3  317.25   21.08
   3  -2   3  313.66   21.54
   3  -2  -3  309.17   21.11
   3   2   3  333.71   18.05
   3   2  -3  316.29   19.15
   3   2  -4 1722.56   45.27
  -3  -2  -4 1755.70   43.57
   3  -2  -4 1761.79   50.65
  -3   2   4 1746.26   49.22
  -3  -2   4 1754.51   49.54
   3   2   4 1824.42   41.98
   3   2   5  485.41   21.35
  -3  -2  -5  480.06   22.34
   3  -2  -5  463.86   25.80
   3   2  -5  450.00   23.33
  -3  -2   5  469.54   25.52
  -3   2   5  483.80   25.74
   3   2   6  520.67   22.13
  -3   2   6  516.56   27.10
   3  -2  -6  493.25   26.57
  -3  -2  -6  509.04   22.73
   3   2  -6  530.20   26.04
   3  -2   6  551.40   29.41
  -3  -2   6  515.83   27.28
   3   2   7 1161.84   32.92
  -3   2   7 1138.25   40.68
  -3  -2  -7 1111.03   33.68
  -3  -2   7 1099.17   40.36
   3  -2  -7 1121.07   40.34
   3   2  -7 1114.03   38.30
   3   2   8  528.70   21.91
   3  -2  -8  544.18   27.60
   3   2  -8  537.28   27.07
  -3  -2  -8  544.89   23.63
  -3   2   8  514.53   27.27
  -3  -2   8  548.06   29.03
   3   2   9   36.25    5.69
   3  -2  -9   37.33    7.19
  -3  -2   9   49.52    8.63
  -3  -2  -9   35.32    6.22
  -3   2   9   41.48    7.70
   3   2  -9   48.04    7.90
  -3  -2  10    1.07    1.38
   3  -2 -10    1.39    1.76
   3  -2 -10    6.03    3.13
   3   2  10    4.80    2.70
   3   2 -10    3.26    2.10
   3   2  10    4.71    2.19
   3  -2  10    9.90    4.30
  -3   2  10    7.76    3.68
  -3  -2 -10    7.81    2.72
   3  -2  11  185.47   17.68
   3   2  11  199.98   13.07
   3   2 -11  167.06   15.56
   3   2  11  187.73   16.60
  -3   2  11  141.52   14.81
   3  -2 -11  160.59   14.80
  -3  -2  11  169.75   16.90
   3   2  12  158.72   11.48
   3   2  12  185.52   16.40
   3  -2 -12  180.68   15.68
   3   2 -12  167.52   16.03
   3  -2  12  174.81   17.42
  -3   2  12  176.24   16.48
  -3  -2  12  167.12   16.98
   3   2  13   52.68    6.44
  -3   2  13   49.82    9.08
   3  -2 -13   54.64    8.84
   3  -2  13   59.42   10.36
   3   2  13   69.91   10.17
  -3  -2  13   55.84   10.13
   3   2  14  208.04   12.89
  -3   2  14  233.27   19.61
   3  -2  14  216.88   19.87
   3  -2 -14  234.43   17.85
  -3  -2  14  239.08   21.43
   3   2  14  223.14   19.04
   3   2  15  373.31   17.17
   3  -2  15  402.37   27.71
  -3   2  15  420.13   26.82
   3   2  15  386.27   25.51
   3  -2 -15  429.87   24.21
  -3  -2  15  382.12   27.56
   3   2  16  220.40   19.56
   3  -2 -16  189.06   15.81
   3   2  16  207.72   12.47
  -3   2  16  189.47   18.21
  -3  -2  16  184.28   19.56
   3  -2  16  230.72   21.24
   3   2  17    2.65    1.45
  -3  -2  17    1.18    1.15
  -3   2  17    2.96    2.50
   3   2  17   -1.24    1.37
   3  -2  17    4.53    2.95
   3  -2 -17    3.03    2.77
   3   2  18    1.70    2.22
   3  -2 -18    2.73    2.57
  -3  -2  18    0.54    2.30
   3   2  18   -0.51    0.79
   3  -2  18   -0.92    2.97
   3   2  19  148.14    7.41
   3   2  19  190.99   19.43
  -3   2  19  177.58   18.47
   3  -2 -19  193.52   15.91
   3  -2  19  190.99   20.08
  -3  -2  19  172.89   19.62
   3   2  19  157.40    9.74
   3   2  20   35.07    4.10
  -3  -2  20   53.12   10.96
   3   2  20   31.29    3.20
  -3   2  20   37.17    8.66
   3  -2 -20   35.52    6.39
   3   2  20   36.86    9.05
   3  -2  20   45.03   10.20
  -3  -2  21   11.73    6.13
  -3   2  21    3.44    2.52
   3  -2 -21    3.71    2.86
   3  -2  21    2.92    3.72
   3   2  21    3.77    4.31
  -3  -2  22   42.17   10.86
   3  -2  22   55.93    9.06
  -3   2  22   34.08    8.46
   3  -2  22   36.57    9.93
   3   2  22   48.91   10.60
   3  -2  23   58.87   12.92
   3  -2  23   40.91    7.90
  -3  -2  23   52.92   11.96
   3   2  23   54.40   11.52
  -3   2  23   49.64   10.76
   3  -2  24   16.98    7.00
  -3  -2  24    3.32    2.09
   3   2  24   15.70    7.31
   3  -2  24   11.51    4.35
  -3   2  24    3.69    3.70
  -3   2  25    1.04    3.28
   3  -2  25    0.62    1.54
  -3  -2  25    2.52    2.97
   3  -2  25   -0.19    1.82
  -3   2  26   20.35    7.61
   3  -2  26   26.38    6.67
  -3  -2  26   26.92    9.42
   3  -2  26   29.63   10.16
   3   2  26   35.57    9.59
   3  -2  27    8.96    5.03
  -3  -2  27   17.27    7.75
   3   2  27   17.81    7.32
   3   2  28   60.48   14.10
  -3  -2  28   53.77   14.20
   3  -2  28   78.82   16.53
  -3  -2  29   71.50   15.95
   3  -2  29   65.30   15.52
   3   2  29   36.16   11.47
   3  -2  30   24.71   11.12
   3   2  30   12.00    7.57
   3  -2  31    2.68    3.09
   3   2  31    4.81    5.06
   3   2  32   17.59    7.05
   3  -2  32   18.36    9.91
   3  -2  33   29.92   11.09
   3   2  33   27.02   10.51
   3   2  34   -1.00    2.54
   3  -2  34    4.86    5.76
   3  -2  35    2.21    6.94
   3   2  35   -5.07    6.22
   3  -2  36    6.63    7.65
   3   2  36    8.05    7.21
   3   2  37    9.44    8.71
  -3  -3   0   -0.10    0.99
   3  -3   0    1.63    3.48
   3   3   0    0.12    0.88
   3  -3   1   91.32   12.91
   3  -3  -1  116.55   14.12
   3   3   1   97.67   10.04
  -3  -3   1  141.22   13.43
  -3  -3  -1  132.20   12.63
   3  -3   2 1260.51   45.32
  -3  -3  -2 1268.90   38.75
   3  -3  -2 1228.99   45.18
  -3  -3   2 1241.78   40.91
   3   3  -2 1244.56   38.32
   3   3   2 1390.53   38.13
  -3  -3   3   52.20    8.53
   3  -3  -3   47.26    8.80
   3   3  -3   45.81    7.66
  -3  -3  -3   59.38    8.24
   3   3   3   45.92    6.75
  -3  -3   4   15.44    4.99
  -3   3   4   29.30    7.03
   3  -3  -4   24.96    6.89
   3   3  -4   13.36    4.21
   3   3   4   20.16    4.06
  -3  -3  -4   27.08    5.33
  -3  -3  -5  320.02   18.71
   3   3  -5  314.40   20.68
  -3   3   5  286.47   20.73
  -3  -3   5  311.57   21.39
   3   3   5  307.48   16.96
   3  -3  -5  317.17   23.60
   3  -3  -6  210.06   18.46
  -3  -3  -6  169.48   13.36
   3   3  -6  200.76   16.52
   3   3   6  184.22   13.06
  -3  -3   6  202.21   17.83
  -3   3   6  184.19   16.58
   3   3  -7  261.82   18.48
   3   3   7  282.63   15.57
  -3  -3  -7  291.23   17.26
   3   3  -7  271.77   19.51
  -3   3   7  281.05   20.39
   3  -3  -7  253.38   19.96
  -3  -3   7  276.46   20.97
  -3  -3  -8    7.10    2.44
   3  -3  -8    1.57    1.33
   3   3  -8    5.78    2.65
  -3   3   8    6.55    3.00
   3   3  -8    6.23    2.98
  -3  -3   8    5.08    2.01
   3   3   8    3.77    1.51
   3   3  -9  153.73   15.16
   3  -3  -9  116.75   13.91
   3   3  -9  128.46   13.71
  -3   3   9  156.85   15.52
   3   3   9  131.70   10.09
  -3  -3  -9  130.33   11.08
  -3  -3   9  132.39   15.41
   3   3  10 1147.33   28.89
   3  -3 -10 1092.91   41.02
  -3   3  10 1069.35   40.64
   3  -3  10 1173.29   44.55
  -3  -3  10 1140.26   44.94
  -3  -3 -10 1149.67   32.93
   3   3  10 1172.25   38.87
  -3   3  11   12.73    5.54
   3  -3 -11    6.81    3.61
  -3  -3 -11    9.97    3.24
   3   3  11    4.40    2.59
   3   3  11    8.33    2.48
  -3  -3  11    3.33    2.33
   3  -3  11    3.12    2.26
   3  -3  12  856.21   38.38
   3  -3 -12  751.04   33.57
  -3  -3  12  808.30   39.55
  -3   3  12  794.99   35.78
   3   3  12  789.77   22.44
  -3  -3 -12  833.22   26.34
   3   3  12  766.33   32.69
   3  -3 -13  105.11   12.42
   3  -3  13   90.05   12.66
  -3  -3  13   95.45   13.62
  -3   3  13   89.38   12.01
   3   3  13   91.46   11.73
   3   3  13   92.70    7.28
  -3   3  14   41.96    8.45
   3   3  14   30.56    7.21
   3  -3 -14   39.39    7.61
   3   3  14   40.86    4.57
   3  -3  14   48.02    9.37
  -3  -3  14   49.08   10.02
   3  -3  15   39.45    8.89
   3  -3 -15   33.12    6.70
  -3   3  15   34.34    7.72
   3   3  15   29.68    7.20
   3   3  15   27.15    3.52
  -3  -3  15   52.61   10.20
   3  -3 -16    7.36    3.49
  -3   3  16   14.79    5.75
   3   3  16    6.85    1.49
  -3  -3  16   11.48    5.17
   3  -3  16    5.47    2.14
   3   3  16    7.82    4.31
   3  -3 -17  134.02   13.44
  -3  -3  17  151.78   18.49
   3  -3  17  143.56   17.72
   3   3  17  142.88   15.51
  -3   3  17  135.19   15.86
  -3   3  18   74.34   11.50
   3   3  18   93.65   13.15
   3  -3 -18   74.01    9.72
   3  -3  18   68.11   12.06
  -3  -3  18   94.72   14.86
  -3  -3  19   40.94    9.69
  -3   3  19   20.91    6.86
   3   3  19   26.96    7.42
   3  -3 -19   17.78    4.54
   3  -3  19   38.55    9.59
  -3  -3  20   -0.87    3.12
   3  -3 -20    4.44    2.92
  -3   3  20    1.27    2.41
   3   3  20    1.08    2.33
   3  -3  20    5.42    3.64
  -3   3  21   52.04   10.10
   3  -3 -21   43.84    7.18
  -3  -3  21   62.23   12.79
   3  -3  21   57.18   12.10
   3   3  21   53.78   10.65
  -3   3  22   79.16   12.61
   3  -3  22   41.56    8.40
  -3  -3  22   55.73   12.67
   3   3  22   48.72   11.14
   3  -3  22   44.52   11.40
   3  -3  23   92.80   12.49
  -3   3  23   95.61   13.65
   3  -3  23  113.08   18.16
  -3  -3  23   88.94   15.56
   3   3  23  130.39   17.77
   3  -3  24   15.82    6.14
   3   3  24   27.06    8.26
  -3  -3  24   16.51    7.85
   3  -3  24   12.89    4.51
  -3   3  24   18.09    6.63
   3  -3  25    5.92    4.63
   3   3  25   -0.02    2.61
  -3  -3  25    9.49    6.72
   3  -3  25   11.41    4.83
  -3   3  25   -0.39    2.77
   3   3  26   30.93    9.54
  -3  -3  26   26.06    9.24
   3  -3  26   32.18    8.05
   3  -3  26   34.95   10.80
  -3  -3  27   12.31    7.51
   3  -3  27    7.22    5.55
   3  -3  27   11.60    4.58
   3   3  27   10.02    5.95
   3   3  28   -0.49    2.22
   3  -3  28    2.60    3.22
  -3  -3  28    0.25    3.28
   3  -3  28    1.46    2.15
   3   3  29   36.42   11.27
  -3  -3  29   27.90    9.91
   3  -3  29   21.41    8.58
  -3  -3  30    3.47    2.99
   3   3  30    3.83    4.54
   3  -3  30    3.60    4.60
   3   3  31   40.37   12.04
   3  -3  31   42.86   13.26
   3  -3  32   23.06   10.43
   3   3  32   37.48   13.28
   3   3  33   17.16    9.63
   3  -3  33    8.04    8.09
   3   3  34   93.83   19.60
   3  -3  34  161.56   26.38
   3  -3  35   41.61   13.72
   3   3  35   42.07   13.83
   3   3  36    1.94    4.45
   3  -3  36    3.20    5.76
   3   3  37   47.31   15.16
  -3  -4   0   -0.78    1.09
   3   4   0    0.92    1.07
  -3  -4  -1   20.96    5.57
  -3  -4   1   21.67    6.24
   3  -4  -1   18.15    6.10
   3   4   1    8.69    3.02
   3  -4  -2  332.45   24.47
   3   4   2  308.70   18.40
  -3  -4  -2  362.43   21.29
  -3  -4   2  356.51   22.65
   3   4  -3  486.02   25.75
   3   4   3  536.65   23.93
   3  -4  -3  499.91   30.17
  -3  -4   3  519.08   27.79
  -3  -4  -3  481.52   24.32
   3   4   4  134.34   11.77
   3   4  -4  139.38   14.21
   3  -4  -4  144.23   16.24
  -3  -4   4  121.61   13.80
  -3  -4  -4  130.09   12.44
  -3  -4  -5   17.93    4.56
   3   4  -5   23.29    6.22
   3   4   5   19.62    4.41
  -3  -4   5   26.10    6.78
   3  -4  -5   19.39    6.73
   3   4   6   33.52    5.63
   3  -4  -6   37.31    8.51
   3   4  -6   25.44    5.43
  -3  -4  -6   31.91    6.39
  -3  -4   6   20.09    5.77
   3   4  -7  296.68   19.35
  -3  -4  -7  314.03   18.80
   3   4   7  353.92   17.77
  -3  -4   7  340.81   24.32
   3  -4  -7  368.77   26.18
  -3  -4  -8  225.63   15.42
   3  -4  -8  212.65   19.77
   3   4   8  247.26   14.31
  -3  -4   8  211.64   19.32
   3   4  -8  232.46   17.55
   3   4  -9  238.76   18.39
  -3  -4  -9  249.75   15.78
   3   4   9  263.11   14.14
  -3  -4   9  210.24   19.75
   3  -4  -9  246.35   20.98
   3   4   9  267.88   17.60
   3  -4 -10    6.58    4.51
   3  -4  10    6.38    4.11
  -3  -4 -10    1.57    1.02
   3   4  10    6.06    2.85
   3   4  10    0.76    1.06
  -3  -4  10    3.74    4.55
   3  -4 -11   -1.03    1.72
  -3  -4  11   -1.56    2.37
  -3  -4 -11    0.14    0.76
   3   4  11    2.61    1.38
   3  -4  11    0.67    2.12
   3   4  11    0.09    1.63
   3  -4  12   30.85    7.70
  -3   4  12   31.04    7.46
   3   4  12   32.18    4.23
  -3  -4 -12   35.89    5.61
   3  -4 -12   25.51    6.51
   3   4  12   39.12    6.97
  -3  -4  12   31.95    8.36
  -3   4  13   -1.20    0.93
   3  -4  13   -0.52    2.25
  -3  -4  13   -1.92    2.88
   3   4  13    1.75    1.13
  -3  -4 -13    1.42    1.39
   3  -4 -13   -3.11    2.93
   3   4  13   -0.09    1.54
  -3  -4  14    0.30    2.72
   3   4  14    2.35    1.10
  -3   4  14   -0.12    1.47
   3  -4 -14    0.49    1.83
   3   4  14    2.65    3.09
   3  -4  14    1.93    3.41
  -3  -4  15    2.50    2.38
   3  -4  15    1.04    1.52
  -3   4  15   -0.60    1.41
   3   4  15   -0.34    1.58
   3  -4 -15    5.76    3.79
  -3   4  16    4.93    2.68
   3   4  16    2.23    2.49
   3  -4 -16    4.69    3.19
   3  -4  16    4.35    3.98
  -3  -4  16    1.21    1.97
   3   4  17  117.50   14.15
  -3  -4  17   87.45   14.36
   3  -4  17  103.88   14.74
   3  -4 -17   95.03   11.55
  -3   4  17   91.94   12.50
  -3  -4  18  179.04   21.42
   3  -4 -18  140.48   13.68
   3   4  18  156.98   17.32
   3  -4  18  178.89   19.62
  -3   4  18  188.38   18.07
  -3  -4  19   12.53    5.77
   3  -4  19   11.23    4.10
  -3   4  19   14.83    5.18
   3   4  19   12.64    5.81
   3  -4 -19   10.41    3.46
  -3  -4  20   -0.95    1.47
   3  -4  20    6.62    5.09
  -3   4  20    3.16    3.79
   3   4  20   -1.41    2.26
   3  -4 -20   -0.35    1.79
   3   4  21   60.34   12.06
  -3  -4  21   61.05   12.81
   3  -4  21   65.10   12.98
  -3  -4  22   22.34    8.69
   3  -4  22   41.07    9.56
   3  -4  22   35.74   10.26
   3   4  22   43.88   10.48
  -3  -4  23   -5.23    4.38
   3   4  23   -0.90    2.58
   3  -4  23    4.10    4.53
   3  -4  23   -0.54    1.60
  -3  -4  24   16.92    7.18
   3  -4  24   11.29    6.74
   3   4  24   14.74    6.12
   3  -4  24   19.92    6.71
  -3  -4  25  136.28   20.13
   3  -4  25   79.29   13.23
   3   4  25   97.32   15.74
   3  -4  25  112.19   18.77
   3   4  26   11.06    5.49
  -3  -4  26   10.18    7.01
   3  -4  26   14.96    6.08
   3  -4  26    8.70    3.92
  -3  -4  27   15.70    8.15
   3   4  27    5.27    3.63
   3  -4  27   24.23    7.48
   3  -4  27    6.41    4.69
  -3  -4  28   -3.94    4.31
   3   4  28    1.59    3.24
   3  -4  28    0.02    1.47
   3  -4  28   -1.81    4.39
  -3  -4  29   45.44   12.76
   3   4  29   33.99   11.83
   3  -4  29   14.93    6.22
   3  -4  29   12.13    7.82
   3   4  30    7.94    4.84
  -3  -4  30   29.28   10.12
   3  -4  30   24.64    9.75
   3   4  31   -5.82    6.15
  -3  -4  31    5.44    5.06
   3  -4  31    1.43    4.28
   3  -4  32    9.03    7.29
   3   4  32    4.77    5.20
   3   4  33   -1.27    6.43
   3  -4  33    6.23    4.44
   3  -4  34    7.55    4.98
   3   4  34    2.45    3.63
   3  -4  35   -3.06    4.43
   3   4  35    2.62    3.33
   3   4  36   13.01    9.96
   3   4  37   45.85   15.25
   3   5   0    0.42    1.84
  -3  -5   0   -0.29    1.54
  -3  -5   1  170.50   16.14
  -3  -5  -1  127.27   13.52
   3   5   1  130.81   12.90
   3   5   2   34.36    6.22
  -3  -5  -2   48.03    8.34
   3  -5  -3  145.69   17.03
  -3  -5  -3  129.31   13.31
  -3  -5   3  137.81   15.01
   3   5   3  149.53   13.02
   3   5   4   51.54    7.82
  -3  -5   4   41.34    8.48
   3  -5  -4   48.90    9.58
  -3  -5  -4   50.59    8.11
   3   5  -5  545.92   24.58
  -3  -5  -5  595.20   28.07
   3   5   5  547.61   24.19
   3  -5  -5  584.75   35.09
  -3  -5   5  556.29   31.08
   3   5  -6    6.20    2.69
  -3  -5   6    6.95    4.37
   3   5   6   18.52    5.05
  -3  -5  -6    5.60    2.32
   3  -5  -6   10.38    4.44
  -3  -5   7    2.09    2.48
  -3  -5  -7   -0.57    1.55
   3   5  -7   -0.52    1.40
   3   5   7    1.14    1.83
   3  -5  -7   -0.49    1.80
   3   5  -8   70.72    9.96
   3  -5  -8   61.91   11.24
   3   5   8   61.35    7.62
   3   5   8   56.63    7.61
  -3  -5  -8   64.93    8.73
  -3  -5   8   79.99   12.26
  -3  -5  -9    9.29    3.49
   3   5   9    7.27    2.66
  -3  -5   9    6.82    4.94
   3   5   9    8.58    3.19
   3  -5   9   16.37    5.45
   3  -5  -9   12.54    5.73
  -3  -5 -10  495.11   23.06
   3   5  10  441.93   18.71
   3  -5  10  511.28   30.01
   3   5  10  484.55   23.19
  -3  -5  10  479.87   31.41
   3  -5 -10  485.03   27.90
   3  -5 -10  500.79   31.99
  -3  -5 -11 1392.01   37.74
   3   5  11 1424.16   31.70
   3  -5  11 1480.98   51.03
   3   5  11 1451.14   41.48
  -3  -5  11 1411.93   54.34
   3  -5 -11 1424.24   53.07
   3   5  12  825.77   22.77
   3  -5  12  866.79   39.99
  -3  -5 -12  912.50   29.66
   3  -5 -12  871.36   41.26
  -3  -5  12  857.60   42.95
   3   5  12  861.58   32.76
  -3  -5 -13   96.84    9.31
   3  -5 -13  106.71   14.28
  -3  -5  13  102.00   15.21
   3  -5  13   97.69   13.87
   3   5  13  107.88   11.86
   3   5  14    3.47    2.52
  -3  -5 -14    4.48    2.03
   3  -5  14    2.91    2.63
  -3  -5  14    8.29    3.64
   3  -5 -14    0.27    2.69
   3  -5 -15   11.12    4.27
   3   5  15   18.70    5.61
  -3  -5  15   16.86    7.07
   3  -5  15   21.35    7.15
   3  -5 -16   46.90    8.99
  -3  -5  16   48.96   11.14
   3  -5  16   55.33   10.92
   3   5  16   44.94    8.55
   3  -5 -17    4.20    3.09
   3  -5  17    6.42    4.58
  -3  -5  17   10.03    5.19
   3   5  17   16.44    5.92
   3  -5 -18   28.35    6.22
   3  -5  18   39.65    9.78
  -3  -5  18   50.12   11.65
   3   5  18   29.13    7.32
   3  -5 -19  175.97   15.36
  -3  -5  19  231.13   24.64
   3  -5  19  206.97   21.79
   3   5  19  234.88   21.05
   3   5  20   68.14   11.87
  -3  -5  20   91.06   15.94
   3  -5  20   79.44   14.34
  -3  -5  21  189.17   23.33
   3  -5  21  171.10   21.50
   3   5  21  214.46   21.34
   3   5  22   13.96    5.87
   3  -5  22   16.57    5.96
  -3  -5  22    1.71    2.86
   3  -5  22   13.08    6.13
   3  -5  23   56.56   13.33
   3  -5  23  104.28   14.89
  -3  -5  23   89.01   16.71
   3   5  23  106.51   16.07
   3  -5  24   12.03    4.73
  -3  -5  24   27.34   10.49
   3  -5  24   29.41    9.22
   3   5  24   13.77    6.10
  -3  -5  25    6.98    5.54
   3  -5  25    0.59    2.80
   3   5  25    1.61    2.99
   3  -5  25    5.93    5.53
   3   5  26   10.87    6.08
   3  -5  26   14.79    6.64
  -3  -5  26   34.22   11.55
   3  -5  26   14.84    8.11
   3   5  27   26.45    8.62
   3  -5  27   16.95    5.96
  -3  -5  27   21.04    9.04
   3  -5  27   27.89    9.97
  -3  -5  28   20.20    7.89
   3  -5  28   33.34   10.30
   3  -5  28   23.92    8.27
   3   5  28    7.83    6.14
   3   5  29    5.60    6.43
   3  -5  29    2.61    2.29
   3  -5  29    6.14    5.10
   3   5  30   47.76   13.23
   3  -5  30   75.38   16.63
  -3  -5  30   59.67   15.28
   3  -5  31   19.47    9.79
   3   5  31   22.94   10.23
  -3  -5  31   22.26    9.52
   3  -5  32   76.42   17.87
   3   5  32   65.71   16.48
   3  -5  33  179.79   28.13
   3   5  33  238.81   31.55
   3  -5  34   72.66   16.95
   3   5  34   69.59   16.82
   3  -5  35    6.61    8.59
   3   5  35   -2.28    5.32
   3   5  36   47.96   16.03
   3   5  37    4.57    5.90
  -3  -6   0   -1.23    1.70
  -3  -6   1    2.50    2.86
  -3  -6  -1    1.02    2.37
   3   6   2    6.76    3.18
  -3  -6  -2    3.09    2.46
  -3  -6   2    2.14    2.04
  -3  -6   3   12.10    4.54
   3   6  -3    4.52    1.82
   3   6   3   11.34    4.27
  -3  -6  -3   13.98    4.99
   3   6  -4  117.57   10.91
  -3  -6   4  148.96   16.75
   3   6   4  150.69   14.12
  -3  -6  -4  143.73   14.42
   3   6  -5    6.33    2.27
   3   6   5    7.45    3.78
  -3  -6   5    4.28    1.77
  -3  -6  -5    7.45    3.26
   3   6  -6  289.63   18.04
   3  -6  -6  282.17   25.11
   3   6   6  278.46   18.05
  -3  -6  -6  270.53   19.60
  -3  -6   6  250.11   22.37
  -3  -6  -7   -0.38    1.14
   3   6  -7    0.37    1.63
   3   6   7    0.62    1.25
   3  -6  -7    3.27    3.31
   3   6   7   -0.60    1.02
  -3  -6   7    5.00    4.56
   3   6   8  155.10   11.81
   3   6   8  157.35   12.91
   3   6  -8  140.35   13.47
  -3  -6   8  139.12   16.90
   3  -6   8  168.23   16.94
  -3  -6  -8  160.21   14.50
   3  -6  -8  148.97   18.96
  -3  -6  -9    1.54    1.49
   3   6   9    2.54    1.76
   3   6   9    0.85    1.58
   3  -6  -9    5.66    4.44
  -3  -6   9    3.32    5.49
   3  -6   9    5.56    3.05
  -3  -6 -10   19.36    4.74
   3  -6 -10    6.74    5.38
   3  -6 -10   10.49    4.19
  -3  -6  10   14.29    5.38
   3   6  10   15.68    3.74
   3  -6  10   16.33    6.26
   3   6  10   18.93    4.60
  -3  -6 -11    4.59    2.21
   3   6  11   -0.01    1.68
  -3  -6  11   -3.05    3.39
   3  -6  11    3.27    3.79
   3  -6 -11    0.10    1.55
  -3  -6 -12   15.43    4.44
   3  -6 -12   10.04    4.58
  -3  -6  12   15.65    5.70
   3   6  12    5.53    2.32
   3  -6  12    7.14    4.64
   3  -6 -13   10.17    5.86
   3  -6  13   13.95    5.40
   3   6  13   12.86    3.62
  -3  -6 -13   18.19    4.38
  -3  -6  13   18.88    6.18
   3  -6  14  138.31   16.58
   3  -6 -14  129.12   16.26
  -3  -6 -14  135.52   11.19
  -3  -6  14  142.26   18.96
   3   6  14  137.97   13.64
  -3  -6  15    7.42    5.27
   3  -6  15    6.21    3.90
   3  -6 -15    2.15    2.46
  -3  -6 -15    3.00    1.82
   3   6  15    4.44    3.19
   3   6  16   21.66    6.33
  -3  -6  16   18.29    7.42
   3  -6 -16   23.20    7.00
   3  -6  16   18.63    6.72
   3   6  17    6.90    2.98
   3  -6  17   10.68    5.67
  -3  -6  17   14.16    6.71
   3  -6 -17    9.30    4.69
   3  -6  18   26.57    8.39
   3   6  18   12.34    5.00
   3  -6 -18   14.96    5.36
  -3  -6  18   29.20    8.73
   3   6  19   -0.89    1.65
  -3  -6  19    0.33    2.40
   3  -6  19    0.29    1.56
   3   6  20   11.90    5.33
   3  -6  20    7.14    4.47
  -3  -6  20   11.84    6.42
   3  -6  21  140.19   19.80
   3  -6  21  127.36   17.34
  -3  -6  21  122.10   19.36
   3   6  21  130.93   16.60
   3  -6  22    9.61    5.39
   3   6  22   25.43    7.60
  -3  -6  22   13.86    6.21
   3  -6  22   17.97    6.70
   3  -6  23    5.66    4.58
   3   6  23    1.84    2.76
  -3  -6  23   -1.34    2.78
   3  -6  23    3.29    4.51
   3  -6  24   23.40    9.44
   3  -6  24   15.38    6.83
   3   6  24   43.81   10.66
  -3  -6  24   18.12    8.06
  -3  -6  25    2.89    1.85
   3  -6  25    6.52    5.90
   3   6  25    0.67    2.18
   3  -6  25   -3.69    4.71
   3   6  26   27.13    9.17
  -3  -6  26   39.06   11.89
   3  -6  26   44.29   12.97
   3  -6  26   30.57    9.45
  -3  -6  27   18.55    8.91
   3   6  27   27.72    9.21
   3  -6  27   12.54    6.55
   3  -6  27   32.04   10.36
  -3  -6  28   25.69   10.48
   3   6  28   24.93    9.43
   3  -6  28   15.33    6.10
   3  -6  28   31.84   10.75
   3  -6  29    8.37    6.68
  -3  -6  29    4.14    6.15
   3   6  29   12.48    7.11
   3  -6  29    4.32    4.50
  -3  -6  30    1.42    3.28
   3  -6  30    3.72    4.25
   3  -6  30   -1.77    4.33
   3   6  30   11.34    6.97
   3  -6  31   -0.71    2.77
  -3  -6  31    8.53    7.33
   3   6  31    2.61    5.14
   3  -6  32    4.00    4.41
  -3  -6  32    7.11    6.65
   3   6  32    4.06    4.46
   3  -6  33   13.14    8.93
   3   6  33    4.82    5.91
   3  -6  34    6.64    5.81
   3   6  34    6.95    6.25
   3   6  35   15.24    8.03
   3   6  36    1.83    3.99
   3   6  37    3.18    4.78
  -3  -7   0    5.31    3.27
   3   7  -1  119.84    9.31
  -3  -7   1   99.27   13.44
  -3  -7  -1  115.67   14.49
   3   7  -2   61.09    6.96
  -3  -7   2   45.82    9.70
  -3  -7  -2   73.43   10.98
   3   7  -3  219.83   13.75
  -3  -7   3  225.75   21.17
  -3  -7  -3  191.41   17.90
   3   7  -4  236.84   14.77
  -3  -7   4  264.10   22.88
  -3  -7  -4  272.31   20.78
   3   7  -5   10.66    3.69
   3   7   5    6.23    3.45
  -3  -7   5    5.14    2.65
  -3  -7  -5    3.98    2.30
   3   7   6  122.85   13.21
  -3  -7   6  131.96   17.07
  -3  -7  -6  113.42   13.09
   3   7   6  114.23    8.72
   3   7  -6  100.73   10.56
   3  -7   7   75.85   11.10
   3   7   7   90.12    7.98
  -3  -7   7   92.27   14.35
  -3  -7  -7   76.31   10.73
   3   7  -7   80.56    9.98
  -3  -7  -8  182.16   16.45
   3  -7   8  127.69   14.60
  -3  -7   8  140.76   17.91
   3   7   8  157.08   10.89
   3   7  -8  137.85   13.51
   3  -7   9   33.71    7.61
  -3  -7   9   38.71   10.56
  -3  -7  -9   32.24    6.75
   3   7   9   31.69    5.34
   3  -7 -10  156.86   15.47
  -3  -7 -10  141.93   13.99
  -3  -7  10  144.29   18.82
   3  -7  10  116.44   14.34
   3   7  10  136.54   10.99
  -3  -7  11  348.15   29.71
  -3  -7 -11  371.29   22.25
   3   7  11  341.74   18.21
   3  -7 -11  345.26   23.21
   3  -7  11  397.82   27.20
  -3  -7  12   71.25   13.46
   3  -7  12   76.85   12.34
  -3  -7 -12   70.16    9.69
   3   7  12   82.49    9.54
   3  -7 -13    0.73    1.86
   3  -7  13    5.37    3.30
  -3  -7 -13   -0.37    0.86
   3   7  13   -0.30    1.51
  -3  -7  13    2.31    2.71
  -3  -7 -14  208.19   15.14
   3   7  14  206.90   16.48
   3  -7  14  181.13   19.15
  -3  -7  14  193.31   22.72
   3  -7 -14  178.67   21.22
  -3  -7 -15  148.06   12.01
   3  -7  15   98.32   14.75
   3  -7 -15  112.04   16.22
  -3  -7  15  130.31   18.85
   3   7  15  146.95   14.33
   3  -7 -16  124.37   16.68
  -3  -7  16  173.23   21.94
  -3  -7 -16  107.95    8.94
   3  -7  16  161.64   19.02
   3   7  16  131.06   13.98
   3   7  17   10.39    4.31
  -3  -7  17    7.55    5.41
   3  -7 -17   14.24    6.29
   3  -7  17    5.87    3.67
   3  -7  18   71.52   12.43
  -3  -7  18   63.45   14.03
   3   7  18   60.06    9.90
   3  -7  19   31.15    8.92
   3   7  19   17.75    5.41
  -3  -7  19   41.83   11.41
  -3  -7  20   41.26   11.32
   3  -7  20   39.27   10.46
   3   7  20   44.63    9.55
   3  -7  21   15.91    5.60
   3   7  21   24.35    7.36
   3  -7  21    4.96    3.23
  -3  -7  21   14.69    7.29
   3   7  22   -2.67    3.21
   3  -7  22    0.54    4.21
   3  -7  22    0.95    1.54
  -3  -7  22   -1.64    3.12
   3   7  23   -4.56    3.29
  -3  -7  23    6.56    6.35
   3  -7  23    3.75    4.22
   3  -7  23    4.29    5.68
   3   7  24    4.41    2.84
   3  -7  24    7.12    4.95
  -3  -7  24    1.53    1.65
   3  -7  24    6.39    5.77
   3   7  25   24.32    8.64
   3  -7  25   21.82    8.27
   3  -7  25    5.74    4.31
  -3  -7  25    9.11    6.84
  -3  -7  26   15.16    6.08
   3   7  26    8.92    3.95
   3  -7  26   -0.28    2.88
   3  -7  26   10.14    6.68
   3   7  27    0.84    1.96
   3  -7  27   -2.40    3.21
  -3  -7  27    5.13    5.91
   3  -7  27    6.07    4.20
   3  -7  28  111.59   20.20
   3  -7  28  124.60   19.52
  -3  -7  28   88.55   18.74
   3   7  28  104.26   18.32
  -3  -7  29    2.07    3.53
   3  -7  29    4.67    6.50
   3   7  29   -4.40    4.67
   3  -7  29    3.73    3.87
   3  -7  30   55.43   15.60
   3   7  30   26.53    9.69
   3  -7  30   23.59    8.74
  -3  -7  30   30.31   12.11
  -3  -7  31    1.63    4.16
   3  -7  31    3.87    3.08
   3   7  31    8.21    6.75
   3  -7  31    1.81    2.29
  -3  -7  32   22.72   10.71
   3  -7  32    6.77    4.96
   3   7  32   10.32    7.49
   3  -7  33    7.79    8.11
   3   7  33   -3.95    5.24
   3  -7  34   -0.67    4.52
   3   7  34   13.16    6.75
   3   7  35    7.40    6.85
   3   8   0    2.08    1.43
  -3  -8   0    0.32    2.37
   3   8   1  129.04    7.86
  -3  -8   1  141.97   17.13
  -3  -8  -1  128.52   15.57
   3   8  -1  126.25    8.65
   3   8   2   10.82    2.28
  -3  -8  -2   16.54    6.23
   3   8  -2   14.14    3.09
  -3  -8   2    7.96    3.98
   3   8  -3  279.66   14.83
  -3  -8   3  267.14   24.48
  -3  -8  -3  275.80   22.58
  -3  -8   4   12.38    5.57
   3   8  -4   19.61    4.18
  -3  -8  -4   12.07    5.26
  -3  -8  -5   22.03    6.32
  -3  -8   5   37.21    9.94
   3   8  -5   36.74    6.06
   3   8   5   23.93    3.34
   3   8   6    0.06    0.55
   3   8  -6   -0.62    1.20
  -3  -8   6    5.31    5.17
  -3  -8  -6    3.91    2.23
   3  -8   6    0.46    2.70
  -3  -8   7   14.11    5.98
   3   8  -7    4.80    2.62
   3  -8   7   12.50    4.68
   3   8   7   11.03    2.34
  -3  -8  -7    8.39    3.88
   3   8  -8   64.51    9.41
  -3  -8   8   64.87   12.72
  -3  -8  -8   63.52   10.28
   3  -8   8   68.71   10.85
   3   8   8   54.48    5.57
   3  -8  -9    7.39    3.79
  -3  -8  -9    1.78    2.08
  -3  -8   9    5.47    2.81
   3   8   9    6.74    2.30
   3  -8   9    4.44    3.83
   3  -8 -10   29.73    6.72
   3  -8  10   39.95    8.76
  -3  -8 -10   39.03    7.66
  -3  -8  10   45.74   11.11
   3   8  10   51.21    6.41
  -3  -8 -11   27.57    6.64
   3  -8  11   47.37   10.01
   3  -8 -11   25.61    6.45
  -3  -8  11   12.64    5.59
   3   8  11   36.17    5.46
   3  -8  12   52.91   10.13
  -3  -8  12   50.99   12.04
   3   8  12   53.69    7.32
  -3  -8 -12   53.64    8.77
   3   8  13   17.83    4.28
  -3  -8 -13   21.74    5.77
   3  -8  13    8.68    5.06
  -3  -8  13   11.51    6.08
  -3  -8 -14   80.13   10.30
   3  -8  14   55.16   10.80
  -3  -8  14   60.74   14.04
   3   8  14   67.39    9.04
   3  -8  15  128.04   16.73
  -3  -8 -15   94.54   10.71
  -3  -8  15  132.84   20.74
   3   8  15  135.46   13.21
   3   8  16   17.13    5.37
   3  -8  16   24.20    6.88
  -3  -8 -16   27.18    5.54
  -3  -8  16   24.21    8.74
  -3  -8 -17   10.69    2.87
  -3  -8  17   16.49    7.88
   3   8  17   22.73    6.32
   3  -8  17   13.47    6.31
   3   8  18   11.23    4.38
  -3  -8  18   10.51    6.75
   3  -8  18    5.41    3.10
   3   8  19  129.43   15.02
  -3  -8  19  147.20   21.89
   3  -8  19  164.80   21.19
   3  -8  20   -0.17    1.76
   3   8  20    7.01    3.42
   3  -8  20   13.82    5.64
  -3  -8  20   20.72    9.33
   3  -8  21   14.53    7.05
   3   8  21   19.44    7.31
  -3  -8  21    9.38    4.56
   3  -8  21   20.97    7.27
   3   8  22   49.77   10.63
   3  -8  22   68.75   14.57
   3  -8  22   78.37   15.65
  -3  -8  22   51.79   13.74
   3   8  23   50.11   10.91
   3  -8  23   56.37   13.03
   3  -8  23   67.43   14.74
  -3  -8  23   61.45   15.06
   3   8  24    7.84    5.24
   3  -8  24   -2.90    2.71
   3  -8  24    1.63    1.78
  -3  -8  24    2.04    4.21
   3  -8  25   28.49   10.29
   3   8  25   29.20    9.36
   3  -8  25   25.67    9.06
  -3  -8  25   17.44    8.83
   3   8  26   41.16   11.22
   3  -8  26   35.24   11.04
   3  -8  26   40.33   12.10
  -3  -8  26   68.86   16.15
   3   8  27   19.73    7.94
   3  -8  27   34.73   11.61
  -3  -8  27   30.98   12.38
   3  -8  27   30.80   10.28
   3  -8  28    6.48    6.08
   3   8  28   -3.28    3.75
   3  -8  28    2.14    3.71
  -3  -8  28   11.36    7.55
   3   8  29   11.56    6.00
  -3  -8  29   17.73    9.19
   3  -8  29    6.20    6.10
   3  -8  29   -1.77    3.86
   3  -8  30    6.42    5.71
   3   8  30   -7.21    5.57
   3  -8  30    6.48    8.44
  -3  -8  30    2.29    4.78
   3   8  31   -0.63    3.47
   3  -8  31   15.50    8.24
   3  -8  31   10.44    6.87
  -3  -8  31   -4.69    4.99
   3  -8  32   25.50   10.78
  -3  -8  32   26.03   11.68
  -3  -8  33   10.96    8.33
   3  -8  33    3.48    5.32
  -3  -9   0   -0.97    2.60
   3   9   0    2.16    1.15
  -3  -9  -1   -0.63    1.08
   3   9   1    0.37    0.29
   3   9  -1   -0.12    0.61
  -3  -9   2  217.11   22.77
  -3  -9  -2  270.34   24.18
   3   9  -2  266.02   13.38
  -3  -9   3   -0.19    1.14
   3   9  -3    4.44    2.31
  -3  -9  -3    5.17    2.67
   3   9  -4    1.10    1.26
   3  -9   4    2.75    2.14
  -3  -9  -4    1.24    1.86
  -3  -9   4    1.03    1.26
  -3  -9   5   41.23   10.79
   3  -9   5   43.89    8.13
  -3  -9  -5   40.67    8.93
   3   9  -5   39.32    6.22
  -3  -9   6   74.00   13.92
  -3  -9  -6   69.70   12.07
   3  -9   6   76.45   11.22
   3   9  -6   71.74    9.03
   3  -9   7   24.46    6.49
  -3  -9   7   28.91    9.21
   3   9   7   19.86    2.40
   3   9  -7   20.63    5.20
  -3  -9  -7   27.88    7.40
   3  -9   8  109.41   13.62
  -3  -9   8  108.18   17.01
  -3  -9  -8  112.62   13.98
   3   9   8   83.63    5.76
   3  -9  -9   18.90    5.23
  -3  -9   9   24.56    8.30
  -3  -9  -9   27.64    6.90
   3  -9   9   23.02    6.53
   3   9   9   19.41    3.32
   3  -9  10 1393.07   51.01
   3  -9 -10 1384.79   44.23
  -3  -9 -10 1421.11   50.25
  -3  -9  10 1353.35   63.15
   3   9  10 1415.16   29.46
   3  -9 -11   83.31   10.97
   3  -9  11   70.57   11.61
  -3  -9  11   97.21   16.88
  -3  -9 -11   80.84   11.55
   3   9  11   82.30    7.80
   3   9  12 1176.16   31.53
  -3  -9 -12 1167.23   43.84
  -3  -9  12 1184.49   60.36
   3  -9  12 1191.45   48.73
   3   9  13   14.51    3.79
  -3  -9 -13   19.96    5.47
   3  -9  13    9.73    4.49
  -3  -9  13    6.47    6.17
  -3  -9 -14   28.33    6.96
   3   9  14   35.86    6.25
  -3  -9  14   29.82   10.21
   3  -9  14   33.13    8.49
   3   9  15    2.96    2.16
  -3  -9 -15    5.80    3.70
  -3  -9  15    0.71    2.02
   3  -9  15    0.29    1.27
   3   9  16   70.15    9.69
  -3  -9 -16   46.45    7.81
  -3  -9  16   66.22   14.75
   3  -9  16   59.10   11.87
   3   9  17   -0.59    1.23
  -3  -9  17    1.34    5.14
   3  -9  17    5.21    5.05
   3   9  18   15.75    5.62
   3  -9  18   13.95    6.30
  -3  -9  18   11.80    7.04
   3   9  19   92.92   12.74
   3  -9  19   71.66   15.64
   3  -9  19   85.87   15.61
  -3  -9  19   70.65   16.15
   3   9  20    8.31    3.17
   3  -9  20   11.64    5.93
  -3  -9  20    3.01    2.36
   3  -9  21   12.72    6.25
   3   9  21   15.99    5.86
   3  -9  21   26.51    9.58
  -3  -9  22    1.05    1.75
   3   9  22    6.66    4.17
   3  -9  22    2.73    4.57
   3  -9  22    2.38    3.20
  -3  -9  23   12.04    6.80
   3  -9  23   -0.17    3.24
   3   9  23    0.77    1.53
   3  -9  23    9.79    6.81
   3   9  24    2.56    2.59
   3  -9  24    1.25    2.96
   3  -9  24    1.65    4.22
  -3  -9  24    1.07    2.47
   3   9  25   21.35    8.82
   3  -9  25   15.87    8.78
   3  -9  25   14.72    6.70
  -3  -9  25    4.09    4.70
   3  -9  26   19.86    8.18
   3  -9  26   14.12    7.36
  -3  -9  26   18.16    9.31
   3  -9  27    0.81    3.02
   3  -9  27    0.10    3.44
   3  -9  28   24.64    9.87
  -3  -9  28   34.67   12.66
   3  -9  28   45.99   13.66
   3  -9  29    7.86    5.77
  -3  -9  29    3.89    5.29
  -3  -9  30    5.47    6.78
   3  -9  30    5.82    3.79
   3  -9  30   10.38    7.89
  -3  -9  31   -0.93    7.26
   3  -9  31   -1.82    4.09
   3  -9  31   -0.19    4.74
  -3  -9  32  312.07   38.61
   3  -9  32  357.60   40.99
  -3  -9  33   22.90   11.75
  -3 -10   0    5.53    5.78
  -3 -10   1   12.64    6.07
   3  10  -1    7.62    1.87
  -3 -10  -1   13.86    5.85
   3  10  -2    0.03    0.44
  -3 -10  -2    2.02    3.05
   3  10  -3   35.51    5.23
  -3 -10  -3   24.65    7.83
   3 -10   3   44.29    8.14
  -3 -10   3   45.27   10.46
   3 -10   4   12.35    5.00
  -3 -10  -4    5.83    3.43
   3  10  -4    5.41    2.50
  -3 -10   4    9.75    5.45
   3  10  -5   70.23    8.77
  -3 -10   5   72.10   14.54
   3 -10   5   83.38   11.21
  -3 -10  -5   72.87   12.59
   3 -10   6    5.77    4.19
   3  10  -6    3.27    2.87
  -3 -10   6    4.44    3.93
  -3 -10  -6    3.60    3.15
   3 -10   7    1.10    2.14
  -3 -10  -7    1.51    2.38
  -3 -10   7    0.15    2.15
   3  10  -7    1.75    2.32
   3 -10  -8   31.65    6.20
  -3 -10  -8   35.89    9.30
  -3 -10   8   49.14   12.28
   3 -10   8   36.01    7.69
   3 -10  -9    8.40    3.38
  -3 -10   9   12.06    7.00
   3 -10   9    8.31    5.35
  -3 -10  -9   11.76    4.72
  -3 -10  10  127.07   19.42
  -3 -10 -10  133.62   16.29
   3 -10  10  140.52   16.07
  -3 -10 -11    8.87    4.45
  -3 -10  11    4.76    4.21
   3 -10  11   17.82    6.18
  -3 -10  12  241.82   28.66
  -3 -10 -12  232.39   20.94
   3  10  12  194.70   11.64
   3 -10  12  262.94   22.71
  -3 -10 -13    8.07    3.86
   3  10  13    6.12    2.37
  -3 -10  13    0.18    2.04
   3  10  14   16.44    3.98
  -3 -10 -14   15.96    5.67
   3 -10  14   23.96    7.23
  -3 -10  14   13.82    7.07
   3  10  15    8.91    4.08
  -3 -10 -15   10.50    4.21
   3 -10  15   22.46    7.60
  -3 -10  15   16.43    7.64
   3  10  16   13.12    4.11
  -3 -10  16   15.67    9.07
   3 -10  16   23.26    8.17
   3  10  17   14.41    4.58
  -3 -10  17   20.10    8.93
   3 -10  17   15.79    6.52
   3 -10  18    1.21    3.23
  -3 -10  18    1.55    2.60
   3 -10  18    8.84    3.93
   3 -10  19   17.12    7.25
  -3 -10  19   10.11    7.73
   3 -10  19    9.07    6.85
   3 -10  20   17.91    8.57
  -3 -10  20    9.44    5.30
   3 -10  20   16.20    7.15
   3 -10  21   32.05   10.72
   3 -10  21   27.02   11.69
  -3 -10  21   32.79   12.04
   3 -10  22    8.45    5.89
   3 -10  22   35.68   11.65
  -3 -10  22   20.23    9.31
   3 -10  23   15.87    8.25
   3 -10  23    4.61    5.03
  -3 -10  23   14.71    8.64
   3 -10  24    4.90    5.60
  -3 -10  24   12.11    9.90
   3 -10  24    0.39    3.20
   3 -10  25    1.56    3.12
  -3 -10  25   -3.79    3.73
   3 -10  26   24.03    8.96
   3 -10  26   19.89    9.67
  -3 -10  26   14.68    8.02
  -3 -10  27    5.66    6.75
   3 -10  27   10.34    7.44
   3 -10  27    8.21    7.47
   3 -10  28    7.97    5.53
   3 -10  28    4.47    4.31
  -3 -10  28    9.97    7.45
  -3 -10  29   50.59   17.24
   3 -10  29   31.41   12.30
   3 -10  29   34.40   13.29
  -3 -10  30   -1.92    3.57
   3 -10  30    6.71    5.41
   3 -10  30    7.63    6.02
   3 -10  31    7.85    8.35
   3 -10  31    9.90    6.72
  -3 -10  31    2.50    5.41
  -3 -10  32   24.23   12.92
   3 -10  32   30.75   12.27
   3 -10  32   13.81    7.43
  -3 -10  33   12.44   10.41
  -3 -11   0    2.39    3.95
   3 -11   1   78.54    9.89
  -3 -11   1   70.36   13.83
  -3 -11  -1   91.36   15.80
   3 -11   2   71.74    9.93
  -3 -11   2   57.74   13.09
  -3 -11  -2   88.78   15.17
  -3 -11  -3    4.61    3.53
  -3 -11   3    5.04    4.57
   3 -11   3    2.94    2.72
  -3 -11   4   93.86   16.44
  -3 -11  -4   87.07   14.18
   3 -11   4   81.96   10.85
  -3 -11   5    4.02    4.48
   3 -11   5    1.93    1.80
  -3 -11  -5    3.11    3.82
  -3 -11   6  327.69   31.92
  -3 -11  -6  395.74   30.72
   3 -11   6  339.66   23.20
  -3 -11  -7    7.70    4.27
   3 -11   7   10.27    4.37
  -3 -11   8  296.71   30.92
  -3 -11  -8  354.39   28.21
   3 -11   8  310.76   23.18
  -3 -11  -9   -5.67    5.40
  -3 -11   9   -5.94    5.51
   3 -11   9    3.84    3.11
  -3 -11  10    6.16    7.22
   3 -11  10   -1.75    2.78
  -3 -11 -10   -1.98    2.37
   3 -11  11   46.97    9.63
  -3 -11  11   62.80   15.43
  -3 -11 -11   47.57   10.21
  -3 -11 -12   88.98   13.90
  -3 -11  12   56.11   14.54
   3 -11  12   72.44   12.11
  -3 -11 -13    6.87    4.83
   3 -11  13    2.17    2.09
  -3 -11  13    1.27    2.53
  -3 -11  14  485.20   42.78
   3 -11  14  437.96   32.48
  -3 -11 -14  403.80   28.23
  -3 -11  15    2.75    3.48
   3 -11  15    2.74    4.23
  -3 -11  16   60.22   15.99
   3 -11  16   41.36   10.07
   3 -11  17   14.04    7.52
  -3 -11  17   17.55    8.52
   3 -11  17   28.12    8.71
   3 -11  18   65.17   15.36
  -3 -11  18   46.48   13.59
   3 -11  18   70.96   14.70
  -3 -11  19    5.08    8.14
   3 -11  19    2.99    4.09
   3 -11  19   -1.42    3.03
   3 -11  20   20.19    9.72
   3 -11  20    3.26    5.19
  -3 -11  20   12.88    8.50
   3 -11  21    5.74    4.08
  -3 -11  21   18.25    9.98
   3 -11  21   14.81    7.96
   3 -11  22   13.91    8.51
  -3 -11  22    7.15    5.42
   3 -11  22    7.13    6.51
  -3 -11  23   21.72   13.00
   3 -11  23   43.42   13.47
   3 -11  23   35.89   11.34
   3 -11  24    6.56    4.95
  -3 -11  24   -3.19    4.30
   3 -11  24    3.15    5.48
   3 -11  25    3.89    4.82
   3 -11  25   -7.47    6.57
  -3 -11  25   -2.43    6.59
  -3 -11  26   25.71   12.26
   3 -11  26   25.35   10.43
   3 -11  26    4.57    5.24
   3 -11  27   10.74    7.44
  -3 -11  27    0.70    5.38
   3 -11  27    3.54    4.72
   3 -11  28   26.27   11.20
   3 -11  28   16.86   10.28
  -3 -11  28   17.28   10.12
   3 -11  29    1.05    3.61
  -3 -11  29    7.20    7.74
   3 -11  29   -0.49    4.36
  -3 -11  30   86.80   22.50
   3 -11  30  127.06   24.47
   3 -11  30   96.03   21.03
  -3 -11  31   -7.79    8.76
   3 -11  31    4.47    4.51
   3 -11  31    8.11    7.38
  -3 -11  32   28.96   12.60
   3 -11  32   29.43   11.68
  -3 -12   0   -2.74    2.83
   3 -12   0    1.77    1.70
  -3 -12   1   15.72    6.85
   3 -12  -1    8.87    3.38
   3 -12   1    4.16    2.71
  -3 -12  -1   10.33    6.18
  -3 -12   2   63.83   14.22
  -3 -12  -2   63.14   13.89
   3 -12  -2   62.93    7.81
   3 -12   2   62.03    8.81
  -3 -12  -3    7.39    5.06
  -3 -12   3   15.57    7.23
   3 -12   3   13.98    4.30
  -3 -12  -4   13.32    6.77
   3 -12   4    6.73    3.59
  -3 -12   4    4.87    3.90
   3 -12   5   59.22    9.29
  -3 -12   5   56.91   13.65
  -3 -12  -5   47.55   11.45
  -3 -12   6   -0.59    3.22
  -3 -12  -6    4.26    4.08
   3 -12   6   -0.25    1.67
  -3 -12  -7   58.93   12.34
  -3 -12   7   60.72   14.68
   3 -12   7   59.20    9.58
  -3 -12   8   31.70   10.52
  -3 -12  -8   32.12    9.02
   3 -12   8   32.34    7.71
   3 -12   9    2.59    2.54
  -3 -12   9   -2.88    4.11
  -3 -12  -9   -2.09    3.58
  -3 -12  10    4.76    4.17
   3 -12  10   -0.28    1.68
  -3 -12 -10    5.68    4.58
   3 -12  11   87.70   13.37
  -3 -12  11   85.42   18.53
  -3 -12 -11  104.86   15.77
  -3 -12  12    6.69    4.98
   3 -12  12    8.04    4.94
  -3 -12 -12    2.23    3.17
  -3 -12  13    0.32    1.93
  -3 -12 -13    5.14    3.15
   3 -12  13    6.41    3.66
  -3 -12  14    2.93    3.49
   3 -12  14   -1.63    2.84
   3 -12  15   65.98   16.48
   3 -12  15   56.90   12.14
  -3 -12  15   69.55   17.17
   3 -12  16    4.07    4.70
   3 -12  16    1.94    4.93
  -3 -12  16    5.87    7.73
   3 -12  17   11.23    5.85
  -3 -12  17   16.27    7.85
   3 -12  17   13.18    8.05
   3 -12  18  111.85   21.06
  -3 -12  18   77.33   18.28
   3 -12  18   75.26   14.45
   3 -12  19   11.18    6.02
  -3 -12  19    5.97    5.19
   3 -12  19    5.99    6.01
   3 -12  20    6.92    3.96
   3 -12  20    9.37    7.42
  -3 -12  20   10.88    9.01
   3 -12  21    4.46    5.13
  -3 -12  21    3.42    5.14
   3 -12  22   29.09   11.27
   3 -12  22   14.95    7.51
   3 -12  23   31.91   12.07
   3 -12  23   34.42   12.32
  -3 -12  23   19.42    9.54
   3 -12  24   14.86    9.26
   3 -12  24   26.47   11.52
  -3 -12  24   25.48   12.46
   3 -12  25   13.41    7.54
   3 -12  25    1.95    5.54
  -3 -12  25   16.71   11.03
   3 -12  26   -7.01    5.73
   3 -12  26    5.50    6.48
  -3 -12  26   -8.36    8.13
   3 -12  27   50.45   14.79
   3 -12  27   26.86   13.67
  -3 -12  27   21.80   11.29
   3 -12  28    8.22    8.40
   3 -12  28    2.25    3.35
  -3 -12  28    6.96    6.15
   3 -12  29   -2.08    4.49
   3 -12  29   -4.04    6.12
  -3 -12  29    3.89    7.95
   3 -12  30   -9.19    8.94
   3 -12  30    3.22    8.62
  -3 -13   0    3.49    4.48
  -3 -13  -1    3.63    3.89
  -3 -13   1    6.76    6.62
  -3 -13   2   -2.39    4.25
  -3 -13  -2    9.54    4.75
  -3 -13   3   -0.03    2.28
  -3 -13  -3    4.24    4.72
  -3 -13   4   91.48   18.28
  -3 -13  -4   90.77   16.58
  -3 -13   5    8.83    3.53
  -3 -13  -5    4.43    2.71
  -3 -13   6   16.31    7.30
  -3 -13  -6   -2.12    3.00
   3 -13   7    1.59    2.48
  -3 -13  -7    0.08    1.41
   3 -13   8   90.87   12.30
  -3 -13   8   76.98   17.55
  -3 -13  -8   88.20   17.69
   3 -13   9   11.04    4.39
  -3 -13   9    3.01    2.98
  -3 -13  -9   16.85    7.31
   3 -13  10   36.86    8.72
  -3 -13  10   16.31    9.31
  -3 -13 -10   17.74    7.16
  -3 -13  11  326.97   36.76
  -3 -13 -11  343.85   30.33
   3 -13  11  322.05   26.11
   3 -13  12    0.35    2.30
   3 -13  12    5.78    5.82
  -3 -13  12   -4.18    2.97
  -3 -13 -12   -0.54    3.78
   3 -13  13   37.46    9.62
   3 -13  13   31.36   11.45
  -3 -13  13   41.92   14.11
  -3 -13  14   89.92   19.84
   3 -13  14  113.33   16.78
   3 -13  15    9.01    7.46
   3 -13  15    4.86    4.78
  -3 -13  15    9.25    6.09
   3 -13  16    6.82    4.94
   3 -13  16   15.44    8.69
  -3 -13  16   13.45    8.28
  -3 -13  17   -0.70    3.76
   3 -13  17   -3.81    4.82
   3 -13  17    8.30    6.32
   3 -13  18    9.05    5.09
   3 -13  18   20.27   11.48
  -3 -13  18    6.44    5.79
   3 -13  19   12.52    5.90
   3 -13  19    7.54    6.81
  -3 -13  19    9.21    9.33
   3 -13  20   62.20   14.69
   3 -13  20   56.93   16.93
  -3 -13  20   57.99   16.57
   3 -13  21    6.20    7.00
   3 -13  21   -4.83    6.40
  -3 -13  21    1.69    3.59
   3 -13  22    5.37    5.46
   3 -13  22    3.31    6.00
  -3 -13  22    1.04    5.60
   3 -13  23   11.52    7.11
   3 -13  23    4.38    5.46
  -3 -13  23    9.18    8.36
   3 -13  24    6.03    5.29
  -3 -13  24    1.56    4.53
   3 -13  25    3.78    5.54
   3 -13  25    1.85    6.78
  -3 -13  25   -1.59    3.65
   3 -13  26   23.56   11.06
   3 -13  26    4.79    5.29
  -3 -13  26    5.47    9.59
   3 -13  27    0.55    2.72
   3 -13  27    0.26    5.75
   3 -13  28   -1.18    5.36
  -3 -14   0    1.75    5.61
  -3 -14   1   12.12    7.43
  -3 -14  -1   17.38    9.55
  -3 -14  -2    1.13    4.05
  -3 -14   2    5.35    6.44
  -3 -14   3   10.01    7.69
  -3 -14  -3   18.38   10.26
  -3 -14  -4   17.55    7.44
  -3 -14   4   30.02   10.32
  -3 -14   5   13.95    8.01
  -3 -14  -5   12.93    5.24
  -3 -14   6   -0.04    4.33
  -3 -14  -6    3.33    4.49
  -3 -14  -7   -0.56    1.87
  -3 -14   7    6.22    5.76
  -3 -14   8   19.23   10.13
  -3 -14  -8   14.89    7.56
  -3 -14   9    5.19    3.54
   3 -14   9   13.51    7.50
  -3 -14  -9   21.18    8.04
   3 -14  10    0.95    3.66
  -3 -14  10    0.43    5.01
  -3 -14 -10    3.36    4.45
   3 -14  11    2.05    2.26
  -3 -14  11    5.37    7.59
  -3 -14 -11    2.69    4.77
   3 -14  12   12.45    9.58
  -3 -14  12   -1.25    3.31
  -3 -14  13    0.25    3.28
   3 -14  13    3.43    3.11
   3 -14  14    1.33    3.35
  -3 -14  14    2.85    6.28
   3 -14  15   14.91   10.05
  -3 -14  15    9.70    9.02
   3 -14  16    9.02    8.05
  -3 -14  16   -2.92    4.17
   3 -14  17   26.08    9.67
  -3 -14  17   19.52   10.72
   3 -14  18    1.94    6.60
  -3 -14  18    0.05    3.12
  -3 -14  19    8.29    5.59
   3 -14  19    8.94    9.59
   3 -14  20   -3.11    5.80
  -3 -14  20    2.06    4.14
   3 -14  21   -0.26    4.00
  -3 -14  21   13.32   10.40
  -3 -14  22   45.64   16.77
   3 -14  22   58.84   17.86
  -3 -14  23   -8.87   10.33
   3 -14  23   -1.83    5.05
   3 -14  24   -3.91    6.74
  -3 -14  24   -9.49    9.18
  -3 -15   0    2.12    3.28
  -3 -15  -1   11.11    6.88
  -3 -15   1    2.55    5.29
  -3 -15   2   22.41   10.08
  -3 -15  -2   43.40   13.07
  -3 -15  -3   27.00   10.48
  -3 -15   3   14.73    8.04
  -3 -15  -4   14.42    8.10
   3 -15   4    5.38    5.56
  -3 -15   4    9.93    8.24
  -3 -15   5   34.06   11.47
   3 -15   5   31.69   12.95
  -3 -15  -5   42.53   13.04
  -3 -15   6    7.35    7.07
  -3 -15  -6    5.21    5.16
   3 -15   6    1.00    2.99
   3 -15   7  129.81   25.02
  -3 -15  -7  157.75   23.65
  -3 -15   7  131.43   23.76
  -3 -15  -8   21.45    8.69
  -3 -15   8   10.30    5.27
   3 -15   8   19.43   10.59
   3 -15   9  288.93   36.50
  -3 -15   9  305.65   37.57
  -3 -15  -9  261.31   29.47
   3 -15 -10    2.59    5.96
   3 -15  10   -7.14    6.36
  -3 -15 -10    2.49    4.78
   3 -15 -11    2.49    5.53
  -3 -15  11   13.16    7.83
   3 -15  12   41.36   14.37
   3 -15 -12   29.78   11.67
  -3 -15  12   38.67   15.16
   3 -15  13  114.49   23.58
  -3 -15  13  160.00   28.67
  -3 -15  14   16.30    9.67
   3 -15  14   14.37    8.84
   3 -15  15  113.64   25.32
  -3 -15  15  136.95   26.41
   3 -15  16   -5.64    5.57
  -3 -15  16   -3.25    5.57
   3 -15  17   17.90   10.76
  -3 -15  17   18.01    9.92
  -3 -15  18    7.81    8.27
   3 -15  19    5.34    7.70
  -3 -15  19   20.82   11.22
   3 -15  20    3.38    8.22
  -3 -15  20   15.28   10.85
   3 -15  21    1.13    6.79
   3 -16   0    3.21    8.60
  -3 -16   0    3.39    5.76
  -3 -16   1   18.52   12.72
   3 -16  -1   16.99    9.02
   3 -16   1    4.41    7.14
  -3 -16  -1    9.56    5.77
   3 -16  -2   17.50   10.74
   3 -16   2    9.80    6.25
  -3 -16  -2   -3.31    5.77
  -3 -16   2   14.73   11.02
  -3 -16   3   45.90   15.13
  -3 -16  -3   10.28    6.56
   3 -16  -3   37.72   14.11
   3 -16   3   17.63    9.16
   3 -16  -4   -3.39    5.71
   3 -16   4   -2.49    5.03
  -3 -16  -4   -2.10    3.37
  -3 -16   4    0.61    3.84
  -3 -16  -5   26.82   10.44
   3 -16  -5   34.28   13.34
   3 -16   5   16.83   10.91
  -3 -16   5   30.77   12.52
   3 -16  -6   -4.12    5.77
   3 -16   6   -4.30    4.21
  -3 -16   6    3.61    5.56
   3 -16  -7    0.04    2.78
  -3 -16   7   19.09   11.19
  -3 -16  -7   15.64    8.76
   3 -16   7   11.88    9.53
   3 -16  -8    2.29    4.24
   3 -16   8    5.37    5.00
  -3 -16  -8    5.44    5.94
  -3 -16   8    4.63    6.07
   3 -16   9   39.78   14.68
   3 -16  -9   39.51   13.29
  -3 -16   9   14.68   10.94
   3 -16 -10   -0.18    3.38
  -3 -16  10   -0.05    3.34
   3 -16  11   40.52   14.69
  -3 -16  11   31.88   13.03
   3 -16  12   -0.09    4.98
  -3 -16  12   19.94   10.97
   3 -16  13   -4.76    7.80
  -3 -16  13    6.60    5.01
   3 -16  14    8.76    5.69
  -3 -16  14   15.29   10.25
   3 -16  15    2.35    3.38
  -3 -16  15   13.41    9.19
   3 -16  16    5.30   11.28
  -3 -16  16    9.89    8.79
   3 -16  17   -5.52    6.08
  -3 -16  17   -1.50    3.08
  -3 -17   0   -1.87    3.15
   3 -17   0   13.72   10.94
   3 -17  -1   13.85    8.57
   3 -17   1   -8.29    6.28
  -3 -17  -1    2.54    6.31
  -3 -17   1    8.56    8.67
   3 -17  -2    9.62    7.53
   3 -17   2   18.76   10.17
  -3 -17   2   13.54    9.31
  -3 -17  -2   19.50   10.42
   3 -17  -3   21.25   10.76
  -3 -17   3   15.90    9.42
   3 -17   3    6.74    9.56
  -3 -17  -3   -3.46    6.89
  -3 -17  -4   22.91    9.54
  -3 -17   4    5.88    4.62
   3 -17  -4   16.29    7.55
   3 -17   4   16.09    9.94
  -3 -17  -5   56.76   16.35
   3 -17  -5   34.99   14.10
   3 -17   5   40.05   14.85
  -3 -17   5   27.36   11.82
   3 -17  -6   37.00   13.45
   3 -17   6   48.14   16.33
  -3 -17   6   41.03   14.80
  -3 -17  -6   17.03    9.67
   3 -17  -7   68.48   17.65
  -3 -17   7   78.04   20.45
   3 -17   7   57.90   18.49
  -3 -17  -7   74.11   18.24
  -3 -17   8   11.85    8.13
   3 -17  -8   13.82    8.82
   3 -17   8    9.41    9.30
   3 -17  -9   32.43   12.97
   3 -17   9   43.03   15.85
  -3 -17   9   40.91   13.79
   3 -17  10   27.31   10.57
  -3 -17  10   29.00   12.47
   3 -17  11   56.66   17.59
  -3 -17  11   67.22   19.55
   3 -17  12   67.00   21.22
  -3 -17  12   31.80   13.96
  -3 -18   0   -6.15    7.66
   3 -18   0    8.47   11.72
  -3 -18  -1   15.29   10.14
   3 -18  -1   31.05   15.86
   3 -18   1   12.48   10.10
  -3 -18   1   30.10   11.72
  -3 -18   2    1.27    5.31
   3 -18  -2    5.50    6.53
   3 -18   2    8.28    8.43
  -3 -18  -2   12.00    9.00
  -3 -18   3    4.78    7.07
   3 -18  -3    3.63    3.05
   3 -18   3    4.45    6.29
  -3 -18  -3    1.14    3.90
  -3 -18  -4    7.73    7.25
   3 -18  -4   33.02   13.90
   3 -18   4   14.65    9.03
  -3 -18   4   22.61    9.80
   3 -18  -5   18.75   10.20
   3 -18   5   28.10   10.79
  -3 -18  -5   29.57   12.75
  -3 -18   5   27.20   12.99
  -3 -18   6   -5.61    6.67
   3 -18  -6    1.43    6.98
   3 -18   6   12.94    9.80
  -3 -18   7   52.57   17.77
   3 -18  -7   42.75   15.79
  -3 -19   0    2.10    6.86
  -3 -19   1   -6.78    7.23
  -3 -19  -1   13.67    9.96
   3 -19  -2   -2.48    3.53
  -3 -19  -2   10.17   10.09
   3 -19  -3    3.51    3.75
  -3 -19  -3   11.18    8.99
   3 -19  -4    8.97    8.76
   4   0   0  280.86   20.78
  -4   0   0  286.61   21.13
   4   0   1    0.39    1.92
   4   0  -1    5.95    3.43
  -4   0   1    1.60    2.16
  -4   0  -1    3.22    3.33
   4   0  -2   50.95    8.80
  -4   0   2   56.26    9.75
  -4   0  -2   73.36   11.03
   4   0   3   -0.42    1.67
  -4   0   3   -0.22    0.89
  -4   0  -3   -1.97    2.12
   4   0  -3   -0.81    1.31
  -4   0  -4  205.43   18.09
  -4   0   4  196.01   18.00
   4   0   4  206.77   18.04
   4   0  -4  148.97   15.37
  -4   0   5    0.41    1.21
   4   0   5   -2.23    3.11
   4   0  -5   -1.56    2.13
  -4   0  -5    0.08    2.47
  -4   0   6    6.39    3.56
   4   0  -6    4.47    2.35
   4   0   6   -1.19    2.47
  -4   0  -6    3.03    1.68
   4   0  -7   -0.11    2.33
  -4   0  -7   -0.26    0.86
   4   0   7   -0.34    1.67
  -4   0   7    5.00    4.04
   4   0  -8   10.95    5.54
  -4   0  -8   26.25    7.16
   4   0   8   24.03    6.68
  -4   0   8   14.20    5.27
   4   0  -9    1.28    2.42
  -4   0   9    3.63    3.71
   4   0   9   -1.16    2.37
   4   0 -10    3.92    2.06
  -4   0  10    0.29    4.59
   4   0  10    1.91    2.98
   4   0 -11    0.80    2.07
   4   0  11    2.49    3.21
  -4   0  11   -0.39    1.52
   4   0  12   -0.42    1.74
  -4   0  12    4.38    3.15
   4   0  13    0.47    1.93
  -4   0  13   -0.87    1.67
   4   0  13   -0.76    2.61
   4   0  14   45.52    9.71
  -4   0  14   53.43   11.13
   4   0  14   36.02    9.24
   4   0  15    2.58    3.04
  -4   0  15   -0.87    3.05
   4   0  15    3.79    3.74
   4   0  16   48.19    9.67
  -4   0  16   44.96   10.80
   4   0  16   51.98   10.51
   4   0  17    3.64    3.13
  -4   0  17   -1.15    2.47
   4   0  17    1.90    1.75
   4   0  18   22.51    7.18
  -4   0  18   38.46    9.99
   4   0  19   -0.72    1.70
   4   0  19    0.24    1.67
  -4   0  19    2.13    4.26
   4   0  20    0.42    2.99
   4   0  20    0.96    2.12
  -4   0  20    4.89    4.20
  -4   0  21    1.14    2.32
   4   0  21   -2.73    3.17
  -4   0  22  116.18   17.79
   4   0  22  113.21   16.51
   4   0  23    5.57    4.48
  -4   0  23   -2.22    3.16
   4   0  24  316.10   18.30
  -4   0  24  315.60   30.72
   4   0  24  271.93   27.79
   4   0  25   -0.44    1.39
   4   0  25    4.35    5.18
  -4   0  26  230.76   26.90
   4   0  26  233.56   26.82
   4   0  27    2.57    2.84
  -4   0  27   -6.18    5.51
  -4   0  28   -0.32    3.65
   4   0  28    5.35    5.31
   4   0  29    7.76    6.23
   4   0  30   23.68    9.62
   4   0  31    2.05    2.25
   4   0  32   13.60    7.72
   4   0  33    2.02    6.01
   4   0  34   39.41   13.31
   4   0  35    2.36    4.76
   4   0  36   -2.54    6.20
   4  -1   0    5.28    3.53
  -4   1   0   11.19    4.11
   4   1   0    5.47    2.78
  -4  -1   0   12.86    5.06
  -4   1   1   43.73    9.14
   4   1  -1   46.18    8.42
  -4   1  -1   41.57    8.18
  -4  -1   1   42.72    8.25
  -4  -1  -1   34.62    7.29
   4  -1  -1   44.70    8.83
   4  -1   1   47.87    9.06
   4   1  -2  133.06   14.30
  -4   1  -2  145.65   15.70
   4  -1  -2  143.77   15.75
  -4  -1  -2  145.32   14.72
   4   1   2   -0.95    1.11
   4  -1   2    6.07    3.59
  -4   1   2  138.21   15.24
  -4  -1   2  148.86   15.82
   4   1   3  428.09   24.76
  -4  -1   3  357.49   24.72
   4  -1  -3  418.14   26.66
  -4   1  -3  422.69   26.78
  -4  -1  -3  416.66   24.69
   4   1  -3  424.96   24.91
  -4   1   3  402.27   26.11
  -4  -1  -4  438.69   25.41
  -4  -1   4  415.95   26.57
   4   1   4  424.99   24.60
   4  -1  -4  397.18   25.82
  -4   1  -4  392.76   25.30
   4   1  -4  373.61   23.89
  -4   1   4  389.76   26.17
   4  -1   5   10.39    5.15
   4   1  -5   10.11    4.00
  -4  -1  -5   10.10    3.81
  -4   1   5    8.36    4.91
  -4   1  -5    8.01    3.77
  -4  -1   5    9.01    4.35
   4  -1  -5    9.60    4.62
   4   1   5   10.50    3.87
  -4  -1  -6  420.87   25.17
   4  -1   6  417.19   27.58
  -4  -1   6  374.58   25.67
   4  -1  -6  421.76   26.76
   4   1   6  463.00   25.70
  -4   1   6  427.42   27.05
   4   1  -6  419.25   25.55
   4  -1   7  188.93   18.69
   4  -1  -7  188.76   17.93
  -4  -1   7  168.87   17.88
  -4  -1  -7  175.32   16.17
   4   1   7  196.32   16.87
  -4   1   7  157.62   16.53
   4   1  -7  201.96   17.92
   4   1   8    5.86    2.78
   4   1  -8    3.43    1.54
  -4  -1  -8   -2.44    2.59
  -4   1   8    1.62    2.19
   4  -1  -8    7.78    4.13
   4  -1   8    4.39    3.85
  -4  -1   8    0.72    2.09
   4  -1  -9  183.14   17.57
  -4  -1   9  185.30   19.23
   4  -1   9  170.52   18.01
   4   1   9  184.37   16.31
  -4   1   9  164.23   17.64
  -4  -1  -9  189.87   17.10
   4   1  -9  192.37   17.72
   4   1  10   16.11    4.90
  -4   1  10    8.86    4.54
   4  -1 -10    5.08    2.89
  -4  -1  10   11.56    5.37
   4  -1  10   14.78    5.87
  -4  -1 -10    8.99    4.23
  -4  -1  11   58.04   11.04
  -4   1  11   35.60    7.91
   4  -1 -11   33.42    7.68
   4   1  11   44.48    8.31
   4  -1  11   24.51    7.19
  -4   1  12   39.65    8.90
   4  -1  12   53.71   10.53
  -4  -1  12   35.59    9.35
   4   1  12   53.40    8.81
   4  -1 -12   55.56   10.19
   4  -1  13   33.37    8.94
  -4   1  13   42.07    9.06
   4  -1  13   40.87    8.94
   4   1  13   39.59    7.73
   4   1  13   36.58    8.43
  -4  -1  13   45.71   10.38
   4  -1 -13   13.48    4.23
  -4   1  14   -1.24    2.07
   4   1  14    7.01    3.94
   4  -1  14    1.90    2.06
  -4  -1  14   -2.18    1.94
   4  -1  14   -1.35    1.45
   4   1  14    4.45    3.18
  -4  -1  15   53.87   10.80
   4  -1  15   32.10    8.80
  -4   1  15   63.57   12.12
   4  -1  15   49.63   10.74
   4   1  15   55.87    9.13
   4   1  15   48.81    9.90
  -4  -1  16   77.92   13.48
  -4   1  16   89.44   14.01
   4  -1  16   62.93   11.87
   4   1  16   79.02   11.15
   4   1  16   65.73   11.48
   4  -1  16   85.06   13.49
  -4   1  17   -0.55    1.63
   4  -1  17    1.00    1.29
   4  -1  17   -1.77    1.92
   4   1  17    1.25    3.23
   4   1  17    3.58    3.06
  -4  -1  17   -0.59    1.17
  -4  -1  18  141.61   18.65
  -4   1  18  124.46   17.35
   4  -1  18  137.30   17.35
   4   1  18  127.60   14.37
   4  -1  18  151.59   18.57
   4   1  18  136.72   17.32
  -4  -1  19   69.80   13.61
   4  -1  19   72.41   12.58
  -4   1  19   79.96   13.90
   4   1  19   77.52   11.37
   4  -1  19   90.92   15.02
   4   1  19   85.54   13.70
  -4   1  20   30.01    9.20
   4   1  20   28.06    7.11
  -4  -1  20   19.12    8.21
   4  -1  20   26.49    8.04
   4   1  20   26.65    8.29
  -4   1  21   51.19   11.96
   4   1  21   48.15    8.84
  -4  -1  21   52.34   12.54
   4  -1  21   50.65   11.20
   4   1  21   51.01   11.23
  -4  -1  22   83.67   15.07
  -4   1  22   79.42   14.50
   4  -1  22  102.41   16.30
   4   1  22   88.77   14.52
  -4   1  23   10.59    6.78
   4   1  23    2.86    1.80
  -4  -1  23    8.53    6.73
   4  -1  23    6.20    4.53
   4   1  23    1.62    1.79
   4  -1  24   12.79    3.90
  -4   1  24   21.20    8.04
   4   1  24   13.95    3.57
   4  -1  24   33.66    9.80
   4   1  24   25.28    8.23
  -4  -1  24   10.54    5.81
  -4  -1  25  169.51   22.79
   4  -1  25  189.34   16.04
  -4   1  25  200.43   24.29
   4  -1  25  207.36   24.72
   4   1  25  166.82   22.22
   4  -1  26   28.52    9.31
  -4   1  26   24.05    8.23
   4  -1  26   22.02    5.54
   4   1  26   19.88    7.45
  -4  -1  26   30.52   10.27
  -4  -1  27   16.36    8.15
   4   1  27   14.54    6.92
  -4   1  27   10.99    6.09
   4  -1  27   24.44    8.96
  -4  -1  28   -0.15    3.06
   4  -1  28    0.85    2.63
   4   1  28   -2.68    3.55
   4  -1  29    9.11    6.54
   4   1  29    4.91    5.77
  -4  -1  29    1.00    2.90
   4  -1  30    9.46    7.43
   4   1  30   -0.15    2.60
   4  -1  31    0.29    3.18
   4   1  31    3.42    5.87
   4  -1  32    0.44    2.56
   4   1  32   -5.23    4.79
   4  -1  33   11.74    8.83
   4   1  33   20.03    8.89
   4  -1  34   62.04   16.87
   4   1  34   56.44   16.17
   4  -1  35   -0.61    2.51
   4   1  35    7.10    7.22
   4  -1  36    0.64    3.07
   4   1  36    0.68    3.90
  -4  -2   0  566.96   29.91
   4  -2   0  521.33   31.56
  -4  -2   1  117.25   13.80
   4  -2   1  103.11   14.50
  -4  -2  -1  123.91   13.89
   4   2  -1   59.83    9.73
  -4   2   1  100.78   13.77
   4  -2  -1  108.82   14.60
  -4   2  -1  100.52   13.16
  -4   2  -2  188.34   18.37
   4  -2   2  186.87   19.18
  -4  -2   2  193.46   17.98
  -4  -2  -2  184.70   16.76
   4  -2  -2  178.85   18.35
  -4   2   2  187.60   18.35
   4   2  -2  184.85   16.43
   4   2   2  229.52   17.67
  -4  -2   3  434.21   27.34
  -4   2   3  434.55   27.65
  -4  -2  -3  492.44   27.09
   4   2   3  461.81   24.91
   4  -2  -3  420.07   27.69
   4   2  -3  410.01   24.77
  -4  -2   4  234.54   20.25
   4   2  -4  232.41   18.73
  -4   2   4  278.33   22.03
   4   2   4  273.14   19.11
  -4  -2  -4  263.41   19.79
   4  -2  -4  237.29   20.86
   4  -2  -5   20.02    5.63
  -4   2   5   27.83    6.93
   4   2   5   23.57    5.86
  -4  -2   5   29.80    7.74
  -4  -2  -5   37.92    7.61
   4   2  -5   29.78    7.24
   4   2   6   56.27    8.75
   4  -2  -6   53.33   10.06
   4  -2   6   51.36   10.28
  -4  -2  -6   40.48    7.49
   4   2  -6   54.90    9.33
  -4  -2   6   64.48   11.18
  -4   2   6   56.34    9.94
  -4   2   7   12.61    4.02
  -4  -2   7   22.85    6.14
   4  -2   7   22.59    6.82
   4   2   7   14.88    4.81
  -4  -2  -7   16.22    4.60
   4  -2  -7   10.53    5.16
   4   2  -7   16.34    5.46
   4   2   8  234.64   17.59
   4  -2  -8  237.97   20.76
   4  -2   8  195.44   19.84
  -4  -2  -8  238.55   18.69
  -4  -2   8  199.39   19.62
  -4   2   8  212.01   19.87
  -4   2   9  698.16   36.37
   4  -2  -9  713.46   35.99
   4  -2   9  638.87   36.17
   4   2   9  716.97   30.51
  -4  -2  -9  750.47   32.78
  -4  -2   9  725.73   38.32
   4   2  10  553.65   26.57
  -4  -2 -10  542.50   28.12
   4  -2  10  494.55   31.73
   4  -2 -10  514.32   30.61
  -4   2  10  525.26   31.61
  -4  -2  10  522.58   32.99
  -4  -2  11    1.52    2.06
   4  -2  11   -0.14    2.48
   4  -2 -11   -1.44    1.49
   4   2  11    3.68    2.85
  -4   2  11    3.61    2.96
  -4  -2 -11   -0.52    2.49
   4   2  12   38.53    8.55
  -4   2  12   46.33    9.65
  -4  -2  12   33.59    8.54
   4  -2 -12   34.03    7.92
   4  -2  12   28.13    7.63
   4   2  12   28.61    5.95
   4   2  13  155.26   13.78
   4   2  13  182.69   18.04
  -4  -2  13  142.79   17.84
   4  -2 -13  149.45   16.57
  -4   2  13  147.81   17.30
   4  -2  13  154.66   17.92
   4   2  14  147.83   16.41
   4   2  14  150.43   13.76
  -4  -2  14  142.61   17.92
   4  -2 -14  130.73   15.68
   4  -2  14  158.64   18.43
  -4   2  14  131.72   16.46
   4  -2 -15    7.67    4.24
  -4  -2  15   11.51    6.52
  -4   2  15   16.65    6.73
   4   2  15    9.41    3.34
   4   2  15   21.13    6.80
   4  -2  15    5.41    2.78
   4   2  16   79.46    9.78
  -4   2  16   64.47   12.37
   4  -2  16   52.02   10.72
   4   2  16   69.49   12.14
   4  -2  17    4.41    3.75
  -4  -2  17   10.06    5.29
  -4   2  17    2.73    1.77
   4   2  17    9.58    3.77
   4   2  17    4.36    2.77
  -4  -2  18   35.26    9.45
   4   2  18   28.12    8.18
  -4   2  18   30.71    8.58
   4   2  18   31.75    6.01
   4  -2  18   16.07    6.03
  -4  -2  19   51.32   11.83
   4   2  19   36.10    6.34
  -4   2  19   31.51    8.39
   4  -2  19   37.09    9.49
   4   2  19   42.72    9.90
   4   2  20   58.65    7.68
   4   2  20   75.04   13.05
  -4  -2  20   65.68   13.53
  -4   2  20   36.07    9.43
   4  -2  20   69.94   13.05
   4   2  21   28.68    8.09
  -4  -2  21    2.61    3.59
   4   2  21   13.12    3.52
  -4   2  21   18.66    7.26
   4  -2  21   12.73    5.84
   4  -2  22  250.28   24.84
   4   2  22  277.72   25.65
  -4   2  22  278.10   26.68
   4   2  22  208.93   10.26
  -4  -2  22  292.67   29.24
  -4   2  23   14.47    7.12
   4  -2  23   22.52    8.40
  -4  -2  23   15.93    6.20
   4   2  23   22.59    7.58
   4   2  24   64.18   13.52
   4  -2  24   30.12    7.41
   4  -2  24   37.38   10.62
  -4  -2  24   44.14   11.65
  -4   2  24   53.27   12.67
   4   2  25    6.19    6.09
   4  -2  25   15.63    5.41
  -4  -2  25   12.22    7.63
  -4   2  25   11.41    6.41
   4  -2  25   17.12    7.08
   4  -2  26    4.24    4.77
   4   2  26   14.97    5.75
   4  -2  26   13.87    4.81
  -4  -2  26   13.31    7.14
  -4   2  26   25.64    9.10
   4   2  27    1.37    2.12
   4  -2  27   -2.03    2.61
  -4  -2  27    2.05    4.00
   4   2  28   65.53   14.54
  -4  -2  28   60.05   15.47
   4  -2  28   71.61   15.97
   4  -2  29   13.07    7.86
   4   2  29   19.81   10.13
  -4  -2  29   14.30    6.93
   4   2  30   98.35   19.07
   4  -2  30   78.99   17.31
   4  -2  31  104.17   20.43
   4   2  31  142.17   22.75
   4  -2  32   49.67   14.28
   4   2  32   51.25   14.26
   4  -2  33   -2.93    2.82
   4   2  33    9.64    7.61
   4  -2  34    0.71    4.45
   4   2  34   -2.96    5.20
   4   2  35   11.43    6.34
   4  -2  35   28.06   12.86
   4  -2  36   -0.04    3.56
   4   2  36   23.31   11.86
   4   2  37    9.13    7.51
   4  -3   0   55.43   10.85
  -4  -3   0   56.26    9.54
  -4  -3  -1   39.72    8.25
   4  -3   1   24.79    7.98
  -4  -3   1   30.23    7.42
   4  -3  -1   21.38    7.54
   4   3   1   51.19    8.48
   4   3  -1   -0.13    0.89
   4  -3   2    6.20    3.23
   4  -3  -2    4.33    3.48
  -4   3   2   -0.20    2.86
  -4  -3   2   -0.42    2.02
  -4  -3  -2    4.04    2.82
   4   3   2    0.86    0.95
   4   3  -2   -0.33    0.80
   4   3   3  326.36   20.71
  -4  -3  -3  300.34   21.49
   4  -3   3  256.28   23.29
   4   3  -3  298.32   21.34
  -4   3   3  302.32   23.79
   4  -3  -3  290.30   24.34
  -4  -3   3  287.62   22.79
   4   3   4   71.69    9.64
  -4  -3  -4   90.81   11.81
  -4   3   4   67.07   11.20
   4  -3  -4   51.91   10.33
   4   3  -4   53.52    9.16
  -4  -3   4   86.50   12.70
   4   3   5  403.17   22.78
  -4  -3  -5  366.56   23.47
  -4  -3   5  389.01   27.00
   4  -3  -5  377.02   27.90
  -4   3   5  378.71   26.64
  -4  -3  -6   69.87   10.18
  -4   3   6   64.56   11.24
   4  -3  -6   76.10   12.27
   4   3   6   65.72    9.05
  -4  -3   6   63.86   11.48
  -4   3   7  131.81   15.88
  -4  -3  -7  153.93   14.67
   4  -3  -7  109.24   15.30
  -4  -3   7  108.40   14.69
   4   3   7  104.08   11.21
  -4   3   8  120.60   15.47
   4  -3  -8  151.38   17.57
   4   3   8  138.98   13.04
  -4  -3  -8  139.20   14.11
  -4  -3   8  150.01   17.11
   4   3   9    2.68    1.52
  -4  -3   9    4.61    3.93
   4  -3  -9    2.27    2.62
  -4   3   9   -0.64    1.44
  -4  -3  -9    1.80    1.56
   4  -3 -10   75.38   12.28
  -4   3  10  125.31   15.72
  -4  -3 -10   94.95   11.37
   4   3  10  114.70   11.42
  -4  -3  10  112.58   15.35
   4   3  11    3.48    2.11
  -4  -3  11   11.72    4.27
  -4  -3 -11   -0.07    1.07
  -4   3  11   11.97    5.59
   4  -3 -11    6.69    4.53
  -4  -3 -12   16.27    4.76
   4   3  12   11.97    3.58
  -4  -3  12    7.34    4.24
   4   3  12    9.52    4.44
  -4   3  12   10.82    4.64
   4  -3 -12   11.15    5.08
   4  -3  12    9.77    4.81
   4  -3  13  224.52   21.64
   4  -3 -13  229.40   21.09
  -4   3  13  245.68   22.51
   4   3  13  238.98   15.48
  -4  -3 -13  232.37   17.30
   4   3  13  190.39   18.41
  -4  -3  13  229.32   23.27
  -4  -3  14   -2.18    2.15
   4   3  14    1.03    2.74
   4  -3 -14   -1.23    1.39
   4  -3  14    2.68    3.25
  -4   3  14   -2.37    2.28
   4   3  14    2.11    1.91
   4   3  15    6.00    2.56
  -4  -3  15    3.41    3.50
   4   3  15    5.69    4.00
   4  -3 -15    2.13    2.18
  -4   3  15   10.65    5.46
   4  -3  15    0.74    2.59
   4   3  16    0.92    1.32
   4  -3 -16    1.21    1.95
  -4  -3  16   -0.02    4.24
  -4   3  16   -2.85    3.59
   4   3  16   -3.34    3.72
   4  -3  16   -2.82    3.67
   4   3  17    8.46    2.70
   4  -3 -17    3.09    2.45
  -4  -3  17   12.95    7.11
   4  -3  17    5.18    3.63
   4   3  17    1.10    1.10
  -4   3  17   10.65    3.83
  -4   3  18    8.48    4.74
   4   3  18    5.96    2.09
  -4  -3  18    4.98    3.87
   4   3  18   10.55    6.05
   4  -3  18    8.63    4.86
  -4   3  19   62.14   12.19
  -4  -3  19   48.56   11.43
   4  -3  19   38.13    9.87
   4   3  19   48.27    5.20
  -4  -3  20   -4.45    2.98
  -4   3  20    2.91    3.16
   4   3  20    1.34    3.02
   4   3  20    7.92    1.85
   4  -3  20    7.37    4.95
  -4  -3  21   13.22    6.66
  -4   3  21    6.36    1.40
   4  -3  21   12.42    5.40
   4   3  21   19.39    7.01
  -4  -3  22   50.40   12.63
  -4   3  22   49.81   11.25
   4  -3  22   59.20   12.39
   4   3  22   80.23   14.14
  -4  -3  23   -2.38    4.00
  -4   3  23    4.68    5.43
   4  -3  23    0.02    1.65
   4   3  23    2.84    1.86
   4   3  24   12.46    5.45
  -4  -3  24    3.55    2.53
   4  -3  24   25.77    9.07
  -4   3  24   23.13    7.02
   4  -3  25   63.41   14.87
   4  -3  25   51.31   10.00
  -4  -3  25   55.43   13.76
  -4   3  25   52.96   12.32
   4   3  25   49.38   12.69
  -4  -3  26   32.29   10.88
   4  -3  26   41.13    8.95
   4   3  26   36.62   10.40
   4  -3  26   38.07   11.22
   4   3  27   10.13    4.74
  -4  -3  27    7.79    6.50
   4  -3  27   12.21    4.72
   4  -3  27   10.91    5.76
   4   3  28    1.17    2.61
  -4  -3  28    9.66    7.52
   4  -3  28    2.65    3.34
   4  -3  28    5.34    2.01
   4  -3  29   21.22    9.48
  -4  -3  29    5.44    3.96
   4   3  29   28.76   10.62
   4  -3  30   14.59    7.19
  -4  -3  30   12.19    8.48
   4  -3  31   13.58    6.88
   4   3  31    4.29    4.77
   4  -3  32   -3.00    3.98
   4   3  32   -1.28    2.10
   4  -3  33   23.66   11.83
   4   3  33   36.66   11.58
   4  -3  34   -3.82    5.98
   4   3  34    4.22    6.60
   4   3  35   35.62   12.96
   4  -3  35   17.14   11.38
   4   3  36   -2.09    4.61
   4   3  37   -7.24    6.12
   4   4   0 1019.41   39.18
  -4  -4   0 1069.58   42.85
   4  -4  -1  319.14   26.49
  -4  -4   1  380.29   25.82
   4   4   1  318.01   21.35
  -4  -4  -1  289.32   22.09
   4  -4  -2  697.58   40.15
  -4  -4   2  783.65   37.82
   4   4   2  774.63   32.89
  -4  -4  -2  800.24   36.19
   4  -4  -3  535.88   35.22
  -4  -4  -3  536.89   29.40
   4   4   3  528.48   26.81
  -4  -4   3  588.56   32.91
  -4  -4   4    0.48    1.99
   4  -4  -4    3.74    3.95
  -4  -4  -4    5.74    2.69
   4   4   4    8.20    3.32
  -4  -4  -5  193.27   17.56
   4   4   5  161.75   14.50
  -4  -4   5  162.03   17.89
   4  -4  -5  163.29   19.47
   4  -4  -6   16.38    6.11
   4   4   6   16.46    4.35
  -4  -4  -6   10.73    3.83
  -4  -4  -7  127.08   13.87
  -4  -4   7  134.48   16.64
   4   4   7  116.23   11.82
   4  -4  -7   97.84   14.72
  -4   4   8  185.02   19.33
  -4  -4  -8  158.50   15.25
   4   4   8  188.92   14.72
   4  -4  -8  173.39   20.37
  -4  -4   8  198.47   20.74
  -4  -4  -9    0.24    0.89
  -4  -4   9   10.46    5.88
   4  -4  -9    3.64    3.21
  -4   4   9   -0.21    2.76
   4   4   9    7.26    3.00
  -4  -4  10   25.86    7.73
   4  -4 -10   24.69    7.88
  -4   4  10   17.60    5.97
  -4  -4 -10   23.17    5.72
   4   4  10   12.85    3.67
  -4  -4  11    7.51    4.42
  -4   4  11   14.96    6.06
   4   4  11   16.39    3.90
  -4  -4 -11    6.56    3.07
   4   4  11   16.41    5.47
   4  -4 -11    8.03    5.52
   4  -4 -12   97.89   14.22
   4   4  12  113.65   13.83
  -4   4  12  113.17   15.45
   4   4  12  118.65   10.68
   4  -4  12  112.14   15.30
  -4  -4  12  102.73   15.34
  -4  -4 -12   96.32   11.51
  -4  -4  13    5.80    4.86
  -4   4  13   -0.45    1.70
  -4  -4 -13    0.89    1.88
   4   4  13    2.88    2.28
   4  -4 -13    1.01    3.00
   4  -4  13    0.56    3.70
   4   4  13    5.45    2.83
   4  -4 -14  113.54   15.46
  -4  -4 -14  108.32   11.80
   4   4  14  110.25    9.35
  -4   4  14   96.28   14.53
   4  -4  14   84.49   13.43
   4   4  14   92.57   12.63
  -4  -4  14  107.85   16.34
   4   4  15   16.67    3.58
   4  -4 -15   16.78    6.27
  -4  -4  15   21.16    8.20
   4  -4  15   22.66    7.80
   4   4  15   17.65    5.94
  -4   4  15    9.47    3.56
  -4  -4  16    2.39    2.61
   4  -4 -16    4.81    3.53
  -4   4  16    8.57    5.16
   4   4  16    8.20    4.05
   4   4  16    5.52    1.97
   4  -4  16   11.83    5.69
   4  -4  17   32.19    8.91
   4  -4 -17   25.11    7.21
  -4   4  17   32.36    8.37
   4   4  17   25.48    3.59
   4   4  17   24.25    7.21
  -4  -4  17   37.43    9.79
  -4   4  18   32.54    8.91
  -4  -4  18   30.13    9.28
   4  -4 -18   23.55    7.11
   4  -4  18   13.36    5.75
   4   4  18   24.29    2.94
   4   4  18   16.10    5.60
  -4  -4  19    4.87    5.23
   4   4  19    1.90    2.37
   4  -4  19    2.05    4.00
  -4   4  19   -1.86    2.17
  -4   4  20  156.28   19.06
   4  -4  20  174.63   21.01
   4   4  20  154.72   17.99
  -4  -4  20  159.47   21.78
  -4   4  21   97.17   15.43
   4   4  21   87.61   14.27
   4  -4  21   90.35   15.19
  -4  -4  21   99.86   17.90
  -4  -4  22   91.41   17.46
   4  -4  22   89.67   15.58
   4   4  22   89.86   15.36
  -4   4  22  111.83   16.33
   4   4  23  224.35   23.60
  -4   4  23  203.10   21.70
  -4  -4  23  223.70   27.09
   4  -4  23  221.71   24.88
  -4   4  24   80.10   13.38
   4  -4  24   93.31   17.11
   4   4  24   80.55   14.43
  -4  -4  24   99.66   18.43
  -4  -4  25  142.36   22.35
   4  -4  25  130.66   16.43
   4   4  25  124.97   18.31
   4  -4  25  152.81   22.98
   4  -4  26   20.99    9.02
   4   4  26   28.58    9.43
  -4  -4  26   14.75    7.80
   4  -4  26   23.65    7.24
   4   4  27   21.12    7.93
  -4  -4  27   24.72   10.52
   4  -4  27   14.13    6.17
   4  -4  27   38.78   12.70
   4  -4  28   18.24    8.47
  -4  -4  28    4.67    4.59
   4  -4  28   12.59    5.64
   4   4  28   10.79    6.26
   4  -4  29   -4.28    5.26
  -4  -4  29    2.39    2.76
   4   4  30   15.77    7.77
   4  -4  30    4.27    4.95
  -4  -4  30    4.89    4.67
   4  -4  31   17.20    9.06
   4   4  31    2.43    2.07
  -4  -4  31    9.90    6.49
   4  -4  32   13.74    6.92
   4   4  32    7.25    7.08
   4  -4  33   25.03   11.02
   4   4  33   33.68   12.30
   4  -4  34   23.26   12.35
   4   4  34   34.72   12.79
   4  -4  35   -4.48    6.79
   4   4  35   -4.68    5.46
   4   4  36    7.87    8.54
   4   4  37   12.34    9.81
  -4  -5   0  844.97   39.22
  -4  -5   1   64.27   10.93
  -4  -5  -1   69.84   11.32
   4   5   2   84.61   11.17
  -4  -5  -2   80.45   12.09
  -4  -5   2  105.34   14.71
  -4  -5   3   92.35   13.41
   4   5   3   85.23   11.40
  -4  -5  -3   59.32   10.04
  -4  -5   4   24.70    7.39
   4   5   4   24.25    5.76
  -4  -5  -4   35.20    7.59
  -4  -5   5   -2.53    3.41
  -4  -5  -5   -0.89    2.69
   4   5   5   -0.40    1.44
  -4  -5  -6  108.93   13.45
   4   5   6  121.03   12.66
  -4  -5   6  103.31   15.17
  -4  -5  -7  168.82   16.37
  -4  -5   7  172.89   19.79
   4   5   7  138.20   13.02
  -4  -5  -8  277.79   20.75
   4   5   8  262.21   17.69
  -4  -5   8  241.35   23.51
  -4  -5  -9   76.16   10.99
   4   5   9   66.80    8.78
  -4  -5   9   46.11   10.90
  -4  -5  10  367.39   29.46
  -4  -5 -10  344.64   22.48
   4   5  10  374.74   20.27
  -4  -5  11   28.65    8.70
   4   5  11   41.21    6.55
  -4  -5 -11   46.16    7.95
   4  -5  11   45.43   10.04
   4   5  11   38.57    7.55
   4   5  12   87.83    9.12
  -4  -5 -12   87.86   11.19
  -4  -5  12   96.05   15.68
   4  -5  12   75.49   12.77
   4   5  12  103.20   12.42
   4   5  13  168.11   16.30
   4   5  13  151.70   11.44
   4  -5  13  137.65   17.24
  -4  -5 -13  169.91   15.21
  -4  -5  13  150.11   19.81
  -4  -5  14   39.16   10.64
   4   5  14   42.25    5.63
   4  -5  14   31.20    8.56
   4   5  14   42.02    8.27
  -4  -5 -14   35.38    6.58
  -4  -5  15    0.63    1.84
  -4  -5 -15    3.07    2.43
   4  -5  15   -0.54    2.85
   4   5  15    0.57    0.96
   4   5  15   -0.29    1.75
   4  -5  16    0.86    2.28
  -4  -5  16    7.13    4.78
   4   5  16    2.85    1.29
   4   5  16    2.78    3.37
  -4  -5  17   12.88    7.38
   4  -5  17    3.63    3.93
   4   5  17    4.65    1.34
   4   5  17   10.33    4.68
  -4  -5  18   30.46   10.47
   4  -5  18   20.49    6.96
   4   5  18   28.49    7.69
  -4  -5  19   14.85    5.71
   4  -5  19    6.86    4.06
   4   5  19    3.02    3.25
  -4  -5  20    2.77    4.33
   4   5  20   -1.99    3.17
   4  -5  20   -0.80    1.85
   4   5  21   -4.25    3.15
  -4  -5  21   -0.03    3.08
   4  -5  22  194.93   22.93
   4   5  22  201.38   21.80
  -4  -5  22  238.40   28.34
  -4  -5  23   -3.61    3.98
   4   5  23    2.90    3.62
   4  -5  23    5.99    4.80
   4   5  24   -1.43    3.69
  -4  -5  24    9.13    5.70
   4  -5  24    8.35    5.33
   4  -5  24   16.28    7.95
  -4  -5  25   13.15    7.58
   4   5  25   18.39    7.62
   4  -5  25   27.36    8.30
   4  -5  25    4.61    5.58
  -4  -5  26   48.54   13.19
   4  -5  26  102.55   18.47
   4  -5  26   73.68   13.43
   4   5  26   98.65   16.41
   4   5  27    8.23    6.76
  -4  -5  27    0.44    3.11
   4  -5  27    0.92    2.23
   4  -5  28    2.22    3.95
   4   5  28   -3.60    2.19
  -4  -5  28    8.18    5.77
   4  -5  28   -4.57    5.14
   4   5  29   12.49    7.54
   4  -5  29    8.46    4.16
  -4  -5  29   -4.06    5.56
   4  -5  29    7.40    4.87
   4  -5  30    4.02    3.04
  -4  -5  30    6.02    5.32
   4   5  30   -4.22    4.73
   4   5  31    6.78    6.34
  -4  -5  31    4.32    5.82
   4  -5  31    2.57    4.35
   4  -5  32   54.00   15.23
   4   5  32   60.12   15.32
   4  -5  33   12.77    7.74
   4   5  33    7.40    7.00
   4  -5  34    0.24    5.49
   4   5  34   -4.96    3.71
   4   5  35   16.45    6.78
   4   5  36    2.10    3.84
   4   5  37    0.88    4.42
  -4  -6   0  165.55   18.22
  -4  -6   1  537.09   33.06
  -4  -6  -1  536.49   31.79
  -4  -6   2 1007.40   45.88
  -4  -6  -2  916.66   41.26
  -4  -6  -3  375.96   26.11
  -4  -6   3  349.70   27.50
  -4  -6   4  635.60   37.23
  -4  -6  -4  578.48   32.22
   4   6  -5  320.82   21.33
   4   6   5  336.02   22.59
  -4  -6  -5  356.31   25.42
  -4  -6   5  349.11   27.90
   4   6  -6  463.69   25.94
   4   6   6  467.27   25.50
  -4  -6   6  500.15   33.79
  -4  -6  -6  515.51   29.85
   4   6   7  368.63   22.16
  -4  -6   7  345.14   28.60
  -4  -6  -7  382.11   25.48
  -4  -6  -8  131.81   15.08
   4   6   8  104.39   12.02
  -4  -6   8  110.74   16.26
  -4  -6  -9  165.35   16.49
   4   6   9  125.94   12.47
  -4  -6   9  139.11   18.97
  -4  -6 -10   70.78   10.59
   4   6  10   55.01    8.07
  -4  -6  10   58.33   13.36
   4   6  10   53.64    8.43
   4   6  11    6.00    2.83
   4  -6  11    2.53    2.15
  -4  -6 -11    6.96    3.73
  -4  -6  11    0.25    1.84
   4   6  11    8.04    3.45
   4   6  12    0.18    1.64
   4  -6  12    8.12    5.24
  -4  -6 -12    1.14    1.38
   4   6  12    6.38    3.39
  -4  -6  12    2.86    4.09
   4   6  13   66.45    7.94
  -4  -6 -13   74.14   10.43
  -4  -6  13   92.78   15.86
   4  -6  13   66.49   12.15
   4   6  13   64.60   10.11
   4   6  14   97.40    8.98
  -4  -6 -14  129.54   13.05
  -4  -6  14  126.93   19.19
   4  -6  14  114.52   16.06
   4   6  14  119.78   13.84
  -4  -6  15  197.02   23.91
   4  -6  15  215.78   22.63
   4   6  15  212.79   18.68
  -4  -6 -15  184.96   15.24
  -4  -6  16  231.61   26.49
  -4  -6 -16  246.83   16.43
   4  -6  16  244.41   24.10
   4   6  16  203.48   18.22
  -4  -6  17  350.85   32.85
   4  -6  17  328.70   28.38
   4   6  17  311.73   22.87
  -4  -6  18  290.10   30.45
   4  -6  18  336.62   29.47
   4   6  18  295.23   23.33
  -4  -6  19  165.45   23.28
   4  -6  19  175.36   21.07
   4   6  19  174.74   19.05
  -4  -6  20  276.26   30.27
   4  -6  20  248.45   25.55
   4   6  20  249.80   22.94
  -4  -6  21   40.53   11.80
   4  -6  21   24.70    8.34
   4   6  21   32.91    8.48
   4   6  22   12.16    5.99
  -4  -6  22   20.41    9.00
   4  -6  22   14.63    7.31
  -4  -6  23  139.39   22.30
   4  -6  23  184.51   23.70
   4   6  23  206.67   22.46
   4  -6  24  152.92   19.71
  -4  -6  24  156.79   23.69
   4   6  24  126.25   17.99
   4  -6  24  116.27   19.54
   4  -6  25  127.55   18.54
  -4  -6  25  141.33   23.42
   4   6  25   99.66   16.18
   4  -6  25  126.73   21.06
   4  -6  26   65.02   14.64
  -4  -6  26   68.80   16.49
   4  -6  26   49.71   11.07
   4   6  26   68.40   14.06
   4   6  27   19.23    7.40
  -4  -6  27   52.33   14.83
   4  -6  27   41.54   11.25
   4  -6  27   20.10    9.09
   4  -6  28   51.00   13.75
   4   6  28   42.71   11.91
  -4  -6  28   33.01   11.54
   4  -6  28   28.85    9.57
   4   6  29   23.82    8.66
  -4  -6  29   39.09   12.96
   4  -6  29   20.83    8.50
   4  -6  29   26.26    8.46
   4   6  30    7.29    6.34
  -4  -6  30    2.37    5.73
   4  -6  30    4.22    4.31
   4  -6  30    7.65    4.90
  -4  -6  31   31.67   11.60
   4   6  31   67.24   15.73
   4  -6  31   45.67   14.36
   4   6  32    6.60    6.53
  -4  -6  32    5.11    6.55
   4  -6  32   10.71    7.33
   4  -6  33   13.73    8.04
   4   6  33   15.24    9.17
   4  -6  34   -0.04    3.13
   4   6  34   12.29    8.37
   4   6  35   39.65   14.69
   4   6  36   43.92   14.53
  -4  -7   0  572.34   35.14
  -4  -7  -1   11.66    5.10
  -4  -7   1   17.14    6.59
  -4  -7  -2  152.19   17.56
  -4  -7   2  150.72   18.46
  -4  -7  -3  203.80   20.51
  -4  -7   3  248.18   23.83
  -4  -7  -4   17.88    6.15
   4   7  -4   18.68    4.67
  -4  -7   4   26.89    7.65
  -4  -7  -5    1.14    3.10
   4   7  -5    0.64    1.57
  -4  -7   5    0.06    2.35
  -4  -7  -6    7.49    3.43
   4   7  -6    9.43    3.84
  -4  -7   6   16.12    6.57
  -4  -7  -7    1.29    1.32
  -4  -7   7    4.66    5.27
  -4  -7  -8   25.91    6.57
   4   7   8   13.51    4.88
  -4  -7   8   11.99    6.81
  -4  -7  -9   17.29    6.32
   4   7   9   12.81    4.53
  -4  -7   9   18.72    7.07
   4   7   9   13.24    4.25
  -4  -7  10    3.15    4.31
   4   7  10    4.52    2.56
  -4  -7 -10    3.88    3.11
   4  -7  10    0.83    1.65
   4   7  10    3.37    2.82
   4   7  11    6.75    3.38
   4   7  11    5.03    2.74
  -4  -7 -11    6.82    3.15
   4  -7  11    0.92    2.09
  -4  -7  11    9.94    6.17
   4   7  12   47.42    7.76
  -4  -7 -12   74.65   11.06
   4   7  12   44.47    7.13
   4  -7  12   53.98   10.61
  -4  -7  12   39.91   10.09
   4  -7  13   91.51   14.27
  -4  -7 -13   89.59   11.80
  -4  -7  13   79.29   15.17
   4   7  13  104.98   12.22
   4   7  14    2.11    2.41
   4  -7  14    4.43    3.02
  -4  -7 -14    4.70    3.02
  -4  -7 -15    2.38    2.12
   4   7  15    0.27    1.98
   4  -7  15    5.25    4.49
  -4  -7  15    2.43    2.53
  -4  -7 -16    0.57    1.06
   4   7  16    3.54    1.28
   4  -7  16    6.39    5.55
  -4  -7  16   -2.79    3.49
   4  -7  17   -1.50    1.83
  -4  -7 -17    0.63    0.86
   4   7  17    0.63    1.85
   4   7  18   -2.28    1.18
   4  -7  18    1.96    3.67
   4  -7  19    6.40    6.16
   4   7  19    4.52    2.84
  -4  -7  19   13.94    9.58
  -4  -7  20   97.40   18.68
   4  -7  20   83.80   15.03
   4   7  20   85.50   13.18
  -4  -7  21   17.89    8.99
   4   7  21   18.25    6.30
   4  -7  21   22.74    8.08
   4   7  22  187.85   20.25
  -4  -7  22  160.50   24.48
   4  -7  22  180.89   23.14
  -4  -7  23    1.61    3.53
   4   7  23    0.89    2.07
   4  -7  23   -2.80    4.46
  -4  -7  24    9.85    7.91
   4  -7  24   17.26    7.27
   4  -7  24   21.84    7.71
   4   7  24   34.56    9.51
   4   7  25   24.16    7.77
   4  -7  25   19.99    8.04
   4  -7  25   43.22   12.11
  -4  -7  25   15.10    7.16
  -4  -7  26   63.91   16.56
   4  -7  26   39.34   10.47
   4   7  26   66.22   13.71
   4  -7  26   62.94   14.41
   4  -7  27    6.33    5.11
  -4  -7  27   -1.27    5.57
   4   7  27    8.73    5.30
   4  -7  27    4.95    5.99
   4  -7  28    8.36    5.48
   4   7  28    3.16    3.61
   4  -7  28    5.44    5.32
  -4  -7  28   10.22    7.50
   4  -7  29    2.63    4.65
   4   7  29    3.38    4.61
  -4  -7  29    6.82    6.52
   4  -7  29    3.52    3.47
   4  -7  30    7.65    7.10
   4   7  30   -4.75    5.91
  -4  -7  30   11.97    7.53
   4  -7  30    7.56    4.78
   4  -7  31   11.94    7.48
   4   7  31   -4.63    6.37
  -4  -7  31    1.59    3.86
   4  -7  32   25.76   11.80
   4   7  32   10.35    5.72
  -4  -7  32   28.81   13.83
   4  -7  33    1.51    3.32
   4   7  33    4.54    3.22
   4   7  34   58.93   15.50
  -4  -8   0   10.33    6.44
   4   8  -1  472.90   21.38
  -4  -8   1  516.63   34.55
  -4  -8  -1  492.56   33.48
   4   8  -2   -0.65    1.46
  -4  -8  -2    1.11    3.00
  -4  -8   2    1.68    3.83
   4   8  -3  144.44   12.46
  -4  -8   3  189.05   21.21
  -4  -8  -3  159.02   18.24
  -4  -8  -4   29.73    7.98
   4   8  -4   32.59    6.31
  -4  -8   4   30.36    8.09
   4   8  -5    8.15    3.08
  -4  -8  -5    5.66    4.89
  -4  -8   5    8.39    4.81
  -4  -8  -6    0.83    2.47
   4   8  -6    1.33    1.56
  -4  -8   6    0.64    2.44
  -4  -8  -7   37.86    8.68
  -4  -8   7   49.34   12.16
   4   8   7   39.50    6.10
   4   8   8   58.97    7.56
  -4  -8  -8   69.75   12.04
  -4  -8   8   46.76   11.94
  -4  -8   9   70.81   14.60
   4  -8   9   82.92   13.46
   4   8   9   87.19    9.48
  -4  -8  -9  100.13   13.86
   4  -8  10    1.15    2.18
  -4  -8 -10    6.57    3.76
   4   8  10    1.94    1.56
  -4  -8  10    1.79    5.00
  -4  -8 -11   18.18    5.92
   4  -8  11   10.79    4.98
   4   8  11    6.29    2.82
  -4  -8  11    5.12    4.89
  -4  -8  12    1.72    4.35
  -4  -8 -12    5.49    3.88
   4   8  12    6.71    3.06
   4  -8  12    3.80    3.44
  -4  -8 -13  140.87   15.67
  -4  -8  13  182.48   23.76
   4  -8  13  170.64   19.72
   4   8  13  161.70   13.97
   4  -8  14   12.42    6.07
  -4  -8  14    2.43    1.81
  -4  -8 -14    8.31    4.39
  -4  -8 -15   44.31    8.61
   4   8  15   66.44    9.91
   4  -8  15   30.15    8.90
  -4  -8  15   51.61   13.00
  -4  -8  16    5.48    3.46
  -4  -8 -16    0.58    2.28
   4   8  16    6.77    4.13
   4  -8  16   10.11    6.17
   4   8  17    4.21    2.81
   4  -8  17   14.54    6.49
  -4  -8 -17   10.99    3.71
   4   8  18   -2.74    2.39
  -4  -8  18   -3.61    4.03
   4  -8  19   59.45   12.84
   4   8  19   82.19   12.33
  -4  -8  19   65.35   15.27
   4   8  20   12.04    5.52
   4  -8  20   29.54    9.10
  -4  -8  20   25.51   10.99
  -4  -8  21  170.50   25.72
   4  -8  21  137.77   20.55
   4   8  21  148.20   17.72
  -4  -8  22   -2.85    5.84
   4  -8  22    1.91    1.55
   4   8  22    2.27    3.40
   4  -8  23  113.39   18.68
  -4  -8  23   94.15   19.50
   4  -8  23  117.87   20.21
   4   8  23  122.67   16.79
  -4  -8  24   16.13    8.05
   4   8  24    4.83    3.69
   4  -8  24    8.44    3.05
   4  -8  24   16.50    8.44
   4   8  25   26.16    7.50
  -4  -8  25   35.85   11.86
   4  -8  25   33.55   10.44
   4  -8  25   41.56   12.49
  -4  -8  26    6.26    8.29
   4   8  26    1.40    3.85
   4  -8  26    3.20    1.66
   4  -8  27    1.98    2.98
   4   8  27   -8.79    5.57
  -4  -8  27   -3.64    3.64
   4  -8  27    0.29    3.78
  -4  -8  28   -0.48    3.54
   4   8  28    6.42    4.59
   4  -8  28    5.83    4.15
   4  -8  28   -0.06    2.04
  -4  -8  29   22.84    9.89
   4  -8  29   24.40    8.67
   4  -8  29   43.26   13.42
   4   8  29    9.75    5.81
  -4  -8  30   22.05   11.52
   4   8  30   18.47    8.70
   4  -8  30   15.83    8.12
   4  -8  30   17.67    9.93
  -4  -8  31   -2.98    4.30
   4  -8  31    0.72    3.38
   4  -8  31    4.30    6.58
  -4  -8  32    4.75    8.00
   4  -8  32    1.69    2.57
  -4  -8  33   26.94   12.10
   4   9   0    8.36    2.73
  -4  -9   0   15.91    6.68
   4   9   1   92.29    8.18
   4   9  -1   83.75    8.27
  -4  -9   1   75.77   14.14
   4   9  -2    2.96    1.56
  -4  -9  -2    5.74    2.62
   4   9  -3   -1.27    1.80
  -4  -9   3   -0.60    2.89
  -4  -9  -3    3.50    2.13
   4   9  -4   19.33    4.40
  -4  -9   4   24.60    7.99
  -4  -9  -4   23.60    7.42
  -4  -9   5   45.71   10.93
  -4  -9  -5   53.96   10.97
   4   9  -5   47.19    7.42
  -4  -9   6  168.69   21.84
   4   9   6  158.36   10.33
  -4  -9  -6  155.97   18.89
   4   9  -6  129.57   13.00
  -4  -9  -7    1.57    2.96
  -4  -9   7   -0.56    2.45
   4  -9   7    5.67    3.40
   4   9   7   -0.70    0.99
  -4  -9  -8   -0.78    2.59
   4  -9   8    1.43    3.33
  -4  -9   8    2.02    3.59
   4   9   8    1.39    0.93
  -4  -9   9  112.86   18.35
   4  -9   9  106.09   14.81
   4   9   9  102.78    8.87
  -4  -9  -9   99.46   14.59
  -4  -9 -10    2.35    2.80
   4  -9  10    2.83    4.68
  -4  -9  10   -3.51    4.26
   4   9  10    1.28    1.36
  -4  -9  11   89.98   17.01
   4  -9  11   92.93   14.53
   4   9  11  107.76   10.08
  -4  -9 -11  118.54   15.47
   4   9  12    1.20    1.44
  -4  -9 -12   -0.75    1.96
   4  -9  12   -2.46    3.72
  -4  -9  12    0.66    3.16
  -4  -9 -13  118.00   15.31
  -4  -9  13   69.33   14.69
   4  -9  13   92.10   14.80
   4   9  13  100.75   10.79
  -4  -9 -14   55.01   10.33
  -4  -9  14   74.04   16.10
   4  -9  14   67.51   13.16
   4   9  14   74.34    9.58
   4  -9  15   35.23    9.77
  -4  -9 -15   27.97    7.16
  -4  -9  15   29.32   10.57
   4   9  15   43.50    7.95
   4   9  16   14.03    4.60
  -4  -9  16   16.59    8.05
  -4  -9 -16   16.92    5.29
   4  -9  16   11.70    5.89
   4   9  17   -1.04    1.50
   4  -9  17    0.43    3.40
  -4  -9  17    4.71    5.89
   4   9  18   17.79    5.56
   4  -9  18   10.23    5.01
  -4  -9  18   27.63   10.66
   4   9  19    1.50    1.79
  -4  -9  19    4.76    5.77
   4  -9  19   -2.85    4.44
  -4  -9  20    8.64    7.78
   4  -9  20    6.77    4.77
   4   9  20    3.47    2.13
   4   9  21   17.70    5.55
   4  -9  21   18.34    7.58
  -4  -9  21   34.09   12.00
   4  -9  22   25.45    9.50
   4   9  22   10.62    4.96
   4  -9  22    9.09    5.63
  -4  -9  22   22.35   10.09
   4   9  23   78.04   13.63
  -4  -9  23   53.67   15.78
   4  -9  23   64.83   14.77
   4  -9  23   73.77   15.55
  -4  -9  24   26.61   11.63
   4   9  24   53.37   11.51
   4  -9  24   63.59   15.31
   4  -9  24   57.13   14.49
  -4  -9  25    9.91    7.39
   4  -9  25    1.93    2.46
   4  -9  25    3.00    5.71
  -4  -9  26   60.01   17.97
   4  -9  26   62.10   15.06
   4  -9  26   32.19   10.87
   4  -9  27   -0.48    2.53
   4  -9  27   15.74    8.06
  -4  -9  27    2.53    7.81
  -4  -9  28   -3.39    4.99
   4  -9  28   -1.03    4.33
   4  -9  28    3.32    3.66
  -4  -9  29   22.07   11.26
   4  -9  29   27.30   10.21
   4  -9  29   13.32    8.62
   4  -9  30   26.69   10.66
  -4  -9  30    7.03    6.65
   4  -9  30    8.00    6.66
   4  -9  31    9.34    7.16
   4  -9  31   10.44    6.83
  -4  -9  32    5.02    6.99
   4  -9  32   -1.21    3.19
  -4  -9  33   32.59   13.96
  -4 -10   0  160.35   20.67
   4  10   0  115.16    8.21
  -4 -10   1  371.59   32.01
  -4 -10  -1  408.11   32.45
   4  10  -1  352.82   15.73
   4  10   1  340.92   12.92
  -4 -10   2  254.44   26.57
  -4 -10  -2  225.37   23.97
   4  10  -2  231.86   13.69
   4  10   2  229.09    9.62
   4  10   3  288.06    9.84
  -4 -10   3  338.22   31.15
  -4 -10  -3  323.28   28.46
   4  10  -3  283.84   16.10
   4  10   4  102.11    5.71
   4  10   4   98.27    5.85
  -4 -10   4  124.28   18.90
  -4 -10  -4  127.71   17.63
   4  10  -4  123.28   11.27
  -4 -10   5  111.83   17.98
   4  10   5   86.20    5.22
  -4 -10  -5  100.69   15.75
   4  10  -5   96.93   10.62
  -4 -10  -6    6.72    4.04
   4  10  -6    1.67    1.76
   4 -10   6    0.67    2.27
  -4 -10   6    3.22    1.95
  -4 -10  -7  331.46   28.08
   4  10   7  300.98   10.64
  -4 -10   7  384.80   34.73
   4 -10   7  404.36   28.84
   4  10   8   -0.38    0.47
  -4 -10  -8   -0.06    2.31
   4 -10   8    4.61    5.28
  -4 -10   8    0.36    3.75
  -4 -10  -9   20.82    7.23
  -4 -10   9   38.44   11.29
   4  10   9   29.79    4.12
   4 -10   9   35.43    8.58
   4 -10  10   18.82    6.24
   4  10  10   17.30    3.15
  -4 -10 -10   34.05    8.94
  -4 -10  10   26.47    8.87
   4  10  11   -1.95    1.60
  -4 -10 -11    4.07    2.60
  -4 -10  11    5.36    6.16
   4 -10  11    4.50    2.68
   4  10  12    0.28    1.21
  -4 -10 -12    4.03    3.91
  -4 -10  12    0.61    6.55
   4 -10  12    2.66    1.61
   4  10  13   19.75    4.02
  -4 -10  13   19.31    8.24
  -4 -10 -13   23.61    7.01
   4 -10  13   13.44    6.49
  -4 -10 -14  131.11   16.43
  -4 -10  14  111.47   20.44
   4 -10  14  115.67   16.95
   4  10  14  100.32   10.15
  -4 -10 -15  101.96   14.07
  -4 -10  15   92.98   19.03
   4 -10  15  101.56   15.67
   4  10  15   97.43   10.57
   4  10  16   76.98    9.81
  -4 -10  16   56.08   14.44
   4 -10  16   59.69   12.36
  -4 -10  17   69.40   16.32
   4 -10  17   63.82   13.11
  -4 -10  18   34.91   12.72
   4 -10  18   28.38    9.04
  -4 -10  19  257.35   32.77
   4 -10  19  268.14   28.60
  -4 -10  20   46.48   16.86
   4 -10  20   26.70    9.39
   4 -10  21  114.63   20.93
  -4 -10  21  112.48   22.60
   4 -10  21  116.66   19.29
   4 -10  22  105.67   19.74
   4 -10  22   84.98   16.99
  -4 -10  22   70.03   17.87
   4 -10  23   95.49   18.99
   4 -10  23   90.26   17.40
  -4 -10  23   66.84   17.77
   4 -10  24   67.78   15.41
   4 -10  24   93.21   19.48
  -4 -10  24   85.36   20.51
   4 -10  25   72.88   16.86
   4 -10  25  100.09   20.09
  -4 -10  25   89.73   22.01
   4 -10  26    0.03    3.02
  -4 -10  26   -0.13    3.78
  -4 -10  27   36.61   13.95
   4 -10  27   52.21   14.26
   4 -10  27   16.53    7.66
  -4 -10  28    3.47    5.65
   4 -10  28   -1.25    4.74
   4 -10  28   -2.37    3.92
   4 -10  29   67.87   17.81
   4 -10  29   53.48   14.79
  -4 -10  29   25.75   11.87
  -4 -10  30   -4.80    6.30
   4 -10  30   -2.21    3.85
   4 -10  30    6.41    6.95
  -4 -10  31    9.63    9.24
   4 -10  31   -7.98    7.74
   4 -10  31   18.32   10.25
  -4 -10  32    5.39    6.26
  -4 -10  33   15.45    9.91
  -4 -11   0   91.70   16.25
  -4 -11   1   56.86   13.02
  -4 -11  -1   58.17   13.59
  -4 -11  -2    3.93    2.59
  -4 -11   2    4.70    5.36
  -4 -11  -3   44.25   11.23
  -4 -11   3   46.31   12.20
  -4 -11   4  135.83   20.61
  -4 -11  -4  128.28   18.53
   4 -11   4  142.14   16.55
  -4 -11   5   17.64    7.79
   4 -11   5   39.93    8.77
  -4 -11  -5   42.48   10.49
  -4 -11  -6   21.27    7.60
   4 -11   6   31.23    8.39
  -4 -11   6   43.09   12.20
  -4 -11  -7   18.96    7.43
   4 -11   7   15.50    5.71
  -4 -11   7    4.43    5.78
  -4 -11   8   76.23   15.86
  -4 -11  -8   98.19   15.88
   4 -11   8   97.84   14.29
  -4 -11  -9   56.63   11.50
  -4 -11   9   49.15   12.94
   4 -11   9   55.25   11.05
  -4 -11 -10   27.79    8.73
   4 -11  10   10.19    4.06
  -4 -11  10   28.49   10.15
  -4 -11 -11    7.07    4.60
   4 -11  11   -2.57    3.18
  -4 -11  11    4.90    5.86
  -4 -11  12   -3.63    3.70
  -4 -11 -12    2.08    2.66
   4 -11  12   -5.22    4.51
  -4 -11 -13  102.64   15.65
   4 -11  13  115.16   16.66
  -4 -11  13   88.77   18.09
  -4 -11 -14   37.04    8.64
  -4 -11  14   40.09   12.85
   4 -11  14   46.96   10.66
  -4 -11  15    2.70    5.92
   4 -11  15    5.05    4.98
   4 -11  16   -4.18    4.08
  -4 -11  16    6.86    5.20
  -4 -11  17    9.13    7.20
   4 -11  17    5.93    5.70
   4 -11  18   39.12   11.25
  -4 -11  18   23.64   10.69
   4 -11  19    3.93    4.36
  -4 -11  19    4.25    7.11
   4 -11  20   40.75   12.34
   4 -11  20   22.24    9.25
  -4 -11  20   34.25   12.69
   4 -11  21   -4.46    4.47
  -4 -11  21   -2.07    3.59
   4 -11  22   18.59    7.22
   4 -11  22   28.50   10.99
  -4 -11  22   39.84   14.51
   4 -11  23   13.37    7.49
   4 -11  23    6.17    7.68
  -4 -11  23    3.23    6.60
  -4 -11  24   17.47   10.38
   4 -11  24   22.80    9.27
   4 -11  24   30.96   11.92
   4 -11  25   15.00    8.48
   4 -11  25   17.22    8.05
  -4 -11  25   21.12   10.55
  -4 -11  26   14.56    9.63
   4 -11  26    4.27    5.50
   4 -11  26    4.06    6.72
  -4 -11  27   10.48    9.40
   4 -11  27    4.58    6.60
   4 -11  27    5.44    6.67
  -4 -11  28    4.35    3.79
   4 -11  28   11.93    9.15
   4 -11  28   20.22   10.44
  -4 -11  29    0.05    4.00
   4 -11  29    9.29    7.45
   4 -11  29    7.82    7.62
  -4 -11  30   -4.24    8.26
   4 -11  30    4.32    3.79
   4 -11  30    3.70    3.83
  -4 -11  31   68.85   20.86
   4 -11  31   60.35   18.23
  -4 -12   0   96.81   17.43
   4 -12   1   29.56    7.40
  -4 -12  -1   18.49    8.08
  -4 -12   1   22.97    8.38
  -4 -12   2  112.83   19.28
  -4 -12  -2  110.40   18.28
   4 -12   2  125.22   14.71
   4 -12   3   28.69    7.53
  -4 -12   3   13.11    7.08
  -4 -12  -3   36.30   10.41
   4 -12   4    0.89    2.23
  -4 -12  -4    8.45    5.85
  -4 -12   4    2.20    6.01
  -4 -12   5   84.44   17.77
  -4 -12  -5  134.84   19.58
   4 -12   5  111.55   14.30
  -4 -12   6    5.50    3.98
   4 -12   6    5.60    2.29
  -4 -12  -6    4.35    3.06
   4 -12   7   -2.77    3.41
  -4 -12   7    1.22    3.80
  -4 -12  -7    2.36    3.38
  -4 -12  -8   94.91   16.76
  -4 -12   8   89.32   18.19
   4 -12   8   87.54   13.62
  -4 -12  -9    3.74    3.79
  -4 -12   9    0.53    4.35
   4 -12   9   -1.34    1.91
  -4 -12 -10    2.41    3.60
   4 -12  10    3.15    3.04
  -4 -12  10    8.30    5.97
  -4 -12 -11    0.24    1.91
  -4 -12  11   -5.21    5.12
   4 -12  11    1.19    2.92
  -4 -12 -12   39.02   10.11
   4 -12  12   37.07    9.18
  -4 -12  12   20.88    9.81
  -4 -12  13    2.62    2.46
  -4 -12 -13    4.91    4.87
   4 -12  13    3.95    3.94
  -4 -12  14   25.09    9.05
   4 -12  14   37.27    9.89
   4 -12  15    6.36    2.96
  -4 -12  15   -1.41    4.85
   4 -12  16    9.70    4.52
  -4 -12  16   13.60    8.15
  -4 -12  17   45.74   15.05
   4 -12  17   51.75   12.62
  -4 -12  18   25.69   11.55
   4 -12  18   23.34    8.68
   4 -12  19   32.50   11.58
   4 -12  19   46.09   12.66
  -4 -12  19   48.95   15.63
   4 -12  20   16.09    8.45
  -4 -12  20   25.50   10.75
   4 -12  20   19.67    8.89
   4 -12  21   16.61    7.80
   4 -12  21   13.68    8.30
  -4 -12  21   37.41   14.55
   4 -12  22    0.23    3.98
   4 -12  22    6.01    5.57
  -4 -12  22   13.00   10.00
   4 -12  23   -0.45    2.68
   4 -12  23   -5.59    4.58
  -4 -12  23    4.08    8.48
   4 -12  24   57.33   15.04
   4 -12  24   51.48   15.31
  -4 -12  24   78.80   20.30
   4 -12  25   67.69   17.65
  -4 -12  25   59.36   17.92
   4 -12  25   25.41    9.03
   4 -12  26    5.28    2.76
   4 -12  26    6.98    5.82
  -4 -12  26   20.32   12.45
  -4 -12  27   72.02   21.13
   4 -12  27   87.55   21.00
   4 -12  27   85.56   18.46
   4 -12  28    8.18    6.69
  -4 -12  28    0.10    6.54
   4 -12  28    3.62    5.48
   4 -12  29    1.36    3.55
   4 -12  29    3.27    8.12
  -4 -13   0   55.54   14.02
  -4 -13   1   57.21   14.91
  -4 -13  -1   63.96   15.22
  -4 -13   2    3.46    4.20
  -4 -13  -2   18.42    8.09
  -4 -13  -3    2.83    3.61
  -4 -13   3    3.24    2.85
  -4 -13   4   27.67   11.01
  -4 -13  -4   10.43    6.53
   4 -13   5    6.69    4.07
  -4 -13  -5    3.43    3.62
  -4 -13   6   11.00    7.61
  -4 -13  -6   -1.00    1.96
   4 -13   6    6.44    4.47
   4 -13   7   64.05   10.92
  -4 -13   7   55.82   15.24
  -4 -13  -7   66.43   14.39
  -4 -13  -8   20.50    8.29
  -4 -13   8    7.49    5.62
   4 -13   8    7.56    4.58
  -4 -13  -9  169.88   22.99
   4 -13   9  164.20   18.23
  -4 -13   9  193.35   28.59
  -4 -13 -10   20.18    7.84
   4 -13  10   23.65    7.19
  -4 -13  10   11.88    6.04
   4 -13  11    4.29    3.22
  -4 -13 -11    0.96    3.44
  -4 -13  11    9.34    7.00
  -4 -13 -12    3.55    2.88
  -4 -13  12   -3.47    4.51
   4 -13  12    1.16    3.67
  -4 -13  13   62.99   16.90
   4 -13  13   64.03   13.13
   4 -13  14   11.05    5.35
  -4 -13  14   11.65    7.78
  -4 -13  15    5.98    4.76
   4 -13  15   15.65    6.54
   4 -13  16   19.03    8.01
  -4 -13  16   45.07   14.39
   4 -13  17   -0.39    2.58
   4 -13  17    3.27    3.55
   4 -13  18    3.44    4.00
   4 -13  18    1.63    2.70
  -4 -13  18   -3.65    2.50
   4 -13  19   -1.69    2.04
   4 -13  19    1.13    3.38
  -4 -13  19    7.65    7.92
   4 -13  20    6.59    6.27
   4 -13  20    3.34    5.41
  -4 -13  20   -3.58    2.63
   4 -13  21   30.98   11.52
   4 -13  21   35.59   14.69
  -4 -13  21    3.51    3.38
   4 -13  22    8.75    8.09
  -4 -13  22   33.30   14.64
   4 -13  22   31.86   10.78
   4 -13  23   17.17    7.50
   4 -13  23   40.73   13.64
  -4 -13  23   42.86   15.51
   4 -13  24   11.69    7.65
  -4 -13  24    5.59    5.46
   4 -13  24   10.13    7.32
   4 -13  25   20.70   10.54
   4 -13  25   21.69   10.54
  -4 -13  25   10.40    9.34
   4 -13  26    7.74    6.87
   4 -13  26   12.57   10.57
   4 -13  27    5.95    6.17
   4 -13  28    8.49    7.43
  -4 -14   0  148.71   23.69
  -4 -14   1    9.25    8.25
  -4 -14  -1    1.34    3.38
  -4 -14   2  119.90   21.53
  -4 -14  -2  138.95   22.45
  -4 -14  -3   12.36    5.66
  -4 -14   3   10.75    5.74
  -4 -14   4   10.74    6.41
  -4 -14  -4   23.92    9.10
  -4 -14   5   26.59   11.70
  -4 -14  -5   20.21    8.15
  -4 -14   6   53.25   15.30
  -4 -14  -6   46.08   12.94
  -4 -14   7   19.22    9.38
  -4 -14  -7    9.58    5.73
  -4 -14   8  148.81   25.36
  -4 -14  -8  120.06   20.18
  -4 -14  -9    2.37    2.45
  -4 -14   9   10.26    5.47
  -4 -14  10   10.00    5.45
  -4 -14 -10   17.41    8.34
  -4 -14  11    8.57    9.56
  -4 -14  12   14.09    9.02
  -4 -14  13    1.75    5.97
   4 -14  14   49.45   14.16
  -4 -14  14   32.25   12.09
   4 -14  15   13.05    7.94
  -4 -14  15    2.18    4.42
   4 -14  16   -1.40    6.69
  -4 -14  16   14.31   10.63
   4 -14  17   17.99    9.92
  -4 -14  17   -1.06    2.60
   4 -14  18   16.08    8.96
  -4 -14  18   13.62    9.49
   4 -14  19   24.23   11.05
  -4 -14  19   13.93   10.36
   4 -14  20   86.09   21.01
  -4 -14  20   85.76   21.31
  -4 -14  21   23.26   12.39
   4 -14  21    4.82    4.46
   4 -14  22   33.72   13.49
  -4 -14  22   65.39   20.31
   4 -14  23   -1.05    5.08
  -4 -15   0   64.43   16.24
  -4 -15  -1    9.46    8.16
  -4 -15   1   17.93    7.60
  -4 -15   2   24.94   12.20
  -4 -15  -2   10.48    7.34
  -4 -15   3    5.11    3.98
  -4 -15  -3   13.61    9.49
  -4 -15   4   13.34    8.18
  -4 -15  -4    7.16    6.19
  -4 -15   5   45.30   13.73
  -4 -15  -5   48.76   13.35
  -4 -15   6   -1.29    3.04
  -4 -15  -6    2.99    3.71
  -4 -15   7   19.80    9.87
  -4 -15  -7   13.83    7.79
  -4 -15  -8    1.12    3.61
  -4 -15   8   10.38    6.18
  -4 -15  -9    4.56    5.70
  -4 -15   9   44.21   15.01
  -4 -15  10    6.94   14.02
  -4 -15  11    1.73    5.32
   4 -15  11    4.99    5.78
   4 -15  12    5.49    4.88
  -4 -15  12    5.92    4.52
   4 -15  13   32.87   13.61
  -4 -15  13   36.03   14.12
  -4 -15  14   16.29    8.29
   4 -15  14   24.76   11.26
  -4 -15  15    3.89    3.13
   4 -15  15    5.86    6.27
   4 -15  16   21.37   12.94
  -4 -15  16   -3.13    4.14
   4 -15  17   -2.18    3.34
  -4 -15  17    0.90    4.05
   4 -15  18   13.42   10.88
  -4 -15  18   10.39    7.69
   4 -15  19  -10.95   10.22
  -4 -15  19   -0.31    4.88
  -4 -16   0  131.68   24.93
  -4 -16   1   60.49   16.98
  -4 -16  -1   33.56   12.92
  -4 -16  -2   29.42   11.58
  -4 -16   2   25.74   12.43
  -4 -16   3   13.22    9.14
  -4 -16  -3    3.45    5.12
  -4 -16  -4   71.69   18.13
  -4 -16   4   53.06   16.11
  -4 -16   5    8.05    8.09
  -4 -16  -5    7.10    7.15
  -4 -16   6   18.57   10.48
  -4 -16  -6   17.83   10.06
   4 -16   7   13.34    9.39
  -4 -16   7    5.71    5.18
  -4 -16  -7   11.29    8.83
  -4 -16   8   -0.82    4.80
   4 -16   8   -0.09    5.91
  -4 -16  -8    2.69    4.07
  -4 -16   9   -0.05    3.71
   4 -16   9    0.05    3.20
   4 -16  10   13.46    8.70
  -4 -16  10   12.39    9.78
   4 -16  11    2.26    4.64
  -4 -16  11    5.09    3.30
  -4 -16  12   20.02   11.00
   4 -16  12   16.48   11.55
   4 -16  13   -1.76    5.24
  -4 -16  13    2.84    4.54
   4 -16  14    2.45    8.25
  -4 -16  14    8.28    9.47
   4 -16  15   13.90   10.71
  -4 -16  15   11.43    9.88
   4 -17   0  147.21   28.64
  -4 -17   0  166.59   28.98
   4 -17  -1   17.80    7.09
   4 -17   1   34.70   14.80
  -4 -17   1   53.68   16.41
  -4 -17  -1   60.93   16.91
  -4 -17  -2   12.79    8.39
   4 -17  -2   18.55   12.45
   4 -17   2   12.56   10.35
  -4 -17   2   13.07    8.10
  -4 -17  -3    7.96    5.80
   4 -17  -3    6.15    6.55
   4 -17   3   -1.08    5.57
  -4 -17   3   11.95    8.74
   4 -17   4    1.58    5.23
   4 -17  -4    5.27    6.04
  -4 -17  -4   13.86    7.50
  -4 -17   4    0.92    5.93
  -4 -17   5   55.16   17.61
   4 -17  -5   38.99   14.15
   4 -17   5   23.11   12.76
  -4 -17  -5   41.56   14.30
   4 -17  -6   14.76   10.27
   4 -17   6  -10.96    9.60
  -4 -17   6   17.05   10.29
  -4 -17  -6    0.93    2.82
   4 -17  -7    0.99    6.07
   4 -17   7    4.61    7.01
  -4 -17   7   -2.86    2.88
   4 -17  -8   11.86    8.25
  -4 -17   8   11.58    7.53
  -4 -17   9   15.49   10.05
   4 -17  -9   10.06    7.22
   4 -17   9   21.11   11.44
   4 -17  10   32.94   14.33
  -4 -17  10   16.84   10.52
  -4 -17  11   18.62   10.93
  -4 -18   0    7.84    7.57
   4 -18   0    5.92    9.55
   4 -18  -1   11.49    9.01
   4 -18   1   15.45    6.41
  -4 -18   1   24.51   12.16
  -4 -18  -1   12.75    8.78
   4 -18  -2   -4.74    9.04
   4 -18   2   10.28   10.19
  -4 -18   2    6.92    5.94
  -4 -18  -2    9.54    7.43
   4 -18  -3   26.55   11.40
   4 -18   3    6.72    7.67
  -4 -18   3   33.48   14.70
  -4 -18  -3   19.99   10.96
   4 -18  -4   18.16   10.80
   4 -18   4   29.23   14.29
  -4 -18   4   30.17   14.05
  -4 -18  -4   22.64   11.24
   4 -18  -5    2.66    4.05
  -4 -18   5   26.27   11.74
   4 -18  -6   37.45   15.47
  -4 -18   6   25.23   12.44
   4 -18  -7   -5.97    6.77
  -4 -19  -1    8.45    8.25
  -5   0   0    1.31    3.30
   5   0   0    0.41    1.75
   5   0   1    0.26    0.97
  -5   0   1    5.88    2.92
   5   0  -1    2.52    2.91
  -5   0  -1   -1.56    2.34
  -5   0  -2  133.46   16.30
   5   0  -2  126.37   15.82
  -5   0   2  126.08   16.15
  -5   0  -3    0.58    1.96
  -5   0   3    1.90    3.17
   5   0   3   -1.09    1.68
  -5   0  -4   49.02   10.25
   5   0   4   39.26    9.20
  -5   0   4   44.88   10.08
   5   0   5    0.90    2.36
  -5   0   5   -2.50    3.02
  -5   0  -5   -0.81    1.35
  -5   0  -6  797.98   39.66
  -5   0   6  770.17   40.47
   5   0   6  820.71   40.60
  -5   0   7    1.43    2.55
   5   0   7    2.17    3.01
  -5   0  -7   -0.53    1.95
  -5   0   8  188.92   20.67
   5   0   8  203.86   20.32
  -5   0  -8  208.44   20.60
  -5   0  -9    4.13    2.76
  -5   0   9   -0.31    4.12
   5   0   9    1.65    1.54
   5   0  10  343.16   26.85
  -5   0  10  341.84   28.31
   5   0  11   -1.60    3.31
  -5   0  11   -0.13    2.21
  -5   0  12   66.23   12.99
   5   0  12   67.54   12.09
   5   0  13    5.98    5.34
  -5   0  13    3.61    4.77
  -5   0  14  231.37   24.59
   5   0  14  219.39   22.48
   5   0  15   -2.49    3.30
   5   0  15    0.91    1.46
  -5   0  15   -2.46    1.58
   5   0  16  500.35   34.26
  -5   0  16  511.79   37.51
   5   0  16  568.66   36.78
   5   0  17   -0.91    2.85
   5   0  17   -2.27    2.75
  -5   0  17    2.40    4.21
   5   0  18   18.46    6.62
   5   0  18   27.15    8.19
  -5   0  18   12.36    6.34
  -5   0  19   -5.52    5.63
   5   0  19   -5.68    5.25
   5   0  19    0.79    1.51
  -5   0  20   28.53    9.39
   5   0  20   15.57    6.20
   5   0  21   -0.30    2.88
  -5   0  21   -0.08    4.95
  -5   0  22   73.68   15.49
   5   0  22   57.29   13.09
  -5   0  23   -0.21    3.08
   5   0  23    2.96    4.72
   5   0  24    7.44    5.05
  -5   0  24    3.30    3.48
  -5   0  25    5.08    6.41
   5   0  25   -2.97    3.85
  -5   0  26    0.89    3.28
   5   0  26    8.37    3.63
  -5   0  27    0.74    3.33
   5   0  27    5.45    6.32
  -5   0  28  221.37   28.24
   5   0  28  202.94   26.57
   5   0  29    1.05    3.56
   5   0  30   56.53   14.44
   5   0  31    6.12    7.41
   5   0  32  254.83   32.22
   5   0  33    3.50    6.19
   5   0  34  199.42   29.14
   5   0  35   -0.76    3.75
   5  -1   0   -1.51    2.77
  -5  -1   0   -1.79    2.38
  -5   1   0    1.72    4.07
   5   1   0   -1.59    2.48
   5  -1  -1    6.82    3.57
  -5  -1   1   -1.64    3.06
  -5   1   1    5.90    3.96
   5  -1   1    5.35    3.79
  -5  -1  -1    2.55    1.58
   5   1  -1    5.11    2.66
   5   1   1   -0.70    1.99
  -5   1  -1    5.39    4.55
  -5   1   2  394.26   28.72
  -5   1  -2  393.12   28.29
   5  -1   2   -0.62    1.01
  -5  -1   2  372.17   27.42
   5   1   2   12.17    4.97
  -5  -1  -2  393.69   27.78
   5   1   3   52.40    9.73
  -5  -1   3   49.65   10.11
  -5   1  -3   45.97   10.32
  -5  -1  -3   43.58    9.19
  -5   1   3   41.98   10.23
  -5   1   4   27.49    8.28
   5   1   4   52.61   10.10
  -5  -1   4   75.01   13.09
   5  -1   4    4.74    2.84
  -5   1  -4   38.95    8.94
  -5  -1  -4   40.22    8.89
  -5   1  -5  108.51   15.36
   5   1   5   86.28   12.83
  -5  -1   5   85.36   13.87
  -5   1   5   81.36   13.54
   5  -1   5   83.67   13.78
  -5  -1  -5   95.51   13.35
  -5   1  -6   59.79   11.66
  -5  -1  -6   55.19   10.49
   5   1   6   46.54    9.22
  -5   1   6   44.03    9.50
  -5  -1   6   40.79    9.77
   5  -1   6   61.13   11.92
  -5  -1  -7  326.93   25.03
  -5  -1   7  331.15   27.39
   5   1   7  323.73   24.52
  -5   1   7  296.58   25.58
   5  -1   7  328.28   27.46
  -5  -1  -8    2.18    3.08
  -5   1   8    3.74    2.78
  -5  -1   8    2.07    3.61
   5  -1   8   -0.26    2.55
   5   1   8    6.98    3.14
  -5   1   9    2.37    3.06
  -5  -1  -9    0.70    1.60
   5   1   9    3.40    2.74
  -5  -1   9   -0.33    1.27
   5   1  10   -0.37    2.72
  -5  -1 -10    2.69    2.51
  -5   1  10   -1.68    1.68
  -5  -1  10    0.32    3.03
  -5  -1 -11  237.26   21.68
  -5  -1  11  222.87   23.33
   5   1  11  204.68   19.89
  -5   1  11  191.40   21.25
  -5   1  12    7.95    3.76
   5   1  12   22.66    6.27
  -5  -1  12   19.98    6.85
  -5  -1  13  216.79   23.69
   5   1  13  233.73   21.52
  -5   1  13  195.67   22.31
   5   1  14   24.26    6.73
   5   1  14   31.33    8.42
  -5   1  14   38.38    9.64
  -5  -1  14   34.08    9.47
  -5  -1  15   64.62   13.22
   5   1  15   65.78   11.43
  -5   1  15   88.99   15.45
   5  -1  15   85.43   14.36
   5   1  15   90.89   14.32
   5   1  16    5.41    3.03
   5  -1  16   10.32    5.05
  -5   1  16    4.97    4.86
   5   1  16    2.94    3.13
  -5  -1  16   10.07    5.44
   5   1  17   -1.51    2.50
  -5   1  17    0.32    1.60
  -5  -1  17    2.64    4.78
   5   1  17    5.09    4.51
   5  -1  17    4.99    4.44
   5  -1  18    3.38    2.31
   5   1  18   10.95    5.70
  -5   1  18   11.02    6.08
   5   1  18    3.65    3.83
  -5  -1  18    8.34    5.49
   5  -1  19   -1.67    2.04
   5   1  19    0.44    1.63
  -5   1  19    0.46    1.81
   5   1  19   -1.17    1.34
   5   1  20    2.58    2.28
  -5   1  20   -0.32    2.86
   5  -1  20    7.45    5.57
  -5  -1  20    9.30    4.73
   5   1  20    3.25    4.72
  -5   1  21   22.78    8.64
   5  -1  21   17.90    7.77
  -5  -1  21   10.00    6.09
   5   1  21   12.64    5.65
  -5   1  22   -2.75    2.62
  -5  -1  22    0.18    2.58
   5   1  22    4.99    5.16
   5  -1  22   -1.65    3.73
  -5   1  23   19.45    7.53
  -5  -1  23   40.76   12.41
   5  -1  23   14.13    5.82
   5   1  23   20.24    7.06
  -5   1  24   35.66   10.38
  -5  -1  24   50.20   13.89
   5  -1  24   32.61    9.24
   5   1  24   37.87   10.52
  -5   1  25    3.97    4.78
   5  -1  25    6.09    3.99
  -5  -1  25    5.99    4.76
   5   1  25    4.86    4.47
  -5   1  26   -2.19    1.99
   5  -1  26    3.38    2.38
   5   1  26   -0.52    2.87
  -5   1  27    7.53    5.01
  -5  -1  27    7.53    6.71
   5  -1  27    0.15    2.70
   5   1  27   12.84    7.95
   5  -1  28   36.86   11.31
   5   1  28   21.77    9.20
  -5  -1  28   24.90    9.85
   5   1  29    8.13    7.37
   5  -1  29   14.72    8.01
  -5  -1  29   16.36    8.80
   5  -1  30    7.95    7.05
   5   1  30    6.37    5.62
   5   1  31   -8.42    7.92
   5  -1  31    8.84    6.97
   5  -1  32    4.20    6.60
   5   1  32    1.13    3.46
   5  -1  33    9.55    7.40
   5   1  33   15.42    9.32
   5  -1  34   10.59    8.70
   5   1  34   -0.18    3.25
   5  -1  35   16.16   10.65
   5   1  35   20.63   10.78
   5   1  36   11.28    8.24
   5   2   0   -1.27    1.13
  -5   2   0    0.02    2.02
  -5  -2   0   -1.56    3.36
  -5  -2   1  104.85   14.53
  -5  -2  -1  123.21   16.03
  -5   2   1  126.10   16.46
  -5   2  -1  135.40   17.13
  -5  -2   2  583.74   35.22
  -5   2   2  562.75   35.24
  -5  -2  -2  571.36   33.32
  -5   2  -2  575.21   35.97
   5   2   2  555.41   31.01
  -5   2  -3  194.12   20.41
   5   2   3  169.46   17.50
  -5  -2   3  157.70   18.67
  -5   2   3  185.16   20.02
  -5  -2  -3  167.57   17.74
   5   2   4  750.26   36.70
  -5   2   4  780.04   41.20
  -5  -2   4  733.64   39.86
  -5  -2  -4  834.24   39.54
  -5   2   5   31.28    7.98
   5   2   5   34.64    7.94
  -5  -2   5   39.04   10.07
  -5  -2  -5   39.59    8.90
   5   2   6  339.75   24.24
  -5  -2   6  306.44   26.70
  -5   2   6  278.24   25.10
  -5  -2  -6  298.50   23.71
  -5   2   7    5.23    3.10
   5   2   7    2.46    1.78
  -5  -2   7   10.41    5.84
  -5  -2  -7   10.29    5.47
  -5   2   8  258.12   24.26
   5   2   8  278.07   21.66
  -5  -2   8  260.02   24.95
  -5  -2  -8  239.90   21.23
  -5  -2  -9   51.85    9.92
   5   2   9   45.98    8.92
  -5  -2   9   47.58   10.94
  -5   2   9   38.20    9.64
  -5  -2  10  439.51   33.51
   5   2  10  471.15   28.50
  -5  -2 -10  462.62   29.55
  -5   2  10  425.20   31.83
  -5  -2 -11   18.86    6.15
  -5  -2  11   12.72    5.58
   5   2  11   19.33    6.15
  -5   2  11   25.54    7.55
  -5  -2  12  196.38   23.10
   5   2  12  182.03   17.47
  -5  -2 -12  201.32   19.09
  -5   2  12  154.25   19.36
  -5  -2  13   16.71    6.98
   5   2  13   11.14    4.59
  -5   2  13   16.84    7.09
  -5  -2  14  258.04   26.56
   5   2  14  294.91   22.45
   5  -2  14  269.89   25.56
   5   2  14  284.34   24.86
  -5   2  14  263.84   26.08
  -5  -2  15    5.90    4.73
   5   2  15    0.46    1.25
  -5   2  15   -1.60    1.56
   5  -2  15    4.54    4.29
   5   2  15   -2.04    1.27
  -5  -2  16  202.84   24.50
   5   2  16  180.82   17.37
  -5   2  16  139.79   19.37
   5  -2  16  156.61   19.59
   5   2  16  175.41   19.75
  -5  -2  17   16.20    8.36
   5   2  17   16.59    5.24
  -5   2  17   14.95    7.13
   5   2  17   21.42    7.05
   5  -2  17   21.71    7.43
  -5  -2  18  209.53   25.13
   5   2  18  201.05   18.18
   5  -2  18  209.32   23.30
   5   2  18  197.16   21.71
  -5   2  18  172.38   22.36
  -5   2  19    4.29    4.33
  -5  -2  19    7.49    6.23
   5   2  19   -1.92    1.79
   5   2  19   10.90    5.14
   5  -2  19    0.11    2.67
  -5  -2  20  124.65   19.96
   5   2  20  128.03   13.87
   5  -2  20  142.25   19.31
   5   2  20  114.13   16.25
  -5   2  20  125.49   19.40
   5  -2  21    2.93    4.23
  -5  -2  21   -1.91    4.35
   5   2  21    3.44    5.59
  -5   2  21    3.87    5.00
   5   2  22   10.65    5.43
  -5  -2  22    2.78    3.05
   5  -2  22    5.68    4.64
  -5   2  22   12.29    6.77
   5   2  23   38.87    9.69
  -5  -2  23   30.43   10.84
  -5   2  23   39.69   11.69
   5  -2  23   37.13    9.84
  -5   2  24   -4.70    3.97
   5  -2  24   -2.87    2.75
  -5  -2  24    0.06    5.19
   5   2  24    1.86    3.13
   5   2  25   85.54   15.46
  -5  -2  25   64.48   15.42
   5  -2  25   56.94   13.47
  -5   2  25   70.37   15.83
  -5   2  26   -1.54    3.93
  -5  -2  26    5.98    6.14
   5  -2  26    8.53    8.44
   5   2  26    2.00    4.40
   5   2  27   13.88    6.37
  -5  -2  27   15.25    8.81
   5  -2  27   21.09    9.75
   5   2  28   25.44    9.83
  -5  -2  28   17.07   10.45
   5  -2  28   22.96    9.99
   5   2  29    6.60    5.63
  -5  -2  29   -6.48    7.08
   5  -2  29   -0.73    2.73
  -5  -2  30  177.44   27.38
   5  -2  30  114.84   20.71
   5   2  30  213.39   28.29
   5  -2  31   31.63   12.16
   5   2  31   38.63   13.07
   5  -2  32  109.23   21.87
   5   2  32   88.88   18.57
   5  -2  33   13.60    9.49
   5   2  33    4.42    3.47
   5  -2  34   17.55   11.72
   5   2  34   19.95    9.74
   5  -2  35    1.76    4.95
   5   2  35    2.79    5.72
   5   2  36    5.33    6.31
  -5  -3   0    3.58    2.59
  -5   3   0    0.77    2.09
  -5  -3   1  105.26   15.05
  -5  -3  -1  127.37   16.21
  -5   3   1  124.35   17.01
  -5  -3  -2    7.59    4.38
   5   3   2   10.31    4.40
  -5   3   2    1.87    1.97
  -5  -3   2    2.66    3.72
  -5  -3   3  233.30   23.39
  -5  -3  -3  284.64   23.67
  -5   3   3  252.04   24.05
   5   3   3  275.86   21.73
  -5  -3   4  225.58   22.48
  -5  -3  -4  208.82   20.22
  -5   3   4  220.27   22.52
   5   3   4  223.08   19.52
  -5  -3   5   51.93   10.93
  -5  -3  -5   86.63   12.89
  -5   3   5   75.01   12.81
   5   3   5   79.95   11.38
  -5  -3  -6    0.46    1.57
  -5   3   6    2.17    2.96
   5   3   6   -1.12    1.31
  -5  -3   6   -0.89    3.01
  -5  -3   7  550.26   36.39
  -5   3   7  498.49   33.93
  -5  -3  -7  504.87   30.63
   5   3   7  563.30   30.32
  -5  -3   8  115.64   16.86
  -5   3   8   98.12   15.02
  -5  -3  -8  111.09   14.51
   5   3   8  111.56   13.42
   5   3   9    4.97    4.00
  -5   3   9    1.09    2.80
  -5  -3   9    9.98    5.29
  -5  -3  -9    5.30    3.21
  -5  -3 -10   14.09    5.71
   5   3  10   10.31    4.20
  -5  -3  10   10.91    5.56
  -5   3  10   18.56    7.32
   5   3  11    5.28    3.02
  -5  -3  11    1.49    2.86
  -5  -3 -11    5.63    3.35
  -5   3  11    9.75    5.21
  -5   3  12  138.16   18.86
  -5  -3 -12  186.41   18.39
   5   3  12  150.53   15.35
  -5  -3  12  187.90   22.50
  -5   3  13  143.19   18.78
  -5  -3 -13  126.62   14.76
   5   3  13  137.05   14.33
  -5  -3  13  132.93   19.17
  -5  -3 -14   20.51    6.37
   5   3  14    6.19    2.48
  -5  -3  14   15.43    6.82
  -5   3  14   14.09    5.61
   5  -3  14    7.65    5.19
   5   3  14   11.32    4.72
   5  -3  15   40.52   10.24
   5   3  15   28.55    6.17
  -5   3  15   25.39    8.25
   5   3  15   37.88    9.04
  -5  -3  15   60.52   13.28
   5   3  16   30.70    6.36
  -5  -3  16   26.68    8.66
  -5   3  16   30.36    9.40
   5   3  16   43.15    9.77
   5  -3  16   20.65    7.23
  -5   3  17   50.97   11.49
  -5  -3  17   57.66   14.01
   5  -3  17   42.96   11.14
   5   3  17   55.10   11.05
   5   3  17   53.78    8.23
   5   3  18   11.69    3.55
  -5   3  18   24.39    8.22
  -5  -3  18   17.00    8.55
   5  -3  18   24.50    8.38
   5   3  18   29.23    8.45
   5  -3  19    4.23    3.88
   5   3  19    6.29    2.46
  -5   3  19   10.50    4.95
  -5  -3  19   10.92    6.99
   5   3  19   14.84    6.05
   5  -3  20    5.54    4.29
  -5   3  20    8.06    5.07
  -5  -3  20   -2.68    1.65
   5   3  20   -2.78    2.86
  -5  -3  21   42.18   11.44
  -5   3  21   72.00   14.54
   5  -3  21   44.75   11.77
   5   3  21   51.56   11.26
  -5  -3  22    8.55    6.77
  -5   3  22    9.92    5.33
   5  -3  22    5.40    3.76
   5   3  22    6.51    4.80
  -5  -3  23  101.57   19.10
  -5   3  23  111.68   19.11
   5  -3  23   84.34   16.07
   5   3  23   83.55   14.87
   5   3  24   14.84    6.16
  -5  -3  24   21.43    9.39
   5  -3  24   13.00    7.16
  -5   3  24    5.60    4.74
  -5  -3  25   19.20    9.10
  -5   3  25    2.53    6.34
   5  -3  25   19.30    8.41
   5   3  25    2.29    2.66
   5  -3  26    8.95    5.12
  -5  -3  26   14.29    8.50
   5   3  26    6.73    3.59
   5   3  27   19.81    8.76
   5  -3  27    9.27    4.21
  -5  -3  27   14.64   10.07
   5  -3  27    6.69    6.23
   5   3  28   21.41    8.17
  -5  -3  28   21.47   10.41
   5  -3  28   43.39   13.62
   5  -3  29   17.31    9.51
   5   3  29   21.80    8.83
  -5  -3  29   36.12   13.13
   5  -3  30   11.94    7.77
  -5  -3  30   12.72    7.67
   5   3  30   13.88    8.83
   5  -3  31   16.69   10.64
   5   3  31   26.95   10.59
   5  -3  32    6.78    4.82
   5   3  32    9.21    6.80
   5   3  33   13.64    7.64
   5  -3  33    8.39    6.18
   5  -3  34   12.28    7.63
   5   3  34   35.28   12.62
   5   3  35   33.42   14.56
   5   3  36   -1.97    4.26
  -5  -4   0    0.82    1.54
  -5  -4   1   -0.75    2.64
  -5  -4  -1    1.39    4.10
  -5  -4  -2  238.90   22.40
  -5  -4   2  218.86   22.13
  -5  -4   3   10.56    4.93
  -5  -4  -3   33.38    8.85
  -5  -4  -4  459.51   30.26
  -5  -4   4  433.55   31.76
  -5  -4   5 1148.63   52.50
  -5  -4  -5 1252.40   49.57
   5   4   5 1153.78   43.94
  -5   4   5 1214.91   53.51
  -5  -4   6   -3.00    2.53
   5   4   6   -0.56    1.48
  -5   4   6   -1.96    2.06
  -5  -4  -6    0.26    1.07
  -5  -4  -7  170.59   18.12
   5   4   7  170.52   16.50
  -5  -4   7  151.11   19.26
  -5   4   7  142.77   18.65
  -5  -4  -8  196.29   19.04
   5   4   8  221.45   18.48
  -5   4   8  196.67   22.08
  -5  -4   8  215.55   23.54
  -5  -4   9    1.19    2.88
  -5  -4  -9    1.51    1.91
  -5   4   9    3.14    4.24
   5   4   9    0.43    2.02
   5   4  10  705.30   32.36
  -5  -4  10  759.48   44.77
  -5  -4 -10  743.96   36.91
  -5   4  10  787.15   44.35
   5   4  11  132.91   13.63
  -5  -4 -11  119.54   14.85
  -5   4  11  112.26   16.90
  -5  -4  11  125.01   18.66
   5   4  12  145.20   14.30
  -5   4  12  179.10   21.04
  -5  -4  12  173.78   22.04
  -5  -4 -12  159.75   16.93
   5   4  13   33.16    6.50
  -5  -4  13   44.92   11.01
   5   4  13   33.83    8.52
  -5  -4 -13   29.43    6.95
  -5   4  13   29.00    7.98
  -5  -4  14   18.03    8.07
  -5   4  14   17.56    6.30
   5   4  14   14.92    5.92
   5  -4  14   18.44    6.94
   5   4  14   21.68    4.92
  -5  -4  15  236.56   26.81
  -5   4  15  222.99   24.81
   5   4  15  186.81   15.01
   5  -4  15  228.65   23.95
   5   4  15  199.50   19.93
  -5  -4 -15  229.99   19.48
   5  -4  16    1.57    1.88
  -5   4  16    7.20    6.28
   5   4  16    9.93    4.72
   5   4  16    6.33    2.44
  -5  -4  17   40.39   11.01
   5   4  17   27.63    5.02
  -5   4  17   23.08    8.39
   5   4  17   24.63    7.10
   5  -4  17   21.32    8.32
   5  -4  18   52.29   11.53
  -5   4  18   48.53   11.68
   5   4  18   52.40   10.78
   5   4  18   47.29    6.49
  -5  -4  18   77.13   16.66
  -5   4  19  180.52   22.77
   5  -4  19  169.44   21.56
   5   4  19  189.54   20.73
  -5  -4  19  183.51   24.68
   5   4  20   50.03   10.88
  -5  -4  20   46.90   13.29
   5  -4  20   50.92   12.31
  -5   4  21  213.81   25.01
   5  -4  21  211.26   24.48
   5   4  21  183.79   21.09
  -5  -4  21  209.42   27.56
  -5  -4  22    4.35    3.66
  -5   4  22   -0.64    2.75
   5  -4  22   -6.00    5.98
   5   4  22   -1.50    2.87
   5  -4  23  120.61   18.70
   5   4  23   87.10   14.73
  -5   4  23   80.12   15.02
  -5  -4  23  100.53   18.58
  -5   4  24   62.72   13.44
  -5  -4  24   68.78   16.28
   5   4  24   63.54   12.92
   5  -4  24   73.84   15.04
   5  -4  25    2.56    3.13
  -5  -4  25   37.02   13.13
   5   4  25   28.80    9.70
   5   4  26   13.44    6.91
  -5  -4  26   28.53   11.75
   5  -4  26   15.02    6.65
   5   4  27   43.20   11.57
   5  -4  27   45.41   10.40
  -5  -4  27   42.67   12.97
   5  -4  27   66.62   15.70
   5  -4  28   16.54    5.95
  -5  -4  28   18.63    9.06
   5   4  28   19.87    8.41
   5  -4  28   17.56    9.12
   5  -4  29   65.28   16.20
   5   4  29   50.80   14.07
  -5  -4  29   37.58   12.93
  -5  -4  30   39.33   13.59
   5  -4  30   97.72   20.13
   5   4  30   85.66   18.01
   5  -4  31   34.17   12.43
   5   4  31   48.24   13.49
  -5  -4  31   24.90   11.42
   5  -4  32   49.93   15.48
   5   4  32   56.70   14.66
   5  -4  33  112.81   24.08
   5   4  33  108.44   20.91
   5  -4  34   48.16   15.33
   5   4  34   61.21   16.26
   5   4  35   -1.36    5.84
   5   4  36    4.43    5.57
  -5  -5   0   -1.55    1.16
  -5  -5   1   50.55   11.11
  -5  -5  -1   57.97   11.40
  -5  -5  -2   80.66   13.28
  -5  -5   2   66.88   13.11
  -5  -5  -3   51.57   10.64
  -5  -5   3   38.04    9.70
  -5  -5  -4  183.85   19.77
  -5  -5   4  174.96   20.64
  -5  -5  -5  146.34   17.28
  -5  -5   5  139.33   19.20
  -5  -5  -6  697.33   37.45
  -5  -5   6  693.59   42.56
  -5  -5  -7  166.42   18.32
   5   5   7  160.18   15.99
  -5  -5   7  139.15   18.35
  -5  -5   8   10.59    6.80
   5   5   8    4.12    3.12
  -5  -5  -8    6.88    4.14
  -5  -5   9    0.21    3.16
   5   5   9    2.04    2.07
  -5  -5  -9    0.10    1.66
  -5  -5  10  272.97   27.51
  -5  -5 -10  282.42   23.25
   5   5  10  285.85   20.19
  -5  -5  11    7.84    5.87
  -5  -5 -11    4.09    3.30
   5   5  11    4.26    2.71
   5   5  12    5.45    3.40
  -5  -5  12    6.73    5.23
  -5  -5 -12   -0.39    1.84
  -5  -5  13    4.18    5.39
   5   5  13    3.66    2.05
   5   5  13    0.16    2.20
   5  -5  13    0.02    2.76
  -5  -5 -13    9.00    5.08
   5   5  14   15.95    5.79
  -5  -5  14   13.55    6.95
   5   5  14   11.63    3.93
  -5  -5 -14   11.89    4.25
   5  -5  14    8.13    3.79
  -5  -5  15   22.67    9.38
  -5  -5 -15   11.82    4.30
   5  -5  15   13.30    5.73
   5   5  15   24.25    6.98
   5   5  15   12.59    3.81
  -5  -5  16   58.94   13.34
   5   5  16   40.80    6.35
  -5  -5 -16   44.34    8.40
   5   5  16   46.14    9.68
   5  -5  16   35.93    9.65
   5  -5  17   46.34   11.56
  -5  -5  17   34.44   11.21
   5   5  17   32.79    5.41
   5   5  17   32.43    8.58
  -5  -5  18    7.69    7.31
   5  -5  18    3.08    3.06
   5   5  18    4.84    3.79
  -5  -5  19    7.25    4.92
   5  -5  19    6.78    4.65
   5   5  19   -1.19    2.53
  -5  -5  20    8.35    8.06
   5  -5  20   14.28    6.50
   5   5  20   10.97    5.27
  -5  -5  21   26.62   10.29
   5  -5  21   24.02    9.16
   5   5  21   25.42    7.84
   5   5  22   24.44    7.40
  -5  -5  22   26.20    9.75
   5  -5  22   28.68    9.16
  -5  -5  23   27.37   10.38
   5  -5  23   24.43    8.91
   5   5  23   22.76    7.32
   5   5  24   10.56    5.54
  -5  -5  24    6.24    6.09
   5  -5  24    6.61    4.92
   5   5  25    7.43    5.79
  -5  -5  25    2.79    5.02
   5  -5  25    4.70    5.68
   5   5  26   -1.32    2.87
  -5  -5  26    1.42    4.65
   5  -5  26    1.32    3.55
   5   5  27   26.95    9.55
   5  -5  27   23.23    8.65
  -5  -5  27   34.61   12.36
   5  -5  27   31.56   11.08
   5   5  28   11.92    7.15
  -5  -5  28    3.16    6.49
   5  -5  28    5.49    4.17
   5  -5  28    1.92    4.40
   5   5  29    8.66    7.59
  -5  -5  29   15.04    9.30
   5  -5  30    2.62    5.90
   5   5  30    8.45    6.24
  -5  -5  30    4.04    6.81
   5   5  31   15.55    6.93
   5  -5  31   34.09   12.29
  -5  -5  31    8.39    8.14
   5  -5  32    6.70    5.41
   5   5  32    6.81    4.25
   5   5  33    3.09    3.81
   5  -5  33   11.72    9.01
   5  -5  34    6.21    6.84
   5   5  34   10.11    7.59
   5   5  35    1.07    6.45
   5   5  36    4.69    4.94
  -5  -6   0    8.99    6.42
  -5  -6   1  473.14   33.56
  -5  -6  -1  470.82   32.59
  -5  -6   2    8.07    5.58
  -5  -6  -2   18.25    6.26
  -5  -6   3    8.83    4.62
  -5  -6  -3    5.34    3.86
  -5  -6  -4   69.37   12.69
  -5  -6   4   63.80   12.97
  -5  -6  -5  236.71   22.51
  -5  -6   5  230.89   24.26
  -5  -6  -6  379.03   28.51
  -5  -6   6  331.34   29.82
  -5  -6  -7  409.54   29.45
  -5  -6   7  420.36   34.05
  -5  -6  -8  917.63   43.74
  -5  -6   8  683.00   43.63
  -5  -6  -9 1387.64   52.98
  -5  -6   9 1299.72   60.77
  -5  -6 -10  571.67   33.85
   5   6  10  517.37   27.87
  -5  -6  10  537.75   39.38
  -5  -6 -11  432.47   29.09
   5   6  11  372.19   23.06
  -5  -6  11  443.32   36.07
  -5  -6  12  602.09   42.69
   5   6  12  564.15   27.47
  -5  -6 -12  562.03   32.68
   5   6  12  556.83   31.11
  -5  -6  13  325.40   32.16
   5   6  13  303.44   19.51
  -5  -6 -13  317.54   24.25
   5  -6  13  298.10   27.32
   5   6  13  335.83   24.45
   5   6  14  430.29   27.97
  -5  -6  14  473.78   38.61
   5   6  14  373.08   20.91
   5  -6  14  403.92   32.36
  -5  -6 -14  414.55   27.48
   5   6  15  253.04   16.41
  -5  -6  15  267.62   30.23
  -5  -6 -15  306.71   23.18
   5   6  15  288.85   23.18
   5  -6  15  308.24   28.16
  -5  -6 -16  192.77   17.87
  -5  -6  16  169.73   24.19
   5   6  16  149.23   12.02
   5   6  16  152.26   17.19
   5  -6  16  138.75   19.24
  -5  -6 -17  118.32   13.18
   5   6  17  126.77   16.24
  -5  -6  17  141.77   22.28
   5  -6  17  144.86   19.60
  -5  -6  18   15.95    7.46
   5  -6  18    7.25    5.43
   5   6  18    9.84    5.07
   5  -6  19   -1.84    1.45
   5   6  19    3.67    3.54
  -5  -6  20   15.92    7.30
   5  -6  20   23.88    8.38
   5   6  20   28.92    8.19
  -5  -6  21    5.16    2.70
   5  -6  21    3.47    3.83
   5   6  21    8.17    5.41
  -5  -6  22   10.93    6.54
   5  -6  22   11.44    7.08
   5   6  22   -4.31    3.74
  -5  -6  23  103.57   20.25
   5  -6  23   84.18   16.52
   5   6  23  100.75   16.34
   5   6  24    1.62    3.47
  -5  -6  24    4.80    6.09
   5  -6  24    8.58    6.29
   5   6  25    7.63    4.48
  -5  -6  25    2.94    4.04
   5  -6  25   -2.35    2.57
   5   6  26   35.14   10.02
  -5  -6  26   46.38   13.52
   5  -6  26   36.96   11.98
   5  -6  27   16.53    8.10
   5   6  27   27.60    9.05
  -5  -6  27   34.08   12.75
   5  -6  27   26.54    8.60
  -5  -6  28   49.66   15.31
   5  -6  28   54.35   12.27
   5   6  28   66.41   14.60
   5  -6  28   80.62   17.48
   5  -6  29   76.82   17.36
   5   6  29   73.99   15.27
   5  -6  29   78.39   14.71
  -5  -6  29   58.20   16.62
   5  -6  30  157.00   25.04
   5   6  30  100.53   18.89
  -5  -6  30  135.85   25.65
  -5  -6  31  128.42   26.22
   5  -6  31  164.98   26.84
   5   6  31  191.72   26.62
   5   6  32   20.41    9.15
   5  -6  32   34.96   13.46
  -5  -6  32   32.15   13.47
   5   6  33  138.15   23.30
   5  -6  33  135.50   24.15
   5   6  34   98.75   20.62
   5   6  35   72.79   18.30
  -5  -7   0   -0.48    2.09
  -5  -7   1   17.32    7.07
  -5  -7  -1   12.70    5.34
  -5  -7   2  353.54   30.20
  -5  -7  -2  355.30   28.98
  -5  -7   3   -1.34    3.05
  -5  -7  -3    6.03    4.73
  -5  -7   4    7.65    5.44
  -5  -7  -4    0.90    1.72
  -5  -7   5    7.81    6.11
  -5  -7  -5    4.60    4.95
  -5  -7   6   20.91    8.31
  -5  -7  -6   24.36    7.13
  -5  -7   7    2.55    6.05
  -5  -7  -7   -1.56    4.10
  -5  -7  -8  107.79   15.64
  -5  -7   8  102.47   17.30
  -5  -7   9    1.96    3.19
  -5  -7  -9    2.59    2.45
  -5  -7  10   19.38    8.30
  -5  -7 -10    8.00    5.86
  -5  -7 -11  218.44   21.21
   5   7  11  182.62   17.05
  -5  -7  11  169.66   22.92
  -5  -7  12   72.75   14.64
   5   7  12   53.31    8.45
   5  -7  12   54.77   11.64
   5   7  12   67.96   10.40
  -5  -7 -12   50.78    9.86
   5   7  13   74.38   10.93
   5  -7  13   62.39   13.05
   5   7  13   52.68    8.56
  -5  -7 -13   67.10   11.95
  -5  -7  13   71.30   15.23
   5   7  14  164.13   14.36
   5  -7  14  188.47   22.02
  -5  -7 -14  183.66   18.82
   5   7  14  226.45   19.52
  -5  -7  14  210.70   26.51
  -5  -7  15    9.30    6.57
  -5  -7 -15   11.82    5.80
   5  -7  15    8.21    4.84
   5   7  15    9.48    3.87
  -5  -7  16    2.42    5.11
  -5  -7 -16   -2.18    2.50
   5  -7  16    2.96    1.85
   5   7  16    3.57    4.05
  -5  -7  17   -4.54    5.69
   5  -7  17   -2.51    3.65
  -5  -7 -17    0.58    1.93
   5   7  17    2.92    3.06
  -5  -7  18    8.17    8.82
   5  -7  18   -1.71    2.29
   5   7  18    3.97    3.89
   5  -7  19    2.05    4.33
  -5  -7  19   12.03    5.60
   5   7  19    1.00    2.46
  -5  -7  20   47.24   13.01
   5  -7  20   24.43    9.33
   5   7  20   23.81    6.89
   5   7  21    9.47    4.35
  -5  -7  21   15.63    9.43
   5  -7  21   15.61    7.33
   5   7  22    1.81    2.36
  -5  -7  22    6.08    4.77
   5  -7  22    0.67    1.80
   5  -7  23   19.72    7.66
  -5  -7  23   39.63   13.77
   5   7  23   35.02    9.40
   5   7  24   38.42   10.08
  -5  -7  24   36.57   13.41
   5  -7  24   40.55   10.98
   5   7  25   28.02    9.57
  -5  -7  25   45.41   13.98
   5  -7  25   33.84   11.36
   5   7  26    3.74    2.35
  -5  -7  26   -0.16    2.55
   5  -7  26   -0.91    1.96
   5  -7  26    4.34    4.48
   5  -7  27    2.60    4.48
   5   7  27   18.56    8.47
  -5  -7  27   12.29    8.34
   5  -7  27   -0.16    2.91
   5  -7  28   21.38    8.93
   5   7  28   16.70    8.08
  -5  -7  28   44.02   15.65
   5  -7  28   18.06    6.62
   5  -7  29    1.74    3.62
   5   7  29   -0.78    2.58
  -5  -7  29   11.61    8.49
   5  -7  29    1.44    3.45
   5  -7  30    2.57    3.94
   5   7  30    6.36    4.09
  -5  -7  30   -2.26    7.34
   5  -7  30   14.16    8.09
   5  -7  31    0.65    3.77
   5   7  31   -1.11    4.07
  -5  -7  31   11.64    8.78
   5  -7  32   -8.10    6.61
   5   7  32    7.02    6.86
  -5  -7  32   14.91   10.34
   5   7  33   -1.67    4.20
  -5  -8   0   -1.27    2.67
  -5  -8   1   10.74    5.59
  -5  -8  -1    4.83    4.87
  -5  -8   2    7.69    5.87
  -5  -8  -2    1.51    4.89
  -5  -8   3  142.25   19.94
  -5  -8  -3  120.20   17.79
  -5  -8   4   17.95    7.26
  -5  -8  -4   16.48    6.69
  -5  -8   5  332.57   31.27
  -5  -8  -5  323.18   28.34
  -5  -8  -6    0.15    3.17
  -5  -8   6   -1.90    3.83
  -5  -8   7  108.92   18.45
  -5  -8  -7  120.28   16.90
  -5  -8   8    8.48    7.13
  -5  -8  -8   11.40    6.03
  -5  -8  -9  207.77   22.14
  -5  -8   9  235.61   27.60
  -5  -8 -10   73.71   12.97
   5   8  10   91.11   11.28
  -5  -8  10   68.74   14.86
  -5  -8 -11  208.96   21.78
   5  -8  11  237.43   24.50
  -5  -8  11  173.16   24.33
   5   8  11  234.64   18.30
  -5  -8  12   35.60   10.95
   5  -8  12   27.92    9.28
  -5  -8 -12   39.98    9.61
   5   8  12   37.57    7.46
  -5  -8 -13   71.83   12.56
   5  -8  13   73.27   14.16
   5   8  13   97.56   12.15
  -5  -8  13   99.79   18.61
  -5  -8  14    0.76    1.55
   5   8  14    0.07    1.54
   5  -8  14    3.25    3.02
  -5  -8 -14    1.33    3.34
  -5  -8  15   43.04   12.69
  -5  -8 -15   27.56    7.77
   5  -8  15   44.71   11.51
   5   8  15   33.91    7.27
  -5  -8  16    7.62    4.81
   5  -8  16    8.22    4.77
  -5  -8 -16    0.71    1.70
   5   8  16    5.43    3.35
  -5  -8  17   59.30   15.02
   5   8  17   57.03   10.42
   5  -8  17   45.43   11.43
  -5  -8  18    0.07    3.81
   5   8  18    5.67    2.59
   5  -8  18    8.06    5.97
   5  -8  19   62.81   14.09
  -5  -8  19   77.74   18.36
   5   8  19   75.48   12.71
   5   8  20    7.53    4.90
  -5  -8  20    1.55    2.48
   5  -8  20   14.83    7.09
  -5  -8  21   12.28    8.36
   5   8  21    5.99    3.60
   5  -8  21   11.13    6.46
   5   8  22   -1.44    3.19
  -5  -8  22    1.74    3.73
   5  -8  22    8.47    6.68
   5   8  23   46.56   11.01
  -5  -8  23   38.64   14.28
   5  -8  23   28.25    8.86
   5   8  24   -1.32    3.18
  -5  -8  24    1.60    5.33
   5  -8  24    8.72    6.76
   5   8  25   64.17   12.80
  -5  -8  25   38.64   14.27
   5  -8  25   81.09   17.68
   5   8  26   -4.02    4.47
  -5  -8  26    5.18    4.97
   5  -8  26   -1.78    2.05
   5  -8  26   -1.33    5.25
   5  -8  27    8.30    7.08
  -5  -8  27    4.71    3.10
   5  -8  27   -3.41    4.73
   5  -8  28    9.63    8.14
   5   8  28   12.60    6.84
  -5  -8  28    6.42    9.46
   5  -8  28    8.44    5.82
   5  -8  29  109.55   19.91
  -5  -8  29  119.76   24.38
   5  -8  29  122.92   22.26
   5  -8  30    2.05    4.19
  -5  -8  30   -6.07    6.08
   5  -8  30    5.68    5.94
  -5  -8  31  109.14   23.80
   5  -8  31  120.69   22.86
   5  -8  32   60.16   15.50
  -5  -8  32   42.19   16.84
  -5  -8  33    8.25   10.37
  -5  -9   0   -0.62    2.39
  -5  -9   1   15.55    7.02
  -5  -9  -1   13.82    6.67
   5   9  -2  276.44   18.86
  -5  -9  -2  307.03   28.99
  -5  -9   2  267.60   28.26
  -5  -9   3   39.03   10.79
   5   9  -3   37.28    7.05
  -5  -9  -3   49.31   11.28
  -5  -9   4   15.44    7.79
  -5  -9  -4    6.52    3.74
   5   9  -4    7.73    3.49
  -5  -9  -5   38.34    9.99
  -5  -9   5   29.78   10.29
  -5  -9  -6    7.14    4.53
  -5  -9   6    9.83    6.62
  -5  -9  -7   43.18   10.62
  -5  -9   7   36.90   11.97
  -5  -9  -8   40.36   10.75
   5   9   8   36.04    6.60
  -5  -9   8   21.95    8.01
  -5  -9  -9   40.72    9.89
   5  -9   9   48.71   11.40
   5   9   9   44.93    7.37
  -5  -9   9   38.65   11.03
  -5  -9 -10   64.21   12.49
   5  -9  10   78.88   14.19
   5   9  10   69.44    9.39
  -5  -9  10   70.37   15.43
  -5  -9 -11   14.38    4.61
   5   9  11   28.25    6.27
  -5  -9  11   21.98    9.89
  -5  -9 -12  137.85   18.38
  -5  -9  12  134.85   22.05
   5  -9  12  135.13   18.45
   5   9  12  152.37   14.16
   5   9  13    3.11    2.87
  -5  -9  13    2.68    5.53
  -5  -9 -13   -0.16    1.95
   5  -9  13    2.22    3.22
   5  -9  14   15.21    7.07
  -5  -9  14    7.44    5.34
  -5  -9 -14    8.78    5.13
   5   9  14   13.04    4.53
  -5  -9  15   38.82   11.76
   5  -9  15   34.62    9.93
  -5  -9 -15   36.68    9.72
   5   9  15   25.64    6.34
  -5  -9  16    0.11    2.98
   5  -9  16    3.79    5.02
   5   9  16    2.63    3.15
   5   9  17    0.86    1.27
  -5  -9  17    4.33    5.07
   5  -9  17   -2.47    3.58
  -5  -9  18   27.37   11.65
   5   9  18   22.18    6.47
   5  -9  18   25.01    8.80
   5   9  19    1.21    2.78
  -5  -9  19   -0.94    2.72
   5  -9  19   -0.37    1.77
   5   9  20   26.71    7.72
   5  -9  20   35.65    9.59
  -5  -9  20   28.69   10.64
  -5  -9  21   24.13    9.38
   5   9  21   12.33    5.64
   5  -9  21    8.76    4.75
   5   9  22    3.95    4.47
  -5  -9  22   -0.08    6.04
   5  -9  22    2.32    2.30
   5   9  23   -3.33    2.90
   5  -9  23    0.37    2.07
  -5  -9  24   45.51   14.92
   5  -9  24   94.12   18.83
   5  -9  25   13.67    7.71
  -5  -9  25   12.09    8.71
   5  -9  25    4.09    4.07
   5  -9  26   23.25    9.15
  -5  -9  26   11.33    8.47
   5  -9  26    5.66    3.20
   5  -9  27    8.18    5.48
  -5  -9  27    0.18    3.51
   5  -9  27    3.41    4.76
   5  -9  28    0.65    2.25
  -5  -9  28    6.22    5.41
   5  -9  28    2.26    4.49
   5  -9  29    3.44    5.58
  -5  -9  29   17.63   11.73
   5  -9  29    9.80    5.56
   5  -9  30   -5.96    7.35
  -5  -9  30   -2.06    4.11
   5  -9  30    6.07    6.21
   5  -9  31   -2.42    5.86
  -5  -9  31    0.89    7.20
  -5  -9  32   17.59   10.83
  -5  -9  33   -0.77    7.23
  -5 -10   0   -1.48    2.47
   5  10   0   -0.46    0.81
  -5 -10   1    4.55    6.14
  -5 -10  -1    3.52    4.38
   5  10  -1    3.27    2.40
   5  10   1    4.62    2.35
   5  10  -2  395.24   20.80
  -5 -10   2  432.99   36.66
  -5 -10  -2  427.38   35.59
  -5 -10  -3  194.68   23.94
  -5 -10   3  161.16   22.46
  -5 -10  -4  251.29   26.74
  -5 -10   4  241.22   28.35
  -5 -10   5  190.11   25.05
  -5 -10  -5  152.68   20.47
  -5 -10  -6  375.64   32.35
  -5 -10   6  315.56   33.44
   5  10   6  354.72   18.31
  -5 -10   7  186.27   25.86
   5  10   7  186.01   13.00
  -5 -10  -7  232.43   25.17
  -5 -10   8  130.09   21.53
   5  10   8  137.94   11.34
  -5 -10  -8  176.30   21.87
   5 -10   8  169.37   20.47
   5  10   9  750.58   26.40
  -5 -10   9  723.66   51.29
   5 -10   9  784.29   43.97
  -5 -10  -9  794.67   46.73
  -5 -10 -10    0.76    1.52
   5 -10  10    2.67    3.85
   5  10  10    1.48    1.17
  -5 -10  10   -0.68    2.77
  -5 -10  11  572.55   46.53
  -5 -10 -11  560.03   38.49
   5 -10  11  593.60   39.08
   5  10  11  575.81   23.68
  -5 -10 -12    5.33    4.07
   5  10  12    0.20    0.92
   5 -10  12   -0.91    3.18
  -5 -10  12    1.59    3.80
  -5 -10 -13  388.57   31.28
  -5 -10  13  382.77   38.74
   5 -10  13  376.14   32.00
   5  10  13  356.08   20.86
  -5 -10  14   68.12   16.72
  -5 -10 -14  101.79   15.90
   5 -10  14  117.04   17.59
   5  10  14   85.52   10.51
  -5 -10  15  317.71   36.44
   5 -10  15  311.67   29.37
   5 -10  16   28.02    9.30
  -5 -10  16   24.16   12.71
  -5 -10  17  167.46   26.77
   5 -10  17  156.85   21.42
   5 -10  18   32.17    9.87
  -5 -10  18   54.87   15.64
  -5 -10  19   31.80   12.21
   5 -10  19   26.73    8.64
  -5 -10  20   30.25   12.22
   5 -10  20   16.95    6.94
  -5 -10  21   21.99   11.20
   5 -10  21   11.70    6.41
  -5 -10  22   -0.04    4.18
   5 -10  22    4.79    5.75
  -5 -10  23    7.79    9.25
   5 -10  23    7.29    5.53
   5 -10  24    2.34    3.66
  -5 -10  24   -0.62    4.25
   5 -10  24    0.85    4.54
   5 -10  25   15.62    8.06
   5 -10  25    8.75    6.58
   5 -10  26   15.72    8.08
  -5 -10  26   25.05   12.66
   5 -10  26   27.63   11.10
   5 -10  27   33.16   12.08
  -5 -10  27   15.57    9.12
   5 -10  27   34.84   12.37
   5 -10  28   43.35   14.04
  -5 -10  28   32.41   13.79
   5 -10  28   29.65   11.39
   5 -10  29   89.13   19.71
  -5 -10  29  129.04   27.04
   5 -10  29   88.64   18.62
   5 -10  30   60.52   17.56
  -5 -10  30   74.77   20.86
   5 -10  30   58.48   15.79
  -5 -10  31   83.97   22.45
   5 -10  31   59.70   16.60
  -5 -10  32    4.12    4.69
  -5 -11   0    4.28    3.38
  -5 -11  -1   55.05   13.29
  -5 -11   1   72.35   15.73
  -5 -11  -2   66.35   14.45
  -5 -11   2   64.39   14.55
  -5 -11   3   88.57   17.41
  -5 -11  -3  101.81   18.06
  -5 -11  -4   -1.61    2.90
  -5 -11   4    8.57    7.30
  -5 -11  -5   18.07    7.79
  -5 -11   5   16.30    8.72
  -5 -11  -6   16.02    7.29
   5 -11   6   42.28   10.26
  -5 -11   6   26.22   10.38
  -5 -11  -7    1.75    2.52
  -5 -11   7   -3.10    4.23
  -5 -11  -8   53.41   12.56
   5 -11   8   52.70   11.75
  -5 -11   8   57.06   14.96
  -5 -11  -9   34.82   10.24
  -5 -11   9   34.21   11.63
   5 -11   9   16.75    6.56
   5 -11  10    2.41    2.46
  -5 -11  10    0.48    3.26
  -5 -11 -11    1.11    2.45
  -5 -11  11   -0.63    2.62
   5 -11  11    3.84    3.12
   5 -11  12   43.36   10.17
  -5 -11 -12   41.78   10.89
  -5 -11  12   35.42   13.03
  -5 -11 -13   82.77   15.27
  -5 -11  13   78.22   18.31
   5 -11  13  106.63   16.94
   5 -11  14   40.92   10.72
  -5 -11  14   19.82    9.13
   5 -11  15   20.50    7.52
  -5 -11  15   14.84    8.21
   5 -11  16   10.43    3.58
  -5 -11  16    4.64    3.16
   5 -11  17   10.12    5.56
  -5 -11  17   18.15    9.99
   5 -11  18    2.73    4.29
  -5 -11  18    3.79    8.04
  -5 -11  19   46.34   15.25
   5 -11  19   23.81    8.78
  -5 -11  20   52.02   15.34
   5 -11  20   22.54    9.07
  -5 -11  21    6.75    8.58
   5 -11  21   21.01    9.04
  -5 -11  22   -0.82    6.93
   5 -11  22   18.27   10.52
   5 -11  23   50.05   13.95
  -5 -11  23   45.94   15.42
   5 -11  23   40.88   14.02
   5 -11  24   64.02   15.38
   5 -11  24   41.92   14.16
   5 -11  25    1.36    5.24
   5 -11  25    3.63    5.77
  -5 -11  25    0.77    4.83
   5 -11  26   -0.29    2.54
  -5 -11  26   -0.05    7.05
   5 -11  26    0.71    4.91
   5 -11  27    2.13    4.64
  -5 -11  27   10.76    8.79
   5 -11  27   -5.48    5.54
   5 -11  28   25.99   11.54
  -5 -11  28   31.38   13.89
   5 -11  28   37.46   13.39
   5 -11  29   -4.66    6.06
  -5 -11  29   16.20    9.95
   5 -11  29   16.83   10.26
   5 -11  30    4.34    3.13
  -5 -12   0    2.84    3.63
  -5 -12   1    2.45    2.57
  -5 -12  -1    2.04    3.72
  -5 -12  -2    5.89    5.93
  -5 -12   2    8.00    5.80
  -5 -12  -3    5.11    5.59
  -5 -12   3    0.87    5.38
  -5 -12  -4   43.78   12.06
   5 -12   4   36.66    9.52
  -5 -12   4   61.48   14.86
  -5 -12  -5   -2.46    4.36
   5 -12   5   -3.34    3.70
  -5 -12   5    0.27    4.63
  -5 -12  -6   18.19    7.91
   5 -12   6   17.03    7.59
  -5 -12   6   12.61    8.32
  -5 -12  -7   11.06    5.97
  -5 -12   7   15.79    7.81
   5 -12   7   24.09    7.48
   5 -12   8  108.92   16.31
  -5 -12  -8  135.81   20.90
  -5 -12   8   75.50   16.89
  -5 -12  -9   57.38   13.54
   5 -12   9   37.87    9.51
  -5 -12   9   32.00   10.95
   5 -12  10  156.86   20.17
  -5 -12  10  139.71   23.75
  -5 -12 -10  154.07   21.23
  -5 -12  11   80.24   18.11
   5 -12  11   67.57   13.48
  -5 -12 -11   85.49   16.22
  -5 -12 -12    1.65    2.39
   5 -12  12    1.42    4.31
  -5 -12  12   -0.50    6.38
   5 -12  13    9.52    6.43
  -5 -12  13   -6.49    5.19
   5 -12  14   13.00    6.35
  -5 -12  14   13.49    9.03
   5 -12  15   27.43    8.99
  -5 -12  15   38.77   14.19
   5 -12  16    7.70    4.30
  -5 -12  16   47.97   16.69
   5 -12  17   10.05    5.68
  -5 -12  17    9.45    7.53
   5 -12  18   -5.31    4.72
  -5 -12  18    6.26    5.45
  -5 -12  19   10.11    9.57
   5 -12  19    5.95    5.83
  -5 -12  20   10.19    7.14
   5 -12  20   -0.65    4.71
  -5 -12  21    7.98    4.65
   5 -12  21   14.07    6.67
  -5 -12  22   17.37   12.51
   5 -12  22   16.30    8.04
   5 -12  22    5.18    6.68
  -5 -12  23   13.67    8.95
   5 -12  23   12.88    7.90
  -5 -12  24    0.96    5.32
   5 -12  24   -4.09    5.56
   5 -12  24   -0.16    3.95
   5 -12  25    5.66    7.16
  -5 -12  25   13.09    9.71
   5 -12  25    8.57    6.32
  -5 -12  26    5.39    6.63
   5 -12  26    1.39    7.30
   5 -12  26    8.06    5.97
   5 -12  27   14.30    8.29
  -5 -12  27    7.79    7.86
   5 -12  27    1.68    5.30
   5 -12  28   12.71    6.70
   5 -12  28   24.18   11.18
  -5 -13   0    6.57    7.09
  -5 -13   1   28.35   11.15
  -5 -13  -1   23.80   10.23
  -5 -13  -2   18.24    9.04
  -5 -13   2    7.88    5.86
  -5 -13  -3   10.10    6.51
  -5 -13   3   18.79    9.43
  -5 -13  -4   10.85    6.72
   5 -13   4   13.94    6.13
  -5 -13   4    5.54    3.14
  -5 -13  -5   -0.47    2.83
   5 -13   5    7.98    5.02
  -5 -13   5    2.88    2.15
  -5 -13  -6   69.81   16.19
  -5 -13   6  110.67   21.43
   5 -13   6   73.75   12.72
  -5 -13  -7   17.66    7.66
   5 -13   7   16.37    6.49
  -5 -13   7   12.14    5.42
  -5 -13  -8    8.44    7.21
   5 -13   8    9.97    5.55
  -5 -13   8    1.78    3.48
  -5 -13  -9   -1.01    2.71
   5 -13   9   -1.65    2.34
  -5 -13   9    1.97    5.66
  -5 -13 -10   23.20    8.54
  -5 -13  10   27.03   12.22
  -5 -13 -11    0.20    3.27
   5 -13  11    2.79    2.59
  -5 -13  11   -0.44    5.49
   5 -13  12   -0.39    2.76
  -5 -13  12    7.97    7.05
   5 -13  13    0.19    1.79
  -5 -13  13    3.46    2.39
  -5 -13  14    1.60    3.18
   5 -13  14    6.09    4.25
  -5 -13  15   24.81   11.98
   5 -13  15   11.59    5.80
   5 -13  16    0.97    2.45
  -5 -13  16    6.13    8.47
  -5 -13  17    1.90    5.49
   5 -13  17    3.64    4.51
   5 -13  18   -1.65    3.80
  -5 -13  18   14.46   10.17
   5 -13  19    2.82    3.07
  -5 -13  19    5.91    4.08
   5 -13  20   -6.45    6.16
   5 -13  20   -9.77    8.96
  -5 -13  20   -1.19    4.79
  -5 -13  21   17.67   10.92
   5 -13  21    9.13    6.81
   5 -13  21    2.96    2.90
  -5 -13  22   -2.18    5.59
   5 -13  22    5.27    4.94
   5 -13  22    9.18    6.43
  -5 -13  23    1.91    3.45
   5 -13  23    6.05    4.05
   5 -13  23    1.12    2.99
  -5 -13  24    1.24    5.99
   5 -13  24   -0.36    4.49
   5 -13  24   10.83   10.19
   5 -13  25    3.01    5.46
   5 -13  25    0.96    3.90
   5 -13  26    1.89    6.06
   5 -13  27    3.99    6.69
  -5 -14   0    8.31    7.14
  -5 -14  -1  111.33   21.33
  -5 -14   1   74.42   18.35
  -5 -14  -2    8.12    5.11
  -5 -14   2   10.12    6.01
  -5 -14  -3   33.80   12.10
  -5 -14   3   33.43   12.81
  -5 -14  -4   56.94   15.50
  -5 -14   4   66.31   16.18
  -5 -14  -5   11.54    7.16
  -5 -14   5    6.80    4.66
  -5 -14  -6   33.36   11.61
  -5 -14   6   14.15    8.83
  -5 -14  -7   12.97    7.03
  -5 -14   7    5.78    6.71
  -5 -14  -8   73.59   16.40
  -5 -14   8   62.86   17.90
  -5 -14  -9    8.61    6.80
  -5 -14   9   -1.88    3.12
  -5 -14 -10  367.13   36.20
  -5 -14  10  459.29   47.35
  -5 -14  11   39.84   14.65
  -5 -14  12  286.45   38.17
  -5 -14  13   25.34   11.02
  -5 -14  14   41.09   14.47
  -5 -14  15   24.01   11.25
  -5 -14  16    4.82    2.83
  -5 -14  17   36.46   15.50
   5 -14  18   26.74   12.76
  -5 -14  18   50.72   19.44
   5 -14  19   14.42    7.09
  -5 -14  19    3.11    4.29
   5 -14  20   40.67   14.19
  -5 -14  20   33.63   12.87
  -5 -14  21   44.37   17.54
   5 -14  21   51.77   17.79
   5 -14  22    0.92    5.08
  -5 -15   0    5.34    3.94
  -5 -15   1   22.05   10.45
  -5 -15  -1   10.42    4.23
  -5 -15   2  120.82   23.07
  -5 -15  -2  116.38   22.11
  -5 -15  -3    8.15    6.32
  -5 -15   3   33.55   12.94
  -5 -15  -4    9.77    7.62
  -5 -15   4    5.93    7.12
  -5 -15  -5    5.93    6.41
  -5 -15   5    9.32    9.50
  -5 -15  -6   -6.01    6.58
  -5 -15   6    5.51    6.66
  -5 -15  -7    1.22    3.59
  -5 -15   7    5.35    7.26
  -5 -15  -8   -0.93    4.45
  -5 -15   8   10.54    6.71
  -5 -15  -9   17.04    9.00
  -5 -15   9    5.51    3.22
  -5 -15  10   -0.05    5.35
  -5 -15  11    4.08    8.79
  -5 -15  12    5.31    8.40
  -5 -15  13   -0.88    2.87
  -5 -15  14   52.35   18.82
  -5 -15  15   16.28   11.55
   5 -15  16    4.60    5.86
  -5 -15  16   -3.81    6.14
   5 -15  17   -8.19    7.86
  -5 -15  17   14.34   10.81
   5 -15  18   19.08    9.98
  -5 -15  18    1.91    7.37
  -5 -16   0    1.24    6.46
  -5 -16  -1   10.06    7.54
  -5 -16   1   -0.09    5.98
  -5 -16  -2   13.29   10.44
  -5 -16   2    3.81   10.63
  -5 -16  -3   15.63    9.28
  -5 -16   3   21.29   11.76
  -5 -16  -4   17.64    9.13
  -5 -16   4   27.09   12.51
  -5 -16  -5   13.13    9.51
  -5 -16   5   -1.23    2.61
  -5 -16  -6   62.88   16.67
  -5 -16   6   53.45   16.00
  -5 -16  -7   -0.19    5.83
  -5 -16   7   -2.03    6.49
  -5 -16   8    8.75    6.52
  -5 -16   9   42.04   14.76
  -5 -16  10   29.51   16.21
  -5 -16  11   39.29   16.44
  -5 -16  12   12.36   10.23
   5 -16  13   -1.01    6.28
  -5 -16  13   15.70   10.20
  -5 -16  14   11.01   10.03
  -5 -17   0   -6.84    7.50
  -5 -17  -1    6.74    3.99
  -5 -17   1    3.82    4.32
  -5 -17  -2   33.02   14.34
  -5 -17   2   22.47   12.05
  -5 -17  -3   18.66   11.51
  -5 -17   3   23.74   13.66
  -5 -17  -4   14.47    9.63
  -5 -17   4    7.59    5.85
  -5 -17  -5   -8.25    7.73
  -5 -17   5   17.14   10.31
  -5 -17   6   63.27   18.58
  -5 -17   7   -0.92    6.96
   5 -17   8   17.83   10.14
  -5 -17   8   20.72   11.81
  -5 -17   9   16.88   11.07
  -5 -18   0   -5.03    5.19
   5 -18   0   -5.11    8.83
  -5 -18  -1    1.10    7.51
  -5 -18   1   10.14    8.56
   5 -18  -1   -0.83    9.35
   5 -18   1  -14.74   12.57
  -5 -18   2   17.90    8.94
  -5 -18  -2    0.25    6.10
   5 -18  -2   -2.42    7.07
  -5 -18  -3  -11.16    8.14
   5 -18  -3    6.84    7.78
  -5 -18   3    5.36    6.14
  -5 -18  -4   -2.87    7.20
   5 -18  -4   -1.74    4.70
  -5 -18   4   -2.87    5.69
   5 -18  -5    8.38    6.84
   5 -18  -6   15.84   10.09
   5 -18  -7   13.99   12.58
  -6   0   0 1204.21   54.58
  -6   0   1   -0.13    1.67
  -6   0  -1   -0.78    2.68
  -6   0  -2  173.56   20.95
  -6   0   2  210.21   22.85
  -6   0  -3    2.08    1.75
  -6   0   3    0.60    4.38
  -6   0  -4   54.72   11.66
  -6   0   4   45.79   10.76
  -6   0   5    3.33    4.60
  -6   0  -5   -0.38    1.81
  -6   0  -6  118.31   17.41
  -6   0   6  105.92   17.26
  -6   0   7    0.47    1.21
  -6   0  -7   -1.54    2.46
  -6   0  -8   46.35   11.34
  -6   0   8   48.18   12.19
  -6   0  -9    2.39    3.71
  -6   0   9   -0.02    1.76
  -6   0  10   63.66   13.78
  -6   0  11    0.91    2.01
  -6   0  12   12.14    8.17
  -6   0  13    6.42    4.65
  -6   0  14   14.91    9.00
  -6   0  15   -1.20    3.22
  -6   0  16   19.51    8.42
   6   0  16   22.72    7.86
  -6   0  17    0.62    2.62
   6   0  17    3.29    3.24
  -6   0  18  194.07   25.83
   6   0  18  189.36   22.73
  -6   0  19    2.48    3.55
   6   0  19    3.60    4.16
  -6   0  20   88.30   17.66
   6   0  20   80.30   15.18
  -6   0  21    2.02    4.36
   6   0  21    2.23    4.77
   6   0  22  185.90   23.30
  -6   0  22  231.28   29.39
  -6   0  23    4.72    5.56
   6   0  23   -2.73    2.77
  -6   0  24   67.46   16.54
   6   0  24   52.07   11.94
  -6   0  25   -0.99    3.05
   6   0  25    5.21    5.03
  -6   0  26   86.13   19.63
   6   0  26  108.47   18.51
  -6   0  27   12.79    9.52
   6   0  27   -2.41    4.20
  -6   0  28   49.20   15.63
   6   0  28   42.48   12.47
   6   0  29    7.88    8.09
   6   0  30   10.51    7.43
   6   0  31    3.13    3.49
   6   0  32   21.65   10.70
   6   0  33    1.31    2.38
   6   0  34   63.67   17.34
   6   0  35    2.21    4.46
  -6   1   0  517.35   35.84
  -6  -1   0  545.34   36.30
  -6   1   1  162.24   21.15
  -6   1  -1  143.43   19.58
  -6  -1   1  193.69   21.59
  -6  -1  -1  178.66   20.30
  -6   1   2    0.21    4.36
  -6  -1   2    3.70    5.00
  -6  -1  -2   -2.66    3.07
  -6   1  -2   -0.09    2.11
  -6   1   3   -2.11    3.69
  -6   1  -3    5.15    3.01
  -6  -1   3    2.48    3.02
  -6  -1  -3    5.32    5.83
  -6  -1   4   22.81    7.96
  -6   1  -4   43.03   10.69
  -6   1   4   30.77    8.96
  -6  -1  -4   31.98    8.73
  -6  -1  -5   50.96   11.13
  -6  -1   5   47.82   11.22
  -6   1  -5   59.24   12.82
  -6   1   5   39.42    9.92
  -6  -1   6   20.22    7.06
  -6  -1  -6   41.53   10.10
  -6   1  -6   24.55    8.17
  -6   1   6   33.72    8.76
  -6  -1   7    4.68    4.66
  -6  -1  -7    2.07    2.43
  -6   1   7    6.34    5.83
  -6   1  -7   -1.83    3.73
  -6   1   8    8.82    4.83
  -6  -1   8   11.19    5.35
  -6  -1  -9   -0.98    2.26
  -6   1   9   -2.67    4.09
  -6  -1   9    0.75    1.40
  -6   1  10    8.74    5.99
  -6  -1  10   11.42    5.45
  -6  -1 -10   19.32    6.86
  -6   1  11    2.30    3.67
  -6  -1  11   -2.13    2.88
  -6  -1 -11    4.86    4.79
  -6   1  12   24.71    9.07
  -6  -1  12   25.42    8.46
  -6  -1  13  109.87   18.52
  -6   1  13  129.48   19.54
  -6  -1  14  171.49   22.97
  -6   1  14  134.64   20.19
  -6   1  15   38.06   10.80
  -6  -1  15   31.13    9.47
  -6   1  16   17.46    7.12
  -6  -1  16   21.49   10.30
   6  -1  16   20.85    6.62
   6   1  16   15.92    7.18
  -6   1  17   48.67   12.50
   6  -1  17   42.27   10.75
   6   1  17   55.98   11.99
  -6  -1  17   38.25   11.31
   6  -1  18    1.42    2.16
  -6   1  18   15.58    7.61
   6   1  18    5.96    3.93
  -6  -1  18   17.05    9.07
  -6  -1  19  182.94   25.37
  -6   1  19  147.43   21.96
   6  -1  19  158.73   20.89
   6   1  19  152.71   20.49
  -6   1  20   34.75   11.10
   6  -1  20   21.34    8.58
   6   1  20   25.02    7.96
  -6  -1  20   20.60    8.42
  -6   1  21   41.74   12.84
   6  -1  21   43.12   11.70
   6   1  21   32.33    9.48
  -6  -1  21   25.78    9.77
  -6  -1  22   95.92   18.29
  -6   1  22   56.19   13.90
   6  -1  22   71.43   14.63
   6   1  22   63.23   13.58
  -6   1  23   13.72    8.30
   6  -1  23   14.06    7.51
   6   1  23    1.26    2.92
  -6  -1  23    4.01    4.97
  -6   1  24   24.28   10.17
   6   1  24   16.86    7.95
   6  -1  24   22.15    9.36
  -6  -1  24    6.50    6.90
  -6   1  25   26.73   10.59
   6  -1  25   24.64    7.69
   6   1  25   27.46    9.05
  -6  -1  25   25.14   10.65
  -6  -1  26   10.35    7.76
  -6   1  26    9.01    6.81
   6  -1  26   10.81    6.64
   6   1  26   -1.34    2.28
  -6  -1  27   31.96   11.13
  -6   1  27   15.85    9.15
   6  -1  27   28.09    9.74
   6   1  27   12.99    6.82
  -6  -1  28   29.61   12.33
   6  -1  28   17.02    7.87
   6   1  28   13.60    7.66
  -6  -1  29   42.62   13.82
   6  -1  29   21.08    9.47
   6   1  29   25.11    9.07
   6   1  30    6.26    6.34
   6  -1  30    9.38    7.70
   6  -1  31    8.10    5.87
   6   1  31   10.75    8.12
   6  -1  32   -2.38    3.73
   6   1  32   -3.42    5.25
   6  -1  33   10.60    6.37
   6   1  33    1.86    3.83
   6  -1  34   14.03    9.36
   6   1  34    5.08    6.05
   6   1  35   -3.75    2.60
  -6  -2   0  223.75   23.55
  -6   2   0  219.34   23.34
  -6  -2   1   27.21    8.40
  -6   2   1   19.51    6.97
  -6  -2  -1   24.90    7.76
  -6   2  -1   13.12    5.57
  -6   2  -2   16.18    7.17
  -6  -2  -2   18.83    7.43
  -6  -2   2   15.14    6.42
  -6   2   2   14.45    7.09
  -6   2   3  450.76   34.04
  -6   2  -3  411.93   32.83
  -6  -2   3  422.80   32.79
  -6  -2  -3  416.91   31.33
  -6   2  -4  122.61   18.82
  -6   2   4   75.88   14.20
  -6  -2   4   90.05   15.52
  -6  -2  -4  107.08   15.87
  -6   2   5   54.26   11.74
  -6  -2  -5   23.36    8.09
  -6  -2   5   51.80   11.85
  -6   2   6    3.65    6.05
  -6  -2  -6    0.86    2.87
  -6  -2   6    1.79    3.47
  -6   2   7   -0.65    3.12
  -6  -2   7   -2.52    2.02
  -6  -2  -7    1.70    2.80
  -6   2   8   -0.69    3.21
  -6  -2  -8   -1.19    2.53
  -6  -2   8    6.29    5.84
  -6   2   9    9.81    5.28
  -6  -2  -9   19.15    6.55
  -6  -2   9   23.65    9.41
  -6  -2 -10   44.84   10.28
  -6  -2  10   79.13   15.13
  -6   2  10   59.36   12.85
  -6   2  11   -0.73    1.50
  -6  -2 -11    0.57    1.22
  -6  -2  11   -1.64    3.11
  -6  -2 -12   11.02    5.06
  -6  -2  12    8.66    5.76
  -6   2  12    0.54    2.84
  -6  -2 -13    0.10    2.52
  -6  -2  13    0.94    4.34
  -6   2  13   -0.03    4.84
  -6  -2  14   20.04    9.65
  -6   2  14   10.37    5.46
  -6  -2  15   66.01   14.50
  -6   2  15   59.29   13.78
  -6  -2  16  103.89   18.28
   6  -2  16   85.87   15.27
   6   2  16   96.63   15.80
  -6   2  16   92.64   17.35
   6   2  17   10.19    6.28
   6   2  17   10.26    4.60
  -6  -2  17   23.13    9.92
   6  -2  17   22.81    9.07
  -6   2  17   11.50    6.66
   6  -2  18    2.67    1.92
   6   2  18    2.88    2.64
  -6   2  18    4.36    4.92
  -6  -2  19    6.43    4.46
   6   2  19    5.07    4.87
   6  -2  19   -0.30    3.86
  -6   2  19    7.73    5.66
  -6  -2  20   -5.34    4.72
   6  -2  20    8.02    5.77
   6   2  20   -0.02    1.46
  -6   2  20   11.82    6.63
  -6  -2  21    0.17    3.43
   6  -2  21    0.81    2.27
   6   2  21    3.46    3.44
  -6   2  21    2.55    2.11
  -6  -2  22  272.63   32.55
   6  -2  22  234.60   26.55
   6   2  22  246.84   26.74
  -6   2  22  271.91   30.95
  -6  -2  23   -1.19    4.24
   6  -2  23    1.18    1.81
   6   2  23   -1.96    3.85
  -6   2  23    6.72    8.29
  -6   2  24   -4.94    4.47
   6  -2  24   -1.05    1.58
   6   2  24    0.75    3.07
  -6   2  25    0.60    3.26
  -6  -2  25   10.09    6.58
   6  -2  25    8.01    5.69
   6   2  25    3.39    5.12
  -6   2  26   31.58   12.66
  -6  -2  26   41.93   13.14
   6  -2  26   31.00    9.91
   6   2  26   28.20    9.46
  -6  -2  27   45.02   14.72
   6  -2  27   46.51   12.09
   6   2  27   31.51    9.98
  -6  -2  28   32.92   11.84
   6  -2  28   34.32   10.85
   6   2  28   48.30   12.83
   6   2  29    5.60    5.91
   6  -2  29    9.39    7.88
  -6  -2  29   -4.32    6.33
   6  -2  30    6.75    5.96
   6   2  30   16.21   10.39
  -6  -2  30   23.56   11.99
   6  -2  31   -0.46    4.82
   6   2  31    6.75    7.89
   6  -2  32    7.15    7.39
   6   2  32    5.19    2.56
   6  -2  33   28.08   12.85
   6   2  33   18.40    9.43
   6  -2  34   21.39    9.64
   6   2  34   25.85   10.59
   6   2  35   16.04    8.79
  -6  -3   0  321.46   28.43
  -6   3   0  351.08   30.38
  -6   3  -1  382.24   32.12
  -6  -3   1  354.51   30.25
  -6  -3  -1  386.13   31.22
  -6   3   1  366.44   30.81
  -6  -3   2  288.00   27.42
  -6  -3  -2  306.73   27.49
  -6   3   2  282.50   27.37
  -6  -3   3   66.82   13.44
  -6  -3  -3   91.72   14.91
  -6   3   3   78.00   14.55
  -6  -3   4  233.51   24.92
  -6  -3  -4  236.00   23.72
  -6   3   4  261.05   26.76
  -6  -3  -5   28.53    8.47
  -6   3   5   17.77    7.77
  -6  -3   5    0.78    3.31
  -6  -3   6  173.49   22.06
  -6   3   6  163.43   21.03
  -6  -3  -6  174.76   19.96
  -6  -3   7  340.58   31.47
  -6   3   7  307.78   29.23
  -6  -3  -7  300.59   26.60
  -6  -3   8   15.62    5.96
  -6  -3  -8   15.84    6.08
  -6   3   8   12.03    5.41
  -6  -3   9   64.18   14.26
  -6   3   9   59.19   13.03
  -6  -3  -9   71.86   12.99
  -6  -3 -10    2.67    3.28
  -6  -3  10    9.84    5.24
  -6   3  10    5.12    3.89
  -6  -3 -11    1.07    1.38
  -6  -3  11    7.44    3.91
  -6   3  11    5.81    4.73
  -6  -3  12   29.69    9.41
  -6  -3 -12   39.32    9.66
  -6  -3  13   73.28   15.62
  -6   3  13   65.56   14.16
  -6  -3 -13   64.65   12.93
  -6  -3 -14    1.71    3.25
   6   3  14    0.88    2.00
  -6   3  14    8.73    6.27
  -6  -3  14    0.38    3.15
  -6  -3  15  137.52   22.07
  -6   3  15  148.40   21.07
   6   3  15  134.14   18.56
   6   3  15  116.73   14.84
   6  -3  16   30.30    8.65
   6   3  16   15.45    4.90
  -6   3  16   17.07    8.20
  -6  -3  16   26.96    9.93
   6   3  16   17.63    7.52
   6   3  17    0.90    2.45
  -6   3  17   -1.15    4.33
  -6  -3  17    4.28    5.36
   6   3  17    8.75    5.52
   6  -3  17    2.61    2.89
  -6  -3  18  131.09   21.68
  -6   3  18  137.28   21.29
   6  -3  18  107.62   17.63
   6   3  18  109.54   16.70
   6  -3  19   46.53   11.50
  -6   3  19   31.35   10.62
  -6  -3  19   33.54   11.82
   6   3  19   30.77    9.36
  -6  -3  20  187.53   26.72
  -6   3  20  188.46   25.75
   6   3  20  163.34   20.72
   6  -3  20  127.17   19.71
  -6   3  21   21.59    8.96
  -6  -3  21   28.80   11.56
   6   3  21   10.50    5.55
   6  -3  21   23.74    8.42
  -6   3  22    4.98    4.05
  -6  -3  22   15.22    7.90
   6  -3  22    7.10    5.80
   6   3  22   15.65    6.46
  -6   3  23   48.87   13.94
  -6  -3  23   33.17   11.40
   6   3  23   64.68   13.40
   6  -3  23   60.14   13.92
  -6   3  24   66.70   16.12
  -6  -3  24   58.68   15.95
   6   3  24   49.21   12.31
   6  -3  24   36.60   10.92
  -6  -3  25  103.16   21.21
  -6   3  25   80.13   17.39
   6   3  25   80.76   15.28
   6  -3  25   68.46   15.31
  -6   3  26   87.16   18.06
  -6  -3  26   85.70   19.33
   6  -3  26  125.31   20.49
   6   3  26  105.38   18.46
  -6  -3  27   26.64   10.69
   6  -3  27   34.46   10.89
   6   3  27   41.58   12.42
   6   3  28   52.48   13.49
  -6  -3  28   58.69   17.10
   6  -3  28   59.76   15.12
   6   3  29   17.71    9.24
  -6  -3  29   12.18    8.94
   6  -3  29    8.64    7.91
   6  -3  30    0.36    5.73
   6   3  30    0.06    3.28
  -6  -3  30    2.05    3.82
   6  -3  31    9.42    7.94
   6   3  31   17.33    8.13
   6  -3  32    5.41    6.14
   6   3  32    2.53    3.02
   6  -3  33   21.10   10.87
   6   3  33    9.02    8.26
   6  -3  34    7.13    5.97
   6   3  34   29.19   12.12
   6   3  35   18.60    8.88
  -6  -4   0   89.17   15.52
  -6  -4   1  464.18   35.44
  -6  -4  -1  440.94   33.61
  -6  -4   2  274.38   27.21
  -6  -4  -2  251.41   25.29
  -6  -4  -3   55.52   11.93
  -6   4   3   45.37   11.55
  -6  -4   3   48.76   10.87
  -6   4   4   29.64    9.74
  -6  -4   4   36.96   10.02
  -6  -4  -4   35.04    9.75
  -6   4   5   18.58    8.61
  -6  -4   5   10.53    5.07
  -6  -4  -5   17.98    6.34
  -6  -4  -6   13.89    5.74
  -6  -4   6    9.44    6.67
  -6   4   6   13.77    6.90
  -6  -4  -7    9.06    4.10
  -6   4   7    3.23    5.71
  -6  -4   7   -0.26    3.74
  -6  -4   8  464.25   38.72
  -6  -4  -8  532.85   34.93
  -6   4   8  492.37   37.54
  -6  -4   9  160.53   22.36
  -6  -4  -9  164.90   19.84
  -6   4   9  209.19   24.21
  -6  -4  10    7.89    5.52
  -6   4  10   19.82    7.92
  -6  -4 -10   17.09    6.61
  -6  -4 -11   16.75    6.41
  -6  -4  11    7.01    3.98
  -6  -4  12   77.04   16.98
  -6  -4 -12   56.87   11.85
  -6   4  12   45.78   11.58
   6   4  13   34.46    7.81
  -6  -4  13   54.06   13.29
  -6   4  13   36.38   11.00
  -6  -4 -13   39.05   10.04
  -6  -4  14  163.90   23.68
  -6  -4 -14  176.07   19.75
  -6   4  14  192.33   24.36
   6   4  14  202.25   18.66
   6   4  15   17.94    5.21
  -6   4  15   17.51    7.51
  -6  -4  15   25.52   10.37
  -6  -4 -15   13.47    5.74
   6   4  15    9.78    5.59
   6  -4  15   17.22    5.97
   6   4  16   23.21    6.38
   6  -4  16   26.88    8.76
  -6   4  16   22.77    9.11
   6   4  16   26.01    8.35
  -6  -4  16   21.03    9.52
  -6  -4 -16   30.33    8.12
   6   4  17    4.54    4.14
  -6   4  17    2.88    5.28
  -6  -4  17    3.56    1.88
   6  -4  17    2.13    4.27
   6   4  17    1.30    3.36
  -6   4  18   13.20    7.23
  -6  -4  18    7.64    6.32
   6  -4  18   -0.63    3.35
   6   4  18    7.20    5.64
  -6   4  19   12.16    6.85
   6   4  19   11.67    6.36
  -6  -4  19   17.90    8.39
   6  -4  19    3.63    3.98
  -6   4  20   74.35   15.96
  -6  -4  20   71.94   17.22
   6  -4  20   40.02   10.74
   6   4  20   51.42   11.61
  -6   4  21   24.81    8.56
  -6  -4  21   30.26   11.45
   6   4  21   36.34    9.86
   6  -4  21   20.51    8.18
  -6  -4  22   48.00   14.47
  -6   4  22   56.43   15.47
   6  -4  22   49.67   12.46
   6   4  22   54.71   12.05
  -6  -4  23    5.30    6.37
  -6   4  23    5.33    4.92
   6   4  23   14.19    7.67
   6  -4  23   -1.17    1.99
  -6  -4  24   31.04   12.60
  -6   4  24   49.17   13.48
   6  -4  24   32.95   11.75
   6   4  24   31.17    9.45
  -6  -4  25    0.39    4.11
  -6   4  25    2.92    5.22
   6  -4  25    2.99    3.25
   6   4  25   -2.56    2.04
  -6  -4  26    5.86    5.98
   6  -4  26    0.92    3.88
   6   4  26    6.45    4.96
  -6  -4  27   14.29    8.26
   6  -4  27   30.46   10.65
   6   4  27   43.61   13.42
   6   4  28    6.42    4.78
   6  -4  28    4.58    5.10
   6  -4  29    4.47    6.78
  -6  -4  29    8.83    6.87
   6   4  29   -2.96    4.90
   6  -4  30   16.27    8.69
   6   4  30   12.95    8.30
  -6  -4  30   34.77   14.63
   6  -4  31    1.54    4.69
   6   4  31    1.66    3.37
  -6  -4  31    2.80    4.00
   6  -4  32    5.58    3.72
   6   4  32   10.23    6.44
   6  -4  33   66.33   17.91
   6   4  33   48.75   15.18
   6   4  34   -7.24    5.75
   6   4  35    6.27    5.15
  -6  -5   0   52.76   11.15
  -6  -5   1 1077.10   54.37
  -6  -5  -1 1090.79   54.12
  -6  -5  -2   57.31   12.63
  -6  -5   2   50.79   11.23
  -6  -5   3   71.58   14.23
  -6  -5  -3   58.32   12.57
  -6  -5   4   65.10   14.45
  -6  -5  -4   68.61   13.62
  -6  -5  -5  558.37   37.35
  -6  -5   5  607.41   41.71
  -6  -5  -6   79.73   13.94
  -6  -5   6   81.03   15.28
  -6  -5  -7  155.56   19.47
  -6  -5   7  159.05   22.10
  -6  -5  -8  120.77   17.40
  -6  -5   8   77.92   15.71
  -6  -5  -9   42.08    9.62
  -6  -5   9   31.33    9.64
  -6  -5 -10    4.87    3.18
  -6  -5  10    6.23    4.96
  -6  -5  11    4.85    2.99
  -6  -5 -11    2.94    4.57
  -6   5  11    2.47    4.40
  -6   5  12  185.65   23.98
  -6  -5 -12  135.75   17.42
  -6  -5  12  141.73   21.52
  -6  -5 -13    7.50    5.94
  -6  -5  13   -3.15    4.71
  -6   5  13    3.74    4.81
  -6   5  14   74.64   14.80
  -6  -5 -14   63.50   11.76
  -6  -5  14   63.12   14.65
   6   5  14   55.72    9.44
   6   5  14   59.61   11.75
  -6  -5  15   55.31   13.60
   6  -5  15   46.76   11.35
  -6  -5 -15   37.63    9.11
   6   5  15   37.83    9.31
   6   5  15   29.94    6.71
  -6   5  15   56.14   14.32
  -6  -5  16    1.91    2.86
  -6  -5 -16    3.10    4.05
   6   5  16   -2.40    3.38
  -6   5  16   -1.58    2.03
   6  -5  16   -2.12    2.82
  -6   5  17   70.17   14.97
   6  -5  17   68.54   14.33
   6   5  17   86.40   14.25
  -6  -5 -17   67.58   11.53
  -6  -5  17   99.99   19.16
  -6  -5  18   79.49   17.08
  -6   5  18   54.08   14.26
   6  -5  18   69.77   14.59
   6   5  18   76.39   13.42
   6   5  19   54.44   11.78
  -6  -5  19   51.03   14.08
   6  -5  19   43.23   11.15
  -6   5  19   41.35   11.87
  -6   5  20  128.52   20.99
   6  -5  20  149.52   21.44
   6   5  20  172.86   21.06
  -6  -5  20  155.60   24.60
  -6   5  21  311.45   33.28
   6  -5  21  276.96   29.34
   6   5  21  262.24   26.25
  -6  -5  21  306.15   35.46
   6  -5  22    2.63    2.23
  -6  -5  22    4.33    6.03
   6   5  22   -0.25    3.48
  -6  -5  23  152.55   25.99
   6   5  23  167.89   21.48
   6  -5  23  204.42   26.00
  -6  -5  24    7.39    7.99
   6  -5  24    4.98    6.34
   6   5  24    3.99    3.68
  -6  -5  25   19.67   10.75
   6  -5  25    9.18    5.93
   6   5  25   12.13    7.41
  -6  -5  26   36.02   13.14
   6  -5  26   61.79   14.75
   6   5  26   42.94   12.02
   6   5  27   49.68   12.82
  -6  -5  27   37.40   14.08
   6  -5  27   40.19   12.13
   6   5  28   35.82   11.61
  -6  -5  28   39.12   14.54
   6  -5  28   34.76   11.42
  -6  -5  29   -1.91    3.66
   6   5  29    4.26    4.75
   6  -5  29   -0.54    2.18
   6   5  30   -2.80    4.12
  -6  -5  30    2.95    3.54
   6  -5  31    4.25    3.55
   6   5  31    2.04    5.30
  -6  -5  31    4.96    3.52
   6  -5  32   -1.96    3.89
   6   5  32    4.09    4.19
   6  -5  33   22.31    9.63
   6   5  33   33.26   11.57
   6   5  34   11.53    7.54
   6   5  35   11.02   10.45
  -6  -6   0   74.11   14.61
  -6  -6  -1  119.42   18.43
  -6  -6   1  145.92   20.36
  -6  -6  -2   51.24   11.74
  -6  -6   2   69.25   13.86
  -6  -6   3   -0.44    2.90
  -6  -6  -3    7.04    3.86
  -6  -6  -4  322.34   29.10
  -6  -6   4  332.11   31.74
  -6  -6  -5  257.59   25.62
  -6  -6   5  204.67   24.84
  -6  -6  -6   72.61   14.04
  -6  -6   6   58.44   13.64
  -6  -6   7   30.17   10.53
  -6  -6  -7   47.77   10.98
  -6  -6   8    9.76    6.94
  -6  -6  -8   14.79    5.90
  -6  -6   9    2.34    2.57
  -6  -6  -9   -3.17    2.63
  -6  -6 -10   44.03   10.39
  -6  -6  10   49.25   13.68
  -6  -6 -11    8.07    5.63
  -6  -6  11   14.01    7.44
  -6  -6  12   13.07    5.64
  -6  -6 -12    8.73    5.65
  -6  -6  13    7.42    5.97
  -6  -6 -13    6.82    3.67
  -6  -6 -14    8.85    4.80
   6   6  14   13.08    4.98
  -6  -6  14   -5.78    8.32
   6  -6  14   12.99    7.82
  -6  -6 -15   17.99    7.15
  -6  -6  15    8.44    5.45
   6  -6  15   12.24    7.67
   6   6  15   21.68    7.67
  -6  -6  16   47.37   14.06
  -6  -6 -16   36.18    8.87
   6   6  16   55.70   11.38
   6  -6  16   39.59   10.48
  -6  -6 -17  327.87   25.96
   6  -6  17  382.98   33.63
  -6  -6  17  275.05   32.55
   6   6  17  342.87   27.76
  -6  -6  18   75.18   16.86
   6  -6  18   95.82   17.23
   6   6  18  131.33   17.41
  -6  -6 -18  106.78   14.17
  -6  -6  19   -0.87    3.20
   6  -6  19    8.78    5.49
   6   6  19    7.76    4.54
  -6  -6  20    8.86    3.17
   6   6  20    1.83    2.41
   6  -6  20    4.35    4.49
  -6  -6  21    0.76    7.91
   6  -6  21    6.30    4.91
   6   6  21   11.19    5.97
  -6  -6  22   38.56   12.57
   6  -6  22   30.39   10.06
   6   6  22   30.76    9.42
  -6  -6  23   36.84   13.59
   6  -6  23   51.63   13.34
   6   6  23   49.73   11.43
  -6  -6  24   53.40   16.23
   6  -6  24   54.32   13.35
   6   6  24   48.93   11.91
   6   6  25   35.44    9.94
  -6  -6  25   16.58   10.97
   6  -6  25   29.18   10.12
   6   6  26   15.56    7.78
   6  -6  26   32.80   11.27
   6   6  27   50.45   12.78
  -6  -6  27   46.06   14.94
   6  -6  27   32.78   10.94
   6   6  28   -5.57    6.98
  -6  -6  28   -2.59    6.46
   6  -6  28    8.75    7.27
   6  -6  29    2.59    5.10
   6   6  29   -0.80    4.27
  -6  -6  29   -5.25    3.66
   6  -6  30    0.30    2.36
   6   6  30    2.63    5.60
  -6  -6  30    4.73    3.60
   6  -6  31   16.61    8.83
   6   6  31    3.08    5.61
  -6  -6  31    6.32    8.36
   6  -6  32   29.69   12.51
   6   6  32   18.42    8.05
  -6  -6  32   20.25   11.33
   6   6  33   32.70   11.10
   6   6  34    4.98    5.62
  -6  -7   0   15.31    7.51
  -6  -7   1    1.93    3.25
  -6  -7  -1   12.73    4.31
  -6  -7   2   48.28   11.92
  -6  -7  -2   72.24   14.57
  -6  -7   3    4.07    4.81
  -6  -7  -3    9.26    6.67
  -6  -7  -4  102.02   17.04
  -6  -7   4   97.93   17.53
  -6  -7   5   -0.94    4.70
  -6  -7  -5   -0.87    2.03
  -6  -7   6   16.54    7.68
  -6  -7  -6   20.84    8.98
  -6  -7  -7  181.57   22.26
  -6  -7   7  143.87   22.30
  -6  -7   8    1.30    4.26
  -6  -7  -8   -0.35    2.51
  -6  -7  -9   69.01   13.50
  -6  -7   9   84.68   18.02
  -6  -7  10   40.93   11.72
  -6  -7 -10   36.54    9.69
  -6  -7  11    7.89    6.37
  -6  -7 -11    5.54    4.72
  -6  -7 -12   16.14    7.12
  -6  -7  12   14.09    7.81
  -6  -7  13   40.49   12.66
  -6  -7 -13   62.89   12.73
   6  -7  13   51.59   14.29
   6   7  13   59.19   11.25
  -6  -7  14   65.09   15.28
  -6  -7 -14   78.50   13.50
   6  -7  14   71.52   14.47
   6   7  14   56.77   10.95
   6  -7  15  277.60   28.33
   6   7  15  270.22   23.67
  -6  -7 -15  237.07   23.48
  -6  -7  15  200.76   27.91
  -6  -7 -16   41.61   10.30
  -6  -7  16   70.85   16.71
   6  -7  16   37.52   10.40
   6   7  16   49.26   10.44
  -6  -7  17   31.68   12.81
   6  -7  17   42.91   12.40
  -6  -7 -17   42.01    9.85
   6   7  17   32.72    8.75
  -6  -7  18   11.79    8.05
   6  -7  18   10.93    6.95
   6   7  18   15.15    6.20
  -6  -7  19    1.86    4.26
   6   7  19    5.66    4.29
   6  -7  19    8.68    6.03
  -6  -7  20   75.14   18.25
   6  -7  20   72.38   14.77
   6   7  20   66.03   12.25
  -6  -7  21    5.18    5.53
   6  -7  21    3.09    4.30
   6   7  21    7.37    4.61
  -6  -7  22    9.41    8.41
   6  -7  22    0.84    2.63
   6   7  22    1.85    3.33
  -6  -7  23   11.36    8.60
   6  -7  23   15.05    7.64
   6   7  23   22.50    7.58
  -6  -7  24   62.81   17.25
   6   7  24   60.54   13.79
   6  -7  24   60.78   14.66
   6   7  25   11.98    6.20
  -6  -7  25    7.51    6.68
   6  -7  25    3.59    4.26
  -6  -7  26   69.64   17.99
   6   7  26   95.03   17.32
   6  -7  26   54.66   13.59
   6   7  27   12.34    7.30
  -6  -7  27    2.01    4.31
   6  -7  27   17.73    7.85
   6   7  28   -1.45    3.92
   6  -7  28    6.59    5.25
  -6  -7  28    5.57    5.68
   6  -7  28   -1.20    5.20
   6  -7  29   10.75    8.05
   6   7  29    1.31    3.95
   6  -7  29    0.29    2.15
   6  -7  30   -6.79    7.20
   6   7  30    7.61    5.22
  -6  -7  30   21.82   11.39
   6  -7  31   37.04   12.73
   6   7  31   24.86    9.52
  -6  -7  31   34.97   13.73
   6   7  32    1.93    6.41
  -6  -7  32   -1.52    6.70
  -6  -8   0   64.51   14.11
  -6  -8   1   31.13   10.53
  -6  -8  -1   24.75    9.20
  -6  -8   2  107.80   18.44
  -6  -8  -2   69.96   15.18
  -6  -8  -3  227.08   25.90
  -6  -8   3  204.44   25.70
  -6  -8   4   62.93   15.06
  -6  -8  -4   69.41   14.03
  -6  -8   5    8.26    7.32
  -6  -8  -5    4.95    3.23
  -6  -8   6   -1.37    2.18
  -6  -8  -6    3.28    3.70
  -6  -8  -7  144.16   20.40
  -6  -8   7  137.01   21.96
  -6  -8   8   39.43   12.84
  -6  -8  -8   29.62    9.00
  -6  -8   9   50.62   13.80
  -6  -8  -9   42.62   11.01
  -6  -8  10   51.96   14.36
  -6  -8 -10   43.60   10.60
  -6  -8  11    0.53    3.44
   6   8  11    6.09    4.24
  -6  -8 -11    5.01    5.97
  -6  -8  12   70.39   16.65
  -6  -8 -12   74.78   14.05
   6  -8  12   86.71   16.39
   6   8  12   56.82   10.67
  -6  -8 -13  102.44   16.55
   6  -8  13   98.01   17.05
  -6  -8  13   86.74   18.63
   6   8  13  122.31   14.97
  -6  -8  14   30.25   12.06
  -6  -8 -14   46.39   10.40
   6   8  14   54.43    9.77
   6  -8  14   51.76   12.47
   6  -8  15  200.51   24.47
  -6  -8 -15  251.53   24.65
   6   8  15  223.70   20.64
  -6  -8  15  184.15   27.72
  -6  -8  16   50.42   15.05
   6  -8  16   49.06   12.20
  -6  -8 -16   33.20    9.16
   6   8  16   63.40   10.92
  -6  -8  17   20.84   10.49
   6  -8  17   22.72    8.43
   6   8  17   25.24    7.36
  -6  -8  18    2.25    4.77
   6  -8  18    0.55    2.30
   6   8  18    3.01    2.94
  -6  -8  19   56.54   16.17
   6  -8  19   84.30   16.55
   6   8  19   87.45   14.15
  -6  -8  20   37.74   14.08
   6  -8  20   40.44   11.50
   6   8  20   26.97    8.08
  -6  -8  21   17.40   10.61
   6  -8  21   12.52    7.43
   6   8  21   13.18    6.13
   6  -8  22  149.09   22.51
   6   8  22  146.85   19.82
  -6  -8  22  142.35   25.68
   6  -8  23   28.48    9.86
   6   8  23   18.57    7.38
  -6  -8  23   23.22   10.15
   6   8  24   -0.29    1.60
  -6  -8  24   -1.98    2.96
   6  -8  24    1.07    3.29
   6   8  25    2.39    4.51
   6  -8  25    4.37    2.98
   6   8  26    3.17    3.57
  -6  -8  26    7.99    9.06
   6  -8  26    2.84    4.62
   6   8  27    7.98    6.85
  -6  -8  27   11.08    8.15
   6  -8  27    3.97    5.83
   6  -8  28    5.14    5.41
   6  -8  28   17.99    8.57
   6  -8  29   53.69   15.56
  -6  -8  29    9.74    7.77
   6  -8  29   56.64   14.19
   6  -8  30   -1.31    4.43
  -6  -8  30   10.73    9.30
   6  -8  31    8.98    7.42
  -6  -8  31   11.39    8.98
  -6  -8  32   17.81   12.00
  -6  -8  33    3.78    6.81
  -6  -9   0   64.35   14.54
  -6  -9   1   -1.78    4.12
  -6  -9  -1    0.36    2.29
  -6  -9   2   33.42   10.35
  -6  -9  -2   18.20    8.23
  -6  -9   3   20.46    8.80
  -6  -9  -3   26.88    9.79
  -6  -9   4   26.07   11.38
  -6  -9  -4   16.71    7.99
  -6  -9   5   -1.67    1.83
  -6  -9  -5   12.78    6.33
  -6  -9  -6   54.42   12.71
  -6  -9   6   75.64   16.28
  -6  -9   7    5.04    5.94
  -6  -9  -7    5.89    6.50
  -6  -9   8    1.63    5.88
  -6  -9  -8   -1.85    5.56
  -6  -9   9   12.63    7.69
  -6  -9  -9   14.03    7.17
  -6  -9  10    8.00    6.16
  -6  -9 -10    1.86    3.91
   6   9  10    7.58    3.95
  -6  -9  11   -2.01    4.94
  -6  -9 -11   -1.32    2.70
   6  -9  11    3.81    6.10
   6   9  11    5.37    3.46
  -6  -9  12   15.87    9.28
  -6  -9 -12   34.10   10.14
   6  -9  12   36.66   10.76
   6   9  12   36.88    7.88
  -6  -9 -13   67.59   13.62
  -6  -9  13   86.11   18.26
   6  -9  13  112.59   18.34
   6   9  13   84.98   12.16
  -6  -9 -14    2.00    4.26
  -6  -9  14    7.03    5.90
   6  -9  14    9.85    6.03
   6   9  14    4.91    3.10
  -6  -9  15   16.02    7.71
  -6  -9 -15    6.36    4.64
   6  -9  15    4.03    3.87
   6   9  15    3.73    2.96
  -6  -9  16   20.37    9.69
   6  -9  16   11.65    5.70
   6   9  16   19.82    6.36
  -6  -9  17    1.82    4.36
   6  -9  17   -5.66    4.95
   6   9  17    1.84    2.80
  -6  -9  18    6.73    5.78
   6  -9  18    3.94    3.42
   6   9  18    6.84    3.84
  -6  -9  19   25.99   12.51
   6  -9  19   23.89    9.47
   6   9  19   32.30    8.17
   6   9  20    5.49    2.69
  -6  -9  20   19.11   11.97
   6  -9  20   10.13    7.82
   6   9  21   -2.06    2.00
  -6  -9  21    2.10    4.14
   6  -9  21   -6.81    6.51
  -6  -9  22   30.31   13.05
   6  -9  22   14.49    6.48
  -6  -9  23    8.66    6.75
   6  -9  23    6.09    5.31
  -6  -9  24   23.71   11.79
   6  -9  24   15.82    7.27
  -6  -9  25   14.07    9.84
   6  -9  25    3.67    4.94
  -6  -9  26   39.77   15.58
   6  -9  26   31.41   11.34
   6  -9  27   15.06    8.95
  -6  -9  27    9.32   10.48
   6  -9  27   14.76    9.28
   6  -9  28    7.97    4.93
  -6  -9  28    6.41    4.67
   6  -9  29    8.15    6.60
  -6  -9  29    8.73    8.44
   6  -9  29   -6.06    4.96
   6  -9  30   -0.04    3.08
  -6  -9  30   -5.88    6.53
   6  -9  30    2.08    4.34
  -6  -9  31   11.01    9.92
  -6  -9  32   10.39   10.07
  -6 -10   0    0.90    2.96
  -6 -10   1   -0.18    2.10
  -6 -10  -1    1.90    5.50
  -6 -10   2    4.15    3.26
  -6 -10  -2    5.53    4.19
  -6 -10   3  137.60   22.22
  -6 -10  -3  192.54   25.23
  -6 -10   4  192.92   25.90
  -6 -10  -4  250.87   28.38
  -6 -10   5   31.75   11.17
  -6 -10  -5   32.57   10.71
  -6 -10   6   50.21   15.01
  -6 -10  -6   56.53   13.26
  -6 -10   7   14.67    9.31
  -6 -10  -7   23.17    9.20
  -6 -10  -8   74.31   15.32
  -6 -10   8   58.93   16.09
  -6 -10   9    3.73    3.77
  -6 -10  -9    0.90    4.57
  -6 -10  10    1.51    4.21
   6 -10  10    0.13    3.82
   6  10  10    0.17    2.13
  -6 -10 -10    4.68    5.60
  -6 -10  11   46.29   14.88
   6 -10  11   38.08   10.68
  -6 -10 -11   36.26    9.87
   6  10  11   21.03    5.30
  -6 -10  12   32.65   12.24
  -6 -10 -12   29.86    9.74
   6 -10  12   39.68   10.95
   6  10  12   34.00    7.00
  -6 -10  13    7.78    7.72
   6  10  13    5.85    3.90
   6 -10  13   12.64    6.98
  -6 -10 -13   -1.22    4.02
  -6 -10  14   -1.17    5.15
   6 -10  14    1.38    4.04
  -6 -10 -14   11.18    6.86
  -6 -10  15   19.70   12.98
   6 -10  15   11.05    6.15
   6 -10  16  150.92   21.55
  -6 -10  16  146.87   26.30
  -6 -10  17   76.98   18.97
   6 -10  17   70.83   14.80
  -6 -10  18   57.44   17.02
   6 -10  18   59.66   14.09
  -6 -10  19    5.60    6.89
   6 -10  19    9.98    5.10
  -6 -10  20    1.97    4.45
   6 -10  20    3.52    5.39
  -6 -10  21    8.31    3.64
   6 -10  21    7.96    5.63
  -6 -10  22   13.78   10.74
   6 -10  22   16.49    7.31
  -6 -10  23   -1.79    5.10
   6 -10  23    5.70    6.03
  -6 -10  24    5.24    7.75
   6 -10  24    9.26    6.93
  -6 -10  25   28.70   14.67
   6 -10  25    5.53    4.88
   6 -10  26   17.52    8.65
  -6 -10  26   20.59   11.24
   6 -10  26   21.91   10.02
   6 -10  27   25.69   10.67
  -6 -10  27   14.95   10.26
   6 -10  27   34.86   12.47
   6 -10  28    3.68    4.72
  -6 -10  28   10.29    9.65
   6 -10  28   14.09    8.65
   6 -10  29   -3.96    5.15
  -6 -10  29    9.32    9.04
   6 -10  29    8.78    8.76
  -6 -10  30   54.13   18.37
   6 -10  30   22.73    8.82
  -6 -11   0   16.22    7.95
  -6 -11   1   35.39   11.61
  -6 -11  -1   97.17   22.28
  -6 -11  -2   50.91   14.10
  -6 -11   2   98.37   18.81
  -6 -11  -3  130.99   21.25
  -6 -11   3   79.55   16.77
  -6 -11   4   18.61    8.98
  -6 -11  -4   32.83   10.90
  -6 -11   5   39.80   12.76
  -6 -11  -5   51.59   14.42
  -6 -11   6   17.35    9.21
  -6 -11  -6    7.40    6.55
  -6 -11   7   55.40   15.09
  -6 -11  -7   66.96   15.34
  -6 -11   8   14.19    7.14
   6 -11   8   13.47    7.24
  -6 -11  -8   18.46    8.04
  -6 -11  -9  114.05   19.74
  -6 -11   9   79.68   18.59
   6 -11   9  106.61   17.39
  -6 -11  10    5.05    4.50
  -6 -11 -10   -0.95    2.67
   6 -11  10    5.79    5.46
  -6 -11  11    8.43    5.64
  -6 -11 -11   19.11    6.65
   6 -11  11   13.46    7.03
  -6 -11 -12    3.67    2.56
   6 -11  12    8.26    5.12
  -6 -11 -13  119.00   19.25
   6 -11  13  115.09   18.71
  -6 -11  13  110.74   22.74
  -6 -11  14   95.78   20.91
   6 -11  14   90.90   16.43
  -6 -11  15    6.00    6.84
   6 -11  15    9.36    5.37
  -6 -11  16   31.73   13.20
   6 -11  16   40.70   11.50
  -6 -11  17    5.06    7.37
   6 -11  17   -2.09    4.88
  -6 -11  18   12.10    8.91
   6 -11  18   -2.92    3.60
  -6 -11  19   28.13   12.97
   6 -11  19   30.80    9.94
  -6 -11  20   39.99   16.26
   6 -11  20   32.28    9.85
  -6 -11  21   10.40    8.91
   6 -11  21   17.96    8.39
  -6 -11  22   13.28    6.54
   6 -11  22   21.85    9.11
  -6 -11  23   -3.52    7.17
   6 -11  23    6.55    5.66
  -6 -11  24   54.17   18.56
   6 -11  24   39.11   12.66
   6 -11  25   67.02   18.12
  -6 -11  25   30.03   13.83
   6 -11  25   27.88   10.21
   6 -11  26    8.23    6.20
  -6 -11  26   -4.00    5.73
   6 -11  27   79.63   18.31
  -6 -11  27   60.70   19.38
   6 -11  27   73.82   18.24
   6 -11  28    8.19    9.36
  -6 -11  28    2.32    6.06
   6 -11  28    7.89    7.59
   6 -11  29    4.82    7.16
  -6 -12   0   16.00    8.43
  -6 -12   1   65.63   16.21
  -6 -12  -1   47.47   13.21
  -6 -12   2   47.18   14.56
  -6 -12  -2   56.20   15.05
  -6 -12   3   12.07    7.73
  -6 -12  -3    9.25    7.51
  -6 -12   4    6.79    5.26
  -6 -12  -4    0.62    3.23
  -6 -12   5   25.22   10.65
  -6 -12  -5   17.76    8.19
  -6 -12   6   12.23    7.12
  -6 -12  -6    5.30    4.22
  -6 -12   7   24.22    9.69
  -6 -12  -7   19.57    8.30
   6 -12   7   21.21    7.68
  -6 -12   8  194.26   29.60
   6 -12   8  171.82   22.85
  -6 -12  -8  142.49   22.87
  -6 -12   9   -2.28    2.79
  -6 -12  -9    1.45    2.39
   6 -12   9   -2.72    4.18
  -6 -12  10   -1.39    3.45
  -6 -12 -10   -1.91    4.79
   6 -12  10    5.66    5.08
  -6 -12  11    1.88    4.73
  -6 -12 -11    6.35    4.95
   6 -12  11    3.00    3.68
  -6 -12  12    5.70    6.97
  -6 -12 -12   10.96    7.37
   6 -12  12    7.33    6.06
  -6 -12  13   22.87   10.21
   6 -12  13   38.64   11.35
  -6 -12  14   48.36   15.59
   6 -12  14   31.35   10.22
  -6 -12  15   32.37   14.82
   6 -12  15    8.60    6.21
  -6 -12  16   47.48   16.06
   6 -12  16   32.60    9.98
  -6 -12  17   38.98   14.35
   6 -12  17   20.31    8.68
  -6 -12  18   29.04   14.14
   6 -12  18    1.67    3.55
  -6 -12  19    1.80    5.63
   6 -12  19    3.18    4.76
  -6 -12  20   -8.71    8.65
   6 -12  20    1.55    2.59
  -6 -12  21   32.94   14.38
   6 -12  21   27.87   10.94
  -6 -12  22   15.12   11.93
   6 -12  22   10.01    7.37
   6 -12  23   89.16   19.63
  -6 -12  23   73.65   21.01
   6 -12  24   -2.50    6.54
  -6 -12  24    1.85    6.16
   6 -12  25   20.70    9.53
  -6 -12  25   26.68   17.72
   6 -12  25    2.82    5.37
   6 -12  26    5.10    7.00
   6 -12  26   -3.39    7.42
   6 -12  27    0.80    3.18
   6 -12  27   13.68   10.61
  -6 -13   0   38.08   12.55
  -6 -13   1   15.26    8.39
  -6 -13  -1   22.34   11.06
  -6 -13   2   42.37   13.99
  -6 -13  -2   31.14   11.00
  -6 -13   3    4.05    6.43
  -6 -13  -3   -4.85    6.83
  -6 -13   4    7.41    7.70
  -6 -13  -4   15.36    7.14
   6 -13   4   12.01    6.25
  -6 -13   5   59.47   17.21
  -6 -13  -5   56.04   14.31
   6 -13   5   49.02   11.65
  -6 -13   6   35.48   12.55
  -6 -13  -6   60.37   15.20
   6 -13   6   51.19   12.82
  -6 -13   7   19.88   10.00
  -6 -13  -7   18.20    9.10
   6 -13   7   24.15    8.54
  -6 -13   8   -4.21    7.00
  -6 -13  -8    7.38    5.75
   6 -13   8   -3.78    3.93
  -6 -13   9   -4.12    3.19
  -6 -13  -9   -0.94    2.68
  -6 -13  10   -3.72    4.19
  -6 -13 -10   -1.64    3.35
   6 -13  10    7.66    5.95
  -6 -13  11   -4.06    4.67
  -6 -13 -11    8.03    7.98
   6 -13  11   -1.83    2.53
  -6 -13  12    6.09    6.58
   6 -13  12   24.50    9.02
  -6 -13  13    2.41    4.82
   6 -13  13   -2.89    4.40
  -6 -13  14    4.91    5.61
   6 -13  14    8.46    6.14
  -6 -13  15   -3.90    6.26
   6 -13  15    7.57    5.73
  -6 -13  16   21.95   12.82
   6 -13  16    9.86    6.67
  -6 -13  17   22.40   13.94
   6 -13  17    3.86    5.54
  -6 -13  18    3.81    6.09
   6 -13  18   -1.15    3.93
  -6 -13  19   16.27   10.80
   6 -13  19    7.41    5.55
  -6 -13  20    4.12    6.53
   6 -13  20    9.92    7.56
   6 -13  21   24.03   10.47
  -6 -13  21   -3.78    8.88
   6 -13  22   -0.32    2.90
  -6 -13  22    6.04    3.35
   6 -13  23    1.52    7.15
   6 -13  23    5.38    7.37
   6 -13  24   38.78   12.97
   6 -13  25    1.32    4.97
  -6 -14   0   14.94    8.72
  -6 -14   1   10.98    7.60
  -6 -14  -1   21.42   11.24
  -6 -14   2   -0.61    3.17
  -6 -14  -2    1.47    4.36
  -6 -14   3   46.33   14.32
  -6 -14  -3   16.20   11.74
  -6 -14   4   21.20   11.24
  -6 -14  -4   20.55    9.77
  -6 -14   5   -4.86    5.70
  -6 -14  -5    1.52    3.75
  -6 -14   6    2.96    4.53
  -6 -14  -6   -6.32    7.22
  -6 -14   7    3.94    3.37
  -6 -14  -7    3.42    5.77
  -6 -14   8    7.16    8.48
  -6 -14  -8    3.11    5.65
  -6 -14   9    5.87    7.09
  -6 -14  -9    3.69    3.98
  -6 -14  10   14.21   13.21
  -6 -14  11    3.53    7.28
  -6 -14  12   11.65    7.94
  -6 -14  13    9.80    9.60
  -6 -14  14    8.97    6.22
  -6 -14  15   13.00    8.07
  -6 -14  16    9.25    7.51
  -6 -14  17   22.75   11.48
  -6 -14  18   -3.41    8.13
  -6 -14  19   -1.76    6.75
  -6 -15   0    7.94    6.38
  -6 -15   1   46.16   14.69
  -6 -15  -1   40.01   13.45
  -6 -15   2   12.29    9.94
  -6 -15  -2    7.73    7.01
  -6 -15  -3   78.51   19.78
  -6 -15   3  100.00   22.99
  -6 -15   4    7.60    7.49
  -6 -15  -4   28.08   11.23
  -6 -15   5   30.38   11.93
  -6 -15  -5   35.75   13.26
  -6 -15   6   19.43   12.25
  -6 -15  -6    6.34    6.69
  -6 -15   7   87.99   21.34
  -6 -15  -7   99.22   20.79
  -6 -15   8    6.76    5.66
  -6 -15  -8   -2.42    2.64
  -6 -15   9   -1.72    3.33
  -6 -15  10    1.40    4.46
  -6 -15  11   -1.07    5.96
  -6 -15  12   24.11   12.22
  -6 -15  13   14.08   10.26
  -6 -15  14    6.03    8.49
  -6 -15  15   44.44   16.52
  -6 -15  16   90.52   24.12
  -6 -16   0    3.83    7.04
  -6 -16   1   55.75   17.73
  -6 -16  -1   45.43   15.36
  -6 -16   2   14.27    9.83
  -6 -16  -2   28.97   12.13
  -6 -16   3   -9.35    9.56
  -6 -16  -3    8.45    7.52
  -6 -16   4   22.92   11.01
  -6 -16  -4    6.45    6.68
  -6 -16   5   18.66   11.83
  -6 -16  -5   19.74    9.80
  -6 -16   6    6.41    4.89
  -6 -16  -6    8.48    6.65
  -6 -16   7    3.56    6.01
  -6 -16   8    1.29    3.19
  -6 -16   9   10.39    8.70
  -6 -16  10   11.27   10.01
  -6 -16  11   19.62   10.94
  -6 -16  12   33.41   15.30
  -6 -17   0   18.68    9.42
  -6 -17   1   -5.42    7.97
  -6 -17  -1    7.28    9.28
  -6 -17   2   73.50   19.99
  -6 -17  -2   75.88   20.00
  -6 -17   3    3.78    7.39
  -6 -17  -3   -3.78    8.11
  -6 -17   4   15.88   11.99
  -6 -17  -4   32.89   13.63
  -6 -17   5   16.39   10.43
  -6 -17  -5   -4.30    6.88
  -6 -17   6  -10.31    9.68
  -6 -17   7    6.00    7.96
  -6 -18   0   11.61   10.82
  -6 -18   1   42.76   16.50
  -6 -18  -1   24.23   11.77
  -6 -18  -2   11.85   10.75
  -7   0   0    7.32    6.89
  -7   0  -1   -2.36    5.37
  -7   0   1    0.85    4.36
  -7   0  -2  603.21   41.49
  -7   0   2  605.07   42.39
  -7   0  -3    0.63    2.57
  -7   0   3    0.85    2.93
  -7   0  -4   28.63    9.95
  -7   0   4   25.06    9.88
  -7   0   5    3.37    4.54
  -7   0  -5   -1.08    2.89
  -7   0  -6   28.07    9.01
  -7   0   6   37.16   11.50
  -7   0   7    0.08    4.04
  -7   0  -7   -1.29    1.96
  -7   0   8  371.75   34.09
  -7   0  -8  345.95   31.72
  -7   0   9    2.85    2.51
  -7   0  -9   -1.50    2.31
  -7   0 -10  323.41   30.39
  -7   0  10  313.29   31.67
  -7   0  11   -2.01    3.40
  -7   0  12  169.14   24.18
  -7   0  13    1.02    3.44
  -7   0  14  608.30   46.39
  -7   0  15    4.10    4.86
  -7   0  16  345.96   35.97
  -7   0  17    6.46    5.55
  -7   0  18    9.91    5.29
   7   0  18   15.44    7.88
   7   0  19    5.36    6.39
  -7   0  19    6.07    4.71
  -7   0  20   12.70    8.98
   7   0  20   14.61    6.92
  -7   0  21    2.31    3.80
   7   0  21    7.30    5.58
  -7   0  22   44.55   13.42
   7   0  22   18.76    7.62
  -7   0  23   -2.71    3.81
   7   0  23    4.91    5.43
  -7   0  24    8.36    7.85
   7   0  24    5.69    5.65
  -7   0  25    4.48    6.31
   7   0  25    9.20    8.57
  -7   0  26    6.94    4.03
   7   0  26   20.76    9.10
  -7   0  27    1.92    3.92
   7   0  27    8.07    6.18
  -7   0  28    7.97    6.52
   7   0  28    0.65    3.24
   7   0  29    0.13    2.90
   7   0  30   -0.45    4.02
   7   0  31    2.57    3.58
   7   0  32   47.79   15.02
   7   0  33   -4.13    6.19
  -7   1   0    5.25    2.47
  -7  -1   0   -0.71    1.43
  -7   1   1    8.39    5.58
  -7  -1   1    0.51    3.03
  -7  -1  -1    0.71    3.96
  -7   1  -1    3.58    5.66
  -7   1   2   37.62   10.08
  -7  -1   2   27.05    9.15
  -7  -1  -2   28.53    9.08
  -7   1  -2   28.85    9.35
  -7   1   3  123.79   20.03
  -7   1  -3   85.37   16.03
  -7  -1   3   98.53   17.06
  -7  -1  -3   89.06   15.85
  -7   1   4   34.36   10.57
  -7  -1  -4   34.68   10.87
  -7  -1   4   24.21    8.38
  -7   1  -4   51.49   12.14
  -7   1   5   -3.22    3.59
  -7  -1   5    4.18    5.68
  -7  -1  -5    3.45    1.29
  -7   1  -5    3.78    3.75
  -7  -1  -6  104.36   17.50
  -7  -1   6  115.37   18.95
  -7   1  -6  141.91   20.58
  -7   1   6  117.80   19.76
  -7  -1  -7  102.53   17.49
  -7  -1   7  150.64   21.64
  -7   1   7  110.18   18.60
  -7   1  -7  118.40   18.22
  -7  -1  -8  202.93   24.08
  -7  -1   8  188.60   24.73
  -7   1   8  181.56   23.89
  -7   1  -8  206.52   25.17
  -7  -1   9  422.99   37.49
  -7  -1  -9  461.22   35.70
  -7   1   9  406.51   36.46
  -7  -1 -10    6.83    3.38
  -7  -1  10   14.51    7.55
  -7   1  10   25.66    9.83
  -7  -1  11  525.22   42.55
  -7   1  11  522.96   41.69
  -7  -1 -11  556.73   39.32
  -7  -1  12   33.62   11.80
  -7  -1 -12   40.57   10.91
  -7   1  12   29.09   11.52
  -7  -1  13 1033.05   61.27
  -7   1  13 1084.49   61.20
  -7  -1  14   16.81    5.58
  -7   1  14   17.17    7.40
  -7  -1  15   52.68   14.12
  -7   1  15   25.38   10.36
  -7  -1  16   -0.14    3.48
  -7   1  16    2.47    5.44
  -7  -1  17    7.50    5.08
   7   1  17    6.18    4.60
  -7   1  17    7.60    6.13
  -7  -1  18    7.12    4.58
  -7   1  18    7.46    5.67
   7   1  18    4.36    4.20
   7  -1  18    4.35    1.42
  -7   1  19  116.59   21.74
  -7  -1  19  127.70   22.64
   7  -1  19  139.79   20.59
   7   1  19  120.99   19.28
  -7  -1  20   37.96   12.28
  -7   1  20   31.01   12.09
   7   1  20   53.10   13.35
   7  -1  20   32.05    9.46
  -7   1  21    7.66    7.24
   7   1  21    6.47    4.23
   7  -1  21    1.91    1.58
  -7  -1  22    3.59    4.91
  -7   1  22   -2.61    4.28
   7  -1  22    9.16    6.68
   7   1  22    8.30    6.38
  -7  -1  23    2.87    4.16
  -7   1  23   11.61    6.35
   7  -1  23   20.11    8.53
   7   1  23   21.96    8.79
  -7  -1  24   30.15   13.22
  -7   1  24   33.87   12.03
   7  -1  24   38.36   11.14
   7   1  24   29.38    9.68
  -7  -1  25   32.66   13.04
  -7   1  25   57.60   16.20
   7  -1  25   50.58   13.66
   7   1  25   22.83   10.08
  -7  -1  26    3.53    4.73
  -7   1  26   -6.61    4.25
   7  -1  26   -3.27    2.57
   7   1  26   -2.45    4.46
  -7   1  27    3.93    4.39
  -7  -1  27   25.50   12.58
   7  -1  27   18.09    8.06
   7   1  27   10.58    6.13
   7  -1  28   -1.04    2.30
   7   1  28   -2.88    4.40
  -7  -1  29   14.03    9.41
   7  -1  29   16.91    9.62
   7   1  29   14.25    7.48
   7  -1  30   23.76   10.41
   7   1  30   34.01   12.19
   7  -1  31  112.93   23.32
   7   1  31  113.77   21.99
   7  -1  32    1.56    6.06
   7   1  32    0.70    3.73
   7   1  33   85.96   20.29
   7  -1  33  120.20   23.59
   7   1  34    7.41    7.90
  -7  -2   0    1.08    4.18
  -7   2   0   -3.35    4.82
  -7   2   1   28.73    9.51
  -7  -2   1   46.50   11.86
  -7  -2  -1   31.11    9.47
  -7   2  -1   58.58   13.51
  -7  -2   2   20.03    7.23
  -7  -2  -2   31.59    9.04
  -7   2   2   19.90    9.03
  -7   2  -2   48.78   13.26
  -7  -2   3   36.99   10.84
  -7   2  -3   28.46    9.29
  -7  -2  -3   36.14   10.78
  -7   2   3   15.08    6.80
  -7  -2   4    0.64    3.66
  -7   2   4    3.41    2.40
  -7  -2  -4    0.97    3.09
  -7   2  -4    0.89    1.98
  -7   2  -5   96.35   17.06
  -7   2   5   98.96   17.77
  -7  -2   5   69.65   15.44
  -7  -2  -5   91.29   16.17
  -7   2   6   25.84    9.70
  -7  -2   6   16.44    8.65
  -7  -2  -6    5.63    4.77
  -7  -2  -7   42.25   11.59
  -7   2   7   45.67   12.76
  -7  -2   7   39.08   11.39
  -7   2   8   38.97   10.17
  -7  -2  -8   45.93   11.87
  -7  -2   8   54.42   14.47
  -7   2   9    4.63    4.89
  -7  -2  -9   -1.81    3.08
  -7  -2   9    7.25    8.30
  -7   2  10   34.29   10.83
  -7  -2  10   33.98   10.43
  -7  -2 -10   22.57    7.24
  -7   2  11   -2.37    2.01
  -7  -2 -11    3.25    2.85
  -7  -2  11    2.33    5.19
  -7   2  12   -4.62    5.72
  -7  -2  12    3.79    6.43
  -7  -2 -12   -0.37    2.63
  -7   2  13   25.70   10.10
  -7  -2 -13   15.33    7.28
  -7  -2  13   31.72   11.58
  -7   2  14    8.48    6.78
  -7  -2  14   16.70   10.12
  -7  -2  15   65.05   16.13
  -7   2  15   83.39   17.01
  -7   2  16   12.22    7.22
  -7  -2  16    5.50    5.73
  -7   2  17   33.01   10.93
   7   2  17   38.75   11.07
   7  -2  17   43.67   12.65
  -7  -2  17   55.87   15.92
  -7   2  18    8.31    6.15
   7   2  18   10.96    6.82
   7  -2  18   10.00    7.30
  -7  -2  18   13.81    9.72
  -7   2  19   26.65   11.61
   7  -2  19   21.81    8.40
   7   2  19   24.52    8.40
  -7  -2  19   37.13   12.24
  -7   2  20   -2.53    5.96
   7   2  20    7.91    5.65
   7  -2  20    0.17    2.37
  -7  -2  20    6.12    6.35
  -7   2  21   11.26    8.66
  -7  -2  21   -3.28    6.61
   7   2  21    2.65    4.37
   7  -2  21    0.82    4.07
  -7   2  22    6.63    6.01
   7   2  22    4.79    6.58
   7  -2  22    4.39    2.74
  -7  -2  22    0.55    4.21
   7   2  23   24.52    8.95
  -7   2  23   34.39   12.27
   7  -2  23   21.16    8.59
  -7  -2  23   18.54    8.67
  -7   2  24    4.55    6.13
   7  -2  24   10.62    5.34
   7   2  24   15.46    8.01
  -7  -2  24   13.06    9.09
  -7   2  25   -0.98    4.73
   7  -2  25    2.48    4.23
   7   2  25    3.55    5.71
  -7   2  26    5.08    6.43
   7  -2  26    2.34    4.00
   7   2  26    1.88    1.84
  -7  -2  26   -2.10    2.90
  -7   2  27   -7.82    7.57
   7  -2  27   10.09    6.82
   7   2  27    3.92    5.20
  -7  -2  27   -5.72    7.91
  -7  -2  28   11.71    9.68
   7  -2  28    9.86    7.44
   7   2  28   14.36    5.82
  -7  -2  29   -2.89    3.84
   7  -2  29   -1.11    3.65
  -7  -2  30   14.59    7.30
   7  -2  30   17.88    9.11
   7   2  30   20.62   10.27
   7   2  31    8.72    6.49
   7  -2  31    5.76    3.79
   7  -2  32   20.18   10.46
   7   2  32   25.83   11.16
   7  -2  33   16.13    9.93
   7   2  33    3.61    4.12
   7   2  34    6.36    6.10
  -7  -3   0    3.45    3.89
  -7   3   0    0.11    1.48
  -7  -3  -1   50.45   12.31
  -7   3   1   36.88   12.76
  -7   3  -1   52.02   13.20
  -7  -3   1   51.77   12.10
  -7   3   2    6.44    4.94
  -7   3  -2    1.21    3.80
  -7  -3  -2    7.39    6.11
  -7  -3   2    2.88    3.42
  -7  -3   3  122.03   19.32
  -7  -3  -3  124.86   18.87
  -7   3   3   89.63   17.33
  -7  -3   4  121.02   19.58
  -7   3   4   95.62   17.48
  -7  -3  -4  160.85   21.12
  -7   3   5   14.32    7.65
  -7  -3  -5   17.27    6.88
  -7  -3   5   29.20    9.81
  -7   3   6    2.79    3.21
  -7  -3  -6    0.02    1.58
  -7  -3   6    1.16    3.24
  -7  -3   7  334.45   33.86
  -7   3   7  281.28   29.90
  -7  -3  -7  378.03   32.24
  -7  -3   8  641.35   46.23
  -7   3   8  636.50   45.95
  -7  -3  -8  646.05   42.07
  -7  -3  -9   73.11   14.85
  -7   3   9   57.26   13.90
  -7  -3   9   60.38   13.88
  -7  -3 -10  242.97   26.50
  -7  -3  10  209.96   27.61
  -7   3  10  208.21   26.54
  -7  -3 -11  192.09   23.13
  -7  -3  11  177.69   25.21
  -7   3  11  165.99   23.70
  -7  -3  12  393.22   37.45
  -7   3  12  302.10   32.09
  -7  -3 -12  354.28   31.27
  -7  -3 -13   53.07   11.64
  -7   3  13   40.18   11.97
  -7  -3  13   50.92   13.37
  -7   3  14  506.65   41.89
  -7  -3  14  483.34   43.20
  -7  -3 -14  543.73   38.47
  -7  -3 -15  309.16   28.93
  -7   3  15  292.97   32.45
  -7  -3  15  372.09   37.98
  -7   3  16    5.42    4.41
  -7  -3  16    9.25    7.15
  -7   3  17   27.34   10.93
  -7  -3  17    8.09    7.58
   7  -3  17    7.78    6.57
   7   3  17    3.26    5.08
  -7   3  18   48.13   13.32
  -7  -3  18   55.11   15.92
   7   3  18   64.52   14.22
   7  -3  18   53.21   12.58
   7  -3  19   39.21   11.90
  -7   3  19   24.33    9.87
  -7  -3  19   38.83   13.33
   7   3  19   28.64    8.64
  -7   3  20    5.50    7.51
  -7  -3  20    0.84    4.40
   7  -3  20    3.68    5.20
   7   3  20    6.66    5.52
  -7   3  21    6.49    5.82
  -7  -3  21   -1.90    4.08
   7  -3  21    0.23    2.74
   7   3  21   12.23    5.65
  -7   3  22   25.30    9.57
  -7  -3  22   16.18    8.50
   7  -3  22   27.87    9.52
   7   3  22   14.24    6.91
  -7   3  23    1.39    3.25
  -7  -3  23    6.95    7.36
   7  -3  23    1.68    3.31
   7   3  23    0.57    3.59
  -7  -3  24    9.84    7.30
  -7   3  24   12.37    8.79
   7   3  24   10.45    7.30
   7  -3  24    0.67    2.84
  -7  -3  25   21.90   10.06
  -7   3  25   53.74   16.10
   7  -3  25   32.66   11.28
   7   3  25   36.70   11.50
   7  -3  26  116.37   20.65
   7   3  26   66.69   15.00
  -7  -3  26   79.17   19.31
  -7   3  26   63.87   17.06
  -7  -3  27   40.21   13.34
   7   3  27   84.16   16.78
   7  -3  27   73.12   16.37
   7  -3  28   13.99    8.57
   7   3  28   -0.21    3.70
  -7  -3  29   15.64   10.62
   7  -3  29   31.99   11.80
   7   3  29   14.06    7.69
   7   3  30   77.35   17.68
   7  -3  30   91.94   19.35
  -7  -3  30   51.03   15.94
   7   3  31    1.93    4.92
   7  -3  31   -2.98    4.78
   7  -3  32   47.57   15.51
   7   3  32   58.12   15.66
   7   3  33   48.04   15.39
   7   3  34   91.48   20.32
  -7  -4   0   -0.30    2.27
  -7  -4   1   28.15    9.01
  -7  -4  -1   40.87   10.94
  -7  -4   2  162.44   22.80
  -7  -4  -2  198.47   24.23
  -7   4   2  216.61   26.55
  -7  -4  -3    5.49    5.95
  -7   4   3    0.99    3.69
  -7  -4   3   -2.06    4.69
  -7  -4  -4   16.50    7.69
  -7   4   4   37.51   11.25
  -7  -4   4   15.33    7.38
  -7  -4  -5   82.74   15.19
  -7  -4   5   64.03   14.42
  -7   4   5   90.35   16.87
  -7  -4  -6   32.57    9.07
  -7   4   6   30.47    9.92
  -7  -4   6    2.14    2.26
  -7   4   7   12.14    6.45
  -7  -4  -7   23.25    7.64
  -7  -4   7   14.47    7.80
  -7  -4   8  151.56   22.97
  -7  -4  -8  132.44   19.25
  -7   4   8  115.67   19.85
  -7  -4   9   42.76   11.29
  -7  -4  -9   46.01   11.49
  -7   4   9   53.21   14.02
  -7  -4  10  187.44   26.26
  -7  -4 -10  258.37   26.85
  -7   4  10  261.44   29.78
  -7  -4 -11  505.95   37.61
  -7  -4  11  447.20   41.21
  -7   4  11  483.83   40.76
  -7  -4 -12  161.68   21.21
  -7  -4  12  122.13   21.42
  -7   4  12  122.02   20.91
  -7   4  13    6.05    5.18
  -7  -4  13    1.16    4.05
  -7  -4 -13   14.73    5.42
  -7  -4  14   86.46   18.05
  -7  -4 -14  101.81   16.51
  -7   4  14   93.06   18.19
  -7  -4  15  473.53   43.55
  -7   4  15  375.25   36.68
  -7  -4 -15  468.92   35.71
  -7   4  16   55.07   14.98
  -7  -4  16   61.22   16.80
  -7  -4 -16   55.54   11.95
   7   4  16   51.59   12.33
  -7   4  17   46.20   12.67
  -7  -4  17   22.14    9.93
   7  -4  17   32.83   10.39
   7   4  17   50.24   12.06
  -7   4  18    8.07    6.69
  -7  -4  18   18.75    9.60
   7  -4  18   14.90    7.65
   7   4  18    5.79    4.73
  -7   4  19    2.46    4.55
  -7  -4  19   -1.43    2.19
   7  -4  19   -1.81    2.71
   7   4  19    3.18    1.34
  -7   4  20   14.13    8.84
  -7  -4  20   37.93   13.27
   7  -4  20   17.73    7.33
   7   4  20   11.19    6.44
  -7   4  21    9.93    5.50
  -7  -4  21   51.72   16.00
   7  -4  21   38.08   11.24
   7   4  21   33.07    9.81
   7  -4  22   11.24    4.19
  -7   4  22   11.70    8.30
  -7  -4  22   13.79    9.44
   7   4  22   12.69    5.92
  -7   4  23    3.65    4.79
  -7  -4  23   -1.41    2.30
   7  -4  23    1.52    1.89
   7   4  23   -2.90    4.95
  -7  -4  24    8.56    7.07
  -7   4  24   28.80   12.65
   7  -4  24   24.30    9.87
   7   4  24   17.13    7.32
  -7   4  25   12.76    8.86
  -7  -4  25   17.90    8.80
   7  -4  25    1.64    4.11
   7   4  25    9.75    6.77
  -7  -4  26    7.38    6.20
   7  -4  26   19.80    9.07
   7   4  26    7.67    5.93
  -7  -4  27   11.10    8.97
   7  -4  27    9.48    6.74
   7   4  27    7.07    6.54
  -7  -4  28    9.92    7.22
   7  -4  28    3.27    3.59
   7   4  28    0.06    2.98
  -7  -4  29   -0.66    3.92
   7  -4  29    1.34    3.40
   7   4  29    3.57    6.35
   7   4  30   -1.76    3.68
  -7  -4  30    2.38    5.18
   7   4  31    9.59    3.89
  -7  -4  31   13.14   10.21
   7  -4  31    5.46    6.22
   7  -4  32   23.49   12.32
   7   4  32   32.50   14.22
   7   4  33   49.01   14.07
   7   4  34   11.33    7.92
  -7  -5   0    2.03    4.21
  -7  -5   1    8.54    5.15
  -7  -5  -1   12.97    8.08
  -7  -5   2    3.52    3.91
  -7  -5  -2    3.61    4.18
  -7  -5   3   80.16   16.20
  -7  -5  -3   81.55   15.84
  -7  -5   4   30.38   10.67
  -7  -5  -4   14.82    7.95
  -7  -5   5  239.12   29.25
  -7  -5  -5  265.80   27.94
  -7  -5   6  100.82   18.73
  -7  -5  -6  129.47   19.98
  -7  -5   7  597.57   45.72
  -7  -5  -7  543.40   39.91
  -7  -5   8  316.12   33.83
  -7  -5  -8  343.51   31.67
  -7  -5   9  355.22   36.30
  -7   5   9  382.28   36.46
  -7  -5  -9  375.80   32.53
  -7  -5  10  625.13   48.99
  -7   5  10  624.70   46.12
  -7  -5 -10  596.74   40.74
  -7  -5  11  219.35   29.51
  -7   5  11  265.73   29.70
  -7  -5 -11  283.91   28.32
  -7   5  12  886.73   55.97
  -7  -5  12  856.45   57.36
  -7  -5 -12  893.01   50.01
  -7   5  13  624.09   47.00
  -7  -5 -13  675.22   43.89
  -7  -5  13  697.47   52.54
  -7  -5  14  434.19   42.10
  -7  -5 -14  498.83   37.24
  -7   5  14  508.53   42.42
  -7  -5  15  103.74   20.91
  -7  -5 -15  140.51   19.70
  -7   5  15  104.16   19.44
  -7   5  16   10.80    6.63
   7   5  16   18.12    7.60
  -7  -5 -16   22.75    8.25
  -7  -5  16   26.05   12.42
   7  -5  16   24.14    9.15
  -7  -5  17  100.31   20.33
  -7  -5 -17  120.17   17.61
   7  -5  17  138.41   21.20
   7   5  17  145.61   20.00
  -7   5  17  123.76   21.32
  -7   5  18   11.00    8.68
  -7  -5  18    1.94    4.24
   7  -5  18   23.13    9.02
   7   5  18    6.05    3.52
  -7  -5  19   94.96   21.46
  -7   5  19   85.73   17.47
   7  -5  19   98.88   18.02
   7   5  19  118.99   17.83
  -7   5  20    7.95    3.66
  -7  -5  20    1.38    7.78
   7  -5  20   12.02    5.82
   7   5  20   -2.76    4.76
  -7   5  21    5.95    5.79
  -7  -5  21    9.00    9.66
   7  -5  21    6.24    5.38
   7   5  21    0.20    2.46
  -7  -5  22    5.81    4.90
   7   5  22    6.30    6.19
  -7   5  22    2.95    3.28
   7  -5  22    0.76    4.80
  -7   5  23   -0.15    5.25
  -7  -5  23   -1.39    4.37
   7  -5  23   -5.81    6.10
   7   5  23    0.58    2.39
  -7  -5  24   -2.83    4.29
   7  -5  24    3.24    4.32
   7   5  24    3.91    6.18
  -7  -5  25   20.02   10.26
   7  -5  25   43.10   12.63
   7   5  25   41.84   11.69
  -7  -5  26   16.26   10.21
   7  -5  26   10.98    6.70
   7   5  26   11.37    6.01
  -7  -5  27   30.21   13.30
   7  -5  27   34.98   12.51
   7   5  27   26.17    9.97
  -7  -5  28   66.74   18.84
   7  -5  28   34.76   11.89
   7   5  28   60.26   15.21
  -7  -5  29   78.70   21.43
   7  -5  29   97.89   19.46
   7   5  29   83.68   18.22
   7   5  30   78.23   17.14
  -7  -5  30   48.92   16.38
   7  -5  30   67.02   18.16
  -7  -5  31  159.19   29.83
   7  -5  31  163.40   28.27
   7   5  31  185.11   26.98
   7   5  32  171.20   26.55
   7   5  33   33.22   11.24
   7   5  34  139.86   24.89
  -7  -6   0   -2.13    2.28
  -7  -6   1   -0.18    2.96
  -7  -6  -1   -2.93    2.02
  -7  -6   2    5.07    5.87
  -7  -6  -2    9.69    6.84
  -7  -6   3   21.19    9.99
  -7  -6  -3   13.38    6.96
  -7  -6   4    1.20    3.11
  -7  -6  -4    3.34    5.71
  -7  -6   5   10.30    7.52
  -7  -6  -5   18.30    6.79
  -7  -6   6  315.90   33.29
  -7  -6  -6  270.31   29.04
  -7  -6  -7   83.67   15.85
  -7  -6   7   71.00   15.79
  -7  -6  -8   11.63    7.90
  -7  -6   8    4.91    7.25
  -7  -6   9   52.74   14.41
  -7  -6  -9   76.09   15.51
  -7  -6 -10  294.26   29.00
  -7  -6  10  273.64   32.51
  -7  -6  11   67.95   16.79
  -7  -6 -11   60.59   13.09
  -7  -6  12   25.80   10.45
  -7  -6 -12   16.78    7.44
  -7  -6  13    2.70    3.59
  -7  -6 -13    3.43    4.01
  -7  -6 -14   -2.94    2.08
  -7  -6  14    3.70    3.79
  -7  -6 -15   19.13    7.72
  -7  -6  15   19.10   10.37
   7   6  15   29.23    9.10
  -7  -6  16   19.15   10.07
   7   6  16   25.06    8.33
  -7  -6 -16   12.31    6.56
   7  -6  16   25.37    8.10
   7  -6  17   45.23   12.47
  -7  -6 -17   55.20   12.26
  -7  -6  17   47.05   15.09
   7   6  17   48.92   11.39
  -7  -6 -18    5.64    4.91
  -7  -6  18   -3.29    4.61
   7  -6  18   11.52    7.33
   7   6  18    0.44    3.16
  -7  -6  19    9.89    8.91
   7  -6  19    7.44    6.47
   7   6  19    4.60    4.40
  -7  -6  20    8.07    6.65
   7  -6  20    7.88    4.86
   7   6  20   15.85    8.38
  -7  -6  21   42.30   14.89
   7  -6  21   48.03   12.84
   7   6  21   27.13    9.41
  -7  -6  22    6.51    6.46
   7  -6  22    6.92    5.83
   7   6  22    1.69    3.72
  -7  -6  23   49.23   16.28
   7  -6  23   30.73   10.43
   7   6  23   23.11    7.62
  -7  -6  24   18.82   10.07
   7  -6  24   12.62    8.17
   7   6  24   16.01    5.95
   7  -6  25    4.46    4.87
   7   6  25   12.50    6.79
  -7  -6  26   25.61   12.49
   7  -6  26   51.24   14.10
   7   6  26   15.69    8.25
   7   6  27   73.17   15.51
  -7  -6  27   67.65   19.19
   7  -6  27   90.14   18.54
   7   6  28    0.31    2.54
  -7  -6  28   -3.42    5.67
   7  -6  28    9.52    7.46
   7   6  29   -0.89    5.13
  -7  -6  29    7.18    8.43
   7  -6  29    2.42    4.99
   7   6  30    0.17    2.84
  -7  -6  30   12.38    9.89
   7  -6  30    0.54    5.99
   7  -6  31    1.97    2.86
   7   6  31   -0.59    4.65
  -7  -6  31   -4.83    4.10
   7   6  32   42.80   13.99
  -7  -6  32   25.04   13.04
   7   6  33   -0.55    3.16
  -7  -7   0    1.90    3.65
  -7  -7   1  257.05   30.01
  -7  -7  -1  287.69   30.88
  -7  -7   2   49.20   13.59
  -7  -7  -2   41.78   12.66
  -7  -7   3   20.99    9.51
  -7  -7  -3   11.58    6.05
  -7  -7   4   20.78    7.93
  -7  -7  -4   12.06    6.12
  -7  -7   5    2.68    4.00
  -7  -7  -5    0.87    4.36
  -7  -7  -6  343.08   32.69
  -7  -7   6  308.05   33.91
  -7  -7   7    1.00    5.49
  -7  -7  -7    5.06    6.00
  -7  -7   8   25.94    8.68
  -7  -7  -8   34.36   10.91
  -7  -7   9   56.84   16.15
  -7  -7  -9   81.89   16.33
  -7  -7 -10   50.05   12.17
  -7  -7  10   21.29    8.99
  -7  -7 -11  416.43   35.06
  -7  -7  11  387.23   39.79
  -7  -7 -12  225.17   25.46
  -7  -7  12  229.79   30.80
  -7  -7  13    4.20    5.69
  -7  -7 -13    4.54    4.44
  -7  -7 -14   68.20   13.86
  -7  -7  14   80.62   18.51
   7   7  14   73.66   14.19
  -7  -7  15   10.90    7.97
   7   7  15   13.02    6.49
  -7  -7 -15   20.77    7.92
   7  -7  15   14.35    7.63
  -7  -7 -16   78.42   15.28
  -7  -7  16   75.79   18.48
   7  -7  16   80.50   17.07
   7   7  16   92.79   15.12
   7  -7  17   27.59    9.40
  -7  -7  17   35.91   12.24
  -7  -7 -17   18.87    7.41
   7   7  17   36.81   10.05
  -7  -7  18    4.72    5.08
   7  -7  18    1.49    3.87
   7   7  18    2.53    2.58
  -7  -7  19   15.72   10.47
   7  -7  19    5.67    5.69
   7   7  19    6.57    3.61
  -7  -7  20   34.55   13.28
   7   7  20   35.42    9.71
   7  -7  20   41.56   12.36
   7  -7  21   11.77    6.88
  -7  -7  21   19.48   11.26
   7   7  21    4.90    1.56
  -7  -7  22   -4.22    4.02
   7   7  22   -2.95    4.52
  -7  -7  23   53.90   17.34
   7  -7  23   62.96   15.43
   7   7  23   49.64   11.72
  -7  -7  24   -0.65    4.23
   7  -7  24    8.57    6.16
   7   7  24   -0.08    2.79
  -7  -7  25    3.87    6.11
   7  -7  25    2.85    5.42
   7   7  25   -2.03    3.02
  -7  -7  26    1.61    3.58
   7  -7  26   -4.33    3.70
   7   7  27    8.84    4.47
  -7  -7  27   22.01   10.99
   7  -7  27    6.36    5.63
   7   7  28   56.09   14.94
  -7  -7  28   25.21   12.80
   7  -7  28   35.32   12.54
   7   7  29   -0.61    4.36
  -7  -7  29    5.86    6.98
   7  -7  29    3.20    6.55
   7   7  30   -2.40    4.03
  -7  -7  30    0.53    3.78
   7  -7  30   -2.99    3.16
  -7  -7  31    6.51    4.16
  -7  -7  32   20.20   11.45
  -7  -8   0    5.98    4.00
  -7  -8  -1  158.99   23.28
  -7  -8   1  129.02   21.62
  -7  -8  -2  355.62   34.92
  -7  -8   2  396.23   37.95
  -7  -8   3   67.10   16.38
  -7  -8  -3   53.43   13.87
  -7  -8   4   -2.74    3.90
  -7  -8  -4    1.50    2.19
  -7  -8   5   19.17    8.47
  -7  -8  -5   57.25   13.34
  -7  -8   6   13.07    7.07
  -7  -8  -6    4.47    5.16
  -7  -8  -7  254.38   28.76
  -7  -8   7  215.87   28.79
  -7  -8   8   37.62   12.13
  -7  -8  -8   64.56   14.85
  -7  -8  -9  140.78   21.67
  -7  -8   9  158.63   25.34
  -7  -8 -10  209.57   25.39
  -7  -8  10  247.96   32.32
  -7  -8 -11  281.70   29.51
  -7  -8  11  288.68   34.90
  -7  -8 -12  406.73   35.41
  -7  -8  12  307.01   36.51
  -7  -8 -13  279.52   29.18
   7   8  13  293.00   26.32
  -7  -8  13  250.10   33.12
   7   8  14   45.76   10.30
  -7  -8  14   17.62   10.22
  -7  -8 -14   38.31   11.03
   7  -8  14    9.14    4.87
   7  -8  15  106.11   18.85
   7   8  15  146.00   18.46
  -7  -8 -15  109.63   18.36
  -7  -8  15  115.07   22.81
  -7  -8  16   54.42   16.76
   7   8  16   54.47   11.68
   7  -8  16   26.92    9.90
  -7  -8 -16   30.12   10.21
  -7  -8  17   21.01   10.58
   7  -8  17   16.42    8.17
   7   8  17   20.31    7.29
  -7  -8  18   -3.78    7.36
   7  -8  18    9.87    7.16
   7   8  18    7.59    5.03
  -7  -8  19   -4.76    8.77
   7  -8  19   13.74    7.66
   7   8  19   11.55    6.39
  -7  -8  20   20.82    9.88
   7  -8  20    0.65    3.81
   7   8  20   12.85    5.70
  -7  -8  21    9.93    8.32
   7  -8  21   15.82    8.73
   7   8  21    5.97    4.38
  -7  -8  22    3.07    5.41
   7  -8  22   -0.36    4.06
   7   8  22   -0.39    2.20
  -7  -8  23   33.53   12.09
   7  -8  23   26.68   10.51
   7   8  23   30.93    9.42
  -7  -8  24   15.49    8.83
   7  -8  24   35.04   12.07
   7   8  24   27.25    9.06
   7   8  25   22.57    8.77
  -7  -8  25   24.48   13.15
   7  -8  25   36.47   11.24
   7   8  26   12.23    7.20
  -7  -8  26    2.32    3.08
   7  -8  26   20.64    9.02
  -7  -8  27    2.53    3.23
   7  -8  27   22.09    9.92
  -7  -8  28   -6.96    4.51
   7  -8  28    2.35    3.43
   7  -8  29    5.34    5.58
  -7  -8  29   16.60   12.02
   7  -8  29    7.54    6.54
  -7  -8  30   11.71    8.73
  -7  -8  31   40.27   15.82
  -7  -8  32   60.82   20.55
  -7  -9   0    9.87    8.09
  -7  -9   1   50.78   14.89
  -7  -9  -1   41.91   12.14
  -7  -9   2    8.73    8.34
  -7  -9  -2    6.51    4.87
  -7  -9   3    4.33    2.40
  -7  -9  -3    5.12    5.68
  -7  -9   4   10.90    7.89
  -7  -9  -4    1.13    6.09
  -7  -9   5   15.81    8.36
  -7  -9  -5   19.77   10.33
  -7  -9   6    6.37    5.86
  -7  -9  -6   19.68    8.21
  -7  -9   7    5.99    6.41
  -7  -9  -7    0.64    1.69
  -7  -9  -8  452.83   39.03
  -7  -9   8  451.45   43.13
  -7  -9   9   12.83    7.57
  -7  -9  -9   18.71    7.54
  -7  -9 -10  381.64   35.93
  -7  -9  10  364.48   40.23
  -7  -9 -11  319.91   32.97
  -7  -9  11  344.73   38.76
  -7  -9 -12  462.63   38.54
   7   9  12  516.29   33.61
  -7  -9  12  427.67   43.61
  -7  -9  13   57.10   16.38
  -7  -9 -13   86.29   17.57
   7  -9  13   75.27   15.86
   7   9  13   63.95   11.67
  -7  -9 -14  333.31   32.88
   7  -9  14  287.18   30.97
   7   9  14  287.53   25.33
  -7  -9  14  363.66   42.05
  -7  -9  15    2.68    5.31
  -7  -9 -15   -6.91    5.61
   7  -9  15   -0.93    4.25
   7   9  15    1.10    4.03
  -7  -9  16   13.14    6.95
   7   9  16   16.31    6.38
   7  -9  16   19.52    7.93
   7  -9  17   20.56    7.71
   7   9  17   12.33    4.27
  -7  -9  18   24.94   13.13
   7  -9  18   26.50    9.91
   7   9  18   24.51    7.97
  -7  -9  19    8.56    5.27
   7  -9  19   -4.53    4.79
   7   9  19    1.51    2.55
  -7  -9  20    7.94    7.88
   7  -9  20    1.29    3.45
   7   9  20    4.13    4.24
  -7  -9  21    5.29    6.62
   7  -9  21   14.47    8.86
  -7  -9  22   13.62    9.59
   7  -9  22   32.06   11.08
  -7  -9  23    9.50    9.95
   7  -9  23    2.79    3.56
  -7  -9  24   21.11   12.18
   7  -9  24   34.25   11.92
  -7  -9  25   -3.92    8.28
   7  -9  25    5.24    3.26
  -7  -9  26   19.53   11.65
   7  -9  26    7.56    6.60
  -7  -9  27    6.34    8.52
   7  -9  27    2.49    4.78
  -7  -9  28    0.33    3.89
   7  -9  28   21.18   10.86
   7  -9  29   14.37    8.65
  -7  -9  29   15.47    9.53
  -7  -9  30    2.62    5.54
  -7 -10   0   -3.17    3.72
  -7 -10   1    3.16    4.02
  -7 -10  -1    9.88    9.29
  -7 -10   2   68.65   16.33
  -7 -10  -2   82.15   17.76
  -7 -10   3    1.74    4.00
  -7 -10  -3   21.55    9.75
  -7 -10   4    7.48    5.17
  -7 -10  -4    7.61    5.24
  -7 -10   5   35.94   11.85
  -7 -10  -5   41.28   12.67
  -7 -10   6    3.39    5.95
  -7 -10  -6   -2.01    3.77
  -7 -10   7   39.38   13.59
  -7 -10  -7   29.35    8.91
  -7 -10  -8   86.99   17.84
  -7 -10   8   77.22   19.33
  -7 -10   9    8.93    7.61
  -7 -10  -9    4.76    4.33
  -7 -10  10   45.52   14.22
   7  10  10   23.60    7.19
  -7 -10 -10   35.41   12.00
  -7 -10 -11  123.37   20.50
   7  10  11   98.19   13.86
  -7 -10  11   94.14   21.57
  -7 -10  12   -3.41    4.26
   7 -10  12    1.78    2.97
  -7 -10 -12    9.12    5.72
  -7 -10  13    3.61    5.74
   7 -10  13   -1.08    2.00
  -7 -10 -13    2.69    5.72
  -7 -10 -14    6.74    5.14
  -7 -10  14    8.01    8.66
   7 -10  14   17.21    7.64
  -7 -10  15   30.54   13.49
   7 -10  15   20.50    8.07
  -7 -10  16   -3.56    6.99
   7 -10  16    3.18    4.14
  -7 -10  17    0.23    7.65
   7 -10  17   36.96   12.31
  -7 -10  18    8.04    7.39
   7 -10  18   17.86    7.67
  -7 -10  19    4.43    5.90
   7 -10  19   -0.57    3.48
  -7 -10  20   51.23   17.59
   7 -10  20   39.25   12.25
  -7 -10  21   -3.70    6.13
   7 -10  21   10.33    7.70
  -7 -10  22    7.09    9.76
   7 -10  22    4.93    5.49
  -7 -10  23   13.07    7.66
   7 -10  23    4.22    4.94
  -7 -10  24   16.13   10.53
   7 -10  24   24.37   10.50
  -7 -10  25    7.36    6.89
   7 -10  25    5.97    5.31
  -7 -10  26   13.97   11.09
   7 -10  26   11.87    7.44
  -7 -10  27   -2.08    6.66
   7 -10  27    4.79    5.62
   7 -10  28    6.89    8.67
  -7 -10  28    8.87    8.07
   7 -10  28   13.74    9.11
   7 -10  29   15.91    6.56
  -7 -11   0    0.61    2.53
  -7 -11   1   27.69   10.69
  -7 -11  -1   50.82   14.67
  -7 -11   2   29.20   10.88
  -7 -11  -2   24.49   10.15
  -7 -11   3   -6.43    7.07
  -7 -11  -3    0.45    4.28
  -7 -11   4    8.68    7.43
  -7 -11  -4   -0.96    3.47
  -7 -11   5   -1.66    4.81
  -7 -11  -5    3.85    4.80
  -7 -11  -6  203.22   28.43
  -7 -11   6  180.25   28.67
  -7 -11   7   35.88   13.95
  -7 -11  -7   36.21   13.32
  -7 -11   8   22.24   10.51
  -7 -11  -8   50.01   13.70
  -7 -11   9   28.27   11.25
  -7 -11  -9   23.49    9.38
  -7 -11  10  111.39   23.14
  -7 -11 -10  142.11   23.50
   7 -11  10  104.00   18.12
  -7 -11 -11  133.05   22.58
   7 -11  11  158.16   22.63
  -7 -11  11  126.08   24.30
  -7 -11 -12  130.41   22.09
  -7 -11  12  115.13   24.41
  -7 -11  13   14.40    8.39
   7 -11  13   34.08    9.85
  -7 -11  14   33.68   13.83
   7 -11  14   20.74    8.79
  -7 -11  15   37.16   13.83
   7 -11  15   16.63    7.14
  -7 -11  16   63.38   19.17
   7 -11  16   70.53   15.83
  -7 -11  17   17.09    9.55
   7 -11  17   -5.56    5.01
  -7 -11  18   18.32   11.58
   7 -11  18   23.31    8.84
  -7 -11  19    0.50    4.57
   7 -11  19    2.62    3.17
  -7 -11  20   33.76   12.61
   7 -11  20   39.65   12.02
  -7 -11  21   18.85   11.34
   7 -11  21   20.19    9.00
  -7 -11  22   -0.43    5.15
   7 -11  22    4.40    5.55
  -7 -11  23  -11.74    9.24
   7 -11  23    7.75    7.95
  -7 -11  24   -4.29    4.22
   7 -11  24   13.03    7.50
  -7 -11  25    1.65    4.54
   7 -11  25    1.63    3.37
  -7 -11  26  -14.80   11.27
   7 -11  26   -3.76    3.41
   7 -11  27    6.01    6.08
   7 -11  27    6.91    7.88
   7 -11  28   33.90   12.92
  -7 -12   0    3.35    2.49
  -7 -12   1   23.48    9.87
  -7 -12  -1   15.04    6.58
  -7 -12   2   83.75   18.60
  -7 -12  -2   68.32   16.57
  -7 -12   3   32.82   13.48
  -7 -12  -3   33.50   12.46
  -7 -12   4   -1.61    4.99
  -7 -12  -4    7.85    6.07
  -7 -12   5   25.85   10.89
  -7 -12  -5   19.50    9.04
  -7 -12   6    8.11    7.91
  -7 -12  -6   40.38   12.44
  -7 -12   7   -2.28    2.70
  -7 -12  -7   -1.82    4.01
  -7 -12  -8   81.44   17.93
  -7 -12   8  101.94   23.38
   7 -12   8   77.42   17.26
  -7 -12   9   28.99   12.98
  -7 -12  -9   18.62    7.89
   7 -12   9   22.60    8.58
  -7 -12  10   14.38    8.65
   7 -12  10   10.70    6.81
  -7 -12 -10    1.23    4.67
  -7 -12 -11  225.69   29.60
   7 -12  11  218.97   26.63
  -7 -12  11  248.19   36.28
  -7 -12  12   -9.85    9.53
   7 -12  12    3.17    3.98
  -7 -12  13   46.65   16.54
   7 -12  13   36.13   10.96
  -7 -12  14   98.82   23.00
   7 -12  14   75.48   16.05
  -7 -12  15   11.46    3.25
   7 -12  15   18.85    7.82
  -7 -12  16   20.11   11.24
   7 -12  16   40.04   11.41
  -7 -12  17   56.20   18.54
   7 -12  17   24.94    9.32
  -7 -12  18    0.62    2.93
   7 -12  18    1.22    6.01
  -7 -12  19   -2.34    3.21
   7 -12  19   -0.23    2.06
  -7 -12  20   26.99   14.58
   7 -12  20   15.26    8.54
  -7 -12  21    4.47    8.26
   7 -12  21   -2.17    4.13
  -7 -12  22   13.08   11.45
   7 -12  22    6.72    7.19
  -7 -12  23   33.84   15.49
   7 -12  23   15.19    8.41
   7 -12  24   32.89   13.84
   7 -12  25    3.66    6.98
   7 -12  26   11.08    6.70
  -7 -13   0   -4.32    4.94
  -7 -13   1   11.73    8.88
  -7 -13  -1   -0.84    2.29
  -7 -13   2    5.28    6.58
  -7 -13  -2    5.79    4.19
  -7 -13   3   -4.42    3.04
  -7 -13  -3   -2.28    3.22
  -7 -13   4   17.92    9.07
  -7 -13  -4   30.19   11.40
  -7 -13   5   16.74    9.23
  -7 -13  -5   16.04    7.77
  -7 -13   6   49.53   16.68
  -7 -13  -6   42.18   13.11
   7 -13   6   50.88   12.21
   7 -13   7  175.91   24.34
  -7 -13   7  165.09   29.10
  -7 -13  -7  173.63   27.02
  -7 -13  -8  271.15   33.70
   7 -13   8  242.31   28.04
  -7 -13   8  252.47   36.27
  -7 -13  -9  138.66   25.00
  -7 -13   9  104.82   23.32
   7 -13   9  134.54   20.92
  -7 -13  10   11.79    7.33
  -7 -13 -10    7.14    7.05
   7 -13  10   -0.03    3.83
   7 -13  11  110.57   19.22
  -7 -13  11  124.26   26.37
  -7 -13  12   -0.89    4.75
   7 -13  12   -2.67    2.51
   7 -13  13  404.02   37.62
  -7 -13  13  417.34   48.53
  -7 -13  14   52.16   17.85
   7 -13  14   53.44   13.29
  -7 -13  15   62.04   19.22
   7 -13  15   95.77   18.15
  -7 -13  16   76.74   21.00
   7 -13  16   51.52   13.63
  -7 -13  17    6.63    8.58
   7 -13  17   20.00    8.97
  -7 -13  18  126.25   28.73
   7 -13  18  115.05   20.32
  -7 -13  19    1.90    3.08
   7 -13  19    1.25    3.78
  -7 -13  20   42.92   16.82
   7 -13  20    6.31    5.00
   7 -13  21   12.32    7.44
   7 -13  22   15.27    9.42
   7 -13  23   22.04    9.16
   7 -13  24    5.56    5.66
  -7 -14   0   -7.99    8.24
  -7 -14   1   -3.24    3.58
  -7 -14  -1    2.72    4.75
  -7 -14   2   19.51   12.45
  -7 -14  -2   19.71   10.87
  -7 -14   3   -3.88    7.01
  -7 -14  -3    5.24    7.30
  -7 -14   4    1.64    4.05
  -7 -14  -4    6.58    6.02
  -7 -14   5   23.03   13.02
  -7 -14  -5   -3.73    5.71
  -7 -14   6   41.91   15.45
  -7 -14  -6   42.12   14.80
  -7 -14   7    7.67    8.51
  -7 -14  -7   19.06   10.61
  -7 -14   8    3.66    2.73
  -7 -14  -8    2.01    5.29
  -7 -14   9   34.96   13.73
  -7 -14  -9   56.05   16.13
  -7 -14  10  119.71   26.80
  -7 -14  11   25.26   13.83
  -7 -14  12    0.26    7.94
  -7 -14  13    8.38    3.98
  -7 -14  14   -4.51    6.83
  -7 -14  15    2.76    5.63
  -7 -14  16    4.39    5.88
  -7 -14  17    2.40    6.38
  -7 -15   0   -6.92    7.26
  -7 -15   1   32.81   12.08
  -7 -15  -1   25.43   11.96
  -7 -15   2    1.46    3.49
  -7 -15  -2    5.04    4.65
  -7 -15   3   -5.10    4.56
  -7 -15  -3    6.80    7.48
  -7 -15   4   22.80   10.90
  -7 -15  -4  132.02   31.21
  -7 -15   5    9.16    8.30
  -7 -15  -5   -1.55    2.99
  -7 -15   6   10.71    9.24
  -7 -15  -6    5.79    5.95
  -7 -15   7  119.05   26.36
  -7 -15  -7   95.42   23.96
  -7 -15   8   63.44   18.65
  -7 -15   9  139.07   27.88
  -7 -15  10   96.39   24.07
  -7 -15  11  134.42   27.86
  -7 -15  12   78.99   23.50
  -7 -15  13   76.11   24.18
  -7 -16   0    8.64    6.88
  -7 -16   1   22.21   10.83
  -7 -16  -1    2.44    5.30
  -7 -16   2   30.74   13.74
  -7 -16  -2   39.51   14.55
  -7 -16   3   10.25    8.19
  -7 -16  -3    7.72    9.86
  -7 -16   4   12.44    9.47
  -7 -16  -4    9.56   10.92
  -7 -16   5    2.42    5.24
  -7 -16  -5   -0.33    3.78
  -7 -16   6   12.88    8.20
  -7 -16  -6   12.51   10.03
  -7 -16   7  112.30   25.84
  -7 -16   8   12.15    8.89
  -7 -16   9    3.67    4.72
  -7 -17   0   13.52    9.29
  -7 -17   1   17.69   12.43
  -7 -17  -1    2.56    4.56
  -7 -17   2   15.19   10.33
  -7 -17  -2    6.36    7.64
  -7 -17   3    7.46   10.09
  -7 -17  -3   34.50   15.42
  -7 -17   4   35.29   15.54
  -7 -17  -4   28.65   15.91
  -8   0   0   20.73    7.78
  -8   0   1    1.28    3.69
  -8   0  -1   11.62    7.96
  -8   0  -2   63.66   14.52
  -8   0   2   59.12   14.50
  -8   0  -3    0.59    2.31
  -8   0   3    1.60    4.66
  -8   0  -4    4.43    5.75
  -8   0   4    0.09    3.80
  -8   0   5   -5.06    5.14
  -8   0  -5    1.26    1.51
  -8   0  -6   13.27    5.74
  -8   0   6   20.85    8.82
  -8   0  -7   -2.90    3.84
  -8   0   7    1.16    3.44
  -8   0   8    7.35    3.65
  -8   0  -8    3.68    3.80
  -8   0   9   -2.52    5.46
  -8   0  -9   -3.16    3.12
  -8   0 -10  507.67   41.17
  -8   0  10  508.27   43.72
  -8   0  11   -6.77    6.08
  -8   0  12   29.85   10.91
  -8   0  13    1.48    5.39
  -8   0  14  111.24   21.23
  -8   0  15   -0.92    4.39
  -8   0  16  299.92   35.65
  -8   0  17    8.98    7.05
  -8   0  18    3.61    2.81
  -8   0  19    6.37    7.17
   8   0  19    4.85    4.64
  -8   0  20    1.01    5.12
   8   0  20    2.84    5.52
  -8   0  21   -3.22    6.75
   8   0  21   -2.52    2.48
  -8   0  22    5.43    7.88
   8   0  22   14.62    9.24
  -8   0  23   -3.61    3.37
   8   0  23    1.89    2.71
  -8   0  24   59.42   18.13
   8   0  24   54.23   14.74
  -8   0  25   12.80    8.89
   8   0  25   -0.94    1.83
  -8   0  26   14.16   10.36
   8   0  26    3.44    5.73
  -8   0  27    3.12    9.41
   8   0  27    1.26    2.85
  -8   0  28   28.52   13.99
   8   0  28   28.22   10.53
   8   0  29    4.15    3.65
   8   0  30   53.86   15.62
   8   0  31   -0.15    2.52
   8   0  32   55.39   17.05
  -8   1   0   63.43   14.40
  -8  -1   0   96.92   18.26
  -8   1   1   16.39    7.31
  -8  -1   1   19.08    8.44
  -8   1  -1   25.68   10.12
  -8  -1  -1   16.77    7.98
  -8   1   2  238.66   28.61
  -8   1  -2  264.78   30.43
  -8  -1   2  273.26   30.78
  -8  -1  -2  232.01   28.21
  -8  -1  -3   53.50   13.37
  -8   1  -3   38.99   12.03
  -8   1   3   45.99   13.60
  -8  -1   3   45.80   12.26
  -8  -1  -4   69.64   15.37
  -8   1   4   63.84   15.29
  -8   1  -4   49.65   13.16
  -8  -1   4   76.91   16.54
  -8   1   5   31.94   10.65
  -8  -1  -5   47.43   12.74
  -8  -1   5   37.22   11.96
  -8   1  -5   22.41    8.39
  -8  -1  -6   87.85   16.77
  -8  -1   6   93.33   18.24
  -8   1  -6  107.78   19.51
  -8   1   6   83.02   17.97
  -8   1   7    6.76    6.29
  -8  -1   7   10.02    7.08
  -8  -1  -7    4.49    6.04
  -8   1  -7    2.91    1.51
  -8  -1  -8   10.42    6.74
  -8  -1   8    5.55    6.74
  -8   1  -8    0.12    4.45
  -8   1   8    9.03    7.03
  -8  -1   9   46.61   13.21
  -8  -1  -9   23.83    9.66
  -8   1   9   33.98   10.88
  -8   1  10   37.10   11.79
  -8  -1  10   70.62   17.07
  -8  -1 -10   63.69   13.88
  -8  -1  11   11.23    8.29
  -8  -1 -11    8.30    5.83
  -8   1  11    7.00    5.71
  -8  -1 -12  293.74   31.09
  -8   1  12  265.74   32.14
  -8  -1  12  250.10   31.97
  -8  -1  13   45.54   13.54
  -8   1  13   30.34   10.60
  -8  -1  14  106.20   21.68
  -8   1  14   74.55   18.75
  -8  -1  15   31.02   11.32
  -8   1  15   36.70   12.69
  -8  -1  16   16.40    7.64
  -8   1  16   42.44   13.10
  -8  -1  17   21.55   10.56
  -8   1  17   25.37   10.46
  -8  -1  18   -2.85    5.93
  -8   1  18    6.44    7.73
  -8  -1  19   -0.96    4.94
  -8   1  19    4.58    6.44
   8  -1  19    3.12    6.35
   8   1  19    0.03    3.63
  -8  -1  20   32.95   13.22
  -8   1  20   26.39   10.37
   8  -1  20    4.32    4.53
   8   1  20   33.60   11.04
  -8  -1  21   82.98   19.92
  -8   1  21   57.47   16.42
   8  -1  21   69.37   15.47
   8   1  21   59.88   14.13
  -8  -1  22   10.47    8.53
   8   1  22   11.90    8.39
  -8   1  22   20.12   10.88
   8  -1  22    5.10    4.53
  -8  -1  23   92.91   21.19
   8  -1  23   80.89   17.52
   8   1  23   76.69   16.35
  -8   1  23   75.29   18.49
  -8  -1  24   78.95   20.81
   8  -1  24   94.43   18.28
   8   1  24   99.53   18.97
  -8   1  24   61.27   18.53
  -8  -1  25   -0.69    4.24
   8  -1  25    4.50    6.08
  -8   1  25   13.57    9.54
   8   1  25   10.84    6.60
  -8  -1  26    6.04    7.89
   8  -1  26   -4.76    5.23
   8   1  26    6.73    4.66
  -8   1  26    0.23    4.82
  -8  -1  27    5.78    8.16
   8  -1  27    5.89    3.98
   8   1  27    1.57    4.20
  -8   1  27   19.04   12.15
  -8  -1  28   52.15   16.99
   8  -1  28   77.94   17.86
   8   1  28   58.54   15.13
  -8  -1  29   40.82   16.36
   8  -1  29   20.89    9.89
   8   1  29   34.22   12.16
   8  -1  30   29.81   10.79
   8   1  30    9.90    6.60
   8  -1  31    4.61    3.94
   8   1  31   17.20    8.84
   8  -1  32   28.71   11.51
   8   1  32   11.13    8.40
  -8   2   0   18.23    8.38
  -8  -2   0    9.52    6.21
  -8   2   1   22.76    8.79
  -8  -2   1   14.28    6.54
  -8  -2  -1   29.04    9.59
  -8   2  -1   20.22    8.35
  -8  -2   2    4.15    5.19
  -8  -2  -2    0.36    2.53
  -8   2   2   -2.07    4.57
  -8   2   3   98.98   19.74
  -8  -2   3   94.68   18.11
  -8   2  -3   91.90   18.41
  -8  -2  -3   88.60   17.15
  -8  -2   4    0.57    4.63
  -8   2   4    1.13    3.44
  -8   2  -4    0.45    3.16
  -8  -2  -4   -1.26    2.15
  -8   2  -5   94.73   17.82
  -8  -2   5   45.21   12.42
  -8   2   5   78.50   16.93
  -8  -2  -5   79.02   16.71
  -8  -2   6    4.38    6.98
  -8  -2  -6   12.76    7.25
  -8   2   6   18.27    8.55
  -8  -2  -7  139.97   21.87
  -8   2   7  122.55   21.12
  -8  -2   7  132.73   22.48
  -8   2   8  453.14   41.12
  -8  -2  -8  513.26   40.85
  -8  -2   8  473.43   42.58
  -8   2   9  252.20   30.98
  -8  -2  -9  268.14   29.17
  -8  -2   9  307.27   34.93
  -8   2  10  273.95   32.00
  -8  -2 -10  316.98   32.47
  -8  -2  10  254.93   32.42
  -8  -2  11   22.31    9.23
  -8   2  11   38.88   12.76
  -8  -2 -11   41.92   11.79
  -8   2  12  275.35   33.38
  -8  -2  12  221.12   30.34
  -8  -2 -12  237.34   27.76
  -8   2  13   84.15   18.54
  -8  -2  13  126.47   23.07
  -8  -2 -13  144.54   21.64
  -8   2  14  234.76   31.40
  -8  -2 -14  266.57   29.65
  -8  -2  14  282.13   35.19
  -8   2  15  167.45   26.95
  -8  -2  15  130.32   23.84
  -8   2  16   57.45   15.67
  -8  -2  16   26.26   10.13
  -8   2  17  170.64   26.61
  -8  -2  17  140.78   25.19
  -8   2  18    4.35    7.51
   8   2  18   -4.52    6.01
  -8  -2  18    2.28    3.76
  -8   2  19    3.95    5.15
   8   2  19   18.29    8.63
   8  -2  19    1.78    1.97
  -8  -2  19    8.65    6.15
  -8  -2  20    6.90    7.48
  -8   2  20    5.71    3.65
   8  -2  20    0.98    1.77
   8   2  20   11.66    5.46
  -8  -2  21    8.60    6.43
  -8   2  21   10.49    9.43
   8  -2  21    1.86    3.09
   8   2  21    1.58    3.36
  -8  -2  22    6.14    3.65
  -8   2  22    5.69    9.06
   8  -2  22    5.08    4.11
   8   2  22   -0.54    2.84
  -8  -2  23   20.77   10.34
  -8   2  23    8.67    8.74
   8   2  23    5.20    4.03
   8  -2  23   17.00    8.85
  -8   2  24   -3.52    4.27
   8  -2  24   -4.63    5.16
   8   2  24    1.42    2.10
  -8  -2  25   15.16   10.36
  -8   2  25    9.95    8.23
   8  -2  25   11.32    8.25
   8   2  25    2.84    5.66
  -8  -2  26    1.14    2.85
  -8   2  26    7.99    9.40
   8  -2  26   -0.67    3.88
   8   2  26   -3.52    4.14
  -8  -2  27   11.79    9.57
   8  -2  27   18.61   10.23
   8   2  27   31.08   10.24
  -8  -2  28    9.23    8.23
   8  -2  28    0.10    2.85
   8   2  28   -4.25    5.19
  -8  -2  29    4.12    7.67
   8  -2  29   12.24    8.03
   8   2  29    4.49    4.86
  -8  -2  30   61.00   19.15
   8  -2  30   75.53   17.74
   8   2  30   40.29   12.61
   8  -2  31   32.10   12.95
   8   2  31   27.03   10.89
   8   2  32   45.09   13.94
   8   2  33    2.70    4.88
  -8  -3   0   45.61   12.71
  -8   3   0   24.79   10.34
  -8  -3   1  139.23   22.49
  -8  -3  -1  152.14   23.52
  -8   3   1  158.07   23.31
  -8   3  -1  178.77   24.64
  -8  -3   2    4.58    1.56
  -8  -3  -2    1.31    3.77
  -8   3  -2   10.22    6.83
  -8   3   2    1.70    5.34
  -8  -3   3  213.11   28.62
  -8   3   3  234.89   29.63
  -8  -3  -3  221.66   27.17
  -8  -3   4   40.63   11.28
  -8  -3  -4   35.16   10.16
  -8   3   4   21.72    7.53
  -8  -3  -5   84.03   16.69
  -8   3   5   54.05   14.63
  -8  -3   5   81.33   17.39
  -8   3   6   37.60   10.98
  -8  -3  -6   17.23    7.95
  -8  -3   6   35.53   11.80
  -8  -3   7  159.82   24.98
  -8   3   7  102.81   20.53
  -8  -3  -7  141.47   21.42
  -8   3   8   17.38    7.43
  -8  -3  -8   23.04    8.82
  -8  -3   8   26.16   10.00
  -8  -3  -9  306.93   31.72
  -8  -3   9  272.99   32.82
  -8   3   9  277.54   32.32
  -8  -3 -10   24.47    9.72
  -8   3  10   32.60   10.84
  -8  -3  10    9.90    5.90
  -8  -3 -11   11.09    8.56
  -8  -3  11    3.28    6.55
  -8   3  11   -1.27    5.25
  -8  -3 -12   17.58    8.32
  -8   3  12    7.00    5.50
  -8  -3  12   13.21    8.49
  -8   3  13  294.77   34.26
  -8  -3  13  296.28   35.66
  -8  -3 -13  241.50   28.09
  -8  -3 -14   16.55    7.17
  -8   3  14   15.80    6.50
  -8  -3  14   20.26    9.52
  -8  -3 -15   47.33   12.64
  -8   3  15   74.83   18.02
  -8  -3  15   61.93   16.82
  -8   3  16   86.89   19.45
  -8  -3  16   67.54   18.01
  -8   3  17   89.73   20.06
  -8  -3  17   55.07   15.74
   8   3  18   45.67   11.25
  -8   3  18   31.53   11.92
   8  -3  18   27.88   10.85
  -8  -3  18   47.02   15.85
  -8   3  19  106.36   22.49
   8  -3  19   87.28   17.01
   8   3  19  113.31   18.67
  -8  -3  19   77.91   18.95
  -8   3  20    8.92    7.53
   8  -3  20    7.78    6.19
   8   3  20   -0.26    3.68
  -8  -3  20    6.60    6.85
  -8   3  21   14.98    9.11
   8  -3  21    5.44    3.30
   8   3  21    3.72    4.74
  -8  -3  21    8.44    7.00
  -8   3  22   39.14   13.92
   8  -3  22   57.56   13.69
   8   3  22   32.27   11.19
  -8  -3  22   53.10   16.43
   8  -3  23  105.24   19.58
   8   3  23  150.09   22.83
  -8   3  23   88.07   21.00
  -8  -3  23   92.96   22.60
  -8   3  24   26.17   11.27
   8  -3  24   26.16    9.60
   8   3  24   15.53    7.62
  -8  -3  24   12.98   10.55
  -8   3  25  139.22   26.48
   8  -3  25  119.17   21.54
   8   3  25  116.14   20.71
  -8  -3  25   85.18   21.42
  -8   3  26   -3.64    6.09
   8  -3  26   12.07    8.12
   8   3  26   -2.20    3.31
  -8  -3  26   -6.41    5.44
   8  -3  27   17.00    7.83
   8   3  27    9.64    6.83
  -8  -3  27    6.32    5.46
  -8  -3  28   11.80   10.23
   8  -3  28    1.16    2.72
   8   3  28    7.31    5.96
  -8  -3  29   19.94   11.75
   8  -3  29   10.11    6.95
   8   3  29   13.53    7.57
  -8  -3  30    6.33    9.01
   8  -3  30    6.72    7.66
   8   3  30    8.71    4.88
   8  -3  31   15.84    7.56
   8   3  31    5.21    6.63
   8   3  32   -2.16    4.96
   8   3  33    9.57    7.51
  -8  -4   0  120.02   21.97
  -8  -4   1  194.74   27.05
  -8  -4  -1  213.34   27.14
  -8  -4  -2    0.65    4.51
  -8   4   2    3.97    2.78
  -8  -4  -3    6.22    6.47
  -8   4   3   -2.27    2.37
  -8  -4   3    4.57    4.73
  -8   4   4   11.28    5.86
  -8  -4  -4    2.28    6.22
  -8  -4   4    0.23    2.75
  -8  -4  -5    9.82    8.31
  -8   4   5   -0.83    2.36
  -8  -4   5    0.03    4.20
  -8   4   6    6.66    8.12
  -8  -4  -6    1.14    2.75
  -8  -4   6    9.63    6.27
  -8   4   7    3.39    3.43
  -8  -4  -7    4.95    5.42
  -8  -4   7   -4.37    5.60
  -8   4   8   -1.57    1.86
  -8  -4  -8    4.33    3.57
  -8  -4   8    4.11    5.06
  -8  -4   9  236.96   31.48
  -8   4   9  164.61   25.12
  -8  -4  -9  216.41   26.63
  -8  -4 -10   18.19    9.02
  -8  -4  10    8.70    6.34
  -8   4  10   14.43    8.07
  -8  -4 -11    9.92    5.27
  -8   4  11   17.80    7.94
  -8  -4  11   16.72    8.40
  -8  -4 -12   18.65    7.73
  -8   4  12   23.63   11.70
  -8  -4  12   32.19   11.58
  -8  -4  13  122.17   22.73
  -8  -4 -13  148.60   21.82
  -8   4  13  170.91   26.42
  -8  -4 -14   15.94    8.07
  -8   4  14    7.20    7.70
  -8  -4  14   13.91    8.27
  -8   4  15    8.90    7.39
  -8  -4  15   19.85    9.57
  -8  -4 -15   10.32    5.37
  -8   4  16    6.06    6.27
  -8  -4 -16    3.97    4.58
  -8  -4  16    8.71    7.93
  -8   4  17   49.57   14.94
  -8  -4  17   37.65   12.30
   8  -4  18    0.22    2.74
  -8  -4  18    0.46    2.69
  -8   4  19   16.89    8.16
  -8  -4  19    7.70    7.86
   8  -4  19   10.14    6.75
   8   4  19   29.82   10.02
  -8   4  20   17.94    7.26
  -8  -4  20   23.08   12.05
   8  -4  20   15.02    7.30
   8   4  20   23.80    9.38
  -8   4  21   58.94   15.83
  -8  -4  21   62.93   18.52
   8  -4  21   41.38   12.61
   8   4  21   44.65   12.41
  -8   4  22    0.25    5.04
  -8  -4  22    7.09    6.91
   8  -4  22   10.70    6.87
   8   4  22    4.03    3.56
  -8   4  23   41.28   14.85
  -8  -4  23   21.69   10.19
   8  -4  23   48.28   13.09
   8   4  23   41.08   11.22
  -8   4  24   22.67   11.58
  -8  -4  24   17.01    9.98
   8  -4  24   -1.56    4.54
   8   4  24    2.99    4.80
  -8  -4  25    7.17    7.43
  -8   4  25    4.08    5.78
   8  -4  25   -0.75    3.41
   8   4  25    5.30    5.20
   8  -4  26    5.17    5.27
   8   4  26   -2.26    3.30
  -8  -4  27    2.07    5.39
   8  -4  27    0.21    3.73
   8   4  27   -1.22    3.37
   8  -4  28   -0.75    3.61
   8   4  28    9.97    7.06
  -8  -4  29  -12.19   10.10
   8  -4  29   -3.28    5.47
   8   4  29   11.73    7.95
  -8  -4  30    0.80    4.48
   8  -4  30    6.49    6.70
   8   4  30    5.04    7.27
   8  -4  31  116.66   22.77
   8   4  31  116.04   22.64
  -8  -4  31   89.18   23.91
   8   4  32   15.85    9.98
   8   4  33   19.58   10.09
  -8  -5   0  168.45   24.83
  -8  -5   1   20.72   12.34
  -8  -5  -1   15.34    7.14
  -8  -5   2  240.20   30.43
  -8  -5  -2  244.03   29.54
  -8  -5  -3    5.49    2.48
  -8  -5   3    9.47    6.94
  -8  -5   4  150.15   23.61
  -8  -5  -4  145.22   22.91
  -8  -5   5  236.56   30.80
  -8  -5  -5  262.00   29.94
  -8  -5  -6  103.73   18.67
  -8  -5   6   81.97   17.84
  -8  -5   7   97.41   19.73
  -8  -5  -7   56.09   13.82
  -8  -5  -8   13.29    7.91
  -8   5   8    5.25    5.69
  -8  -5   8    9.73    7.78
  -8   5   9  180.49   26.79
  -8  -5   9  189.61   28.14
  -8  -5  -9  149.31   22.40
  -8   5  10   41.78   13.79
  -8  -5  10   30.34   11.25
  -8  -5 -10   47.50   12.20
  -8   5  11    6.91    8.22
  -8  -5  11   -4.42    4.71
  -8  -5 -11    4.02    5.42
  -8  -5 -12   69.62   16.30
  -8  -5  12   97.24   21.19
  -8   5  12   66.23   16.66
  -8  -5 -13  153.56   22.12
  -8  -5  13  125.78   23.35
  -8   5  13  109.64   20.32
  -8  -5 -14    5.27    6.65
  -8  -5  14    2.20    4.11
  -8   5  14   -6.50    6.63
  -8  -5  15    8.88    5.76
  -8   5  15    3.83    4.70
  -8  -5 -15    2.43    2.41
  -8  -5 -16   31.66   11.22
  -8  -5  16   46.53   17.19
  -8   5  16   53.31   14.05
  -8  -5  17  129.11   25.99
   8  -5  17  152.31   23.13
   8   5  17  123.20   19.74
  -8  -5 -17  119.05   19.05
  -8   5  17   97.97   21.10
  -8  -5  18   54.44   17.28
   8  -5  18   33.58   11.17
   8   5  18   39.58   11.39
  -8   5  18   14.18    5.06
   8  -5  19   -1.42    1.75
   8   5  19    3.40    2.20
  -8   5  19   -5.25    5.73
  -8   5  20   85.25   19.85
  -8  -5  20   61.26   18.57
   8  -5  20   88.20   18.34
   8   5  20   69.33   14.98
  -8   5  21   95.32   19.30
  -8  -5  21   86.89   20.77
   8  -5  21  103.90   19.66
   8   5  21   83.77   16.46
  -8   5  22  173.24   28.23
  -8  -5  22  151.13   28.97
   8  -5  22  165.15   24.91
   8   5  22  180.56   24.45
  -8  -5  23    4.55    5.51
  -8   5  23   14.33    9.51
   8  -5  23    8.36    6.69
   8   5  23    7.96    5.69
  -8   5  24   99.11   21.89
  -8  -5  24  108.49   24.70
   8  -5  24  114.24   21.02
   8   5  24  119.07   20.41
  -8  -5  25   -0.20    4.50
   8  -5  25   -2.52    2.82
   8   5  25    6.77    7.76
  -8  -5  26   10.37    8.58
   8  -5  26   -2.31    3.73
   8   5  26   -4.50    5.37
  -8  -5  27   86.08   22.82
   8   5  27   93.64   18.44
   8  -5  27   62.84   16.40
  -8  -5  28   35.94   15.71
   8  -5  28   29.38   10.78
   8   5  28   27.64   10.69
   8  -5  29    2.40    4.48
   8   5  29   -1.39    4.50
   8   5  30   10.98    7.35
  -8  -5  30   38.02   16.00
   8  -5  30   25.43   11.26
   8   5  31   34.33   12.67
  -8  -5  31   19.80   12.31
   8   5  32    6.74    7.58
   8   5  33   10.29    8.22
  -8  -6   0   21.64    8.64
  -8  -6   1    3.19    6.03
  -8  -6  -1    6.49    3.58
  -8  -6   2   20.38   10.54
  -8  -6  -2   21.01   11.34
  -8  -6   3    5.86    4.75
  -8  -6  -3    7.27    8.41
  -8  -6   4    3.11    3.89
  -8  -6  -4   -0.26    3.28
  -8  -6   5   43.03   13.32
  -8  -6  -5   51.34   13.20
  -8  -6  -6    6.70    5.38
  -8  -6   6   -3.45    5.28
  -8  -6   7  438.52   42.75
  -8  -6  -7  401.52   37.38
  -8  -6  -8    1.58    4.77
  -8  -6   8    2.92    3.16
  -8  -6   9 1227.88   73.03
  -8  -6  -9 1122.21   62.00
  -8  -6 -10   33.26   10.93
  -8  -6  10   53.51   15.74
  -8  -6  11   19.60    8.31
  -8  -6 -11   28.44    9.73
  -8  -6  12   41.81   13.23
  -8  -6 -12   32.93   10.15
  -8  -6  13  511.30   48.35
  -8  -6 -13  481.97   40.67
  -8  -6 -14   17.30    9.53
  -8  -6  14    6.63    6.82
  -8  -6  15  174.26   28.91
  -8  -6 -15  185.13   24.38
  -8  -6  16    7.96    7.12
   8   6  16   10.47    6.10
  -8  -6 -16   27.69    9.61
   8  -6  17   -0.89    3.38
  -8  -6 -17   -2.01    3.76
   8   6  17    4.94    4.52
  -8  -6  18   14.02    8.89
   8  -6  18    9.53    6.24
   8   6  18    1.79    4.36
   8  -6  19   56.24   15.16
  -8  -6  19   47.01   14.53
   8   6  19   48.58   12.02
  -8  -6  20   18.46   12.27
   8  -6  20   14.37    7.43
   8   6  20    4.65    4.86
  -8  -6  21    8.80    9.92
   8  -6  21    8.10    5.60
   8   6  21    2.56    4.08
  -8  -6  22    4.49    6.63
   8  -6  22    5.56    4.25
   8   6  22   20.16    8.01
  -8  -6  23   11.21    7.80
   8  -6  23    3.37    5.09
   8   6  23    1.62    4.00
  -8  -6  24    2.18    2.94
   8  -6  24    2.99    5.73
   8   6  24    4.55    6.10
  -8  -6  25    9.10    9.39
   8  -6  25    3.63    6.71
   8   6  25   -3.17    1.87
   8  -6  26   -2.21    3.32
   8   6  26   -3.87    2.96
  -8  -6  27   -2.82    7.11
   8  -6  27   -3.23    5.04
   8   6  27   10.12    6.28
  -8  -6  28   14.26    9.62
   8  -6  28   21.10   10.19
   8   6  28   27.04   10.97
   8   6  29   70.39   16.28
   8  -6  29   78.86   17.62
   8   6  30  -12.96    9.71
  -8  -6  30   12.52   11.63
  -8  -6  31  171.80   33.28
   8   6  31  196.87   28.28
   8   6  32   -3.84    5.45
  -8  -6  32   -3.24    7.37
  -8  -7   0    3.69    4.69
  -8  -7   1  351.47   37.96
  -8  -7  -1  292.83   33.86
  -8  -7   2   34.98   11.78
  -8  -7  -2   24.56   10.13
  -8  -7   3   48.85   14.45
  -8  -7  -3   31.58   12.24
  -8  -7  -4   92.63   19.60
  -8  -7   4   73.41   17.81
  -8  -7   5    6.53    9.33
  -8  -7  -5   16.82    8.66
  -8  -7   6   94.21   20.97
  -8  -7  -6   98.35   18.85
  -8  -7   7  205.21   30.19
  -8  -7  -7  167.87   25.02
  -8  -7  -8    5.30    5.99
  -8  -7   8    8.94    7.78
  -8  -7  -9   39.57   11.98
  -8  -7   9   44.02   14.63
  -8  -7 -10   40.27   12.30
  -8  -7  10   32.39   12.73
  -8  -7 -11   -2.86    5.54
  -8  -7  11   14.12    8.50
  -8  -7  12   62.02   16.20
  -8  -7 -12   87.92   17.76
  -8  -7  13    9.92    7.46
  -8  -7 -13   39.64   12.50
  -8  -7  14    6.02    7.32
  -8  -7 -14    4.96    4.51
  -8  -7 -15    0.58    1.80
  -8  -7  15    3.06    4.90
   8   7  15    9.63    5.98
  -8  -7  16  120.03   24.58
  -8  -7 -16   68.89   15.46
   8  -7  16  109.35   19.95
   8   7  16  118.74   18.33
  -8  -7  17    6.16    5.85
   8  -7  17   -0.35    2.84
   8   7  17   -1.64    1.74
  -8  -7  18   13.29    7.49
   8  -7  18   13.53    7.12
   8   7  18   22.64    8.37
  -8  -7  19   82.25   22.78
   8  -7  19  105.42   19.47
   8   7  19   97.70   16.95
  -8  -7  20   -5.72    6.61
   8   7  20    1.13    1.95
  -8  -7  21   69.07   20.45
   8  -7  21   39.50   12.11
   8   7  21   36.93   10.43
  -8  -7  22   38.26   14.02
   8  -7  22   35.08   11.52
   8   7  22   40.17   10.98
  -8  -7  23   61.86   19.82
   8  -7  23   61.79   15.69
   8   7  23   56.79   13.69
  -8  -7  24   23.33   10.65
   8  -7  24   36.72   12.55
   8   7  24   15.34    7.40
  -8  -7  25   77.31   21.75
   8  -7  25   70.66   17.38
   8   7  25   54.21   13.12
  -8  -7  26    9.24    7.48
   8  -7  26    4.53    6.18
   8   7  26    5.57    5.04
  -8  -7  27   22.73   13.38
   8  -7  27    5.51    5.15
   8   7  27   20.37    8.49
   8   7  28   36.80   12.38
  -8  -7  28   35.56   14.96
   8  -7  28   26.33   11.04
   8   7  29    7.70    7.37
  -8  -7  29   -2.44    7.23
   8  -7  29    0.64    2.81
  -8  -7  30   13.05    9.24
  -8  -7  31   18.98   13.07
  -8  -8   0   49.14   14.31
  -8  -8   1  300.41   35.71
  -8  -8  -1  277.02   33.61
  -8  -8   2   12.55    9.74
  -8  -8  -2    3.33    3.36
  -8  -8   3    0.64    4.86
  -8  -8  -3   -0.10    1.86
  -8  -8   4   20.78    9.39
  -8  -8  -4   27.77   10.64
  -8  -8   5   14.77    7.97
  -8  -8  -5    6.34    6.45
  -8  -8   6    9.12    8.34
  -8  -8  -6    9.58    6.52
  -8  -8   7    0.04    2.28
  -8  -8  -7    8.48    7.16
  -8  -8   8   -2.36    3.74
  -8  -8  -8    5.73    5.94
  -8  -8   9  112.53   23.03
  -8  -8  -9   96.09   18.70
  -8  -8  10  166.19   28.27
  -8  -8 -10  163.36   24.80
  -8  -8 -11    4.52    4.29
  -8  -8  11    9.33    6.85
  -8  -8  12  124.56   24.17
  -8  -8 -12  113.30   19.90
  -8  -8  13  242.95   34.87
  -8  -8 -13  174.34   25.17
  -8  -8  14   85.11   20.53
  -8  -8 -14   55.01   14.14
   8   8  14   62.94   13.38
   8  -8  15    8.21    6.33
  -8  -8  15    7.51    5.66
   8   8  15   11.75    5.93
  -8  -8 -15   13.64    7.13
  -8  -8  16   82.06   20.66
   8  -8  16   95.24   18.66
   8   8  16   70.18   13.98
  -8  -8  17    9.38   10.01
   8  -8  17    4.19    4.57
   8   8  17   -3.46    3.94
  -8  -8  18   -0.81    5.81
   8  -8  18   14.97    8.00
   8   8  18   10.02    6.14
  -8  -8  19   48.69   17.85
   8  -8  19   25.29    9.97
   8   8  19   42.16   10.82
  -8  -8  20    5.12    7.01
   8  -8  20   23.77    9.38
   8   8  20    8.30    5.41
  -8  -8  21   70.96   19.51
   8   8  21   99.09   17.32
   8  -8  21   86.87   17.30
  -8  -8  22   -5.91    6.46
   8  -8  22   11.01    8.19
   8   8  22    2.57    4.88
  -8  -8  23   21.47   12.83
   8  -8  23   31.95   10.79
   8   8  23   32.98   10.16
  -8  -8  24   20.31   12.16
   8  -8  24   20.63    9.84
   8   8  24   33.59   10.30
  -8  -8  25   -0.83    4.82
   8  -8  25   41.62   14.32
  -8  -8  26   -9.56   10.14
   8  -8  26    4.11    4.93
  -8  -8  27    9.58    7.11
   8  -8  27    8.30    6.81
  -8  -8  28    0.35    4.80
   8  -8  28    0.07    2.49
  -8  -8  29   10.80   10.04
  -8  -8  30    0.54    4.52
  -8  -9   0  353.05   38.61
  -8  -9   1   25.87   11.74
  -8  -9  -1   28.90   10.82
  -8  -9   2   15.99   10.46
  -8  -9  -2    1.29    3.55
  -8  -9   3   21.87   10.55
  -8  -9  -3   18.47    9.11
  -8  -9   4   53.16   16.34
  -8  -9  -4   56.26   15.60
  -8  -9   5   10.66    9.17
  -8  -9  -5    5.31    6.07
  -8  -9   6    5.35    5.32
  -8  -9  -6    3.46    4.42
  -8  -9   7   20.43    8.54
  -8  -9  -7   29.15   12.17
  -8  -9   8   14.39    9.32
  -8  -9  -8   11.68    8.11
  -8  -9   9   69.53   18.77
  -8  -9  -9   62.31   14.93
  -8  -9  10   11.80    8.15
  -8  -9 -10   12.31    7.28
  -8  -9 -11    3.78    5.15
  -8  -9  11   12.97   13.25
  -8  -9 -12   36.97   11.92
  -8  -9  12   17.00   10.04
  -8  -9 -13   54.08   14.09
  -8  -9  13   47.83   14.55
   8   9  13   44.70   11.12
  -8  -9  14   76.34   20.53
  -8  -9 -14   50.87   13.94
   8   9  14   77.84   14.55
   8  -9  14   53.15   14.09
  -8  -9  15   -1.03    3.71
   8  -9  15    8.47    6.17
   8   9  15   -1.52    2.90
  -8  -9  16   10.45    9.76
   8  -9  16   14.91    9.24
   8   9  16    2.76    2.91
   8   9  17   13.68    7.10
  -8  -9  17    5.36    5.74
   8  -9  17    7.40    6.17
  -8  -9  18   89.01   22.01
   8   9  18   86.55   14.79
   8  -9  18   75.79   16.95
  -8  -9  19   -0.25    5.84
   8  -9  19    4.97    5.01
  -8  -9  20    6.29    4.90
   8  -9  20    4.34    4.94
  -8  -9  21    1.31    3.75
   8  -9  21   11.48    7.22
  -8  -9  22   49.56   17.97
   8  -9  22   77.90   17.81
  -8  -9  23   39.05   19.17
   8  -9  23   54.64   14.16
  -8  -9  24   20.58   13.60
   8  -9  24   17.32    9.16
  -8  -9  25   -2.68    4.54
   8  -9  25    8.23    5.59
  -8  -9  26   55.24   18.99
   8  -9  26   58.84   15.69
  -8  -9  27   19.19   11.80
   8  -9  27   -0.26    2.92
  -8  -9  28    2.84    6.77
  -8 -10   0   -5.04    5.78
  -8 -10   1   -2.20    4.20
  -8 -10  -1    1.97    4.85
  -8 -10   2   13.01    9.94
  -8 -10  -2   10.88    8.53
  -8 -10   3   -3.91    4.72
  -8 -10  -3   -0.80    4.56
  -8 -10   4   28.87   11.64
  -8 -10  -4    7.00    7.44
  -8 -10   5    7.31    6.98
  -8 -10  -5    0.78    6.10
  -8 -10   6   -1.72    2.66
  -8 -10  -6   -0.15    4.19
  -8 -10   7    6.03    6.34
  -8 -10  -7   11.94    8.48
  -8 -10  -8  324.13   36.45
  -8 -10   8  269.40   36.02
  -8 -10   9    2.00    3.10
  -8 -10  -9    8.24    7.38
  -8 -10  10   86.91   21.79
  -8 -10 -10   57.92   16.54
  -8 -10  11   26.31   12.23
  -8 -10 -11   10.04    6.69
  -8 -10  12   64.80   18.76
  -8 -10 -12  115.19   21.29
  -8 -10 -13    6.96    5.65
  -8 -10  13    5.63   10.13
   8 -10  13    5.74    4.48
  -8 -10  14  100.14   23.68
   8 -10  14   76.06   17.00
  -8 -10  15    6.97    6.71
   8 -10  15   -3.53    4.22
  -8 -10  16   -7.86    7.31
   8 -10  16    2.10    2.44
  -8 -10  17   45.25   17.44
   8 -10  17   22.67    9.59
  -8 -10  18    4.26    7.21
   8 -10  18    2.28    2.48
  -8 -10  19    6.75    8.79
   8 -10  19    5.08    5.17
  -8 -10  20  -13.47    9.77
   8 -10  20    2.32    2.97
  -8 -10  21    8.60    8.62
   8 -10  21    8.22    6.85
  -8 -10  22  -11.02    7.80
   8 -10  22    2.86    4.17
  -8 -10  23   14.68   12.13
   8 -10  23   34.97   12.42
  -8 -10  24   28.25   15.95
   8 -10  24    3.15    4.09
  -8 -10  25   13.47   10.16
   8 -10  25   12.69    8.41
  -8 -10  26   22.20   13.59
   8 -10  26   -0.04    3.14
  -8 -11   0   11.03    8.16
  -8 -11   1   42.67   14.98
  -8 -11  -1   27.14   10.69
  -8 -11  -2  115.57   22.75
  -8 -11   2  129.83   24.62
  -8 -11   3    1.34    2.98
  -8 -11  -3   11.70    8.24
  -8 -11   4   56.51   16.92
  -8 -11  -4   23.91   10.94
  -8 -11   5   16.21    9.94
  -8 -11  -5    9.64    7.45
  -8 -11   6   12.29    7.70
  -8 -11  -6   12.75    8.14
  -8 -11   7    0.63    2.64
  -8 -11  -7    2.57    6.47
  -8 -11   8   36.68   12.90
  -8 -11  -8   28.16   12.09
  -8 -11   9   38.08   13.81
  -8 -11  -9   39.00   13.69
  -8 -11  10    2.12    4.29
  -8 -11 -10    0.38    5.26
  -8 -11  11    3.69    5.72
  -8 -11 -11    8.25    5.99
  -8 -11  12    0.15    6.32
  -8 -11 -12    7.96    4.00
  -8 -11  13   29.58   15.35
   8 -11  13   26.52    9.01
  -8 -11  14   29.82   13.36
   8 -11  14   73.96   17.95
  -8 -11  15    8.39    8.74
   8 -11  15    8.29    5.81
  -8 -11  16    3.67    5.51
   8 -11  16   -3.20    4.31
  -8 -11  17   33.89   15.75
   8 -11  17   16.42    7.85
  -8 -11  18   -7.10   10.17
   8 -11  18   18.58    8.69
  -8 -11  19    1.90    7.63
   8 -11  19    3.03    3.69
  -8 -11  20   54.98   19.08
   8 -11  20   75.10   17.37
  -8 -11  21   51.37   19.17
   8 -11  21   19.47    9.51
  -8 -11  22    9.56    5.31
   8 -11  22    9.87    7.76
  -8 -11  23   25.88   14.38
   8 -11  23   31.46   10.93
   8 -11  24   25.09    9.86
   8 -11  25    5.38    7.42
  -8 -12   0  103.37   22.08
  -8 -12   1   16.54    9.75
  -8 -12  -1   23.55    8.99
  -8 -12   2   26.77   12.12
  -8 -12  -2   14.96   10.83
  -8 -12   3   25.27   10.89
  -8 -12  -3   28.54   12.20
  -8 -12   4    3.61    8.03
  -8 -12  -4   16.78    9.78
  -8 -12   5   -3.29    6.31
  -8 -12  -5   21.09   10.55
  -8 -12   6    1.07    4.63
  -8 -12  -6    2.66    3.46
  -8 -12   7    2.54    2.68
  -8 -12  -7   30.47   12.65
  -8 -12   8    7.30    6.99
  -8 -12  -8    2.89    3.75
  -8 -12  -9  200.32   30.13
  -8 -12   9  195.10   32.73
  -8 -12  10    8.73    8.53
   8 -12  10   13.32    8.22
  -8 -12 -10    7.54    5.54
  -8 -12  11   24.74   10.73
   8 -12  11   20.65    9.92
  -8 -12 -11   10.40    5.20
  -8 -12  12   24.97   11.75
   8 -12  12   15.94    7.55
   8 -12  13  278.14   32.40
  -8 -12  13  298.77   41.52
  -8 -12  14   -3.18    4.68
   8 -12  14    6.29    5.53
  -8 -12  15    6.31    6.54
   8 -12  15    5.35    5.75
  -8 -12  16   26.47   15.12
   8 -12  16   12.22    8.00
  -8 -12  17   19.96   12.81
   8 -12  17    4.99    4.48
  -8 -12  18    4.21    8.75
   8 -12  18    6.33    6.23
  -8 -12  19    5.41    9.56
   8 -12  19    1.15    2.75
  -8 -12  20   25.39   13.54
   8 -12  20   26.20   10.53
  -8 -12  21   26.46   13.64
   8 -12  21   10.70    5.89
   8 -12  22   41.68   13.64
   8 -12  23   16.08    8.39
   8 -12  24    0.75    4.07
  -8 -13   0  136.46   27.02
  -8 -13   1   42.27   15.16
  -8 -13  -1   24.66   12.02
  -8 -13   2   13.90    7.39
  -8 -13  -2   19.52   10.31
  -8 -13   3   54.01   17.51
  -8 -13  -3   66.36   17.44
  -8 -13   4   -2.18    7.75
  -8 -13  -4   -6.15    5.33
  -8 -13  -5  151.18   28.20
  -8 -13   5  153.12   28.22
  -8 -13   6    3.12    3.84
  -8 -13  -6   11.74    9.67
  -8 -13   7   10.59    3.70
  -8 -13  -7   15.76    8.96
  -8 -13   8   60.31   18.33
  -8 -13  -8   38.83   13.55
   8 -13   8   39.65   12.73
  -8 -13   9    2.45    6.52
  -8 -13  -9    1.05    4.44
   8 -13   9    4.36    2.97
  -8 -13  10   24.24   13.35
   8 -13  10   43.04   12.90
  -8 -13  11   -3.80    6.03
   8 -13  11    1.41    4.32
  -8 -13  12   45.66   17.59
   8 -13  12   43.62   12.17
  -8 -13  13   -1.97    3.71
   8 -13  13    3.39    6.45
  -8 -13  14    6.34    9.04
   8 -13  14   13.94    8.88
  -8 -13  15    8.16    9.64
   8 -13  15    2.63    5.63
  -8 -13  16    1.62    8.27
   8 -13  16   -1.66    4.50
  -8 -13  17   95.98   26.59
   8 -13  17   50.94   14.27
  -8 -13  18   49.64   17.21
   8 -13  18   50.71   13.79
   8 -13  19    6.76    7.04
   8 -13  20   35.70   12.77
   8 -13  21   20.46    9.35
   8 -13  22    7.95    8.12
  -8 -14   0    9.99    8.28
  -8 -14   1    4.62    6.25
  -8 -14  -1    6.46    9.39
  -8 -14   2   10.60    8.62
  -8 -14  -2    7.21    8.74
  -8 -14   3    7.83    6.26
  -8 -14  -3    7.33    7.00
  -8 -14   4   -1.80    4.69
  -8 -14  -4   19.57   12.23
  -8 -14   5   43.61   13.50
  -8 -14  -5   24.67   11.35
  -8 -14   6    3.65    3.48
  -8 -14  -6   17.83   11.39
  -8 -14   7   36.93   14.84
  -8 -14  -7   52.49   16.79
  -8 -14   8   38.84   16.50
  -8 -14  -8   35.06   13.56
  -8 -14   9  126.67   28.22
  -8 -14  10   14.63    9.02
  -8 -14  11    5.72    9.65
  -8 -14  12    4.01    4.99
  -8 -14  13   89.90   24.67
  -8 -14  14   26.77   14.35
  -8 -15   0   46.80   15.24
  -8 -15   1   30.78   14.81
  -8 -15  -1   20.58   10.99
  -8 -15   2  123.25   26.46
  -8 -15  -2  110.38   25.31
  -8 -15   3   27.29   12.88
  -8 -15  -3   11.74    8.99
  -8 -15   4   30.14   13.30
  -8 -15  -4   16.57    9.93
  -8 -15   5    3.39    7.57
  -8 -15  -5    6.25    6.55
  -8 -15   6   -6.81    7.96
  -8 -15  -6   -4.56    6.69
  -8 -15   7   28.38   13.42
  -8 -15   8   -3.02    6.46
  -8 -15   9   15.80   10.31
  -8 -15  10   38.87   14.52
  -8 -16   0   -9.81    9.88
  -8 -16   1    1.53    4.12
  -8 -16  -1   14.87    8.13
  -8 -16   2   -3.03    5.78
  -8 -16  -2   19.93   12.18
  -8 -16   3   21.26    9.30
  -8 -16  -3   28.65   13.44
  -8 -16   4   69.61   21.09
  -8 -16  -4   47.84   16.60
  -8 -16   5   21.31   12.05
  -8 -16  -5   17.72    9.07
  -8 -17  -1   28.83   15.26
  -8 -17  -2   16.07   12.02
  -9   0   0    4.46    4.56
  -9   0   1    6.77    5.80
  -9   0  -1    0.03    4.86
  -9   0   2  203.52   28.64
  -9   0  -2  188.92   26.44
  -9   0   3    7.58    5.20
  -9   0  -3   -2.20    3.98
  -9   0  -4   30.41   11.40
  -9   0   4   40.41   13.71
  -9   0  -5    0.61    4.09
  -9   0   5    9.57    9.87
  -9   0  -6  693.62   51.30
  -9   0   6  633.26   51.72
  -9   0  -7   -1.95    5.80
  -9   0   7   -0.34    4.29
  -9   0  -8  577.50   46.87
  -9   0   8  553.17   48.25
  -9   0  -9   -1.72    4.31
  -9   0   9    4.50    7.37
  -9   0 -10 1247.48   68.97
  -9   0  10 1161.70   71.27
  -9   0  11    0.47    2.21
  -9   0  12  180.68   28.32
  -9   0  13    7.27    7.95
  -9   0  14   67.29   17.84
  -9   0  15    1.80    2.30
  -9   0  16  812.18   62.02
  -9   0  17    4.34    3.14
  -9   0  18   12.67    9.16
  -9   0  19    5.35    5.37
   9   0  20   23.20    9.54
  -9   0  20   18.01   10.61
  -9   0  21    1.22    6.37
   9   0  21   -1.60    3.78
  -9   0  22   23.59   11.59
   9   0  22   25.24   10.45
  -9   0  23   -1.32    3.64
   9   0  23    9.50    7.10
  -9   0  24    5.92    6.04
   9   0  24    7.25    5.09
  -9   0  25   17.57   11.18
   9   0  25    9.70    8.88
  -9   0  26   -7.61    8.22
   9   0  26    3.83    5.54
  -9   0  27   16.62   11.54
   9   0  27    1.45    2.24
   9   0  28  243.90   32.70
  -9   0  28  248.91   37.78
   9   0  29    3.67    4.84
   9   0  30   83.18   18.71
   9   0  31   -0.83    2.57
  -9   1   0    1.21    6.74
  -9  -1   0   -3.73    6.47
  -9  -1  -1   15.51    9.48
  -9   1   1    3.81    2.44
  -9  -1   1   13.91    8.49
  -9   1  -1   29.26   10.72
  -9  -1   2   53.40   16.81
  -9   1  -2   36.99   12.98
  -9  -1  -2   67.00   16.63
  -9   1   2   27.00    9.63
  -9  -1  -3   25.03    9.10
  -9   1  -3    6.94    6.42
  -9   1   3   20.24   10.95
  -9  -1   3   11.52    8.42
  -9   1   4   45.86   14.54
  -9  -1  -4   22.22   10.66
  -9   1  -4   30.17   11.18
  -9  -1   4   24.32   10.01
  -9  -1  -5   69.91   16.87
  -9   1   5   45.46   12.62
  -9  -1   5   34.96   11.84
  -9   1  -5   68.18   16.65
  -9   1   6  292.86   35.76
  -9  -1  -6  305.52   34.12
  -9  -1   6  324.12   36.86
  -9   1  -6  340.96   36.15
  -9   1   7   -7.55    6.67
  -9  -1   7    5.63    5.12
  -9   1  -7    3.58    5.15
  -9  -1  -7   10.09    8.25
  -9   1   8   -1.74    2.85
  -9  -1  -8   -0.90    3.16
  -9   1  -8   11.74    7.79
  -9  -1   8    0.98    5.26
  -9   1   9    8.88    8.70
  -9  -1   9    8.74    6.14
  -9  -1  -9   11.52    9.23
  -9  -1  10  121.36   23.04
  -9  -1 -10  118.56   21.73
  -9   1  10  115.68   22.50
  -9   1  11   10.61    7.14
  -9  -1  11    6.19    7.16
  -9  -1 -11   13.76    8.06
  -9  -1 -12  168.82   25.58
  -9  -1  12   99.73   20.91
  -9   1  12  167.10   27.34
  -9  -1  13    7.75    9.00
  -9   1  13    2.89    5.55
  -9  -1  14    8.26    7.97
  -9   1  14    5.80    2.44
  -9  -1  15    6.37    6.98
  -9   1  15   18.34   11.22
  -9  -1  16   62.87   16.64
  -9   1  16   51.61   15.62
  -9  -1  17   29.86   13.02
  -9   1  17   18.11   11.22
  -9  -1  18   -1.47    3.61
  -9   1  18    1.93    6.06
  -9  -1  19    9.07    9.08
  -9   1  19   -4.61    6.67
  -9  -1  20    9.93    7.14
   9  -1  20   18.06    8.88
   9   1  20   22.49   10.08
  -9   1  20    4.38    3.33
   9   1  21    2.93    5.43
  -9  -1  21   15.76   11.14
   9  -1  21    3.19    5.26
  -9   1  21    6.32    5.87
  -9  -1  22    5.51    9.18
   9  -1  22    1.83    4.41
   9   1  22    3.18    4.58
  -9   1  22    2.04    6.51
  -9  -1  23   11.18   10.95
   9  -1  23   -3.19    2.74
   9   1  23   -3.01    4.42
  -9   1  23    2.75    5.08
  -9   1  24    7.10    7.43
  -9  -1  24    8.65    8.81
   9  -1  24   19.25   10.01
   9   1  24   10.64    6.40
  -9  -1  25    4.10    6.64
   9  -1  25    2.29    6.26
   9   1  25    0.97    2.61
  -9   1  26    5.38    7.90
  -9  -1  26    5.61    4.55
   9  -1  26    2.54    3.06
   9   1  26    0.39    4.06
  -9   1  27   11.15    7.07
  -9  -1  27   -3.20    5.92
   9  -1  27    3.13    4.21
   9   1  27    8.46    7.83
  -9  -1  28   43.44   15.85
   9   1  28   93.29   20.19
   9  -1  28   73.28   18.33
  -9  -1  29   10.39    9.03
   9  -1  29   27.52   11.30
   9   1  29   14.70    8.45
   9  -1  30    2.45    3.82
   9   1  30   -2.89    5.80
   9   1  31    1.20    3.00
  -9   2   0    7.20    5.39
  -9  -2   0    3.81    3.86
  -9   2   1    5.85    3.54
  -9  -2   1    6.03    8.03
  -9  -2  -1    3.32    2.68
  -9   2  -1    3.22    2.44
  -9   2  -2   52.21   14.16
  -9   2   2   19.71   11.38
  -9  -2   2   30.27   10.97
  -9  -2  -2   40.61   13.47
  -9   2  -3   13.64    6.19
  -9  -2   3   11.50    6.87
  -9  -2  -3    2.18    5.45
  -9   2   3   21.51   11.71
  -9  -2  -4   14.97    8.26
  -9  -2   4   29.15   11.52
  -9   2  -4   18.13    8.03
  -9   2   4   43.05   13.04
  -9   2  -5   95.41   19.20
  -9  -2  -5   72.08   16.99
  -9  -2   5   93.65   20.24
  -9   2   5   73.45   17.13
  -9  -2  -6  132.27   22.64
  -9   2  -6   98.37   20.28
  -9  -2   6   69.65   16.79
  -9   2   6   75.41   17.92
  -9  -2  -7  314.27   34.48
  -9   2   7  302.54   35.57
  -9  -2   7  306.26   36.40
  -9   2   8  234.43   31.23
  -9  -2  -8  267.76   32.20
  -9  -2   8  282.28   34.35
  -9   2   9   60.13   16.28
  -9  -2   9   83.04   18.93
  -9  -2  -9   71.80   16.27
  -9  -2 -10    6.65    5.72
  -9  -2  10   12.97    7.75
  -9   2  10   21.46    9.45
  -9   2  11  145.61   26.62
  -9  -2  11  149.83   26.17
  -9  -2 -11  181.90   26.06
  -9  -2  12   -1.06    2.56
  -9   2  12   13.16    7.72
  -9  -2 -12    6.49    5.85
  -9  -2  13    5.32    6.06
  -9   2  13    1.62    4.07
  -9  -2 -13   -0.59    2.78
  -9   2  14  156.50   27.57
  -9  -2 -14  172.56   25.71
  -9  -2  14  157.12   27.46
  -9   2  15  343.38   40.65
  -9  -2  15  331.47   40.22
  -9  -2  16   80.18   19.97
  -9   2  16   64.01   18.02
  -9  -2  17   17.08    9.79
  -9   2  17   14.93    8.06
  -9  -2  18   40.60   15.17
  -9   2  18   55.66   16.84
  -9  -2  19    3.47    5.97
  -9   2  19    7.02    7.13
   9   2  19   20.98   11.07
   9  -2  19    6.60    5.21
  -9  -2  20   12.03   10.79
  -9   2  20    8.09    8.02
   9  -2  20    7.62    6.48
   9   2  20    4.51    6.07
  -9  -2  21   -2.01    3.61
  -9   2  21   -1.87    5.78
   9  -2  21    2.75    5.80
   9   2  21    5.82    7.06
  -9  -2  22   -1.01    2.84
  -9   2  22    6.18    8.36
   9  -2  22    5.49    4.51
   9   2  22    0.20    2.12
  -9  -2  23   11.95    8.06
  -9   2  23    5.96    7.85
   9  -2  23   18.83   10.55
   9   2  23    6.04    5.03
  -9  -2  24   30.25   14.56
  -9   2  24   39.50   14.02
   9   2  24   77.55   17.98
   9  -2  24   71.80   17.35
  -9  -2  25   16.33   10.04
  -9   2  25    8.60    7.04
   9  -2  25    3.87    5.17
   9   2  25    5.70    4.75
  -9  -2  26   13.38   10.82
  -9   2  26    2.49    3.61
   9  -2  26   12.07    7.24
   9   2  26   20.55    9.81
  -9  -2  27   47.67   16.93
   9  -2  27   34.76   12.57
   9   2  27   43.68   13.26
  -9  -2  28    1.84    7.62
   9  -2  28   -0.38    2.77
   9   2  28   -1.80    3.24
   9   2  29   93.81   19.79
   9  -2  29   63.04   16.31
   9  -2  30   87.98   18.77
   9   2  30   84.95   18.43
   9   2  31   -1.78    4.60
  -9  -3   0    2.57    5.97
  -9   3   0    0.10    4.28
  -9   3  -1   20.86    9.33
  -9  -3   1   28.36   10.30
  -9   3   1   12.59    9.20
  -9  -3  -1   37.18   13.20
  -9   3   2    4.76    5.66
  -9  -3   2    0.47    3.29
  -9   3  -2    5.18    5.77
  -9  -3  -2    5.81    6.33
  -9  -3   3   90.59   20.37
  -9  -3  -3   59.65   15.24
  -9   3   3   56.84   16.71
  -9  -3   4   38.73   12.47
  -9   3   4    8.33    7.32
  -9  -3  -4   28.96   11.44
  -9  -3   5  407.58   41.54
  -9   3   5  337.25   36.88
  -9  -3  -5  333.70   35.65
  -9  -3   6   15.69   11.54
  -9   3   6    2.26    2.51
  -9  -3  -6    4.90    7.66
  -9  -3  -7   71.08   17.22
  -9  -3   7   63.85   16.71
  -9   3   7   43.07   13.56
  -9  -3   8   -3.84    3.54
  -9   3   8   19.21    8.74
  -9  -3  -8    7.90    6.37
  -9   3   9    1.60    3.89
  -9  -3   9    1.30    3.97
  -9  -3  -9   10.78    7.45
  -9  -3  10   13.38    7.95
  -9  -3 -10   32.90   11.41
  -9   3  10   26.89   11.93
  -9  -3 -11  230.45   29.58
  -9   3  11  202.20   30.14
  -9  -3  11  235.68   34.25
  -9  -3 -12   15.99    7.94
  -9   3  12    8.41    3.68
  -9  -3  12   17.30    8.18
  -9  -3 -13    2.51    5.12
  -9   3  13    2.50    5.35
  -9  -3  13   -4.04    3.69
  -9  -3 -14   22.24   11.19
  -9   3  14   30.98   13.05
  -9  -3  14   23.02   12.59
  -9  -3 -15   80.87   17.18
  -9   3  15  123.81   23.93
  -9  -3  15   68.74   18.83
  -9   3  16   32.94   12.64
  -9  -3  16   30.99   12.37
  -9   3  17  218.04   31.54
  -9  -3  17  205.86   31.91
  -9   3  18    0.83    6.14
  -9  -3  18   17.35   10.20
   9   3  19   20.26    9.18
  -9   3  19   12.17    5.79
   9  -3  19    6.06    3.92
  -9  -3  19   30.25   14.24
   9  -3  20   21.87    9.04
  -9   3  20    5.36    7.74
   9   3  20   18.65    8.74
  -9  -3  20   21.57   12.57
  -9  -3  21   30.58   12.76
   9  -3  21   17.42    8.99
   9   3  21   36.19   12.43
  -9   3  21   28.96   12.09
  -9  -3  22    8.83    7.73
   9  -3  22    5.19    4.78
   9   3  22   -3.34    2.57
  -9  -3  23    6.61    7.58
   9  -3  23    3.40    4.43
   9   3  23    0.23    2.89
  -9   3  23   -0.05    3.36
  -9  -3  24    6.09    7.10
   9  -3  24    9.59    6.87
   9   3  24   11.35    7.52
  -9   3  24    4.51    5.38
  -9  -3  25   42.47   16.70
   9  -3  25   28.89   11.37
   9   3  25   23.68   10.78
  -9   3  25   48.13   16.15
  -9   3  26   11.02    9.90
  -9  -3  26    6.11    6.81
   9  -3  26    7.96    5.47
   9   3  26    3.16    4.29
  -9  -3  27  158.21   30.90
   9  -3  27  112.03   22.50
   9   3  27  115.44   22.22
  -9  -3  28    7.01    7.27
   9   3  28    2.65    3.62
  -9  -3  29   49.90   17.75
   9  -3  29   44.93   15.70
   9   3  29   14.38    8.15
  -9  -3  30   -4.49    8.07
   9   3  30    2.86    2.69
   9   3  31    9.70    6.63
  -9  -4   0    2.99    3.05
  -9  -4   1  205.37   29.44
  -9  -4  -1  202.53   28.78
  -9  -4   2    2.43    5.63
  -9   4   2   -0.18    3.12
  -9  -4  -2    7.38    7.84
  -9  -4   3   -4.61    5.93
  -9  -4  -3    1.85    5.13
  -9   4   3    3.76    4.82
  -9  -4   4   24.35   10.24
  -9   4   4   20.92   10.18
  -9  -4  -4   31.86   11.39
  -9  -4  -5  114.75   21.47
  -9   4   5  107.05   20.84
  -9  -4   5   84.25   19.82
  -9  -4   6  162.00   26.53
  -9  -4  -6  148.14   24.07
  -9   4   6  131.14   22.99
  -9  -4   7  491.40   47.21
  -9   4   7  599.79   49.56
  -9  -4  -7  524.16   44.81
  -9  -4   8   90.60   20.36
  -9   4   8  135.55   24.07
  -9  -4  -8  142.06   24.18
  -9  -4   9  370.76   41.24
  -9   4   9  310.06   36.91
  -9  -4  -9  352.08   36.93
  -9  -4 -10   50.08   14.21
  -9   4  10   37.15   12.72
  -9  -4  10   16.12    9.73
  -9  -4 -11 1087.25   64.62
  -9  -4  11 1059.49   71.73
  -9   4  11 1162.58   70.85
  -9  -4 -12   49.77   15.15
  -9   4  12   32.06   12.73
  -9  -4  12   43.88   14.64
  -9  -4 -13   82.05   18.29
  -9   4  13   54.75   15.90
  -9  -4  14  107.80   23.18
  -9  -4 -14  104.41   19.91
  -9   4  14   89.55   20.00
  -9   4  15  109.21   23.50
  -9  -4 -15  151.13   24.28
  -9  -4  15   87.24   21.16
  -9  -4  16  113.55   25.28
  -9   4  16  159.61   27.56
  -9  -4 -16  159.27   24.31
  -9  -4  17  197.32   32.71
  -9   4  17  137.60   25.62
  -9   4  18   39.02   13.49
   9   4  18   65.63   15.76
  -9  -4  18   62.04   18.37
  -9   4  19   -4.11    5.62
   9  -4  19    9.09    7.18
   9   4  19   -1.59    4.10
  -9  -4  19   10.78    8.33
  -9   4  20   38.95   13.63
   9  -4  20   16.42    7.38
   9   4  20    5.59    5.50
  -9  -4  20   23.09   11.91
  -9   4  21   12.69    9.95
   9  -4  21    6.50    5.97
   9   4  21    7.45    5.17
  -9  -4  21   19.42   10.89
  -9   4  22    7.49    5.18
   9  -4  22   18.60    9.01
   9   4  22   29.30   11.02
  -9  -4  22    8.29    8.89
  -9   4  23   24.54   11.63
   9  -4  23   14.01    8.04
   9   4  23   18.91    8.81
  -9  -4  23   29.78   14.13
   9  -4  24    4.85    6.56
   9   4  24   -1.86    3.75
  -9  -4  24    2.12    4.56
   9  -4  25    2.87    5.50
   9   4  25    5.96    5.71
  -9  -4  25    1.08    7.29
  -9   4  25   -9.49    9.17
   9  -4  26   15.80    9.16
   9   4  26   24.52   10.80
  -9  -4  26    8.98    7.99
   9  -4  27    0.53    3.62
   9   4  27   20.81    9.90
  -9  -4  27   11.62   12.24
  -9  -4  28   10.59    9.93
   9  -4  28   27.33   12.29
   9   4  28   24.18   11.47
  -9  -4  29  126.69   29.28
   9   4  29  140.75   24.07
   9  -4  29   85.41   19.58
  -9  -4  30   28.13   15.09
   9   4  30   16.65    8.94
  -9  -4  31  219.12   38.74
   9   4  31  210.56   30.86
  -9  -5   0    4.75    7.58
  -9  -5  -1   35.62   13.63
  -9  -5   1   49.90   15.32
  -9  -5  -2   96.44   19.76
  -9  -5   2   58.22   17.15
  -9  -5  -3   -1.73    6.16
  -9  -5   3    6.36    8.47
  -9  -5   4  138.31   25.28
  -9  -5  -4  112.46   20.73
  -9  -5  -5    3.39    3.70
  -9  -5   5    0.32    4.46
  -9  -5   6  110.11   22.89
  -9  -5  -6   94.31   19.64
  -9  -5  -7    3.71    4.71
  -9  -5   7    2.35    3.36
  -9  -5  -8    7.72    7.23
  -9  -5   8    1.71    3.96
  -9   5   8    3.30    2.70
  -9   5   9   45.52   14.37
  -9  -5  -9   46.22   13.97
  -9  -5   9   43.76   14.94
  -9   5  10   20.91   10.06
  -9  -5 -10   44.18   13.82
  -9  -5 -11   29.24   10.60
  -9   5  11   48.98   14.38
  -9  -5  11   45.25   15.50
  -9  -5 -12    5.58    4.27
  -9   5  12    0.12    5.13
  -9  -5  12    2.86    4.52
  -9   5  13   64.23   16.52
  -9  -5 -13   60.03   15.32
  -9  -5  13   34.61   14.08
  -9   5  14    0.74    2.89
  -9  -5  14   -7.51    7.67
  -9  -5 -14    1.29    2.23
  -9  -5 -15   14.07    8.70
  -9  -5  15   36.88   14.42
  -9   5  15   16.71    9.93
  -9  -5 -16   28.68    9.52
  -9  -5  16   45.26   16.03
  -9   5  16   50.42   15.87
  -9  -5 -17   26.86   10.68
  -9  -5  17   40.48   14.58
  -9   5  17   37.14   13.22
  -9  -5 -18   47.17   13.46
   9  -5  18   83.84   18.20
  -9  -5  18   64.93   19.22
   9   5  18   66.12   15.21
  -9   5  18   65.24   17.38
  -9  -5  19   -8.08    7.87
   9  -5  19   -2.15    3.38
   9   5  19   -3.37    4.34
  -9   5  20   43.98   15.61
   9   5  20   55.84   14.47
  -9  -5  20   83.12   22.07
   9  -5  20   51.34   14.33
  -9   5  21    6.68    5.37
  -9  -5  21    4.52    3.97
   9  -5  21   -4.52    5.55
   9   5  21    3.48    7.23
  -9   5  22    3.56    4.25
  -9  -5  22   -9.69    9.45
   9  -5  22   -3.26    3.86
   9   5  22    6.01    6.08
  -9   5  23    2.53    5.91
  -9  -5  23    8.99    9.46
   9  -5  23    9.60    5.92
   9   5  23    9.93    7.09
  -9   5  24   20.75   10.95
  -9  -5  24   28.98   13.44
   9  -5  24   14.53    7.61
   9   5  24   26.82    9.84
   9  -5  25    2.65    4.23
   9   5  25    7.63    6.94
  -9  -5  26   11.30    9.36
   9  -5  26    0.67    2.58
   9   5  26   11.24    8.01
  -9  -5  27   19.66   10.42
   9  -5  27   22.66   10.02
   9   5  27   35.66   13.17
  -9  -5  28   40.40   17.53
   9  -5  28   23.83   11.17
   9   5  28   12.55    7.89
  -9  -5  29   16.70   11.93
   9   5  29    2.91    2.98
  -9  -5  30   13.13   13.02
   9   5  30    9.83    7.89
  -9  -5  31   23.44   12.61
   9   5  31    7.27    6.68
  -9  -6   0    7.43    8.71
  -9  -6   1   28.58   10.30
  -9  -6  -1   40.13   13.55
  -9  -6   2   16.23    8.95
  -9  -6  -2   19.76    9.55
  -9  -6   3  243.43   33.16
  -9  -6  -3  251.60   32.60
  -9  -6   4  113.80   22.07
  -9  -6  -4  102.91   21.12
  -9  -6  -5    5.98    7.23
  -9  -6   5    1.95    3.58
  -9  -6  -6   12.35    8.48
  -9  -6   6   -4.00    4.82
  -9  -6   7  103.05   22.57
  -9  -6  -7   97.77   19.79
  -9  -6  -8    9.99    7.34
  -9  -6   8    6.22    5.69
  -9  -6   9  206.30   33.43
  -9  -6  -9  199.27   27.61
  -9  -6  10  193.38   30.85
  -9  -6 -10  188.76   27.15
  -9  -6  11  101.30   22.36
  -9  -6 -11   87.42   17.96
  -9  -6  12   99.58   22.35
  -9  -6 -12  120.03   22.13
  -9  -6 -13   30.43   11.19
  -9  -6  13   51.75   17.00
  -9  -6 -14   38.81   13.62
  -9  -6  14   17.87   11.70
  -9  -6  15  138.59   26.68
  -9  -6 -15  137.49   22.45
  -9  -6 -16   -0.17    3.19
  -9  -6  16    3.82    5.59
  -9  -6 -17   87.84   18.05
   9   6  17   64.36   15.05
  -9  -6  17   71.77   18.96
  -9  -6  18   11.29   11.37
   9  -6  18    1.30    4.04
   9   6  18   22.83    9.44
  -9  -6  19   73.08   20.76
   9  -6  19   40.46   13.39
   9   6  19   59.88   14.79
  -9  -6  20   13.99    9.77
   9  -6  20   14.07    9.16
   9   6  20    1.31    2.58
  -9  -6  21    6.11    6.99
   9  -6  21   17.19    8.65
   9   6  21   13.13    6.39
  -9  -6  22    7.59   10.77
   9  -6  22   -2.99    4.10
   9   6  22   -5.00    5.28
  -9  -6  23    3.33    6.09
   9  -6  23    6.59    5.26
   9   6  23   -4.44    5.64
  -9  -6  24   -3.66    5.98
   9  -6  24    3.12    7.23
   9   6  24   -0.49    2.47
  -9  -6  25  151.71   31.14
   9  -6  25  134.85   23.53
   9   6  25  116.22   21.24
  -9  -6  26    3.51    8.21
   9  -6  26    5.67    5.69
   9   6  26    3.81    5.87
  -9  -6  27    8.02   11.60
   9  -6  27   12.10    8.26
   9   6  27   -1.88    3.23
  -9  -6  28    8.24    5.97
   9  -6  28   -0.16    5.80
   9   6  28    6.12    7.42
  -9  -6  29   36.20   16.97
   9   6  29   39.06   13.99
  -9  -6  30   14.92   13.11
   9   6  30   13.66    9.52
  -9  -6  31   -6.41    7.21
  -9  -7   0   11.95    7.86
  -9  -7   1   30.85   12.51
  -9  -7  -1   22.54   10.68
  -9  -7   2   41.73   13.64
  -9  -7  -2    3.86    4.78
  -9  -7   3   19.01    9.13
  -9  -7  -3   25.80   10.76
  -9  -7  -4   98.49   20.66
  -9  -7   4   62.97   16.56
  -9  -7  -5   23.55   10.18
  -9  -7   5    7.81    5.57
  -9  -7   6   90.21   21.48
  -9  -7  -6  117.15   22.77
  -9  -7  -7   23.70   10.19
  -9  -7   7   17.93   10.23
  -9  -7  -8    7.74    6.33
  -9  -7   8   10.07    9.14
  -9  -7  -9   45.23   12.99
  -9  -7   9   73.32   19.62
  -9  -7  10  184.54   31.06
  -9  -7 -10  197.25   27.48
  -9  -7 -11   39.92   12.19
  -9  -7  11   79.23   21.12
  -9  -7  12  213.29   34.09
  -9  -7 -12  142.13   23.86
  -9  -7  13    6.89    7.91
  -9  -7 -13    1.66    3.52
  -9  -7 -14   10.27    6.82
  -9  -7  14    9.83    8.52
  -9  -7 -15   48.02   14.29
  -9  -7  15   23.21   13.72
   9   7  16   51.29   13.59
  -9  -7  16   61.25   19.32
  -9  -7 -16   31.17   11.82
  -9  -7  17   63.95   20.50
   9  -7  17   42.52   12.87
   9   7  17   46.24   12.19
  -9  -7  18   10.59   11.70
   9  -7  18    8.46    6.16
   9   7  18    5.23    4.86
  -9  -7  19   12.25    6.40
   9  -7  19   11.85    6.47
   9   7  19    4.91    4.27
  -9  -7  20   -1.03    5.52
   9  -7  20    7.20    6.35
   9   7  20   -1.37    1.92
  -9  -7  21   11.08   10.18
   9  -7  21   10.96    8.50
   9   7  21    2.93    4.56
  -9  -7  22   17.27   12.37
   9  -7  22   15.33    8.67
   9   7  22    3.52    5.39
  -9  -7  23   -2.47    4.41
   9  -7  23   -1.06    3.65
   9   7  23    3.48    4.30
  -9  -7  24   -5.33    4.49
   9  -7  24   -1.01    3.85
   9   7  24    5.40    5.23
  -9  -7  25    3.03    4.82
   9  -7  25    8.85    7.81
   9   7  25    3.46    3.30
  -9  -7  26    7.27    7.91
   9  -7  26   -4.72    4.83
   9   7  26   10.93    7.56
  -9  -7  27   12.98    7.58
   9  -7  27   34.53   12.40
   9   7  27   37.21   11.49
  -9  -7  28   20.98    9.91
  -9  -7  29    6.57    7.33
  -9  -8   0   -1.58    3.88
  -9  -8   1   18.95    9.88
  -9  -8  -1   45.36   14.69
  -9  -8   2   12.88    8.22
  -9  -8  -2   24.36   11.22
  -9  -8   3   24.55   12.00
  -9  -8  -3   29.17   12.33
  -9  -8   4   21.57   11.69
  -9  -8  -4   40.76   14.66
  -9  -8   5  141.28   27.61
  -9  -8  -5  128.56   23.68
  -9  -8   6   12.06   10.66
  -9  -8  -6   -2.12    2.88
  -9  -8   7  195.54   32.02
  -9  -8  -7  166.25   26.88
  -9  -8  -8   -5.95    7.39
  -9  -8   8   -1.23    5.70
  -9  -8  -9   48.91   14.74
  -9  -8   9   47.69   17.52
  -9  -8 -10   46.58   13.81
  -9  -8  10   73.33   21.00
  -9  -8 -11    4.77    4.67
  -9  -8  11   -1.20    3.06
  -9  -8 -12   23.95   11.65
  -9  -8  12   10.26    8.28
  -9  -8  13   15.27    9.66
  -9  -8 -13   24.09   10.34
  -9  -8  14   19.80   11.48
  -9  -8 -14   18.57    9.08
  -9  -8  15  192.29   33.43
   9   8  15  255.48   29.86
  -9  -8 -15  228.78   30.65
   9  -8  16   15.29    7.15
   9   8  16   12.94    7.78
  -9  -8  17   61.43   19.65
   9  -8  17   75.28   17.69
   9   8  17   56.49   13.26
  -9  -8  18    8.46    7.29
   9  -8  18   10.80    5.16
   9   8  18   17.28    7.47
  -9  -8  19   23.68   13.90
   9  -8  19   18.35    8.82
   9   8  19   22.92    9.17
  -9  -8  20   -4.80    6.39
   9   8  20    3.41    2.48
  -9  -8  21    7.54    8.94
   9  -8  21    7.02    4.88
   9   8  21   21.61    8.78
  -9  -8  22   -6.46    6.66
   9  -8  22   11.28    7.24
   9   8  22    1.41    3.23
  -9  -8  23    6.11    6.04
   9  -8  23    5.12    6.42
  -9  -8  24    5.80    6.52
   9  -8  24    9.65    7.39
  -9  -8  25   29.99   14.07
   9  -8  25   31.32   11.80
  -9  -8  26    1.47    6.93
   9  -8  26    6.37    4.87
  -9  -8  27   11.35   11.12
  -9  -8  28  -10.99   12.28
  -9  -9   0    8.59    7.12
  -9  -9   1    2.58    5.45
  -9  -9  -1    7.23    6.87
  -9  -9   2    9.55    9.83
  -9  -9  -2    7.35    8.79
  -9  -9   3   -1.01    4.75
  -9  -9  -3   34.94   14.63
  -9  -9  -4   37.53   14.15
  -9  -9   4   87.55   21.54
  -9  -9   5   28.41   11.86
  -9  -9  -5   54.12   15.59
  -9  -9   6   15.88   10.81
  -9  -9  -6    4.80    5.69
  -9  -9   7    3.49    4.05
  -9  -9  -7   25.14   10.28
  -9  -9   8   27.67   12.46
  -9  -9  -8   38.24   12.88
  -9  -9  -9   30.15   11.77
  -9  -9   9   14.14    5.68
  -9  -9  10  150.08   28.94
  -9  -9 -10  114.66   22.32
  -9  -9 -11   12.79    9.21
  -9  -9  11   -0.54    3.94
  -9  -9  12  190.93   33.68
  -9  -9 -12  201.91   28.88
  -9  -9  13   56.34   19.42
  -9  -9 -13   43.94   14.02
  -9  -9  14   59.16   18.23
   9   9  14   60.15   14.03
  -9  -9  15   12.85   11.15
   9  -9  15    9.92    7.04
   9   9  15   -0.60    3.30
  -9  -9  16   63.25   19.52
   9  -9  16   64.12   16.32
   9   9  16   61.22   13.30
  -9  -9  17   25.93   13.76
   9  -9  17   36.29   11.62
  -9  -9  18   20.61   14.27
   9  -9  18   30.32   12.47
  -9  -9  19    0.28    4.56
   9  -9  19    2.84    5.23
  -9  -9  20    3.98    6.57
   9  -9  20   -3.86    4.18
  -9  -9  21    0.12    6.45
   9  -9  21    3.17    6.96
  -9  -9  22   13.15   12.20
   9  -9  22   14.13    9.26
  -9  -9  23    8.64    9.43
   9  -9  23   -6.20    5.84
  -9  -9  24   11.38    9.92
   9  -9  24    1.79    4.45
  -9  -9  25   15.90   11.40
   9  -9  25   14.63    9.74
  -9 -10   0    5.53    5.45
  -9 -10   1   -1.12    5.91
  -9 -10  -1   -6.96    7.38
  -9 -10   2   15.49   10.33
  -9 -10  -2   22.88   11.12
  -9 -10   3    5.27    5.73
  -9 -10  -3   -5.41    6.82
  -9 -10   4    8.20    9.59
  -9 -10  -4    6.31    4.99
  -9 -10   5   22.12   11.87
  -9 -10  -5    2.80    4.05
  -9 -10   6    4.28    8.77
  -9 -10  -6   43.95   14.60
  -9 -10   7   17.58    9.51
  -9 -10  -7   10.95    7.62
  -9 -10   8  122.14   25.83
  -9 -10  -8  142.25   25.76
  -9 -10   9   58.04   18.22
  -9 -10  -9   77.43   19.12
  -9 -10 -10   80.29   19.48
  -9 -10  10   96.38   23.38
  -9 -10  11  193.58   33.63
  -9 -10 -11  169.79   27.56
  -9 -10 -12   35.41   11.96
  -9 -10  12   62.65   19.27
  -9 -10  13  165.09   31.61
  -9 -10  14   64.57   21.15
   9 -10  14   52.53   15.91
  -9 -10  15    6.20    7.36
   9 -10  15    3.23    7.18
  -9 -10  16   27.89   13.48
   9 -10  16   -0.47    3.86
  -9 -10  17    2.77    7.53
   9 -10  17    9.94    7.10
  -9 -10  18   21.16   11.64
   9 -10  18   60.48   16.24
  -9 -10  19   12.52    8.61
   9 -10  19    0.29    3.38
  -9 -10  20    3.34    8.69
   9 -10  20    5.93    5.75
  -9 -10  21    7.98    8.41
   9 -10  21    5.77    5.14
  -9 -10  22    6.01    9.17
   9 -10  22   17.81    8.60
  -9 -10  23   24.07   15.63
   9 -10  23   29.80   12.51
   9 -10  24    8.20    6.25
  -9 -11   0    9.18    7.41
  -9 -11   1   -2.42    6.98
  -9 -11  -1    6.93    7.17
  -9 -11   2   -1.79    3.73
  -9 -11  -2    3.12    9.61
  -9 -11   3   43.94   16.76
  -9 -11  -3    7.97    7.07
  -9 -11   4    2.12    5.01
  -9 -11  -4    2.90    3.28
  -9 -11   5   39.24   15.11
  -9 -11  -5   69.74   18.61
  -9 -11   6   10.07   10.10
  -9 -11  -6    9.77    8.84
  -9 -11   7   -1.94    5.76
  -9 -11  -7   -6.20    7.09
  -9 -11   8   14.50    9.21
  -9 -11  -8   -3.91    4.33
  -9 -11   9   -3.69    3.32
  -9 -11  -9   10.52    9.44
  -9 -11  10   66.77   19.87
  -9 -11 -10   82.45   21.24
  -9 -11 -11   89.69   20.50
  -9 -11  11   91.78   23.35
  -9 -11  12   39.92   16.30
   9 -11  13    6.26    5.80
  -9 -11  13   11.43    8.06
  -9 -11  14    4.79    6.58
   9 -11  14   12.46    8.03
  -9 -11  15    5.38    6.84
   9 -11  15    4.14    3.65
  -9 -11  16   38.28   16.51
   9 -11  16    7.45    8.13
  -9 -11  17   53.10   18.79
   9 -11  17   36.39   12.61
  -9 -11  18   19.14   13.91
   9 -11  18   10.21    7.74
  -9 -11  19   -0.67    4.32
   9 -11  19    0.49    5.82
  -9 -11  20    3.21    6.27
   9 -11  20   21.62   10.18
  -9 -11  21    4.77    8.82
   9 -11  21    2.27    2.89
   9 -11  22    4.95    5.96
   9 -11  23   10.66    6.12
  -9 -12   0   12.47   10.88
  -9 -12   1   -0.88    4.52
  -9 -12  -1   -4.35    4.97
  -9 -12   2    5.45    5.25
  -9 -12  -2   15.33    8.98
  -9 -12  -3  143.68   27.79
  -9 -12   3   97.16   23.66
  -9 -12   4   13.29   10.21
  -9 -12  -4    5.02    6.94
  -9 -12   5  157.00   29.13
  -9 -12  -5  200.31   32.13
  -9 -12   6   37.36   14.22
  -9 -12  -6   58.68   18.12
  -9 -12   7   22.25   12.16
  -9 -12  -7   51.22   16.70
  -9 -12   8   59.89   19.58
  -9 -12  -8   55.67   17.68
  -9 -12   9   82.34   22.05
  -9 -12  -9   58.83   19.35
  -9 -12  10   11.06    6.62
  -9 -12 -10   11.16    8.60
  -9 -12  11   34.09   15.21
   9 -12  11   21.34   10.78
  -9 -12  12    1.89    5.60
   9 -12  12    2.44    5.01
  -9 -12  13   96.17   25.31
   9 -12  13   70.00   17.47
  -9 -12  14    1.73    4.87
   9 -12  14   16.84    8.47
  -9 -12  15  111.23   27.22
   9 -12  15   56.79   15.42
  -9 -12  16   46.35   17.55
   9 -12  16   67.17   16.74
  -9 -12  17   19.87   11.57
   9 -12  17   13.59    7.70
  -9 -12  18    2.66    4.93
   9 -12  18   23.56   11.24
   9 -12  19   69.25   17.11
   9 -12  20    1.20    3.19
   9 -12  21   25.05   11.74
   9 -12  22   10.86    6.76
  -9 -13   0   -7.93    9.23
  -9 -13   1    5.60    9.08
  -9 -13  -1   18.11    9.70
  -9 -13   2    9.81    8.94
  -9 -13  -2   28.87   14.00
  -9 -13   3   -1.19    3.44
  -9 -13  -3    6.84    7.14
  -9 -13   4    6.33    7.43
  -9 -13  -4   -1.81    3.17
  -9 -13   5   54.32   19.03
  -9 -13  -5   60.59   18.85
  -9 -13   6   24.82   12.43
  -9 -13  -6   17.62   10.14
  -9 -13   7   27.75   12.94
  -9 -13  -7   22.96   10.21
  -9 -13   8   44.04   17.35
  -9 -13  -8   52.94   17.61
  -9 -13   9   18.39   13.47
   9 -13   9    1.79    4.07
  -9 -13  10   52.36   16.97
   9 -13  10   71.99   17.64
  -9 -13  11   37.27   16.96
   9 -13  11   78.92   17.66
  -9 -13  12    0.53    3.89
   9 -13  12   27.27   10.08
  -9 -13  13   18.22   14.40
   9 -13  13   19.18    9.49
  -9 -13  14   26.66   12.46
   9 -13  14   24.50   10.62
  -9 -13  15   55.27   18.78
   9 -13  15   41.53   13.00
   9 -13  16    4.46    5.15
   9 -13  17    0.91    4.07
   9 -13  18   -1.49    2.58
   9 -13  19    7.36    7.32
   9 -13  20    6.38    6.30
  -9 -14   0    7.84   11.16
  -9 -14   1   21.31   11.89
  -9 -14  -1   11.89    7.59
  -9 -14   2    6.33    5.89
  -9 -14  -2    3.60    5.74
  -9 -14   3   16.88   11.71
  -9 -14  -3   15.55   12.03
  -9 -14   4   99.24   24.74
  -9 -14  -4   93.28   23.30
  -9 -14   5   63.33   19.77
  -9 -14  -5   59.10   17.77
  -9 -14   6   16.30   10.15
  -9 -14  -6   45.52   17.13
  -9 -14   7    8.04    7.78
  -9 -14  -7    6.68    7.70
  -9 -14   8   40.54   16.39
  -9 -14   9   14.50   11.65
  -9 -14  10  107.93   27.61
  -9 -14  11  346.43   48.99
  -9 -15   0    7.96    7.23
  -9 -15   1   -7.17    7.81
  -9 -15  -1   -7.35    8.72
  -9 -15   2   -0.34    5.30
  -9 -15  -2   -3.02    3.90
  -9 -15   3   10.48   10.04
  -9 -15  -3    2.07    5.21
  -9 -15   4    9.87   10.89
  -9 -15  -4    7.26    8.61
  -9 -15   5   12.20   11.31
  -9 -15  -5   33.93   15.26
  -9 -15   6   21.99   14.89
  -9 -16   0    2.12    5.91
  -9 -16   1   -5.20    6.87
  -9 -16  -1  -14.72   10.57
  -9 -16  -2    6.56    9.63
  -9 -16  -3   21.88   14.81
 -10   0   0  744.27   58.19
 -10   0   1   11.04   11.07
 -10   0  -1   20.92   11.54
 -10   0   2  672.48   54.88
 -10   0  -2  588.69   51.01
 -10   0   3   16.44   10.88
 -10   0  -3    6.92    5.45
 -10   0   4  114.28   22.61
 -10   0  -4  123.30   23.11
 -10   0   5   -2.95    2.68
 -10   0  -5   12.42    9.27
 -10   0   6    1.76    2.07
 -10   0  -6   23.71   11.20
 -10   0  -7    6.07    4.91
 -10   0   7   -1.98    3.95
 -10   0  -8   11.56    8.59
 -10   0   8   -0.34    2.39
 -10   0  -9    2.14    5.17
 -10   0   9   -1.64    3.93
 -10   0 -10   10.66    8.95
 -10   0  10   -0.75    3.65
 -10   0  11   -3.30    7.14
 -10   0  12   43.16   16.19
 -10   0  13    2.35    5.49
 -10   0  14   11.80    9.41
 -10   0  15   -4.89    3.13
 -10   0  16   36.23   14.76
 -10   0  17    8.84    7.80
 -10   0  18  175.57   31.12
 -10   0  19    5.44    6.91
  10   0  20  411.38   41.83
 -10   0  20  452.10   51.61
  10   0  21   -1.25    2.48
 -10   0  21    6.58   10.00
  10   0  22  193.03   28.63
 -10   0  22  238.21   37.57
  10   0  23   -0.52    5.46
 -10   0  23   -0.27    4.68
  10   0  24  197.73   29.61
 -10   0  24  232.45   37.87
  10   0  25   12.19    9.63
 -10   0  25    1.68    5.92
  10   0  26   98.54   20.56
 -10   0  26   74.41   21.96
  10   0  27    6.11    6.45
 -10   0  27    3.30    4.36
 -10   0  28   -1.30    7.27
  10   0  28   -2.61    4.04
  10   0  29    3.05    4.43
 -10  -1   0   21.51   11.27
 -10   1   0   18.07    9.15
 -10   1  -1    2.46    2.36
 -10  -1  -1   -1.08    2.40
 -10   1   1   -4.62    4.03
 -10   1  -2    1.35    2.77
 -10  -1  -2    3.97    4.35
 -10   1   2    6.63    6.38
 -10  -1   2    8.99    7.11
 -10  -1  -3    4.84    7.47
 -10   1  -3   11.54    9.61
 -10   1   3   16.94    8.48
 -10  -1   3   -3.81    5.84
 -10   1   4   17.10   11.29
 -10  -1  -4   28.40   11.76
 -10   1  -4    6.16    5.98
 -10  -1   4   16.55   10.28
 -10   1  -5   21.14    9.72
 -10   1   5   42.03   15.04
 -10  -1  -5   17.73    8.11
 -10  -1   5   11.16   12.78
 -10   1   6    0.87    6.27
 -10   1  -6   -1.66    3.47
 -10  -1   6   -0.51    4.82
 -10  -1  -6    0.34    4.80
 -10  -1  -7   14.67    8.51
 -10   1  -7   14.62    8.80
 -10   1   7   14.76    8.72
 -10  -1   7   16.64   11.14
 -10   1   8   62.74   16.80
 -10  -1  -8   75.34   18.86
 -10  -1   8   82.09   18.53
 -10   1  -8   55.27   15.98
 -10   1   9  165.04   29.38
 -10  -1  -9  102.62   20.87
 -10  -1   9  117.74   24.45
 -10   1  10  118.82   24.75
 -10  -1 -10  145.78   24.95
 -10  -1  10  148.11   26.32
 -10   1  11    7.42    7.15
 -10  -1  11    2.46    4.37
 -10  -1 -12   62.18   16.61
 -10   1  12   67.44   18.69
 -10  -1  12   53.45   16.68
 -10   1  13   21.51   13.08
 -10  -1  13   15.33   11.47
 -10   1  14  139.45   27.37
 -10  -1  14   89.96   21.37
 -10   1  15    0.33    4.76
 -10  -1  15    1.04    7.07
 -10   1  16   12.15    9.92
 -10  -1  16    4.82    7.44
 -10   1  17   -1.76    6.44
 -10  -1  17    4.46    6.98
 -10   1  18    2.39    3.29
 -10  -1  18   -6.87    8.74
 -10   1  19    5.83    2.87
 -10  -1  19   17.87   10.69
 -10   1  20    0.52    5.16
 -10  -1  20    6.18    7.83
  10  -1  20   10.50    7.29
  10   1  20   -4.26    2.92
 -10   1  21  -10.64    7.88
 -10  -1  21   -8.22    9.66
  10  -1  21    5.80    7.64
  10   1  21   -6.90    6.07
 -10   1  22   -5.63    9.85
 -10  -1  22   -4.13    6.02
  10  -1  22   -2.05    4.32
  10   1  22   -4.45    5.67
 -10   1  23   26.39   11.26
 -10  -1  23   19.23   10.91
  10  -1  23   34.71   12.16
  10   1  23   36.12   12.25
 -10   1  24   11.12   10.92
  10  -1  24   12.46    7.99
  10   1  24    1.48    3.05
 -10   1  25    3.42    6.47
 -10  -1  25    4.48    8.01
  10  -1  25    5.74    5.53
  10   1  25   -1.80    4.36
 -10   1  26   -0.75    4.35
 -10  -1  26   13.56   11.76
  10  -1  26    2.78    5.70
  10   1  26    4.73    5.67
 -10   1  27   26.87   13.16
 -10  -1  27   24.79   15.00
  10  -1  27    6.78    6.45
  10   1  27    4.41    2.85
 -10  -1  28    6.36    7.99
  10  -1  28    7.24   10.05
  10   1  28    2.57    4.03
 -10  -1  29  -11.28   11.59
  10   1  29    3.69    6.11
 -10   2   0  106.69   21.64
 -10  -2   0  110.89   22.49
 -10   2   1   64.16   16.97
 -10   2  -1   98.40   20.88
 -10  -2   1   61.15   17.31
 -10  -2  -1   77.30   18.48
 -10  -2  -2    0.59    4.26
 -10   2  -2    8.61    7.74
 -10   2   2    1.86    3.24
 -10  -2   2    1.47    2.42
 -10  -2  -3   66.17   18.11
 -10   2   3   34.47   11.82
 -10   2  -3   45.41   13.08
 -10  -2   3   69.66   17.79
 -10  -2  -4   80.53   19.27
 -10   2   4  115.44   23.48
 -10  -2   4   87.80   20.24
 -10   2  -4   78.49   19.66
 -10   2  -5   64.49   17.80
 -10  -2  -5   18.97    9.84
 -10  -2   5   64.01   18.12
 -10   2   5   40.87   14.23
 -10  -2   6   -3.80    6.83
 -10  -2  -6   -2.37    5.80
 -10   2   6    6.29    7.13
 -10  -2   7   23.70   10.08
 -10  -2  -7   10.41    7.88
 -10   2   7   23.66   12.11
 -10  -2   8    9.42    7.19
 -10   2   8   27.36   12.48
 -10  -2  -8   17.25   10.23
 -10  -2  -9   10.32    7.86
 -10  -2   9    5.25    3.66
 -10   2   9    1.11    3.41
 -10   2  10  152.44   28.30
 -10  -2 -10  129.91   23.55
 -10  -2  10  135.23   26.04
 -10  -2  11   10.40    9.08
 -10   2  11   12.29    8.11
 -10  -2 -11   10.31    6.86
 -10  -2 -12   27.76   11.86
 -10  -2  12   33.73   12.86
 -10   2  12   19.25    9.91
 -10  -2  13  -12.07    9.82
 -10   2  13   -0.45    6.94
 -10  -2 -13    6.69    7.57
 -10  -2  14   48.85   16.31
 -10   2  14   58.19   18.43
 -10  -2 -14   50.51   14.82
 -10  -2  15    1.21    7.58
 -10   2  15   12.20    7.96
 -10  -2  16   16.21    6.83
 -10   2  16   14.11    8.63
 -10  -2  17   40.63   15.08
 -10   2  17   72.62   19.90
 -10  -2  18    9.57    8.69
 -10   2  18    5.36    8.32
 -10  -2  19   11.18    6.07
 -10   2  19   -2.90    7.59
 -10  -2  20    2.26    6.41
 -10   2  20   -1.37    4.42
  10   2  20   -1.59    3.07
  10  -2  20   12.69    8.54
 -10  -2  21   23.83   13.49
 -10   2  21    5.78    5.63
  10  -2  21   35.69   13.27
 -10  -2  22   23.90   11.79
 -10   2  22   39.69   16.75
  10  -2  22   39.64   13.35
  10   2  22   32.19   12.41
 -10  -2  23   -1.98    5.66
 -10   2  23   16.58   12.03
  10  -2  23    2.84    4.73
  10   2  23    7.58    5.85
 -10  -2  24    4.03    6.79
 -10   2  24   18.40   10.45
  10  -2  24   17.56    9.04
  10   2  24   18.82   10.18
 -10  -2  25    2.73    3.94
 -10   2  25   28.57   12.42
  10  -2  25   19.52   10.26
  10   2  25   19.36   10.17
 -10  -2  26   63.32   21.79
 -10   2  26   57.75   19.63
  10  -2  26   57.29   15.61
  10   2  26   75.41   18.33
 -10  -2  27   -0.06    5.35
  10  -2  27   22.88    9.88
  10   2  27   14.63    8.06
 -10  -2  28   -0.59    4.76
  10  -2  28   -0.88    3.40
  10   2  28    1.11    5.48
 -10  -2  29   48.61   18.55
  10   2  29   60.76   16.64
 -10  -3   0    4.28    5.10
 -10   3   0   17.04   10.17
 -10  -3   1   16.67   10.79
 -10   3   1   20.82    9.69
 -10   3  -1   41.93   13.34
 -10  -3  -1   33.97   13.13
 -10   3   2   20.15    8.09
 -10  -3   2   18.59    8.21
 -10  -3  -2    9.19    9.23
 -10   3  -2   14.86    8.50
 -10   3   3    5.42    5.59
 -10  -3   3   -2.28    7.58
 -10  -3  -3   -0.20    7.22
 -10  -3   4   15.50    7.67
 -10   3   4   10.42    6.02
 -10  -3  -4    5.05    3.06
 -10  -3  -5   -0.31    2.55
 -10  -3   5   -5.83    5.49
 -10   3   5    5.70    7.62
 -10  -3  -6   12.79    7.43
 -10  -3   6   13.71    8.91
 -10   3   6    5.38    5.70
 -10  -3   7   11.75    9.22
 -10  -3  -7    4.54    5.38
 -10   3   7    5.90    7.23
 -10  -3  -8  149.64   25.57
 -10   3   8  108.65   22.06
 -10  -3   8  142.92   26.86
 -10  -3   9    1.88    6.70
 -10   3   9   -1.80    2.63
 -10   3  10   51.55   15.30
 -10  -3  10   71.90   19.87
 -10  -3 -10   60.77   16.47
 -10  -3 -11   -0.88    3.35
 -10  -3  11    3.66    5.21
 -10   3  12   51.52   15.22
 -10  -3  12   39.65   14.12
 -10  -3 -12   31.66   11.92
 -10  -3  13    4.84    4.48
 -10  -3 -13   11.36    8.28
 -10   3  13   21.57   11.45
 -10  -3  14   14.08   11.87
 -10  -3 -14    3.50    6.71
 -10   3  14    2.30    5.07
 -10  -3  15   -1.04    4.29
 -10  -3 -15    6.23    6.76
 -10   3  15    1.92    4.00
 -10  -3  16   25.25   13.87
 -10   3  16    7.98    4.25
 -10  -3  17   -2.04    4.27
 -10   3  17   12.37    9.18
 -10  -3  18   96.90   24.74
 -10   3  18   86.72   22.12
 -10  -3  19   23.39   12.64
 -10   3  19    9.20    9.86
 -10  -3  20    5.63    5.91
  10  -3  20    6.37    6.50
  10   3  20    2.00    5.82
 -10   3  20   10.11    9.03
 -10  -3  21    8.64   10.72
  10  -3  21    8.53    7.26
  10   3  21   10.79    7.42
 -10   3  21    2.33    4.07
 -10   3  22    1.58    5.99
 -10  -3  22    0.55    4.27
  10  -3  22   11.68    6.38
  10   3  22   16.44   10.16
 -10   3  23   17.52   11.32
 -10  -3  23   14.44   10.58
  10  -3  23    4.34    6.98
  10   3  23    4.71    2.57
 -10   3  24    5.17    4.43
 -10  -3  24   -5.39    8.66
  10  -3  24    3.79    3.45
  10   3  24   -6.06    6.00
 -10   3  25   14.26   11.77
 -10  -3  25    3.64    6.70
  10  -3  25    9.02    7.31
  10   3  25   -0.78    2.46
 -10  -3  26   38.07   16.61
  10  -3  26   61.84   16.26
  10   3  26   55.73   15.76
  10  -3  27   -1.47    2.90
  10   3  27   -5.68    5.63
 -10  -3  28   17.75   11.78
  10   3  28   -7.34    6.56
 -10  -3  29    6.57   10.56
  10   3  29    7.71    6.08
 -10  -3  30   -8.59    6.71
 -10  -4   0   45.88   14.36
 -10  -4   1  237.03   33.18
 -10  -4  -1  282.01   36.15
 -10   4   2  142.01   25.73
 -10  -4   2  110.94   22.52
 -10  -4  -2  162.52   27.62
 -10   4   3  401.53   42.43
 -10  -4   3  384.36   42.71
 -10  -4  -3  447.08   45.00
 -10   4   4  134.55   25.38
 -10  -4   4   98.59   21.72
 -10  -4  -4  137.62   24.59
 -10  -4   5  159.35   27.69
 -10  -4  -5  108.34   21.36
 -10   4   5  173.70   28.55
 -10  -4   6   67.61   18.79
 -10   4   6   77.96   19.79
 -10  -4  -6   70.61   18.23
 -10  -4   7   17.60   10.76
 -10   4   7   -3.48    3.52
 -10  -4  -7   12.16    7.73
 -10  -4   8   -1.85    6.43
 -10  -4  -8    6.78    7.57
 -10   4   8   -7.58    8.56
 -10  -4   9    3.33    8.17
 -10   4   9   -3.98    3.69
 -10  -4  -9    5.95    8.05
 -10  -4  10   -1.67    2.61
 -10   4  10    6.48    4.95
 -10  -4 -10   -1.12    3.52
 -10  -4  11   90.33   22.94
 -10  -4 -11   93.51   20.31
 -10   4  11   78.26   19.97
 -10  -4  12   76.01   20.41
 -10   4  12  105.81   23.61
 -10  -4 -12   83.47   18.24
 -10  -4  13   17.74   10.91
 -10  -4 -13    6.69    6.74
 -10   4  13    4.17    6.39
 -10  -4  14    8.98    9.28
 -10  -4 -14    5.00    5.27
 -10   4  14    4.78    6.57
 -10  -4  15  164.86   30.90
 -10   4  15  114.29   24.19
 -10  -4 -15  164.29   26.05
 -10   4  16   22.57   11.35
 -10  -4 -16   15.10    8.51
 -10  -4  16   24.69   12.05
 -10   4  17   46.41   15.71
 -10  -4  17   26.88   13.74
 -10  -4  18  115.37   26.28
 -10   4  18   76.83   20.55
 -10  -4  19  212.04   35.94
 -10   4  19  328.77   42.54
  10   4  19  261.93   33.37
 -10  -4  20   48.03   18.60
 -10   4  20   31.11   13.00
  10   4  20   55.35   14.52
  10  -4  20   69.60   17.58
 -10  -4  21  153.58   31.83
  10  -4  21  126.10   23.44
  10   4  21  142.41   24.42
 -10   4  21  149.22   28.29
 -10  -4  22  -10.18    8.32
  10  -4  22    0.23    4.85
  10   4  22    3.74    3.84
 -10   4  22   -2.57    7.07
 -10  -4  23   72.82   22.83
  10  -4  23   97.59   20.65
  10   4  23   70.43   17.50
 -10   4  23   73.01   21.44
 -10   4  24   78.55   22.04
 -10  -4  24  130.52   28.97
  10  -4  24  148.99   25.44
  10   4  24  119.33   22.54
 -10  -4  25   92.74   25.58
 -10   4  25  129.20   27.75
  10   4  25  113.57   21.96
  10  -4  25   82.80   19.84
 -10  -4  26   45.12   16.46
  10  -4  26   89.98   20.97
  10   4  26   67.60   17.03
 -10  -4  27   46.45   17.92
  10  -4  27   27.53   12.42
  10   4  27   29.22   12.49
 -10  -4  28    3.77    5.49
  10   4  28   19.05    8.73
 -10  -4  29   20.19   11.81
  10   4  29   10.10    7.21
 -10  -4  30    5.00    9.60
 -10  -5   0   18.60   11.03
 -10  -5   1    3.90    8.55
 -10  -5  -1   17.05   10.59
 -10  -5   2    6.59    8.01
 -10  -5  -2   -2.55    3.01
 -10  -5   3   57.15   17.50
 -10  -5  -3   86.87   20.69
 -10  -5   4   54.68   17.69
 -10  -5  -4   32.61   12.57
 -10  -5   5    9.07    8.08
 -10  -5  -5    0.08    6.11
 -10  -5  -6   23.65   10.63
 -10  -5   6   15.11    7.59
 -10  -5  -7   23.39    9.81
 -10  -5   7    9.27    9.40
 -10  -5  -8   57.59   15.73
 -10  -5   8   65.83   18.29
 -10   5   8   78.66   19.61
 -10   5   9  120.33   24.42
 -10  -5   9   97.40   23.62
 -10  -5  -9  125.42   23.52
 -10  -5 -10   48.49   14.81
 -10   5  10   34.27   13.21
 -10  -5  10   25.19   11.68
 -10  -5 -11    7.73    6.55
 -10  -5  11    7.03    8.10
 -10   5  11    7.84    6.72
 -10   5  12  106.72   23.34
 -10  -5 -12  150.05   25.86
 -10  -5  12   92.23   22.24
 -10   5  13   56.68   16.64
 -10  -5 -13   63.94   16.11
 -10  -5  13   37.17   15.05
 -10   5  14    9.42    8.04
 -10  -5  14    6.35    3.70
 -10  -5 -14   16.42   11.00
 -10   5  15   45.21   16.12
 -10  -5 -15   60.48   16.47
 -10  -5  15   23.00   11.27
 -10   5  16   39.19   14.69
 -10  -5  16   42.24   15.70
 -10  -5 -16   26.70   11.34
 -10   5  17   20.48   10.86
 -10  -5 -17    9.13    8.39
 -10  -5  17    0.75    4.36
 -10   5  18    4.48    7.08
 -10  -5  18   -9.17    7.88
 -10   5  19   -8.63    9.01
  10  -5  19   15.04    8.56
  10   5  19    5.58    4.87
 -10  -5  19   11.42   10.76
 -10   5  20   -4.24    6.09
  10  -5  20    9.25    5.65
  10   5  20    2.30    2.17
 -10  -5  20   14.44    9.40
 -10   5  21    4.01    3.19
  10  -5  21   -0.50    2.54
  10   5  21    1.71    2.17
 -10  -5  21   -0.46    8.67
 -10   5  22   -2.61    5.79
  10  -5  22    2.49    5.13
  10   5  22    0.39    4.17
 -10  -5  22   -0.06    3.89
 -10   5  23  -10.60    9.03
  10  -5  23   10.27    8.07
  10   5  23    7.43    5.75
 -10  -5  23    3.54    3.35
 -10   5  24   14.52   12.19
  10  -5  24    5.31    6.28
  10   5  24    4.70    7.38
 -10  -5  24   14.06   11.95
  10  -5  25    3.62    6.28
  10   5  25    6.88    5.15
  10  -5  26   -4.47    6.25
  10   5  26   -3.03    5.08
 -10  -5  26   -7.14    6.49
 -10  -5  27  -11.45   11.68
  10   5  27    7.49    5.67
 -10  -5  28    3.22    9.14
  10   5  28    4.17    6.99
 -10  -5  29   11.78   11.28
  10   5  29   11.28    8.81
 -10  -5  30   33.86   18.85
  10   5  30    7.73    7.93
 -10  -6   0   74.41   20.02
 -10  -6   1  144.83   27.29
 -10  -6  -1  125.10   25.02
 -10  -6   2  112.87   24.16
 -10  -6  -2  121.25   24.17
 -10  -6  -3    1.95    3.95
 -10  -6   3    6.40    7.53
 -10  -6  -4    5.36    6.21
 -10  -6   4    0.50    3.60
 -10  -6  -5    0.41    5.19
 -10  -6   5   -9.80    8.17
 -10  -6  -6    5.11    6.29
 -10  -6   6    7.06    6.49
 -10  -6  -7   22.55   10.01
 -10  -6   7   48.12   17.61
 -10  -6  -8    6.53    4.46
 -10  -6   8   22.09   11.03
 -10  -6  -9   18.86   10.02
 -10  -6   9   38.09   15.97
 -10  -6  10    2.29    2.77
 -10  -6 -10   22.94    9.19
 -10  -6 -11    4.86    5.56
 -10  -6  11    2.16    3.38
 -10  -6 -12   16.65    9.82
 -10  -6  12   23.91   14.66
 -10  -6 -13   12.27    8.28
 -10  -6  13   -1.04    5.53
 -10  -6 -14    1.06    4.00
 -10  -6  14    9.44    9.77
 -10  -6  15   19.82   11.82
 -10  -6 -15   15.24    8.87
 -10  -6 -16    0.62    3.30
 -10  -6  16   13.10   12.37
 -10  -6  17    5.25    9.73
  10   6  18    1.56    4.84
 -10  -6  18    7.35    8.13
  10  -6  19   -6.01    5.40
  10   6  19    3.94    3.16
  10   6  20   94.51   19.42
  10  -6  20   55.50   15.13
 -10  -6  20   75.49   23.27
  10  -6  21   39.48   13.92
 -10  -6  21   43.12   16.80
  10   6  21   31.42   11.74
  10  -6  22   91.24   19.28
 -10  -6  22   78.53   23.49
  10   6  22   60.60   15.92
  10  -6  23    4.68    6.82
 -10  -6  23   26.86   13.86
  10   6  23   20.76   10.46
  10  -6  24   59.68   15.75
 -10  -6  24   41.03   18.08
  10   6  24   45.92   14.33
  10  -6  25   67.44   18.41
 -10  -6  25   47.58   16.84
  10   6  25   59.06   15.18
  10  -6  26   -0.49    2.77
 -10  -6  26    7.03    4.18
  10   6  26    4.56    5.96
 -10  -6  27   89.37   25.60
  10   6  27    2.26    5.48
 -10  -6  28    3.26   11.08
  10   6  28    8.98    7.43
  10   6  29   37.90   13.06
 -10  -7   0    4.25    6.26
 -10  -7   1   -3.96    6.74
 -10  -7  -1   -1.55    4.44
 -10  -7  -2   59.46   17.41
 -10  -7   2   28.16   14.90
 -10  -7  -3   10.32    9.16
 -10  -7   3    8.70    7.59
 -10  -7  -4    1.84    5.97
 -10  -7   4    1.22    6.53
 -10  -7  -5    3.02    5.67
 -10  -7   5   -6.84    7.75
 -10  -7  -6   -1.77    3.12
 -10  -7   6   -9.16    8.74
 -10  -7  -7   29.31   11.93
 -10  -7   7    7.72    4.72
 -10  -7  -8   44.15   15.96
 -10  -7   8   22.42   10.87
 -10  -7  -9   94.61   21.02
 -10  -7   9   87.25   22.76
 -10  -7 -10   13.48    8.20
 -10  -7  10    7.64    6.42
 -10  -7  11   14.28    9.74
 -10  -7 -11    2.92    6.66
 -10  -7  12   25.69   12.33
 -10  -7 -12   20.27   10.63
 -10  -7 -13   46.61   16.27
 -10  -7  13   67.78   20.15
 -10  -7 -14    4.99    4.02
 -10  -7  14   -0.54    5.10
 -10  -7 -15   20.22   10.06
 -10  -7  15   19.87   13.96
 -10  -7  16   52.72   18.91
 -10  -7  17   -1.07    3.46
  10   7  17    6.92    6.01
  10   7  18    5.63    6.06
  10  -7  18    1.86    2.09
 -10  -7  19   -5.70    9.05
  10  -7  19    8.54    7.23
  10   7  19   11.41    6.84
  10  -7  20   31.16   11.69
  10   7  20   17.26    7.43
 -10  -7  21    2.47    7.37
  10  -7  21   -2.89    3.88
  10   7  21    0.14    3.00
  10  -7  22   -3.14    3.75
  10   7  22   -0.45    2.87
  10  -7  23    8.29    7.37
  10   7  23   -0.80    3.32
 -10  -7  24   -2.33    8.86
  10  -7  24   -5.77    7.40
  10   7  24    4.76    6.17
 -10  -7  25   21.34   11.62
  10  -7  25    3.79    5.10
  10   7  25   19.00   10.24
 -10  -7  26   10.94   14.31
 -10  -7  27    1.52    6.72
 -10  -8   0   -4.28    5.77
 -10  -8   1   -5.14    5.95
 -10  -8  -1    5.79    5.15
 -10  -8   2   36.67   13.50
 -10  -8  -2   77.19   19.22
 -10  -8   3  222.25   35.22
 -10  -8  -3  251.71   35.60
 -10  -8  -4    6.45    7.29
 -10  -8   4   17.70    9.73
 -10  -8  -5   18.77   10.75
 -10  -8   5   28.38   13.25
 -10  -8  -6   83.53   20.33
 -10  -8   6   89.58   22.69
 -10  -8  -7    8.52    8.69
 -10  -8   7   12.79    7.29
 -10  -8  -8   41.13   14.98
 -10  -8   8   18.48   10.43
 -10  -8  -9   46.47   15.45
 -10  -8   9   23.64   11.95
 -10  -8 -10   24.67   10.97
 -10  -8  10   29.23   13.72
 -10  -8 -11   46.89   15.87
 -10  -8  11   58.18   18.50
 -10  -8  12   52.42   19.73
 -10  -8 -12   31.41   11.76
 -10  -8  13  101.53   24.78
 -10  -8 -13   62.16   17.00
 -10  -8 -14   29.75   11.91
 -10  -8  14   66.37   18.99
 -10  -8  15   23.33   13.18
 -10  -8  16   -4.01    6.63
  10   8  16    5.21    5.97
 -10  -8  17   16.23   10.76
  10  -8  17    5.93    8.56
  10   8  17    0.96    2.76
 -10  -8  18   10.22    8.51
  10  -8  18   -2.54    4.86
  10   8  18    5.49    6.47
 -10  -8  19   70.75   21.35
  10   8  19   98.31   18.74
  10  -8  19   67.72   17.21
 -10  -8  20    5.07    9.93
  10  -8  20   16.80   10.00
  10   8  20    9.11    7.48
 -10  -8  21    5.20    3.82
  10  -8  21   13.72   10.34
 -10  -8  22   18.28   11.86
  10  -8  22   -0.08    3.24
 -10  -8  23   31.20   17.10
  10  -8  23    7.68    5.70
 -10  -8  24   -2.27    8.11
  10  -8  24    8.37    6.37
 -10  -8  25   92.95   26.74
 -10  -9   0   81.23   21.54
 -10  -9   1    4.94    5.95
 -10  -9  -1   13.27    7.41
 -10  -9   2   -2.90    5.15
 -10  -9  -2    8.02    8.40
 -10  -9   3   10.14    8.60
 -10  -9  -3    4.76    7.29
 -10  -9   4   62.16   18.90
 -10  -9  -4   80.48   20.66
 -10  -9   5   45.12   15.92
 -10  -9  -5   44.02   14.42
 -10  -9  -6    2.14    3.71
 -10  -9   6    2.40    4.29
 -10  -9  -7   13.49   10.84
 -10  -9   7   13.15    7.94
 -10  -9  -8   12.95    9.77
 -10  -9   8    2.83    6.35
 -10  -9  -9    1.27    5.08
 -10  -9   9   -0.75    4.87
 -10  -9 -10   19.01    8.22
 -10  -9  10   31.13   14.18
 -10  -9 -11   20.01    9.98
 -10  -9  11   26.96   12.50
 -10  -9 -12   15.62    7.78
 -10  -9  12    3.25    7.21
 -10  -9  13   -1.60    4.89
 -10  -9 -13   -4.01    6.76
 -10  -9  14  -11.75   10.39
 -10  -9  15   23.70   12.66
 -10  -9  16    1.01    4.97
  10  -9  16    2.75    2.39
 -10  -9  17    1.94    3.73
  10  -9  17    6.64    5.98
 -10  -9  18   32.22   16.33
  10  -9  18   60.89   16.52
 -10  -9  19    4.13    4.28
  10  -9  19   -3.29    5.72
 -10  -9  20    3.10    8.72
  10  -9  20   10.35    7.59
 -10  -9  21   12.52   10.68
  10  -9  21    9.73    7.74
 -10  -9  22    1.23    5.05
  10  -9  22   25.42   11.55
  10  -9  23   49.29   15.11
 -10 -10   0   10.00    8.92
 -10 -10  -1  129.57   26.65
 -10 -10   1   87.98   21.84
 -10 -10   2    3.87    6.52
 -10 -10  -2    8.68    8.90
 -10 -10   3   14.12   10.41
 -10 -10  -3   -1.40    5.79
 -10 -10   4   11.96   11.62
 -10 -10  -4    4.13    5.47
 -10 -10   5   28.00   12.68
 -10 -10  -5   16.21   10.39
 -10 -10   6   20.13   10.59
 -10 -10  -6   18.54   10.37
 -10 -10  -7    2.35    7.76
 -10 -10   7    4.75    8.83
 -10 -10  -8    6.67    4.43
 -10 -10   8    7.99    7.96
 -10 -10  -9    8.44    7.92
 -10 -10   9    4.83    4.49
 -10 -10 -10   90.78   21.85
 -10 -10  10   85.47   23.25
 -10 -10 -11    8.13    5.73
 -10 -10  11    3.26    5.08
 -10 -10  12    3.60    8.90
 -10 -10  13    0.53    4.26
 -10 -10  14   65.34   20.86
 -10 -10  15    4.80    9.26
  10 -10  15   13.05    9.12
 -10 -10  16   11.42   10.44
  10 -10  16   -0.23    3.18
 -10 -10  17  -11.04   11.76
  10 -10  17    7.74    6.30
 -10 -10  18   20.71   12.81
  10 -10  18   16.71    9.81
 -10 -10  19    4.80    9.84
  10 -10  19   33.71   12.65
 -10 -10  20   -6.38    9.14
  10 -10  20   19.44   10.90
  10 -10  21    0.76    3.19
  10 -10  22    7.37    5.99
 -10 -11   0   -8.14    9.07
 -10 -11   1    6.90    6.78
 -10 -11  -1   19.38   12.05
 -10 -11   2    0.62    3.98
 -10 -11  -2   27.20   13.78
 -10 -11   3    8.03    8.31
 -10 -11  -3   13.44    9.49
 -10 -11   4   15.14   11.18
 -10 -11  -4   16.12   10.61
 -10 -11   5    7.80    7.14
 -10 -11  -5    0.25    7.46
 -10 -11   6    4.97    7.91
 -10 -11  -6    3.06    7.98
 -10 -11   7   56.20   18.38
 -10 -11  -7   57.80   18.34
 -10 -11  -8    8.46    8.64
 -10 -11   8    5.96    6.28
 -10 -11  -9    0.24    5.15
 -10 -11   9   13.25   11.15
 -10 -11 -10   -0.28    7.90
 -10 -11  10    4.62    5.84
 -10 -11  11   12.46   10.55
 -10 -11  12   28.94   16.07
 -10 -11  13    6.78    9.38
 -10 -11  14    8.56    9.83
  10 -11  14    2.00    3.09
 -10 -11  15   -8.83    5.16
  10 -11  15    2.56    4.77
 -10 -11  16    3.39    4.26
  10 -11  16   -2.42    5.83
 -10 -11  17    4.89    9.09
  10 -11  17    2.97    3.17
  10 -11  18   21.40   10.11
  10 -11  19   15.34    8.69
  10 -11  20   15.05   11.18
 -10 -12   0   33.44   14.05
 -10 -12   1   68.66   21.13
 -10 -12  -1   54.80   19.39
 -10 -12   2   74.04   20.60
 -10 -12  -2  114.34   26.24
 -10 -12   3   38.96   16.93
 -10 -12  -3   22.94   12.45
 -10 -12   4   55.63   19.25
 -10 -12  -4   30.76   14.47
 -10 -12   5   94.95   23.86
 -10 -12  -5   66.15   19.41
 -10 -12   6   22.30   13.79
 -10 -12  -6   17.99   13.55
 -10 -12   7   42.46   17.84
 -10 -12  -7   35.95   13.65
 -10 -12   8   16.34   12.84
 -10 -12  -8   15.55   10.44
 -10 -12  -9   -2.50    4.67
 -10 -12   9   11.11   11.51
 -10 -12  10    4.55    5.90
 -10 -12  11   21.67   12.57
 -10 -12  12  101.55   27.01
  10 -12  12   60.21   16.70
 -10 -12  13    2.41    6.97
  10 -12  13   -1.43    5.23
 -10 -12  14   10.24   14.29
  10 -12  14    3.42    2.83
  10 -12  15   -0.40    3.12
  10 -12  16    1.31    4.86
  10 -12  17   60.22   16.11
  10 -12  18   47.45   14.20
  10 -12  19   48.65   14.38
 -10 -13   0   36.90   16.32
 -10 -13   1   -1.70    5.60
 -10 -13  -1   11.01    9.51
 -10 -13   2   23.15   15.48
 -10 -13  -2   30.45   16.00
 -10 -13   3   49.86   17.72
 -10 -13  -3   32.67   14.10
 -10 -13   4   18.64   11.20
 -10 -13  -4    8.12    6.75
 -10 -13   5   -1.65    5.93
 -10 -13  -5    6.06    4.77
 -10 -13   6    2.15    4.98
 -10 -13  -6   -1.06    4.43
 -10 -13   7   10.97   11.11
 -10 -13  -7   -6.31    7.11
 -10 -13   8   -8.47    7.36
 -10 -13   9   29.83   13.57
 -10 -13  10    9.41   11.98
  10 -13  10    6.87    7.71
 -10 -13  11    5.71    9.20
  10 -13  11   -1.94    3.00
  10 -13  12   -2.32    4.49
  10 -13  13   23.41   10.30
  10 -13  14   -5.43    4.63
  10 -13  15   10.69    6.90
  10 -13  16   22.33   10.13
 -10 -14   0  163.67   32.88
 -10 -14   1   75.24   23.07
 -10 -14  -1   47.56   18.09
 -10 -14   2   89.18   25.05
 -10 -14  -2   94.43   26.04
 -10 -14   3   32.72   13.32
 -10 -14  -3   45.42   15.28
 -10 -14   4   31.42   14.37
 -10 -14  -4   52.45   19.38
 -10 -14   5   75.37   23.21
 -10 -14  -5   88.69   23.31
 -10 -14   6   -4.12    7.96
 -10 -14  -6   -5.85    6.37
 -10 -14   7   -0.63    5.69
 -10 -15   0   14.90   12.51
 -10 -15   1    2.97    6.00
 -10 -15  -1   13.01   11.98
 -10 -15  -2   15.08   13.63
 -10 -15  -3   20.47   11.87
 -10 -15  -4   22.38   11.25
 -11   0   0    6.73    6.69
 -11   0   1    2.14    8.85
 -11   0  -1    0.66    2.75
 -11   0   2    4.23    4.24
 -11   0  -2    3.55    3.08
 -11   0  -3    1.61    2.31
 -11   0   3   -1.28    3.51
 -11   0  -4   44.46   14.73
 -11   0   4   45.63   15.50
 -11   0   5    0.14    3.10
 -11   0  -5   -0.26    7.11
 -11   0   6   -1.49    5.32
 -11   0  -6   -0.69    3.96
 -11   0  -7   11.12    8.82
 -11   0   7    1.11    5.14
 -11   0   8   -4.77    7.41
 -11   0  -8   -4.19    4.36
 -11   0   9    6.69    6.74
 -11   0  -9   -2.77    3.00
 -11   0  10   37.05   15.81
 -11   0 -10   58.56   16.99
 -11   0  11   -4.23    3.49
 -11   0  12   17.26   13.48
 -11   0  13   -4.01    4.94
 -11   0  14  -11.17    9.50
 -11   0  15    3.28    4.21
 -11   0  16   -3.71    9.64
 -11   0  17   -1.85    5.06
 -11   0  18    7.87    7.37
 -11   0  19    4.96    9.95
 -11   0  20    3.15    6.86
  11   0  21   -3.43    3.67
 -11   0  21   -2.50    6.00
  11   0  22   18.02   10.53
 -11   0  22    4.61    3.93
 -11   0  23    5.76   11.78
  11   0  23    3.03    6.80
 -11   0  24   44.41   19.20
  11   0  24    0.40    3.11
 -11   0  25   -6.25    8.39
  11   0  25    3.60    4.43
 -11   0  26    5.21    9.29
  11   0  26    2.85    5.74
 -11   0  27   -8.23    7.15
  11   0  27    6.00    7.05
 -11   0  28    7.66    8.63
 -11   1   0    3.79    4.23
 -11  -1   0   -0.18    3.73
 -11   1   1   23.35   12.28
 -11  -1   1   61.45   17.94
 -11   1  -1   32.59   14.00
 -11  -1  -1   31.02   13.33
 -11  -1   2  107.82   24.14
 -11   1   2  100.38   23.21
 -11  -1  -2   94.55   21.00
 -11   1  -2  100.84   22.45
 -11  -1   3   12.62    7.22
 -11  -1  -3   14.40    9.63
 -11   1  -3    1.65    2.17
 -11   1   3    2.90    4.78
 -11  -1   4    3.55    3.91
 -11   1  -4    2.77    3.72
 -11   1   4    4.10    3.21
 -11  -1  -4    5.53    5.02
 -11   1   5  118.50   25.18
 -11  -1  -5  120.58   24.01
 -11   1  -5  166.12   28.18
 -11  -1   5  143.08   27.64
 -11  -1  -6   23.03   10.80
 -11   1   6   27.99   13.27
 -11   1  -6   30.13   12.28
 -11  -1   6    3.22    7.34
 -11  -1  -7   84.53   20.71
 -11   1   7   78.07   20.50
 -11   1  -7   59.79   17.28
 -11  -1   7   51.56   18.07
 -11   1   8    0.33    4.50
 -11  -1  -8    4.39    8.17
 -11   1  -8   11.04    6.65
 -11  -1   8   -0.29    5.64
 -11  -1  -9   61.42   17.99
 -11   1   9   41.40   14.63
 -11  -1   9   84.11   21.31
 -11   1  10   61.99   18.81
 -11  -1 -10   56.79   16.49
 -11  -1  10   83.87   22.42
 -11  -1 -11   42.18   14.49
 -11   1  11   55.06   18.27
 -11  -1  11   50.76   17.03
 -11   1  12  140.83   28.65
 -11  -1 -12  128.52   25.36
 -11  -1  12  135.93   28.55
 -11   1  13  207.68   34.46
 -11  -1  13  167.94   31.71
 -11   1  14   -4.21    9.23
 -11  -1  14    7.46    5.01
 -11   1  15   71.59   20.72
 -11  -1  15  108.57   26.75
 -11   1  16   46.52   16.89
 -11  -1  16   37.98   15.68
 -11   1  17    8.01    8.39
 -11  -1  17   39.84   16.66
 -11   1  18   14.26    9.08
 -11  -1  18   22.73   11.84
 -11   1  19    7.47    7.71
 -11  -1  19   -7.20    8.15
 -11   1  20   62.55   20.17
 -11  -1  20   88.44   24.26
 -11   1  21   -1.11    6.89
  11  -1  21    4.88    4.76
  11   1  21   -0.66    4.05
 -11   1  22  -15.29   12.32
 -11  -1  22    2.09    8.81
  11  -1  22    2.47    5.71
  11   1  22   13.54   10.11
 -11   1  23   36.70   18.02
 -11  -1  23   23.69   12.36
  11  -1  23   25.83   12.67
  11   1  23    0.66    5.00
 -11   1  24   12.84    9.31
 -11  -1  24   53.11   18.28
  11  -1  24   36.26   14.72
  11   1  24   18.24    9.98
 -11   1  25  -17.80   12.04
 -11  -1  25   14.44   13.19
  11  -1  25    7.84    5.29
  11   1  25    8.95    6.77
 -11   1  26    7.10   10.80
 -11  -1  26    1.85    5.52
  11  -1  26    1.33    2.59
  11   1  26   -8.72    7.10
 -11   1  27   34.99   16.30
 -11  -1  27   22.77   13.82
  11   1  27   40.12   13.86
 -11  -1  28   37.55   17.42
 -11  -2   0   10.54    9.25
 -11   2   0    1.02    7.67
 -11  -2  -1   -1.36    3.51
 -11   2  -1   -3.24    5.65
 -11   2   1   -3.33    4.16
 -11  -2   1   -0.68    3.44
 -11  -2  -2    7.02    6.79
 -11   2  -2    2.02    3.30
 -11   2   2    5.91    6.45
 -11  -2   2   -2.21    4.03
 -11  -2  -3   46.08   16.35
 -11   2   3   73.67   19.48
 -11  -2   3   28.14   13.44
 -11   2  -3   30.58   12.24
 -11   2   4   56.95   17.45
 -11  -2  -4   65.24   18.53
 -11   2  -4   62.46   17.31
 -11  -2   4   77.48   19.76
 -11   2   5   67.91   20.01
 -11   2  -5   74.85   19.46
 -11  -2  -5   97.60   21.84
 -11  -2   5   82.15   21.01
 -11  -2  -6  144.10   26.06
 -11   2   6  152.98   28.50
 -11  -2   6  145.91   28.75
 -11  -2   7   66.08   19.22
 -11  -2  -7   54.34   16.28
 -11   2   7   44.90   14.27
 -11  -2  -8   33.03   12.89
 -11  -2   8   49.57   16.47
 -11   2   8   48.49   15.33
 -11  -2  -9   56.78   16.22
 -11  -2   9  103.95   23.37
 -11   2   9  101.37   23.17
 -11  -2  10    3.23    7.44
 -11  -2 -10   -9.78    8.58
 -11   2  10   -4.87    3.65
 -11  -2 -11   73.31   19.23
 -11  -2  11   59.90   16.96
 -11   2  11   59.37   18.60
 -11  -2  12  136.81   28.15
 -11   2  12   86.74   22.23
 -11  -2 -13  111.44   23.20
 -11   2  13  109.89   24.24
 -11  -2  13  131.84   28.20
 -11   2  14  126.40   26.93
 -11  -2  14  131.91   27.41
 -11  -2  15   44.69   19.09
 -11   2  15   36.50   15.08
 -11  -2  16    0.33    5.23
 -11   2  16   26.22   14.51
 -11  -2  17    8.61    9.17
 -11   2  17    9.93   10.01
 -11  -2  18   47.88   18.21
 -11   2  18   58.52   19.42
 -11  -2  19   -1.83    4.04
 -11   2  19    2.49    6.98
 -11  -2  20    9.42    7.93
 -11   2  20    0.79    5.09
 -11  -2  21    2.54    6.59
 -11   2  21   -5.89    9.03
  11  -2  21    4.66    2.95
  11   2  21    3.86    2.80
 -11  -2  22  -11.73   10.43
 -11   2  22  -10.46    9.41
  11  -2  22    0.53    3.98
  11   2  22   -0.56    4.78
 -11  -2  23   -1.70    5.25
 -11   2  23   -4.72    6.35
  11  -2  23    9.40    7.82
  11   2  23   -0.45    3.44
 -11  -2  24   22.81   14.71
 -11   2  24   12.66   10.00
  11  -2  24   -2.65    5.07
  11   2  24   13.36    8.53
 -11  -2  25   81.86   24.40
 -11   2  25   51.08   19.91
  11  -2  25   69.42   17.75
  11   2  25   47.03   17.32
 -11  -2  26   67.88   22.81
  11  -2  26   77.38   19.53
 -11   2  26   44.87   17.37
  11   2  26   65.01   18.14
 -11  -2  27   52.88   20.51
  11   2  27   61.88   17.38
 -11  -2  28  -17.74   13.50
 -11  -2  29    2.67    8.79
 -11   3   0    4.84    8.10
 -11  -3   0    6.69    9.03
 -11   3  -1   11.57    9.03
 -11  -3   1   32.71   12.47
 -11   3   1   36.66   13.38
 -11  -3  -1   24.32   12.28
 -11   3   2   25.70   12.84
 -11  -3   2   34.35   15.40
 -11   3  -2   15.90   10.82
 -11  -3  -2   25.87   12.65
 -11  -3   3  223.45   34.34
 -11   3   3  282.88   37.59
 -11  -3  -3  238.71   34.92
 -11  -3  -4  119.67   24.94
 -11   3   4   51.40   16.58
 -11  -3   4  127.78   25.31
 -11  -3  -5   50.11   15.95
 -11  -3   5   52.53   16.85
 -11   3   5   57.69   17.80
 -11  -3  -6    3.94    6.93
 -11  -3   6   -6.93    9.16
 -11   3   6    4.31    7.31
 -11  -3   7    3.19    5.66
 -11  -3  -7   10.82    8.97
 -11   3   7   -1.27    4.99
 -11  -3   8   12.15    4.89
 -11   3   8   13.60   11.79
 -11  -3  -8   -0.48    2.26
 -11  -3   9   56.80   19.06
 -11   3   9   61.06   18.41
 -11  -3  -9   37.74   12.87
 -11  -3 -10    8.71    6.50
 -11   3  10   13.13   11.00
 -11  -3  10    3.94    3.44
 -11   3  11   29.42   11.77
 -11  -3 -11   51.41   15.72
 -11  -3  11   38.47   15.27
 -11   3  12    0.74    4.80
 -11  -3  12   -1.42    2.94
 -11  -3 -12   -3.07    5.89
 -11  -3 -13   18.80   11.16
 -11   3  13   40.04   16.21
 -11  -3  13   25.37   11.96
 -11   3  14   31.40   14.69
 -11  -3  14   50.46   19.19
 -11  -3 -14    2.43    5.86
 -11   3  15   43.37   16.27
 -11  -3  15   59.28   19.48
 -11  -3 -15   55.78   16.38
 -11   3  16    6.99    8.93
 -11  -3  16    4.54    9.45
 -11   3  17    1.67    3.94
 -11  -3  17   14.40   12.10
 -11   3  18   14.64    9.23
 -11  -3  18    3.18    5.43
 -11   3  19  108.72   26.39
 -11  -3  19  132.46   29.86
 -11   3  20  -10.73   11.17
 -11  -3  20    2.38    4.53
  11   3  20    9.86    7.79
 -11   3  21   68.22   20.91
 -11  -3  21   39.70   15.90
  11  -3  21   47.65   14.50
  11   3  21   50.62   15.10
 -11   3  22  -16.16   11.20
 -11  -3  22    8.72   10.96
  11  -3  22    7.93    6.07
  11   3  22    3.16    6.13
 -11   3  23   29.54   14.22
 -11  -3  23   21.48   12.47
  11  -3  23   54.43   16.51
  11   3  23   61.53   17.09
 -11   3  24    2.61    6.91
 -11  -3  24    6.34    6.29
  11  -3  24    1.60    2.60
  11   3  24    1.13    3.91
 -11   3  25   26.06   13.20
 -11  -3  25   35.01   16.49
  11  -3  25   19.43   10.16
  11   3  25   38.64   13.49
 -11  -3  26   28.81   15.34
  11   3  26   17.12    7.03
 -11  -3  27    8.28   10.70
  11   3  27   19.11   11.14
 -11  -3  28   11.29    7.47
 -11  -3  29    5.48    8.31
 -11  -4   0   10.44    9.88
 -11  -4   1   29.42   12.94
 -11  -4  -1   16.21    9.91
 -11  -4   2   24.32   10.41
 -11   4   2   40.39   15.04
 -11  -4  -2   27.27   12.16
 -11   4   3   48.22   14.86
 -11  -4   3   77.96   20.79
 -11  -4  -3   93.57   22.69
 -11  -4   4    5.75    5.71
 -11  -4  -4   -2.13    6.42
 -11   4   4   -3.24    4.12
 -11  -4   5    5.53    4.52
 -11   4   5    0.14    2.74
 -11  -4  -5    8.78    7.50
 -11  -4  -6   11.21    7.12
 -11  -4   6    3.48    3.97
 -11   4   6   16.82   11.70
 -11  -4  -7  109.31   24.19
 -11  -4   7  143.82   28.90
 -11   4   7  104.47   23.52
 -11  -4   8   56.36   17.88
 -11  -4  -8   19.87    9.45
 -11   4   8   40.01   13.99
 -11  -4   9    2.06    5.33
 -11   4   9   13.29    7.23
 -11  -4  -9   -1.14    3.31
 -11   4  10   -5.01    7.22
 -11  -4 -10   -0.09    2.35
 -11  -4  11   67.10   20.23
 -11   4  11   51.23   16.48
 -11  -4 -11   55.57   16.56
 -11  -4 -12   10.69    8.58
 -11   4  12   14.75    9.79
 -11  -4  12    9.22    6.90
 -11   4  13   43.88   15.66
 -11  -4  13   47.06   17.87
 -11  -4 -13   55.70   17.30
 -11   4  14   60.40   18.47
 -11  -4  14   26.04   13.40
 -11  -4 -14   57.14   17.34
 -11  -4  15    5.73    6.05
 -11  -4 -15   16.54   10.56
 -11   4  15   16.63   11.25
 -11  -4  16   41.13   18.10
 -11  -4 -16   57.95   17.41
 -11   4  16   33.65   14.05
 -11  -4  17    4.92   10.32
 -11   4  17   -3.44    8.30
 -11  -4  18   -2.53    7.04
 -11   4  18    5.73    5.64
 -11  -4  19   42.49   16.10
 -11   4  19   10.80   10.39
 -11  -4  20   48.25   17.69
  11  -4  20   33.65   14.49
  11   4  20   41.91   13.48
 -11   4  20   23.06   11.99
 -11   4  21   29.25   15.38
 -11  -4  21   14.04   11.05
  11  -4  21    6.67    6.78
  11   4  21   25.98   10.03
 -11   4  22   -3.81    4.26
 -11  -4  22   -8.63   10.21
  11  -4  22    0.94    4.63
  11   4  22    5.84    4.94
 -11   4  23    9.06    9.53
 -11  -4  23   13.62   11.69
  11  -4  23    7.57    7.63
  11   4  23   11.34    7.79
 -11  -4  24   10.05    8.88
  11  -4  24    3.42    4.44
  11   4  24    6.17    4.61
 -11  -4  25  -11.85   10.83
  11  -4  25    2.09    3.55
  11   4  25   -0.97    5.50
 -11  -4  26  -16.40   13.79
  11   4  26   11.72    7.59
 -11  -4  27    3.35    9.37
  11   4  27   -2.45    5.49
 -11  -4  28    5.61    7.58
 -11  -5   0    1.04    2.75
 -11  -5   1    3.49    6.31
 -11  -5  -1   18.78   10.76
 -11  -5   2    7.83    5.86
 -11  -5  -2   15.73    9.31
 -11  -5   3   53.12   17.73
 -11  -5  -3   49.79   15.87
 -11  -5   4  116.79   26.05
 -11  -5  -4  159.08   28.73
 -11  -5   5   28.23   14.46
 -11  -5  -5   16.75   11.91
 -11  -5   6   84.52   22.50
 -11  -5  -6  112.50   24.41
 -11  -5   7   44.99   18.63
 -11  -5  -7   66.49   17.73
 -11  -5  -8   33.37   14.04
 -11  -5   8   -4.26    3.12
 -11  -5   9    1.82    4.90
 -11  -5  -9    6.15    4.54
 -11   5   9    5.04    6.84
 -11  -5  10   30.15   14.53
 -11  -5 -10   22.36   12.25
 -11   5  10   22.54   11.74
 -11  -5  11   17.27   11.92
 -11  -5 -11   24.21   11.38
 -11   5  11    9.50    7.86
 -11  -5  12   36.62   15.95
 -11   5  12   19.91   10.91
 -11  -5 -12   43.90   15.27
 -11  -5  13    5.70    6.80
 -11   5  13    2.54    4.43
 -11  -5 -13   -0.53    4.07
 -11   5  14  175.27   31.61
 -11  -5  14  208.35   36.96
 -11  -5 -14  271.20   36.62
 -11  -5  15   10.74   11.45
 -11  -5 -15   10.12    9.01
 -11   5  15    7.54   10.09
 -11  -5  16   59.47   19.95
 -11  -5 -16   53.49   16.77
 -11   5  16   30.59   13.57
 -11  -5  17   11.96    9.46
 -11   5  17   24.61   14.34
 -11  -5  18   14.65   11.95
 -11   5  18   -8.58    7.87
 -11  -5  19   93.35   25.32
  11   5  19   86.09   20.33
 -11   5  19   57.94   18.69
 -11  -5  20   22.32   12.36
  11  -5  20    9.02    7.63
  11   5  20   12.87    6.82
 -11   5  20   26.53   13.81
 -11  -5  21   19.18   12.55
 -11   5  21    4.11    6.15
  11  -5  21   11.82    7.70
  11   5  21   27.14   10.98
 -11  -5  22   -0.19    6.11
 -11   5  22   -1.46    3.78
  11  -5  22    8.71    9.37
  11   5  22    9.51    8.34
 -11  -5  23    9.84   12.74
 -11   5  23    0.71    7.59
  11  -5  23   -3.27    5.88
  11   5  23   13.02   10.17
 -11  -5  24    6.69    8.15
  11  -5  24   10.64    8.33
  11   5  24   -4.27    5.85
 -11  -5  25   29.57   15.38
  11   5  25   11.85    8.14
 -11  -5  26   16.51   12.76
  11   5  26   35.63   13.41
  11   5  27    9.11    8.25
 -11  -6   0   -3.10    3.36
 -11  -6   1    9.16    5.19
 -11  -6  -1    7.43    7.52
 -11  -6   2   34.83   15.51
 -11  -6  -2   54.68   17.14
 -11  -6   3    3.29    5.58
 -11  -6  -3   14.01    9.11
 -11  -6   4    5.35    9.40
 -11  -6  -4    6.24    7.37
 -11  -6   5   39.96   15.18
 -11  -6  -5   30.45   12.56
 -11  -6   6   13.11   11.06
 -11  -6  -6   11.63   10.49
 -11  -6   7   57.62   18.82
 -11  -6  -7   30.77   13.08
 -11  -6   8    5.03    8.69
 -11  -6  -8   -3.95    6.01
 -11  -6  -9   18.20    9.69
 -11  -6   9   13.77    9.60
 -11  -6 -10    9.63   10.18
 -11  -6  10    7.16    6.86
 -11  -6 -11   16.34    9.80
 -11  -6  11   12.98   11.16
 -11  -6 -12    5.19    5.41
 -11  -6  12   12.54   11.65
 -11  -6 -13   57.39   17.66
 -11  -6  13   47.58   18.89
 -11  -6 -14    5.65    7.13
 -11  -6  14   -0.06    3.16
 -11  -6 -15   31.36   13.56
 -11  -6  15   14.73   11.30
 -11  -6  16    7.41    6.75
 -11  -6  17  101.90   26.68
 -11  -6  18   12.71   12.34
  11  -6  19   25.00   10.74
  11   6  19   23.59    9.68
 -11  -6  19   15.25    8.84
  11  -6  20   25.77   10.66
  11   6  20   39.14   13.61
 -11  -6  20   25.50   14.61
  11  -6  21    3.47    4.89
  11   6  21   -1.97    3.77
 -11  -6  21   -2.60    7.75
  11  -6  22   -8.05    6.99
  11   6  22    1.48    3.40
 -11  -6  22   -3.89    8.34
  11  -6  23    9.54    7.92
  11   6  23   15.27   10.72
 -11  -6  23    0.07    8.32
  11   6  24   -1.90    5.91
 -11  -6  24    7.32    8.44
 -11  -6  25   27.45   16.97
  11   6  25    9.74    6.68
  11   6  26    6.42    6.68
 -11  -7   0  -12.31    9.61
 -11  -7   1   83.30   21.72
 -11  -7  -1   73.98   19.91
 -11  -7   2   32.79   14.95
 -11  -7  -2   32.00   14.72
 -11  -7   3   11.57    9.25
 -11  -7  -3    9.43    7.77
 -11  -7  -4   20.30   12.52
 -11  -7   4   32.62   15.08
 -11  -7  -5    0.76    3.42
 -11  -7   5   -4.22    5.80
 -11  -7  -6   19.62   10.39
 -11  -7   6   11.22    8.32
 -11  -7  -7   44.11   15.15
 -11  -7   7   34.92   17.55
 -11  -7  -8    8.94   10.58
 -11  -7   8    0.33    3.91
 -11  -7  -9   33.75   13.67
 -11  -7   9    4.26    3.69
 -11  -7  10   23.51   15.20
 -11  -7 -10   19.98   10.71
 -11  -7 -11   33.56   12.49
 -11  -7  11   54.56   20.66
 -11  -7 -12   52.14   16.35
 -11  -7  12   89.93   25.76
 -11  -7 -13    3.18    7.26
 -11  -7  13    0.89    6.28
 -11  -7 -14   29.89   11.66
 -11  -7  14   20.97   13.02
 -11  -7  15   19.93   15.52
 -11  -7  16   23.75   14.04
 -11  -7  17    4.20    7.47
  11   7  18   29.81   12.33
 -11  -7  18   11.08    6.39
  11  -7  19    4.21    4.05
  11   7  19    4.41    4.66
 -11  -7  19    5.81    7.13
  11  -7  20    5.77    5.78
  11   7  20   34.16   12.89
 -11  -7  20   23.91   15.67
  11  -7  21   29.78   12.14
  11   7  21   54.65   15.56
 -11  -7  21   54.87   22.35
  11   7  22    1.69    5.19
 -11  -7  22   -5.99    5.74
  11   7  23   10.67    7.41
 -11  -7  23   17.75   13.27
 -11  -8   0    3.92    4.14
 -11  -8  -1    8.31    9.13
 -11  -8   1    4.88    5.18
 -11  -8  -2   27.57   12.66
 -11  -8   2   23.08   11.38
 -11  -8  -3   28.00   12.00
 -11  -8   3   10.89    7.35
 -11  -8  -4   31.03   13.77
 -11  -8   4   41.25   15.53
 -11  -8  -5   -8.02    8.57
 -11  -8   5   -1.42    5.95
 -11  -8  -6   25.51   14.41
 -11  -8   6    9.35    8.22
 -11  -8  -7   24.78   12.33
 -11  -8   7   -5.29    7.20
 -11  -8  -8   21.96   13.19
 -11  -8   8    0.40    8.91
 -11  -8  -9   -1.68    4.11
 -11  -8   9    4.87    5.71
 -11  -8 -10   49.76   16.06
 -11  -8  10   39.74   17.17
 -11  -8  11   26.68   16.54
 -11  -8 -11   18.60   11.91
 -11  -8  12   85.64   24.45
 -11  -8 -12   69.75   20.51
 -11  -8 -13   40.96   14.92
 -11  -8  13   71.99   21.78
 -11  -8  14    1.29    3.48
 -11  -8  15   -1.44    5.00
 -11  -8  16   19.79   12.45
  11   8  17    9.32    8.96
 -11  -8  17   22.78   16.61
  11  -8  18    3.72    5.07
  11   8  18   26.71   10.43
 -11  -8  18   15.01   11.22
  11  -8  19   -4.09    3.15
 -11  -8  19   -2.86    8.87
  11  -8  20   13.28    8.11
 -11  -8  20   23.13   14.17
  11  -8  21   -4.86    7.42
 -11  -8  21   -2.39    4.66
 -11  -9   0    8.05    7.70
 -11  -9   1    4.02    5.78
 -11  -9  -1   -1.22    3.46
 -11  -9  -2    9.58    7.96
 -11  -9   2   -1.25    6.19
 -11  -9  -3    8.20   11.92
 -11  -9   3    8.47    9.23
 -11  -9  -4   30.91   14.16
 -11  -9   4   88.16   23.97
 -11  -9  -5   42.82   16.55
 -11  -9   5   35.68   15.09
 -11  -9  -6   87.49   23.19
 -11  -9   6   65.77   22.09
 -11  -9  -7    1.70    5.53
 -11  -9   7    6.97    9.95
 -11  -9  -8    4.29    7.80
 -11  -9   8   30.83   14.43
 -11  -9  -9   -0.59    4.67
 -11  -9   9    6.38    7.55
 -11  -9 -10   40.12   15.35
 -11  -9  10   39.57   17.67
 -11  -9 -11   41.87   15.81
 -11  -9  11   72.65   22.74
 -11  -9  12    3.99   10.69
 -11  -9 -12   -2.68    3.73
 -11  -9  13   52.71   21.61
 -11  -9  14    9.99    8.21
 -11  -9  15   20.78   13.29
 -11  -9  16  163.24   34.42
 -11  -9  17    5.87    8.10
  11  -9  17    2.43    6.91
 -11  -9  18    1.47    8.09
  11  -9  18   18.16   10.28
 -11  -9  19   14.40    8.62
  11  -9  19   -3.10    3.63
  11  -9  20   11.32    7.95
 -11 -10   0   -1.10    4.07
 -11 -10   1   14.99   13.08
 -11 -10  -1   39.48   18.62
 -11 -10   2    4.12    5.52
 -11 -10  -2    7.18    9.83
 -11 -10   3    1.19    8.45
 -11 -10  -3    3.01    7.48
 -11 -10  -4   -0.97    3.88
 -11 -10   4   17.64   13.31
 -11 -10  -5    0.63    5.89
 -11 -10   5    6.19    7.86
 -11 -10  -6   12.57    9.40
 -11 -10   6    6.09    9.35
 -11 -10  -7   10.73    8.10
 -11 -10   7   20.30   13.85
 -11 -10  -8    3.18    6.22
 -11 -10   8   28.36   16.33
 -11 -10  -9    9.97    8.71
 -11 -10   9    7.63    8.99
 -11 -10 -10    4.32    8.25
 -11 -10  10   -6.14    6.59
 -11 -10 -11    1.65    6.23
 -11 -10  11   17.12   13.16
 -11 -10  12    0.57   11.19
 -11 -10  13    7.91    8.01
 -11 -10  14   10.63    8.49
 -11 -10  15   29.39   17.87
 -11 -10  16   17.80   10.88
  11 -10  16    8.26    3.80
  11 -10  17   15.49    9.99
  11 -10  18   21.46   11.08
  11 -10  19    5.81    5.55
 -11 -11   0    2.63    5.82
 -11 -11   1    3.39    4.31
 -11 -11  -1   12.05   11.27
 -11 -11   2   17.91   10.72
 -11 -11  -2   38.31   16.88
 -11 -11   3   42.06   17.92
 -11 -11  -3   48.52   17.00
 -11 -11   4    6.72    9.27
 -11 -11  -4   15.03   11.42
 -11 -11  -5   75.66   22.44
 -11 -11   5   37.59   16.79
 -11 -11  -6   38.89   16.46
 -11 -11   6   38.59   15.89
 -11 -11  -7   -0.75    4.32
 -11 -11   7    7.77    9.92
 -11 -11  -8   67.23   19.73
 -11 -11   8   48.30   18.41
 -11 -11  -9    4.59    8.39
 -11 -11   9    2.27    7.85
 -11 -11  10   54.42   19.25
 -11 -11  11    1.94    7.56
 -11 -11  12   85.91   25.54
 -11 -11  13    4.19    7.57
  11 -11  14   57.94   17.88
  11 -11  15   25.52   11.08
  11 -11  16   31.30   13.06
  11 -11  17    7.61    7.74
 -11 -12   0    6.58    7.08
 -11 -12   1   -0.06    3.77
 -11 -12  -1    8.05    4.88
 -11 -12   2    7.46   10.34
 -11 -12  -2   -0.06    6.79
 -11 -12   3   25.06   15.88
 -11 -12  -3   16.18   11.00
 -11 -12   4   19.18   13.58
 -11 -12  -4   -2.67    5.92
 -11 -12   5   -4.08    8.91
 -11 -12  -5   17.00   13.05
 -11 -12  -6    9.50    8.86
 -11 -12   6   25.61   15.33
 -11 -12  -7   16.69   13.20
 -11 -12   7    4.44    6.83
 -11 -12  -8   14.97   10.46
 -11 -12   8   39.23   18.28
 -11 -12   9   62.23   21.57
 -11 -12  10   -0.07    4.01
  11 -12  13   35.50   13.44
  11 -12  14   14.95   10.38
  11 -12  15   27.76   13.36
  11 -12  16   22.90   10.87
 -11 -13   0   -3.23   10.07
 -11 -13   1   -7.30    9.40
 -11 -13  -1   -4.36    6.45
 -11 -13   2    3.52   10.82
 -11 -13  -2  -15.29   12.58
 -11 -13   3   11.92   14.45
 -11 -13  -3   23.32   12.86
 -11 -13   4   14.25   12.16
 -11 -13  -4   -0.59    7.03
 -11 -13   5   30.34   15.53
 -11 -13  -5   -1.64    6.68
 -11 -13   6   15.46   12.43
 -11 -13  -6    9.82    9.51
  11 -13  11   63.12   16.62
  11 -13  12    0.70    4.67
 -11 -14   0    0.70    8.78
 -11 -14   1   14.52    8.82
 -11 -14  -1    7.16    5.85
 -11 -14  -2  -11.92   12.98
 -11 -14  -3   13.61   11.11
 -11 -14  -4    3.57    9.14
 -11 -14  -5   40.49   16.50
 -12   0   0   13.48    9.31
 -12   0  -1   -0.74    3.83
 -12   0   1    1.05    6.18
 -12   0  -2   11.09    6.75
 -12   0   2   14.65    9.62
 -12   0  -3    3.35    7.32
 -12   0   3   -0.92    2.20
 -12   0   4    5.91    7.74
 -12   0  -4   12.87    9.21
 -12   0   5   -3.12    2.84
 -12   0  -5    1.60    8.14
 -12   0  -6   -1.40    5.84
 -12   0   6    5.82    9.28
 -12   0   7   -4.45    3.96
 -12   0  -7   -6.83    4.83
 -12   0  -8   50.36   17.76
 -12   0   8   41.24   15.84
 -12   0  -9    4.03    7.35
 -12   0   9    7.43    9.36
 -12   0  10   11.04   10.09
 -12   0  11   -7.82    8.11
 -12   0  12   12.32    9.66
 -12   0  13    5.85    8.45
 -12   0  14   29.73   12.23
 -12   0  15    5.24    6.17
 -12   0  16   22.77   12.39
 -12   0  17   25.16   14.67
 -12   0  18    0.82    7.73
 -12   0  19    3.82   10.99
 -12   0  20    1.23    7.76
 -12   0  21   -6.48   10.64
  12   0  21   -3.91    5.89
 -12   0  22   16.02   13.18
  12   0  22   16.78   10.33
 -12   0  23   17.31   13.06
  12   0  23   -2.62    6.11
 -12   0  24    8.66   10.21
  12   0  24    3.57    5.77
 -12   0  25    9.22   10.86
 -12   0  26   10.93   14.14
 -12   0  27   -9.74   10.60
 -12   1   0    3.95    4.19
 -12  -1   0    1.00    3.52
 -12   1   1   44.46   16.30
 -12  -1   1   34.13   13.08
 -12   1  -1   48.75   17.36
 -12  -1  -1   45.14   15.90
 -12   1   2   -5.04    8.80
 -12  -1   2    1.96    4.22
 -12  -1  -2   -4.60    6.28
 -12  -1   3  198.34   33.86
 -12  -1  -3  168.69   30.98
 -12   1   3  126.02   26.79
 -12   1  -3  199.02   33.06
 -12  -1  -4   12.25    8.97
 -12  -1   4   13.46    9.88
 -12   1  -4   23.04   12.34
 -12   1   4    7.50    6.70
 -12  -1   5  194.73   34.36
 -12   1   5  164.62   31.83
 -12  -1  -5  156.29   29.16
 -12   1  -5  133.63   26.50
 -12  -1   6    7.83    8.17
 -12  -1  -6   16.38   10.82
 -12   1  -6   12.72   10.00
 -12   1   6    5.59    9.20
 -12  -1   7   36.98   14.42
 -12   1  -7   35.36   13.51
 -12  -1  -7   35.28   13.88
 -12   1   7   67.95   19.51
 -12  -1   8   11.74    8.04
 -12   1   8    3.35    3.43
 -12  -1  -8   22.16   10.39
 -12  -1   9    0.83    7.91
 -12  -1  -9    2.72    4.56
 -12   1   9    5.92    9.88
 -12   1  10   -1.69    4.62
 -12  -1 -10   10.42    9.95
 -12  -1  10   -4.36    4.69
 -12  -1 -11    3.46    7.33
 -12   1  11    1.82    6.89
 -12  -1  11   -4.13    5.09
 -12   1  12   14.11   10.22
 -12  -1  12   -4.35    8.65
 -12   1  13   10.10   11.10
 -12  -1  13   -1.68    4.06
 -12   1  14   -4.39    6.07
 -12  -1  14    5.36    7.58
 -12   1  15    7.08    9.03
 -12  -1  15   24.07   14.48
 -12   1  16    1.01    4.61
 -12  -1  16   -1.58    3.95
 -12   1  17  122.47   29.65
 -12  -1  17  180.11   36.51
 -12   1  18   10.50    9.18
 -12  -1  18   -2.87    3.67
 -12   1  19  201.87   38.54
 -12  -1  19  211.44   39.48
 -12   1  20  -10.68   10.42
 -12  -1  20  -11.78    9.86
 -12   1  21   -3.82    8.28
  12  -1  21    4.81    3.09
  12   1  21   15.87   10.72
 -12  -1  21   -5.90   11.13
 -12   1  22   18.09   12.23
  12  -1  22   23.48   12.53
  12   1  22   16.21    8.79
 -12  -1  22   23.60   13.00
 -12   1  23   47.04   19.45
  12  -1  23   66.03   18.34
  12   1  23   57.61   16.82
 -12  -1  23   47.20   19.22
 -12   1  24   -1.65    4.21
  12   1  24    1.25    4.05
 -12   1  25   24.67   14.13
 -12  -1  25   62.11   21.67
 -12  -1  26   -4.32    6.08
 -12   1  26   23.50   14.22
 -12  -1  27   46.64   19.84
 -12  -2   0  149.14   30.10
 -12   2   0  131.45   27.07
 -12   2   1   97.31   22.84
 -12  -2   1  134.05   28.87
 -12  -2  -1  102.29   25.45
 -12   2  -1  119.02   25.72
 -12  -2   2   77.70   21.16
 -12  -2  -2  119.38   26.04
 -12   2   2   95.28   23.30
 -12   2  -2   88.08   21.95
 -12  -2   3   62.05   18.45
 -12   2  -3   52.29   17.21
 -12  -2  -3   53.98   18.55
 -12   2   3   53.86   17.09
 -12   2   4   55.64   17.99
 -12  -2  -4   53.64   18.08
 -12   2  -4   57.64   17.28
 -12  -2   4   31.51   14.05
 -12   2   5   74.15   20.55
 -12  -2  -5   39.22   14.28
 -12  -2   5   63.21   20.24
 -12  -2   6   -0.81    6.50
 -12  -2  -6    9.36    7.86
 -12  -2  -7    4.49    8.93
 -12   2   7   31.23   15.61
 -12  -2   7   24.45   11.59
 -12   2   8   -5.69    3.24
 -12  -2  -8    2.94    3.92
 -12  -2   8   -9.68    5.67
 -12   2   9    1.83    5.82
 -12  -2  -9    6.63    9.70
 -12  -2   9    9.28    4.92
 -12  -2  10   -0.51    5.85
 -12  -2 -10   14.52    8.77
 -12   2  10   12.63    9.85
 -12  -2 -11    3.25    5.34
 -12  -2  11    4.77    3.66
 -12   2  11   17.93    9.15
 -12  -2  12    7.99   11.30
 -12   2  12    4.08    8.38
 -12  -2 -12    3.15    6.28
 -12  -2 -13   45.49   16.01
 -12  -2  13   44.70   18.57
 -12   2  13   19.42   10.37
 -12  -2  14    5.81   10.31
 -12   2  14   26.23   13.49
 -12  -2  15   42.29   17.10
 -12   2  15   23.11   15.38
 -12  -2  16    4.62   12.50
 -12   2  16    5.89    9.13
 -12  -2  17   17.49    9.88
 -12   2  17   58.33   19.63
 -12  -2  18   22.54   12.34
 -12   2  18   -4.42    3.95
 -12  -2  19   38.13   19.35
 -12   2  19   29.81   14.81
 -12  -2  20    0.13    6.95
 -12   2  20   25.92   12.56
 -12  -2  21   24.13   14.53
  12  -2  21   38.56   13.24
  12   2  21   25.82   13.22
 -12   2  21   35.35   16.13
 -12  -2  22   86.16   25.64
  12  -2  22  140.97   26.42
  12   2  22  111.20   24.24
 -12   2  22   91.16   26.04
 -12  -2  23   68.10   22.82
  12  -2  23   82.88   20.16
  12   2  23  101.21   23.32
 -12   2  23   40.89   16.56
 -12  -2  24   65.43   24.09
  12   2  24   52.87   16.59
 -12   2  24   40.14   16.93
 -12   2  25    2.61    7.43
 -12  -2  25   27.55   17.10
 -12   2  26    9.80    7.24
 -12  -2  26    8.32    9.62
 -12   3   0   32.39   14.86
 -12  -3   0   26.58   12.67
 -12  -3  -1   73.97   20.54
 -12   3  -1   56.66   17.41
 -12   3   1   38.46   13.75
 -12  -3   1   64.40   18.41
 -12  -3  -2   63.50   21.29
 -12  -3   2   54.79   17.06
 -12   3   2   45.83   16.77
 -12  -3  -3   27.02   11.94
 -12   3   3   36.26   13.80
 -12  -3   3   68.66   20.55
 -12  -3  -4   47.68   16.93
 -12   3   4   24.90   12.56
 -12  -3   4   37.05   15.31
 -12   3   5    0.26    4.39
 -12  -3  -5    3.04    6.62
 -12  -3   5    3.75    6.45
 -12   3   6   49.23   17.05
 -12  -3  -6   46.61   15.36
 -12  -3   6   68.36   20.95
 -12  -3   7   16.87    9.69
 -12  -3  -7    8.59    7.78
 -12   3   7   16.04   12.51
 -12  -3   8   47.62   17.88
 -12   3   8   36.67   13.17
 -12  -3  -8   47.44   16.47
 -12  -3  -9   18.39   10.98
 -12  -3   9   21.36   11.02
 -12   3   9    1.18    6.46
 -12  -3 -10   15.02    9.14
 -12  -3  10   10.38   10.04
 -12   3  10   18.62   11.96
 -12  -3  11   25.16   13.97
 -12   3  11   19.50   10.67
 -12  -3 -11   19.41   10.20
 -12  -3 -12   15.41   10.10
 -12  -3  12   10.90    7.95
 -12   3  12    9.04   11.28
 -12  -3  13    7.66    8.72
 -12  -3 -13   -2.72    4.42
 -12   3  14   14.66   10.79
 -12  -3 -14   10.99    9.39
 -12  -3  14    0.24    3.45
 -12   3  15    4.71   11.21
 -12  -3  15   12.94    9.41
 -12   3  16   12.11   11.16
 -12  -3  16  -10.27    9.96
 -12   3  17   57.67   20.46
 -12  -3  17   74.61   22.51
 -12   3  18  130.58   29.56
 -12  -3  18  163.07   33.83
 -12   3  19    8.87    8.07
 -12  -3  19   33.43   16.62
 -12   3  20   68.61   20.41
 -12  -3  20   41.70   18.39
 -12   3  21    0.25    4.68
 -12  -3  21   -3.97    7.60
  12  -3  21   25.72   12.68
  12   3  21   25.19   13.06
 -12   3  22    9.29   11.98
 -12  -3  22    4.02    8.89
  12  -3  22   -8.06    8.32
  12   3  22    4.72    6.04
 -12  -3  23   48.37   20.82
 -12   3  23   40.58   17.55
  12   3  23   40.70   15.09
 -12  -3  24   33.77   18.70
 -12   3  24   -5.30    9.03
  12   3  24   49.81   17.07
 -12  -3  25   15.30   12.94
 -12   3  25   14.08    7.52
  12   3  25   25.13   12.23
 -12  -4   0    0.90    6.16
 -12  -4   1   -4.19    7.38
 -12  -4  -1   -1.41    6.05
 -12  -4   2    7.51    8.44
 -12  -4  -2   -4.84    4.35
 -12  -4  -3   50.95   18.22
 -12  -4   3   17.46    9.76
 -12   4   3   55.53   16.78
 -12  -4  -4   15.24   10.89
 -12  -4   4   21.91   11.53
 -12   4   4   38.17   14.85
 -12  -4  -5   -0.16    6.30
 -12   4   5   12.80   10.23
 -12  -4   5    2.79    8.04
 -12  -4  -6   10.04    8.48
 -12  -4   6   -2.71    8.06
 -12   4   6   13.78   11.27
 -12   4   7    4.41    7.78
 -12  -4  -7    7.47    9.68
 -12  -4   7   13.51   10.76
 -12  -4   8   -5.23    8.42
 -12  -4  -8    1.29    3.64
 -12   4   8   -0.78    5.83
 -12  -4   9   11.98   10.41
 -12  -4  -9    6.37   10.13
 -12   4   9   39.94   17.61
 -12  -4  10   -3.50    9.73
 -12   4  10   -1.49    6.18
 -12  -4 -10   -1.68    4.78
 -12  -4 -11   10.11    9.11
 -12  -4  11    0.12    5.55
 -12   4  11   10.03    9.86
 -12  -4  12    9.58    9.56
 -12  -4 -12    7.00    6.15
 -12   4  12    8.24    9.84
 -12  -4  13   -1.46    6.05
 -12   4  13   -0.56    8.05
 -12  -4 -13    4.21    6.19
 -12  -4 -14   -7.10    7.73
 -12   4  14    0.45    4.32
 -12  -4  14    6.27    5.53
 -12   4  15    5.48    7.31
 -12  -4  15   14.78   12.84
 -12  -4 -15   16.44    9.80
 -12   4  16    5.47    5.77
 -12  -4  16    5.26    4.16
 -12   4  17   20.34   13.11
 -12  -4  17   18.18   11.69
 -12   4  18   28.70   13.85
 -12  -4  18   55.67   21.52
 -12   4  19    5.61    7.64
 -12  -4  19   38.15   18.06
 -12   4  20   -6.24    7.62
 -12  -4  20    8.93   10.81
  12   4  20    8.39    9.74
 -12  -4  21    0.34    5.54
 -12   4  21    5.15    9.23
  12  -4  21    2.21    6.75
  12   4  21   11.79    9.68
 -12  -4  22   -7.93   10.50
 -12   4  22   -0.25    4.79
  12  -4  22   -1.91    3.49
  12   4  22   -4.83    6.74
 -12   4  23   15.07   13.35
  12   4  23    6.05    8.41
 -12  -4  24    2.10    8.03
 -12   4  24    8.25   12.25
  12   4  24    4.68    6.23
  12   4  25    7.34    8.38
 -12  -5   0   39.63   15.77
 -12  -5   1   60.65   19.30
 -12  -5  -1   48.20   16.40
 -12  -5   2  131.63   27.93
 -12  -5  -2   86.79   23.87
 -12  -5   3   72.20   21.34
 -12  -5  -3   47.70   17.64
 -12  -5   4   73.15   21.13
 -12  -5  -4   45.09   17.01
 -12  -5   5   50.61   16.89
 -12  -5  -5   75.65   21.91
 -12  -5  -6   20.28   12.41
 -12  -5   6   -2.49    7.03
 -12  -5  -7   18.16   10.36
 -12  -5   7   28.80   15.24
 -12  -5   8   16.14   10.25
 -12  -5  -8   19.71   11.40
 -12  -5   9   82.05   23.81
 -12  -5  -9   92.50   22.93
 -12  -5  10    5.18    2.97
 -12  -5 -10   -1.90    4.24
 -12  -5  11    1.93    5.46
 -12   5  11    2.13    6.98
 -12  -5 -11   -0.95    5.85
 -12  -5  12   -3.41    6.46
 -12   5  12    3.80    6.43
 -12  -5 -12   -2.59    4.15
 -12  -5  13   13.32   11.51
 -12  -5 -13   35.95   15.86
 -12   5  13   45.79   17.57
 -12  -5  14   -4.88    5.11
 -12   5  14   14.90   11.21
 -12  -5 -14    9.23    9.27
 -12   5  15   32.74   14.34
 -12  -5 -15   26.10   11.78
 -12  -5  15   15.57   10.77
 -12  -5  16   30.61   14.99
 -12   5  16   23.79   15.38
 -12  -5  17   14.57   10.34
 -12   5  17   17.89   12.04
 -12  -5  18   83.53   23.92
 -12   5  18   94.62   25.51
 -12   5  19    1.84    6.34
 -12  -5  19   27.32   15.44
 -12  -5  20   30.85   14.10
 -12   5  20   45.69   17.61
  12  -5  20   22.09   11.04
  12   5  20   30.78   13.10
 -12   5  21  128.40   28.78
 -12  -5  21   99.82   27.99
  12  -5  21   97.39   22.44
  12   5  21   88.94   21.59
 -12  -5  22   36.64   16.24
  12   5  22   74.26   19.72
 -12  -5  23   53.79   21.60
  12   5  23   35.96   13.73
  12   5  24   61.59   17.65
  12   5  25   -6.07    6.01
 -12  -6   0    9.42    7.61
 -12  -6   1   46.95   19.08
 -12  -6  -1   45.81   17.59
 -12  -6   2   12.29   10.48
 -12  -6  -2    6.19    5.24
 -12  -6   3    3.71    3.25
 -12  -6  -3   -2.24    5.66
 -12  -6   4   -1.08    4.35
 -12  -6  -4    3.07    5.90
 -12  -6   5    7.09    7.62
 -12  -6  -5   24.79   12.54
 -12  -6   6   -4.38    7.38
 -12  -6  -6    9.08    9.60
 -12  -6   7   38.09   18.42
 -12  -6  -7   29.60   13.74
 -12  -6  -8   25.25   13.52
 -12  -6   8   16.00   12.40
 -12  -6   9   26.85   12.82
 -12  -6  -9    7.67    7.60
 -12  -6  10   13.73    9.89
 -12  -6 -10    5.47    7.55
 -12  -6  11    7.12   11.41
 -12  -6 -11    9.99    8.73
 -12  -6  12   -7.62    6.67
 -12  -6 -12    7.68    8.00
 -12  -6  13   -4.95    8.62
 -12  -6 -13    6.06    6.86
 -12  -6  14   15.13   10.66
 -12  -6 -14    5.66    7.29
 -12  -6  15    0.66    8.80
 -12  -6  16    4.02    9.06
 -12  -6  17   10.92   11.58
 -12  -6  18   -9.83   11.43
 -12  -6  19    1.95    4.75
  12   6  19   -2.86    3.17
 -12  -6  20    6.91    7.56
  12  -6  20    5.39    6.74
  12   6  20   20.40   10.59
 -12  -6  21    5.12   11.62
  12   6  21    1.35    7.10
  12   6  22   -4.21    7.40
  12   6  23   38.94   13.91
  12   6  24    7.25    6.77
 -12  -7   0   -2.62    7.17
 -12  -7   1   -0.90    8.59
 -12  -7  -1   11.28    6.08
 -12  -7   2   21.58   13.82
 -12  -7  -2    5.06    4.45
 -12  -7   3   14.49    7.67
 -12  -7  -3    5.01    6.52
 -12  -7   4  183.18   34.56
 -12  -7  -4  167.65   31.91
 -12  -7   5    4.74    6.16
 -12  -7  -5    7.47    6.05
 -12  -7   6   27.17   13.27
 -12  -7  -6   60.12   18.55
 -12  -7   7    8.08    7.58
 -12  -7  -7    4.85    4.22
 -12  -7   8    4.65    6.89
 -12  -7  -8   -0.84    6.65
 -12  -7  -9   12.69    8.14
 -12  -7   9    5.79    9.49
 -12  -7  10   -7.59    9.58
 -12  -7 -10   13.41    9.62
 -12  -7  11   -6.33    8.46
 -12  -7 -11    8.91    9.79
 -12  -7  12   -2.22    4.75
 -12  -7 -12   -9.30    7.61
 -12  -7  13    7.34    9.21
 -12  -7 -13    8.55    6.98
 -12  -7  14   21.58   14.57
 -12  -7  15    0.27    4.59
 -12  -7  16   26.24   15.02
 -12  -7  17    8.61    9.03
 -12  -7  18  178.53   38.67
  12   7  18  182.23   30.54
 -12  -7  19   12.45   11.80
  12  -7  19    2.51    3.23
  12   7  19   13.91    9.77
  12   7  20  -10.17    9.15
  12   7  21   -6.47    8.23
 -12  -8   0   51.77   18.09
 -12  -8   1   13.14   12.82
 -12  -8  -1   13.80   10.05
 -12  -8   2   -4.11    7.50
 -12  -8  -2   30.71   15.22
 -12  -8   3   -1.61    8.49
 -12  -8  -3    4.88    9.90
 -12  -8   4   -8.73   10.20
 -12  -8  -4    1.04    5.54
 -12  -8   5   21.20   13.38
 -12  -8  -5    2.89    4.37
 -12  -8   6   -3.22    4.89
 -12  -8  -6    6.58    8.06
 -12  -8   7   -2.50    5.51
 -12  -8  -7   10.28   11.35
 -12  -8  -8    3.73    8.72
 -12  -8   8    5.95    9.84
 -12  -8  -9   -0.27    5.76
 -12  -8   9   26.12   16.58
 -12  -8 -10   21.12   14.20
 -12  -8  10    5.82    6.65
 -12  -8 -11    6.92    8.04
 -12  -8  11   -4.33    9.43
 -12  -8 -12   16.32   11.50
 -12  -8  12   18.64   19.04
 -12  -8  13    3.03    7.14
 -12  -8  14    2.25    6.96
 -12  -8  15    2.69    8.84
 -12  -8  16   -2.66    5.64
 -12  -8  17    4.75    5.44
  12  -8  18   -5.07    5.44
 -12  -9   0  170.02   34.48
 -12  -9   1    9.70    7.96
 -12  -9  -1   -8.77    6.23
 -12  -9   2  129.43   29.67
 -12  -9  -2  158.21   33.26
 -12  -9   3   12.61    9.52
 -12  -9  -3   15.59    9.93
 -12  -9  -4   54.26   19.07
 -12  -9   4   65.76   23.29
 -12  -9  -5   15.14   12.46
 -12  -9   5   22.22   12.35
 -12  -9  -6    7.95    6.69
 -12  -9   6   10.75    9.51
 -12  -9  -7   16.77    8.32
 -12  -9   7  -11.95   14.27
 -12  -9  -8   23.31   12.88
 -12  -9   8   70.83   23.07
 -12  -9  -9    8.06    8.47
 -12  -9   9   -9.17    8.83
 -12  -9 -10    5.18    6.50
 -12  -9  10   -0.27    7.12
 -12  -9  11   -2.49    5.83
 -12  -9 -11    4.24    4.47
 -12  -9  12   23.51   15.99
 -12  -9  13   -4.97    6.64
 -12  -9  14    1.61    4.18
  12  -9  17   -1.39    6.19
 -12 -10   0   10.77    7.70
 -12 -10   1   -8.55   11.61
 -12 -10  -1    9.43   11.46
 -12 -10  -2    2.75    7.00
 -12 -10   2    1.06    6.08
 -12 -10  -3    5.34   10.30
 -12 -10   3   -3.52    9.04
 -12 -10  -4    1.85    6.00
 -12 -10   4    4.00    7.04
 -12 -10  -5   73.09   22.96
 -12 -10   5    6.02    8.83
 -12 -10  -6    2.81    4.02
 -12 -10   6   23.24   12.83
 -12 -10  -7  -10.30    7.99
 -12 -10   7   -1.91    5.86
 -12 -10  -8   -9.71    9.22
 -12 -10   8   17.24   14.78
 -12 -10  -9    6.10    8.51
 -12 -10   9    3.65    6.16
 -12 -10 -10   30.19   15.08
 -12 -10  10   19.38   12.43
 -12 -10  11   11.20   10.58
 -12 -10  12   19.10   16.82
 -12 -11   0    1.45    6.06
 -12 -11  -1   60.23   21.88
 -12 -11   1   23.78   12.13
 -12 -11  -2   67.52   21.94
 -12 -11   2  106.47   27.84
 -12 -11  -3   39.73   18.56
 -12 -11   3   54.28   19.00
 -12 -11  -4   80.71   23.84
 -12 -11   4   76.94   24.65
 -12 -11  -5   96.42   26.14
 -12 -11   5   35.57   16.75
 -12 -11  -6   -5.34   10.13
 -12 -11   6   -7.18    8.75
 -12 -11  -7    6.40    6.10
 -12 -11   7    9.26    8.67
 -12 -11  -8   18.60   11.99
 -12 -11   8   14.62   13.40
 -12 -12   0    3.17    5.67
 -12 -12   1   -8.02    8.34
 -12 -12  -1   -1.16    6.75
 -12 -12  -2    2.18    9.00
 -12 -12   2   -0.59    3.91
 -12 -12  -3   -9.19    6.74
 -12 -12   3   -2.74    6.84
 -12 -12  -4    4.34    4.55
 -12 -12   4   -6.97   11.78
 -12 -12  -5    9.59   10.57
 -12 -12  -6   29.47   16.38
 -12 -12  -7    4.99    4.79
 -12 -13  -1   80.45   24.48
 -12 -13  -2   52.69   20.97
 -12 -13  -3    4.02    9.07
 -12 -13  -4    9.10   11.57
 -13   0   0   10.71   12.25
 -13   0   1   11.70    9.39
 -13   0  -1    2.53    5.99
 -13   0  -2   19.42   11.46
 -13   0   2   16.89   10.65
 -13   0  -3    9.92    8.40
 -13   0   3    2.86    4.32
 -13   0   4   11.85    6.79
 -13   0  -4   17.05   13.61
 -13   0  -5   -1.29    6.82
 -13   0   5    5.34    8.81
 -13   0   6  123.64   30.25
 -13   0  -6  184.70   32.63
 -13   0  -7   11.23    8.81
 -13   0   7   16.68   13.04
 -13   0  -8   22.08   15.08
 -13   0   8   19.97    7.00
 -13   0  -9   -0.82    8.07
 -13   0   9   10.73   13.71
 -13   0  10   31.93   16.46
 -13   0  11    2.06    5.84
 -13   0  12   -1.14    5.37
 -13   0  13   13.54   10.41
 -13   0  14   75.19   23.99
 -13   0  15    4.02    5.95
 -13   0  16  148.41   33.34
 -13   0  17   -3.39    6.86
 -13   0  18    2.95    4.24
 -13   0  19   14.40   12.62
 -13   0  20   -1.12    4.88
 -13   0  21    6.46    9.44
 -13   0  22   22.06   12.95
 -13   0  23    5.79    7.15
 -13  -1   0    4.99    7.13
 -13   1   0    0.83    4.09
 -13   1   1    5.84    8.56
 -13  -1   1   12.31   10.02
 -13  -1  -1   12.90   10.99
 -13   1  -1    1.04    3.73
 -13   1  -2   11.28    9.44
 -13   1   2   22.09   13.28
 -13  -1   2   30.21   13.41
 -13  -1  -2   24.44   11.62
 -13   1   3    7.60    7.85
 -13   1  -3    0.85    6.46
 -13  -1   3    0.17    5.07
 -13   1   4   41.20   16.01
 -13  -1  -4   16.09   10.19
 -13  -1   4   50.95   19.94
 -13   1  -4   50.19   18.97
 -13   1   5   64.57   20.02
 -13  -1   5   29.13   13.23
 -13  -1  -5   56.47   19.33
 -13   1  -5   45.97   16.33
 -13   1   6  -13.49    9.10
 -13   1  -6    3.46    4.56
 -13  -1   6   10.88    9.68
 -13  -1  -6   27.62   12.87
 -13  -1  -7   30.11   14.12
 -13  -1   7   41.16   16.00
 -13   1   7   39.39   16.71
 -13  -1   8    3.66   10.22
 -13  -1  -8   22.07   12.09
 -13   1   8    7.39    8.20
 -13  -1   9   18.21   13.86
 -13  -1  -9   10.34    9.26
 -13   1   9   13.02   12.48
 -13  -1  10   -2.68    7.50
 -13   1  10    1.40    7.18
 -13  -1 -10   14.58   10.87
 -13  -1  11   -5.65    3.77
 -13  -1 -11   -2.29    5.94
 -13   1  11   10.27   10.62
 -13  -1  12   53.61   20.52
 -13   1  12   18.80   12.38
 -13  -1  13   32.64   17.47
 -13   1  13   21.65   10.46
 -13  -1  14   43.73   19.70
 -13   1  14   23.58   16.65
 -13  -1  15   41.93   16.44
 -13   1  15   85.40   23.82
 -13  -1  16   67.32   23.98
 -13   1  16   32.60   15.55
 -13  -1  17    8.71    8.00
 -13   1  17   34.15   17.25
 -13  -1  18   28.13   15.43
 -13   1  18   17.63   10.32
 -13  -1  19   32.69   18.10
 -13   1  19   -2.99    5.55
 -13  -1  20    1.99    4.26
 -13   1  20   45.94   20.78
 -13  -1  21   17.34   13.68
 -13   1  21    4.18   11.75
 -13  -1  22    4.46    7.23
 -13   1  22  -13.24   12.59
 -13  -1  23  -10.93   13.81
 -13   1  23    1.64    4.84
 -13   1  24   12.35   12.25
 -13  -2   0    3.93    7.64
 -13   2   0   -5.94    6.60
 -13   2  -1    5.51    6.87
 -13  -2   1   24.59   14.77
 -13   2   1   27.25   14.57
 -13  -2  -1    9.20    9.08
 -13   2   2    2.88    8.28
 -13  -2   2    1.11    5.26
 -13  -2  -2    6.03    6.85
 -13   2  -2   -4.00    5.32
 -13   2  -3   -0.98    7.59
 -13   2   3   -3.15    4.56
 -13  -2   3   -2.98    5.97
 -13  -2  -3    1.11    3.30
 -13  -2   4    8.71   10.80
 -13   2   4   -7.03    8.69
 -13  -2  -4    0.33    3.56
 -13  -2  -5   -2.97    5.53
 -13  -2   5    0.66    5.85
 -13   2   5   -7.20    9.59
 -13  -2   6   30.03   14.83
 -13  -2  -6   76.82   21.85
 -13   2   6   48.31   16.76
 -13  -2   7   18.95   10.61
 -13  -2  -7   24.60   11.69
 -13   2   7   25.68   16.89
 -13  -2   8   -3.52    5.54
 -13   2   8   15.07   12.20
 -13  -2  -8    4.71    6.19
 -13   2   9   35.80   16.74
 -13  -2   9   33.84   15.23
 -13  -2  -9    8.76    7.36
 -13   2  10    7.98    8.99
 -13  -2 -10    8.21    9.06
 -13  -2  10   30.68   12.17
 -13   2  11   28.47   15.12
 -13  -2 -11    8.79    9.58
 -13  -2  11   -3.06    8.88
 -13  -2 -12   86.95   22.67
 -13   2  12   59.66   21.62
 -13  -2  12   99.41   27.46
 -13   2  13   11.47    7.59
 -13  -2  13   54.72   21.57
 -13   2  14   -2.10    7.44
 -13  -2  14    6.38    8.04
 -13   2  15   24.69   15.42
 -13  -2  15   26.71   17.59
 -13   2  16   60.05   24.47
 -13  -2  16  107.51   29.30
 -13   2  17   12.88   11.72
 -13  -2  17    8.76   14.05
 -13   2  18  -12.51   11.07
 -13  -2  18   -6.98    4.17
 -13   2  19   -6.23    9.25
 -13  -2  19    1.34    7.16
 -13   2  20   19.18   13.89
 -13  -2  20    2.86    7.52
 -13   2  21   17.27   12.44
  13   2  21   37.69   16.94
 -13  -2  21   27.23   15.31
 -13   2  22   -8.28   12.58
 -13  -2  22   17.68   13.99
 -13   2  23    3.39    9.84
 -13   2  24   -3.06    7.95
 -13   3   0    4.88    7.32
 -13  -3   0    4.26    5.62
 -13  -3   1   13.09    9.19
 -13  -3  -1    0.99    4.11
 -13   3   1    8.29    4.38
 -13  -3   2   16.92   13.40
 -13  -3  -2   -4.68    9.49
 -13   3   2    8.03   12.86
 -13   3   3  122.04   26.97
 -13  -3  -3   96.11   24.91
 -13  -3   3  163.69   33.17
 -13   3   4    5.90    5.29
 -13  -3   4   -0.78    4.23
 -13   3   5  -11.20   11.39
 -13  -3  -5   -8.43    9.53
 -13  -3   5   -5.08    4.67
 -13   3   6   21.59   14.56
 -13  -3  -6   19.12   13.76
 -13  -3   6   27.86   15.46
 -13   3   7   36.07   16.77
 -13  -3   7   42.08   16.38
 -13  -3  -7   50.40   17.36
 -13  -3  -8   37.11   17.83
 -13   3   8   40.99   16.23
 -13  -3   8   39.38   18.30
 -13   3   9  141.59   31.29
 -13  -3  -9  117.22   27.40
 -13  -3   9  136.39   30.98
 -13  -3 -10   84.16   23.78
 -13  -3  10   84.97   23.32
 -13   3  10   55.83   19.25
 -13   3  11  179.76   34.46
 -13  -3 -11  149.89   30.27
 -13  -3  11  195.68   37.05
 -13  -3 -12    8.30    7.86
 -13  -3  12   23.17   15.28
 -13   3  12   21.14   12.47
 -13  -3 -13    2.35    3.54
 -13  -3  13    7.80   10.82
 -13   3  13   -4.53    6.69
 -13  -3 -14   16.77   11.72
 -13   3  14   28.80   16.14
 -13  -3  15   24.67   13.63
 -13   3  15   -3.44    8.59
 -13  -3  16   32.87   16.28
 -13   3  16   26.44   12.10
 -13  -3  17   11.63    9.73
 -13   3  17   -2.22    6.93
 -13  -3  18    7.59    6.48
 -13   3  18  -13.03   10.34
 -13  -3  19   28.06   13.97
 -13   3  19    0.94    6.00
 -13  -3  20   -5.59    7.87
 -13   3  20  -10.10   10.24
 -13  -3  21   -3.38   10.30
  13   3  21   18.30   10.54
 -13   3  21   -4.53   10.31
 -13   3  22    1.81    6.23
 -13   3  23   14.70   12.38
 -13  -4   0    7.14   10.89
 -13  -4  -1   39.49   15.85
 -13  -4   1   10.16    6.87
 -13  -4  -2   13.84    9.05
 -13  -4   2    6.64    5.15
 -13  -4  -3   52.74   19.49
 -13  -4   3   34.52   17.16
 -13  -4  -4   12.86   10.91
 -13  -4   4   13.84    9.26
 -13  -4  -5    1.76    6.68
 -13   4   5   11.11   11.20
 -13  -4   5   -1.36    3.18
 -13   4   6   16.48   13.06
 -13  -4  -6   24.67   14.23
 -13  -4   6   14.05   12.22
 -13   4   7   56.67   20.53
 -13  -4   7   21.55   14.14
 -13  -4  -7   58.77   19.49
 -13  -4   8   10.48    9.87
 -13  -4  -8   12.38    9.54
 -13   4   8   20.41   14.74
 -13   4   9   25.61   14.50
 -13  -4   9    2.38    5.77
 -13  -4  -9    6.20    8.75
 -13  -4 -10    5.00    6.67
 -13   4  10   -0.06    5.40
 -13  -4  10   -8.25   11.52
 -13   4  11   39.62   16.09
 -13  -4 -11   39.54   16.86
 -13  -4  11   56.01   19.95
 -13  -4  12   -3.18    7.83
 -13  -4 -12   10.22    8.87
 -13   4  12   -9.65   10.63
 -13  -4 -13   -2.76    5.48
 -13  -4  13  -10.45   11.91
 -13   4  13    4.64    3.36
 -13  -4  14  -10.78    9.22
 -13   4  14   -1.67    4.70
 -13  -4 -14    2.88    6.67
 -13  -4 -15   20.29    9.14
 -13  -4  15   56.03   22.22
 -13   4  15   47.31   17.61
 -13  -4  16   -4.59    4.67
 -13   4  16    0.13    8.04
 -13  -4  17   10.56    8.18
 -13   4  17    6.08    5.93
 -13  -4  18   -3.49    6.16
 -13   4  18   17.23   12.95
 -13  -4  19   32.72   16.39
 -13   4  19   24.99   14.91
 -13   4  20   -2.06    7.45
  13   4  21   13.69    9.86
 -13   4  21    1.41    7.72
 -13   4  22    7.59   11.45
 -13   4  23    2.21    7.05
 -13  -5   0   13.14   11.45
 -13  -5   1   -4.18    3.81
 -13  -5  -1    1.60    3.41
 -13  -5   2   -0.06    4.84
 -13  -5  -2   26.82   14.42
 -13  -5  -3   23.70   14.77
 -13  -5   3   -4.99    8.73
 -13  -5  -4   43.40   15.31
 -13  -5   4   62.34   20.43
 -13  -5  -5   86.44   23.15
 -13  -5   5   51.90   19.78
 -13  -5  -6    1.85    5.49
 -13  -5   6   10.62    7.32
 -13  -5  -7   86.07   24.42
 -13  -5   7   66.06   22.72
 -13  -5   8    6.63    9.05
 -13  -5  -8    1.91    7.83
 -13  -5   9    0.78    5.50
 -13  -5  -9    2.07    5.98
 -13  -5  10    8.05    8.62
 -13  -5 -10   19.27   14.18
 -13  -5 -11   -0.73    6.11
 -13  -5  11   18.30   15.32
 -13  -5 -12   21.65   11.87
 -13  -5  12   -2.03    4.00
 -13  -5  13   31.30   15.72
 -13  -5 -13   -0.88    6.75
 -13  -5 -14   -1.31    3.52
 -13  -5  14   19.96   15.74
 -13  -5  15   72.48   24.04
 -13  -5  16    4.26    6.43
 -13  -5  17   26.24   14.07
 -13  -5  18    8.00    8.17
  13   5  20   12.42    8.18
  13   5  21    7.72    9.14
  13   5  22    7.10    7.46
 -13  -6   0    1.46    6.23
 -13  -6   1   17.40   13.58
 -13  -6  -1    2.36    5.38
 -13  -6   2   10.99    8.77
 -13  -6  -2   14.90   11.39
 -13  -6   3    7.26    4.51
 -13  -6  -3    1.61    7.42
 -13  -6   4   14.93   11.33
 -13  -6  -4   14.59   10.71
 -13  -6  -5   48.39   19.05
 -13  -6   5   40.44   17.25
 -13  -6  -6    2.46    5.32
 -13  -6   6    4.89    6.98
 -13  -6  -7   60.09   20.09
 -13  -6   7   68.09   21.97
 -13  -6  -8   56.32   20.73
 -13  -6   8   19.08   14.65
 -13  -6   9   -8.02    9.14
 -13  -6  -9   10.18    9.65
 -13  -6  10   -8.19   11.11
 -13  -6 -10   -2.60    6.39
 -13  -6  11   23.55   13.53
 -13  -6 -11   18.82   11.94
 -13  -6  12   16.34   13.92
 -13  -6 -12    4.00    6.70
 -13  -6 -13   33.20   14.79
 -13  -6  13   22.22   14.54
 -13  -6  14   34.49   20.09
 -13  -6  15   13.87    8.39
 -13  -6  16    8.36    7.36
  13   6  19    8.89    8.89
  13   6  20   11.23    7.69
  13   6  21    2.47    3.70
 -13  -7   0    3.20    7.98
 -13  -7   1    8.70    9.13
 -13  -7  -1   16.36   13.32
 -13  -7   2   26.33   15.33
 -13  -7  -2    2.69    8.81
 -13  -7   3    0.32    4.04
 -13  -7  -3    3.28    9.94
 -13  -7   4   33.03   16.59
 -13  -7  -4   31.60   15.31
 -13  -7   5   26.29   15.04
 -13  -7  -5   -1.98    6.94
 -13  -7   6   10.85   11.71
 -13  -7  -6   21.74   15.41
 -13  -7  -7   10.85   10.55
 -13  -7   7   -4.27    3.93
 -13  -7  -8    8.96    9.68
 -13  -7   8   29.63   16.02
 -13  -7   9   14.22    8.98
 -13  -7  -9   12.66   10.73
 -13  -7  10   47.66   19.54
 -13  -7 -10   47.47   18.19
 -13  -7  11   23.15   14.56
 -13  -7 -11   -3.27    7.55
 -13  -7  12   94.56   26.96
 -13  -7 -12  108.97   27.21
 -13  -7  13    6.01    9.34
 -13  -7  14   -8.33   10.56
 -13  -8   0    7.89   11.43
 -13  -8   1    6.31    9.04
 -13  -8  -1   -3.81    4.25
 -13  -8   2   13.32   10.23
 -13  -8  -2    6.00    7.50
 -13  -8   3   16.11   11.42
 -13  -8  -3    5.73    4.64
 -13  -8   4    7.68    8.24
 -13  -8  -4    6.96   10.43
 -13  -8   5   21.10   12.41
 -13  -8  -5   26.37   14.42
 -13  -8   6   18.86   13.07
 -13  -8  -6   18.67   10.56
 -13  -8   7   29.41   13.47
 -13  -8  -7   28.75   14.21
 -13  -8   8   13.56   12.23
 -13  -8  -8    1.02    4.67
 -13  -8  -9   12.99    9.90
 -13  -8   9   38.99   19.29
 -13  -8  10   43.47   17.58
 -13  -8 -10   37.73   17.92
 -13  -8  11   -7.46   10.56
 -13  -8 -11    6.24    5.08
 -13  -8  12    9.46   10.32
 -13  -9   0   -6.38    6.64
 -13  -9   1    5.43    7.55
 -13  -9  -1   -0.70    5.88
 -13  -9   2   57.48   20.71
 -13  -9  -2    2.67    5.23
 -13  -9   3   30.78   17.07
 -13  -9  -3   55.83   21.42
 -13  -9   4   -1.62    4.16
 -13  -9  -4  -15.03   11.69
 -13  -9   5   -5.07    5.59
 -13  -9  -5    8.15   10.28
 -13  -9   6   18.81   15.65
 -13  -9  -6   22.36   12.27
 -13  -9   7   23.13   16.60
 -13  -9  -7   33.16   17.61
 -13  -9   8   26.44   12.74
 -13  -9  -8   39.87   17.58
 -13  -9   9   28.19   14.45
 -13  -9  -9   23.97   14.28
 -13  -9 -10   16.99   13.02
 -13 -10   0   17.83   12.69
 -13 -10   1   26.23   17.97
 -13 -10  -1    0.33    6.40
 -13 -10   2   13.67   11.83
 -13 -10  -2    0.59    7.62
 -13 -10   3    5.46    8.76
 -13 -10  -3   18.11   12.28
 -13 -10   4   19.50   15.16
 -13 -10  -4   10.89   10.40
 -13 -10   5    1.71    6.19
 -13 -10  -5    5.65    8.16
 -13 -10  -6    3.28    7.83
 -13 -10  -7   23.96   14.56
 -13 -10  -8   27.44   15.04
 -13 -11   0    7.88    5.50
 -13 -11   1   18.44   13.70
 -13 -11  -1    8.44    6.64
 -13 -11  -2    4.68   10.76
 -13 -11  -3    9.69   11.74
 -13 -11  -4   25.37   14.48
 -13 -11  -5    9.87   10.32
 -13 -11  -6   -1.68    4.40
 -13 -11  -7   -1.86    6.12
 -14   0   0   25.16   13.43
 -14   0   1    8.28   10.22
 -14   0  -1    9.01    8.76
 -14   0   2    5.45    6.42
 -14   0  -2   42.97   16.92
 -14   0  -3  -11.77   11.02
 -14   0   3   -5.39    5.53
 -14   0   4  105.13   28.64
 -14   0  -4  101.37   26.50
 -14   0  -5   -4.35    7.23
 -14   0   5    5.95    7.07
 -14   0  -6    3.36    6.42
 -14   0   6   23.12   12.41
 -14   0  -7    0.12    5.17
 -14   0   7   -0.66    4.17
 -14   0   8   14.95   12.72
 -14   0   9   12.03    8.06
 -14   0  10   95.30   28.68
 -14   0  11    3.63    8.89
 -14   0  12   39.24   19.57
 -14   0  13   20.45   15.75
 -14   0  14    7.23    8.66
 -14   0  15   -5.88    8.93
 -14   0  16   58.96   22.89
 -14   0  17  -15.17   12.98
 -14  -1   0  147.44   31.90
 -14   1   0  143.63   31.18
 -14   1   1    0.19    3.30
 -14  -1  -1   -0.50    4.01
 -14   1  -1   14.99   10.64
 -14  -1   1    5.04    5.40
 -14  -1  -2   38.75   15.97
 -14   1  -2   41.97   16.77
 -14   1   2   40.79   15.31
 -14  -1   2   14.15    9.69
 -14   1  -3   18.71   11.97
 -14  -1  -3   24.10   13.07
 -14   1   3    4.95    5.85
 -14  -1   3   -6.21   10.07
 -14   1   4    8.85   11.02
 -14  -1  -4    6.61    9.21
 -14  -1   4    4.45    7.61
 -14   1  -4    2.26    7.05
 -14   1   5   57.82   20.41
 -14  -1   5   32.64   17.33
 -14   1  -5   77.49   23.14
 -14  -1  -5   32.75   15.46
 -14   1   6   -8.71    7.63
 -14  -1   6   -0.72    5.44
 -14   1   7  -10.69   11.58
 -14  -1  -7   17.70   12.79
 -14  -1   7    8.38    6.73
 -14   1   8   12.48    9.63
 -14  -1   8   20.29   12.39
 -14  -1  -8   33.33   14.76
 -14   1   9   -6.73    6.32
 -14  -1   9   -8.45   10.83
 -14  -1  -9    4.01    6.12
 -14   1  10   17.68   13.28
 -14  -1  10    0.76    9.39
 -14  -1 -10   14.30   10.07
 -14   1  11    6.75   10.32
 -14  -1  11    9.88   11.55
 -14  -1  12    5.32    9.60
 -14   1  12   36.09   20.02
 -14  -1  13   20.95   13.68
 -14   1  13    4.60    4.08
 -14  -1  14    6.41   10.30
 -14   1  14   -9.52   10.71
 -14  -1  15   32.35   17.28
 -14   1  15   27.97   18.83
 -14  -1  16   25.15   16.81
 -14   1  16    2.96    8.88
 -14  -1  17    0.91    5.06
 -14   1  17    3.28    8.73
 -14   2   0  169.09   34.18
 -14  -2   0  159.53   33.28
 -14   2  -1    0.66    5.53
 -14  -2   1    8.18    7.23
 -14   2   1   13.75   10.37
 -14   2  -2  202.93   38.06
 -14  -2  -2  173.08   35.27
 -14  -2   2  134.99   29.74
 -14   2   2  168.03   34.37
 -14  -2  -3   11.64    7.56
 -14   2   3    3.86    5.97
 -14  -2   3    1.82    4.85
 -14  -2  -4   43.51   18.79
 -14   2   4   79.34   23.97
 -14  -2   4   46.51   19.17
 -14   2   5   32.56   15.74
 -14  -2  -5   29.29   14.37
 -14  -2   5   20.19   14.06
 -14  -2   6    5.34    9.67
 -14  -2  -6   -0.67    6.96
 -14   2   6   10.50   12.29
 -14  -2   7  -14.01   14.34
 -14  -2  -7   13.20   12.19
 -14   2   7   10.66   11.18
 -14  -2  -8   25.63   15.29
 -14  -2   8   21.19   12.04
 -14   2   8    9.12   10.84
 -14  -2   9   23.58   13.67
 -14  -2  -9    1.82    6.65
 -14   2   9   18.39   13.44
 -14  -2  10   13.17   11.48
 -14   2  10   14.52   11.64
 -14  -2 -10    6.59    8.84
 -14  -2 -11   13.35   10.90
 -14   2  11    7.40   10.89
 -14  -2  12   41.26   19.84
 -14   2  12   23.00   14.91
 -14  -2  13    3.65    6.19
 -14   2  13  -12.91    8.56
 -14  -2  14   17.35   14.38
 -14   2  14   34.39   18.57
 -14  -2  15   12.32    9.73
 -14   2  15   -0.70    8.32
 -14  -2  16   -8.16    9.66
 -14   2  17   16.48   13.26
 -14  -3   0   15.24   13.52
 -14  -3   1   83.60   24.96
 -14  -3  -1  136.96   31.02
 -14   3   2    1.32    6.19
 -14  -3   2    7.29   10.34
 -14  -3  -2    2.07    7.52
 -14  -3   3    7.25    9.89
 -14   3   3   -0.31    5.45
 -14  -3  -3    1.37    4.18
 -14  -3   4   16.67   12.10
 -14  -3  -4    0.31    6.13
 -14   3   4   -3.05    7.39
 -14  -3   5   12.12   11.60
 -14   3   5   -1.06    9.32
 -14  -3  -5   18.49   13.97
 -14   3   6   54.31   19.06
 -14  -3  -6   35.45   17.37
 -14  -3   6   39.10   17.54
 -14  -3   7   24.50   14.27
 -14  -3  -7   46.23   17.82
 -14   3   7   35.27   13.95
 -14  -3   8   35.75   15.31
 -14  -3  -8   23.94   12.54
 -14   3   8   30.44   16.95
 -14   3   9   24.37   15.16
 -14  -3  -9   17.03    6.83
 -14  -3   9   24.24   13.91
 -14  -3 -10   -4.92    9.82
 -14   3  10    4.98    5.14
 -14  -3  10    3.33   10.35
 -14   3  11   -6.36    5.51
 -14  -3 -11   -4.19    7.74
 -14  -3  11   -3.37    7.65
 -14  -3 -12    6.21    4.21
 -14   3  12   -2.09    5.55
 -14  -3  12   17.75   15.21
 -14   3  13   24.01   15.51
 -14  -3  13   15.18   11.80
 -14  -3 -13   21.07   13.27
 -14   3  14   -2.61   10.53
 -14  -3  14   68.09   23.29
 -14   3  15   16.19   12.46
 -14  -3  15   22.10   14.75
 -14   3  16  -12.64   11.34
 -14   3  17    6.14   11.05
 -14  -4   0    1.80    6.32
 -14  -4   1    3.35    8.67
 -14  -4  -1   -6.95    6.39
 -14  -4   2   -3.08    7.61
 -14  -4  -2   24.34   14.93
 -14  -4   3   13.26    8.26
 -14  -4  -3   65.32   23.20
 -14  -4  -4   38.57   17.36
 -14  -4   4   16.27   10.60
 -14  -4  -5   50.41   19.24
 -14  -4   5   31.49   16.09
 -14  -4  -6   25.75   15.42
 -14  -4   6   10.83   10.15
 -14  -4   7   24.61   16.41
 -14  -4  -7   40.23   18.64
 -14  -4  -8   -3.02    9.32
 -14   4   8   19.04   14.86
 -14  -4   8   12.90   12.04
 -14  -4  -9   32.58   14.99
 -14   4   9   17.44    9.71
 -14  -4   9   -1.36    3.79
 -14  -4 -10   -4.87    9.47
 -14   4  10    4.48    7.73
 -14  -4  10    3.55    7.23
 -14   4  11   40.98   18.16
 -14  -4  11   27.25   16.00
 -14  -4 -11   10.79   10.42
 -14  -4 -12    3.10    6.76
 -14  -4  12   11.95    8.44
 -14   4  12   24.24   15.55
 -14   4  13   16.99    9.80
 -14  -4  13    8.96   10.19
 -14  -4 -13    7.16    6.87
 -14   4  14   16.63   13.07
 -14  -4 -14   -0.83    7.43
 -14   4  15    1.38    6.94
 -14   4  16  -18.20   13.73
 -14  -5   0   -0.33    5.92
 -14  -5  -1    2.25    6.34
 -14  -5   1    2.60    8.37
 -14  -5  -2   -4.97    6.73
 -14  -5   2   24.32   13.77
 -14  -5  -3   14.61   12.23
 -14  -5   3    3.28    4.46
 -14  -5  -4   28.93   15.93
 -14  -5   4   30.22   17.57
 -14  -5  -5   -0.19    6.49
 -14  -5   5   12.14   12.15
 -14  -5  -6    9.94    9.52
 -14  -5   6   18.34   13.17
 -14  -5  -7   -3.88    3.81
 -14  -5   7   -0.50    5.21
 -14  -5   8    4.17    7.97
 -14  -5  -8   10.49   11.28
 -14  -5   9    9.75   10.38
 -14  -5  -9   -2.99    6.79
 -14  -5 -10   10.48    9.64
 -14  -5  10   -8.24    9.74
 -14  -5 -11    0.12    5.23
 -14  -5  11    8.06   13.48
 -14  -5  12    6.06    9.69
 -14  -5 -12   -7.45    9.47
 -14  -5 -13   19.53   14.44
 -14  -6   0   43.36   17.80
 -14  -6   1   99.83   27.75
 -14  -6  -1   78.03   24.16
 -14  -6   2   26.77   14.58
 -14  -6  -2   41.29   17.61
 -14  -6  -3  120.17   29.90
 -14  -6   3   89.66   26.26
 -14  -6  -4   21.80   14.13
 -14  -6   4   11.94   10.47
 -14  -6  -5   19.55   13.35
 -14  -6   5    4.04    5.55
 -14  -6  -6   19.56   14.64
 -14  -6   6    5.71   11.34
 -14  -6  -7   15.93   13.81
 -14  -6   7   -1.51    7.63
 -14  -6   8   21.99   13.67
 -14  -6  -8   21.36   11.24
 -14  -6   9    7.90   10.81
 -14  -6  -9   18.64   12.07
 -14  -6  10    4.29    9.41
 -14  -6 -10    3.46    7.25
 -14  -6 -11    4.32    5.83
 -14  -6 -12   12.59   11.11
 -14  -7   0  100.94   27.68
 -14  -7   1   10.35   13.74
 -14  -7  -1   33.70   16.34
 -14  -7   2   18.80   12.70
 -14  -7  -2   57.39   21.07
 -14  -7   3   10.61   10.17
 -14  -7  -3   20.48   14.81
 -14  -7   4    6.99    7.93
 -14  -7  -4    3.92   13.27
 -14  -7  -5   -6.33    7.75
 -14  -7   5    2.79    8.82
 -14  -7  -6   35.46   17.24
 -14  -7   6    1.01    5.06
 -14  -7  -7   13.56   12.25
 -14  -7   7   -8.32   11.60
 -14  -7  -8    1.04    5.08
 -14  -7  -9    6.73    7.24
 -14  -7 -10    3.44    6.08
 -14  -7 -11    8.38    8.99
 -14  -8   0  -10.76   11.92
 -14  -8   1   46.80   19.02
 -14  -8  -1   43.61   18.74
 -14  -8   2    4.74    6.61
 -14  -8  -2    3.38    4.62
 -14  -8   3   46.58   20.87
 -14  -8  -3  105.49   27.72
 -14  -8   4   -5.70    8.53
 -14  -8  -4   17.34   11.51
 -14  -8  -5   33.74   15.94
 -14  -8  -6    9.50    9.58
 -14  -8  -7    2.42    4.77
 -14  -8  -8    2.50    9.00
 -14  -8  -9    5.16    8.85
 -14  -8 -10   12.44    9.64
 -14  -9   0    7.09    9.52
 -14  -9  -1    6.11    9.50
 -14  -9  -2   -0.49    9.45
 -14  -9  -3   33.73   18.27
 -14  -9  -4    2.50    7.84
 -14  -9  -5    9.96   12.20
 -14  -9  -6   18.63   13.18
 -14  -9  -7   15.24   11.81
 -14  -9  -8   50.61   18.37
 -15   0   0    9.07    9.84
 -15   0  -1   -7.22    8.62
 -15   0   1    5.42    8.17
 -15   0  -2   10.23   10.03
 -15   0   2   17.16   14.88
 -15   0   3   -3.27    7.33
 -15   0  -3    9.43    7.92
 -15   0  -4    8.65   13.86
 -15   0   4   22.33   13.03
 -15   0   5  -13.01   11.36
 -15   0  -5    9.77   10.85
 -15   0   6   34.83   13.61
 -15   0  -6   53.85   20.98
 -15   0   7   13.80   13.35
 -15   0   8   99.69   27.46
 -15   0   9   12.08   12.77
 -15  -1   0   -4.72    6.08
 -15   1   0   14.59   12.52
 -15   1  -1    8.35    9.37
 -15  -1   1   26.86   18.76
 -15   1   1   -4.95    9.93
 -15  -1  -1   16.37   14.48
 -15  -1   2   27.72   18.45
 -15   1   2   48.50   20.14
 -15   1  -2   20.66   14.70
 -15  -1  -2   24.64   15.96
 -15  -1   3   24.52   14.44
 -15   1   3   16.97   13.06
 -15   1  -3    2.87   10.12
 -15  -1  -3   16.16   11.49
 -15  -1  -4    7.54    6.04
 -15  -1   4    8.86   11.54
 -15   1   4    1.05    6.38
 -15  -1  -5   22.83   14.70
 -15   1   5   21.04   13.47
 -15  -1   5   26.99   15.53
 -15   1   6   -7.30    9.36
 -15  -1  -6   13.60   11.66
 -15  -1   6  -12.57   12.14
 -15  -1  -7   -0.26    4.99
 -15   1   7   10.89   12.85
 -15  -1   7    3.37   11.38
 -15   1   8    2.24    5.59
 -15  -1  -8   10.92   12.46
 -15  -1   8   12.28    8.29
 -15   1   9   20.49   16.13
 -15   2   0   26.39   17.16
 -15  -2   0    5.03    9.43
 -15  -2  -1    4.85    6.88
 -15   2   1   -1.28    7.08
 -15  -2   1   18.60   14.86
 -15  -2  -2    9.11   10.12
 -15   2   2    0.54    3.78
 -15  -2   2    3.69   12.23
 -15   2   3   28.13   12.88
 -15  -2  -3   10.21    8.39
 -15  -2   3   22.42   15.92
 -15  -2  -4    1.42    5.75
 -15  -2   4   14.77   12.46
 -15   2   4   -3.61    5.73
 -15  -2   5   -2.03    5.28
 -15   2   5   -9.25    8.41
 -15  -2  -6  141.23   32.38
 -15   2   6   89.49   25.33
 -15  -2   6   96.67   29.92
 -15  -2  -7    1.12    5.63
 -15   2   7   -4.99    7.82
 -15  -2   7   17.38   12.01
 -15   2   8   27.74   17.23
 -15  -2  -8   14.08   12.97
 -15  -2  -9    4.36   12.11
 -15  -2 -10   34.40   16.07
 -15  -3   0    2.75    7.39
 -15  -3   1    7.53    9.16
 -15  -3  -1    4.69    7.32
 -15  -3   2    9.09   12.13
 -15  -3  -2    2.93    8.38
 -15  -3   3    3.92    9.95
 -15  -3  -3   22.25   15.75
 -15  -3  -4   22.16   13.53
 -15  -3   4   14.87   12.78
 -15   3   4   26.22   17.33
 -15  -3  -5   35.84   15.42
 -15  -3   5   49.71   23.65
 -15   3   5   -7.27   10.45
 -15  -3   6    8.16    7.79
 -15  -3  -6    0.67    5.46
 -15   3   6   -3.84    4.36
 -15  -3  -7    8.38   10.80
 -15  -3  -8   14.64   12.56
 -15  -3  -9   26.02   15.17
 -15  -3 -10   10.86    9.64
 -15  -3 -11    3.45    7.70
 -15  -3 -12   -4.16    5.63
 -15  -4   0    5.89    9.77
 -15  -4   1   -0.44    7.72
 -15  -4  -1   12.17   11.39
 -15  -4   2   15.73   10.61
 -15  -4  -2    8.57    7.59
 -15  -4   3   -6.67   11.37
 -15  -4  -3   -7.96   10.12
 -15  -4   4    5.04    9.50
 -15  -4  -4   15.97   11.92
 -15  -4  -5   18.45   12.42
 -15  -4  -6    4.05    5.42
 -15  -4  -7    1.08    8.64
 -15  -4  -8   18.03   12.53
 -15  -4  -9   -8.93   10.32
 -15  -4 -10   61.13   24.09
 -15  -4 -11   22.89   15.66
 -15  -4 -12    8.49    7.70
 -15  -5   0    3.42    7.87
 -15  -5   1   10.40   12.38
 -15  -5  -1    7.52   11.64
 -15  -5   2   -7.89    9.36
 -15  -5  -2   -7.91   11.19
 -15  -5  -3    1.13    6.85
 -15  -5  -4    6.81    5.12
 -15  -5  -5   10.19   12.17
 -15  -5  -6   17.44   13.93
 -15  -5  -7    8.44    8.87
 -15  -5  -8    2.61    4.15
 -15  -5  -9   -4.26    5.68
 -15  -5 -10    5.68    9.06
 -15  -5 -11    3.97    7.51
 -15  -6  -2    9.14   10.79
 -15  -6  -3   22.78   15.41
 -15  -6  -4   15.98    9.11
 -15  -6  -5   13.41   13.60
 -15  -6  -6   17.23   13.03
 -15  -6  -7   18.67   13.42
 -15  -6  -8    3.91    6.33
 -15  -6  -9   38.71   18.95
 -15  -6 -10    3.29    7.86
 -15  -7  -8    3.10    5.91


TITL CMRV-KP-379_Mo in Pbca
REM Pbca (#61 in standard setting)
CELL 0.71073  11.308808  13.494212  27.436801  90.0000  90.0000  90.0000
ZERR    7.00   0.000710   0.000670   0.001268   0.0000   0.0000   0.0000
LATT  1
SYMM -x+1/2,-y, z+1/2
SYMM -x, y+1/2,-z+1/2
SYMM  x+1/2,-y+1/2,-z
SFAC C H N O S
UNIT 168.00 140.00 14.00 35.00 7.00
TREF
HKLF 4
END
_computing_structure_solution     'SHELXT 2014/4 (Sheldrick, 2014)'
_computing_structure_solution     'SHELXT 2014/4 (Sheldrick, 2014)'
;
_shelx_hkl_checksum              57001
_shelx_shelxl_version_number     2014/7
_olex2_submission_special_instructions 'No special instructions were received'
_oxdiff_exptl_absorpt_empirical_details
;
Empirical correction (ABSPACK) includes:
- Absorption correction using spherical harmonics
- Frame scaling
- Detector area scaling
;
_oxdiff_exptl_absorpt_empirical_full_max 1.653
_oxdiff_exptl_absorpt_empirical_full_min 0.647
loop_
_space_group_symop_operation_xyz
'x, y, z'
'-x+1/2, -y, z+1/2'
'-x, y+1/2, -z+1/2'
'x+1/2, -y+1/2, -z'
'-x, -y, -z'
'x-1/2, y, -z-1/2'
'x, -y-1/2, z-1/2'
'-x-1/2, y-1/2, z'
loop_
_atom_site_label
_atom_site_type_symbol
_atom_site_fract_x
_atom_site_fract_y
_atom_site_fract_z
_atom_site_U_iso_or_equiv
_atom_site_adp_type
_atom_site_occupancy
_atom_site_site_symmetry_order
_atom_site_calc_flag
_atom_site_refinement_flags_posn
S001 S 0.64884(8) 0.52857(6) 0.22775(3) 0.0173(2) Uani 1 1 d .
O002 O 0.7625(2) 0.35168(16) 0.13200(7) 0.0203(5) Uani 1 1 d .
O003 O 0.5795(2) 0.53274(15) 0.27148(7) 0.0207(6) Uani 1 1 d .
O004 O 0.7472(2) 0.59424(16) 0.22129(7) 0.0223(6) Uani 1 1 d .
O005 O 0.4604(2) 0.28023(18) 0.26934(7) 0.0249(6) Uani 1 1 d .
O006 O 0.7877(2) 0.30383(16) 0.45487(7) 0.0217(6) Uani 1 1 d .
N007 N 0.5490(3) 0.19218(18) 0.18069(9) 0.0181(6) Uani 1 1 d .
H007 H 0.4974 0.1705 0.2022 0.022 Uiso 1 1 calc R
N008 N 0.7066(3) 0.41589(18) 0.22457(8) 0.0178(6) Uani 1 1 d .
H008 H 0.7628 0.4088 0.2454 0.021 Uiso 1 1 d R
C009 C 0.6177(3) 0.2757(2) 0.18617(10) 0.0164(7) Uani 1 1 d .
C00A C 0.5728(3) 0.1471(2) 0.13629(10) 0.0173(7) Uani 1 1 d .
C00B C 0.6888(3) 0.2868(2) 0.14007(10) 0.0166(7) Uani 1 1 d .
C00C C 0.5608(3) 0.3123(2) 0.36252(10) 0.0191(8) Uani 1 1 d .
H00C H 0.4769 0.3143 0.3611 0.023 Uiso 1 1 calc R
C00D C 0.6272(3) 0.3342(2) 0.22618(10) 0.0171(7) Uani 1 1 d .
C00E C 0.6542(3) 0.2039(2) 0.10972(11) 0.0172(7) Uani 1 1 d .
C00F C 0.7498(3) 0.3069(2) 0.32199(11) 0.0178(7) Uani 1 1 d .
H00F H 0.7951 0.3058 0.2928 0.021 Uiso 1 1 calc R
C00G C 0.5622(3) 0.3094(2) 0.27219(10) 0.0190(8) Uani 1 1 d .
C00H C 0.4305(3) 0.5437(2) 0.18534(12) 0.0221(8) Uani 1 1 d .
H00H H 0.3987 0.5414 0.2174 0.027 Uiso 1 1 calc R
C00I C 0.6271(3) 0.3121(2) 0.31942(10) 0.0173(7) Uani 1 1 d .
C00J C 0.6176(3) 0.3097(2) 0.40717(11) 0.0192(7) Uani 1 1 d .
H00J H 0.5727 0.3107 0.4364 0.023 Uiso 1 1 calc R
C00K C 0.3566(3) 0.5520(2) 0.14537(12) 0.0248(8) Uani 1 1 d .
H00K H 0.2736 0.5560 0.1503 0.030 Uiso 1 1 calc R
C00L C 0.5259(3) 0.0600(2) 0.11743(11) 0.0211(8) Uani 1 1 d .
H00L H 0.4717 0.0208 0.1355 0.025 Uiso 1 1 calc R
C00M C 0.4005(4) 0.5545(2) 0.09844(12) 0.0256(9) Uani 1 1 d .
C00N C 0.5528(3) 0.5389(2) 0.17790(10) 0.0177(8) Uani 1 1 d .
C00O C 0.8063(3) 0.3034(2) 0.36650(10) 0.0186(7) Uani 1 1 d .
H00O H 0.8901 0.2995 0.3680 0.022 Uiso 1 1 calc R
C00P C 0.7403(3) 0.3055(2) 0.40925(10) 0.0197(8) Uani 1 1 d .
C00Q C 0.5615(3) 0.0330(2) 0.07122(11) 0.0250(9) Uani 1 1 d .
H00Q H 0.5316 -0.0267 0.0576 0.030 Uiso 1 1 calc R
C00R C 0.5992(3) 0.5426(2) 0.13077(11) 0.0210(8) Uani 1 1 d .
H00R H 0.6822 0.5402 0.1257 0.025 Uiso 1 1 calc R
C00S C 0.6875(3) 0.1766(2) 0.06297(11) 0.0211(8) Uani 1 1 d .
H00S H 0.7413 0.2159 0.0447 0.025 Uiso 1 1 calc R
C00T C 0.5228(4) 0.5499(2) 0.09175(11) 0.0252(8) Uani 1 1 d .
H00T H 0.5541 0.5518 0.0596 0.030 Uiso 1 1 calc R
C00U C 0.3189(4) 0.5610(3) 0.05493(12) 0.0347(10) Uani 1 1 d .
H00A H 0.3301 0.5026 0.0342 0.052 Uiso 1 1 calc GR
H00B H 0.3372 0.6209 0.0362 0.052 Uiso 1 1 calc GR
H00D H 0.2367 0.5637 0.0661 0.052 Uiso 1 1 calc GR
C00V C 0.6403(3) 0.0902(2) 0.04359(11) 0.0227(8) Uani 1 1 d .
H00V H 0.6613 0.0699 0.0116 0.027 Uiso 1 1 calc R
C00W C 0.9124(3) 0.2898(3) 0.45906(11) 0.0244(8) Uani 1 1 d .
H00E H 0.9537 0.3444 0.4428 0.037 Uiso 1 1 calc GR
H00G H 0.9346 0.2269 0.4437 0.037 Uiso 1 1 calc GR
H00I H 0.9346 0.2884 0.4936 0.037 Uiso 1 1 calc GR
loop_
_atom_site_aniso_label
_atom_site_aniso_U_11
_atom_site_aniso_U_22
_atom_site_aniso_U_33
_atom_site_aniso_U_23
_atom_site_aniso_U_13
_atom_site_aniso_U_12
S001 0.0200(5) 0.0133(4) 0.0185(4) -0.0007(3) 0.0012(3) -0.0005(4)
O002 0.0190(14) 0.0198(12) 0.0222(11) 0.0007(9) 0.0022(10) -0.0015(12)
O003 0.0269(15) 0.0159(11) 0.0194(11) 0.0004(8) 0.0027(10) 0.0028(11)
O004 0.0228(15) 0.0181(12) 0.0260(11) 0.0009(9) -0.0020(10) -0.0074(11)
O005 0.0195(16) 0.0319(14) 0.0233(12) 0.0000(9) 0.0006(10) -0.0078(13)
O006 0.0206(15) 0.0251(13) 0.0194(11) -0.0004(9) -0.0015(10) 0.0051(12)
N007 0.0194(17) 0.0168(14) 0.0181(13) -0.0007(10) 0.0016(12) 0.0001(13)
N008 0.0171(17) 0.0153(14) 0.0209(13) 0.0017(10) -0.0074(12) 0.0039(13)
C009 0.0181(19) 0.0134(15) 0.0178(15) 0.0033(12) -0.0027(14) 0.0038(15)
C00A 0.0160(19) 0.0173(16) 0.0187(15) 0.0007(12) -0.0019(13) 0.0060(15)
C00B 0.0141(19) 0.0136(16) 0.0220(16) 0.0046(12) -0.0004(14) 0.0059(15)
C00C 0.020(2) 0.0150(16) 0.0217(16) 0.0007(12) 0.0006(14) 0.0024(15)
C00D 0.018(2) 0.0145(16) 0.0182(15) 0.0024(12) -0.0024(14) 0.0003(15)
C00E 0.019(2) 0.0135(16) 0.0193(15) 0.0029(12) 0.0011(14) 0.0040(15)
C00F 0.020(2) 0.0148(16) 0.0184(15) 0.0024(12) 0.0035(14) 0.0026(15)
C00G 0.022(2) 0.0149(16) 0.0196(16) -0.0030(12) 0.0012(14) -0.0002(16)
C00H 0.025(2) 0.0160(16) 0.0258(17) -0.0020(13) 0.0009(15) 0.0009(17)
C00I 0.023(2) 0.0102(15) 0.0187(15) 0.0011(11) -0.0004(14) 0.0020(15)
C00J 0.021(2) 0.0182(16) 0.0188(15) 0.0011(12) 0.0049(14) 0.0021(16)
C00K 0.021(2) 0.0183(17) 0.0355(19) -0.0027(14) -0.0035(16) -0.0017(16)
C00L 0.022(2) 0.0174(17) 0.0237(16) 0.0024(13) -0.0007(15) -0.0007(16)
C00M 0.034(2) 0.0116(16) 0.0314(18) -0.0018(13) -0.0100(17) 0.0013(17)
C00N 0.023(2) 0.0106(15) 0.0198(16) 0.0002(12) -0.0026(14) -0.0015(15)
C00O 0.016(2) 0.0173(16) 0.0227(16) -0.0015(12) 0.0009(14) 0.0030(15)
C00P 0.030(2) 0.0127(15) 0.0160(15) -0.0022(12) 0.0010(14) 0.0024(16)
C00Q 0.034(2) 0.0168(17) 0.0246(17) -0.0041(13) -0.0014(16) -0.0022(17)
C00R 0.025(2) 0.0154(16) 0.0228(16) 0.0022(12) -0.0008(15) -0.0020(16)
C00S 0.020(2) 0.0220(17) 0.0211(15) 0.0032(13) 0.0042(14) 0.0044(16)
C00T 0.033(2) 0.0189(17) 0.0233(17) 0.0022(13) 0.0013(16) -0.0005(18)
C00U 0.046(3) 0.0233(19) 0.035(2) -0.0022(15) -0.0137(19) 0.004(2)
C00V 0.027(2) 0.0243(18) 0.0164(15) -0.0007(13) 0.0029(14) 0.0042(17)
C00W 0.025(2) 0.0265(18) 0.0222(16) -0.0008(13) -0.0038(15) 0.0054(18)
loop_
_atom_type_symbol
_atom_type_description
_atom_type_scat_dispersion_real
_atom_type_scat_dispersion_imag
_atom_type_scat_source
C C 0.0033 0.0016 'International Tables Vol C Tables 4.2.6.8 and 6.1.1.4'
H H 0.0000 0.0000 'International Tables Vol C Tables 4.2.6.8 and 6.1.1.4'
N N 0.0061 0.0033 'International Tables Vol C Tables 4.2.6.8 and 6.1.1.4'
O O 0.0106 0.0060 'International Tables Vol C Tables 4.2.6.8 and 6.1.1.4'
Cl Cl 0.1484 0.1585 'International Tables Vol C Tables 4.2.6.8 and 6.1.1.4'
S S 0.1246 0.1234 'International Tables Vol C Tables 4.2.6.8 and 6.1.1.4'
loop_
_geom_angle_atom_site_label_1
_geom_angle_atom_site_label_2
_geom_angle_atom_site_label_3
_geom_angle
O003 S001 N008 107.19(13)
O003 S001 C00N 108.13(16)
O004 S001 O003 120.23(13)
O004 S001 N008 104.77(15)
O004 S001 C00N 109.58(14)
N008 S001 C00N 106.02(13)
C00P O006 C00W 117.8(2)
C009 N007 H007 124.9
C009 N007 C00A 110.2(3)
C00A N007 H007 124.9
S001 N008 H008 111.0
C00D N008 S001 117.4(2)
C00D N008 H008 111.1
N007 C009 C00B 106.9(2)
C00D C009 N007 127.6(3)
C00D C009 C00B 125.4(3)
N007 C00A C00E 110.1(3)
N007 C00A C00L 128.6(3)
C00L C00A C00E 121.3(3)
O002 C00B C009 125.8(3)
O002 C00B C00E 129.0(3)
C00E C00B C009 105.2(3)
C00I C00C H00C 120.1
C00J C00C H00C 120.1
C00J C00C C00I 119.9(3)
N008 C00D C00G 120.6(2)
C009 C00D N008 118.4(3)
C009 C00D C00G 120.8(3)
C00A C00E C00B 107.5(3)
C00S C00E C00A 120.9(3)
C00S C00E C00B 131.6(3)
C00I C00F H00F 119.7
C00O C00F H00F 119.7
C00O C00F C00I 120.6(3)
O005 C00G C00D 118.8(3)
O005 C00G C00I 122.0(3)
C00I C00G C00D 119.0(3)
C00K C00H H00H 120.5
C00K C00H C00N 119.0(3)
C00N C00H H00H 120.5
C00C C00I C00G 118.0(3)
C00F C00I C00C 119.5(3)
C00F C00I C00G 122.3(3)
C00C C00J H00J 120.0
C00C C00J C00P 120.1(3)
C00P C00J H00J 120.0
C00H C00K H00K 119.2
C00M C00K C00H 121.6(4)
C00M C00K H00K 119.2
C00A C00L H00L 121.5
C00Q C00L C00A 117.0(3)
C00Q C00L H00L 121.5
C00K C00M C00T 118.5(3)
C00K C00M C00U 121.3(4)
C00T C00M C00U 120.2(3)
C00H C00N S001 120.2(2)
C00R C00N S001 119.6(3)
C00R C00N C00H 120.3(3)
C00F C00O H00O 120.1
C00F C00O C00P 119.9(3)
C00P C00O H00O 120.1
O006 C00P C00J 115.6(3)
O006 C00P C00O 124.3(3)
C00J C00P C00O 120.1(3)
C00L C00Q H00Q 118.8
C00L C00Q C00V 122.5(3)
C00V C00Q H00Q 118.8
C00N C00R H00R 120.4
C00T C00R C00N 119.1(4)
C00T C00R H00R 120.4
C00E C00S H00S 120.9
C00E C00S C00V 118.2(3)
C00V C00S H00S 120.9
C00M C00T H00T 119.3
C00R C00T C00M 121.4(3)
C00R C00T H00T 119.3
C00M C00U H00A 109.5
C00M C00U H00B 109.5
C00M C00U H00D 109.5
H00A C00U H00B 109.5
H00A C00U H00D 109.5
H00B C00U H00D 109.5
C00Q C00V H00V 120.0
C00S C00V C00Q 120.0(3)
C00S C00V H00V 120.0
O006 C00W H00E 109.5
O006 C00W H00G 109.5
O006 C00W H00I 109.5
H00E C00W H00G 109.5
H00E C00W H00I 109.5
H00G C00W H00I 109.5
loop_
_geom_bond_atom_site_label_1
_geom_bond_atom_site_label_2
_geom_bond_distance
S001 O003 1.434(2)
S001 O004 1.433(2)
S001 N008 1.657(3)
S001 C00N 1.752(3)
O002 C00B 1.229(4)
O005 C00G 1.219(4)
O006 C00P 1.362(4)
O006 C00W 1.427(4)
N007 H007 0.8800
N007 C009 1.377(4)
N007 C00A 1.388(4)
N008 H008 0.8600
N008 C00D 1.422(4)
C009 C00B 1.506(4)
C009 C00D 1.357(4)
C00A C00E 1.402(5)
C00A C00L 1.389(4)
C00B C00E 1.449(4)
C00C H00C 0.9500
C00C C00I 1.400(4)
C00C C00J 1.384(4)
C00D C00G 1.499(4)
C00E C00S 1.387(4)
C00F H00F 0.9500
C00F C00I 1.391(5)
C00F C00O 1.379(4)
C00G C00I 1.490(4)
C00H H00H 0.9500
C00H C00K 1.383(5)
C00H C00N 1.400(5)
C00J H00J 0.9500
C00J C00P 1.390(5)
C00K H00K 0.9500
C00K C00M 1.380(5)
C00L H00L 0.9500
C00L C00Q 1.380(4)
C00M C00T 1.397(5)
C00M C00U 1.511(5)
C00N C00R 1.396(4)
C00O H00O 0.9500
C00O C00P 1.391(4)
C00Q H00Q 0.9500
C00Q C00V 1.402(5)
C00R H00R 0.9500
C00R C00T 1.379(5)
C00S H00S 0.9500
C00S C00V 1.387(5)
C00T H00T 0.9500
C00U H00A 0.9800
C00U H00B 0.9800
C00U H00D 0.9800
C00V H00V 0.9500
C00W H00E 0.9800
C00W H00G 0.9800
C00W H00I 0.9800
loop_
_geom_torsion_atom_site_label_1
_geom_torsion_atom_site_label_2
_geom_torsion_atom_site_label_3
_geom_torsion_atom_site_label_4
_geom_torsion
S001 N008 C00D C009 114.7(3)
S001 N008 C00D C00G -69.5(3)
S001 C00N C00R C00T 179.4(2)
O002 C00B C00E C00A 175.9(3)
O002 C00B C00E C00S -4.2(6)
O003 S001 N008 C00D 55.8(2)
O003 S001 C00N C00H -3.4(3)
O003 S001 C00N C00R 176.3(2)
O004 S001 N008 C00D -175.4(2)
O004 S001 C00N C00H -136.2(3)
O004 S001 C00N C00R 43.6(3)
O005 C00G C00I C00C -20.8(4)
O005 C00G C00I C00F 154.3(3)
N007 C009 C00B O002 -178.0(3)
N007 C009 C00B C00E -0.3(3)
N007 C009 C00D N008 178.1(3)
N007 C009 C00D C00G 2.4(5)
N007 C00A C00E C00B 3.2(4)
N007 C00A C00E C00S -176.7(3)
N007 C00A C00L C00Q 177.7(3)
N008 S001 C00N C00H 111.3(3)
N008 S001 C00N C00R -69.0(3)
N008 C00D C00G O005 142.5(3)
N008 C00D C00G C00I -43.0(4)
C009 N007 C00A C00E -3.5(4)
C009 N007 C00A C00L 177.7(3)
C009 C00B C00E C00A -1.7(3)
C009 C00B C00E C00S 178.2(3)
C009 C00D C00G O005 -41.8(5)
C009 C00D C00G C00I 132.6(3)
C00A N007 C009 C00B 2.2(3)
C00A N007 C009 C00D -173.7(3)
C00A C00E C00S C00V -1.5(5)
C00A C00L C00Q C00V -0.8(5)
C00B C009 C00D N008 2.9(5)
C00B C009 C00D C00G -172.9(3)
C00B C00E C00S C00V 178.6(3)
C00C C00J C00P O006 179.6(2)
C00C C00J C00P C00O -0.4(5)
C00D C009 C00B O002 -1.9(5)
C00D C009 C00B C00E 175.8(3)
C00D C00G C00I C00C 164.9(3)
C00D C00G C00I C00F -19.9(4)
C00E C00A C00L C00Q -1.0(5)
C00E C00S C00V C00Q -0.3(5)
C00F C00O C00P O006 -179.0(3)
C00F C00O C00P C00J 1.0(5)
C00H C00K C00M C00T -0.9(5)
C00H C00K C00M C00U 178.5(3)
C00H C00N C00R C00T -0.8(4)
C00I C00C C00J C00P -0.8(4)
C00I C00F C00O C00P -0.4(5)
C00J C00C C00I C00F 1.5(4)
C00J C00C C00I C00G 176.7(3)
C00K C00H C00N S001 179.9(2)
C00K C00H C00N C00R 0.2(5)
C00K C00M C00T C00R 0.3(5)
C00L C00A C00E C00B -177.9(3)
C00L C00A C00E C00S 2.2(5)
C00L C00Q C00V C00S 1.5(5)
C00N S001 N008 C00D -59.5(2)
C00N C00H C00K C00M 0.7(5)
C00N C00R C00T C00M 0.6(5)
C00O C00F C00I C00C -0.9(5)
C00O C00F C00I C00G -175.9(3)
C00U C00M C00T C00R -179.1(3)
C00W O006 C00P C00J 174.0(3)
C00W O006 C00P C00O -6.0(4)
