#------------------------------------------------------------------------------
#$Date: 2017-09-28 15:55:40 +0300 (Thu, 28 Sep 2017) $
#$Revision: 201419 $
#$URL: file:///home/coder/svn-repositories/cod/cif/1/54/74/1547417.cif $
#------------------------------------------------------------------------------
#
# This file is available in the Crystallography Open Database (COD),
# http://www.crystallography.net/
#
# All data on this site have been placed in the public domain by the
# contributors.
#
data_1547417
loop_
_publ_author_name
'Anuradha R. Pallipurath'
'Jonathan M. Skelton'
'Mark R. Warren'
'Naghmeh Kamali'
'Patrick McArdle'
'Andrea Erxleben'
_publ_section_title
;
 Sulfamerazine: Understanding the Influence of Slip Planes in the
 Polymorphic Phase Transformation through X-Ray Crystallographic Studies
 and ab Initio Lattice Dynamics
;
_journal_name_full               'Molecular Pharmaceutics'
_journal_page_first              3735
_journal_page_last               3748
_journal_paper_doi               10.1021/acs.molpharmaceut.5b00504
_journal_volume                  12
_journal_year                    2015
_chemical_absolute_configuration ad
_chemical_formula_moiety         'C11 H12 N4 O2 S'
_chemical_formula_sum            'C11 H12 N4 O2 S'
_chemical_formula_weight         264.31
_chemical_name_common            Sulfamerazine
_chemical_name_systematic        4-amino-N-(4-methylpyrimidin-2-yl)
_space_group_crystal_system      orthorhombic
_space_group_IT_number           33
_space_group_name_Hall           'P 2c -2n'
_space_group_name_H-M_alt        'P n a 21'
_symmetry_space_group_name_Hall  'P 2c -2n'
_symmetry_space_group_name_H-M   'P n a 21'
_atom_sites_solution_hydrogens   mixed
_cell_angle_alpha                90
_cell_angle_beta                 90
_cell_angle_gamma                90
_cell_formula_units_Z            8
_cell_length_a                   14.47010(10)
_cell_length_b                   8.18890(10)
_cell_length_c                   21.8216(4)
_cell_measurement_reflns_used    5936
_cell_measurement_temperature    190
_cell_measurement_theta_max      29.5000
_cell_measurement_theta_min      2.5650
_cell_volume                     2585.73(6)
_computing_cell_refinement
;
CrysAlisPro, Agilent Technologies,
Version 1.171.37.35 (release 13-08-2014 CrysAlis171 .NET)
(compiled Aug 13 2014,18:06:01)
;
_computing_data_collection
;
CrysAlisPro, Agilent Technologies,
Version 1.171.37.35 (release 13-08-2014 CrysAlis171 .NET)
(compiled Aug 13 2014,18:06:01)
;
_computing_data_reduction
;
CrysAlisPro, Agilent Technologies,
Version 1.171.37.35 (release 13-08-2014 CrysAlis171 .NET)
(compiled Aug 13 2014,18:06:01)
;
_computing_molecular_graphics    OSCAIL
_computing_structure_refinement  'SHELXL-2014/7 (Sheldrick, 2014)'
_computing_structure_solution    SHELXT
_diffrn_ambient_temperature      190
_diffrn_measured_fraction_theta_full 0.977
_diffrn_measured_fraction_theta_max 0.942
_diffrn_measurement_device       'CrystalLogic Kappa (3 circle)'
_diffrn_measurement_device_type  'Rigaku Saturn724+ (2x2 bin mode)'
_diffrn_measurement_method
;
omega rotation with 1 degree frames
;
_diffrn_measurement_specimen_support 'MiTeGen loop'
_diffrn_radiation_monochromator  'double crystal Silicon 111'
_diffrn_radiation_source         'Diamond Light Source Beamline I19'
_diffrn_radiation_type           Synchrotron
_diffrn_radiation_wavelength     0.68890
_diffrn_reflns_av_R_equivalents  0.0405
_diffrn_reflns_av_unetI/netI     0.0559
_diffrn_reflns_Laue_measured_fraction_full 0.977
_diffrn_reflns_Laue_measured_fraction_max 0.942
_diffrn_reflns_limit_h_max       13
_diffrn_reflns_limit_h_min       -20
_diffrn_reflns_limit_k_max       11
_diffrn_reflns_limit_k_min       -11
_diffrn_reflns_limit_l_max       22
_diffrn_reflns_limit_l_min       -27
_diffrn_reflns_number            11775
_diffrn_reflns_point_group_measured_fraction_max 0.811
_diffrn_reflns_theta_full        24.415
_diffrn_reflns_theta_max         29.475
_diffrn_reflns_theta_min         2.575
_exptl_absorpt_coefficient_mu    0.250
_exptl_absorpt_correction_T_max  1.00000
_exptl_absorpt_correction_T_min  0.95124
_exptl_absorpt_correction_type   multi-scan
_exptl_absorpt_process_details
;
CrysAlisPro, Agilent Technologies,
Version 1.171.36.28 (release 01-02-2013 CrysAlis171 .NET)
Empirical absorption correction using spherical harmonics,
implemented in SCALE3 ABSPACK scaling algorithm.
;
_exptl_crystal_colour            Colourless
_exptl_crystal_density_diffrn    1.358
_exptl_crystal_description       Parallelepiped
_exptl_crystal_F_000             1104
_exptl_crystal_size_max          0.50
_exptl_crystal_size_mid          0.40
_exptl_crystal_size_min          0.20
_refine_diff_density_max         0.279
_refine_diff_density_min         -0.346
_refine_diff_density_rms         0.054
_refine_ls_abs_structure_details
;
 Flack x determined using 1654 quotients [(I+)-(I-)]/[(I+)+(I-)]
 (Parsons, Flack and Wagner, Acta Cryst. B69 (2013) 249-259).
;
_refine_ls_abs_structure_Flack   -0.01(6)
_refine_ls_extinction_coef       .
_refine_ls_extinction_method     none
_refine_ls_goodness_of_fit_ref   1.076
_refine_ls_hydrogen_treatment    mixed
_refine_ls_matrix_type           full
_refine_ls_number_parameters     344
_refine_ls_number_reflns         6404
_refine_ls_number_restraints     1
_refine_ls_restrained_S_all      1.076
_refine_ls_R_factor_all          0.0626
_refine_ls_R_factor_gt           0.0481
_refine_ls_shift/su_max          0.000
_refine_ls_shift/su_mean         0.000
_refine_ls_structure_factor_coef Fsqd
_refine_ls_weighting_details
'w=1/[\s^2^(Fo^2^)+(0.0541P)^2^+0.3587P] where P=(Fo^2^+2Fc^2^)/3'
_refine_ls_weighting_scheme      calc
_refine_ls_wR_factor_gt          0.1118
_refine_ls_wR_factor_ref         0.1319
_reflns_Friedel_coverage         0.682
_reflns_Friedel_fraction_full    0.774
_reflns_Friedel_fraction_max     0.673
_reflns_number_gt                5154
_reflns_number_total             6404
_reflns_threshold_expression     'I > 2\s(I)'
_cod_data_source_file            Exp_Form-I2FSynchrotron_Form-I_190K.cif
_cod_data_source_block           190k_smz-f1_a
_cod_database_code               1547417
_shelx_space_group_comment
;
The symmetry employed for this shelxl refinement is uniquely defined
by the following loop, which should always be used as a source of
symmetry information in preference to the above space-group names.
They are only intended as comments.
;
_shelx_estimated_absorpt_t_min   0.885
_shelx_estimated_absorpt_t_max   0.952
_shelx_res_file
;
    190k_smz-f1_a.res created by SHELXL-2014/7
TITL 190k_smz-f1_a.res in Pna2(1)
REM Old TITL 013_190K_SulfamerazineF1_ in Pna2(1)
REM SHELXT solution in Pna2(1)
REM R1 0.106,  Rweak 0.033,  Alpha 0.003,  Orientation as input
REM Flack x = -0.022 ( 0.076 ) from Parsons' quotients
REM Formula found by SHELXT:  C26 N4 O4 S2
CELL  0.68890  14.4701   8.1889  21.8216   90.000   90.000   90.000
ZERR    8.000   0.0001   0.0001   0.0004    0.000    0.000    0.000
REM SG 33 4 4 Pna21 PGmm2 Orthorhombic
LATT -1
REM SG  ASUN  1  .5 .5 1.
REM SG  ORGN  on 2(1)
SYMM -X,-Y,0.5+Z
SYMM 0.5+X,0.5-Y,Z
SYMM 0.5-X,0.5+Y,0.5+Z
SFAC C H N O S
UNIT 88.00 96.00 32.00 16.00 8.00
L.S. 10
SIZE    0.50  0.40  0.20
BOND $H
FMAP 2
PLAN 20
ACTA
CONF
EQIV $1 x, y-1, z
HTAB N5 O4_$1
EQIV $2 -x+3/2, y+1/2, z-1/2
HTAB N1 O4_$2
EQIV $3 x, y+1, z
HTAB N1 O1_$3
HTAB N2 N8
HTAB N6 N4
LIST 4
WGHT    0.054100    0.358700
FVAR       0.58269   0.35344
S1    5    0.355435    0.505220    0.656148    11.00000    0.02365    0.02608 =
         0.02546    0.00258   -0.00134   -0.00141
S2    5    0.422082    0.502533    0.346986    11.00000    0.02243    0.02629 =
         0.02530    0.00301   -0.00047   -0.00140
O1    4    0.312243    0.629830    0.692082    11.00000    0.03662    0.02712 =
         0.03856   -0.00452   -0.00223   -0.00052
O2    4    0.453022    0.477777    0.662805    11.00000    0.02528    0.03954 =
         0.03297    0.00459   -0.00717   -0.00289
O3    4    0.324266    0.529547    0.340151    11.00000    0.02370    0.03911 =
         0.02902    0.00571   -0.00325   -0.00321
O4    4    0.464365    0.375056    0.311811    11.00000    0.03641    0.02548 =
         0.03384   -0.00288   -0.00294   -0.00095
N1    3    0.158378   -0.116932    0.687624    11.00000    0.03482    0.02765 =
         0.05226   -0.00480    0.01368   -0.00434
N2    3    0.346162    0.553297    0.582919    11.00000    0.02073    0.03627 =
         0.03220    0.00553   -0.00266    0.00181
N3    3    0.186554    0.591711    0.582917    11.00000    0.02326    0.03142 =
         0.03155    0.00125    0.00081    0.00321
N4    3    0.272323    0.569493    0.489850    11.00000    0.03190    0.06589 =
         0.02368    0.00355   -0.00384    0.01071
N5    3    0.619924    1.120229    0.305182    11.00000    0.04082    0.02828 =
         0.06979   -0.00438    0.01982   -0.00737
AFIX  93
H5A   2    0.676506    1.118991    0.293130    11.00000   -1.30000
H5B   2    0.592491    1.211778    0.311663    11.00000   -1.30000
AFIX   0
N6    3    0.431526    0.460215    0.420347    11.00000    0.02163    0.03959 =
         0.02467    0.00760    0.00256    0.00152
N7    3    0.590473    0.412821    0.419262    11.00000    0.02485    0.03613 =
         0.03477    0.00294    0.00307    0.00364
N8    3    0.504813    0.434038    0.512422    11.00000    0.02880    0.06628 =
         0.03176    0.00332    0.00010    0.01074
C1    1    0.296206    0.322527    0.666771    11.00000    0.02250    0.02653 =
         0.02404    0.00245    0.00190    0.00093
C2    1    0.206264    0.320885    0.690196    11.00000    0.02332    0.02681 =
         0.03035    0.00065   -0.00105    0.00275
AFIX  43
H2    2    0.177391    0.418164    0.701017    11.00000   -1.30000
AFIX   0
C3    1    0.160893    0.175154    0.697119    11.00000    0.02439    0.03030 =
         0.02631   -0.00182    0.00274    0.00314
AFIX  43
H3    2    0.101002    0.174047    0.712576    11.00000   -1.30000
AFIX   0
C4    1    0.203972    0.027272    0.681092    11.00000    0.02987    0.02728 =
         0.02216   -0.00125   -0.00009   -0.00070
C5    1    0.294901    0.030255    0.657641    11.00000    0.02529    0.02878 =
         0.02965   -0.00407    0.00288    0.00294
AFIX  43
H5    2    0.324347   -0.066747    0.647152    11.00000   -1.30000
AFIX   0
C6    1    0.339774    0.176892    0.650357    11.00000    0.02190    0.03034 =
         0.03485   -0.00098    0.00603    0.00276
AFIX  43
H6    2    0.399378    0.179087    0.634435    11.00000   -1.30000
AFIX   0
C7    1    0.264256    0.572165    0.550696    11.00000    0.02638    0.02931 =
         0.03186    0.00591   -0.00326    0.00225
C8    1    0.193760    0.593765    0.458889    11.00000    0.03914    0.10300 =
         0.03469    0.00074   -0.01138    0.02250
AFIX  43
H8    2    0.195702    0.595393    0.416294    11.00000   -1.30000
AFIX   0
C9    1    0.110041    0.616452    0.487746    11.00000    0.02833    0.08921 =
         0.04058   -0.00401   -0.01467    0.01128
AFIX  43
H9    2    0.056322    0.634129    0.465308    11.00000   -1.30000
AFIX   0
C10   1    0.108343    0.612176    0.550520    11.00000    0.02403    0.04132 =
         0.04576   -0.00247   -0.00417    0.00557
C11   1    0.021782    0.631654    0.586509    11.00000    0.02842    0.06146 =
         0.06161   -0.00578   -0.00061    0.00827
AFIX 137
H11A  2    0.017238    0.741996    0.601060    11.00000   -1.30000
H11B  2    0.022635    0.558157    0.620778    11.00000   -1.30000
H11C  2   -0.030412    0.607383    0.560925    11.00000   -1.30000
AFIX   0
C12   1    0.480656    0.683243    0.334485    11.00000    0.02620    0.02464 =
         0.02284    0.00122    0.00147    0.00017
C13   1    0.436180    0.831202    0.344926    11.00000    0.02363    0.02843 =
         0.03453   -0.00090    0.00501    0.00324
AFIX  43
H13   2    0.375230    0.832210    0.358442    11.00000   -1.30000
AFIX   0
C14   1    0.482231    0.976548    0.335288    11.00000    0.03288    0.02318 =
         0.05349   -0.00079    0.00502    0.00468
AFIX  43
H14   2    0.452333    1.074975    0.342967    11.00000   -1.30000
AFIX   0
C15   1    0.573758    0.977191    0.314007    11.00000    0.02986    0.02706 =
         0.02939    0.00064    0.00448   -0.00106
C16   1    0.617802    0.827494    0.303584    11.00000    0.02450    0.02842 =
         0.02857   -0.00346    0.00620   -0.00183
AFIX  43
H16   2    0.678810    0.826015    0.290188    11.00000   -1.30000
AFIX   0
C17   1    0.571699    0.682193    0.312966    11.00000    0.02598    0.02732 =
         0.01865   -0.00062    0.00620    0.00082
AFIX  43
H17   2    0.601156    0.583524    0.304982    11.00000   -1.30000
AFIX   0
C18   1    0.514042    0.433625    0.451439    11.00000    0.02471    0.03127 =
         0.03346   -0.00117    0.00101    0.00212
C19   1    0.582856    0.404609    0.543336    11.00000    0.03876    0.09530 =
         0.03380    0.00471   -0.00445    0.02019
AFIX  43
H19   2    0.580661    0.403027    0.585926    11.00000   -1.30000
AFIX   0
C20   1    0.666212    0.376581    0.514947    11.00000    0.03173    0.09116 =
         0.04844   -0.00919   -0.00652    0.02463
AFIX  43
H20   2    0.719234    0.353440    0.537414    11.00000   -1.30000
AFIX   0
C21   1    0.668025    0.384208    0.451500    11.00000    0.02587    0.04516 =
         0.04012   -0.00371    0.00067    0.00563
C22   1    0.754661    0.363884    0.414898    11.00000    0.02847    0.07045 =
         0.05427   -0.00556    0.00732    0.01003
AFIX 137
H22A  2    0.751669    0.263668    0.392158    11.00000   -1.30000
H22B  2    0.806883    0.361040    0.442011    11.00000   -1.30000
H22C  2    0.761037    0.453900    0.387034    11.00000   -1.30000
AFIX   0
H1N1  2    0.108033   -0.125053    0.707306    11.00000    0.03797
H2N1  2    0.189534   -0.205620    0.686507    11.00000    0.04186
H1N2  2    0.387792    0.513468    0.563805    11.00000    0.03105
H1N6  2    0.378453    0.500748    0.443233    11.00000    0.08620
HKLF 4
REM  190k_smz-f1_a.res in Pna2(1)
REM R1 =  0.0481 for    5154 Fo > 4sig(Fo)  and  0.0626 for all    6404 data
REM    344 parameters refined using      1 restraints
END
WGHT      0.0507      0.6034
REM Highest difference peak  0.279,  deepest hole -0.346,  1-sigma level  0.054
Q1    1   0.1956  0.1042  0.7011  11.00000  0.05    0.28
Q2    1   0.4662  0.7587  0.3368  11.00000  0.05    0.25
Q3    1   0.1917  0.2389  0.7019  11.00000  0.05    0.25
Q4    1   0.3234  0.4086  0.6693  11.00000  0.05    0.23
Q5    1   0.5761  0.7762  0.3027  11.00000  0.05    0.21
Q6    1   0.4657  0.4399  0.5405  11.00000  0.05    0.21
Q7    1   0.3232  0.5704  0.6807  11.00000  0.05    0.21
Q8    1   0.4652  0.9022  0.3476  11.00000  0.05    0.20
Q9    1   0.2422  0.0420  0.6485  11.00000  0.05    0.20
Q10   1   0.6794  0.4397  0.4917  11.00000  0.05    0.20
Q11   1   0.8030  0.4410  0.4297  11.00000  0.05    0.19
Q12   1   0.7992  0.4729  0.3414  11.00000  0.05    0.19
Q13   1   0.4712  0.5748  0.3475  11.00000  0.05    0.19
Q14   1   0.6603  0.3472  0.4836  11.00000  0.05    0.19
Q15   1   0.4217  0.4710  0.6484  11.00000  0.05    0.19
Q16   1   0.5276  0.7035  0.3299  11.00000  0.05    0.19
Q17   1   0.2009  0.6800  0.4297  11.00000  0.05    0.19
Q18   1   0.6364  0.3780  0.4336  11.00000  0.05    0.19
Q19   1   0.3164  0.2643  0.6630  11.00000  0.05    0.19
Q20   1   0.3581  0.5336  0.3580  11.00000  0.05    0.18
;
_shelx_res_checksum              22360
_shelx_hkl_file
;
   0   0 -19    1.55    1.77
   0   0 -18  100.02    8.58
   0   0 -17    3.26    2.04
   0   0 -16  533.46   18.30
   0   0 -15    0.16    1.23
   0   0 -14   68.27    6.08
   0   0 -13   -0.01    0.89
   0   0 -12 5509.37   49.23
   0   0 -11    0.64    0.84
   0   0 -10  436.71   12.70
   0   0  -9   -0.55    0.88
   0   0  -7    0.02    0.85
   0   0  -5    0.36    0.35
   0   0  -4 5640.20   29.01
   0   1 -20    1.35    2.22
   0   1 -19   57.56    7.56
   0   1 -18    0.85    1.12
   0   1 -18   -1.00    1.13
   0  -1 -17   39.87    4.44
   0   1 -17   36.71    5.31
   0   1 -17   25.34    3.97
   0   1 -16    1.57    1.85
   0  -1 -16    0.79    1.00
   0   1 -16    1.77    2.41
   0  -1 -15  117.95    7.10
   0   1 -15  113.84    9.10
   0  -1 -14    0.06    1.01
   0   1 -14    0.69    1.67
   0  -1 -13  207.47    8.55
   0   1 -13  190.52   11.07
   0  -1 -12    0.53    0.63
   0   1 -12    2.24    1.76
   0  -1 -11   63.31    4.28
   0   1 -11   63.52    6.13
   0   1 -10   -0.64    1.04
   0  -1 -10    0.56    0.83
   0  -1  -9 2406.15   23.12
   0   1  -9 2346.18   34.44
   0   1  -8    1.45    0.81
   0  -1  -8   -0.32    0.61
   0  -1  -7 2189.21   19.04
   0  -1  -6    0.32    0.44
   0   1  -2   -0.25    0.41
   0  -1  -2    0.01    0.23
   0  -1  -1  539.06    9.35
   0   1  -1  570.71   11.20
   0  -1   0    0.08    0.27
   0   1   0    0.13    0.54
   0   1   1  563.40   10.23
   0  -1   1  546.34   11.12
   0   1   2    0.45    0.41
   0  -1   2    0.19    0.62
   0  -1   3 1899.94   23.86
   0  -1   4    0.81    0.45
   0  -1   5 3574.30   36.65
   0   2 -22  208.25   16.05
   0   2 -21    0.03    2.18
   0   2 -20  231.69   16.19
   0   2 -19   -0.08    2.45
   0   2 -19   -0.96    1.59
   0   2 -18  185.30   12.50
   0   2 -18  190.75   14.06
   0   2 -17   -1.28    2.19
   0   2 -17   -0.70    1.85
   0   2 -16 1216.99   33.84
   0   2 -16 1294.22   32.05
   0   2 -15   -0.83    1.17
   0   2 -15   -0.64    1.88
   0  -2 -15    0.98    1.13
   0   2 -14  379.63   18.46
   0   2 -14  401.53   16.94
   0  -2 -14  353.11   10.02
   0   2 -13    1.23    2.01
   0   2 -13    0.65    1.13
   0  -2 -13    0.41    0.69
   0   2 -12 2744.39   46.36
   0   2 -12 2742.30   42.33
   0   2 -11    0.84    2.11
   0  -2 -11    0.84    0.88
   0   2 -11    1.72    1.62
   0   2 -10 2964.01   42.25
   0  -2 -10 2959.49   26.60
   0   2  -9   -0.23    0.89
   0  -2  -9    0.77    0.52
   0   2  -8  217.08   10.91
   0  -2  -7    0.33    0.75
   0   2  -7    0.53    1.30
   0  -2  -6 2475.82   24.57
   0   2  -6 2457.70   35.71
   0  -2  -5    1.23    0.92
   0   2  -5   -0.22    0.70
   0   2  -4 2282.74   32.74
   0  -2  -4 2235.48   25.00
   0  -2  -3    0.28    0.49
   0   2  -3    1.41    1.57
   0   2  -2  858.30   19.57
   0  -2  -2  891.31   17.17
   0   2  -1    0.03    0.93
   0  -2  -1    1.25    1.09
   0   2   1   -0.65    0.88
   0  -2   1    0.41    0.85
   0   2   2  861.59   17.94
   0  -2   2  869.39   19.66
   0  -2   3    0.77    0.63
   0   2   3    1.30    1.52
   0  -2   4 2153.72   34.30
   0  -2   5    0.55    0.99
   0  -2   6 2386.29   37.87
   0  -2   7   -0.57    1.25
   0   3 -23    4.44    3.27
   0   3 -22   -2.55    4.22
   0   3 -21  140.97   14.15
   0   3 -20    0.97    2.98
   0   3 -19  281.30   18.55
   0   3 -19  289.41   17.72
   0   3 -18    1.14    2.69
   0   3 -18    2.02    2.45
   0   3 -17   69.00    9.24
   0   3 -17   68.59    8.16
   0   3 -16    0.55    2.31
   0   3 -16   -0.65    2.22
   0   3 -15  136.45   11.20
   0   3 -15  125.81   11.75
   0   3 -14    2.00    1.96
   0   3 -14    0.94    2.36
   0  -3 -14    1.83    1.31
   0  -3 -13  231.49    8.51
   0   3 -13  223.04   14.90
   0   3 -13  251.93   14.62
   0  -3 -12    0.87    0.84
   0   3 -12    0.24    1.42
   0   3 -11  252.52   14.35
   0   3 -10   -0.09    1.33
   0  -3 -10   -1.07    0.76
   0  -3  -9 4215.82   39.23
   0   3  -9 4130.97   56.20
   0   3  -8    0.31    1.13
   0  -3  -8    0.13    0.71
   0  -3  -7   36.91    3.84
   0   3  -7   46.89    5.85
   0   3  -6    2.42    1.24
   0  -3  -6    0.54    0.74
   0   3  -5  729.55   22.46
   0  -3  -5  772.49   18.67
   0   3  -4    1.19    1.47
   0  -3  -4   -0.10    0.91
   0  -3  -3 1160.47   23.98
   0   3  -3 1064.06   25.83
   0  -3  -2   -0.43    0.97
   0   3  -2   -0.46    1.03
   0   3  -1 2162.16   36.11
   0  -3  -1 2277.13   35.28
   0   3   0    2.32    1.84
   0  -3   0    0.37    1.02
   0   3   1 2293.62   36.66
   0  -3   1 2194.52   36.73
   0  -3   2    2.03    1.87
   0   3   2   -0.07    0.95
   0   3   3 1131.91   25.38
   0  -3   3 1123.44   27.56
   0  -3   4    0.27    1.29
   0   3   4    1.53    1.85
   0  -3   6   -1.37    2.04
   0  -3   7   41.78    5.82
   0  -3   8    0.28    1.99
   0  -3   9 4063.07   59.50
   0   4 -24    2.63    2.73
   0   4 -23   -0.15    3.74
   0   4 -22  535.82   29.12
   0   4 -21    0.50    3.10
   0   4 -20   56.07    8.98
   0   4 -20   54.35    9.53
   0   4 -19    9.89    4.08
   0   4 -19    1.95    1.99
   0   4 -18  419.26   24.55
   0   4 -18  388.13   21.91
   0   4 -17    6.19    3.26
   0   4 -17    0.09    1.98
   0   4 -16 1338.87   39.47
   0   4 -16 1381.64   41.90
   0   4 -15   -0.11    1.70
   0   4 -15   -2.34    2.70
   0   4 -14  238.29   17.11
   0   4 -14  239.05   15.96
   0  -4 -13    1.14    1.64
   0   4 -13    1.08    1.85
   0  -4 -12 1221.44   24.56
   0   4 -12 1235.30   35.36
   0  -4 -11   -0.25    1.08
   0   4 -11    2.65    1.91
   0   4 -10 3147.51   54.85
   0  -4 -10 3126.37   41.15
   0  -4  -9    0.07    1.10
   0   4  -9    2.94    3.44
   0  -4  -8  870.91   22.60
   0   4  -8  864.08   28.03
   0   4  -7   -0.09    1.28
   0  -4  -7   -0.96    1.33
   0   4  -6 1586.32   37.01
   0  -4  -6 1649.31   32.44
   0  -4  -5   -0.29    1.46
   0   4  -5    4.15    2.57
   0  -4  -4 2863.33   44.19
   0   4  -4 2847.02   48.98
   0  -4  -3   -0.30    1.28
   0   4  -3    1.02    1.49
   0   4  -2  897.30   26.94
   0  -4  -2  946.14   25.90
   0   4  -1   -0.37    1.28
   0  -4  -1   -0.59    1.47
   0   4   0  457.78   18.89
   0  -4   0  484.93   19.22
   0  -4   1   -0.35    1.61
   0   4   1   -1.32    1.70
   0   4   2  881.29   26.13
   0  -4   2  881.44   26.87
   0   4   3    1.57    2.52
   0  -4   3    1.08    1.39
   0   4   4 3079.44   49.34
   0  -4   4 3019.88   52.17
   0  -4   5    1.08    2.39
   0  -4   6 1617.31   39.00
   0  -4   7    3.05    2.94
   0  -4   8  883.12   29.96
   0  -4   9    1.12    2.49
   0  -4  10 3144.23   58.70
   0   5 -25    2.55    3.25
   0   5 -24   -7.88    5.70
   0   5 -23   44.23    9.50
   0   5 -22    1.54    2.97
   0   5 -21   11.87    5.49
   0   5 -20   -1.97    3.42
   0   5 -20   -0.12    3.77
   0   5 -19   12.73    4.71
   0   5 -19   16.89    5.37
   0   5 -18   -0.67    2.90
   0   5 -18   -1.77    2.55
   0   5 -17    7.91    3.82
   0   5 -17    5.15    3.38
   0   5 -16    7.43    4.77
   0   5 -16    0.34    1.99
   0   5 -15   34.44    7.14
   0   5 -15   27.85    6.05
   0   5 -14    2.01    3.13
   0   5 -13   77.00    9.28
   0  -5 -12    1.09    2.00
   0   5 -12   -2.12    2.93
   0   5 -11   43.11    7.52
   0  -5 -11   40.49    5.87
   0  -5 -10    2.68    2.02
   0   5 -10   -2.33    3.53
   0   5  -9   11.04    4.30
   0  -5  -9    3.55    1.93
   0  -5  -8   -0.58    1.86
   0   5  -8   -2.21    2.39
   0  -5  -7  209.01   12.97
   0   5  -7  214.24   15.16
   0   5  -6   -0.60    2.21
   0  -5  -6    0.91    2.10
   0   5  -5  176.55   13.53
   0  -5  -5  163.32   11.72
   0  -5  -4   -1.02    1.98
   0   5  -4    0.41    1.77
   0  -5  -3  237.59   14.44
   0   5  -3  263.67   16.10
   0   5  -2    1.92    3.34
   0  -5  -2   -0.34    1.51
   0   5  -1   68.90    8.43
   0  -5  -1   69.69    8.01
   0   5   0    0.29    1.88
   0  -5   0   -0.85    2.02
   0  -5   1   83.59    9.05
   0   5   1   62.64    7.54
   0  -5   2   -1.79    2.74
   0   5   2    0.33    2.59
   0  -5   3  276.17   16.86
   0   5   3  237.53   15.06
   0   5   4    3.88    2.63
   0  -5   4   -0.66    2.09
   0  -5   5  185.19   14.43
   0  -5   6   -0.03    1.95
   0  -5   7  218.73   15.80
   0  -5   8   -1.27    1.51
   0  -5   9   -1.44    2.63
   0  -5  10    2.87    2.58
   0   6 -26  184.79   19.35
   0   6 -25    1.15    3.42
   0   6 -24   76.48   12.75
   0   6 -23   -5.02    5.00
   0   6 -22  402.88   27.43
   0   6 -21   -1.82    4.43
   0   6 -21   -0.06    3.90
   0   6 -20  169.39   17.34
   0   6 -20  147.14   16.42
   0   6 -19   -3.68    3.74
   0   6 -19    4.97    4.37
   0   6 -18    5.76    2.73
   0   6 -18   11.14    5.66
   0   6 -17   -2.29    4.08
   0   6 -17    0.20    2.10
   0   6 -16  365.36   23.62
   0   6 -16  394.66   24.56
   0   6 -15    4.92    4.33
   0   6 -15   -0.81    2.87
   0   6 -14   14.58    5.49
   0   6 -13    0.85    3.57
   0   6 -12  488.21   26.19
   0  -6 -11    1.59    1.68
   0   6 -11    4.62    3.48
   0   6 -10  511.12   26.13
   0  -6 -10  568.00   23.29
   0  -6  -9   -0.24    2.09
   0   6  -9    1.26    3.91
   0  -6  -8   79.84    9.16
   0   6  -8   51.29    8.89
   0   6  -7    5.13    5.05
   0  -6  -7   -2.11    2.40
   0   6  -6 3460.05   65.23
   0  -6  -6 3394.73   59.63
   0  -6  -5    1.18    2.65
   0   6  -5    2.34    3.31
   0   6  -4 1385.62   40.97
   0  -6  -4 1349.39   38.27
   0  -6  -3    3.51    2.59
   0   6  -3    2.51    3.31
   0   6  -2 2669.48   56.08
   0  -6  -2 2673.43   54.93
   0   6  -1    0.44    1.99
   0  -6  -1    5.13    2.45
   0  -6   0 1644.83   43.90
   0   6   0 1725.88   44.62
   0   6   1    1.38    2.14
   0  -6   1    5.09    3.81
   0   6   2 2565.75   54.93
   0  -6   2 2642.90   56.36
   0   6   3    3.12    4.01
   0  -6   3    0.79    3.58
   0  -6   4 1395.54   42.04
   0  -6   5    6.68    5.37
   0  -6   6 3172.98   63.69
   0  -6   7   -0.22    2.39
   0  -6   8   59.58    8.71
   0  -6   9   -0.88    2.01
   0  -6  10  541.26   27.86
   0   7 -24    1.04    3.53
   0   7 -23   15.60    5.83
   0   7 -22    2.41    4.00
   0   7 -21   18.34    6.98
   0   7 -21   32.39    8.39
   0   7 -20    4.25    3.51
   0   7 -20    9.06    6.42
   0   7 -19   53.59   11.20
   0   7 -19   33.07    8.38
   0   7 -18    4.13    3.25
   0   7 -18    4.99    4.76
   0   7 -17    8.18    4.45
   0   7 -17    6.41    4.72
   0   7 -16   -1.06    2.99
   0   7 -16   -0.50    3.92
   0   7 -15   65.21   11.06
   0   7 -15   71.23   11.59
   0   7 -14    1.71    3.21
   0   7 -13   71.59   10.98
   0   7 -12    0.81    2.55
   0   7 -11   24.97    6.18
   0  -7 -10   -0.43    2.32
   0   7 -10    0.61    3.13
   0   7  -9  261.07   19.16
   0  -7  -9  311.55   19.33
   0  -7  -8    3.51    2.61
   0   7  -8    6.72    3.67
   0  -7  -7 1099.38   38.15
   0   7  -7 1157.98   40.35
   0  -7  -6   -2.55    1.92
   0   7  -6    5.43    4.83
   0   7  -5  653.15   29.73
   0  -7  -5  615.14   27.97
   0   7  -4    0.70    2.27
   0  -7  -4    0.57    2.92
   0  -7  -3   78.81   10.26
   0   7  -3   72.48   10.58
   0   7  -2    1.72    2.85
   0  -7  -2    6.12    4.67
   0   7  -1 2296.52   55.34
   0  -7  -1 2230.14   54.60
   0   7   0    0.48    4.67
   0  -7   0    0.29    2.73
   0  -7   1 2175.74   54.69
   0   7   1 2275.12   56.60
   0   7   2    0.33    2.19
   0  -7   2    1.04    1.75
   0  -7   3   68.77   10.06
   0  -7   4   -0.68    2.14
   0  -7   5  675.97   31.33
   0  -7   6    4.30    3.63
   0  -7   7 1152.98   41.76
   0  -7   8    4.60    4.15
   0  -7   9  264.31   20.43
   0   8 -22   42.62   10.44
   0   8 -21    3.94    4.49
   0   8 -21   -1.12    3.10
   0   8 -20   49.83    9.24
   0   8 -20   68.42   12.30
   0   8 -19    1.30    3.86
   0   8 -19   -2.45    3.06
   0   8 -18    5.37    5.11
   0   8 -18    5.63    3.61
   0   8 -17    1.37    2.57
   0   8 -17   -0.76    3.36
   0   8 -16   82.10   11.93
   0   8 -16   88.45   12.91
   0   8 -15    2.66    4.64
   0   8 -15    0.19    4.04
   0   8 -14    4.41    2.91
   0   8 -14   12.62    3.91
   0   8 -13    3.18    4.29
   0   8 -12   38.14    8.72
   0   8 -11    2.03    3.52
   0   8 -10  110.10   13.78
   0  -8  -9   -3.74    2.74
   0   8  -9   -1.71    3.78
   0   8  -8    2.78    4.33
   0  -8  -8   -0.03    2.61
   0  -8  -7    1.64    3.31
   0   8  -7    1.90    2.33
   0   8  -6  248.25   19.90
   0  -8  -6  295.34   21.06
   0  -8  -5    0.20    3.59
   0   8  -5    3.17    2.33
   0   8  -4  123.89   14.17
   0  -8  -4  121.10   13.37
   0   8  -3   -0.84    3.97
   0  -8  -3    4.29    3.44
   0   8  -2  144.84   14.96
   0  -8  -2  146.83   15.26
   0  -8  -1   -0.88    3.18
   0   8  -1    0.39    3.90
   0   8   0  266.70   20.24
   0  -8   0  257.46   19.89
   0  -8   1    0.43    3.20
   0  -8   2  140.31   14.92
   0  -8   3    0.79    3.33
   0  -8   4   98.78   12.45
   0  -8   5   -0.95    3.58
   0  -8   6  254.55   20.13
   0  -8   7    2.56    3.28
   0  -8   8    5.01    3.65
   0   9 -19   16.10    7.37
   0   9 -19    6.12    3.24
   0   9 -18    0.06    5.32
   0   9 -18   -0.49    4.26
   0   9 -17   37.66    8.94
   0   9 -17   50.96   10.79
   0   9 -16   -3.26    5.01
   0   9 -16    7.64    7.02
   0   9 -15    6.74    5.21
   0   9 -15   14.64    7.73
   0   9 -14   -5.26    5.88
   0   9 -14    0.37    5.32
   0   9 -13    1.75    4.02
   0   9 -13    2.02    2.69
   0   9 -12   -4.69    4.10
   0   9 -11   78.10   12.89
   0   9 -10   -3.03    3.44
   0   9  -9   41.81    8.82
   0  -9  -8    0.30    3.06
   0   9  -8   -4.90    4.82
   0  -9  -7   19.19    5.87
   0   9  -7   29.91    8.22
   0  -9  -6    3.86    4.27
   0   9  -6   -0.62    2.54
   0   9  -5   -1.08    3.10
   0  -9  -5    7.44    5.64
   0   9  -4   -2.11    3.62
   0  -9  -4    1.03    3.16
   0   9  -3   47.67    9.79
   0  -9  -3   40.25    8.11
   0  -9  -2    5.90    4.85
   0  -9  -1   16.45    6.45
   0  -9   0   -0.26    2.33
   0  -9   1    4.66    4.99
   0  -9   2   -3.25    3.65
   0  -9   3   47.36    9.25
   0  -9   4   -2.47    3.72
   0  -9   5    3.08    4.50
   0  10 -16   47.44   10.69
   0  10 -15    2.11    2.63
   0  10 -14    3.53    5.28
   0  10 -14   16.02    6.86
   0  10 -13   -1.72    5.32
   0  10 -13    2.63    2.60
   0  10 -12   29.43    7.41
   0  10 -12   24.96    7.03
   0  10 -11    4.58    5.60
   0  10 -11    4.89    3.99
   0  10 -10   90.80   13.91
   0 -10  -6  173.06   18.24
   0 -10  -5   -4.93    5.50
   0 -10  -4  112.46   14.91
   0 -10  -3   -4.60    4.44
   0 -10  -2   37.86    9.28
   0 -10  -1    2.85    2.80
   0 -10   0  237.70   21.12
   0 -10   1    3.09    4.91
   0  11 -10    0.80    3.54
   0  11  -9   14.75    4.32
   0  11  -8    1.28    2.81
  -1   0 -19    0.14    2.13
   1   0 -18    1.63    1.94
  -1   0 -18    3.99    1.78
  -1   0 -17   -0.27    2.03
   1   0 -17   -0.32    1.56
  -1   0 -16   -0.69    1.55
   1   0 -16    1.03    1.57
  -1   0 -16   -0.36    0.54
  -1   0 -15   -0.03    1.60
   1   0 -15   -0.46    0.83
  -1   0 -15    0.28    0.66
  -1   0 -14    0.06    1.69
  -1   0 -14    0.25    0.56
   1   0 -14   -0.66    0.97
  -1   0 -13    0.66    0.42
   1   0 -13   -0.08    0.65
  -1   0 -13   -0.82    1.60
  -1   0 -12    0.78    1.66
   1   0 -12    0.94    1.21
  -1   0 -12    0.20    0.65
   1   0 -11   -0.14    0.53
  -1   0 -11    0.72    0.71
  -1   0 -11    0.61    1.18
  -1   0 -10   -0.02    0.76
   1   0 -10    0.42    0.98
  -1   0 -10    0.21    0.39
   1   0  -9    0.31    0.59
  -1   0  -9    0.00    0.43
  -1   0  -9   -0.24    1.13
  -1   0  -8   -0.11    0.30
   1   0  -8    0.30    0.60
  -1   0  -8    0.56    0.70
  -1   0  -7   -0.11    0.62
  -1   0  -6    0.26    0.45
  -1   0  -5   -0.19    0.36
  -1   0  -4    0.47    0.59
  -1   0  -3    0.27    0.41
  -1   0  -2    0.02    0.23
  -1   0  -1   -0.11    0.23
  -1   0   4    0.24    0.37
  -1   0   5    0.79    0.68
  -1   0   6    0.06    0.47
  -1   1 -21   26.05    6.49
   1   1 -20  165.49   12.72
  -1   1 -20  175.92   13.71
   1   1 -19  226.89   14.15
  -1   1 -19  237.31   15.41
   1   1 -18   78.74    8.29
  -1  -1 -18   65.64    6.52
  -1   1 -18   66.49    7.82
  -1  -1 -17  184.57   10.83
  -1   1 -17  207.09   13.48
   1   1 -17  214.26   12.88
  -1   1 -17  177.59    9.53
   1   1 -16  399.16   17.30
  -1   1 -16  382.17   13.73
  -1   1 -16  364.87   17.50
  -1  -1 -16  368.41   14.74
   1  -1 -16  334.74   10.76
   1  -1 -15   26.31    2.84
  -1   1 -15   20.68    3.43
  -1  -1 -15   25.51    3.93
   1   1 -15   30.22    4.90
  -1   1 -15   29.34    5.03
  -1   1 -14  157.78    8.45
   1  -1 -14  136.38    6.23
  -1   1 -14  150.53   10.63
   1   1 -14  163.11   10.55
  -1  -1 -14  138.94    8.30
  -1  -1 -13  803.23   19.46
  -1   1 -13  774.42   23.35
   1  -1 -13  738.38   13.65
  -1   1 -13  766.32   18.16
   1   1 -13  803.93   22.64
  -1  -1 -12 1741.46   27.45
   1  -1 -12 1657.04   18.95
  -1   1 -12 1705.61   33.31
   1   1 -12 1675.27   31.25
  -1   1 -12 1728.49   26.65
  -1   1 -11  580.36   18.92
  -1  -1 -11  587.88   15.34
   1  -1 -11  553.64   10.09
  -1  -1 -10  941.62   18.61
  -1   1 -10  946.70   23.46
  -1   1 -10  973.76   18.93
   1  -1 -10  917.00   11.66
  -1  -1  -9 1257.64   20.52
  -1   1  -9 1249.36   25.92
  -1   1  -9 1223.14   20.99
  -1  -1  -8  926.64   16.88
  -1   1  -8  941.82   17.52
  -1   1  -8  924.04   21.41
  -1   1  -7 1317.25   24.58
  -1  -1  -7 1298.74   19.43
  -1   1  -7 1276.62   19.87
  -1  -1  -6 2061.46   23.32
  -1   1  -6 2056.31   29.36
  -1   1  -5 1104.95   17.62
  -1   1  -5 1037.91   21.08
  -1  -1  -4 3399.69   27.92
  -1   1  -4 3413.97   34.74
  -1   1  -3 2700.54   25.98
  -1   1  -3 2703.36   29.30
  -1  -1  -3 2696.10   24.00
  -1   1  -2   75.71    4.35
  -1  -1  -2   79.27    4.21
  -1   1  -2   66.58    4.32
  -1  -1  -1 4082.17   30.82
  -1   1  -1 4101.84   31.25
  -1  -1   1 4003.26   32.59
  -1   1   1 4027.64   25.79
  -1   1   2   78.56    3.17
  -1  -1   2   76.49    4.67
   1   1   3 2591.36   20.46
  -1  -1   3 2531.38   28.27
  -1  -1   4 3363.86   33.67
   1   1   4 3408.57   21.40
  -1  -1   5 1168.79   20.71
  -1  -1   6 2093.56   29.19
  -1  -1   7 1254.22   23.82
  -1  -1   8  893.03   20.55
  -1  -1   9 1238.35   25.32
  -1   2 -22   22.80    4.99
   1   2 -21   19.91    5.49
  -1   2 -21   10.19    4.37
  -1   2 -20   89.26   10.37
   1   2 -20   90.67   10.29
   1   2 -19   57.66    7.89
   1   2 -19   48.73    7.16
  -1   2 -19   49.37    7.28
  -1   2 -18   32.26    6.08
   1   2 -18   28.94    5.70
  -1   2 -18   14.65    3.61
   1   2 -18   14.76    4.23
   1   2 -17   55.63    7.69
  -1   2 -17   43.20    5.70
  -1   2 -17   63.14    8.17
   1   2 -16   67.40    8.32
  -1   2 -16   76.00    8.83
  -1   2 -16   75.11    7.27
  -1  -2 -16   57.69    5.56
  -1  -2 -15   17.60    3.05
  -1   2 -15   21.51    4.27
  -1   2 -15   20.31    4.07
   1   2 -15   23.65    5.06
  -1   2 -14  154.65   11.51
  -1  -2 -14  150.50    8.13
   1   2 -14  135.23   10.90
  -1   2 -14  157.60   10.30
  -1   2 -13   43.51    5.05
  -1   2 -13   36.02    5.41
  -1  -2 -12   17.79    2.67
  -1   2 -12   11.43    3.30
  -1  -2 -11    1.59    0.98
  -1   2 -11    4.36    2.23
  -1   2 -11    1.78    1.29
  -1   2 -10   66.70    6.16
  -1   2 -10   60.07    6.67
  -1  -2 -10   61.97    4.83
  -1  -2  -9  202.97    8.61
  -1   2  -9  211.42   12.10
  -1   2  -9  219.55   10.98
  -1   2  -8  159.53   10.17
  -1   2  -8  153.90    9.03
  -1  -2  -8  174.48    7.83
  -1   2  -7  231.72   12.10
  -1   2  -7  260.96   11.46
   1  -2  -6  323.82    7.61
  -1   2  -6  320.03   12.46
  -1  -2  -6  315.73   10.51
   1  -2  -5   46.48    3.15
  -1  -2  -5   46.07    4.08
  -1   2  -5   50.13    4.86
  -1   2  -4  223.21   10.12
   1  -2  -4  234.22    7.51
  -1  -2  -4  230.23    9.08
  -1   2  -3 1708.36   27.74
  -1  -2  -3 1751.10   25.55
   1  -2  -3 1765.37   22.65
  -1  -2  -2 6059.06   47.86
   1  -2  -2 5947.65   43.62
  -1   2  -1 5692.55   49.66
   1  -2  -1 5653.40   44.46
   1  -2   0 9999.00   62.26
   1  -2   1 5504.98   48.52
   1   2   1 5599.51   47.10
   1  -2   2 5987.97   52.33
  -1  -2   2 6045.49   53.17
   1   2   3 1792.41   25.14
  -1  -2   3 1742.36   29.52
  -1  -2   4  239.04   11.38
   1   2   4  220.87    8.67
  -1  -2   5   57.56    5.67
   1   2   5   50.21    4.10
  -1  -2   6  342.29   14.34
  -1  -2   7  219.55   12.02
  -1  -2   9  217.76   12.41
  -1  -2  10   56.52    6.65
  -1  -2  11    3.63    2.51
  -1   3 -23   90.63   11.95
  -1   3 -22  220.55   17.86
   1   3 -22  245.70   18.60
   1   3 -21   44.12    8.18
  -1   3 -21   66.80    9.85
   1   3 -20  238.24   16.99
  -1   3 -20  279.45   19.42
   1   3 -20  250.24   17.86
  -1   3 -19  223.58   15.44
   1   3 -19  250.67   17.00
  -1   3 -19  231.41   17.27
  -1   3 -18   99.03   11.08
   1   3 -18   89.93    9.98
  -1   3 -18   88.44    9.49
   1   3 -17  314.87   19.13
  -1   3 -17  318.38   17.40
  -1   3 -17  293.84   18.47
   1   3 -17  276.17   17.08
  -1   3 -16 1116.16   35.41
   1   3 -16 1106.64   33.71
  -1   3 -16 1101.06   32.03
   1   3 -16 1093.74   35.12
  -1   3 -15  112.90   11.07
  -1   3 -15  129.28   10.62
   1   3 -15  131.10   11.59
  -1  -3 -15  135.16    7.88
  -1   3 -14  821.47   26.72
  -1   3 -14  810.23   29.50
   1   3 -14  846.75   27.97
  -1  -3 -14  789.23   19.61
  -1   3 -13 1242.95   32.03
  -1  -3 -13 1312.42   24.54
  -1   3 -13 1322.87   36.49
   1   3 -13 1261.76   33.79
  -1   3 -12  566.46   23.50
  -1   3 -12  562.79   21.30
  -1  -3 -12  535.63   15.81
  -1  -3 -11  371.59   13.19
  -1   3 -11  369.11   16.84
  -1   3 -11  350.48   18.02
  -1   3 -10 1832.27   40.74
  -1  -3 -10 1804.88   29.64
  -1   3  -9  464.37   18.46
   1  -3  -9  472.65   11.57
  -1  -3  -9  468.24   14.98
  -1   3  -8  251.95   13.52
   1  -3  -8  273.65    9.33
  -1  -3  -8  284.67   11.57
  -1   3  -7  848.42   24.30
   1  -3  -7  860.61   17.24
  -1  -3  -7  834.44   20.05
   1  -3  -6  116.68    6.64
  -1  -3  -6  124.37    7.92
  -1   3  -6  134.55    9.41
   1  -3  -5  389.03   12.65
   1   3  -5  383.91   16.30
  -1   3  -5  375.86   15.67
  -1  -3  -5  380.63   14.17
  -1   3  -4 1302.93   29.70
   1  -3  -4 1305.32   24.51
  -1  -3  -4 1356.88   26.90
   1   3  -3  296.48   13.98
  -1  -3  -3  305.82   12.98
  -1   3  -3  311.29   14.01
   1  -3  -3  317.54   12.28
  -1  -3  -2  334.95   13.86
   1  -3  -2  361.02   13.67
  -1   3  -2  321.42   14.34
   1   3  -1 1304.52   28.72
  -1   3  -1 1353.67   28.86
   1  -3  -1 1263.49   26.44
  -1  -3   0 2477.28   39.05
  -1   3   0 2468.65   39.71
   1   3   0 2558.07   40.07
  -1  -3   1 1384.54   29.68
   1   3   1 1343.48   28.23
   1  -3   1 1280.04   28.24
  -1   3   1 1345.20   28.99
  -1  -3   2  318.62   14.62
   1  -3   2  331.38   14.69
   1   3   2  314.71   13.39
  -1  -3   3  321.90   15.04
   1   3   3  303.14   13.01
   1  -3   3  328.83   15.04
   1  -3   4 1318.60   30.41
  -1  -3   4 1327.78   30.87
   1   3   4 1262.81   26.52
  -1  -3   5  396.36   17.25
   1   3   5  372.14   14.19
   1  -3   5  403.24   17.46
   1   3   6  119.16    8.32
  -1  -3   6  116.58    9.61
  -1  -3   7  765.26   25.30
  -1  -3   8  266.68   15.21
  -1  -3   9  416.60   19.17
  -1  -3  10 1841.81   41.09
  -1  -3  11  327.19   17.76
  -1  -3  12  537.88   23.17
  -1   4 -24   14.18    4.52
   1   4 -23   49.62    9.49
  -1   4 -23   59.93   10.38
   1   4 -22   69.28   10.82
  -1   4 -22   66.69   10.64
  -1   4 -21   77.40   11.38
   1   4 -21   69.08   10.39
   1   4 -20    3.90    2.85
   1   4 -20    5.34    3.95
   1   4 -19   20.66    6.30
   1   4 -19   15.78    5.26
  -1   4 -19   10.25    4.90
  -1   4 -19   14.98    4.98
  -1   4 -18   35.25    7.27
   1   4 -18   29.10    6.61
   1   4 -18   38.19    8.12
  -1   4 -18   37.38    7.28
  -1   4 -17   54.33    7.90
   1   4 -17   52.65    8.64
  -1   4 -17   46.87    7.66
   1   4 -17   29.51    6.73
  -1   4 -16   14.89    4.80
  -1   4 -16   27.71    6.69
   1   4 -16   26.14    6.01
  -1   4 -15   48.54    7.37
  -1   4 -15   49.45    7.93
   1   4 -15   51.30    7.72
   1   4 -14    6.61    2.84
  -1   4 -14   12.41    4.72
  -1   4 -14   16.68    5.23
  -1  -4 -14   12.37    3.22
  -1   4 -13   13.45    4.37
  -1   4 -13   13.12    3.79
  -1  -4 -13   10.01    1.70
   1   4 -13   16.63    4.98
  -1   4 -12  255.09   17.05
   1   4 -12  249.89   16.42
  -1   4 -12  243.73   15.33
  -1  -4 -12  244.64   12.04
   1  -4 -11   80.42    5.85
  -1  -4 -11   78.36    6.99
  -1   4 -11   98.27    9.99
   1   4 -11   85.38    9.62
  -1   4 -11   84.58    9.56
   1   4 -10  378.05   19.40
  -1  -4 -10  340.37   14.50
   1  -4 -10  340.72   12.56
  -1   4 -10  322.38   17.43
   1   4  -9  585.45   23.90
  -1  -4  -9  575.84   19.46
  -1   4  -9  577.38   22.93
   1  -4  -9  614.87   17.49
   1   4  -8  229.73   15.25
  -1   4  -8  239.76   14.74
   1  -4  -8  253.24   11.79
  -1  -4  -8  237.24   12.47
  -1   4  -7   12.27    3.57
   1  -4  -7   17.02    2.98
   1   4  -7   11.78    3.78
  -1  -4  -7   13.08    2.82
  -1   4  -6  129.19   10.96
  -1  -4  -6  128.00    9.32
   1   4  -6  143.67   11.28
   1  -4  -6  152.57    9.53
  -1   4  -5  156.77   11.64
   1   4  -5  163.19   11.95
   1  -4  -5  163.12   10.26
  -1  -4  -5  162.14   10.64
  -1   4  -4  102.13    9.29
  -1  -4  -4  112.31    9.05
   1   4  -4  117.69   10.29
   1  -4  -4  111.29    8.59
  -1   4  -3  132.16   10.71
  -1  -4  -3  138.04    9.96
   1  -4  -3  147.51   10.00
   1   4  -3  141.27   11.11
   1  -4  -2  414.94   17.43
  -1   4  -2  455.73   19.47
   1   4  -2  424.09   18.69
  -1  -4  -2  440.75   18.21
  -1   4  -1  875.25   26.69
  -1  -4  -1  914.84   26.55
   1  -4  -1  903.53   26.06
   1   4  -1  826.59   25.80
  -1   4   0 2059.72   41.23
   1   4   0 2121.39   41.01
   1  -4   0 2048.53   40.61
  -1  -4   0 2169.77   41.61
  -1  -4   1  873.06   26.74
   1   4   1  850.50   25.83
  -1   4   1  893.50   27.29
   1   4   2  436.05   18.07
   1  -4   2  419.74   18.45
  -1  -4   2  430.00   19.11
   1  -4   3  135.44   10.93
   1   4   3  127.99   10.10
   1   4   4   90.56    8.35
   1  -4   4   94.56    8.91
  -1  -4   4  106.85    9.62
   1   4   5  168.70   11.10
  -1  -4   5  155.98   11.86
   1  -4   5  162.99   12.17
   1  -4   6  128.27   11.10
   1   4   6  137.26   10.11
  -1  -4   6  126.56   11.02
  -1  -4   7   10.24    3.75
  -1  -4   9  526.74   23.71
  -1  -4  10  346.90   19.39
  -1  -4  11   80.10    9.53
  -1  -4  12  216.75   16.06
  -1   5 -25   41.67    9.12
  -1   5 -24    4.74    2.69
   1   5 -24    0.88    3.01
   1   5 -23   54.44   10.36
  -1   5 -23   70.15   11.07
   1   5 -22  165.18   16.89
  -1   5 -22  175.62   17.62
   1   5 -21   33.72    7.33
   1   5 -21   44.64    8.28
  -1   5 -21   35.56    8.10
  -1   5 -20   65.18   10.22
   1   5 -20   54.40    9.60
   1   5 -20   44.50    8.86
  -1   5 -20   54.25   10.27
   1   5 -19  140.08   14.97
  -1   5 -19  121.71   13.39
  -1   5 -19  134.62   14.64
   1   5 -19  141.79   14.47
   1   5 -18   64.64    9.76
  -1   5 -18   70.10    9.95
  -1   5 -18   66.38    9.65
   1   5 -18   46.22    8.38
   1   5 -17   33.34    7.31
  -1   5 -17   37.54    7.69
   1   5 -17   41.69    8.22
  -1   5 -17   36.17    6.38
   1   5 -16  448.23   24.24
  -1   5 -16  384.20   23.73
  -1   5 -16  456.17   24.44
  -1   5 -15  101.33   11.63
  -1   5 -15  115.30   12.70
   1   5 -15  105.95   12.45
   1   5 -14   83.46   10.47
  -1   5 -14  117.49   12.00
  -1   5 -14   98.11   11.68
   1   5 -13  298.47   19.39
  -1   5 -13  358.43   21.05
  -1  -5 -13  346.79   16.22
  -1   5 -13  364.48   21.96
   1   5 -12  324.29   19.92
  -1   5 -12  329.10   19.98
  -1   5 -12  285.22   19.52
  -1  -5 -12  311.07   15.84
   1  -5 -11   40.38    5.43
   1   5 -11   50.60    8.12
  -1   5 -11   58.00    8.52
  -1   5 -10  672.45   27.41
   1  -5 -10  699.03   22.28
   1   5  -9  387.52   20.88
   1  -5  -9  412.02   17.59
  -1   5  -9  387.32   21.01
  -1  -5  -9  396.03   18.15
   1  -5  -8   81.75    7.97
  -1   5  -8   70.78    8.58
  -1  -5  -8   72.69    7.84
   1   5  -8   73.40    9.36
   1   5  -7  385.10   20.60
  -1   5  -7  363.03   19.79
  -1  -5  -7  405.68   18.61
   1  -5  -7  368.27   17.33
  -1   5  -6  380.04   19.88
  -1  -5  -6  392.96   18.61
   1  -5  -6  355.18   17.16
   1   5  -6  343.04   19.38
   1  -5  -5   88.90    8.86
   1   5  -5  115.96   10.98
  -1   5  -5   94.28   10.14
  -1  -5  -5  103.58    9.72
  -1   5  -4  460.54   21.77
  -1  -5  -4  499.80   21.46
   1   5  -4  480.13   22.24
   1  -5  -3  712.15   25.07
  -1  -5  -3  697.11   25.42
  -1   5  -3  674.97   26.20
   1   5  -3  672.36   26.07
  -1   5  -2  121.83   11.18
   1   5  -2   97.71    9.58
  -1  -5  -2  119.36   10.46
   1  -5  -2  136.87   11.05
   1   5  -1   52.25    7.51
  -1   5  -1   66.86    7.87
  -1  -5  -1   65.54    7.85
   1  -5  -1   66.33    7.60
   1   5   0  378.68   19.18
  -1  -5   0  374.38   19.08
  -1   5   0  393.03   20.14
   1  -5   0  427.83   20.10
  -1   5   1   42.18    6.56
  -1  -5   1   60.79    8.01
   1   5   1   53.78    7.56
   1  -5   1   44.44    6.60
   1  -5   2  137.56   11.88
  -1  -5   2  117.62   10.73
   1   5   2  105.22   10.26
   1  -5   3  660.64   25.96
  -1  -5   3  685.09   26.70
   1   5   3  717.98   26.04
  -1  -5   4  523.43   23.73
   1   5   4  498.43   21.89
   1  -5   4  553.76   24.15
  -1  -5   5  102.04   10.70
   1  -5   5  106.92   10.73
   1   5   5   92.29    9.27
   1   5   6  399.48   19.74
   1  -5   6  375.98   20.79
  -1  -5   6  389.92   21.28
  -1  -5   7  436.97   22.71
  -1  -5   8   71.93    9.32
  -1  -5   9  431.73   22.79
  -1  -5  10  675.56   29.23
  -1  -5  11   47.66    7.92
  -1  -5  12  300.81   19.93
  -1  -5  13  349.94   21.83
  -1   6 -26   -5.35    6.53
   1   6 -25    1.21    3.57
  -1   6 -25    9.67    6.07
   1   6 -24   -2.85    4.55
  -1   6 -24   10.81    5.86
   1   6 -23    8.59    5.27
  -1   6 -23    7.57    5.00
   1   6 -22   24.34    6.53
  -1   6 -22   15.70    5.64
   1   6 -21    1.79    3.45
  -1   6 -21    7.75    3.81
   1   6 -20   20.82    7.77
   1   6 -20   -0.08    2.90
  -1   6 -20    9.50    4.59
  -1   6 -20   13.21    5.64
  -1   6 -19   17.07    4.78
   1   6 -19    5.13    3.10
  -1   6 -19    0.77    3.72
   1   6 -19   15.32    5.35
   1   6 -18    2.13    3.64
  -1   6 -18    1.29    3.59
  -1   6 -18    1.33    2.88
   1   6 -18    2.26    4.64
  -1   6 -17    8.83    5.54
   1   6 -17    2.87    3.48
   1   6 -17   11.25    5.97
  -1   6 -17   10.61    5.38
  -1   6 -16   12.85    5.85
   1   6 -16    0.60    3.33
  -1   6 -16    6.49    4.05
  -1   6 -15    1.90    2.54
   1   6 -15   12.01    5.20
  -1   6 -15   19.35    4.92
   1   6 -14   13.69    6.16
  -1   6 -14    6.18    3.27
  -1   6 -14    9.90    5.56
   1   6 -13   37.91    7.28
  -1   6 -13   35.57    8.12
  -1   6 -13   33.74    7.83
  -1   6 -12   53.59    8.95
  -1   6 -12   57.95    9.42
  -1  -6 -12   56.24    7.88
   1   6 -12   51.08    8.66
  -1  -6 -11   27.76    5.80
  -1   6 -11   41.52    7.58
   1   6 -11   44.39    7.61
   1  -6 -11   29.45    5.11
  -1  -6 -10   20.97    4.83
  -1   6 -10   21.22    5.61
   1   6 -10   27.96    6.49
   1  -6 -10   16.91    3.37
   1  -6  -9    3.20    1.57
   1   6  -9    7.33    2.72
  -1   6  -9    9.31    4.46
  -1  -6  -9   11.32    3.08
  -1  -6  -8    5.56    2.81
  -1   6  -8    9.28    2.40
   1  -6  -8    1.53    1.78
   1   6  -8    4.20    2.71
   1   6  -7  104.01   11.40
  -1   6  -7   83.85   10.09
   1  -6  -7   97.93    9.76
  -1  -6  -7   85.91    9.56
   1   6  -6  173.72   14.92
  -1  -6  -6  205.55   14.85
  -1   6  -6  168.68   14.55
   1  -6  -6  157.28   12.61
  -1   6  -5  176.93   14.46
   1  -6  -5  185.37   13.78
  -1  -6  -5  156.64   13.36
   1   6  -5  166.64   14.34
   1  -6  -4  177.19   13.62
  -1   6  -4  194.55   15.41
  -1  -6  -4  155.11   12.69
   1   6  -4  187.36   15.26
  -1   6  -3  160.23   13.83
  -1  -6  -3  160.32   13.11
   1   6  -3  139.24   13.02
   1  -6  -3  182.14   14.21
   1  -6  -2  168.60   13.49
   1   6  -2  168.35   13.88
  -1   6  -2  143.82   13.38
  -1  -6  -2  148.59   13.30
  -1  -6  -1   17.50    4.66
   1  -6  -1   34.52    6.39
  -1   6  -1   21.10    6.12
   1   6  -1   35.07    6.22
   1  -6   0   55.31    7.88
   1   6   0   62.33    8.80
  -1  -6   0   71.95    9.09
  -1   6   0   68.77    9.07
   1  -6   1   36.00    6.58
   1   6   1   33.93    6.34
  -1  -6   1   29.59    5.64
  -1  -6   2  161.05   14.06
   1   6   2  158.76   13.58
   1  -6   2  154.35   13.64
  -1  -6   3  169.36   14.52
   1  -6   3  170.71   14.38
   1   6   3  151.64   13.23
  -1  -6   4  204.58   16.23
   1  -6   4  183.33   15.33
   1   6   4  160.78   13.22
   1  -6   5  196.09   15.89
  -1  -6   5  183.59   15.42
   1   6   5  159.42   13.78
  -1  -6   6  182.20   15.55
   1  -6   6  159.48   14.31
  -1  -6   7  104.71   11.85
  -1  -6   8   -0.13    2.63
  -1  -6   9    7.24    3.49
  -1  -6  10   15.51    5.05
  -1  -6  11   42.42    8.60
  -1  -6  12   57.18    9.40
  -1  -6  13   33.21    7.55
  -1   7 -24   14.04    5.47
   1   7 -24   22.24    7.94
  -1   7 -23   80.04   12.73
   1   7 -23   80.76   12.47
  -1   7 -22   59.14   10.90
   1   7 -22   80.78   13.43
   1   7 -21   20.37    8.13
   1   7 -21   19.24    7.12
  -1   7 -21    4.03    5.49
  -1   7 -21    4.36    4.37
   1   7 -20   43.73    8.64
  -1   7 -20   41.41    9.19
   1   7 -20   43.05    9.37
  -1   7 -20   48.88   11.08
   1   7 -19   51.65    9.83
  -1   7 -19   66.13   11.63
   1   7 -19   63.62   10.85
  -1   7 -19   71.26   12.21
   1   7 -18    2.75    3.35
   1   7 -18    5.82    2.09
  -1   7 -18    7.62    3.76
  -1   7 -18    3.74    3.76
  -1   7 -17   61.91   10.99
   1   7 -17   48.76    9.54
  -1   7 -17   33.44    7.93
   1   7 -17   45.12    9.34
   1   7 -16   85.86   12.88
  -1   7 -16   91.91   12.45
  -1   7 -16  104.67   13.10
   1   7 -15   13.52    6.39
  -1   7 -15   14.40    4.96
  -1   7 -15   24.69    6.84
  -1   7 -14   18.44    6.50
   1   7 -14   24.77    6.29
  -1   7 -14   19.73    5.86
  -1   7 -13   61.85   10.05
   1   7 -13   40.40    8.42
  -1   7 -13   55.07    9.39
   1   7 -12   52.02    9.60
  -1   7 -12   33.94    7.40
  -1   7 -12   35.56    8.07
   1   7 -11    9.21    4.89
  -1   7 -11   19.88    6.35
  -1  -7 -11   16.26    4.79
   1   7 -10  231.56   18.29
  -1   7 -10  206.42   17.35
  -1  -7 -10  199.76   16.04
   1  -7 -10  196.66   14.95
   1  -7  -9  164.97   14.05
  -1  -7  -9  118.48   12.08
  -1   7  -9  137.48   14.39
   1   7  -9  146.70   14.84
  -1   7  -8    4.72    2.65
  -1  -7  -8   -1.81    1.54
   1  -7  -8    5.27    3.69
   1   7  -8    1.37    2.25
   1   7  -7  144.97   14.70
   1  -7  -7  187.66   15.09
  -1   7  -7  189.82   16.45
  -1  -7  -6  356.12   21.55
   1  -7  -6  355.60   21.15
   1   7  -6  367.71   23.26
  -1   7  -6  363.38   22.80
  -1   7  -5   75.86   10.58
   1  -7  -5   79.51   10.06
   1   7  -5   69.54    9.64
  -1  -7  -5   89.40   11.00
   1   7  -4  191.45   16.65
  -1   7  -4  195.92   16.80
  -1  -7  -4  187.42   15.79
   1  -7  -4  193.02   15.78
  -1   7  -3  513.04   26.99
   1  -7  -3  476.21   24.87
  -1  -7  -3  494.41   25.46
   1   7  -3  496.84   26.14
   1   7  -2  239.56   18.03
  -1   7  -2  238.69   18.47
  -1  -7  -2  196.93   16.20
   1  -7  -2  229.78   17.45
   1  -7  -1    7.55    4.17
  -1  -7  -1    2.17    1.77
   1   7  -1    8.90    2.98
   1   7   0   92.31   11.55
  -1  -7   0   88.13   11.40
   1  -7   0   75.89   10.11
   1   7   1   -0.67    2.43
  -1  -7   1    6.03    4.11
   1  -7   1    6.19    2.07
  -1  -7   2  197.70   16.59
   1   7   2  213.23   17.29
   1  -7   2  251.01   18.57
   1  -7   3  455.50   25.16
   1   7   3  455.30   25.01
  -1  -7   3  500.00   26.57
   1   7   4  194.28   16.64
  -1  -7   4  203.67   17.43
   1  -7   4  197.29   16.50
   1  -7   5   89.65   11.26
  -1  -7   6  430.11   24.91
  -1  -7   7  159.32   15.14
  -1  -7   8    4.41    4.05
  -1  -7   9  155.33   15.82
  -1  -7  10  214.17   18.29
  -1  -7  11   11.13    4.71
  -1  -7  12   50.30    8.89
  -1   8 -22    0.71    3.73
   1   8 -22   16.91    7.34
   1   8 -22    7.85    6.08
   1   8 -21   10.49    6.22
   1   8 -21   -0.79    2.66
  -1   8 -21    9.74    4.53
   1   8 -20    2.67    2.78
  -1   8 -20   -0.65    3.68
   1   8 -19    4.54    3.35
  -1   8 -19    4.65    3.38
   1   8 -19   -0.78    4.03
  -1   8 -19   10.60    6.13
   1   8 -18   -0.32    2.96
   1   8 -18   -2.29    4.53
  -1   8 -18   -7.82    5.09
  -1   8 -18   -0.38    3.11
   1   8 -17    9.14    6.24
  -1   8 -17    5.55    5.42
  -1   8 -17   -3.77    4.37
   1   8 -17   12.11    5.73
  -1   8 -16    4.16    5.41
  -1   8 -16   -0.61    2.17
   1   8 -16    2.68    5.58
  -1   8 -15    3.10    4.96
  -1   8 -15   -2.84    4.14
   1   8 -15   -1.33    3.96
  -1   8 -14    5.64    4.53
  -1   8 -14   11.94    5.52
   1   8 -14    6.43    4.92
   1   8 -13   18.82    5.42
  -1   8 -13    2.89    3.53
  -1   8 -13   24.95    7.03
  -1   8 -12    8.10    4.97
  -1   8 -12    8.78    4.20
   1   8 -12    5.91    3.78
  -1   8 -11   18.72    5.51
   1   8 -11   24.71    6.95
  -1   8 -11   31.17    7.78
  -1   8 -10    1.73    2.44
  -1  -8 -10   -0.75    3.25
  -1   8  -9    1.07    2.36
   1   8  -9    4.94    2.25
   1  -8  -8    9.66    4.26
  -1   8  -8    8.20    6.49
  -1  -8  -8   11.82    4.77
   1   8  -8   12.59    5.85
   1  -8  -7    3.75    2.82
  -1   8  -7    5.31    3.42
  -1  -8  -7    7.50    3.28
   1   8  -7    4.95    2.87
  -1  -8  -6  139.45   15.12
   1  -8  -6  140.54   14.76
   1   8  -6  134.14   14.33
  -1   8  -6  163.42   15.99
   1   8  -5   40.93    8.48
  -1   8  -5   35.23    7.75
   1  -8  -5   48.26    8.74
  -1  -8  -5   21.39    6.09
   1  -8  -4   24.91    6.49
  -1  -8  -4   29.44    6.44
  -1   8  -4   40.35    8.73
   1   8  -4   24.74    5.93
  -1  -8  -3   59.63   10.07
   1  -8  -3   52.18    7.95
   1   8  -3   49.85    8.41
  -1  -8  -2  117.65   13.14
   1  -8  -2  142.31   14.98
   1   8  -2  125.16   13.87
  -1  -8  -1   25.81    6.31
   1   8  -1   19.40    6.86
   1  -8  -1   17.70    5.79
   1  -8   0   44.70    8.38
  -1  -8   0   45.59    8.60
   1   8   0   34.27    7.53
   1  -8   1   28.62    6.90
   1   8   1   25.63    7.60
  -1  -8   2  130.33   14.42
   1   8   2  137.31   14.93
   1  -8   2  138.99   14.95
   1   8   3   48.03    8.79
   1  -8   3   58.99    9.81
  -1  -8   3   41.45    8.18
  -1  -8   4   29.17    7.76
  -1  -8   5   23.01    6.25
  -1  -8   6  130.29   14.75
  -1  -8   7    9.48    4.24
  -1  -8   8   17.35    7.10
  -1  -8   9    2.83    2.93
  -1  -8  10    1.40    3.50
  -1  -8  11   19.36    6.25
   1   9 -19   40.47   10.46
  -1   9 -19   48.76    9.57
   1   9 -19   45.21    9.75
   1   9 -18    8.25    4.47
   1   9 -18   12.72    6.27
  -1   9 -18    5.63    3.16
   1   9 -17   37.96    8.54
   1   9 -17   43.15    9.58
  -1   9 -17   60.49   11.27
  -1   9 -16   78.84   12.79
   1   9 -16   80.86   12.92
   1   9 -16   56.38   11.44
  -1   9 -15   21.06    6.45
   1   9 -15   28.17    6.72
   1   9 -14   43.50    9.13
  -1   9 -14   28.15    7.59
   1   9 -13   84.35   13.08
  -1   9 -13   77.58   12.07
  -1   9 -12   37.06    8.83
   1   9 -12   28.01    6.63
   1   9 -11    9.57    5.17
  -1   9 -11   27.86    7.79
   1   9 -10  120.52   14.57
  -1   9 -10  125.92   15.06
   1   9  -9   36.56    7.80
  -1  -9  -8    6.00    4.44
   1   9  -8   27.47    8.65
   1   9  -7   98.74   13.56
  -1  -9  -7   90.11   13.03
   1   9  -6  185.58   17.29
  -1  -9  -6  191.35   18.46
  -1  -9  -5    3.88    4.60
   1   9  -5   -1.56    3.26
   1   9  -4  134.21   14.82
  -1  -9  -4  104.50   13.66
   1   9  -3  140.12   15.75
  -1  -9  -3  144.35   16.16
  -1  -9  -2   85.08   12.22
   1   9  -2   75.21   11.55
  -1  -9  -1   23.06    6.36
   1   9  -1   12.40    5.12
   1   9   0  126.76   15.36
  -1  -9   0   94.16   12.63
  -1  -9   1   11.53    3.91
   1   9   1   18.23    6.44
  -1  -9   2   96.09   12.62
  -1  -9   3  186.76   17.91
  -1  -9   4  104.54   14.10
  -1  -9   5    7.93    5.25
  -1  -9   6  185.07   18.10
  -1  -9   7  126.29   15.26
  -1  -9   8    3.86    3.95
  -1  -9   9   54.39   10.97
   1  10 -16    0.02    3.68
  -1  10 -16    4.32    4.17
   1  10 -16    2.04    3.84
  -1  10 -15   19.32    6.60
   1  10 -15   16.36    7.01
   1  10 -15   19.14    7.75
  -1  10 -14   10.46    3.60
   1  10 -14   11.64    5.96
   1  10 -14   23.20    7.77
  -1  10 -13   23.42    6.72
   1  10 -13   23.48    8.33
  -1  10 -12   39.51    9.19
   1  10 -12   31.42    7.96
  -1  10 -11   15.46    5.92
   1  10 -11   16.08    6.63
   1  10 -10   22.08    6.50
  -1  10 -10   33.29    8.51
  -1  10  -9   39.35    8.27
   1  10  -9   21.14    6.87
   1  10  -8   -1.51    3.47
  -1  10  -8    5.78    2.81
  -1  10  -7   13.15    4.52
  -1 -10  -7   15.85    6.00
   1  10  -7   25.36    7.80
   1  10  -6   68.61   12.05
  -1 -10  -6   82.97   13.39
  -1 -10  -5   -0.56    3.93
   1  10  -5   15.46    5.82
   1  10  -4   63.80   11.25
  -1 -10  -4   51.27   11.57
  -1 -10  -3   18.45    6.48
   1  10  -3    6.52    3.47
  -1 -10  -2   15.76    6.42
  -1 -10  -1   25.01    8.51
  -1 -10   0   20.48    6.92
  -1 -10   1   17.22    4.47
  -1 -10   2   18.72    6.86
  -1 -10   3   22.04    6.74
  -1 -10   4   48.60   10.14
  -1 -10   5   20.69    7.93
  -1 -10   6   79.84   12.83
  -1  11 -10   38.70    8.85
  -1  11  -9   23.59    6.59
  -1  11  -8    4.42    4.74
  -1  11  -7   29.86    8.06
  -1  11  -6   62.22   11.83
  -1  11  -5    6.67    4.38
  -1 -11  -5   17.83    7.67
  -1 -11  -4   26.62    8.80
  -1  11  -4   45.18    9.92
  -1  11  -3   36.68    9.06
  -1 -11  -3   16.68    6.92
  -1  11  -2   21.67    6.84
  -1 -11  -2   10.81    4.34
  -1 -11  -1   22.58    8.51
  -1 -11   0   31.25   10.08
  -1 -11   1   13.75    6.22
  -1 -11   2   31.00    8.73
  -2   0 -20   93.92   10.03
  -2   0 -19 1061.86   32.40
  -2   0 -18   34.62    5.59
  -2   0 -17  429.70   19.38
   2   0 -17  415.15   15.01
  -2   0 -16   40.32    5.92
   2   0 -16   40.83    4.42
   2   0 -15  983.22   21.52
  -2   0 -15 1016.08   27.69
  -2   0 -14   70.32    6.95
   2   0 -14   70.96    5.54
  -2   0 -13 6720.22   68.47
   2   0 -13 7361.69   54.43
   2   0 -12  126.76    6.91
  -2   0 -12  114.18    8.51
   2   0 -11  492.39   12.99
  -2   0 -11  489.70   16.83
  -2   0 -10 3879.03   46.02
  -2   0  -9 2774.31   37.91
  -2   0  -8  735.96   18.59
  -2   0  -6 1101.71   20.69
  -2   0  -5 3211.52   34.09
  -2   0  -1  672.07   12.93
  -2   0   0    7.00    1.38
  -2   0   1  668.61   11.72
  -2   0   5 3289.46   26.13
  -2   0   6 1021.72   15.37
  -2   0   8  704.19   14.21
  -2   0   9 2902.72   30.13
  -2   1 -21   20.65    5.55
  -2   1 -20   67.86    8.48
  -2  -1 -19    7.89    2.66
   2   1 -19    7.14    2.79
  -2   1 -19   10.88    4.78
  -2  -1 -18   55.93    6.52
  -2   1 -18   75.60    9.02
   2   1 -18   66.39    7.32
  -2   1 -17   10.26    3.55
   2   1 -17   13.43    3.67
  -2  -1 -17   10.34    2.76
  -2  -1 -16   66.38    6.86
  -2   1 -16   61.87    7.77
   2   1 -16   67.07    6.94
  -2  -1 -15   78.97    7.27
   2  -1 -15   65.47    3.70
   2   1 -15   69.15    7.07
  -2   1 -15   71.23    7.78
   2   1 -14  218.41   11.96
  -2   1 -14  210.74   13.11
  -2  -1 -14  222.32   11.67
  -2  -1 -13   68.37    6.38
  -2   1 -13   61.35    6.89
  -2   1 -13   66.02    5.17
  -2   1 -12  846.24   24.51
  -2  -1 -12  845.40   21.57
  -2  -1 -11   53.71    5.25
  -2   1 -11   42.57    5.26
  -2   1 -11   50.30    4.32
  -2  -1 -10   58.59    5.23
  -2   1 -10   55.73    6.05
  -2   1 -10   71.18    5.07
  -2  -1  -9  127.04    7.46
  -2   1  -9  143.96    9.22
  -2   1  -8  251.87   11.79
  -2  -1  -8  249.50   10.14
  -2  -1  -7  142.14    7.46
  -2   1  -7  143.00    8.51
  -2   1  -6 1235.88   24.40
  -2  -1  -6 1297.73   21.90
  -2   1  -5   41.25    4.27
  -2  -1  -5   30.61    3.36
  -2  -1  -4  170.72    7.61
  -2   1  -3 1484.46   23.68
  -2  -1  -3 1563.50   22.47
  -2  -1  -2  184.67    7.66
  -2   1  -1   52.97    3.89
  -2  -1   0    0.15    0.53
  -2   1   0   -0.10    0.42
  -2  -1   1   47.69    3.82
  -2   1   1   49.65    3.27
  -2   1   2  196.79    6.21
  -2  -1   2  208.96    8.45
  -2   1   3 1629.48   15.97
  -2  -1   3 1504.23   23.11
  -2  -1   4  167.62    7.87
  -2  -1   5   32.26    3.70
  -2  -1   6 1234.88   22.98
  -2  -1   7  143.76    8.18
  -2  -1   8  268.22   11.45
  -2  -1   9  122.64    8.21
  -2  -1  10   74.18    6.34
  -2  -1  11   44.94    5.35
  -2  -1  12  846.24   23.18
  -2   2 -23  389.56   24.05
  -2   2 -22   10.69    4.08
  -2   2 -21   24.19    6.35
   2   2 -21   12.58    4.10
  -2   2 -20   35.51    7.32
   2   2 -20   39.48    6.67
  -2   2 -19  458.45   23.04
   2   2 -19  415.24   21.52
   2   2 -18   85.08    9.52
  -2   2 -18   74.12    9.11
  -2   2 -17  412.54   17.97
  -2  -2 -17  410.82   16.72
   2   2 -17  428.26   20.51
  -2   2 -17  390.47   20.31
  -2   2 -16    9.74    3.32
  -2   2 -16    3.82    1.50
   2   2 -16   13.94    4.29
  -2  -2 -16    9.52    2.72
  -2   2 -15   89.50    7.49
  -2  -2 -15   98.17    7.81
  -2   2 -15   75.61    8.68
  -2   2 -14   12.12    3.33
  -2   2 -14   16.36    4.67
  -2  -2 -14   12.68    2.67
  -2   2 -13 1440.37   35.73
  -2  -2 -13 1394.41   28.13
  -2   2 -13 1395.44   29.83
  -2  -2 -12  333.97   13.43
  -2   2 -12  343.60   16.77
  -2   2 -12  313.56   13.66
  -2  -2 -11    3.87    1.80
  -2   2 -11    4.90    1.84
  -2   2 -11    2.59    2.20
  -2   2 -10  230.90   11.41
  -2  -2 -10  206.64   10.26
  -2   2 -10  201.56   12.27
  -2   2  -9 1098.64   24.20
  -2   2  -9 1089.54   28.05
  -2  -2  -9 1051.36   22.75
  -2   2  -8   85.52    6.77
  -2   2  -8   76.56    7.18
  -2  -2  -8   84.04    6.12
  -2   2  -7  836.45   23.37
  -2  -2  -7  870.02   20.05
  -2   2  -6   64.15    6.41
  -2   2  -6   76.65    6.25
  -2  -2  -6   66.23    5.47
  -2  -2  -5  119.67    7.35
  -2   2  -5  135.06    8.30
  -2   2  -4  299.75   12.70
  -2  -2  -4  290.14   11.50
  -2   2  -3 4249.95   47.14
  -2  -2  -3 4424.64   44.58
  -2   2  -2  510.59   15.68
  -2  -2  -2  480.19   14.79
  -2  -2  -1 1526.70   26.85
  -2   2  -1 1518.27   25.78
  -2   2   0  267.88   10.40
  -2  -2   0  157.99    8.74
  -2  -2   1 1571.35   27.64
  -2   2   1 1450.20   23.12
  -2   2   2  530.24   13.38
  -2  -2   2  520.82   16.49
  -2  -2   3 4353.95   48.65
  -2   2   3 4425.67   35.91
  -2   2   4  329.44    9.07
  -2  -2   4  313.75   13.24
   2   2   4  292.02   10.39
   2   2   5  125.20    6.57
  -2   2   5  122.57    5.07
  -2  -2   6   75.93    6.84
   2   2   6   71.16    4.80
  -2   2   6   65.29    3.38
   2   2   7  924.18   16.45
  -2  -2   7  863.40   23.60
  -2  -2   8   89.81    7.80
  -2  -2   9 1053.35   27.44
  -2  -2  10  212.25   12.67
  -2  -2  11    8.56    2.83
  -2  -2  12  330.14   16.46
  -2  -2  13 1468.34   35.49
  -2   3 -24    2.28    2.76
  -2   3 -23    8.30    5.00
   2   3 -22    4.91    3.07
  -2   3 -22    3.22    2.48
   2   3 -21   20.23    6.13
  -2   3 -21   27.55    5.78
  -2   3 -20   13.30    4.62
   2   3 -20   10.95    3.93
   2   3 -20   13.50    4.83
  -2   3 -19    4.61    3.38
   2   3 -19    5.71    2.89
   2   3 -19   -1.20    2.73
  -2   3 -18    9.46    4.00
   2   3 -18    3.45    1.43
  -2   3 -17    0.41    1.69
  -2   3 -17    1.52    1.64
  -2   3 -16   11.38    3.89
  -2  -3 -16    9.30    2.59
  -2   3 -16    9.87    3.82
  -2  -3 -15   14.74    3.26
  -2   3 -15   15.10    4.04
  -2   3 -15   17.53    5.05
  -2  -3 -14   19.12    3.70
  -2   3 -14   18.08    4.14
  -2   3 -14   19.80    3.79
  -2  -3 -13    5.00    1.31
  -2   3 -13    8.05    3.88
  -2   3 -13    5.35    1.88
  -2   3 -12   64.58    7.94
  -2   3 -12   57.19    6.92
  -2  -3 -12   64.19    6.27
  -2   3 -11   76.96    8.55
  -2  -3 -11   69.59    6.44
  -2   3 -10   77.32    7.67
  -2   3 -10   91.03    9.37
  -2  -3 -10   84.24    7.04
  -2  -3  -9   89.21    7.22
  -2   3  -9   89.55    8.07
  -2   3  -9   94.82    9.11
  -2   3  -8   12.03    3.32
  -2  -3  -8   18.93    3.47
  -2   3  -8   20.06    4.41
  -2  -3  -7   61.56    5.77
  -2   3  -7   62.06    7.00
  -2   3  -7   69.96    7.04
  -2   3  -6    3.25    1.95
  -2   3  -6    3.16    1.86
  -2  -3  -6    1.14    0.83
  -2  -3  -5  314.01   14.02
  -2   3  -5  293.59   14.19
  -2   3  -5  304.60   15.03
  -2  -3  -4   41.39    5.03
  -2   3  -4   36.48    4.85
  -2   3  -4   29.27    4.67
  -2  -3  -3   34.41    4.50
  -2  -3  -2   73.16    6.67
  -2  -3  -1 2448.27   39.84
  -2  -3   0  232.38   12.37
   2   3   1 2286.09   36.82
  -2  -3   1 2275.34   39.17
  -2  -3   2   76.85    7.47
   2   3   2   73.40    6.84
   2   3   3   33.60    4.56
  -2  -3   3   30.84    4.71
   2   3   4   29.81    4.12
  -2  -3   4   30.64    4.90
   2   3   5  304.35   12.90
  -2  -3   5  327.55   16.10
  -2  -3   6   -0.06    1.10
   2   3   6    2.72    1.35
  -2  -3   7   70.50    7.77
   2   3   7   64.48    5.80
  -2   3   8   12.55    1.79
   2   3   8   21.01    3.55
  -2  -3   8   18.04    4.13
  -2   3   9   87.98    4.44
  -2  -3   9   89.29    8.98
  -2  -3  10   96.76    9.81
  -2  -3  11   71.30    8.43
  -2  -3  12   58.13    7.62
  -2  -3  13    4.62    2.14
  -2  -3  14   11.38    3.53
  -2   4 -25  208.34   19.13
  -2   4 -24    7.47    4.68
   2   4 -23  103.79   13.38
  -2   4 -23  104.51   13.00
   2   4 -22    5.07    4.55
  -2   4 -22    8.69    5.11
   2   4 -21   -0.19    3.78
   2   4 -21    1.32    4.74
  -2   4 -21   -0.67    2.54
   2   4 -20   14.23    4.82
   2   4 -20   15.71    5.29
  -2   4 -20   13.31    6.32
  -2   4 -19  435.56   25.09
   2   4 -19  409.21   24.14
   2   4 -19  456.59   25.22
  -2   4 -18  111.38   12.42
   2   4 -18   96.49   11.83
  -2   4 -18   94.57   11.34
  -2   4 -17  356.59   21.70
   2   4 -17  359.83   21.55
  -2   4 -17  374.08   20.99
  -2   4 -16   16.93    4.44
  -2   4 -16   12.60    4.75
   2   4 -16   15.34    5.53
  -2   4 -15  116.99   12.28
  -2   4 -15  120.87   11.28
   2   4 -15  107.13   11.14
  -2  -4 -15  117.03    9.43
  -2  -4 -14  151.71   10.54
  -2   4 -14  165.05   14.23
  -2   4 -14  171.97   13.35
  -2  -4 -13  952.85   26.37
  -2   4 -13  923.36   30.97
  -2   4 -13  962.41   34.14
   2   4 -13  952.20   32.28
  -2   4 -12  290.35   16.99
  -2  -4 -12  309.84   14.74
  -2   4 -11   89.16    9.23
  -2  -4 -11   86.60    7.90
  -2   4 -11  104.83   10.99
  -2  -4 -10   12.04    3.05
  -2   4 -10   11.79    4.12
  -2   4 -10   11.12    4.06
  -2  -4  -9  977.45   27.04
  -2   4  -9 1012.84   30.85
  -2   4  -9 1064.31   33.15
  -2   4  -8  113.85   10.74
  -2   4  -8  111.70   10.19
  -2  -4  -8  112.25    9.03
  -2   4  -7  272.18   16.55
  -2  -4  -7  234.24   13.09
  -2   4  -7  267.36   15.59
  -2   4  -6  143.66   11.35
  -2  -4  -6  133.45    9.92
  -2  -4  -5  102.55    8.74
  -2   4  -5   82.24    8.76
   2   4  -5   89.30    8.69
   2  -4  -5   85.05    7.30
  -2   4  -4  287.12   15.91
   2   4  -4  269.54   15.89
   2  -4  -4  295.25   13.80
  -2   4  -3  783.66   26.33
  -2  -4  -3  699.28   23.23
   2   4  -3  733.09   25.07
   2  -4  -3  752.30   22.47
   2   4  -2   62.17    7.35
   2  -4  -2   57.31    6.53
  -2  -4  -2   63.68    7.23
  -2  -4  -1 3335.80   52.58
   2   4  -1 3506.51   54.21
  -2  -4   0  381.19   17.73
   2   4   0  385.80   17.86
  -2  -4   1 3767.60   56.86
   2   4   1 3719.32   54.61
   2   4   2   62.70    6.98
  -2  -4   2   63.74    7.49
  -2  -4   3  715.01   25.93
   2   4   3  719.38   23.59
  -2  -4   4  281.24   16.19
   2   4   4  311.33   15.26
   2   4   5   89.18    8.30
  -2  -4   5   95.00    9.40
   2   4   6  135.58    9.89
  -2  -4   6  143.29   11.67
   2   4   7  276.11   14.10
  -2  -4   7  265.22   16.38
  -2  -4   8  112.15   10.80
   2   4   8  109.34    9.31
  -2  -4   9 1013.89   33.07
  -2  -4  10   12.54    3.54
  -2   4  10   10.89    1.94
  -2  -4  11   78.73    9.80
  -2  -4  12  242.43   16.84
  -2  -4  13  962.51   34.08
  -2  -4  14  159.37   14.27
  -2  -4  15  124.38   12.70
  -2   5 -26    4.82    5.02
  -2   5 -25   45.29   10.37
  -2   5 -24   12.25    5.98
   2   5 -24    5.26    4.17
  -2   5 -23   13.37    4.46
   2   5 -23    6.12    3.42
   2   5 -22   42.15    9.24
  -2   5 -22   38.10    7.97
  -2   5 -21   -2.10    2.85
   2   5 -21    0.36    2.36
   2   5 -21    6.85    5.68
   2   5 -20   -0.29    2.95
  -2   5 -20    3.61    3.51
   2   5 -20    2.11    2.03
  -2   5 -19   35.68    7.51
   2   5 -19   25.24    7.06
   2   5 -19   30.72    6.28
  -2   5 -19   36.65    8.07
  -2   5 -18   10.66    4.91
   2   5 -18    2.89    4.54
  -2   5 -18    7.88    4.93
  -2   5 -17   10.98    4.96
  -2   5 -17    9.18    4.92
   2   5 -17   11.64    4.69
  -2   5 -16   17.27    5.48
  -2   5 -16   19.05    4.54
   2   5 -16   20.93    5.95
  -2   5 -15    9.27    3.98
   2   5 -15   10.43    3.07
  -2   5 -15    6.30    3.40
  -2   5 -14   12.57    4.18
  -2   5 -14   20.45    6.19
  -2  -5 -14   15.68    3.93
   2   5 -14   12.08    4.26
  -2   5 -13  194.28   16.25
  -2   5 -13  187.58   14.86
   2   5 -13  240.46   17.57
  -2  -5 -13  210.03   13.62
  -2   5 -12   98.00   11.30
   2   5 -12  107.15   11.63
  -2   5 -12   96.98   11.03
  -2  -5 -12   96.35    9.24
   2   5 -11   10.53    4.16
  -2  -5 -11   15.16    4.18
  -2   5 -11    6.00    2.48
  -2   5 -11   12.30    3.89
   2   5 -10   51.33    8.70
  -2   5 -10   41.54    7.26
  -2  -5 -10   47.69    6.71
  -2   5 -10   37.38    6.22
  -2   5  -9   34.08    6.12
  -2   5  -9   49.71    8.10
   2   5  -9   40.77    8.36
  -2  -5  -9   45.75    6.72
  -2   5  -8    0.76    1.55
  -2  -5  -8    2.60    2.37
   2   5  -8   -3.38    4.55
  -2   5  -8    4.16    2.40
  -2  -5  -7    2.32    2.37
  -2   5  -7    2.10    2.26
   2   5  -7    0.32    2.13
  -2   5  -6   24.72    5.44
   2   5  -6   23.38    5.63
  -2  -5  -6   19.44    4.36
   2  -5  -6   16.24    3.37
   2   5  -5   52.28    7.46
  -2  -5  -5   47.34    6.56
   2  -5  -5   53.63    6.61
  -2   5  -5   33.92    6.41
  -2  -5  -4  193.82   13.48
   2  -5  -4  198.52   12.97
  -2   5  -4  188.86   14.39
   2   5  -4  181.98   13.92
   2  -5  -3  194.31   12.91
   2   5  -3  182.65   13.85
   2  -5  -2   34.13    5.75
   2   5  -2   31.23    5.50
  -2  -5  -2   45.50    6.64
   2  -5  -1  851.90   28.02
  -2  -5  -1  808.56   28.56
   2   5  -1  783.82   28.23
  -2  -5   0   72.50    8.55
   2   5   0   73.91    8.48
   2  -5   0   89.73    9.12
  -2  -5   1  761.00   28.18
   2   5   1  844.43   28.64
  -2  -5   2   39.24    6.58
   2   5   2   38.04    6.09
  -2  -5   3  205.07   15.01
   2   5   3  210.50   14.20
   2   5   4  186.35   13.46
  -2  -5   4  206.15   14.74
  -2  -5   5   49.50    7.37
   2   5   5   49.04    7.10
   2   5   6   24.55    5.24
  -2  -5   6   20.73    4.82
   2   5   7    0.78    1.46
  -2  -5   7   -0.30    2.58
  -2  -5   8    0.96    1.87
   2   5   8    3.40    2.07
  -2  -5   9   37.13    7.20
  -2  -5  10   64.32    9.43
  -2  -5  11   10.11    4.33
  -2  -5  12   93.98   11.42
  -2  -5  13  229.91   17.93
  -2  -5  14   19.43    4.83
  -2  -5  15   10.85    3.27
  -2   6 -26   -5.15    6.38
   2   6 -25   79.12   13.39
  -2   6 -25   98.82   13.90
   2   6 -24   36.09    9.38
  -2   6 -24   25.12    8.51
   2   6 -23   32.07    8.18
  -2   6 -23   57.38   10.72
   2   6 -22   50.86   10.45
   2   6 -22   54.38   10.27
  -2   6 -22   62.42   10.11
   2   6 -21   26.33    8.08
   2   6 -21   30.50    7.85
  -2   6 -21   38.47    8.54
  -2   6 -20   29.19    7.70
   2   6 -20   28.60    7.64
   2   6 -20   22.81    7.02
   2   6 -19  358.05   24.51
   2   6 -19  354.73   25.02
  -2   6 -19  329.89   23.64
  -2   6 -18   17.13    6.49
   2   6 -18    8.00    5.17
  -2   6 -18   17.51    6.66
  -2   6 -17  162.82   16.55
   2   6 -17  120.10   13.51
  -2   6 -17  149.99   15.78
  -2   6 -16   23.72    6.44
  -2   6 -16   20.74    5.86
  -2   6 -15  302.52   21.15
  -2   6 -15  253.01   20.23
   2   6 -15  282.28   20.31
  -2   6 -14   90.79   12.28
  -2   6 -14  105.23   12.81
   2   6 -14   84.64   11.06
  -2   6 -13 1137.36   40.93
  -2   6 -13 1140.34   40.28
   2   6 -13 1130.90   40.34
  -2   6 -12   22.55    5.77
  -2   6 -12   32.42    6.98
   2   6 -12   37.98    7.46
  -2  -6 -12   21.37    4.92
  -2  -6 -11  149.79   13.40
  -2   6 -11  148.37   14.29
   2   6 -11  169.24   15.48
  -2   6 -11  151.59   14.47
  -2   6 -10   69.94    9.96
   2   6 -10   70.92   10.07
  -2  -6 -10   68.33    9.28
  -2   6 -10   67.64    9.30
  -2   6  -9  868.54   34.34
  -2   6  -9  836.90   33.56
  -2  -6  -9  833.82   31.24
   2   6  -9  954.68   35.88
  -2  -6  -8  466.76   22.91
  -2   6  -8  436.32   23.87
   2   6  -8  426.77   23.55
   2   6  -7  796.25   31.90
  -2   6  -7  795.43   32.17
  -2  -6  -7  788.94   29.82
  -2   6  -6   26.23    6.39
   2   6  -6   14.75    5.54
  -2  -6  -6   28.88    6.12
  -2   6  -5   81.06   10.30
   2   6  -5   68.87    9.16
  -2  -6  -5   66.47    8.85
   2  -6  -5   62.41    8.18
   2  -6  -4  858.27   30.09
   2   6  -4  858.41   32.36
  -2  -6  -4  880.70   31.82
   2   6  -3  649.69   28.09
   2  -6  -3  675.33   26.87
   2  -6  -2  290.69   17.82
   2   6  -2  303.90   19.03
  -2  -6  -2  312.31   19.30
   2   6  -1  698.19   28.78
   2  -6  -1  742.89   28.78
  -2  -6  -1  770.40   30.08
   2   6   0   91.28   10.27
  -2  -6   0   76.13    9.36
  -2  -6   1  774.73   30.56
   2   6   1  746.56   29.33
   2   6   2  291.70   18.43
  -2  -6   2  282.87   18.81
   2   6   3  663.28   27.38
  -2  -6   3  664.70   28.87
   2   6   4  864.13   31.42
  -2  -6   4  889.12   33.57
  -2  -6   5   59.71    8.48
   2   6   5   67.45    9.04
   2   6   6   20.44    5.00
  -2  -6   6   17.78    4.56
  -2  -6   7  750.97   31.99
   2   6   7  782.72   30.46
  -2  -6   8  499.56   26.46
  -2  -6   9  877.91   35.22
  -2  -6  10   69.75   10.50
  -2  -6  11  156.45   15.39
  -2  -6  12   37.78    7.31
  -2  -6  13 1242.10   43.10
  -2  -6  14   76.71   11.08
  -2  -6  15  281.03   21.34
   2   7 -24    2.32    5.16
  -2   7 -24    4.13    4.24
   2   7 -23    2.06    4.81
  -2   7 -23    5.50    3.71
   2   7 -22    1.46    3.71
   2   7 -22    1.55    3.05
  -2   7 -22    0.73    2.39
   2   7 -21   16.02    6.15
  -2   7 -21   16.13    5.68
   2   7 -21   12.43    5.42
   2   7 -20   99.38   13.87
   2   7 -20   88.98   13.52
  -2   7 -20  106.51   13.74
   2   7 -19   14.02    4.93
   2   7 -19   18.62    6.81
  -2   7 -19   11.43    6.28
  -2   7 -18   55.20    9.70
   2   7 -18   57.37   10.04
   2   7 -17   11.99    4.52
  -2   7 -17   10.15    5.20
  -2   7 -16   33.08    8.17
   2   7 -16   45.18    8.99
  -2   7 -15    1.30    3.64
   2   7 -15    2.50    3.07
  -2   7 -15   -1.42    3.65
  -2   7 -14  144.27   15.44
   2   7 -14  169.39   15.83
  -2   7 -14  145.59   15.87
  -2   7 -13   41.23    8.84
  -2   7 -13   38.70    8.61
   2   7 -13   28.53    6.87
  -2   7 -12  135.96   14.94
  -2   7 -12  125.06   14.12
   2   7 -12  117.37   13.39
  -2  -7 -11   95.98   11.65
  -2   7 -11  111.78   13.99
   2   7 -11  109.30   13.20
  -2   7 -11  103.66   13.33
  -2   7 -10   96.10   12.07
  -2   7 -10  113.99   13.06
  -2  -7 -10  120.21   12.90
   2   7 -10   90.92   12.00
  -2  -7  -9   94.08   10.85
   2   7  -9  127.10   13.90
  -2   7  -9  112.56   13.12
  -2   7  -9  141.08   14.41
  -2   7  -8  311.07   21.44
  -2  -7  -8  276.76   19.66
   2   7  -8  257.77   19.61
  -2   7  -8  320.90   22.08
   2   7  -7    1.94    3.47
  -2  -7  -7    1.52    2.32
   2   7  -6  280.95   19.46
  -2  -7  -6  265.76   19.11
   2   7  -5  257.63   19.16
  -2  -7  -5  252.71   18.52
  -2  -7  -4    9.46    3.96
   2   7  -4   12.08    4.52
   2   7  -3  510.70   26.43
  -2  -7  -3  520.13   26.88
   2   7  -2   73.29   10.09
  -2  -7  -2   76.80   10.12
  -2  -7  -1   45.34    8.79
   2   7  -1   38.65    7.41
  -2  -7   0   -0.33    3.06
   2   7   0    8.09    4.48
   2   7   1   45.09    8.46
  -2  -7   1   45.50    8.29
   2   7   2   60.34    8.75
  -2  -7   2   53.72    8.89
   2   7   3  510.89   26.12
  -2  -7   3  537.46   27.59
   2   7   4   10.53    4.66
  -2  -7   4   14.64    4.67
   2   7   5  227.26   17.26
  -2  -7   5  255.76   19.34
  -2  -7   6  256.66   19.99
   2   7   6  288.42   20.27
  -2  -7   7   -2.57    2.99
   2   7   7    2.70    3.70
  -2  -7   8  291.71   21.50
  -2  -7   9  130.71   14.30
  -2  -7  10   98.36   12.50
  -2  -7  11  100.93   13.26
  -2  -7  12  141.07   15.25
  -2  -7  13   39.82    8.47
  -2  -7  14  154.67   16.23
   2   8 -22   22.59    8.00
   2   8 -22   27.95    8.64
  -2   8 -22   24.15    7.51
  -2   8 -21    6.80    2.86
   2   8 -21    8.66    7.74
   2   8 -21   13.61    6.78
  -2   8 -20   11.51    5.52
   2   8 -20    6.54    4.88
   2   8 -20   13.27    7.86
  -2   8 -19   50.50   10.07
   2   8 -19   45.37   11.19
   2   8 -19   32.90    8.96
  -2   8 -18    4.43    4.82
   2   8 -18    6.78    4.77
   2   8 -17   45.15    9.05
  -2   8 -17   62.94   10.65
   2   8 -16   33.76    8.45
  -2   8 -16   64.09   11.57
   2   8 -15    8.25    5.26
  -2   8 -15    3.13    3.71
   2   8 -14   23.62    6.59
  -2   8 -14    8.18    4.00
   2   8 -13   56.88   10.83
  -2   8 -13   63.70   10.28
   2   8 -12    9.02    5.23
  -2   8 -12    6.67    4.61
  -2   8 -11   12.71    5.53
   2   8 -11    5.78    3.23
  -2   8 -10   10.35    5.43
   2   8 -10   13.20    5.64
  -2  -8 -10   12.73    5.28
  -2  -8  -9   94.40   11.73
   2   8  -9   61.64    9.95
  -2   8  -9   74.16   11.15
   2   8  -8   30.75    7.55
  -2   8  -8   14.90    5.25
  -2  -8  -8   17.20    5.60
  -2  -8  -7  108.01   13.56
  -2   8  -7  143.42   15.59
   2   8  -7  143.89   15.24
   2   8  -6   22.31    6.25
  -2  -8  -6   34.30    7.56
   2   8  -5   41.35    8.36
  -2  -8  -5   52.37    9.03
   2   8  -4  130.83   14.25
  -2  -8  -4  125.05   14.30
   2   8  -3  401.52   24.71
  -2  -8  -3  417.22   25.32
   2   8  -2   10.06    3.54
  -2  -8  -2   22.27    5.85
   2   8  -1   11.12    4.74
  -2  -8  -1   10.21    5.54
  -2  -8   0   22.89    6.46
   2   8   0   25.90    6.37
   2   8   1   11.60    2.92
  -2  -8   1   12.29    5.50
  -2  -8   2    6.55    3.30
   2   8   2   11.98    4.38
   2   8   3  392.74   24.55
  -2  -8   3  425.57   26.51
  -2  -8   4  131.22   14.56
   2   8   4  138.61   15.19
  -2  -8   5   40.70    7.64
   2   8   5   36.68    8.26
  -2  -8   6   21.01    5.55
  -2  -8   7  128.14   15.07
  -2  -8   8   12.08    5.34
  -2  -8   9   92.78   12.42
  -2  -8  10   15.99    4.75
  -2  -8  11    7.48    4.57
  -2  -8  12    9.06    4.92
  -2  -8  13   61.23   11.32
   2   9 -19    3.35    4.84
  -2   9 -19    0.40    3.50
   2   9 -19   -1.12    3.30
   2   9 -18    3.46    4.11
  -2   9 -18   10.99    4.83
   2   9 -18   16.00    6.25
  -2   9 -17    0.99    4.30
   2   9 -17    4.28    6.02
   2   9 -16   15.13    7.35
  -2   9 -16   12.97    5.40
   2   9 -15    7.70    6.12
  -2   9 -15    6.02    5.23
   2   9 -14    8.07    4.89
  -2   9 -14   11.96    4.10
  -2   9 -13    8.61    5.98
   2   9 -13    2.24    4.05
  -2   9 -12    0.07    3.53
   2   9 -12   11.73    4.80
  -2   9 -11   12.84    5.07
   2   9 -11    0.34    4.06
  -2   9 -10   15.84    6.15
   2   9 -10   15.89    5.12
  -2   9  -9   -0.85    2.26
   2   9  -9    5.85    4.38
  -2  -9  -9    0.12    5.78
  -2  -9  -8    5.28    3.44
   2   9  -8   10.37    5.19
  -2   9  -8   -0.42    2.28
   2   9  -7    0.43    4.26
  -2  -9  -7   -0.76    4.30
  -2   9  -7    3.07    4.17
  -2  -9  -6   43.50    8.75
  -2   9  -6   27.33    6.74
   2   9  -5   39.16    8.78
  -2   9  -5   20.27    6.43
  -2  -9  -5   33.67    7.80
  -2   9  -4   13.83    4.79
   2   9  -4    7.45    4.49
  -2  -9  -4   11.37    6.27
  -2  -9  -3   66.82   11.52
   2   9  -3   73.57   11.91
   2   9  -2   21.03    6.51
  -2  -9  -2    5.48    5.00
  -2  -9  -1    5.17    3.16
   2   9  -1   14.59    5.42
   2   9   0   14.01    6.13
  -2  -9   0   13.33    5.26
   2   9   1    9.43    4.89
  -2  -9   1    5.00    3.77
   2   9   2    9.99    3.66
  -2  -9   2   25.96    7.52
   2   9   3   61.59   10.21
  -2  -9   3   56.51    9.90
  -2  -9   4   20.66    7.19
  -2  -9   5   37.67    8.41
  -2  -9   6   31.84    7.97
  -2  -9   7   -0.02    3.04
  -2  -9   8    4.29    4.52
  -2  -9   9    3.74    2.17
  -2  -9  10   19.40    7.45
  -2  -9  11    6.45    4.48
  -2  -9  12    0.96    3.73
   2  10 -15   19.49    7.68
  -2  10 -15   22.37    7.97
   2  10 -14   36.19    8.97
  -2  10 -14   26.76    7.54
  -2  10 -13   76.49   12.28
   2  10 -13   78.58   13.23
   2  10 -12   10.27    4.34
  -2  10 -12    5.32    2.69
  -2  10 -11   39.69    9.32
   2  10 -11   52.87   11.40
  -2  10 -10    4.65    3.56
   2  10 -10    8.28    6.24
   2  10  -9   29.35    8.17
  -2  10  -9   41.33    8.79
  -2  10  -8    9.50    3.87
   2  10  -8   23.30    8.75
  -2  10  -7  199.24   19.49
  -2 -10  -7  174.88   19.22
   2  10  -7  182.44   18.52
   2  10  -6   23.40    6.33
  -2 -10  -6   24.84    8.03
  -2  10  -6   24.30    7.65
   2  10  -5   12.29    5.37
  -2  10  -5   16.58    6.34
  -2 -10  -5    6.13    3.51
   2  10  -4   36.62    8.05
  -2  10  -4   29.91    7.13
  -2 -10  -4   22.44    8.03
   2  10  -3   99.00   14.12
  -2  10  -3   99.07   13.31
  -2 -10  -3   99.04   14.07
  -2 -10  -2   44.71    9.35
   2  10  -2   32.88    8.10
  -2  10  -2   37.40    8.25
  -2 -10  -1   -1.47    3.92
  -2  10  -1    3.75    4.69
   2  10  -1    7.69    4.36
  -2  10   0   10.67    4.10
  -2 -10   0    1.69    2.98
   2  10   0    1.07    3.11
  -2 -10   1    2.02    2.90
   2  10   1    7.63    5.48
  -2  10   1    1.93    3.21
  -2 -10   2   39.27    8.63
  -2  10   2   29.32    7.94
  -2  10   3   80.30   12.84
  -2 -10   3   85.30   12.40
  -2  10   4   38.03    9.33
  -2 -10   4   28.87    7.09
  -2 -10   5   24.51    7.45
  -2 -10   6   26.80    6.90
  -2 -10   7  173.39   18.43
  -2 -10   8   14.29    6.76
  -2 -10   9   32.39    8.74
  -2 -10  10   13.48    6.63
  -2  11 -10    3.16    3.72
   2  11 -10   11.84    6.79
  -2  11  -9    1.31    3.15
   2  11  -9   16.96    5.78
   2  11  -8    2.14    5.54
  -2  11  -8    5.51    3.08
   2  11  -7    2.56    5.21
  -2  11  -7   -0.18    2.96
   2  11  -6   10.22    6.28
  -2  11  -6   15.85    6.28
  -2  11  -5    5.71    5.73
   2  11  -5    3.78    5.85
  -2 -11  -5    1.49    4.61
  -2 -11  -4    1.96    5.22
   2  11  -4   10.59    4.98
  -2  11  -4    2.24    3.96
  -2  11  -3   16.81    6.72
  -2 -11  -3    3.56    4.13
  -2  11  -2    5.95    4.87
  -2 -11  -2    5.54    4.54
  -2  11  -1    7.06    4.34
  -2 -11  -1    5.00    5.62
  -2  11   0   -1.75    3.27
  -2 -11   0    1.90    4.65
  -2 -11   1    1.29    3.44
  -2  11   1   10.86    5.95
  -2  11   2   -1.24    5.39
  -2 -11   2    2.04    3.49
  -2 -11   3    3.88    3.10
  -2 -11   4    0.49    3.15
  -2 -11   5   -4.67    5.16
  -2 -11   6    2.98    4.53
  -2 -11   7    6.59    6.38
  -3   0 -21    2.76    2.55
  -3   0 -20    1.17    2.33
  -3   0 -19    1.38    1.73
  -3   0 -18   -0.20    1.83
  -3   0 -17   -0.12    1.88
   3   0 -17   -0.78    1.84
  -3   0 -16   -0.60    1.53
   3   0 -16   -1.02    1.10
   3   0 -15    0.77    1.10
  -3   0 -15   -1.51    2.44
  -3   0 -14   -0.09    1.18
   3   0 -14    0.07    0.90
  -3   0 -13    0.78    2.20
  -3   0 -12   -0.68    1.59
  -3   0 -11    0.27    1.27
  -3   0 -10   -0.72    1.07
  -3   0  -9    0.11    1.04
  -3   0  -8    1.66    0.95
  -3   0  -7    1.28    1.36
  -3   0  -6    0.25    1.14
  -3   0  -5   -0.05    1.03
  -3   0  -4    0.36    0.50
  -3   0  -3   -0.02    1.01
  -3   0  -2    0.35    0.75
  -3   0  -1    1.01    1.18
  -3   0   0   -0.53    0.83
  -3   0   1    0.01    0.71
  -3   0   2   -0.05    0.52
  -3   0   3   -0.64    0.78
  -3   0   4   -0.43    0.63
  -3   0   5    0.86    0.88
  -3   0   6    0.44    0.86
  -3   0   7   -0.07    0.77
  -3   0   8    0.51    0.51
  -3   0   9   -0.03    0.96
  -3   0  10    1.26    1.00
  -3   0  11   -0.20    0.72
  -3   0  12    0.63    1.06
  -3   1 -22   85.38   11.62
  -3   1 -21    5.99    3.08
  -3   1 -20   96.70   11.06
  -3   1 -19  201.34   15.40
  -3  -1 -19  209.58   14.18
  -3   1 -18   24.19    4.74
   3   1 -18   28.48    4.96
  -3  -1 -18   15.05    3.54
  -3   1 -17  288.34   17.26
  -3  -1 -17  242.14   14.33
   3   1 -17  252.57   14.12
  -3  -1 -16   89.10    8.75
   3   1 -16   90.35    8.47
  -3   1 -16  105.59   10.07
  -3   1 -15   59.00    7.59
  -3  -1 -15   55.30    6.42
  -3  -1 -14  148.71   10.44
  -3   1 -14  150.61   11.42
  -3  -1 -13  707.11   22.08
  -3   1 -13  672.94   23.88
  -3  -1 -12  567.90   19.20
  -3   1 -12  580.99   21.58
  -3   1 -11  159.08   10.73
  -3  -1 -11  131.81    9.18
  -3   1 -10  267.39   13.58
  -3  -1 -10  250.51   12.04
  -3  -1  -9 1058.12   24.25
  -3   1  -9 1025.52   26.24
  -3  -1  -8  327.39   13.29
  -3   1  -8  354.14   14.87
  -3   1  -7  572.72   18.35
  -3  -1  -7  569.91   17.29
  -3  -1  -6 1578.00   27.68
  -3   1  -6 1604.29   29.68
  -3   1  -5  136.48    8.37
  -3  -1  -5  124.39    7.75
  -3  -1  -4  963.92   20.91
  -3   1  -4  962.82   21.58
  -3   1  -3 5254.23   48.60
  -3  -1  -3 5187.70   48.29
  -3   1  -2 1952.73   28.47
  -3  -1  -2 1931.46   28.95
  -3  -1  -1 1140.37   21.68
  -3  -1   0 1065.44   20.98
  -3   1   0 1010.87   19.20
  -3  -1   1 1158.91   21.81
  -3   1   1 1094.79   19.01
  -3   1   2 2012.13   24.22
  -3  -1   2 1976.22   29.01
  -3   1   3 5173.81   37.81
  -3  -1   3 5369.84   48.12
  -3  -1   4  991.09   20.98
  -3   1   4  965.54   15.12
  -3  -1   5  120.76    7.38
  -3   1   5  121.54    5.00
  -3   1   6 1613.57   17.01
  -3  -1   6 1631.20   28.19
  -3   1   7  538.76    9.45
  -3  -1   7  527.19   16.21
  -3  -1   8  322.05   13.14
  -3  -1   9 1038.22   24.12
  -3  -1  10  294.51   13.16
  -3  -1  11  170.70   10.07
  -3  -1  12  575.73   19.61
  -3  -1  13  716.67   22.11
  -3  -1  14  133.91    9.82
  -3   2 -23   43.14    8.65
  -3   2 -22    7.38    4.74
  -3   2 -21   69.50    9.93
   3   2 -20   32.62    6.45
  -3   2 -20   28.59    6.11
   3   2 -19   27.92    6.19
  -3   2 -19   41.51    7.47
  -3  -2 -18   12.84    3.70
  -3   2 -18    7.59    1.59
  -3   2 -17    5.04    2.76
  -3  -2 -17    6.05    3.22
  -3  -2 -16   23.76    4.65
  -3   2 -16   35.94    6.22
  -3  -2 -15   56.23    6.66
  -3   2 -15   72.31    8.46
  -3  -2 -14    3.81    1.75
  -3   2 -14    1.87    2.07
  -3   2 -13   -0.22    1.37
  -3  -2 -13    1.75    1.27
  -3   2 -12   56.55    7.04
  -3  -2 -12   58.51    6.42
  -3  -2 -11  358.22   15.29
  -3   2 -11  336.70   17.00
  -3  -2 -10  126.68    8.80
  -3   2 -10  135.17   10.65
  -3  -2  -9   20.53    3.55
  -3   2  -9   31.12    5.05
  -3   2  -8  108.72    9.04
  -3  -2  -8  103.46    7.77
  -3   2  -7   60.91    6.55
  -3  -2  -7   48.19    5.43
  -3   2  -6  279.85   13.62
  -3  -2  -6  276.47   12.31
  -3   2  -5  405.09   16.07
  -3  -2  -5  375.75   14.19
  -3   2  -4   68.80    6.55
  -3  -2  -4   62.14    5.78
  -3   2  -3 2249.39   35.79
  -3  -2  -3 2289.41   35.12
  -3  -2  -2 1120.02   24.99
  -3   2  -2 1162.20   24.74
  -3  -2  -1  499.15   16.80
  -3   2  -1  509.70   15.74
  -3   2   0  420.09   14.08
  -3  -2   1  496.98   16.93
  -3   2   1  508.53   14.73
  -3   2   2 1197.20   21.55
  -3  -2   2 1203.93   27.01
  -3   2   3 2214.72   28.21
  -3  -2   3 2232.51   36.67
  -3   2   4   74.47    4.76
  -3  -2   4   70.67    6.66
  -3  -2   5  391.09   15.75
  -3   2   5  411.28   10.38
  -3   2   6  288.98    8.24
  -3  -2   6  277.65   13.57
   3   2   7   67.48    4.60
  -3   2   7   67.45    3.45
  -3  -2   7   66.91    6.63
  -3  -2   8  115.05    8.95
   3   2   8  126.44    6.13
   3   2   9   24.65    2.57
  -3  -2   9   21.34    4.31
  -3  -2  10  107.29    9.14
  -3  -2  11  355.78   17.08
  -3  -2  12   60.51    7.40
  -3  -2  13    0.25    1.14
  -3  -2  14    2.45    2.28
  -3  -2  15   85.29    9.13
  -3   3 -24    4.82    4.12
  -3   3 -23  188.61   17.33
  -3   3 -22   23.09    5.58
   3   3 -21    3.05    3.34
  -3   3 -21    3.04    3.45
  -3   3 -20   13.26    4.01
   3   3 -20    9.07    3.96
   3   3 -19  118.06   12.74
  -3   3 -19  140.51   13.84
  -3   3 -18  137.17   13.36
  -3   3 -17  123.47   12.36
  -3  -3 -17  110.40    9.76
  -3   3 -16   89.27   10.26
  -3  -3 -16   80.68    8.17
  -3  -3 -15  193.32   12.66
  -3   3 -15  203.69   15.42
  -3  -3 -14   31.60    4.98
  -3   3 -14   53.16    7.60
  -3  -3 -13  690.44   22.96
  -3   3 -13  683.04   27.14
  -3   3 -12 1153.71   34.50
  -3  -3 -12 1148.64   28.93
  -3   3 -11  109.94   10.30
  -3  -3 -11  114.82    9.07
  -3  -3 -10  362.48   16.26
  -3   3 -10  376.46   18.81
  -3  -3  -9 1794.90   35.75
  -3   3  -9 1807.16   40.32
  -3   3  -8   51.28    6.79
  -3  -3  -8   48.90    6.02
  -3   3  -7 1223.57   32.27
  -3  -3  -7 1288.05   29.61
  -3  -3  -6 1353.85   30.45
  -3   3  -6 1309.08   32.54
  -3  -3  -5  156.61   10.33
  -3   3  -5  180.54   11.90
  -3  -3  -4 2759.51   43.60
  -3   3  -4 2491.53   43.31
  -3  -3  -3 4823.46   57.15
  -3   3  -3 4722.23   58.11
  -3   3  -2  897.18   24.99
  -3  -3  -2  821.28   23.95
  -3  -3  -1 1166.97   28.42
  -3   3  -1 1268.33   28.78
  -3   3   0  917.93   23.88
  -3  -3   0  953.37   26.15
  -3   3   1 1171.26   26.58
  -3  -3   1 1181.27   29.67
  -3   3   2  882.94   21.95
  -3  -3   2  924.89   26.09
  -3   3   3 4982.13   50.30
  -3  -3   3 5024.67   61.57
  -3   3   4 2419.68   34.13
  -3  -3   4 2535.66   44.96
  -3   3   5  150.82    8.19
   3   3   5  171.78    9.78
  -3  -3   5  156.72   11.19
   3   3   6 1406.60   27.74
  -3   3   6 1390.22   23.12
  -3  -3   6 1375.31   34.25
   3   3   7 1174.01   25.35
  -3  -3   7 1165.30   32.03
  -3   3   7 1229.24   20.35
  -3   3   8   48.24    3.71
   3   3   8   54.14    5.25
  -3  -3   8   55.51    7.16
  -3  -3   9 1730.31   39.78
   3   3   9 1788.43   29.28
  -3   3   9 1699.08   19.39
  -3  -3  10  375.91   18.90
   3   3  10  324.22   12.86
  -3  -3  11   96.79    9.86
  -3  -3  12 1235.62   35.92
  -3  -3  13  756.86   28.66
  -3  -3  14   32.86    6.62
  -3  -3  15  170.89   14.20
  -3  -3  16   93.82   10.64
  -3   4 -25   51.05    9.87
  -3   4 -24   12.47    5.32
  -3   4 -23   28.83    7.10
   3   4 -22   11.19    4.54
  -3   4 -22   22.11    6.31
   3   4 -21   39.00    8.40
  -3   4 -21   49.92    9.18
   3   4 -21   37.98    7.94
  -3   4 -20    7.74    4.42
   3   4 -20   11.23    4.79
   3   4 -20   15.48    5.63
  -3   4 -19   69.09   10.40
   3   4 -19   61.69   10.46
  -3   4 -18   12.11    3.24
  -3   4 -17    6.91    5.37
  -3   4 -16    8.16    3.46
  -3   4 -15   40.83    7.49
  -3  -4 -15   53.15    6.67
  -3  -4 -14    1.43    1.19
  -3   4 -14   -0.72    1.60
  -3  -4 -13   53.24    6.94
  -3   4 -13   52.14    7.86
  -3  -4 -12   14.93    4.03
  -3   4 -12   29.83    5.95
  -3  -4 -11  101.48    9.48
  -3   4 -11   70.51    8.88
  -3  -4 -10  189.27   12.54
  -3   4 -10  183.14   14.08
  -3   4  -9  104.62   10.55
  -3  -4  -9   95.61    9.05
  -3  -4  -8   90.35    8.77
  -3   4  -8   69.83    8.61
  -3  -4  -7   70.58    7.70
  -3   4  -7   82.03    9.12
  -3   4  -6  112.92   10.69
  -3  -4  -6  101.16    9.13
  -3  -4  -5  488.86   20.13
  -3   4  -5  474.76   21.15
  -3   4  -4  307.23   16.75
  -3  -4  -4  353.51   17.01
  -3   4  -3  223.10   13.79
  -3  -4  -3  211.20   13.47
  -3   4  -2  443.24   19.15
  -3  -4  -2  464.13   20.34
  -3  -4  -1  728.08   25.31
  -3   4  -1  665.00   23.45
  -3   4   0  260.06   14.11
   3   4   1  687.39   23.67
  -3   4   1  668.89   22.19
  -3  -4   1  671.37   24.66
   3   4   2  512.30   20.07
  -3   4   2  463.48   18.12
  -3  -4   3  215.82   14.43
   3   4   3  229.86   13.56
  -3   4   3  209.44   11.80
   3   4   4  320.00   15.89
  -3   4   4  344.32   14.90
  -3  -4   4  295.77   16.98
   3   4   5  491.58   19.71
  -3   4   5  508.19   17.65
  -3  -4   5  499.13   22.16
   3   4   6  109.80    9.24
  -3  -4   6  106.14   10.48
  -3   4   6  122.42    8.28
  -3   4   7   85.71    6.72
   3   4   7   86.77    8.12
  -3  -4   7   76.59    8.91
  -3   4   8   75.90    6.17
   3   4   8   78.25    7.67
  -3  -4   8   83.16    9.48
   3   4   9   93.86    8.17
  -3   4   9   99.37    6.48
  -3  -4   9  106.98   10.81
   3   4  10  173.01   11.69
  -3  -4  10  200.18   14.88
  -3   4  10  188.74    8.57
  -3  -4  11  106.62   11.00
  -3  -4  12   13.48    4.75
  -3  -4  13   38.28    6.83
  -3  -4  14    0.77    1.87
  -3  -4  15   40.29    7.52
  -3  -4  16   13.93    4.50
  -3  -4  17    1.89    2.23
  -3   5 -26   33.31    6.27
  -3   5 -25   79.78   12.60
  -3   5 -24   25.38    6.69
   3   5 -23   39.21    8.91
  -3   5 -23   36.16    8.61
  -3   5 -22   26.23    7.11
   3   5 -22   15.98    5.66
   3   5 -22   24.91    8.31
   3   5 -21   17.40    6.65
  -3   5 -21   15.13    6.62
   3   5 -21   11.63    5.31
  -3   5 -20   61.72   10.65
   3   5 -20   68.70   10.31
   3   5 -19  130.55   14.77
  -3   5 -19  130.85   14.91
  -3   5 -18   61.98    9.89
   3   5 -18   46.99    9.04
   3   5 -17  107.45   13.29
  -3   5 -17  101.28   12.16
  -3   5 -16   78.49   10.58
  -3   5 -15  128.81   13.33
   3   5 -15  145.77   14.17
   3   5 -14  140.12   13.87
  -3   5 -14  131.59   13.71
  -3  -5 -14  108.72   10.55
   3   5 -13  438.85   23.76
  -3   5 -13  424.12   23.73
  -3  -5 -13  467.17   21.72
  -3   5 -12  233.15   17.39
   3   5 -12  195.63   15.96
  -3  -5 -12  201.58   14.23
  -3  -5 -11   74.17    8.48
  -3   5 -11   71.98    9.87
   3   5 -11   69.14    9.55
  -3  -5 -10   88.87    9.35
  -3   5 -10  118.56   12.27
   3   5 -10  106.61   11.26
  -3   5  -9  401.89   22.35
   3   5  -9  430.54   22.17
  -3  -5  -9  422.37   20.64
  -3   5  -8   37.29    7.26
   3   5  -8   31.80    6.08
  -3  -5  -8   26.40    5.59
  -3  -5  -7  200.12   14.18
   3   5  -7  155.01   13.10
  -3   5  -7  170.28   14.15
  -3   5  -6  177.21   14.10
   3   5  -6  138.71   12.31
  -3  -5  -6  152.84   12.26
  -3  -5  -5   12.70    3.41
   3   5  -5    8.89    2.88
  -3   5  -5   14.87    4.22
   3   5  -4  118.92   11.44
  -3  -5  -4  102.77   10.12
  -3   5  -4  133.34   11.65
   3   5  -3  365.52   19.55
  -3   5  -3  386.96   19.82
  -3  -5  -3  367.66   19.44
  -3   5  -2   19.82    4.71
   3   5  -2   14.79    3.68
  -3  -5  -2   11.96    4.70
  -3   5  -1  510.49   22.26
  -3  -5  -1  534.89   23.69
   3   5  -1  466.85   21.79
  -3  -5   0  232.97   15.88
  -3   5   0  232.69   15.10
   3   5   0  247.53   16.26
  -3   5   1  494.59   21.40
  -3  -5   1  439.78   21.85
   3   5   2   16.35    4.57
  -3   5   2   19.24    4.66
  -3  -5   2   11.76    3.69
   3   5   3  365.58   19.08
  -3   5   3  386.50   18.53
  -3  -5   3  351.06   19.86
   3   5   4  108.65   10.24
  -3   5   4  111.09    9.72
  -3  -5   4  104.55   10.89
   3   5   5   10.94    3.66
  -3   5   5    9.40    3.18
  -3  -5   5   15.73    4.85
   3   5   6  124.40   10.75
  -3   5   6  132.79   10.16
  -3  -5   6  149.52   13.31
  -3  -5   7  177.61   14.80
  -3   5   7  191.08   11.87
   3   5   7  192.28   13.79
  -3  -5   8   33.23    6.87
   3   5   8   30.73    5.43
  -3   5   8   25.71    4.23
  -3  -5   9  385.77   22.23
   3   5   9  421.11   19.66
  -3   5   9  426.43   17.01
  -3  -5  10   91.33   11.04
   3   5  10   94.00    9.47
  -3  -5  11   76.25   10.26
  -3  -5  12  197.96   16.62
  -3  -5  13  466.59   25.78
  -3  -5  14  110.73   12.39
  -3  -5  15  114.19   13.15
  -3  -5  16   80.75   11.50
  -3  -5  17  102.74   13.08
  -3   6 -26    2.24    3.23
  -3   6 -25   26.30    6.68
   3   6 -24    9.32    5.45
  -3   6 -24   25.23    8.65
  -3   6 -23    9.48    5.09
   3   6 -23   -0.02    3.67
  -3   6 -22    7.42    4.33
   3   6 -22    5.79    6.08
   3   6 -22   11.28    4.35
  -3   6 -21   35.28    8.86
   3   6 -21   42.89    9.78
   3   6 -21   41.36    9.06
   3   6 -20   10.29    3.99
  -3   6 -20    7.45    4.71
   3   6 -19  110.90   14.00
  -3   6 -19  100.05   13.36
  -3   6 -18   56.34    9.52
   3   6 -18   71.79   12.15
  -3   6 -17   14.07    5.05
   3   6 -17   17.74    6.57
   3   6 -16   39.55    8.24
  -3   6 -16   48.74    9.14
  -3   6 -15  127.85   14.12
   3   6 -15  142.24   14.55
   3   6 -14   30.51    6.19
  -3   6 -14   30.04    7.27
  -3  -6 -13  297.18   18.74
  -3   6 -13  308.67   21.74
   3   6 -12   26.24    7.13
  -3   6 -12   24.87    5.12
  -3  -6 -12   23.46    5.92
  -3   6 -11  129.95   13.58
  -3  -6 -11  146.93   13.30
  -3  -6 -10   70.07    8.97
   3   6 -10   71.57    9.72
  -3   6 -10   56.14    8.99
  -3  -6  -9   69.90    9.01
  -3   6  -9   72.18   10.04
   3   6  -9   96.63   12.08
   3   6  -8   59.94    8.86
  -3   6  -8   69.51   10.23
  -3  -6  -8   39.51    7.09
  -3  -6  -7  213.38   15.58
   3   6  -7  209.29   16.90
  -3   6  -7  206.58   16.31
  -3   6  -6   37.85    7.40
   3   6  -6   30.40    6.66
  -3  -6  -6   28.13    5.79
   3   6  -5  149.06   13.67
  -3   6  -5  141.45   13.22
  -3  -6  -5  125.90   11.97
  -3  -6  -4   21.46    5.26
   3   6  -4   32.01    6.26
  -3   6  -4   33.48    6.62
  -3   6  -3  156.85   13.88
  -3  -6  -3  136.15   12.79
   3   6  -3  167.95   14.65
   3   6  -2  173.12   15.00
  -3   6  -2  173.93   14.76
  -3  -6  -2  171.82   14.28
   3   6  -1  196.70   15.55
  -3  -6  -1  196.85   15.47
  -3   6  -1  192.27   14.72
   3   6   0    0.28    2.83
  -3   6   0    0.17    2.01
  -3  -6   0   -0.56    2.99
  -3  -6   1  174.31   14.71
   3   6   1  175.01   14.32
  -3  -6   2  202.64   16.04
   3   6   2  199.36   15.09
  -3   6   3  160.30   12.96
   3   6   3  158.75   13.78
  -3  -6   3  186.31   15.64
  -3  -6   4   27.35    6.19
  -3   6   4   23.94    5.14
   3   6   4   27.20    6.31
  -3   6   5  131.08   11.51
   3   6   5  106.65   10.93
  -3  -6   5  138.18   13.61
   3   6   6   29.38    5.90
  -3  -6   6   28.74    6.15
  -3   6   6   24.53    5.11
   3   6   7  193.68   15.11
  -3   6   7  167.77   12.73
  -3  -6   7  189.79   16.28
  -3  -6   8   57.11    8.82
  -3   6   8   59.26    7.35
   3   6   8   48.42    7.75
   3   6   9   92.85   10.83
  -3  -6   9   78.20   10.58
  -3  -6  10   55.90    9.37
  -3  -6  11  112.61   13.32
  -3  -6  12   25.56    6.56
  -3  -6  13  330.37   22.88
  -3  -6  14   41.63    8.60
  -3  -6  15  157.22   16.14
  -3  -6  16   61.04   10.49
  -3  -6  17   14.93    5.35
  -3   7 -24   48.65    9.47
   3   7 -24   25.55    7.25
  -3   7 -23   35.55    8.51
   3   7 -23   19.49    6.34
   3   7 -22   61.58   12.12
  -3   7 -22   52.16   10.23
   3   7 -22   39.26    9.83
   3   7 -21    6.19    3.53
  -3   7 -21   21.89    7.06
   3   7 -21   15.30    3.56
  -3   7 -20   21.84    6.17
   3   7 -20   18.50    7.50
   3   7 -19   98.04   13.77
  -3   7 -19   66.75   11.19
   3   7 -18    5.15    5.75
  -3   7 -18    5.01    3.61
   3   7 -17   78.01   12.95
  -3   7 -17   56.61   10.08
   3   7 -16  118.72   13.53
  -3   7 -16  120.06   14.24
   3   7 -15   40.38    8.63
  -3   7 -15   44.15    8.93
   3   7 -14   27.08    7.27
  -3   7 -14   38.05    7.84
   3   7 -13  115.78   14.08
  -3   7 -13  119.30   14.14
   3   7 -12   32.05    7.16
  -3  -7 -12   48.64    9.23
  -3   7 -12   34.35    8.19
  -3   7 -11    2.28    4.47
   3   7 -11    2.21    3.64
  -3  -7 -11    7.51    4.47
  -3   7 -10   84.87   11.21
   3   7 -10   74.72   11.40
  -3  -7 -10   55.64    9.21
  -3  -7  -9  248.07   18.46
  -3   7  -9  211.79   18.06
   3   7  -9  221.11   18.64
  -3  -7  -8   19.04    5.63
   3   7  -8   29.78    6.87
  -3   7  -8   25.38    6.82
  -3   7  -7   78.72   10.88
  -3  -7  -7   86.37   11.16
  -3   7  -6  130.71   13.96
   3   7  -6  128.06   13.49
  -3  -7  -6  114.25   12.81
   3   7  -5   61.94    9.79
  -3   7  -5   60.57    9.81
  -3  -7  -5   59.04    9.25
   3   7  -4  256.50   18.93
  -3  -7  -4  243.98   18.41
  -3   7  -4  227.33   18.03
   3   7  -3  233.21   18.15
  -3   7  -3  258.92   18.55
  -3  -7  -3  248.28   18.80
   3   7  -2  127.02   13.05
  -3   7  -2  155.31   14.66
  -3  -7  -2  156.95   14.75
  -3   7  -1  520.73   26.59
   3   7  -1  543.23   27.42
  -3  -7  -1  532.91   27.45
   3   7   0  380.97   22.88
  -3   7   0  389.94   22.52
  -3  -7   1  474.72   26.32
   3   7   1  516.83   26.14
   3   7   2  150.48   14.38
  -3  -7   2  134.44   14.11
  -3   7   2  136.71   13.76
   3   7   3  235.48   17.90
  -3  -7   3  250.84   19.00
  -3   7   3  238.79   17.20
  -3  -7   4  207.47   17.35
  -3   7   4  217.99   16.85
   3   7   4  237.33   17.99
  -3   7   5   64.67    8.86
   3   7   5   66.30    9.58
  -3  -7   5   51.73    9.04
   3   7   6  143.79   13.98
  -3   7   6  119.62   11.99
  -3  -7   6  102.84   12.51
  -3   7   7   68.79    8.87
   3   7   7   77.18   10.20
  -3  -7   7   88.09   12.33
   3   7   8   30.26    7.42
  -3  -7   8   43.49    8.46
  -3  -7   9  216.79   18.76
  -3  -7  10   79.70   11.56
  -3  -7  11    8.72    4.85
  -3  -7  12   39.73    8.70
  -3  -7  13  145.55   15.37
  -3  -7  14   42.60    8.34
  -3  -7  15   51.00   10.09
  -3  -7  16   97.57   13.64
   3   8 -22   14.45    6.74
  -3   8 -22   18.31    6.44
   3   8 -22   16.49    6.70
   3   8 -21   12.52    5.97
  -3   8 -21   13.81    5.86
   3   8 -21   10.75    5.68
   3   8 -20   10.16    7.33
   3   8 -20    3.55    3.11
  -3   8 -20    1.25    2.80
   3   8 -19   28.38    9.63
  -3   8 -19   18.35    7.11
  -3   8 -18    4.48    3.52
   3   8 -18    1.80    4.21
  -3   8 -17   28.30    7.70
   3   8 -17   24.08    7.70
   3   8 -16   17.48    6.98
  -3   8 -16   12.91    5.00
   3   8 -15   57.56    9.97
  -3   8 -15   56.86   10.48
  -3   8 -14   29.40    7.69
   3   8 -14   19.94    6.32
  -3   8 -13  110.65   13.94
   3   8 -13  125.17   14.67
   3   8 -12   62.35    9.44
  -3   8 -12   47.59    9.27
   3   8 -11   13.25    6.26
  -3   8 -11   -0.06    3.54
  -3  -8 -11    7.93    4.66
   3   8 -10   15.07    5.89
  -3   8 -10   10.81    5.29
   3   8  -9   67.80   10.84
  -3   8  -9   93.70   12.67
  -3  -8  -9   68.44   10.44
   3   8  -8   15.94    5.39
  -3  -8  -8   28.98    7.18
  -3   8  -8   29.30    7.50
   3   8  -7   33.11    6.82
  -3  -8  -7   40.90    8.34
  -3   8  -7   30.72    7.75
   3   8  -6    3.51    2.44
  -3   8  -6   11.65    4.97
  -3  -8  -6    9.94    4.99
  -3   8  -5   32.71    7.68
  -3  -8  -5   29.85    7.28
   3   8  -5   20.92    4.58
   3   8  -4   84.84   11.52
  -3   8  -4   64.91    9.98
  -3  -8  -4   62.85   10.06
  -3   8  -3   49.16    8.66
   3   8  -3   45.09    8.49
  -3  -8  -3   49.87    9.04
  -3   8  -2    6.26    3.35
  -3  -8  -2    8.59    3.37
   3   8  -2   10.44    4.98
  -3  -8  -1   60.15    9.67
  -3   8  -1   77.63   10.63
   3   8  -1   61.42   10.11
  -3  -8   0    3.65    4.51
  -3   8   0    4.70    3.76
   3   8   0   16.72    6.89
  -3   8   1   74.40   10.69
   3   8   1   70.62   10.61
  -3  -8   1   77.76   11.12
  -3   8   2   14.97    5.77
   3   8   2   18.05    6.51
  -3  -8   2   14.01    5.38
   3   8   3   63.21    9.87
  -3  -8   3   46.37    9.34
  -3   8   3   45.68    7.94
  -3   8   4   86.53   10.93
  -3  -8   4   81.90   12.09
   3   8   4   74.55   10.38
  -3  -8   5   22.53    6.44
  -3   8   5   26.70    5.70
   3   8   5   15.34    5.62
  -3  -8   6    6.42    4.53
  -3   8   6    8.48    4.06
   3   8   6    7.58    5.78
  -3  -8   7   44.06    8.84
   3   8   7   34.04    7.45
  -3  -8   8   28.44    6.48
  -3  -8   9   72.57   11.39
  -3  -8  10   24.44    7.51
  -3  -8  11    0.57    3.96
  -3  -8  12   40.36    9.24
  -3  -8  13  152.78   16.69
  -3  -8  14   32.65    7.37
  -3  -8  15   45.41    9.96
   3   9 -19   54.12   10.50
   3   9 -19   64.47   12.44
  -3   9 -19   63.82   11.81
  -3   9 -18   16.70    6.28
   3   9 -18    1.09    4.03
  -3   9 -17    3.54    3.01
   3   9 -17   -0.47    3.64
  -3   9 -16   18.80    6.31
   3   9 -16   40.31   10.72
  -3   9 -15   38.43    9.10
   3   9 -15   15.33    5.66
   3   9 -14   23.43    6.78
  -3   9 -14   11.65    2.83
   3   9 -13   32.24    8.28
  -3   9 -13   37.54    8.89
   3   9 -12    6.22    2.85
  -3   9 -12    8.97    5.82
   3   9 -11   25.22    7.11
  -3   9 -11   10.43    4.51
   3   9 -10   68.85   11.18
  -3   9 -10   54.05   10.33
  -3   9  -9  146.40   16.52
   3   9  -9  146.76   15.82
  -3  -9  -9  151.53   16.98
   3   9  -8   77.21   12.17
  -3   9  -8   55.00   10.30
  -3  -9  -8   62.17   10.76
   3   9  -7  140.71   16.36
  -3  -9  -7  131.80   15.36
  -3   9  -7  127.81   14.86
  -3   9  -6  109.17   13.89
   3   9  -6  106.07   13.82
  -3  -9  -6  108.44   14.16
  -3   9  -5  116.23   14.16
   3   9  -5  105.71   13.27
  -3  -9  -5  137.71   14.97
  -3   9  -4  169.15   17.14
   3   9  -4  145.85   16.22
  -3  -9  -4  122.14   15.59
   3   9  -3  236.01   20.58
  -3   9  -3  256.49   20.43
  -3  -9  -3  247.91   20.90
  -3   9  -2   58.15   10.22
  -3  -9  -2   54.15    9.68
   3   9  -2   55.63    8.79
  -3  -9  -1  156.38   16.70
  -3   9  -1  122.82   14.87
   3   9  -1  140.60   15.94
  -3   9   0   91.67   12.08
  -3  -9   0   90.66   12.68
   3   9   0   95.71   12.71
  -3   9   1  154.21   15.89
  -3  -9   1  128.72   15.74
   3   9   1  144.94   15.34
  -3   9   2   41.85    9.04
  -3  -9   2   56.33   10.65
   3   9   2   59.89   10.51
  -3  -9   3  257.92   21.65
  -3   9   3  245.76   20.18
   3   9   3  211.04   18.99
  -3  -9   4  193.32   18.79
   3   9   4  192.65   18.68
  -3   9   4  164.57   16.87
  -3   9   5  117.51   14.43
   3   9   5  102.12   13.80
  -3  -9   5   98.79   13.71
   3   9   6   87.44   12.84
  -3  -9   6  106.70   14.37
  -3  -9   7  142.98   16.75
  -3  -9   8   84.99   13.11
  -3  -9   9  159.66   17.19
  -3  -9  10   41.65    9.31
  -3  -9  11   21.48    6.93
  -3  -9  12    5.83    3.62
  -3  -9  13   42.09    9.25
  -3  -9  14    9.85    4.53
   3  10 -15    9.49    6.73
  -3  10 -15    1.91    2.76
  -3  10 -14   15.44    6.45
   3  10 -14    2.18    3.09
  -3  10 -13   -2.22    2.24
   3  10 -13    4.36    5.09
  -3  10 -12    9.85    4.45
   3  10 -12    9.77    5.95
   3  10 -11   58.83   11.24
  -3  10 -11   71.43   12.29
   3  10 -10   13.15    6.90
  -3  10 -10   20.96    7.15
   3  10  -9   28.37    8.67
  -3  10  -9   36.87    9.05
  -3  10  -8   54.40   10.41
  -3 -10  -8   40.14    8.56
   3  10  -8   51.27   10.00
  -3  10  -7    3.19    4.71
   3  10  -7    0.95    3.92
  -3 -10  -7    5.09    5.48
   3  10  -6    2.97    2.60
  -3 -10  -6   12.55    6.00
  -3  10  -6   16.64    5.37
  -3  10  -5   57.60   10.97
  -3 -10  -5   78.32   12.76
   3  10  -5   51.17    9.85
  -3 -10  -4   69.08   11.14
  -3  10  -4   98.14   13.94
   3  10  -4  104.53   14.51
  -3  10  -3  252.73   21.48
  -3 -10  -3  273.32   23.29
   3  10  -3  245.66   21.56
   3  10  -2   35.10    8.71
  -3  10  -2   20.18    6.77
  -3 -10  -2   25.84    7.88
  -3  10  -1   17.99    6.83
   3  10  -1   18.82    6.38
  -3 -10  -1   25.17    6.59
  -3 -10   0   26.80    7.39
  -3  10   0   18.68    5.82
   3  10   0   21.86    6.83
   3  10   1   14.59    4.86
  -3 -10   1   22.59    7.15
  -3  10   1   24.41    7.76
   3  10   2    3.75    4.13
  -3  10   2   23.84    8.36
  -3 -10   2   26.19    8.12
  -3  10   3  186.88   18.83
  -3 -10   3  242.88   21.54
   3  10   3  238.35   22.24
  -3 -10   4   79.98   13.05
  -3 -10   5   69.12   12.24
  -3 -10   6    6.25    3.33
  -3 -10   7    1.47    4.41
  -3 -10   8   58.84   10.60
  -3 -10   9   45.35    9.55
  -3 -10  10   21.80    6.61
  -3 -10  11   58.40   11.47
  -3 -10  12    3.68    4.86
   3  11  -9   23.36    8.67
  -3  11  -9   20.20    7.55
  -3  11  -8   67.31   12.27
   3  11  -8   48.64   10.89
   3  11  -7   76.16   12.51
  -3  11  -7   67.50   12.35
   3  11  -6   11.65    4.84
  -3  11  -6   19.87    6.90
  -3 -11  -6   15.62    7.28
  -3  11  -5   18.37    6.73
   3  11  -5   21.30    7.67
  -3 -11  -5    9.02    5.21
   3  11  -4   33.84   10.71
  -3 -11  -4   25.64    8.69
  -3  11  -4   34.40    8.98
   3  11  -3   16.90    4.92
  -3 -11  -3   14.03    6.54
  -3  11  -3    7.65    4.37
  -3  11  -2    5.88    3.50
   3  11  -2    7.38    4.07
  -3 -11  -2    5.82    5.63
   3  11  -1    4.51    5.61
  -3 -11  -1    7.35    3.96
  -3  11  -1   12.25    6.94
  -3  11   0    0.80    4.17
   3  11   0   -3.11    3.54
  -3 -11   0    2.82    4.33
  -3  11   1    0.17    3.67
  -3 -11   1   -3.61    4.58
  -3 -11   2    8.33    3.96
  -3 -11   3   17.45    6.88
  -3 -11   4   38.80   10.36
  -3 -11   5   20.31    8.45
  -3 -11   6   21.89    6.62
  -3 -11   7   58.18   10.00
  -3 -11   8   61.36   11.91
  -3 -11   9   27.73    8.14
  -4   0 -21  163.07   14.52
  -4   0 -20  186.73   15.43
  -4   0 -19  204.99   15.59
  -4   0 -18  279.23   17.78
  -4   0 -17 1149.81   35.08
  -4   0 -16  217.35   14.75
   4   0 -16  216.42   10.54
  -4   0 -15  420.45   20.21
  -4   0 -14  358.77   17.94
  -4   0 -13  222.28   13.88
  -4   0 -12  201.88   12.83
  -4   0 -11 1748.46   36.78
  -4   0 -10  135.17   10.02
  -4   0  -9 1604.43   33.63
  -4   0  -8  474.15   17.71
  -4   0  -7   74.56    6.80
  -4   0  -6  266.67   12.76
  -4   0  -5  507.41   17.12
  -4   0  -4  204.19   10.87
  -4   0  -3 2071.62   32.95
  -4   0  -2 1513.79   27.09
  -4   0  -1  786.03   19.19
  -4   0   0 1087.19   22.17
  -4   0   1  739.64   17.91
  -4   0   2 1451.05   24.70
  -4   0   3 2135.50   29.78
  -4   0   4  209.33    9.28
  -4   0   5  505.84   14.15
  -4   0   6  215.82    9.28
  -4   0   7   64.09    5.09
  -4   0   8  486.75   14.05
  -4   0   9 1736.38   26.92
  -4   0  10  135.52    7.69
  -4   0  11 1788.43   28.35
  -4   0  12  198.13    9.64
  -4   0  13  211.76   10.31
  -4   0  14  327.14   12.81
  -4   1 -22   15.60    4.68
  -4   1 -21   21.20    5.54
  -4  -1 -20    5.50    2.64
  -4   1 -20    9.52    5.47
  -4   1 -19   88.30   10.31
  -4  -1 -19   73.63    9.08
  -4   1 -18   83.97    9.91
   4   1 -18  101.05    9.42
  -4  -1 -18   99.23   10.25
  -4   1 -17   27.93    5.87
  -4  -1 -17   33.29    5.73
  -4   1 -16  484.97   22.56
  -4  -1 -16  417.75   19.80
  -4   1 -15   18.88    4.59
  -4  -1 -15   16.45    4.10
  -4  -1 -14   53.93    6.68
  -4   1 -14   59.24    7.70
  -4  -1 -13   77.29    8.04
  -4   1 -13   71.56    8.55
  -4   1 -12  112.56   10.05
  -4  -1 -12  122.48    9.74
  -4  -1 -11  150.31   10.42
  -4   1 -11  163.01   11.64
  -4  -1 -10 1054.49   27.08
  -4   1 -10 1020.61   28.60
  -4   1  -9    9.04    2.81
  -4  -1  -9    6.40    2.30
  -4   1  -8  298.53   14.70
  -4  -1  -8  261.02   12.95
  -4   1  -7   96.88    8.04
  -4  -1  -7   80.15    7.14
  -4   1  -6  158.15   10.24
  -4  -1  -6  170.69    9.99
  -4  -1  -5  137.20    8.96
  -4   1  -5  162.45   10.04
  -4   1  -4  593.99   18.69
  -4  -1  -4  548.77   17.55
  -4   1  -3   68.12    6.16
  -4  -1  -3   61.17    5.89
  -4   1  -2  105.54    7.48
  -4  -1  -2  104.97    7.55
  -4  -1  -1   33.64    4.33
  -4   1  -1   27.63    3.74
  -4  -1   0  350.52   13.33
  -4   1   0  344.00   12.47
  -4  -1   1   33.78    4.22
  -4   1   1   32.65    3.78
  -4   1   2  105.04    6.70
  -4  -1   2  118.70    7.89
  -4   1   3   69.36    5.16
  -4  -1   3   58.11    5.57
  -4   1   4  587.11   14.25
  -4  -1   4  574.59   17.54
  -4  -1   5  158.27    9.16
  -4   1   5  171.76    7.52
  -4  -1   6  169.93    9.72
  -4   1   6  169.20    7.18
  -4   1   7   77.14    4.55
  -4  -1   7   93.26    7.23
  -4   1   8  281.55    8.70
  -4  -1   8  268.76   12.56
  -4  -1   9   10.68    2.82
  -4   1   9    6.33    1.41
  -4   1  10 1010.85   15.14
  -4  -1  10  995.50   25.73
  -4  -1  11  154.81   10.36
  -4  -1  12  111.94    8.89
  -4  -1  13   81.15    7.90
  -4  -1  14   48.27    6.15
  -4  -1  15   12.43    3.58
  -4  -1  16  440.50   18.87
  -4   2 -24   19.46    5.69
  -4   2 -23    8.48    4.13
  -4   2 -22   82.18   11.61
  -4   2 -21  125.88   13.64
  -4   2 -20   14.24    5.09
  -4   2 -19  212.02   16.55
  -4   2 -18   35.54    6.40
  -4  -2 -18   24.27    4.71
  -4   2 -17   18.76    5.48
  -4  -2 -17   19.21    4.52
  -4  -2 -16  359.64   18.33
  -4   2 -16  341.53   19.97
  -4  -2 -15  192.44   13.04
  -4   2 -15  189.36   14.45
  -4  -2 -14   64.39    7.56
  -4   2 -14   68.81    8.42
  -4  -2 -13  181.30   12.41
  -4   2 -13  182.70   13.46
  -4  -2 -12  363.39   17.02
  -4   2 -12  346.18   18.12
  -4  -2 -11   73.02    7.63
  -4   2 -11   83.45    8.75
  -4  -2 -10  419.91   17.59
  -4   2 -10  348.44   17.36
  -4  -2  -9  124.64    9.41
  -4   2  -9  141.56   10.78
  -4  -2  -8   30.23    4.54
  -4   2  -8   26.64    4.94
  -4  -2  -7    6.84    2.29
  -4   2  -7    1.50    1.16
  -4   2  -6    5.57    2.59
  -4  -2  -6    4.39    1.53
  -4   2  -5   44.06    5.67
  -4  -2  -5   40.95    5.26
  -4  -2  -4 1219.66   27.89
  -4  -2  -3  394.69   15.71
  -4   2  -3  345.02   14.64
  -4   2  -2  155.13    9.60
  -4  -2  -2  131.51    9.74
  -4  -2  -1   79.44    7.15
  -4   2  -1   82.23    6.74
  -4   2   0  134.36    8.36
  -4  -2   0  124.85    9.32
  -4   2   1   86.43    6.48
  -4  -2   1  110.34    8.37
  -4   2   2  167.87    8.85
  -4  -2   2  142.17    9.58
  -4   2   3  358.26   12.56
  -4  -2   3  354.22   15.26
  -4   2   4 1267.13   22.35
  -4  -2   4 1200.32   28.74
  -4   2   5   58.66    4.67
  -4  -2   5   54.71    6.25
  -4  -2   6    6.93    2.47
  -4   2   6    9.79    1.92
  -4  -2   7    6.48    2.66
  -4   2   7    8.22    1.44
  -4   2   8   30.02    2.57
  -4  -2   8   22.58    4.11
   4   2   9  148.23    6.80
  -4  -2   9  142.84   10.73
   4   2  10  355.27    9.88
  -4  -2  10  368.96   17.54
   4   2  11   55.68    3.63
  -4  -2  11   70.81    7.92
  -4  -2  12  356.34   17.89
  -4  -2  13  197.61   13.41
  -4  -2  14   57.80    7.60
  -4  -2  15  217.99   14.80
  -4  -2  16  363.72   19.63
  -4  -2  17   19.58    4.55
  -4   3 -25    2.15    3.85
  -4   3 -24    8.34    4.38
  -4   3 -23   17.72    6.35
  -4   3 -22    1.16    3.07
  -4   3 -21    2.27    2.98
   4   3 -21    2.05    2.31
  -4   3 -20   -1.27    2.81
  -4   3 -19   14.13    4.25
  -4   3 -18   21.82    5.07
  -4  -3 -17   46.75    6.33
  -4   3 -17   44.07    7.72
  -4   3 -16   30.36    6.24
  -4  -3 -16   27.84    5.39
  -4  -3 -15   86.76    8.88
  -4   3 -15   87.36   10.41
  -4   3 -14    4.67    2.38
  -4  -3 -14   -1.63    2.69
  -4   3 -13   47.19    7.41
  -4  -3 -13   52.58    6.81
  -4   3 -12   70.16    8.59
  -4  -3 -12   49.13    6.36
  -4   3 -11   17.17    3.72
  -4  -3 -11   15.96    3.98
  -4   3 -10   30.23    5.93
  -4  -3 -10   25.98    5.04
  -4   3  -9   69.82    8.23
  -4  -3  -9   57.08    6.76
  -4   3  -8    6.87    2.23
  -4  -3  -8    3.49    2.42
  -4  -3  -7   81.22    7.92
  -4   3  -7   66.71    7.74
  -4  -3  -6  525.46   20.40
  -4   3  -6  570.09   22.05
  -4  -3  -5   90.47    8.53
  -4   3  -5   83.74    8.37
  -4   3  -4   14.70    3.26
  -4  -3  -4   25.87    4.73
  -4  -3  -3   83.79    8.05
  -4   3  -3   92.11    8.35
  -4  -3  -2   82.86    7.93
  -4   3  -2   99.97    8.61
  -4  -3  -1  179.47   11.59
  -4   3  -1  185.77   11.19
  -4  -3   0  555.63   20.65
  -4   3   0  572.38   19.28
  -4  -3   1  191.54   12.40
  -4   3   1  202.41   11.11
  -4   3   2   99.80    7.68
  -4  -3   2   75.90    7.77
  -4   3   3   88.50    7.05
  -4  -3   3   98.32    9.07
  -4   3   4   31.34    4.02
  -4  -3   4   31.34    5.37
  -4   3   5  101.25    6.94
  -4  -3   5  101.12    9.42
  -4   3   6  561.85   15.78
  -4  -3   6  572.87   22.56
  -4   3   7   75.10    5.49
   4   3   7   78.81    6.59
  -4  -3   7   62.84    7.49
  -4   3   8    4.69    1.37
  -4  -3   8    7.30    3.12
   4   3   8    6.14    1.50
  -4   3   9   58.88    4.12
   4   3   9   69.77    6.19
  -4  -3   9   53.60    7.34
  -4   3  10   27.47    2.32
  -4  -3  10   25.25    4.67
   4   3  10   29.82    3.99
   4   3  11   14.93    2.85
  -4  -3  11   22.47    5.24
  -4  -3  12   69.20    8.43
  -4  -3  13   39.27    6.67
  -4  -3  14    6.87    3.32
  -4  -3  15   78.17    9.71
  -4  -3  16   43.94    7.24
  -4  -3  17   53.79    8.62
  -4  -3  18   27.67    5.85
  -4   4 -26   62.09   11.16
  -4   4 -25   27.76    8.08
  -4   4 -24   16.37    6.40
  -4   4 -23   45.29    8.98
   4   4 -22   42.81    8.08
  -4   4 -22   43.38    9.44
   4   4 -22   24.78    6.70
  -4   4 -21  115.98   13.50
  -4   4 -20   89.98   11.80
  -4   4 -19   17.99    6.18
  -4   4 -18   20.56    5.78
  -4   4 -17   14.40    5.63
  -4   4 -16  228.09   17.58
  -4  -4 -16  227.19   15.20
  -4   4 -15  963.06   35.64
  -4  -4 -15  925.53   30.62
  -4  -4 -14  153.05   12.26
  -4   4 -14  162.13   14.56
  -4  -4 -13   75.45    8.76
  -4   4 -13   89.28   10.60
  -4  -4 -12  243.37   15.61
  -4   4 -12  254.42   17.55
  -4  -4 -11  256.34   15.62
  -4   4 -11  248.70   17.03
  -4  -4 -10  281.29   16.40
  -4   4 -10  249.64   16.54
  -4   4  -9  161.64   13.21
  -4  -4  -9  177.43   12.71
  -4   4  -8   27.03    5.58
  -4  -4  -8   37.40    5.99
  -4  -4  -7  273.76   15.83
  -4   4  -7  267.99   16.57
  -4  -4  -6   32.25    5.64
  -4   4  -6   44.35    6.44
  -4  -4  -5  142.23   11.34
  -4   4  -5  161.53   12.56
  -4  -4  -4  500.75   21.59
  -4   4  -4  491.71   21.42
  -4  -4  -3  187.68   13.35
  -4   4  -3  179.54   12.67
  -4  -4  -2    8.76    3.33
  -4   4  -2   20.99    4.36
  -4  -4  -1    7.67    3.05
  -4   4  -1    9.94    3.04
  -4  -4   0   15.92    4.69
  -4   4   0   21.51    4.38
  -4  -4   1   11.47    3.64
  -4   4   1   15.33    3.47
  -4  -4   2   10.20    3.42
  -4   4   2   17.11    3.62
  -4  -4   3  182.76   13.64
  -4   4   3  191.79   11.74
  -4  -4   4  505.92   22.80
  -4   4   4  466.62   17.82
  -4   4   5  158.20    9.90
  -4  -4   5  163.77   12.97
   4   4   5  164.17   11.09
  -4  -4   6   30.26    5.55
   4   4   6   32.07    5.09
  -4   4   6   30.53    4.32
  -4   4   7  301.12   13.11
   4   4   7  270.10   14.53
  -4  -4   7  287.32   17.71
   4   4   8   25.52    4.15
  -4  -4   8   22.84    5.11
  -4   4   8   24.23    3.55
  -4   4   9  161.58    8.49
  -4  -4   9  161.82   13.60
   4   4   9  164.08   10.95
   4   4  10  254.82   13.86
  -4  -4  10  305.73   18.94
  -4  -4  11  254.24   17.41
   4   4  11  262.20   13.62
  -4  -4  12  245.79   17.24
  -4  -4  13   85.69   10.13
  -4  -4  14  142.05   13.76
  -4  -4  15  966.13   36.52
  -4  -4  16  210.60   17.10
  -4  -4  17   19.79    5.76
  -4  -4  18   17.42    5.21
  -4   5 -26    9.01    5.94
  -4   5 -25    8.67    5.22
  -4   5 -24   52.15    9.12
   4   5 -23   10.54    5.88
  -4   5 -23    4.92    2.27
   4   5 -22    5.53    4.74
   4   5 -22    9.49    2.89
  -4   5 -22   18.65    5.57
  -4   5 -21   13.79    3.04
   4   5 -21    6.35    3.73
  -4   5 -20   24.18    6.71
   4   5 -20   15.92    5.45
  -4   5 -19   13.92    5.27
   4   5 -19    9.68    4.86
  -4   5 -18   62.30   10.27
   4   5 -18   32.52    6.98
  -4   5 -17  133.33   14.13
  -4   5 -16  164.22   15.98
  -4   5 -15  276.86   19.96
  -4  -5 -15  295.78   18.31
  -4  -5 -14   32.25    5.79
  -4   5 -14   25.74    5.87
  -4  -5 -13  197.21   14.65
  -4   5 -13  184.50   15.63
  -4   5 -12  229.17   17.53
  -4  -5 -12  207.92   15.52
  -4   5 -11    5.19    3.22
  -4  -5 -11    8.66    2.97
  -4  -5 -10  150.45   12.88
  -4   5 -10  111.33   12.05
  -4   5  -9   46.66    7.60
  -4  -5  -9   51.06    7.67
  -4  -5  -8   31.04    6.01
  -4   5  -8   20.42    5.41
  -4   5  -7   44.69    7.34
  -4  -5  -7   42.39    6.66
  -4  -5  -6   17.88    4.87
  -4   5  -6   19.51    4.79
  -4  -5  -5   42.84    6.88
  -4   5  -5   43.14    7.07
  -4  -5  -4  174.36   13.77
  -4   5  -4  178.99   14.02
  -4  -5  -3   43.85    7.14
  -4   5  -3   41.17    6.84
  -4  -5  -2    3.41    1.92
  -4   5  -2    5.48    3.22
  -4  -5  -1  104.08   10.99
  -4   5  -1  118.83   11.07
  -4  -5   0   44.74    7.27
   4   5   0   46.75    7.24
  -4   5   0   43.22    6.78
   4   5   1  119.32   11.33
  -4  -5   1  130.04   12.13
  -4   5   1  132.08   11.34
  -4  -5   2    8.00    3.57
  -4   5   2    2.90    1.76
   4   5   2    8.06    4.48
   4   5   3   38.08    6.63
  -4   5   3   41.61    5.97
  -4  -5   3   48.61    7.65
   4   5   4  162.13   13.04
  -4   5   4  148.35   11.37
  -4  -5   4  162.04   14.10
   4   5   5   36.95    6.63
  -4  -5   5   48.84    7.77
  -4   5   5   38.62    5.72
   4   5   6   18.59    4.72
  -4   5   6   18.98    4.27
  -4  -5   6   19.94    5.35
   4   5   7   39.17    6.57
  -4   5   7   40.31    5.51
   4   5   8   25.18    5.08
  -4  -5   8   22.60    5.40
  -4   5   8   27.86    4.42
   4   5   9   52.22    7.49
  -4   5   9   51.32    6.60
  -4  -5   9   46.15    7.73
   4   5  10  101.77   10.05
  -4  -5  10  117.84   12.14
   4   5  11    3.99    3.47
  -4  -5  11   12.77    4.67
  -4  -5  12  223.53   17.75
  -4  -5  13  186.94   16.73
  -4  -5  14   24.02    6.35
  -4  -5  15  309.94   21.81
  -4  -5  16  141.76   15.06
  -4  -5  17  110.29   13.97
  -4  -5  18   39.51    7.62
  -4   6 -26   28.00    8.95
  -4   6 -25   16.37    6.75
   4   6 -24   22.47    7.81
  -4   6 -24   18.94    7.46
   4   6 -23   61.55   11.05
  -4   6 -23   71.25   11.50
  -4   6 -22   38.14    8.22
   4   6 -22   46.03    9.86
   4   6 -22   50.67   10.29
  -4   6 -21  106.18   13.90
   4   6 -21  130.71   15.61
  -4   6 -20  268.14   21.85
   4   6 -20  251.80   21.57
   4   6 -19   23.67    7.22
  -4   6 -19   18.02    7.11
  -4   6 -18   26.99    7.14
   4   6 -18   28.21    8.70
   4   6 -17  102.38   14.13
  -4   6 -17  124.49   14.48
   4   6 -16   62.53   10.08
  -4   6 -16   37.84    7.99
   4   6 -15  646.44   32.03
  -4   6 -15  669.23   32.22
   4   6 -14  169.70   16.73
  -4   6 -14  183.20   16.58
  -4  -6 -14  164.31   14.59
  -4  -6 -13   45.23    7.41
   4   6 -13   34.21    7.58
  -4   6 -13   38.46    7.85
  -4   6 -12   40.40    7.60
   4   6 -12   48.43    9.33
  -4  -6 -12   68.13    9.62
   4   6 -11  634.39   29.97
  -4  -6 -11  592.87   27.60
  -4   6 -10  133.23   13.81
  -4  -6 -10  156.97   13.86
  -4  -6  -9  194.48   15.53
  -4   6  -9  253.69   18.56
  -4   6  -8   69.49    9.48
  -4  -6  -8   78.89    9.75
  -4  -6  -7   22.34    4.87
   4   6  -7   32.55    7.29
  -4   6  -7   29.06    6.20
   4   6  -6  313.33   20.61
  -4   6  -6  326.53   20.80
  -4  -6  -6  325.19   19.75
   4   6  -5  408.63   22.95
  -4   6  -5  444.95   23.91
  -4  -6  -4   11.11    6.28
   4   6  -4   16.71    4.58
  -4   6  -4   12.08    4.30
  -4   6  -3  155.66   13.89
   4   6  -3  134.22   13.81
  -4  -6  -2   32.61    6.66
   4   6  -2   41.89    7.58
  -4   6  -2   27.31    6.18
  -4   6  -1  208.57   15.76
   4   6  -1  192.44   15.61
  -4  -6  -1  222.30   16.69
  -4   6   0  296.66   18.70
   4   6   0  302.12   19.53
  -4  -6   0  281.37   19.04
  -4   6   1  202.39   15.15
   4   6   1  231.42   16.87
  -4  -6   1  251.48   17.90
  -4   6   2   36.02    6.36
   4   6   2   24.07    5.07
  -4  -6   2   36.05    6.62
  -4   6   3  129.35   11.69
   4   6   3  167.78   14.31
  -4  -6   3  155.66   14.75
   4   6   4   10.58    4.56
  -4   6   4   14.78    4.43
  -4  -6   4   19.95    5.90
  -4   6   5  380.10   20.30
  -4  -6   5  421.63   24.14
   4   6   5  393.88   21.39
  -4   6   6  301.57   17.56
   4   6   6  273.97   17.95
  -4   6   7   31.49    5.45
   4   6   7   24.74    5.80
  -4  -6   7   26.58    6.19
  -4   6   8   72.54    8.76
   4   6   8   82.76    9.82
  -4  -6   8   56.79    8.88
   4   6   9  229.52   16.42
  -4  -6   9  235.16   18.56
   4   6  10  165.03   13.99
  -4  -6  10  142.50   14.51
   4   6  11  586.89   27.37
  -4  -6  11  575.77   29.51
  -4  -6  12   38.20    8.06
  -4  -6  13   30.33    7.08
  -4  -6  14  150.36   16.46
  -4  -6  15  711.81   34.21
  -4  -6  16   43.29    9.33
  -4  -6  17  108.38   13.85
  -4  -6  18   18.12    5.51
  -4   7 -24    3.28    4.49
   4   7 -24   -4.41    6.52
  -4   7 -23   11.09    6.53
   4   7 -23   11.51    6.52
   4   7 -23    6.77    5.13
   4   7 -22   10.86    5.88
  -4   7 -22   19.45    7.34
   4   7 -22   19.27    8.51
   4   7 -21    2.93    5.18
  -4   7 -21    4.57    2.64
  -4   7 -20   28.01    8.42
   4   7 -20   28.46    8.70
   4   7 -19   57.85    9.84
  -4   7 -19   41.08    8.78
   4   7 -18   98.26   13.18
  -4   7 -18   96.15   13.08
  -4   7 -17   15.58    5.28
   4   7 -17   29.92    8.14
   4   7 -16   48.11   10.55
  -4   7 -16   29.69    6.98
   4   7 -15   30.19    7.84
  -4   7 -15   32.12    7.96
  -4   7 -14   31.38    7.48
   4   7 -14   28.32    7.97
   4   7 -13   94.41   12.77
  -4   7 -13  117.99   13.78
  -4  -7 -12   12.24    5.06
   4   7 -12   12.65    5.33
  -4   7 -12   16.85    5.47
   4   7 -11   61.18   10.42
  -4  -7 -11   75.89   10.51
  -4   7 -11   77.93   11.25
  -4   7 -10  133.94   14.37
  -4  -7 -10  121.57   13.10
   4   7 -10  138.99   14.65
  -4  -7  -9   14.92    4.97
  -4   7  -9   15.39    4.58
   4   7  -9   11.71    4.76
  -4   7  -8  140.22   14.88
  -4  -7  -8  134.99   14.12
   4   7  -8  123.98   13.76
  -4  -7  -7   10.65    4.79
   4   7  -7    5.55    3.49
  -4   7  -7    5.69    4.02
  -4   7  -6   36.67    7.18
   4   7  -6   50.17    8.78
  -4  -7  -6   43.53    7.80
  -4   7  -5   50.34    8.69
   4   7  -5   40.47    7.98
  -4  -7  -5   37.74    7.38
  -4   7  -4   15.86    5.86
  -4  -7  -4   13.34    4.07
   4   7  -4   20.40    6.25
  -4   7  -3   23.95    6.69
   4   7  -3   33.87    6.96
  -4  -7  -3   30.25    7.19
  -4   7  -2   15.47    4.92
   4   7  -2   20.36    6.38
  -4  -7  -2    9.30    3.98
   4   7  -1   19.36    5.53
  -4   7  -1   14.55    4.69
  -4  -7  -1   14.35    5.79
  -4   7   0   72.78   10.38
  -4  -7   0   80.80   11.30
   4   7   0   72.28    9.80
   4   7   1   12.67    5.07
  -4   7   1   13.93    4.40
  -4  -7   1   14.77    5.61
   4   7   2   10.95    4.26
  -4   7   2   12.73    4.24
  -4  -7   2   14.65    4.49
  -4   7   3   24.08    5.85
  -4  -7   3   25.57    7.27
   4   7   3   21.89    6.18
   4   7   4    8.16    4.18
  -4  -7   4   16.33    5.29
  -4   7   4   13.37    3.90
  -4   7   5   35.74    6.55
  -4  -7   5   46.95    8.39
   4   7   5   45.43    7.91
   4   7   6   32.67    7.78
  -4   7   6   28.32    6.20
  -4  -7   6   35.38    7.62
   4   7   7    8.04    4.20
  -4   7   7   13.33    5.43
  -4  -7   7    1.47    3.92
   4   7   8  144.07   14.43
  -4  -7   8  121.99   14.18
   4   7   9    9.32    3.66
  -4  -7   9   14.24    5.66
  -4  -7  10  117.91   14.15
   4   7  10  133.83   13.95
  -4  -7  11   63.42   10.68
  -4  -7  12   20.72    6.75
  -4  -7  13   97.80   12.82
  -4  -7  14   22.06    6.19
  -4  -7  15   39.35    8.14
  -4  -7  16   37.29    9.06
  -4  -7  17   17.51    5.71
  -4  -7  18  116.30   14.62
  -4   8 -21   46.82   10.02
   4   8 -21   38.44    9.11
  -4   8 -20   56.51   10.64
   4   8 -20   42.37    9.61
   4   8 -19   57.67   12.26
  -4   8 -19   51.63   10.53
  -4   8 -18   84.71   12.52
   4   8 -18   83.69   13.17
   4   8 -17   -1.22    4.04
  -4   8 -17   -0.30    2.96
  -4   8 -16   32.45    7.91
   4   8 -16   27.99    7.61
   4   8 -15   12.15    5.94
  -4   8 -15    6.22    3.26
  -4   8 -14    2.28    2.51
   4   8 -14    7.03    3.89
  -4   8 -13   43.95    9.02
   4   8 -13   28.78    7.22
  -4   8 -12    8.31    4.38
   4   8 -12   12.16    5.19
  -4  -8 -11   10.64    5.33
  -4   8 -11   12.29    5.06
   4   8 -11   13.08    6.23
   4   8 -10  232.24   19.99
  -4  -8 -10  195.48   18.40
  -4   8 -10  223.01   19.37
  -4   8  -9   47.14    8.09
  -4  -8  -9   51.24    9.88
   4   8  -9   29.84    8.24
   4   8  -8   16.55    7.86
  -4   8  -8   11.19    4.28
  -4  -8  -8   14.56    6.24
   4   8  -7  165.04   16.96
  -4   8  -7  141.76   15.10
  -4  -8  -7  125.14   14.67
   4   8  -6  234.81   19.83
  -4   8  -6  261.15   20.82
  -4  -8  -6  228.76   19.40
   4   8  -5   71.91   11.31
  -4  -8  -5   50.15    9.38
  -4   8  -5   53.08   10.01
  -4   8  -4   22.18    6.00
   4   8  -4   15.80    5.23
  -4  -8  -4   34.80    7.97
  -4   8  -3   14.82    5.07
   4   8  -3   15.19    5.90
  -4  -8  -3   17.43    5.20
  -4  -8  -2    3.28    2.21
  -4   8  -2   18.95    5.82
   4   8  -2   18.13    5.56
  -4   8  -1  237.12   19.32
   4   8  -1  225.50   18.69
  -4  -8   0  280.14   21.46
  -4   8   0  293.51   21.55
   4   8   0  244.24   19.78
  -4  -8   1  200.75   18.00
  -4   8   1  210.52   18.21
   4   8   1  199.16   17.69
  -4   8   2   13.78    5.33
   4   8   2   13.80    4.75
  -4  -8   2   18.84    5.39
  -4   8   3   16.43    5.50
   4   8   3   14.50    5.91
  -4  -8   3   16.72    5.25
  -4   8   4   26.48    6.59
  -4  -8   4   29.74    5.94
   4   8   4   27.01    6.74
   4   8   5   54.89    9.68
  -4  -8   5   67.06   10.52
  -4   8   5   53.15    9.34
   4   8   6  225.15   19.30
  -4  -8   6  210.90   19.01
   4   8   7  121.25   13.96
  -4  -8   7  124.27   15.01
  -4  -8   8    9.22    4.78
   4   8   8   19.13    6.13
  -4  -8   9   34.32    8.32
   4   8   9   26.71    6.83
  -4  -8  10  234.95   20.60
  -4  -8  11   10.34    4.02
  -4  -8  12    6.41    4.48
  -4  -8  13   38.44    8.84
  -4  -8  14    4.98    3.22
  -4  -8  15    0.59    3.39
  -4  -8  16   37.47    9.78
  -4  -8  17    0.18    2.45
  -4   9 -18    0.61    3.32
   4   9 -18    8.14    5.41
   4   9 -17   10.62    3.17
  -4   9 -17   15.39    7.58
   4   9 -16    3.68    4.21
  -4   9 -16   -3.53    3.71
  -4   9 -15   14.52    5.99
   4   9 -15   10.67    6.62
  -4   9 -14   15.14    6.25
   4   9 -14    2.36    4.96
   4   9 -13   38.43    8.97
  -4   9 -13   30.20    7.96
   4   9 -12   47.85    9.91
  -4   9 -12   61.78   11.16
   4   9 -11    0.70    4.48
  -4   9 -11    2.94    2.74
  -4   9 -10    2.04    3.71
   4   9 -10    1.87    4.03
  -4  -9 -10    4.72    5.33
  -4   9  -9   24.19    7.79
   4   9  -9   27.09    7.41
  -4  -9  -9   33.97    9.24
   4   9  -8   57.78    9.82
  -4  -9  -8   39.40    7.90
  -4   9  -8   56.93   10.10
   4   9  -7   38.72    9.28
  -4   9  -7   42.57    8.73
  -4  -9  -7   26.69    7.49
  -4  -9  -6    2.48    2.61
   4   9  -6    7.12    4.30
  -4   9  -6    5.66    3.71
  -4  -9  -5    6.67    3.48
   4   9  -5   11.30    6.26
  -4   9  -5    3.68    2.12
  -4  -9  -4   33.31    7.99
   4   9  -4   33.50    8.13
  -4   9  -4   20.65    6.75
   4   9  -3   23.94    7.21
  -4  -9  -3   28.24    8.06
  -4   9  -3   32.94    7.22
   4   9  -2    2.71    3.85
  -4   9  -2    6.69    3.68
  -4  -9  -2    4.85    5.00
  -4   9  -1   31.48    6.76
   4   9  -1   30.18    8.44
  -4  -9  -1   33.17    7.74
   4   9   0  167.01   16.70
  -4  -9   0  126.89   15.06
  -4   9   0  142.85   15.52
   4   9   1   31.86    7.48
  -4  -9   1   29.77    8.01
  -4   9   1   21.29    7.14
   4   9   2    2.03    2.52
  -4  -9   2    4.48    4.63
  -4   9   2   -1.48    3.03
  -4  -9   3   12.41    5.72
   4   9   3   23.99    6.60
  -4   9   3   18.00    6.24
   4   9   4   22.47    5.82
  -4   9   4   13.64    6.00
  -4  -9   4   25.93    6.66
   4   9   5    2.86    2.65
  -4  -9   5   -2.10    3.91
   4   9   6    8.77    4.20
  -4  -9   6    4.30    3.82
  -4  -9   7   33.50    7.38
   4   9   7   34.51    7.65
  -4  -9   8   33.08    7.88
  -4  -9   9   31.68    8.06
  -4  -9  10   -3.05    4.00
  -4  -9  11    7.55    4.84
  -4  -9  12   50.42   10.11
  -4  -9  13   25.33    7.91
  -4  -9  14   10.90    5.74
  -4  -9  15    7.96    4.51
  -4  -9  16    9.62    4.35
   4  10 -15    7.12    4.33
  -4  10 -15   26.10    8.18
  -4  10 -14    4.52    3.95
   4  10 -14   11.63    6.56
  -4  10 -13   17.04    5.92
   4  10 -13   14.59    6.84
  -4  10 -12   10.55    4.40
   4  10 -12    9.17    4.95
  -4  10 -11   48.39    9.34
   4  10 -11   42.01    9.39
  -4  10 -10   52.56    9.51
   4  10 -10   52.94   10.40
   4  10  -9   99.62   15.33
  -4  10  -9  112.70   15.29
  -4  10  -8   24.77    6.52
   4  10  -8   40.16    9.38
  -4 -10  -8   19.91    6.70
   4  10  -7   17.18    4.59
  -4  10  -7   23.43    6.78
  -4 -10  -7   25.37    7.55
  -4 -10  -6   42.56    9.89
  -4  10  -6   48.71    9.53
   4  10  -6   36.88    8.45
  -4  10  -5   63.36   11.34
   4  10  -5   78.75   11.82
  -4 -10  -5   48.84   10.17
   4  10  -4   42.79    9.34
  -4  10  -4   32.39    7.42
  -4 -10  -4   30.15    7.80
   4  10  -3   21.69    7.58
  -4  10  -3   20.31    7.21
  -4 -10  -3   15.12    6.66
   4  10  -2   10.11    6.04
  -4 -10  -2   12.62    5.13
  -4  10  -2   19.63    6.48
   4  10  -1   15.83    6.17
  -4  10  -1   14.23    4.36
  -4 -10  -1   30.01    8.94
  -4 -10   0   92.36   13.37
   4  10   0   98.00   13.39
  -4  10   0   98.69   13.86
   4  10   1   30.18    8.85
  -4  10   1   30.21    8.21
  -4 -10   1   19.61    6.83
   4  10   2   -0.78    3.01
  -4  10   2    4.67    4.17
  -4 -10   2    4.56    6.84
  -4  10   3    4.23    5.69
  -4 -10   3    2.45    3.07
   4  10   4   62.01   11.66
  -4 -10   4   49.17   10.53
  -4 -10   5   57.15   11.13
   4  10   5   64.29   12.14
  -4 -10   6   60.38   10.54
  -4 -10   7   24.49    6.85
  -4 -10   8   18.43    6.98
  -4 -10   9  110.05   15.36
  -4 -10  10   67.85   11.41
  -4 -10  11   43.52    9.84
  -4 -10  12   -2.89    2.68
  -4 -10  13   20.56    6.27
  -4 -10  14   13.92    7.02
  -4  11  -8   12.19    5.76
   4  11  -8   12.37    5.35
  -4  11  -7   45.71    9.27
   4  11  -7   22.92    7.30
  -4  11  -6   25.24    7.94
   4  11  -6   28.63    7.18
  -4 -11  -6   16.99    6.03
  -4  11  -5    5.93    4.10
   4  11  -5   -1.83    3.20
  -4 -11  -5   -1.17    4.37
  -4  11  -4    0.44    3.56
   4  11  -4   -0.56    3.96
  -4 -11  -4    2.67    4.17
   4  11  -3    2.60    2.82
  -4  11  -3    3.86    4.55
  -4 -11  -3    3.51    5.04
  -4  11  -2   -6.42    5.31
  -4 -11  -2    6.46    5.20
   4  11  -2    1.95    3.63
  -4  11  -1   17.23    6.96
   4  11  -1   25.80    5.98
  -4 -11  -1   37.91    8.80
  -4  11   0   14.88    5.03
   4  11   0   28.90    8.52
  -4 -11   0   16.76    6.55
  -4  11   1   29.85    8.78
   4  11   1   35.76    9.86
  -4 -11   1   32.25    8.48
   4  11   2    5.24    5.32
  -4 -11   2   -0.66    5.16
  -4 -11   3   12.22    6.01
  -4 -11   4    5.65    3.09
  -4 -11   5    8.27    4.16
  -4 -11   6   11.38    4.50
  -4 -11   7   35.08   10.00
  -4 -11   8   21.03    7.68
  -5   0 -22   -1.54    4.48
  -5   0 -21    0.12    2.16
  -5   0 -20   -0.40    3.34
  -5   0 -19    1.11    1.67
  -5   0 -18   -0.43    2.28
  -5   0 -17    1.92    3.18
  -5   0 -16    2.35    1.93
  -5   0 -15    1.85    2.27
  -5   0 -14   -0.52    1.51
  -5   0 -13    0.62    1.52
  -5   0 -12    0.11    1.41
  -5   0 -11   -0.05    1.27
  -5   0 -10    0.66    2.58
  -5   0  -9    1.15    1.76
  -5   0  -8    0.78    1.86
  -5   0  -7    0.40    1.55
  -5   0  -6    1.15    1.69
  -5   0  -5   -0.58    1.15
  -5   0  -4    1.23    1.89
  -5   0  -3   -0.27    0.69
  -5   0  -2   -0.52    0.75
  -5   0  -1   -0.34    0.62
  -5   0   0   -0.42    1.36
  -5   0   1    0.16    0.64
  -5   0   2   -0.39    0.84
  -5   0   3    1.17    1.35
  -5   0   4   -0.06    1.41
  -5   0   5   -0.08    0.69
  -5   0   6    0.02    1.54
  -5   0   7    0.71    0.97
  -5   0   8    0.14    0.73
  -5   0   9    0.70    1.19
  -5   0  10    0.48    1.02
  -5   0  11   -0.16    1.11
  -5   0  12   -0.21    0.80
  -5   0  13    0.49    0.90
  -5   0  14    1.56    1.82
  -5   1 -23   11.66    5.14
  -5   1 -22   43.60    7.54
  -5   1 -21   63.19    9.95
  -5  -1 -20    3.34    3.00
  -5   1 -20    0.67    2.57
  -5   1 -19   52.57    8.36
  -5  -1 -19   45.42    7.46
  -5   1 -18   58.73    8.67
  -5  -1 -18   64.43    8.87
  -5   1 -17   67.08    9.22
  -5  -1 -17   81.67    9.97
  -5   1 -16  950.44   32.78
  -5  -1 -16  897.62   30.40
  -5   1 -15  439.64   21.96
  -5  -1 -15  435.97   20.68
  -5   1 -14  338.76   19.03
  -5  -1 -14  274.82   16.08
  -5   1 -13  122.94   10.85
  -5  -1 -13  140.36   11.42
  -5   1 -12  233.05   14.94
  -5  -1 -12  244.16   14.45
  -5   1 -11  314.62   17.04
  -5  -1 -11  311.18   16.17
  -5   1 -10  799.26   26.70
  -5  -1 -10  765.87   24.72
  -5   1  -9   31.80    5.05
  -5  -1  -9   28.56    4.79
  -5  -1  -8   41.83    5.71
  -5   1  -8   42.88    6.15
  -5  -1  -7   15.61    3.63
  -5   1  -7   24.29    4.30
  -5  -1  -6 1643.85   33.82
  -5   1  -6 1651.36   34.95
  -5   1  -5  497.17   18.73
  -5  -1  -5  510.22   18.81
  -5   1  -4 2809.51   43.23
  -5  -1  -4 2685.08   42.50
  -5  -1  -3  336.48   14.89
  -5   1  -3  348.39   14.93
  -5   1  -2   33.31    4.51
  -5  -1  -2   32.49    4.57
  -5   1  -1   62.24    6.02
  -5  -1  -1   61.37    6.41
  -5   1   0   60.47    5.94
  -5  -1   0   48.23    5.66
  -5   1   1   66.76    6.01
  -5  -1   1   65.35    6.24
  -5  -1   2   40.25    4.94
  -5   1   2   37.51    4.35
  -5  -1   3  337.13   14.54
  -5   1   3  342.40   12.88
  -5  -1   4 2740.83   41.74
  -5   1   4 2580.98   36.42
  -5   1   5  454.90   14.17
  -5  -1   5  454.90   16.93
  -5  -1   6 1626.52   32.07
  -5   1   6 1717.44   26.89
  -5  -1   7   17.26    3.49
  -5   1   7   11.83    2.59
  -5   1   8   45.07    4.23
  -5  -1   8   35.74    4.88
  -5   1   9   40.14    3.74
  -5  -1   9   40.06    5.38
  -5   1  10  785.77   16.62
  -5  -1  10  801.46   23.71
  -5  -1  11  302.27   14.67
  -5   1  11  274.15    9.64
  -5   1  12  213.26    8.32
  -5  -1  12  232.44   13.16
  -5   1  13   -1.93    0.74
  -5  -1  13  132.51   10.00
  -5  -1  14  313.02   15.54
  -5  -1  15  460.94   19.76
  -5  -1  16  774.79   26.26
  -5   2 -24   20.53    6.75
  -5   2 -23   73.64   10.75
  -5   2 -22   37.71    8.16
  -5   2 -21    5.81    4.67
  -5   2 -20   25.46    6.65
  -5   2 -19  268.12   19.34
  -5  -2 -19  238.58   17.43
  -5  -2 -18   33.04    5.93
  -5   2 -18   56.91    8.73
  -5   2 -17   61.18    9.04
  -5  -2 -17   57.90    7.93
  -5   2 -16  117.84   12.08
  -5  -2 -16  128.64   11.82
  -5   2 -15 1022.65   34.61
  -5  -2 -15 1098.57   33.76
  -5  -2 -14  191.79   13.83
  -5   2 -14  199.22   14.79
  -5  -2 -13  564.29   23.11
  -5   2 -13  572.63   24.58
  -5   2 -12    9.71    3.92
  -5  -2 -12   14.59    3.93
  -5   2 -11  129.87   11.44
  -5  -2 -11  121.32   10.17
  -5   2 -10    3.54    2.40
  -5  -2 -10    1.31    1.16
  -5   2  -9   18.15    4.11
  -5  -2  -9   14.46    3.42
  -5  -2  -8  135.53   10.70
  -5   2  -8  157.57   11.69
  -5   2  -7  844.14   26.68
  -5  -2  -7  852.24   25.79
  -5  -2  -6  525.68   19.84
  -5   2  -6  495.31   19.95
  -5  -2  -5  164.58   10.97
  -5   2  -5  156.44   11.01
  -5  -2  -4   79.65    7.73
  -5   2  -4   83.54    7.92
  -5  -2  -3  415.95   17.25
  -5   2  -3  449.97   17.68
  -5  -2  -2  198.19   12.05
  -5   2  -2  204.57   11.72
  -5  -2  -1   84.44    7.85
  -5   2   0  586.39   19.19
  -5  -2   0  585.56   20.79
  -5   2   1   84.74    7.12
  -5  -2   1   90.60    8.18
  -5  -2   2  205.24   12.35
  -5   2   2  198.45   10.62
  -5   2   3  417.51   14.84
  -5  -2   3   21.41    5.57
  -5  -2   4   76.62    7.81
  -5   2   4   86.44    6.68
  -5   2   5  143.34    8.36
  -5  -2   5  154.11   10.95
  -5  -2   6  436.12   18.82
  -5   2   6  521.20   15.06
  -5  -2   7  798.77   25.70
  -5   2   7  865.01   18.38
  -5   2   8  142.74    7.06
  -5  -2   8  137.69   10.68
  -5  -2   9   13.44    3.69
  -5   2   9   20.51    2.56
  -5   2  10    5.11    1.41
  -5  -2  10    3.95    2.50
  -5  -2  11  109.37   10.10
   5   2  11  108.20    5.78
  -5  -2  12   15.24    3.81
  -5  -2  13  593.83   23.99
  -5  -2  14  169.71   13.15
  -5  -2  15 1166.27   35.18
  -5  -2  16  125.50   11.68
  -5  -2  17   66.39    8.67
  -5  -2  18   -5.80    2.60
  -5   3 -25  190.04   19.30
  -5   3 -24   29.59    7.46
  -5   3 -23    6.87    3.56
  -5   3 -22  254.83   20.71
  -5   3 -21  239.56   19.39
  -5   3 -20  131.64   14.00
  -5   3 -19  241.52   18.89
  -5  -3 -18   34.21    7.26
  -5   3 -18   53.27    8.98
  -5  -3 -17   25.39    5.48
  -5   3 -17   26.76    6.34
  -5  -3 -16  249.84   16.16
  -5   3 -16  197.68   15.82
  -5  -3 -15  832.31   29.41
  -5   3 -15  802.78   31.63
  -5  -3 -14  149.52   12.24
  -5   3 -14  159.57   13.81
  -5  -3 -13   36.66    5.88
  -5   3 -13   38.52    6.95
  -5  -3 -12   78.04    8.72
  -5   3 -12   77.13    9.78
  -5  -3 -11  165.54   12.37
  -5   3 -11  185.07   14.08
  -5  -3 -10  298.92   16.64
  -5  -3  -9   64.52    7.31
  -5   3  -9   77.46    8.87
  -5   3  -8   23.76    5.08
  -5  -3  -8   27.45    5.21
  -5  -3  -7  160.61   11.76
  -5   3  -7  189.84   13.37
  -5   3  -6  914.62   28.79
  -5  -3  -6  912.64   27.97
  -5   3  -5  677.26   24.44
  -5  -3  -5  726.03   25.25
  -5   3  -4  347.31   17.10
  -5  -3  -4  357.14   17.68
  -5  -3  -3  210.48   13.74
  -5   3  -3  237.56   13.99
  -5  -3  -2  547.14   21.85
  -5  -3  -1 1745.50   39.42
  -5   3  -1 1902.81   37.91
  -5  -3   0 1405.79   35.45
  -5   3   0 1507.36   32.80
  -5  -3   1 1857.35   40.22
  -5   3   1 1890.09   35.92
  -5  -3   2  539.87   21.79
  -5   3   2  518.35   18.28
  -5  -3   3  233.61   14.35
  -5   3   3  235.96   12.11
  -5   3   4  311.06   13.93
  -5  -3   4  325.40   17.06
  -5   3   5  731.25   20.38
  -5  -3   5  710.76   25.83
  -5   3   6  850.35   21.42
  -5  -3   6  863.44   28.85
  -5   3   7  191.03    9.55
  -5  -3   7  198.79   13.86
  -5   3   8   26.02    3.46
  -5  -3   8   28.47    5.27
  -5  -3   9   88.84    9.42
  -5   3   9   80.05    5.40
   5   3  10  338.97   13.64
  -5  -3  10  356.61   19.50
  -5   3  10  348.86   10.08
   5   3  11  173.95    9.50
  -5  -3  11  181.20   14.30
  -5  -3  12   86.71    9.85
  -5  -3  13   36.03    6.75
  -5  -3  14  134.14   12.74
  -5  -3  15  815.25   31.83
  -5  -3  16  257.13   18.49
  -5  -3  17   23.41    6.36
  -5  -3  18   32.07    7.47
  -5  -3  19  218.05   17.96
  -5   4 -26   -3.90    4.65
  -5   4 -25   28.14    7.34
  -5   4 -24   91.01   13.06
  -5   4 -23   29.15    7.25
  -5   4 -22   23.65    5.94
  -5   4 -21   30.90    8.16
  -5   4 -20  129.91   14.33
  -5   4 -19   18.89    6.27
  -5   4 -18   21.75    5.93
  -5   4 -17  390.63   23.75
  -5  -4 -17  415.51   22.89
  -5  -4 -16  157.63   14.22
  -5   4 -16  174.45   15.61
  -5  -4 -15   80.97    9.90
  -5   4 -15   94.10   11.27
  -5   4 -14   35.20    7.25
  -5  -4 -14   29.01    6.05
  -5   4 -13  162.48   14.49
  -5  -4 -13  175.14   13.80
  -5   4 -12  277.86   18.52
  -5  -4 -12  282.66   17.26
  -5   4 -11   71.77    9.50
  -5  -4 -11   73.77    8.66
  -5   4 -10   25.99    5.32
  -5  -4 -10   24.59    4.97
  -5   4  -9  178.00   14.26
  -5  -4  -9  194.88   14.21
  -5  -4  -8   26.99    5.84
  -5   4  -8   34.65    6.42
  -5  -4  -7   84.86    9.52
  -5   4  -7  110.70   11.17
  -5   4  -6  323.89   18.29
  -5  -4  -6  336.98   18.54
  -5  -4  -5  112.28   10.72
  -5   4  -5  100.96   10.31
  -5  -4  -4  174.30   13.19
  -5   4  -4  168.49   12.84
  -5  -4  -3    7.05    3.52
  -5   4  -3    9.28    3.32
  -5   4  -2   42.45    6.31
  -5  -4  -2   36.19    5.84
  -5  -4  -1    0.79    1.56
  -5   4  -1    3.69    2.15
  -5  -4   0  146.90   12.39
  -5   4   0  140.28   11.01
  -5  -4   1    2.98    3.28
  -5   4   1    6.33    2.84
  -5   4   2   41.55    5.64
  -5  -4   2   52.91    7.14
  -5  -4   3    8.03    2.88
  -5   4   3    8.49    2.54
  -5   4   4  168.69   11.14
  -5  -4   4  180.68   13.96
  -5  -4   5   73.22    9.02
  -5   4   5   90.34    7.93
  -5   4   6  316.70   14.49
  -5  -4   6  335.37   19.46
   5   4   7  112.17    9.23
  -5   4   7  101.05    8.01
  -5  -4   7  110.16   11.27
  -5   4   8   30.67    4.31
   5   4   8   31.74    5.28
  -5  -4   8   39.48    6.82
   5   4   9  202.49   12.46
  -5   4   9  192.73   10.18
  -5  -4   9  176.39   14.57
   5   4  10   29.55    4.89
  -5  -4  10   26.80    6.54
   5   4  11   57.26    6.72
  -5  -4  11   56.24    8.20
  -5  -4  12  253.26   17.83
  -5  -4  13  185.87   15.65
  -5  -4  14   21.93    6.08
  -5  -4  15   81.50   11.02
  -5  -4  16  164.65   15.41
  -5  -4  17  430.28   25.14
  -5  -4  18   14.15    5.47
  -5  -4  19    7.63    4.63
  -5  -4  20  109.81   13.41
  -5   5 -27    3.00    5.70
  -5   5 -26   16.17    7.63
  -5   5 -25   17.89    4.61
  -5   5 -24  101.25   14.35
  -5   5 -23   21.25    7.18
   5   5 -23   23.70   10.03
  -5   5 -22   23.42    7.44
   5   5 -22   20.45    7.17
  -5   5 -21   76.07   11.56
   5   5 -21   61.10   10.03
  -5   5 -20  189.93   17.66
  -5   5 -19   19.38    6.36
  -5   5 -18   15.85    5.08
  -5   5 -17   91.73   12.06
  -5   5 -16   -0.81    1.77
  -5  -5 -15  214.33   16.42
  -5   5 -15  194.20   17.15
  -5  -5 -14   95.05   10.97
  -5   5 -14  105.58   12.34
  -5  -5 -13    6.34    3.06
  -5   5 -13    5.09    3.38
  -5  -5 -12   32.93    6.48
  -5   5 -12   28.30    6.41
  -5  -5 -11  233.31   16.64
  -5   5 -11  238.44   18.04
  -5  -5 -10   80.41    9.75
  -5   5 -10   65.74    9.22
  -5  -5  -9  186.77   14.77
  -5   5  -9  145.61   13.62
  -5  -5  -8   33.96    6.49
  -5   5  -8   35.51    6.93
  -5  -5  -7   39.71    6.84
  -5   5  -7   42.06    6.66
  -5   5  -6  515.37   24.38
  -5  -5  -6  545.83   24.97
  -5   5  -5  239.65   16.50
  -5  -5  -5  271.88   17.73
  -5   5  -4   27.60    5.39
  -5  -5  -4   17.37    4.79
  -5   5  -3   49.37    7.62
  -5  -5  -3   61.77    8.44
  -5   5  -2   37.43    6.33
  -5  -5  -2   37.21    6.74
  -5   5  -1   73.23    8.69
  -5  -5  -1   75.14    9.62
  -5   5   0  281.39   16.86
  -5  -5   0  284.53   18.19
  -5   5   1   79.46    8.99
  -5  -5   1   69.40    9.70
  -5  -5   2   38.98    6.89
  -5   5   2   44.62    6.42
  -5   5   3   48.84    6.72
   5   5   3   56.33    7.94
  -5  -5   3   43.56    8.06
  -5  -5   4   14.43    4.38
   5   5   4   21.10    5.22
  -5   5   4   21.13    4.45
  -5   5   5  266.80   15.43
   5   5   5  265.39   16.45
  -5  -5   5  241.58   17.27
  -5   5   6  505.36   20.72
   5   5   6  492.30   22.77
  -5  -5   6  544.51   26.16
   5   5   7   34.57    5.75
  -5  -5   7   38.92    7.24
  -5   5   7   42.09    5.71
   5   5   8   40.08    6.29
  -5   5   8   25.03    4.51
  -5  -5   8   38.46    7.23
   5   5   9  163.10   12.64
  -5  -5   9  157.47   14.56
   5   5  10   87.10    9.38
  -5  -5  10   76.07   10.42
   5   5  11  242.28   15.25
  -5  -5  11  254.20   19.06
  -5  -5  12   30.72    7.14
  -5  -5  13   13.69    6.06
  -5  -5  14  115.36   12.98
  -5  -5  15  188.23   17.77
  -5  -5  16    0.06    3.52
  -5  -5  17  110.84   14.04
  -5  -5  18   14.91    5.04
  -5  -5  19   16.70    6.17
  -5  -5  20  181.49   18.00
  -5   6 -25    9.37    5.29
  -5   6 -24   19.50    7.45
   5   6 -23   -3.45    5.35
  -5   6 -23   -0.39    2.98
   5   6 -22    7.17    5.52
  -5   6 -22   21.39    7.35
   5   6 -21   10.19    4.24
  -5   6 -21    0.68    3.76
   5   6 -20    1.51    3.04
  -5   6 -20    6.99    4.21
  -5   6 -19    2.85    4.14
   5   6 -19   -0.27    2.71
  -5   6 -18   13.64    5.60
   5   6 -18    4.32    3.64
  -5   6 -17   25.22    6.16
   5   6 -17   29.42    6.94
   5   6 -16   34.25    9.89
  -5   6 -16   40.86    8.43
  -5   6 -15   62.48   10.40
   5   6 -15   49.34    8.96
  -5  -6 -14   11.26    5.47
  -5   6 -14   16.35    4.48
   5   6 -14   20.44    6.75
  -5  -6 -13   33.18    7.26
  -5   6 -13   21.82    5.67
  -5   6 -12  139.05   14.44
  -5  -6 -11   19.89    5.44
  -5   6 -11   16.42    5.69
  -5  -6 -10   16.41    5.22
  -5   6 -10   11.94    4.73
  -5   6  -9   55.97    8.62
  -5  -6  -9   63.56    9.29
  -5   6  -8   62.77    9.36
  -5  -6  -8   57.93    8.96
  -5   6  -7  151.81   14.08
  -5  -6  -7  154.13   14.54
  -5  -6  -6    4.18    2.46
  -5   6  -6    7.56    3.93
  -5  -6  -5   20.83    5.01
  -5   6  -5   24.83    5.47
  -5  -6  -4  176.99   15.65
  -5   6  -4  200.63   16.03
  -5  -6  -3   34.71    6.58
   5   6  -3   45.59    7.68
  -5   6  -3   38.28    7.04
   5   6  -2  105.41   11.68
  -5   6  -2  110.97   11.81
  -5  -6  -2   96.47   11.22
  -5   6  -1  104.47   11.15
   5   6  -1  143.08   13.74
  -5  -6  -1  116.89   12.52
   5   6   0  128.47   12.87
  -5  -6   0   99.65   11.76
  -5   6   0  114.54   11.95
   5   6   1  151.97   13.80
  -5   6   1  116.00   11.36
  -5  -6   1  130.39   13.30
   5   6   2  101.02   11.78
  -5   6   2   97.66   10.70
  -5  -6   2  101.44   11.84
  -5  -6   3   45.72    7.90
   5   6   3   38.50    7.19
   5   6   4  219.38   16.63
  -5   6   4  217.78   15.25
  -5  -6   4  186.54   16.41
   5   6   5   30.03    6.38
  -5  -6   5   32.23    7.14
  -5   6   5   14.96    3.79
   5   6   6   14.45    4.59
  -5   6   6    8.33    3.51
  -5  -6   6   13.56    4.05
  -5   6   7  157.08   12.72
  -5  -6   7  176.93   16.08
   5   6   7  192.16   15.00
  -5  -6   8   57.27    9.99
   5   6   8   52.85    8.67
   5   6   9   57.01    8.52
  -5  -6   9   55.94    9.39
  -5  -6  10   16.27    5.83
   5   6  10   11.70    4.30
  -5  -6  11   11.08    4.97
  -5  -6  12  154.37   15.89
  -5  -6  13   21.58    5.25
  -5  -6  14   12.79    5.93
  -5  -6  15   68.23   10.97
  -5  -6  16   59.14   10.24
  -5  -6  17   33.91    7.98
  -5  -6  18    7.45    3.81
  -5  -6  19    0.25    2.26
  -5  -6  20   -0.81    2.52
   5   7 -23    0.68    3.46
  -5   7 -23    1.71    5.66
   5   7 -22   14.14    6.84
  -5   7 -22   36.29    9.02
  -5   7 -21   72.37   12.45
   5   7 -21   67.82   12.86
  -5   7 -20   40.47    9.17
   5   7 -20   36.70    9.03
  -5   7 -19   80.65   12.43
   5   7 -19   65.67   12.24
  -5   7 -18   79.75   11.76
   5   7 -18   79.13   12.46
  -5   7 -17   71.34   11.53
   5   7 -17   74.13   12.05
  -5   7 -16  112.43   13.96
   5   7 -16  112.55   14.53
  -5   7 -15    2.00    3.37
   5   7 -15   13.67    6.54
   5   7 -14   24.10    9.20
  -5   7 -14   49.68    8.95
  -5  -7 -13   35.10    7.91
   5   7 -13   41.55    9.12
  -5   7 -13   61.91   10.62
  -5  -7 -12   41.97    8.26
   5   7 -12   41.94    7.89
  -5   7 -12   46.06    8.82
  -5   7 -11  172.53   17.09
   5   7 -11  170.80   16.23
  -5  -7 -11  183.67   16.91
  -5   7 -10  231.61   18.90
  -5  -7 -10  248.56   19.86
   5   7 -10  279.32   20.67
  -5   7  -9  153.03   15.27
  -5  -7  -9  137.41   14.38
   5   7  -8  175.88   16.29
  -5  -7  -8  131.00   15.00
  -5   7  -8  152.15   15.21
  -5   7  -7  194.38   16.60
   5   7  -7  156.36   15.51
  -5  -7  -7  147.86   15.32
   5   7  -6   72.83   10.37
  -5   7  -6   66.54    9.74
  -5  -7  -6   98.72   12.22
  -5  -7  -5  157.58   15.29
   5   7  -5  162.85   16.25
  -5   7  -5  167.20   15.54
   5   7  -4   68.00    9.93
  -5  -7  -4   58.77    9.37
  -5   7  -4   63.69    9.41
  -5  -7  -3    7.10    3.87
  -5   7  -3    4.78    1.85
   5   7  -3    5.41    3.71
  -5  -7  -2   45.48    8.56
   5   7  -2   39.70    8.62
  -5   7  -2   49.79    7.95
   5   7  -1  139.50   13.75
  -5   7  -1  146.38   14.06
  -5  -7  -1  139.66   14.34
  -5   7   0   36.11    7.00
   5   7   0   31.98    7.37
  -5  -7   0   26.17    7.03
   5   7   1  138.44   13.84
  -5   7   1  144.76   13.63
  -5  -7   1  110.13   12.99
  -5   7   2   45.81    8.03
   5   7   2   45.98    8.28
  -5  -7   2   40.67    7.62
  -5   7   3    0.94    3.19
   5   7   3    7.14    4.37
  -5  -7   3    1.12    1.96
  -5   7   4   53.17    8.74
   5   7   4   47.06    8.23
  -5  -7   4   67.66   10.41
   5   7   5  186.83   15.85
  -5   7   5  163.25   14.43
  -5  -7   5  167.32   16.57
  -5   7   6   82.82    9.92
  -5  -7   6   81.24   11.83
   5   7   6   79.12   10.55
   5   7   7  179.42   15.62
  -5  -7   7  177.19   17.16
  -5  -7   8  166.44   16.33
   5   7   8  148.97   14.67
   5   7   9  124.46   13.26
  -5  -7   9  140.80   14.96
   5   7  10  220.58   17.77
  -5  -7  10  229.01   19.89
  -5  -7  11  166.68   17.23
  -5  -7  12   49.61    9.88
  -5  -7  13   40.34    8.48
  -5  -7  14   62.38   10.87
  -5  -7  15    5.40    3.74
  -5  -7  16  107.55   14.77
  -5  -7  17   94.01   13.48
  -5  -7  18   73.31   11.78
  -5  -7  19   81.38   12.68
  -5   8 -21    3.77    4.67
   5   8 -21   -0.02    5.11
  -5   8 -20    3.22    4.03
   5   8 -20   14.94    5.07
  -5   8 -19   -1.80    3.23
   5   8 -19    4.78    6.33
  -5   8 -18    1.63    3.67
   5   8 -18    5.56    3.91
   5   8 -17   18.54    6.55
  -5   8 -17   12.08    5.13
  -5   8 -16   10.52    4.91
   5   8 -16   12.92    6.90
   5   8 -15   52.32   10.32
  -5   8 -15   41.95    8.94
  -5   8 -14    5.72    5.16
   5   8 -14    9.23    6.05
   5   8 -13    3.73    3.03
  -5   8 -13   -1.98    2.41
   5   8 -12   13.98    3.58
  -5   8 -12   21.15    5.88
  -5   8 -11    2.49    3.35
  -5  -8 -11    0.83    2.56
   5   8 -11    6.15    4.64
  -5   8 -10   16.37    6.56
  -5  -8 -10   10.73    3.91
   5   8 -10    5.99    4.97
   5   8  -9   -5.28    2.86
  -5  -8  -9   -0.48    2.89
   5   8  -8   52.60    9.31
  -5   8  -8   39.68    8.28
  -5  -8  -8   28.01    7.20
  -5   8  -7   32.70    7.50
   5   8  -7   33.96    8.00
  -5  -8  -7   37.81    8.15
   5   8  -6   75.18   11.09
  -5   8  -6   61.79   10.60
  -5  -8  -6   73.59   11.90
   5   8  -5    2.70    4.16
  -5   8  -5    1.48    2.66
  -5  -8  -5    0.31    3.00
   5   8  -4   30.94    6.97
  -5   8  -4   47.62    8.82
  -5  -8  -4   36.26    8.25
   5   8  -3   16.99    6.06
  -5   8  -3   12.76    4.86
  -5  -8  -3   12.57    4.78
  -5   8  -2   20.72    5.79
   5   8  -2   19.90    5.50
  -5  -8  -2   30.01    8.22
  -5  -8  -1    7.44    4.89
  -5   8  -1    4.99    2.40
   5   8  -1    4.34    2.67
  -5   8   0  162.89   15.61
  -5  -8   0  171.60   16.23
  -5   8   1    6.26    4.01
   5   8   1    1.52    2.76
  -5   8   2   24.65    6.01
   5   8   2   13.67    4.32
  -5  -8   2   18.06    5.16
  -5   8   3   22.53    6.41
   5   8   3   11.02    5.04
  -5  -8   3   12.68    5.58
  -5   8   4   31.97    7.27
   5   8   4   43.03    8.80
  -5  -8   4   33.01    8.05
  -5   8   5   -0.01    2.23
   5   8   5    3.59    4.43
  -5  -8   5   -0.45    2.40
   5   8   6   74.72   10.85
  -5  -8   6   75.49   12.18
  -5  -8   7   36.16    8.68
   5   8   7   42.68    9.11
   5   8   8   34.61    7.00
  -5  -8   8   36.59    8.49
   5   8   9   -6.07    4.39
  -5  -8   9   -0.67    2.17
  -5  -8  10   25.19    8.01
  -5  -8  11    5.92    4.25
  -5  -8  12   36.19    9.08
  -5  -8  13    8.32    4.43
  -5  -8  14   12.50    5.66
  -5  -8  15   67.35   12.09
  -5  -8  16   16.84    7.02
  -5  -8  17   23.23    6.81
  -5  -8  18   10.89    4.39
  -5  -8  19    2.90    4.01
   5   9 -18   48.64   10.12
  -5   9 -18   34.28    9.56
   5   9 -17   52.50   10.92
  -5   9 -17   47.59   10.45
  -5   9 -16   93.22   12.68
   5   9 -16   97.93   14.04
   5   9 -15   25.19    8.67
  -5   9 -15   20.16    5.52
   5   9 -14   12.15    4.85
  -5   9 -14   11.80    5.82
  -5   9 -13   28.63    7.60
   5   9 -13   27.56    8.39
  -5   9 -12   74.14   12.37
   5   9 -12   61.40   10.20
   5   9 -11  101.98   14.08
  -5   9 -11   63.39   10.70
   5   9 -10   84.76   11.81
  -5   9 -10   81.73   11.95
  -5  -9 -10   76.75   11.77
   5   9  -9   70.33   12.27
  -5  -9  -9   76.97   11.65
  -5   9  -9   71.04   11.12
   5   9  -8   51.77    9.32
  -5   9  -8   63.75   10.85
  -5  -9  -8   52.27   10.73
   5   9  -7  163.89   17.03
  -5   9  -7  147.94   16.01
  -5  -9  -7  142.22   16.50
  -5   9  -6   34.15    8.78
   5   9  -6   48.45    9.76
  -5  -9  -6   36.66    7.62
  -5  -9  -5  163.80   17.58
   5   9  -5  180.16   17.55
  -5   9  -5  154.69   16.59
   5   9  -4   59.11    9.86
  -5   9  -4   73.58   11.70
  -5  -9  -4   73.61   11.66
  -5   9  -3    6.21    3.62
   5   9  -3    0.33    2.26
  -5  -9  -3    1.54    3.52
  -5   9  -2   22.01    6.78
  -5  -9  -2   24.83    7.62
   5   9  -2   23.89    7.35
  -5   9  -1  195.69   17.92
   5   9  -1  215.16   18.86
  -5  -9  -1  174.08   17.57
   5   9   0   51.67   10.21
  -5  -9   0   74.10   12.25
   5   9   1  211.41   18.85
  -5   9   1  168.81   17.27
  -5  -9   1  236.29   20.62
  -5   9   2   29.33    7.41
   5   9   2   26.73    7.66
  -5  -9   2   25.74    6.95
  -5   9   3   -3.93    2.40
   5   9   3    2.31    2.36
  -5  -9   3    3.90    3.97
   5   9   4   73.08   10.95
  -5  -9   4   73.81   11.67
   5   9   5  177.61   17.55
  -5  -9   5  147.72   17.14
   5   9   6   41.12    8.81
  -5  -9   6   44.72    9.94
   5   9   7  115.95   14.64
  -5  -9   7  141.31   17.21
   5   9   8   50.79    9.92
  -5  -9   8   61.38   11.58
   5   9   9    0.02    5.27
  -5  -9   9   79.78   12.49
  -5  -9  10   97.96   13.73
  -5  -9  11   99.44   14.34
  -5  -9  12   66.27   11.21
  -5  -9  13   30.29    7.85
  -5  -9  14   12.58    5.68
  -5  -9  15   22.28    7.82
  -5  -9  16  119.92   16.67
  -5  -9  17   49.52   10.79
  -5  -9  18   47.72   10.84
   5  10 -14    6.25    6.46
  -5  10 -14   -5.07    4.16
   5  10 -13    0.94    3.64
  -5  10 -13    3.86    3.43
   5  10 -12   12.42    4.42
  -5  10 -12    7.81    4.49
  -5  10 -11   -1.33    3.27
   5  10 -11   -0.07    3.74
   5  10 -10   18.38    6.35
  -5  10 -10   47.52    9.80
  -5  10  -9    2.17    2.99
   5  10  -9   -4.44    6.06
  -5  10  -8    2.31    2.27
   5  10  -8   -1.42    4.61
  -5 -10  -8   10.63    5.27
  -5  10  -7    7.45    5.77
   5  10  -7   11.53    5.62
  -5 -10  -7    0.61    3.48
  -5  10  -6    4.57    4.37
   5  10  -6    1.71    3.21
  -5 -10  -6    1.38    4.87
  -5  10  -5   13.97    5.59
   5  10  -5   18.45    6.38
  -5 -10  -5   23.03    8.79
  -5  10  -4   -0.07    2.80
   5  10  -4   -0.36    2.40
  -5 -10  -4   -4.55    4.38
  -5  10  -3   19.29    6.09
   5  10  -3   15.08    5.68
  -5 -10  -3    3.08    5.33
  -5  10  -2   10.39    4.56
   5  10  -2   17.61    6.28
  -5 -10  -2   21.93    6.30
  -5  10  -1   28.04    7.23
  -5 -10  -1   33.65    8.65
   5  10  -1   19.95    6.97
  -5 -10   0   -0.75    2.87
  -5  10   0   -1.41    3.24
   5  10   0    2.13    4.22
  -5  10   1   23.20    7.66
  -5 -10   1   37.52    9.33
   5  10   1   36.04    7.38
  -5 -10   2   16.63    6.99
  -5  10   2    8.37    4.42
  -5 -10   3    8.59    4.54
   5  10   3    3.30    4.29
   5  10   4    2.58    2.86
  -5 -10   4   -0.69    3.22
   5  10   5   18.29    7.72
  -5 -10   5   22.11    8.13
   5  10   6    0.69    3.62
  -5 -10   6    2.30    3.55
   5  10   7    9.31    5.01
  -5 -10   7    8.23    4.80
  -5 -10   8    2.28    2.75
  -5 -10   9   -6.47    5.27
  -5 -10  10   48.58   10.53
  -5 -10  11    4.09    2.58
  -5 -10  12    6.29    4.37
  -5 -10  13    3.84    5.00
  -5 -10  14    2.99    5.07
   5  11  -7    5.82    5.51
  -5 -11  -7    0.42    6.47
  -5  11  -7    3.84    3.01
  -5  11  -6    8.44    5.48
   5  11  -6   14.35    4.34
  -5 -11  -6    9.85    5.63
  -5 -11  -5   36.67    9.33
   5  11  -5   47.53   10.88
  -5  11  -5   22.24    7.37
  -5  11  -4   13.81    5.15
  -5 -11  -4    1.34    3.67
   5  11  -4   11.82    6.60
   5  11  -3   -0.04    3.70
  -5 -11  -3    3.28    3.58
  -5  11  -3    5.13    3.90
  -5  11  -2    2.19    2.70
  -5 -11  -2   20.12    6.71
   5  11  -2   13.05    6.77
  -5 -11  -1    1.41    3.78
  -5  11  -1   -0.75    3.29
   5  11  -1    5.30    5.39
  -5  11   0   36.57    8.84
   5  11   0   43.02    9.08
  -5 -11   0   47.27   11.00
  -5 -11   1    4.15    5.38
   5  11   1    1.61    4.36
  -5 -11   2    7.79    4.30
   5  11   2   15.66    7.18
   5  11   3    7.99    5.74
  -5 -11   3    1.11    4.19
   5  11   4   10.52    5.02
  -5 -11   4    3.98    4.66
  -5 -11   5   30.74    8.41
  -5 -11   6   10.12    3.67
  -5 -11   7    4.80    3.06
  -6   0 -22  232.58   18.71
  -6   0 -21   74.61   10.57
  -6   0 -20    9.48    4.22
  -6   0 -19   62.72    9.54
  -6   0 -18   16.05    5.02
  -6   0 -17  294.48   19.09
  -6   0 -16 2328.94   54.22
  -6   0 -15  693.80   28.02
  -6   0 -14 1460.75   40.50
  -6   0 -13  297.41   17.93
  -6   0 -12  243.46   15.85
  -6   0 -11  215.53   14.63
  -6   0 -10  991.65   30.50
  -6   0  -9  649.71   25.08
  -6   0  -8  238.09   14.58
  -6   0  -7  187.09   12.58
  -6   0  -6  912.50   27.21
  -6   0  -5 2644.63   46.01
  -6   0  -4 1608.47   34.74
  -6   0  -3 1311.87   30.63
  -6   0  -2 6946.44   68.94
  -6   0  -1 2536.61   41.83
  -6   0   0  885.63   24.45
  -6   0   1 2510.81   40.87
  -6   0   2 6863.79   66.85
  -6   0   3 1293.65   28.57
  -6   0   4 1577.99   31.42
  -6   0   5 2552.76   39.53
  -6   0   6  975.30   24.61
  -6   0   7  175.02   10.37
  -6   0   8  242.75   12.27
  -6   0   9  697.57   20.59
  -6   0  10  973.98   25.15
  -6   0  11  209.20   11.49
  -6   0  12  243.68   12.64
  -6   0  13  310.58   14.70
  -6   0  14 1177.04   28.37
  -6   1 -23   96.80   13.15
  -6   1 -22   32.44    7.24
  -6  -1 -21   42.53    7.94
  -6   1 -21   59.69    9.71
  -6   1 -20  173.33   16.28
  -6  -1 -20  174.84   15.87
  -6   1 -19   72.35   10.69
  -6  -1 -19   62.50    9.15
  -6  -1 -18   25.00    5.80
  -6   1 -18   15.77    5.40
  -6   1 -17   43.34    7.91
  -6  -1 -17   45.95    7.21
  -6   1 -16   50.24    7.78
  -6  -1 -16   38.40    6.80
  -6   1 -15  180.80   14.81
  -6  -1 -15  187.00   14.33
  -6   1 -14  481.80   23.35
  -6  -1 -14  520.62   23.26
  -6   1 -13   45.15    7.13
  -6  -1 -13   38.41    6.02
  -6   1 -12  132.32   11.59
  -6  -1 -12  115.35   10.65
  -6   1 -11  148.96   12.07
  -6  -1 -11  152.53   11.89
  -6  -1 -10   10.82    3.35
  -6   1 -10    4.94    2.44
  -6   1  -9   67.45    7.85
  -6  -1  -9   92.51    9.10
  -6   1  -8   55.26    7.05
  -6  -1  -8   58.20    7.24
  -6  -1  -7  507.11   20.60
  -6   1  -7  502.19   20.98
  -6   1  -6  717.15   24.56
  -6  -1  -6  775.73   24.99
  -6  -1  -5  962.74   27.65
  -6   1  -5  989.55   28.58
  -6   1  -4  207.16   12.62
  -6  -1  -4  207.29   12.77
  -6   1  -3  166.55   11.37
  -6  -1  -3  159.13   11.00
  -6   1  -2    9.28    2.84
  -6  -1  -2    6.06    2.71
  -6   1  -1   21.18    3.98
  -6  -1  -1   27.72    4.53
  -6   1   0    4.38    2.24
  -6  -1   0    1.77    1.50
  -6  -1   1   25.24    4.34
  -6   1   1   27.21    4.08
  -6   1   2    5.23    1.83
  -6  -1   2    5.93    1.89
  -6  -1   3  127.23    9.58
  -6   1   3  167.49    9.98
  -6  -1   4  202.77   12.14
  -6   1   4  188.03   10.36
  -6  -1   5  954.24   26.62
  -6   1   5  941.69   23.20
  -6  -1   6  768.97   23.85
  -6   1   6  786.06   20.82
  -6  -1   7  444.83   18.08
  -6   1   7  464.33   15.58
  -6  -1   8   67.06    7.25
  -6   1   8   65.28    5.67
  -6   1   9   76.75    6.23
  -6  -1   9   71.46    7.27
  -6  -1  10    5.33    2.01
  -6   1  10    7.15    2.18
  -6   1  11  144.05    8.32
  -6  -1  11  145.48   10.93
  -6  -1  12  116.95   10.18
  -6  -1  13   42.18    5.97
  -6  -1  14  517.98   21.36
  -6  -1  15  179.47   12.45
  -6  -1  16   -2.62    1.61
  -6   2 -24  103.66   14.28
  -6   2 -23   10.38    4.01
  -6   2 -22   16.14    5.57
  -6   2 -21    9.38    4.42
  -6   2 -20   76.06   10.89
  -6  -2 -20   47.54    8.24
  -6  -2 -19   -1.33    2.94
  -6   2 -19    1.32    2.13
  -6   2 -18   44.71    8.34
  -6  -2 -18   52.41    8.25
  -6  -2 -17    3.83    2.05
  -6   2 -17    7.64    3.89
  -6   2 -16  308.57   20.13
  -6  -2 -16  278.70   18.17
  -6   2 -15  213.27   16.55
  -6  -2 -15  228.35   16.14
  -6   2 -14  810.13   31.53
  -6  -2 -14  817.10   30.00
  -6   2 -13   65.90    8.47
  -6  -2 -13   82.82    9.34
  -6   2 -12  114.47   11.72
  -6  -2 -12  112.37   10.76
  -6   2 -11  115.86   11.16
  -6  -2 -11  102.77   10.30
  -6   2 -10   75.62    9.01
  -6  -2 -10   79.06    8.68
  -6   2  -9    8.63    2.63
  -6  -2  -9    4.14    2.06
  -6  -2  -8   34.45    5.85
  -6   2  -8   30.32    5.74
  -6   2  -7   16.80    3.99
  -6  -2  -7   16.14    3.78
  -6  -2  -6  281.21   15.56
  -6   2  -6  309.24   16.78
  -6  -2  -5  124.18   10.24
  -6   2  -5  118.68   10.31
  -6   2  -4    6.25    2.34
  -6  -2  -4   15.13    4.07
  -6  -2  -3   69.32    7.73
  -6   2  -3   72.72    7.57
  -6  -2  -2  517.84   20.51
  -6   2  -2  585.94   21.53
  -6  -2  -1  101.19    9.01
  -6   2  -1  110.77    9.05
  -6  -2   0    7.86    2.83
  -6   2   0    2.46    0.79
  -6   2   1  109.10    8.62
  -6  -2   1   98.17    8.99
  -6  -2   2  566.96   22.19
  -6   2   2  539.53   18.84
  -6  -2   3   65.42    7.75
  -6   2   3   66.78    6.58
  -6  -2   4    9.01    3.62
  -6   2   4    5.80    1.12
  -6   2   5   96.99    7.60
  -6  -2   5  110.58    9.67
  -6  -2   6  335.42   17.20
  -6   2   6  325.33   13.32
  -6  -2   7   18.67    4.53
  -6   2   7   22.58    3.55
  -6  -2   8   34.13    5.73
  -6   2   8   29.36    3.72
  -6  -2   9    6.50    2.77
  -6   2   9    7.53    1.98
  -6  -2  10   65.62    8.00
  -6   2  10   61.67    5.13
  -6   2  11   85.89    5.57
  -6  -2  11  113.47   10.44
  -6  -2  12  120.80   11.32
  -6  -2  13   69.78    8.55
  -6  -2  14  816.11   29.55
  -6  -2  15  272.23   17.32
  -6  -2  16  276.95   18.18
  -6  -2  17   -1.81    2.07
  -6   3 -25   84.31   13.16
  -6   3 -24   19.34    6.22
  -6   3 -23   12.88    4.84
  -6   3 -22    1.86    5.12
  -6   3 -21   10.89    5.22
  -6   3 -20   64.32   10.48
  -6   3 -19  225.72   18.16
  -6  -3 -18  117.93   12.18
  -6   3 -18  112.49   12.82
  -6  -3 -17  204.08   15.64
  -6   3 -17  224.79   17.86
  -6  -3 -16   80.59    9.80
  -6   3 -16  103.70   11.82
  -6  -3 -15   67.64    8.91
  -6   3 -15   65.25    9.72
  -6  -3 -14  333.71   19.15
  -6   3 -14  312.30   19.89
  -6  -3 -13   65.36    8.63
  -6   3 -13   74.57    9.42
  -6  -3 -12  106.76   10.77
  -6   3 -12  109.35   11.50
  -6  -3 -11  223.42   15.29
  -6   3 -11  250.43   16.92
  -6   3 -10   35.68    6.01
  -6  -3 -10   33.87    5.84
  -6  -3  -9   81.15    9.01
  -6   3  -9   99.05   10.29
  -6  -3  -8  114.04   10.68
  -6   3  -8  106.86   10.84
  -6  -3  -7  488.04   21.66
  -6   3  -7  491.58   22.19
  -6   3  -6  491.64   21.85
  -6  -3  -6  493.34   21.76
  -6  -3  -5  582.37   23.58
  -6   3  -5  554.79   22.88
  -6  -3  -4  406.57   19.94
  -6   3  -4  428.33   19.73
  -6  -3  -3  948.08   30.11
  -6   3  -3 1005.24   29.95
  -6   3  -2  128.88   10.36
  -6  -3  -1  118.04   10.54
  -6   3  -1  105.40    9.35
  -6  -3   0   71.63    8.24
  -6   3   0   93.88    8.48
  -6  -3   1  120.25   10.67
  -6   3   1  112.64    9.39
  -6  -3   2  136.98   11.46
  -6   3   2  113.29    9.37
  -6  -3   3  989.44   30.86
  -6   3   3  963.99   26.97
  -6  -3   4  443.64   20.88
  -6   3   4  453.65   17.70
  -6   3   5  606.26   20.19
  -6  -3   5  626.45   25.24
  -6   3   6  495.25   17.54
  -6  -3   6  478.19   21.97
  -6   3   7  476.39   16.82
  -6  -3   7  495.33   23.36
  -6   3   8  106.95    7.62
  -6  -3   8   97.09   10.34
  -6   3   9   97.53    6.74
  -6  -3   9   96.24   10.79
  -6  -3  10   19.05    5.42
  -6   3  10   41.35    4.50
   6   3  11  250.60   11.99
  -6  -3  11  237.76   16.40
  -6  -3  12  105.70   11.29
  -6  -3  13   79.43    9.87
  -6  -3  14  319.78   20.01
  -6  -3  15   66.22    9.43
  -6  -3  16  108.02   12.08
  -6  -3  17  258.34   18.84
  -6  -3  18   95.89   11.55
  -6   4 -26   15.43    5.91
  -6   4 -25    6.07    4.21
  -6   4 -24  133.32   16.27
  -6   4 -23   37.72    7.86
  -6   4 -22   63.65   10.23
  -6   4 -21   63.07   10.54
  -6   4 -20   53.68    9.48
  -6   4 -19    3.78    3.83
  -6   4 -18  372.72   23.98
  -6  -4 -17  105.55   12.23
  -6   4 -17   89.94   11.55
  -6  -4 -16   72.04   10.26
  -6   4 -16   86.56   11.38
  -6   4 -15   81.51   10.79
  -6  -4 -15   66.55    9.68
  -6  -4 -14    6.65    2.89
  -6   4 -14   11.27    4.37
  -6   4 -13  121.26   12.57
  -6  -4 -13  121.23   11.99
  -6  -4 -12  549.99   26.29
  -6   4 -12  592.21   27.31
  -6  -4 -11  207.77   15.35
  -6   4 -11  215.11   16.36
  -6  -4 -10   56.87    8.47
  -6   4 -10   37.36    7.20
  -6  -4  -9  168.27   13.60
  -6   4  -9  207.88   15.55
  -6   4  -8  753.99   29.23
  -6  -4  -8  736.76   28.68
  -6   4  -7   53.05    7.71
  -6  -4  -7   45.65    7.03
  -6   4  -6  100.90   10.55
  -6  -4  -6  119.37   11.50
  -6   4  -5  735.59   28.09
  -6  -4  -5  699.83   27.71
  -6   4  -4    2.06    1.82
  -6  -4  -4    5.18    1.77
  -6   4  -3  289.36   17.20
  -6  -4  -3  253.74   16.54
  -6   4  -2  142.74   11.45
  -6  -4  -2  146.79   12.49
  -6  -4  -1  120.46   11.49
  -6   4  -1  102.52   10.07
  -6  -4   0  223.16   15.55
  -6   4   0  206.09   13.58
  -6  -4   1  123.45   11.59
  -6   4   1  105.15    9.49
  -6  -4   2  141.59   12.69
  -6   4   2  126.42   10.31
  -6   4   3  290.44   15.61
  -6  -4   3  273.45   17.43
  -6   4   4   -0.68    1.86
  -6  -4   4    5.87    3.27
  -6   4   5  702.07   23.30
  -6  -4   5  738.01   29.64
  -6   4   6  105.05    9.24
  -6  -4   6  119.41   11.83
  -6   4   7   62.02    6.44
  -6  -4   7   61.86    8.78
  -6   4   8  732.53   21.85
  -6  -4   8  685.95   29.47
  -6  -4   9  156.90   14.14
   6   4   9  169.97   11.87
   6   4  10   46.86    6.52
  -6  -4  10   50.97    8.27
   6   4  11  238.53   14.15
  -6  -4  11  217.85   17.12
  -6  -4  12  614.83   28.91
  -6  -4  13  104.91   11.86
  -6  -4  14   10.01    5.46
  -6  -4  15   71.66   10.39
  -6  -4  16   73.69   10.55
  -6  -4  17   97.95   12.90
  -6  -4  18  362.42   24.15
  -6  -4  19    1.35    3.07
  -6  -4  20   -4.23    2.82
  -6   5 -26   13.53    5.14
  -6   5 -25   28.69    7.90
  -6   5 -24    9.24    5.59
  -6   5 -23   -2.49    5.37
   6   5 -23    0.92    3.67
  -6   5 -22   39.43    9.35
  -6   5 -21   19.34    6.05
  -6   5 -20    1.65    3.62
  -6   5 -19    5.13    3.84
  -6   5 -18   12.54    4.25
  -6   5 -17   55.33    9.77
  -6  -5 -16   15.75    5.72
  -6   5 -16   25.26    6.42
  -6  -5 -15   19.36    5.89
  -6   5 -15   20.29    5.19
  -6  -5 -14   24.11    6.21
  -6   5 -14   31.66    6.52
  -6   5 -13  101.19   12.12
  -6  -5 -13  116.23   12.75
  -6   5 -12   15.43    4.64
  -6  -5 -12    6.26    2.26
  -6   5 -11    2.89    3.64
  -6  -5 -11   -1.32    2.90
  -6   5 -10   19.22    5.57
  -6  -5 -10   20.75    4.10
  -6  -5  -9   52.81    7.58
  -6   5  -9   50.72    8.44
  -6  -5  -8   21.31    5.90
  -6   5  -8   32.04    6.22
  -6  -5  -7   27.61    5.27
  -6   5  -7   26.33    6.21
  -6  -5  -6   12.68    3.09
  -6   5  -6   12.22    4.58
  -6  -5  -5   44.32    7.25
  -6   5  -5   56.36    8.47
  -6  -5  -4  124.72   12.34
  -6   5  -4  150.19   13.31
  -6  -5  -3  102.69   11.32
  -6   5  -3  108.47   11.28
  -6   5  -2  102.13   10.77
  -6  -5  -2  117.72   12.13
  -6   5  -1   46.27    7.06
  -6  -5  -1   44.05    7.85
  -6   5   0   36.93    6.28
  -6  -5   0   28.60    6.23
  -6   5   1   40.35    6.39
  -6  -5   1   44.78    7.68
  -6   5   2  115.81   10.59
  -6  -5   2  114.79   11.76
  -6   5   3  122.78   10.93
  -6  -5   3  120.91   12.61
  -6  -5   4  157.16   14.63
  -6   5   4  165.82   12.61
  -6   5   5   52.79    7.12
  -6  -5   5   44.25    7.68
   6   5   6    9.78    3.45
  -6  -5   6   16.01    4.54
  -6   5   6   16.04    3.73
  -6  -5   7   30.99    6.82
   6   5   7   42.29    6.65
  -6   5   7   29.65    5.21
   6   5   8   38.49    7.26
  -6  -5   8   36.32    7.01
  -6   5   8   33.05    5.35
   6   5   9   51.12    7.59
  -6  -5   9   60.95    9.32
   6   5  10   16.19    3.99
  -6  -5  10   26.68    6.89
  -6  -5  11    0.23    2.79
  -6  -5  12   11.44    4.64
  -6  -5  13   95.50   11.87
  -6  -5  14   40.26    8.09
  -6  -5  15   25.51    6.84
  -6  -5  16   23.35    5.97
  -6  -5  17   45.78    9.12
  -6  -5  18   13.86    5.80
  -6  -5  19    2.66    2.92
  -6  -5  20    5.68    2.74
  -6  -5  21    6.64    5.01
  -6   6 -25   29.81    7.83
  -6   6 -24  121.31   16.36
  -6   6 -23    6.14    4.69
   6   6 -23   12.06    4.31
  -6   6 -22  162.76   18.09
   6   6 -22  160.21   18.32
   6   6 -21   73.47   12.18
  -6   6 -21   65.47   11.25
   6   6 -20    0.95    5.36
  -6   6 -20    1.19    2.88
   6   6 -19   41.78    8.61
  -6   6 -19   25.86    7.41
  -6   6 -18  308.44   23.27
  -6   6 -17   58.18   10.37
  -6   6 -16    0.12    2.28
  -6   6 -15   23.48    6.43
  -6  -6 -15   27.90    7.97
  -6  -6 -14   17.02    7.11
  -6   6 -14   -1.19    2.03
  -6  -6 -13   24.88    7.20
  -6   6 -13   26.69    6.83
  -6   6 -12  168.44   16.06
  -6  -6 -12  248.76   19.18
  -6   6 -11   57.51    9.88
  -6  -6 -11   82.78   10.43
  -6  -6 -10   17.08    6.30
  -6   6 -10    2.67    1.69
  -6  -6  -9   63.57    9.85
  -6   6  -9   49.86    8.40
  -6   6  -8  555.28   27.99
  -6  -6  -8  640.87   29.83
  -6   6  -7  133.89   13.39
  -6  -6  -7  130.44   13.71
  -6  -6  -6    3.29    2.32
  -6   6  -6    0.58    2.24
  -6   6  -5   75.04   10.11
  -6  -6  -5   82.92   10.73
  -6   6  -4  246.98   17.84
  -6  -6  -4  268.59   19.54
  -6  -6  -3    9.34    5.29
  -6   6  -3    4.11    2.98
  -6  -6  -2  453.60   25.10
  -6   6  -2  503.79   24.89
  -6   6  -1   99.89   11.37
  -6  -6  -1  101.72   12.15
  -6  -6   0    7.76    4.22
  -6   6   0    5.29    3.22
  -6   6   1  131.69   12.65
  -6  -6   1  113.86   13.04
   6   6   2  490.09   24.65
  -6   6   2  463.91   23.48
  -6  -6   2  428.10   24.81
  -6  -6   3    0.90    2.71
  -6   6   3    3.72    3.48
   6   6   3    4.78    3.05
  -6   6   4  262.70   17.27
  -6  -6   4  294.71   20.60
   6   6   4  246.29   18.15
  -6   6   5   85.36    9.77
   6   6   5   81.42   10.17
  -6  -6   5   68.46   10.45
   6   6   6   -0.31    2.82
  -6   6   6   -2.56    3.36
  -6  -6   6    3.34    4.08
   6   6   7  131.03   13.39
  -6  -6   7  127.97   13.80
  -6   6   7  111.60   11.08
  -6  -6   8  648.57   31.53
   6   6   8  588.23   27.25
   6   6   9   49.61    7.98
  -6  -6   9   57.54    9.56
   6   6  10    9.29    4.27
  -6  -6  10    4.88    4.11
  -6  -6  11   64.36   10.11
  -6  -6  12  225.05   19.24
  -6  -6  13   26.30    6.65
  -6  -6  14   10.51    5.43
  -6  -6  15   11.82    5.90
  -6  -6  16   -1.22    2.22
  -6  -6  17   54.03   10.36
  -6  -6  18  325.51   24.75
  -6  -6  19   39.11    8.71
  -6  -6  20    2.12    2.60
  -6  -6  21   69.43   12.65
  -6   7 -23   17.06    7.08
   6   7 -23   21.69    8.61
   6   7 -22   25.97    8.16
  -6   7 -22   11.81    5.48
  -6   7 -21   54.62   11.48
   6   7 -21   58.72   11.75
   6   7 -20   39.31    8.78
  -6   7 -20   46.60   10.01
   6   7 -19   44.20    9.70
  -6   7 -19   36.86    9.31
  -6   7 -18   72.74   11.43
   6   7 -18   86.17   12.74
  -6   7 -17   21.83    6.88
   6   7 -17   17.16    5.15
  -6   7 -16   29.18    7.20
   6   7 -16   39.10    9.13
  -6   7 -15   26.70    6.57
   6   7 -15   49.49   10.53
  -6   7 -14   25.83    7.10
   6   7 -14   13.43    3.99
  -6   7 -13   82.93   11.70
   6   7 -13   58.03   10.68
  -6  -7 -13   70.96   11.50
  -6  -7 -12   27.12    7.77
  -6   7 -12   22.99    6.58
   6   7 -12   16.67    5.38
  -6  -7 -11   25.42    7.26
   6   7 -11   27.53    6.71
  -6   7 -11   25.26    6.97
  -6   7 -10   76.11   10.87
   6   7 -10   85.46   11.48
  -6  -7 -10   84.80   11.57
  -6  -7  -9    7.79    4.53
   6   7  -9   15.87    5.98
  -6   7  -9   12.72    4.70
  -6  -7  -8  140.91   15.55
  -6   7  -8  139.66   14.66
   6   7  -8  141.38   14.51
  -6  -7  -7   43.94    8.34
  -6   7  -7   42.13    8.72
   6   7  -7   41.79    8.77
  -6  -7  -6   10.50    3.89
   6   7  -6   11.23    5.23
  -6   7  -6   10.38    3.58
  -6  -7  -5   46.08    9.15
  -6   7  -5   41.24    8.14
   6   7  -5   37.04    7.68
  -6   7  -4  171.25   15.63
   6   7  -4  161.89   15.52
  -6  -7  -4  152.60   15.45
   6   7  -3   56.26    9.54
  -6   7  -3   51.72    8.98
  -6  -7  -3   62.56   10.29
  -6   7  -2  195.22   16.73
   6   7  -2  205.71   17.53
  -6  -7  -2  205.11   18.14
  -6  -7  -1   39.46    7.80
   6   7  -1   24.69    6.96
  -6   7  -1   35.32    7.33
  -6  -7   0    8.76    3.89
  -6   7   0    4.68    3.93
   6   7   0    3.83    3.25
  -6  -7   1   32.63    6.67
  -6   7   1   31.92    6.25
   6   7   1   26.98    6.63
   6   7   2  199.10   16.94
  -6  -7   2  187.87   17.22
  -6   7   2  193.15   16.40
  -6   7   3   70.25    9.74
  -6  -7   3   55.82    9.36
   6   7   3   62.66    9.64
  -6   7   4  181.74   15.88
   6   7   4  177.89   15.96
  -6  -7   4  162.10   16.28
   6   7   5   31.56    7.21
  -6   7   5   25.36    5.64
  -6  -7   5   31.65    7.32
  -6   7   6   19.83    6.43
   6   7   6    9.25    4.07
  -6  -7   6    5.55    4.32
  -6  -7   7   25.21    6.80
   6   7   7   43.12    8.92
   6   7   8  104.05   12.16
  -6  -7   8  134.49   15.44
   6   7   9    7.68    4.55
  -6  -7   9   11.98    5.59
  -6  -7  10   69.88   11.26
  -6  -7  11   29.35    8.11
  -6  -7  12   17.35    5.88
  -6  -7  13   74.07   11.60
  -6  -7  14   19.23    5.52
  -6  -7  15   33.25    8.23
  -6  -7  16   27.12    6.92
  -6  -7  17   17.70    6.28
  -6  -7  18   80.69   13.09
  -6  -7  19   26.18    7.93
  -6  -7  20   43.32    9.74
  -6  -7  21   60.85   11.87
   6   8 -20   19.61    8.19
  -6   8 -20   35.36    8.41
  -6   8 -19   41.62    7.87
   6   8 -19   64.38   12.42
  -6   8 -18   74.75   11.82
   6   8 -18   54.09   11.32
  -6   8 -17   36.49    8.69
   6   8 -17   33.65    8.50
  -6   8 -16   40.35    8.60
   6   8 -16   32.30    8.51
  -6   8 -15   44.57    8.90
   6   8 -15   56.20   10.11
  -6   8 -14   59.34   10.45
   6   8 -14   78.18   11.67
  -6   8 -13   91.53   13.02
   6   8 -13   97.46   13.37
  -6   8 -12   77.21   11.96
   6   8 -12   62.56   11.12
  -6  -8 -12   71.10   11.87
  -6  -8 -11   47.58    9.10
   6   8 -11   51.33   10.17
  -6   8 -11   40.11    8.60
  -6  -8 -10   49.73    9.73
   6   8 -10   38.12    8.59
  -6   8 -10   38.36    8.33
  -6  -8  -9   35.28    8.81
   6   8  -9   23.13    7.68
  -6   8  -9   14.26    5.10
  -6   8  -8  173.39   16.83
   6   8  -8  177.33   17.71
  -6  -8  -8  205.68   19.05
  -6  -8  -7   92.99   12.91
  -6   8  -7   77.85   11.19
   6   8  -7   74.49   11.52
  -6  -8  -6   23.72    6.62
   6   8  -6   21.00    6.46
  -6   8  -6   20.66    6.13
  -6   8  -5   60.47    9.87
   6   8  -5   53.17    9.51
  -6  -8  -5   76.90   11.64
  -6   8  -4   69.13   10.16
   6   8  -4   87.48   12.29
  -6  -8  -4   77.95   10.96
   6   8  -3   -1.84    3.59
  -6   8  -3    7.90    5.05
  -6  -8  -3    0.94    2.63
   6   8  -2  126.26   14.61
  -6  -8  -2  124.63   14.96
  -6   8  -2  130.30   14.07
   6   8  -1   26.85    8.51
  -6   8  -1   31.96    7.30
  -6  -8  -1   21.79    6.70
   6   8   0   -2.98    2.66
  -6   8   0    6.66    3.25
  -6  -8   0   -1.35    4.44
   6   8   1   26.40    7.20
  -6   8   1   40.47    7.71
  -6  -8   1   21.02    5.45
  -6   8   2  136.31   14.27
   6   8   2  103.98   13.40
  -6  -8   2  111.67   14.36
  -6  -8   3    3.09    3.39
  -6   8   3    4.76    1.95
   6   8   3    5.71    3.52
   6   8   4   90.30   12.33
  -6   8   4   98.62   12.56
  -6  -8   4   62.73   10.80
   6   8   5   67.68   10.75
  -6  -8   5   68.07   11.51
   6   8   6   33.02    7.46
  -6  -8   6   17.54    6.71
   6   8   7   90.77   12.18
  -6  -8   7   73.10   11.59
   6   8   8  158.24   17.01
  -6  -8   8  194.48   18.64
  -6  -8   9   29.81    7.44
   6   8   9   38.83    9.88
  -6  -8  10   42.86    8.74
  -6  -8  11   32.63    8.11
  -6  -8  12   75.88   12.19
  -6  -8  13  100.26   14.39
  -6  -8  14   55.42   10.31
  -6  -8  15   49.01   10.36
  -6  -8  16   38.49    8.59
  -6  -8  17   31.38    8.18
  -6  -8  18   92.38   14.44
  -6  -8  19   31.95    7.26
  -6  -8  20   34.83    9.54
  -6   9 -17   -2.15    2.79
   6   9 -17    2.04    5.56
  -6   9 -16    3.63    4.37
   6   9 -16   -0.35    3.89
  -6   9 -15   -1.85    2.85
   6   9 -15    1.47    3.59
  -6   9 -14   16.95    7.14
   6   9 -14   20.42    7.17
  -6   9 -13    2.19    4.28
   6   9 -13    3.07    2.91
  -6   9 -12   45.30    9.56
   6   9 -12   47.74    9.73
   6   9 -11   -0.87    4.15
  -6   9 -11    0.97    3.37
  -6  -9 -10    1.49    3.75
  -6   9 -10   15.76    5.29
   6   9 -10    4.80    4.80
   6   9  -9   16.54    6.09
  -6   9  -9   18.02    6.44
  -6  -9  -9   14.75    6.81
   6   9  -8   31.33    8.26
  -6   9  -8   28.40    7.39
  -6  -9  -8   21.81    6.48
   6   9  -7   26.34    7.92
  -6   9  -7   11.98    4.48
  -6  -9  -7   10.75    7.02
   6   9  -6   45.59    9.80
  -6   9  -6   27.85    7.51
  -6  -9  -6   48.23    9.85
   6   9  -5   23.01    6.67
  -6   9  -5   13.01    5.22
  -6  -9  -5   17.96    6.28
   6   9  -4   -2.24    3.13
  -6   9  -4    0.57    2.77
  -6  -9  -4   -3.22    4.92
   6   9  -3    6.93    3.90
  -6   9  -3   25.38    7.76
  -6  -9  -3   24.73    6.47
   6   9  -2    4.57    3.35
  -6   9  -2    3.13    3.91
  -6  -9  -2    4.04    4.21
  -6  -9  -1   50.30   10.73
   6   9  -1   38.32    8.62
  -6   9  -1   28.30    7.20
   6   9   0   14.20    6.24
  -6   9   0   27.89    7.42
   6   9   1   36.72    8.51
  -6   9   1   22.76    5.86
  -6  -9   1   32.52    8.56
   6   9   2   -0.38    2.50
  -6  -9   2    7.15    4.91
  -6   9   2    0.38    4.08
   6   9   3   15.87    5.26
  -6   9   3   19.73    5.73
  -6  -9   3   20.64    7.55
   6   9   4    2.93    3.14
  -6  -9   4   18.34    7.03
   6   9   5   22.53    7.25
  -6  -9   5   11.12    3.73
   6   9   6   29.19    7.27
  -6  -9   6   41.27    9.45
   6   9   7   16.69    5.61
  -6  -9   7    2.80    2.53
   6   9   8   20.08    6.71
  -6  -9   8   25.14    6.82
  -6  -9   9   12.05    4.73
  -6  -9  10   14.27    6.30
  -6  -9  11    0.14    2.76
  -6  -9  12   53.40   10.92
  -6  -9  13   -5.37    4.43
  -6  -9  14   19.24    7.33
  -6  -9  15    1.80    3.32
  -6  -9  16    4.02    2.55
  -6  -9  17    2.04    3.95
  -6  10 -13   19.13    6.11
   6  10 -13    7.16    4.37
  -6  10 -12   37.54    8.54
   6  10 -12   33.06    7.88
  -6  10 -11   26.78    7.41
   6  10 -11   13.77    4.84
   6  10 -10    7.95    7.14
  -6  10 -10    4.12    3.99
   6  10  -9    7.28    5.79
  -6 -10  -9    8.69    6.39
  -6  10  -9   15.72    6.27
  -6  10  -8   80.60   11.86
   6  10  -8   71.04   12.42
  -6 -10  -8   63.83   12.69
   6  10  -7   18.41    7.10
  -6  10  -7    7.16    5.23
  -6 -10  -7   20.32    7.89
   6  10  -6   23.65    7.53
  -6  10  -6   14.16    5.79
  -6 -10  -6   14.56    6.69
  -6  10  -5   34.41    7.91
   6  10  -5   42.04    8.71
  -6 -10  -5   29.29    8.79
  -6  10  -4   64.16   11.65
   6  10  -4   44.82   10.04
  -6 -10  -4   59.22   12.00
   6  10  -3   15.78    6.70
  -6  10  -3   19.37    6.14
  -6 -10  -3    8.19    5.36
   6  10  -2   57.54   10.37
  -6  10  -2   63.81   11.78
  -6 -10  -2   64.08   12.60
   6  10  -1   12.28    6.33
  -6  10  -1   18.80    5.60
  -6 -10  -1   23.24    8.10
  -6 -10   0    0.81    3.17
   6  10   0   12.64    4.20
  -6  10   0    6.85    5.51
  -6 -10   1   28.59    7.89
   6  10   1   30.14    8.23
  -6  10   1   24.54    8.17
  -6 -10   2   55.40   11.47
   6  10   2   56.13   11.00
  -6 -10   3   11.60    6.05
   6  10   3    7.96    5.09
   6  10   4   53.92   10.73
  -6 -10   4   56.10   10.65
  -6 -10   5   37.38    9.50
   6  10   5   31.93    7.58
   6  10   6   25.46    7.72
  -6 -10   6   14.73    5.52
   6  10   7   10.18    4.24
  -6 -10   7   11.29    4.67
  -6 -10   8   62.67   12.48
  -6 -10   9   20.80    7.78
  -6 -10  10    0.67    4.80
  -6 -10  11    8.85    5.41
  -6 -10  12   38.35    8.86
  -6 -10  13   18.27    8.38
   6  11  -5   11.39    5.32
  -6  11  -5    6.14    4.40
  -6 -11  -5   11.45    6.12
   6  11  -4    5.81    2.85
  -6  11  -4    5.16    6.17
  -6 -11  -4    0.12    5.99
   6  11  -3   10.91    5.85
  -6  11  -3    2.84    3.27
  -6 -11  -3   16.35    5.63
   6  11  -2   10.82    6.73
  -6  11  -2    6.09    5.20
  -6 -11  -2    8.71    4.79
   6  11  -1   12.43    6.51
  -6  11  -1   11.30    5.46
   6  11   0   31.57    8.40
  -6  11   0   19.35    9.08
  -6 -11   0   10.51    5.18
   6  11   1   26.11    7.76
  -6 -11   1    8.70    5.27
   6  11   2    7.56    4.07
  -6 -11   2   -0.36    3.43
   6  11   3    5.56    4.46
  -6 -11   3   18.22    6.58
   6  11   4    6.55    5.81
  -6 -11   4    0.10    3.96
   6  11   5    6.86    5.30
  -6 -11   5   10.16    4.86
  -7   0 -23    3.97    4.57
  -7   0 -22   -2.51    2.92
  -7   0 -21   -2.30    3.65
  -7   0 -20    0.60    3.03
  -7   0 -19    1.11    3.95
  -7   0 -18   -0.12    3.47
  -7   0 -17   -0.10    2.20
  -7   0 -16    0.59    2.25
  -7   0 -15    1.24    4.06
  -7   0 -14    1.02    1.65
  -7   0 -13    1.19    1.87
  -7   0 -12   -0.10    1.73
  -7   0 -11    3.28    2.72
  -7   0 -10    0.83    2.74
  -7   0  -9   -0.27    1.52
  -7   0  -8   -1.12    1.29
  -7   0  -7    0.11    1.10
  -7   0  -6    0.23    2.08
  -7   0  -5    0.08    2.06
  -7   0  -4    0.30    1.67
  -7   0  -3    0.85    1.33
  -7   0  -2    0.19    1.26
  -7   0  -1    1.19    1.92
  -7   0   0    1.04    1.70
  -7   0   1    0.93    1.29
  -7   0   2    2.24    1.90
  -7   0   3    0.24    1.16
  -7   0   4    0.18    0.86
  -7   0   5   -0.08    0.89
  -7   0   6    0.59    2.02
  -7   0   7   -0.03    1.20
  -7   0   8   -0.34    1.57
  -7   0   9    0.02    1.36
  -7   0  10    0.34    1.12
  -7   0  11   -0.19    1.90
  -7   0  12    0.93    1.32
  -7   0  13   -0.68    1.63
  -7   0  14   -1.84    1.31
  -7   1 -24  263.41   22.19
  -7   1 -23   42.93    8.58
  -7   1 -22  120.03   14.57
  -7   1 -21   80.59   12.18
  -7  -1 -21   74.39   10.73
  -7   1 -20  164.21   16.03
  -7  -1 -20  121.05   13.54
  -7   1 -19  121.16   13.43
  -7  -1 -19   97.71   11.52
  -7   1 -18  107.29   12.65
  -7  -1 -18   91.89   11.28
  -7   1 -17   77.41   10.82
  -7  -1 -17   81.94   10.41
  -7   1 -16  818.10   32.71
  -7  -1 -16  725.10   30.41
  -7   1 -15  146.14   13.88
  -7  -1 -15  184.80   14.85
  -7   1 -14 1469.74   42.74
  -7  -1 -14 1336.79   39.39
  -7   1 -13   71.89    9.25
  -7  -1 -13   80.07    9.56
  -7   1 -12  181.02   14.38
  -7  -1 -12  189.17   14.40
  -7  -1 -11  224.77   15.39
  -7   1 -11  284.41   17.68
  -7   1 -10  128.41   11.78
  -7  -1 -10   96.56   10.01
  -7   1  -9   18.69    4.17
  -7  -1  -9   21.64    5.37
  -7  -1  -8  219.08   14.40
  -7   1  -7  237.95   15.25
  -7  -1  -7  211.62   14.04
  -7   1  -6  495.77   21.60
  -7  -1  -6  443.19   20.59
  -7   1  -5  624.25   24.11
  -7  -1  -5  598.07   23.71
  -7   1  -4  461.87   20.43
  -7  -1  -4  398.66   18.78
  -7   1  -3  753.69   25.81
  -7  -1  -3  700.84   24.91
  -7   1  -2 1554.06   35.91
  -7  -1  -2 1516.78   36.61
  -7  -1  -1   22.74    4.87
  -7   1  -1   34.84    5.04
  -7   1   0    1.47    2.08
  -7  -1   0    4.32    1.62
  -7  -1   1   36.57    5.69
  -7   1   1   38.66    5.50
  -7  -1   2 1473.52   34.71
  -7   1   2 1439.24   32.24
  -7  -1   3  757.62   25.08
  -7   1   3  769.53   23.67
  -7  -1   4  433.36   18.84
  -7   1   4  413.30   17.22
  -7   1   5  624.81   20.55
  -7  -1   5  535.78   21.41
  -7  -1   6  491.80   20.88
  -7   1   6  488.39   18.51
  -7  -1   7  219.00   13.74
  -7   1   7  264.10   13.08
  -7  -1   8  182.48   12.47
  -7   1   8  199.18   11.50
  -7  -1   9   17.63    4.01
  -7   1   9   18.61    3.58
  -7   1  10  126.21    8.89
  -7  -1  10  116.67   10.37
  -7   1  11  273.62   12.91
  -7  -1  11  264.59   15.46
  -7   1  12  187.18   10.64
  -7  -1  12  163.21   12.40
  -7  -1  13   70.43    8.42
  -7  -1  14 1372.39   36.39
  -7  -1  15  166.08   13.26
  -7   2 -25   37.55    7.94
  -7   2 -24   21.59    6.32
  -7   2 -23   44.84   10.03
  -7   2 -22   29.54    6.80
  -7   2 -21   65.51   10.76
  -7   2 -20   39.76    7.36
  -7  -2 -20   28.11    7.19
  -7   2 -19    2.22    3.85
  -7  -2 -19    3.53    4.11
  -7   2 -18  103.45   12.14
  -7  -2 -18  115.74   12.39
  -7   2 -17   64.76    9.05
  -7  -2 -17   57.88    9.25
  -7   2 -16  765.27   32.49
  -7  -2 -16  748.48   30.84
  -7   2 -15  180.82   15.64
  -7  -2 -15  185.59   15.29
  -7  -2 -14  225.15   16.73
  -7   2 -14  215.98   16.82
  -7   2 -13  141.15   13.27
  -7  -2 -13  127.71   12.33
  -7   2 -12  327.08   20.03
  -7  -2 -12  316.56   19.25
  -7  -2 -11   23.92    5.29
  -7   2 -11   24.05    5.50
  -7   2 -10   98.76   10.45
  -7  -2 -10  100.43   10.24
  -7   2  -9  272.89   17.30
  -7  -2  -9  272.88   16.96
  -7   2  -8  675.96   27.05
  -7  -2  -8  673.85   26.56
  -7  -2  -7   26.94    4.93
  -7   2  -7   21.79    5.16
  -7   2  -6   84.52    9.21
  -7  -2  -6   49.39    7.04
  -7  -2  -5  367.69   18.43
  -7   2  -5  341.80   18.15
  -7   2  -4   60.19    7.57
  -7  -2  -4   64.23    7.75
  -7   2  -3  370.26   18.40
  -7  -2  -3  389.97   19.01
  -7   2  -2  157.19   11.63
  -7  -2  -2  142.03   11.37
  -7  -2  -1    2.32    2.35
  -7   2  -1    1.27    1.72
  -7  -2   0    2.50    1.89
  -7   2   0    2.39    1.49
  -7  -2   1    4.52    2.75
  -7   2   1    2.54    1.91
  -7   2   2  162.56   11.37
  -7  -2   2  166.34   12.55
  -7   2   3  414.64   17.75
  -7  -2   3  390.26   19.18
  -7  -2   4   49.81    7.03
  -7   2   4   53.96    6.28
  -7  -2   5  325.91   17.64
  -7   2   5  341.68   15.38
  -7  -2   6   57.49    7.65
  -7   2   6   56.60    6.05
  -7   2   7   23.10    3.70
  -7  -2   7   18.83    4.62
  -7  -2   8  669.50   25.73
  -7   2   8  696.70   20.27
  -7   2   9  271.06   12.99
  -7  -2   9  274.41   16.67
  -7   2  10   91.42    7.24
  -7  -2  10   99.45   10.23
  -7  -2  11   15.00    4.14
  -7   2  11   25.98    4.18
  -7  -2  12  373.00   20.19
  -7  -2  13  141.66   12.67
  -7  -2  14  197.47   15.22
  -7  -2  15  159.66   13.72
  -7  -2  16  779.90   30.59
  -7  -2  17   -6.44    2.82
  -7   3 -26   49.92   10.60
  -7   3 -25    5.54    3.90
  -7   3 -24  235.59   21.14
  -7   3 -23   25.39    7.92
  -7   3 -22    1.16    3.17
  -7   3 -21    6.00    4.72
  -7   3 -20  439.66   27.12
  -7   3 -19   28.42    7.36
  -7  -3 -19   29.74    6.76
  -7  -3 -18  834.41   33.86
  -7   3 -18  819.26   35.51
  -7   3 -17   32.55    7.04
  -7  -3 -17   26.14    6.19
  -7   3 -16   13.96    4.58
  -7  -3 -16   15.35    5.37
  -7   3 -15   41.64    7.71
  -7  -3 -15   32.41    6.35
  -7   3 -14 1773.22   49.14
  -7  -3 -14 1583.01   44.38
  -7   3 -13   13.13    5.27
  -7  -3 -13   10.39    3.55
  -7   3 -12 1799.29   47.66
  -7  -3 -12 1729.06   44.79
  -7  -3 -11  130.26   12.43
  -7   3 -11  134.51   12.70
  -7  -3 -10   80.77    9.63
  -7   3 -10   72.10    9.71
  -7  -3  -9   41.84    6.80
  -7   3  -9   31.82    6.65
  -7  -3  -8 1481.16   39.91
  -7   3  -8 1576.70   41.58
  -7   3  -7   25.97    5.13
  -7  -3  -7   35.23    6.18
  -7  -3  -6  897.66   30.83
  -7   3  -6  911.68   31.17
  -7  -3  -5   83.90    9.51
  -7   3  -5   91.75    9.82
  -7   3  -4    6.16    3.21
  -7  -3  -4   -0.23    1.32
  -7  -3  -3   32.54    6.02
  -7   3  -3   30.35    5.96
  -7  -3  -2 1587.31   40.77
  -7   3  -2 1486.67   37.72
  -7   3  -1   20.36    4.78
  -7  -3  -1   34.13    6.10
  -7   3   0    1.30    1.36
  -7  -3   0   -0.73    1.74
  -7   3   1   25.40    4.43
  -7  -3   1   38.32    6.31
  -7  -3   2 1461.89   39.01
  -7   3   2 1487.47   35.67
  -7  -3   3   29.59    5.88
  -7   3   3   38.32    5.47
  -7  -3   4    5.00    2.80
  -7   3   4    9.36    2.76
  -7  -3   5   97.91    9.87
  -7   3   5   85.93    7.86
  -7  -3   6  958.65   32.47
  -7   3   6  896.42   26.12
  -7   3   7   22.46    4.54
  -7  -3   7   28.37    6.30
  -7  -3   8 1565.49   41.99
  -7   3   8 1392.79   31.06
  -7   3   9   40.77    5.20
  -7  -3   9   38.54    6.80
  -7   3  10   -4.09    1.53
  -7  -3  10   53.88    7.96
  -7  -3  11  134.98   13.33
  -7  -3  12 1736.38   46.99
  -7  -3  13    6.43    4.10
  -7  -3  14 1499.76   44.61
  -7  -3  15   42.72    7.37
  -7  -3  16   11.29    4.43
  -7  -3  17   22.66    5.70
  -7  -3  18  872.74   36.13
  -7   4 -27   41.01   10.85
  -7   4 -26    5.60    5.05
  -7   4 -25   12.70    4.63
  -7   4 -24    6.48    4.11
  -7   4 -23   -3.81    3.78
  -7   4 -22   56.61    9.74
  -7   4 -21   37.70    8.41
  -7   4 -20    6.74    5.13
  -7   4 -19  299.93   22.36
  -7  -4 -18   94.72   12.11
  -7   4 -18  122.83   13.79
  -7   4 -17   26.56    6.13
  -7  -4 -17   29.83    6.01
  -7   4 -16   18.01    6.11
  -7  -4 -16   22.39    6.21
  -7  -4 -15   57.45    8.94
  -7   4 -15   61.57   10.03
  -7  -4 -14  179.48   15.49
  -7   4 -14  193.24   16.76
  -7  -4 -13  144.40   13.64
  -7   4 -13  141.63   13.97
  -7  -4 -12   42.15    7.88
  -7   4 -12   37.89    7.60
  -7  -4 -11  297.45   19.35
  -7   4 -11  310.17   19.79
  -7  -4 -10   29.54    5.47
  -7   4 -10   38.92    7.41
  -7  -4  -9   10.91    3.73
  -7   4  -9    6.04    2.67
  -7  -4  -8   82.88   10.27
  -7   4  -8   88.58   10.33
  -7  -4  -7  770.85   30.66
  -7   4  -7  839.30   31.07
  -7  -4  -6   83.63    9.63
  -7   4  -6   96.51   10.80
  -7  -4  -5   16.66    4.56
  -7   4  -5   10.05    3.57
  -7  -4  -4   13.69    4.14
  -7   4  -4   16.19    4.79
  -7  -4  -3  139.18   12.98
  -7   4  -3  118.20   11.13
  -7   4  -2   15.01    3.79
  -7  -4  -2   17.40    4.29
  -7  -4  -1   16.25    4.48
  -7   4  -1   14.55    3.98
  -7  -4   0    1.25    1.59
  -7   4   0   -0.25    1.47
  -7  -4   1   13.94    4.69
  -7   4   1   15.62    3.94
  -7  -4   2   10.72    3.29
  -7   4   2   18.91    4.60
  -7  -4   3  128.03   12.29
  -7   4   3  144.58   11.52
  -7   4   4   13.69    4.17
  -7  -4   4   15.32    4.36
  -7   4   5   14.95    3.98
  -7  -4   5   10.67    4.15
  -7   4   6   90.62    8.90
  -7  -4   6   77.20   10.24
  -7   4   7  768.18   24.63
  -7  -4   7  743.13   30.61
  -7   4   8   98.78    8.99
  -7  -4   8  102.74   11.97
  -7  -4   9    0.90    1.99
  -7  -4  10   35.48    7.52
  -7  -4  11  307.25   20.66
  -7  -4  12   36.84    6.99
  -7  -4  13  167.98   15.73
  -7  -4  14  161.23   15.81
  -7  -4  15   67.52   10.40
  -7  -4  16   22.87    6.38
  -7  -4  17   16.54    6.30
  -7  -4  18   99.02   12.65
  -7  -4  19  304.87   23.41
  -7   5 -26    9.54    6.41
  -7   5 -25    7.02    3.73
  -7   5 -24  179.07   19.09
  -7   5 -23    0.30    2.94
  -7   5 -22  143.96   16.43
  -7   5 -21   23.10    6.51
  -7   5 -20    8.83    4.27
  -7   5 -19   56.49   10.27
  -7   5 -18  369.11   25.04
  -7   5 -17  149.43   15.57
  -7   5 -16    2.23    2.49
  -7  -5 -16    0.72    4.20
  -7  -5 -15   20.30    6.33
  -7   5 -15   15.74    4.95
  -7  -5 -14   23.27    5.76
  -7   5 -14   15.96    4.46
  -7  -5 -13    1.76    3.19
  -7   5 -13    1.83    2.25
  -7  -5 -12  337.68   21.78
  -7   5 -12  353.87   22.38
  -7  -5 -11   65.50   10.00
  -7   5 -11   56.80    9.04
  -7  -5 -10   15.81    4.51
  -7   5 -10   10.61    4.18
  -7  -5  -9   26.38    6.10
  -7   5  -9   18.50    4.79
  -7  -5  -8  394.51   22.96
  -7   5  -8  387.83   22.69
  -7  -5  -7  106.38   11.43
  -7   5  -7   78.52   10.20
  -7  -5  -6   27.41    6.39
  -7   5  -6   15.83    4.68
  -7  -5  -5   58.14    8.48
  -7   5  -5   51.16    7.73
  -7  -5  -4   63.21    9.68
  -7   5  -4   78.56    9.75
  -7  -5  -3   67.94    9.71
  -7   5  -3   90.81   10.50
  -7  -5  -2  388.23   22.76
  -7   5  -2  388.98   21.20
  -7  -5  -1   20.04    5.31
  -7   5  -1   19.46    4.92
  -7  -5   0    1.68    3.14
  -7   5   0   -0.12    1.44
  -7  -5   1    8.32    4.42
  -7   5   1   11.66    3.88
  -7   5   2  396.71   20.46
  -7  -5   2  393.58   22.98
  -7  -5   3  108.36   12.15
  -7   5   3   83.79    9.47
  -7   5   4   81.65    9.23
  -7  -5   4   68.95    9.68
  -7   5   5   63.21    8.51
  -7  -5   5   50.66    8.50
  -7  -5   6   16.00    4.13
  -7   5   6    8.39    2.94
  -7   5   7   92.16    9.54
  -7  -5   7   89.80   11.70
   7   5   8  407.70   21.42
  -7  -5   8  434.45   24.72
  -7  -5   9   19.31    5.52
   7   5   9   14.59    3.97
   7   5  10   11.52    4.34
  -7  -5  10    8.92    4.68
  -7  -5  11   62.10   10.21
  -7  -5  12  392.35   24.62
  -7  -5  13   -2.94    2.55
  -7  -5  14   13.06    4.95
  -7  -5  15    4.68    3.27
  -7  -5  16    5.63    4.09
  -7  -5  17  145.51   16.10
  -7  -5  18  404.45   27.24
  -7  -5  19   62.46   11.27
  -7  -5  20   17.50    7.18
  -7   6 -24    2.21    3.49
   7   6 -24    8.83    6.51
  -7   6 -23   -5.51    4.40
   7   6 -23   14.12    7.71
  -7   6 -22   -0.02    5.02
   7   6 -22    3.79    3.70
   7   6 -21   23.86    6.36
  -7   6 -21   37.35    8.88
  -7   6 -20   -2.67    2.90
  -7   6 -19    8.28    4.49
  -7   6 -18    3.89    3.85
  -7   6 -17    4.98    3.55
  -7   6 -16   -2.13    2.40
  -7  -6 -15   15.60    4.40
  -7   6 -15   18.27    5.82
  -7  -6 -14   29.84    5.74
  -7   6 -14   29.25    7.13
  -7  -6 -13   72.79   10.61
  -7   6 -13   62.10   10.08
  -7  -6 -12   23.06    7.41
  -7   6 -12   22.55    6.36
  -7   6 -11   25.91    6.36
  -7  -6 -11   24.00    7.31
  -7   6 -10   25.60    6.03
  -7  -6 -10   14.08    4.19
  -7   6  -9    2.56    1.94
  -7  -6  -9    7.79    3.50
  -7   6  -8    1.83    1.49
  -7  -6  -8    4.07    4.40
  -7   6  -7   13.21    4.81
  -7  -6  -7   11.45    4.34
  -7   6  -6    2.76    2.15
  -7  -6  -6    3.93    2.32
  -7   6  -5   65.01    9.35
  -7  -6  -5   59.56    9.02
  -7  -6  -4   18.39    4.78
  -7   6  -4   20.85    6.03
  -7   6  -3    6.69    3.97
  -7  -6  -3   11.55    4.39
  -7   6  -2   36.10    7.24
  -7  -6  -2   35.66    7.51
  -7   6  -1   30.56    6.15
  -7  -6  -1   25.93    5.85
  -7   6   0    1.66    2.80
  -7  -6   0    6.63    4.32
  -7   6   1   27.29    6.01
  -7  -6   1   23.66    6.41
  -7  -6   2   36.05    8.02
  -7   6   2   27.32    5.83
  -7  -6   3   11.99    4.59
  -7   6   3    9.18    3.09
  -7  -6   4   26.23    6.48
   7   6   4   30.51    6.20
  -7   6   4   34.18    6.54
   7   6   5   45.53    8.44
  -7   6   5   62.44    8.21
  -7  -6   5   47.99    9.06
  -7  -6   6    3.57    2.35
  -7   6   6    2.11    2.35
   7   6   6    9.37    4.23
   7   6   7   13.97    5.20
  -7  -6   7    7.02    4.77
   7   6   8    4.16    2.31
  -7  -6   8    1.75    2.55
   7   6   9   10.97    3.71
  -7  -6   9   15.08    5.71
  -7  -6  10   14.61    5.33
  -7  -6  11   18.99    6.37
  -7  -6  12   22.16    5.94
  -7  -6  13   51.78    9.45
  -7  -6  14   10.63    4.41
  -7  -6  15    7.87    3.99
  -7  -6  16   -0.13    2.44
  -7  -6  17    2.47    3.46
  -7  -6  18    3.62    4.37
  -7  -6  19    5.13    3.57
  -7  -6  20   -3.17    2.97
  -7  -6  21   19.15    6.84
  -7   7 -22   54.52   10.18
   7   7 -22   35.54    9.44
  -7   7 -21   25.45    7.32
   7   7 -21   20.34    8.15
  -7   7 -20   68.79   12.32
   7   7 -20   68.26   12.08
   7   7 -19   -0.97    4.02
  -7   7 -19    5.21    4.73
  -7   7 -18  247.48   20.75
   7   7 -17   12.31    3.30
  -7   7 -17   38.35    8.46
   7   7 -16    4.32    4.51
  -7   7 -16    7.85    3.59
   7   7 -15    4.42    4.11
  -7   7 -15    2.87    4.40
  -7  -7 -14   53.38   10.20
   7   7 -14   46.61    9.12
  -7   7 -14   44.95    8.80
  -7   7 -13   13.56    4.82
  -7  -7 -13   18.81    7.77
  -7   7 -12  280.47   21.38
  -7  -7 -12  238.22   20.73
  -7  -7 -11   16.19    6.67
  -7   7 -11   18.93    6.13
  -7  -7 -10    2.81    3.05
  -7   7 -10    0.67    2.45
  -7  -7  -9    4.53    3.50
  -7   7  -9    4.80    3.31
  -7   7  -8  403.72   25.48
  -7  -7  -8  417.91   26.70
  -7  -7  -7   17.44    5.74
  -7   7  -7   14.82    5.64
  -7   7  -6   52.25    9.08
  -7  -7  -6   52.28    9.71
  -7  -7  -5   25.59    6.78
  -7   7  -5   35.28    7.74
  -7   7  -4  176.60   16.37
  -7  -7  -4  173.87   16.74
  -7  -7  -3    2.11    3.47
   7   7  -3   -1.20    3.19
  -7   7  -3    5.93    2.87
  -7   7  -2  215.28   18.16
   7   7  -2  216.35   18.01
  -7  -7  -2  219.78   18.67
  -7  -7  -1   12.54    5.43
  -7   7  -1   16.62    5.76
   7   7  -1   31.42    6.80
  -7   7   0   -0.17    2.77
   7   7   0    6.17    4.35
  -7  -7   0    4.06    3.98
  -7  -7   1   22.84    6.70
  -7   7   1   16.67    5.49
   7   7   1   18.65    6.78
  -7   7   2  232.29   17.85
  -7  -7   2  253.15   20.29
  -7  -7   3    2.46    3.48
  -7   7   3    6.03    4.43
   7   7   3   -0.59    2.00
   7   7   4  180.97   16.52
  -7  -7   4  174.15   16.90
  -7   7   4  168.79   15.27
   7   7   5   25.14    7.12
  -7   7   5   33.09    6.83
  -7  -7   5   23.50    6.70
   7   7   6   39.89    8.45
  -7  -7   6   37.94    8.06
   7   7   7   10.17    4.97
  -7  -7   7    6.35    5.06
   7   7   8  455.05   26.13
  -7  -7   8  412.84   26.64
   7   7   9    3.65    3.70
  -7  -7   9    1.29    2.45
  -7  -7  10    1.21    2.94
  -7  -7  11   12.02    5.34
  -7  -7  12  257.12   21.75
  -7  -7  13   11.36    4.77
  -7  -7  14   65.54   11.55
  -7  -7  15    4.68    3.79
  -7  -7  16   -1.89    2.31
  -7  -7  17   18.44    6.47
  -7  -7  18  271.75   24.23
  -7  -7  19   -0.02    4.44
  -7  -7  20   52.48   10.44
  -7  -7  21   16.89    6.21
  -7  -7  22   73.28   15.28
   7   8 -20   -2.15    6.27
  -7   8 -20    2.53    3.93
   7   8 -19    8.45    5.25
  -7   8 -19   -5.63    4.50
   7   8 -18    3.57    5.52
  -7   8 -18    0.76    2.66
   7   8 -17   16.09    6.94
  -7   8 -17   17.98    5.19
   7   8 -16    1.56    3.42
  -7   8 -16    2.00    4.65
  -7   8 -15    8.56    4.22
   7   8 -15    6.76    3.23
  -7   8 -14   23.10    7.22
   7   8 -14   13.31    5.41
  -7   8 -13   19.20    6.49
   7   8 -13    8.48    6.02
  -7  -8 -12    2.49    3.34
  -7   8 -12   -0.23    2.35
   7   8 -12   -5.99    3.79
  -7   8 -11    3.67    3.61
   7   8 -11    7.29    4.18
  -7  -8 -10   12.29    5.31
  -7   8 -10    3.37    3.59
   7   8 -10    3.19    4.43
  -7  -8  -9   22.85    6.65
  -7   8  -9   14.02    4.47
   7   8  -9   11.95    6.12
  -7  -8  -8    4.16    3.83
  -7   8  -8    5.68    3.44
   7   8  -8   -1.46    3.09
  -7  -8  -7    5.34    2.50
  -7   8  -7    2.61    2.82
   7   8  -7    5.84    2.67
  -7  -8  -6   33.32    8.06
  -7   8  -6   26.81    7.09
   7   8  -6   19.18    6.29
  -7  -8  -5    9.57    5.34
  -7   8  -5    6.18    4.30
   7   8  -5   14.44    6.14
  -7  -8  -4    1.14    4.20
   7   8  -4    7.52    5.79
  -7   8  -4    1.67    4.39
  -7  -8  -3    4.81    3.30
  -7   8  -3    8.35    4.63
   7   8  -3    6.97    4.00
  -7  -8  -2   11.75    5.60
   7   8  -2   17.29    6.46
  -7   8  -2    3.04    3.33
  -7  -8  -1    4.63    2.36
   7   8  -1    6.09    4.52
  -7   8  -1    2.19    2.58
  -7   8   0   -1.05    2.69
   7   8   0   -2.96    4.05
  -7  -8   0    1.51    4.20
  -7   8   1   10.86    2.05
   7   8   1    6.32    4.06
  -7  -8   1    0.41    2.51
  -7   8   2    7.13    3.71
   7   8   2    2.01    3.59
  -7  -8   2    5.73    4.58
  -7   8   3   10.23    4.34
   7   8   3    5.75    4.70
  -7  -8   3    4.67    4.13
  -7   8   4   10.92    4.61
   7   8   4    7.87    4.90
  -7  -8   4    3.21    2.47
   7   8   5    6.85    4.56
  -7  -8   5   13.33    6.37
   7   8   6   15.67    5.81
  -7  -8   6   19.05    4.57
  -7  -8   7    0.77    2.70
   7   8   7    9.06    4.32
   7   8   8    3.20    3.30
  -7  -8   8    3.47    4.26
  -7  -8   9   31.78    7.51
  -7  -8  10    3.78    3.44
  -7  -8  11   16.42    6.38
  -7  -8  12   -2.67    2.42
  -7  -8  13   12.78    5.42
  -7  -8  14   37.40    8.84
  -7  -8  15   -1.39    3.31
  -7  -8  16    5.63    4.89
  -7  -8  17   13.53    3.54
  -7  -8  18    1.96    4.78
  -7  -8  19   12.98    6.61
  -7  -8  20    6.32    4.65
   7   9 -16    3.61    4.47
  -7   9 -16    6.12    2.95
  -7   9 -15   18.76    5.63
   7   9 -15   26.56    8.37
  -7   9 -14  141.19   16.33
   7   9 -14  145.65   17.12
  -7   9 -13   -0.66    3.82
   7   9 -13    9.78    5.31
  -7   9 -12  192.45   19.22
   7   9 -12  246.32   21.63
  -7   9 -11    7.70    3.62
   7   9 -11   18.97    6.06
  -7  -9 -11    9.42    5.00
  -7   9 -10   13.74    6.22
   7   9 -10   15.70    8.28
  -7  -9 -10    9.07    5.50
  -7   9  -9    8.18    4.29
   7   9  -9   17.88    7.41
  -7  -9  -9    6.60    4.63
  -7   9  -8  351.58   25.59
   7   9  -8  351.60   25.55
  -7  -9  -8  353.79   27.07
  -7   9  -7    7.34    4.42
   7   9  -7    5.37    4.63
  -7  -9  -7    0.48    4.02
  -7   9  -6   91.43   13.49
   7   9  -6   89.07   12.60
  -7  -9  -6   78.37   11.97
  -7   9  -5   19.75    6.24
   7   9  -5   19.18    6.70
  -7  -9  -5   16.07    6.42
  -7   9  -4   97.96   13.34
   7   9  -4  105.31   13.68
  -7  -9  -4  128.19   15.74
  -7   9  -3    5.05    4.43
   7   9  -3    1.31    3.58
  -7  -9  -3   -1.60    4.51
  -7   9  -2  191.80   18.61
   7   9  -2  165.87   17.50
  -7  -9  -2  193.65   19.69
  -7   9  -1    7.27    4.85
  -7  -9  -1    0.81    3.40
   7   9  -1   14.61    6.36
  -7  -9   0   -0.09    4.35
  -7   9   0   -1.03    3.71
   7   9   0    7.41    3.83
  -7   9   1    1.88    2.34
   7   9   1    0.65    3.13
  -7   9   2  201.32   19.04
   7   9   2  173.62   18.09
  -7  -9   2  180.73   18.54
  -7  -9   3    2.15    3.62
   7   9   3    2.44    4.01
   7   9   4  111.51   14.29
  -7  -9   4  110.37   13.85
   7   9   5   15.86    5.44
  -7  -9   5   15.27    6.16
   7   9   6  106.63   14.01
  -7  -9   6  112.59   14.66
   7   9   7   12.03    5.71
  -7  -9   7    2.35    3.94
  -7  -9   8  341.94   26.26
  -7  -9   9   20.65    7.02
  -7  -9  10   12.85    4.48
  -7  -9  11    9.01    3.89
  -7  -9  12  244.02   22.72
  -7  -9  13   17.54    7.19
  -7  -9  14  156.55   18.31
  -7  -9  15   27.97    7.58
  -7  -9  16   10.17    5.19
  -7  10 -12   12.33    5.56
   7  10 -12   14.84    7.65
  -7  10 -11   38.92    8.96
   7  10 -11   39.15    9.46
  -7  10 -10    5.63    4.63
   7  10 -10    7.61    3.70
  -7  10  -9    2.68    2.89
   7  10  -9    3.92    4.13
  -7 -10  -9    7.45    6.57
  -7  10  -8    5.55    3.14
   7  10  -8    3.12    3.27
  -7 -10  -8    9.52    6.35
  -7  10  -7   51.01   10.78
   7  10  -7   35.53    9.55
  -7 -10  -7   50.10   11.51
  -7  10  -6   -0.73    3.56
   7  10  -6    3.13    5.67
  -7 -10  -6   11.18    7.34
  -7  10  -5   51.39   10.04
   7  10  -5   56.32   10.07
  -7 -10  -5   61.15   10.93
  -7  10  -4    0.83    3.09
   7  10  -4    3.09    3.49
  -7 -10  -4    5.28    4.60
  -7  10  -3   -3.76    4.21
   7  10  -3   -1.39    2.45
  -7 -10  -3    4.38    3.71
  -7  10  -2    0.44    3.96
   7  10  -2    1.02    3.80
  -7 -10  -2    2.78    4.91
  -7  10  -1   -1.34    3.34
   7  10  -1    4.01    3.06
  -7 -10  -1    6.62    4.15
  -7  10   0    0.25    3.22
   7  10   0    0.19    2.65
  -7 -10   0    2.13    3.70
  -7  10   1   13.25    7.02
   7  10   1    3.70    4.17
  -7 -10   1    8.33    4.85
   7  10   2    1.82    4.16
  -7 -10   2    3.50    3.96
   7  10   3   -0.11    2.75
  -7 -10   3   -0.09    2.88
   7  10   4   12.19    6.26
  -7 -10   4    1.56    2.77
   7  10   5   67.15   12.00
  -7 -10   5   51.92   10.69
   7  10   6   -2.08    4.95
  -7 -10   6   -0.90    3.74
   7  10   7    1.87    2.38
  -7 -10   7   27.45    7.66
  -7 -10   8   -2.96    4.90
  -7 -10   9    7.06    3.56
  -7 -10  10    0.67    2.78
  -7 -10  11   30.51    8.49
  -7 -10  12    1.41    2.57
  -7  11  -1    8.43    4.43
   7  11  -1    0.97    4.82
  -7 -11  -1   -3.98    3.96
   7  11   0    0.62    3.29
  -7 -11   0   -0.99    3.91
   7  11   1   -2.98    5.04
  -7 -11   1    1.45    4.90
  -8   0 -23    4.05    5.78
  -8   0 -22   24.14    6.80
  -8   0 -21  103.69   12.83
  -8   0 -20   28.04    6.80
  -8   0 -19  102.25   12.41
  -8   0 -18  287.19   20.20
  -8   0 -17  336.68   22.32
  -8   0 -16   26.24    5.91
  -8   0 -15  335.88   20.94
  -8   0 -14  188.24   15.48
  -8   0 -13  135.73   12.97
  -8   0 -12  888.69   32.80
  -8   0 -11  841.39   31.25
  -8   0 -10  100.07   10.61
  -8   0  -9 1608.26   41.84
  -8   0  -8 1137.10   35.02
  -8   0  -7   18.94    4.58
  -8   0  -6  576.92   23.90
  -8   0  -5   99.08    9.88
  -8   0  -4  984.34   30.84
  -8   0  -3 2241.13   45.80
  -8   0  -2 1080.29   31.50
  -8   0  -1  139.16   11.41
  -8   0   0 1533.15   37.43
  -8   0   1  133.31   10.89
  -8   0   2  992.80   29.44
  -8   0   3 2133.38   43.16
  -8   0   4  969.78   29.05
  -8   0   5   85.96    8.57
  -8   0   6  585.46   22.11
  -8   0   7   12.66    3.82
  -8   0   8 1160.93   31.92
  -8   0   9 1634.82   37.79
  -8   0  10  118.28   10.11
  -8   0  11  832.56   26.94
  -8   0  12  851.58   27.73
  -8   0  13  130.24   10.76
  -8   1 -24   20.85    7.01
  -8   1 -23    2.97    3.04
  -8  -1 -22   20.30    5.98
  -8   1 -22   14.52    5.25
  -8  -1 -21    5.64    3.45
  -8   1 -21   12.56    6.00
  -8  -1 -20    7.71    4.21
  -8   1 -20    6.33    2.42
  -8  -1 -19   34.67    7.88
  -8   1 -19   48.80    9.15
  -8   1 -18   60.25    9.62
  -8  -1 -18   45.54    8.99
  -8   1 -17   87.06   11.31
  -8  -1 -17   66.64    9.80
  -8   1 -16   43.85    8.58
  -8  -1 -16   61.06    9.08
  -8  -1 -15   21.28    5.41
  -8   1 -15   21.37    4.84
  -8  -1 -14    5.23    1.83
  -8   1 -14    3.34    2.59
  -8  -1 -13    2.92    4.26
  -8   1 -13    6.48    2.74
  -8  -1 -12    6.43    2.59
  -8   1 -12    8.36    4.34
  -8   1 -11   78.34    9.98
  -8  -1 -11   58.26    8.27
  -8   1 -10   38.18    6.14
  -8  -1 -10   39.76    7.18
  -8  -1  -9   25.52    5.21
  -8   1  -9   18.02    4.52
  -8   1  -8   46.00    7.01
  -8  -1  -8   52.40    7.65
  -8   1  -7   75.68    9.39
  -8  -1  -7   65.19    8.55
  -8   1  -6   25.33    5.26
  -8  -1  -6   18.27    4.85
  -8   1  -5    9.46    2.60
  -8  -1  -5   21.29    5.17
  -8   1  -4   26.15    4.91
  -8  -1  -4   24.30    5.26
  -8  -1  -3   72.82    8.50
  -8   1  -3   60.77    7.82
  -8  -1  -2  135.84   11.52
  -8   1  -2  145.80   11.48
  -8  -1  -1  129.91   11.21
  -8   1  -1  128.39   10.72
  -8   1   0    2.94    1.35
  -8  -1   0    3.77    2.28
  -8  -1   1  124.30   10.72
  -8   1   1  133.12   10.56
  -8  -1   2  123.88   10.70
  -8   1   2  117.50   10.21
  -8  -1   3   83.47    8.76
  -8   1   3   75.15    8.32
  -8  -1   4   18.96    4.10
  -8   1   4   21.95    4.31
  -8  -1   5   11.79    3.60
  -8   1   5   20.72    4.20
  -8  -1   6   18.86    4.66
  -8   1   6   14.81    3.94
  -8  -1   7   75.81    8.65
  -8   1   7   69.94    7.50
  -8  -1   8   70.92    8.15
  -8   1   8   54.84    6.50
  -8  -1   9   28.37    5.95
  -8   1   9   30.90    4.70
  -8  -1  10   38.77    6.18
  -8   1  10   34.93    5.37
  -8   1  11   66.74    7.37
  -8  -1  11   51.74    7.11
  -8   1  12   15.14    4.69
  -8  -1  12    6.78    3.77
  -8  -1  13    1.88    1.52
  -8  -1  14    7.72    1.72
  -8  -1  15   18.16    5.57
  -8   2 -25   36.21    8.42
  -8   2 -24  122.29   15.63
  -8   2 -23   42.57    8.58
  -8   2 -22   53.01   10.28
  -8   2 -21  131.35   15.66
  -8  -2 -21  134.05   14.94
  -8   2 -20   22.43    6.85
  -8  -2 -20   11.82    4.90
  -8   2 -19   23.15    6.67
  -8  -2 -19   19.01    5.91
  -8   2 -18  146.35   15.07
  -8  -2 -18  133.32   14.24
  -8   2 -17  125.25   13.84
  -8  -2 -17  110.63   12.97
  -8   2 -16   92.47   11.41
  -8  -2 -16   84.87   11.30
  -8   2 -15  258.30   19.24
  -8  -2 -15  249.69   18.69
  -8   2 -14  144.15   14.04
  -8  -2 -14  138.77   13.57
  -8   2 -13   35.61    7.30
  -8  -2 -13   36.47    7.32
  -8   2 -12  240.23   17.50
  -8  -2 -12  218.11   16.62
  -8   2 -11  385.94   22.08
  -8  -2 -11  350.23   20.49
  -8   2 -10   47.36    7.62
  -8  -2 -10   55.01    8.07
  -8   2  -9  181.09   14.60
  -8  -2  -9  169.72   14.06
  -8   2  -8  306.18   18.83
  -8  -2  -8  297.75   18.30
  -8   2  -7  196.44   14.74
  -8  -2  -7  205.48   14.87
  -8  -2  -6   22.84    4.62
  -8   2  -6   11.24    3.61
  -8   2  -5  333.53   18.67
  -8  -2  -5  342.96   19.20
  -8   2  -4  391.90   20.15
  -8  -2  -4  388.96   20.26
  -8   2  -3  359.05   19.04
  -8  -2  -3  389.80   19.90
  -8   2  -2  767.77   27.46
  -8  -2  -2  765.89   28.22
  -8   2  -1  653.11   24.99
  -8  -2  -1  629.08   25.43
  -8   2   0  224.44   14.60
  -8  -2   0  222.74   15.01
  -8   2   1  661.92   24.80
  -8  -2   1  645.92   25.85
  -8   2   2  733.16   25.54
  -8  -2   2  697.84   27.07
  -8  -2   3  360.97   19.61
  -8   2   3  368.47   18.06
  -8  -2   4  402.45   20.58
  -8   2   4  384.43   17.94
  -8  -2   5  309.37   18.05
  -8   2   5  331.83   16.39
  -8   2   6   10.12    3.00
  -8  -2   6    8.65    3.22
  -8  -2   7  197.65   14.34
  -8   2   7  212.20   12.64
  -8  -2   8  261.87   16.93
  -8   2   8  296.76   14.88
  -8  -2   9  152.78   13.02
  -8   2   9  166.86   11.20
  -8   2  10   56.93    6.30
  -8  -2  10   46.55    7.56
  -8  -2  11  416.71   22.13
  -8  -2  12  224.40   16.09
  -8  -2  13   33.90    6.99
  -8  -2  14  112.23   11.66
  -8  -2  15  250.14   17.62
  -8  -2  16   90.12   11.82
  -8   3 -26   -2.89    4.63
  -8   3 -25    8.46    4.26
  -8   3 -24    7.56    4.44
  -8   3 -23    3.96    2.93
  -8   3 -22   10.51    5.94
  -8   3 -21    2.75    2.46
  -8   3 -20   11.04    5.58
  -8  -3 -19   19.42    6.38
  -8   3 -19   23.00    5.75
  -8  -3 -18   23.25    5.99
  -8   3 -18   33.55    7.96
  -8   3 -17  191.07   17.55
  -8  -3 -17  200.47   17.39
  -8   3 -16  198.78   17.24
  -8  -3 -16  177.39   15.78
  -8  -3 -15   94.33   11.37
  -8   3 -15   84.41   11.79
  -8  -3 -14   73.30   10.36
  -8   3 -14   93.68   11.59
  -8  -3 -13   54.38    8.78
  -8   3 -13   75.80   10.60
  -8   3 -12    7.43    3.53
  -8  -3 -12    8.07    3.16
  -8  -3 -11   68.45    8.89
  -8   3 -11   58.90    8.84
  -8  -3 -10   81.72   10.05
  -8   3 -10   68.54    9.53
  -8  -3  -9   76.95    9.15
  -8   3  -9   85.09   10.77
  -8  -3  -8   90.85   10.22
  -8   3  -8   85.94   10.41
  -8  -3  -7  136.40   12.75
  -8   3  -7  126.97   12.25
  -8  -3  -6   53.05    7.84
  -8   3  -6   40.75    7.11
  -8   3  -5   16.36    4.88
  -8  -3  -5   13.27    4.41
  -8   3  -4   -0.18    1.20
  -8  -3  -4    1.74    1.64
  -8  -3  -3   61.16    8.20
  -8   3  -3   66.50    8.43
  -8  -3  -2   72.78    9.17
  -8   3  -2   59.11    7.86
  -8  -3  -1   31.59    5.81
  -8   3  -1   27.20    4.89
  -8  -3   0   11.65    3.93
  -8   3   0    4.22    2.99
  -8  -3   1   25.13    5.29
  -8   3   1   20.66    4.21
  -8  -3   2   71.28    9.18
  -8   3   2   67.36    8.06
  -8  -3   3   46.95    7.67
  -8   3   3   58.58    7.60
  -8  -3   4   -0.12    1.99
  -8   3   4    0.23    1.04
  -8  -3   5   30.59    5.91
  -8   3   5   16.10    4.09
  -8  -3   6   38.63    7.26
  -8   3   6   49.31    6.67
  -8  -3   7  126.68   12.42
  -8   3   7  131.33   10.21
  -8   3   8   94.89    8.65
  -8  -3   8   76.03   10.03
  -8   3   9   80.19    7.71
  -8  -3   9   79.61   10.14
  -8  -3  10   75.01    9.89
  -8  -3  11   45.74    7.77
  -8  -3  12    3.88    2.98
  -8  -3  13   62.31    9.59
  -8  -3  14   96.59   11.58
  -8  -3  15  103.73   12.48
  -8  -3  16  176.63   16.51
  -8  -3  17  187.94   16.88
  -8   4 -26   -3.74    4.61
  -8   4 -25   58.90   11.05
  -8   4 -24  118.01   15.75
  -8   4 -23   10.03    5.36
  -8   4 -22   58.80   10.86
  -8   4 -21   81.65   12.10
  -8   4 -20   -1.39    2.30
  -8   4 -19   36.02    7.92
  -8   4 -18   52.86    9.17
  -8  -4 -18   49.71    9.34
  -8   4 -17   12.79    4.11
  -8  -4 -17   23.23    6.03
  -8  -4 -16  205.28   17.66
  -8   4 -16  179.74   16.71
  -8  -4 -15  300.64   20.88
  -8   4 -15  270.94   20.30
  -8  -4 -14  107.27   12.63
  -8   4 -14  108.77   12.88
  -8  -4 -13   74.38   10.59
  -8   4 -13   87.35   11.54
  -8  -4 -12   48.55    7.92
  -8   4 -12   50.69    8.67
  -8  -4 -11  158.62   14.61
  -8   4 -11  185.72   16.14
  -8  -4 -10   88.10   10.84
  -8   4 -10   58.07    8.75
  -8  -4  -9   34.59    6.68
  -8   4  -9   48.05    7.90
  -8   4  -8   25.70    6.05
  -8  -4  -8   23.49    6.66
  -8  -4  -7  159.22   14.85
  -8   4  -7  155.20   14.19
  -8   4  -6   28.90    5.89
  -8  -4  -6   29.39    7.04
  -8  -4  -5  505.78   25.75
  -8   4  -5  534.30   25.27
  -8  -4  -4  332.40   20.63
  -8   4  -4  319.71   19.55
  -8  -4  -3   52.67    8.48
  -8   4  -3   66.41    8.78
  -8  -4  -2  569.76   26.75
  -8   4  -2  521.54   24.17
  -8  -4  -1  771.67   31.26
  -8   4  -1  839.32   30.91
  -8  -4   0   73.99   10.10
  -8   4   0   87.25    9.85
  -8  -4   1  787.38   31.41
  -8   4   1  798.42   29.04
  -8  -4   2  548.10   26.36
  -8   4   2  536.34   23.77
  -8  -4   3   81.35   10.34
  -8   4   3   79.61    9.06
  -8  -4   4  332.62   20.65
  -8   4   4  326.60   18.25
  -8   4   5  495.37   22.30
  -8  -4   5  545.18   26.57
  -8  -4   6   27.83    6.68
  -8   4   6   38.97    6.40
  -8   4   7  168.04   12.83
  -8  -4   7  163.25   14.58
  -8  -4   8   31.76    6.51
  -8   4   8   27.50    5.18
  -8  -4   9   47.69    8.45
  -8  -4  10   63.47    9.56
  -8  -4  11  191.86   16.86
  -8  -4  12   54.28    8.80
  -8  -4  13   67.56   10.56
  -8  -4  14  105.08   12.93
  -8  -4  15  297.19   21.90
  -8  -4  16  180.59   17.39
  -8  -4  17   18.53    4.80
  -8  -4  18   53.52   10.25
  -8   5 -25    2.20    4.65
  -8   5 -24    7.37    6.30
  -8   5 -23    0.04    3.91
  -8   5 -22    2.02    5.20
  -8   5 -21   11.33    5.88
  -8   5 -20    4.51    3.23
  -8   5 -19   19.15    6.21
  -8   5 -18   18.44    5.52
  -8   5 -17   28.49    6.45
  -8  -5 -17   31.93    8.64
  -8  -5 -16   69.77   10.80
  -8   5 -16   68.68   10.83
  -8  -5 -15   83.68   11.34
  -8   5 -15   74.82   11.24
  -8  -5 -14   62.90   10.22
  -8   5 -14   51.91    9.26
  -8  -5 -13   20.99    6.20
  -8   5 -13   27.00    6.66
  -8  -5 -12   31.95    7.00
  -8   5 -12   35.29    7.57
  -8  -5 -11   21.61    6.13
  -8   5 -11   21.63    5.76
  -8  -5 -10   -0.75    3.60
  -8   5 -10    1.66    2.35
  -8  -5  -9   11.24    4.31
  -8   5  -9   14.14    3.91
  -8  -5  -8   44.78    7.66
  -8   5  -8   23.93    6.51
  -8  -5  -7  122.37   13.32
  -8   5  -7  119.21   12.35
  -8  -5  -6   15.92    5.35
  -8   5  -6   35.88    7.05
  -8  -5  -5   28.77    7.46
  -8   5  -5   37.30    6.90
  -8  -5  -4   97.60   11.45
  -8   5  -4  127.55   12.81
  -8  -5  -3   98.88   11.58
  -8   5  -3   84.62   10.71
  -8  -5  -2   46.59    8.11
  -8   5  -2   40.27    7.37
  -8  -5  -1   21.39    5.31
  -8   5  -1   20.19    5.21
  -8  -5   0   36.38    7.00
  -8  -5   1   32.59    6.76
  -8   5   1   31.83    6.37
  -8  -5   2   32.92    6.96
  -8   5   2   35.42    6.64
  -8   5   3   93.76   10.29
  -8  -5   3   81.48   10.74
  -8   5   4  119.37   11.78
  -8  -5   4   99.46   12.11
  -8   5   5   30.41    6.14
  -8  -5   5   31.97    7.19
  -8  -5   6   40.11    7.65
  -8   5   6   43.53    6.84
  -8   5   7  105.57   10.57
  -8  -5   7  116.97   12.86
  -8  -5   8   40.50    8.23
  -8  -5   9   12.94    5.20
  -8  -5  10    2.16    3.45
  -8  -5  11   31.94    7.93
  -8  -5  12   35.03    7.66
  -8  -5  13   29.06    7.86
  -8  -5  14   60.24   10.47
  -8  -5  15   75.26   11.18
  -8  -5  16   64.67   11.18
  -8  -5  17   27.29    7.18
  -8  -5  18   11.93    4.37
  -8  -5  19    6.79    3.81
  -8  -5  20   -7.02    3.78
  -8   6 -23    9.22    5.18
  -8   6 -22   13.54    6.53
  -8   6 -21   55.71   10.00
  -8   6 -20   10.29    4.71
  -8   6 -19   30.43    8.75
  -8   6 -18   78.38   12.75
  -8   6 -17   48.54    9.64
  -8  -6 -16   10.41    3.74
  -8   6 -16   21.61    6.25
  -8  -6 -15  166.37   17.29
  -8   6 -15  164.67   16.45
  -8  -6 -14  108.01   14.45
  -8   6 -14  108.41   13.62
  -8  -6 -13    7.69    4.57
  -8   6 -13    2.78    2.35
  -8  -6 -12  131.89   14.64
  -8   6 -12  145.83   15.06
  -8  -6 -11  246.99   19.78
  -8   6 -11  188.54   16.81
  -8  -6 -10   31.46    8.16
  -8   6 -10   25.08    5.42
  -8  -6  -9   97.35   12.52
  -8   6  -9  148.36   14.82
  -8  -6  -8   86.08   11.41
  -8   6  -8   97.15   12.12
  -8  -6  -7   41.92    9.00
  -8   6  -7   35.80    8.00
  -8  -6  -6  334.38   22.37
  -8   6  -6  260.20   19.47
  -8  -6  -5  369.66   24.04
  -8   6  -5  330.06   21.68
  -8  -6  -4   46.57    8.62
  -8   6  -4   36.01    7.69
  -8   6  -3  102.25   11.99
  -8  -6  -3   58.92    9.73
  -8   6  -2  120.70   12.53
  -8  -6  -2  142.04   14.61
  -8   6  -1  127.87   12.84
  -8  -6  -1  124.22   13.63
  -8   6   0  123.31   12.73
  -8  -6   0  137.49   14.33
  -8   6   1  119.45   12.64
  -8  -6   1  126.40   13.65
  -8   6   2   99.48   11.82
  -8  -6   2  104.96   12.55
  -8   6   3   81.63   10.09
  -8  -6   3  116.33   13.21
  -8  -6   4   30.20    8.19
  -8   6   4   24.41    5.36
  -8   6   5  383.74   21.71
  -8  -6   5  411.89   25.52
   8   6   6  281.43   19.18
  -8  -6   6  305.10   22.03
  -8  -6   7   35.89    7.67
   8   6   7   36.55    7.36
   8   6   8   84.77   10.69
  -8  -6   8   62.70    9.56
   8   6   9  139.60   14.11
  -8  -6   9  140.29   15.40
  -8  -6  10   36.12    7.92
  -8  -6  11  229.65   19.86
  -8  -6  12   97.95   13.35
  -8  -6  13    6.44    3.87
  -8  -6  14  106.74   14.47
  -8  -6  15  181.72   18.75
  -8  -6  16   36.52    8.51
  -8  -6  17   73.95   11.68
  -8  -6  18   64.73   11.55
  -8  -6  19   50.96   11.39
  -8  -6  20   11.20    4.94
  -8   7 -21    6.89    4.21
   8   7 -21    1.05    5.29
  -8   7 -20    7.56    4.03
   8   7 -20    9.82    4.10
  -8   7 -19    1.71    2.90
   8   7 -19    5.52    5.46
  -8   7 -18   12.22    5.77
   8   7 -18   15.19    7.39
  -8   7 -17    9.68    5.25
  -8   7 -16    8.09    5.35
  -8   7 -15   -0.71    3.72
  -8  -7 -14   -0.02    4.53
  -8   7 -14    0.61    2.10
  -8  -7 -13   13.87    5.10
  -8   7 -13   16.88    4.72
  -8  -7 -12   47.96    9.37
  -8   7 -12   57.33    9.83
  -8   7 -11   94.21   12.33
  -8  -7 -11   84.77   11.37
  -8  -7 -10   41.76    9.07
  -8   7 -10   41.82    8.84
  -8  -7  -9    1.87    3.25
  -8   7  -9    0.99    2.42
  -8  -7  -8   83.30   12.38
  -8   7  -8   60.16    9.73
  -8  -7  -7   59.03    9.99
  -8   7  -7   67.67   10.40
  -8  -7  -6   27.23    7.86
  -8   7  -6   15.91    5.36
  -8  -7  -5  113.92   13.91
  -8   7  -5  130.12   14.36
  -8  -7  -4   71.50   12.04
  -8   7  -4   73.94   11.00
  -8  -7  -3  104.02   13.22
  -8   7  -3   83.72   11.44
  -8  -7  -2   70.60   10.70
  -8   7  -2   66.21   10.19
  -8  -7  -1  126.58   14.12
  -8   7  -1   97.21   12.00
  -8  -7   0  138.80   15.14
  -8   7   0  129.11   14.13
   8   7   1  131.35   14.38
  -8  -7   1  108.11   13.75
  -8   7   1   83.25   11.17
   8   7   2   88.32   11.38
  -8   7   2   89.29   11.40
  -8  -7   2   69.14   10.97
   8   7   3   91.90   11.90
  -8   7   3   79.23   10.78
  -8  -7   3   77.11   11.93
   8   7   4   72.02   10.66
  -8   7   4   66.84   10.00
  -8  -7   4   66.39   10.20
  -8   7   5  119.57   13.38
  -8  -7   5  140.82   15.32
   8   7   6   23.17    7.09
  -8  -7   6   24.65    6.89
   8   7   7   88.58   11.94
  -8  -7   7   52.30    9.48
   8   7   8   80.51   10.91
  -8  -7   8   74.85   12.05
  -8  -7   9    6.92    5.48
  -8  -7  10   50.33    9.93
  -8  -7  11   72.99   11.68
  -8  -7  12   51.59    9.79
  -8  -7  13   19.13    6.32
  -8  -7  14    9.10    4.31
  -8  -7  15   -6.26    4.80
  -8  -7  16   -0.49    3.71
  -8  -7  17    9.59    6.29
  -8  -7  18   10.80    4.98
  -8  -7  19    4.35    5.19
  -8  -7  20    2.78    3.41
  -8  -7  21    3.01    4.97
  -8   8 -19   19.93    8.79
   8   8 -19   17.53    5.36
   8   8 -18   46.01   10.33
  -8   8 -18   54.12   10.73
   8   8 -17  110.25   14.80
  -8   8 -17  118.54   15.69
   8   8 -16   11.19    5.23
  -8   8 -16    6.97    4.19
   8   8 -15   47.24   10.38
  -8   8 -15   32.55    9.47
   8   8 -14   27.76    8.13
  -8   8 -14   53.28    9.94
  -8  -8 -13    3.71    2.92
  -8   8 -13    5.73    3.44
   8   8 -12   87.04   12.92
  -8  -8 -12   92.44   14.15
  -8   8 -12   85.80   12.33
  -8  -8 -11  184.29   18.93
  -8   8 -11  191.57   18.61
  -8  -8 -10    6.57    3.13
   8   8 -10    2.08    3.96
  -8   8 -10    2.04    3.01
  -8   8  -9  100.38   13.12
   8   8  -9   84.88   12.19
  -8  -8  -9   93.22   12.82
  -8   8  -8  117.91   14.42
   8   8  -8  105.03   13.21
  -8   8  -7   28.96    7.13
  -8  -8  -7   32.42    8.69
   8   8  -7   28.66    8.47
  -8   8  -6   43.10    9.06
  -8  -8  -6   40.62    8.79
   8   8  -6   29.38    8.06
  -8   8  -5  118.25   13.87
   8   8  -5  139.21   15.34
  -8  -8  -5  135.73   16.15
  -8   8  -4   24.20    6.96
  -8  -8  -4   32.55    6.61
   8   8  -4   40.57    8.71
  -8   8  -3    4.65    3.55
   8   8  -3   11.99    4.26
  -8   8  -2   73.68   10.90
   8   8  -2   80.96   12.56
  -8  -8  -2   73.08   12.27
  -8  -8  -1   44.14    8.59
   8   8  -1   54.14    9.37
  -8   8  -1   57.79    9.28
  -8  -8   0    7.24    4.35
   8   8   0    8.94    4.07
  -8   8   0   13.46    5.98
   8   8   1   59.82   10.74
  -8  -8   1   64.45   11.50
  -8   8   1   42.37    8.50
   8   8   2   77.94   11.73
  -8  -8   2   83.72   12.60
  -8   8   2   78.27   10.91
   8   8   3   10.15    2.77
  -8   8   3    9.00    4.76
  -8  -8   3    3.98    2.85
   8   8   4   32.46    8.46
  -8  -8   4   36.24    8.33
   8   8   5  130.64   15.17
  -8  -8   5  136.62   15.99
   8   8   6   26.68    7.21
  -8  -8   6   36.92    8.61
   8   8   7   27.88    7.47
  -8  -8   7   38.05    8.67
  -8  -8   8  112.62   14.67
  -8  -8   9  106.34   14.11
  -8  -8  10   11.95    5.68
  -8  -8  11  154.79   17.62
  -8  -8  12   99.38   13.91
  -8  -8  13   17.18    5.96
  -8  -8  14   22.72    7.28
  -8  -8  15   40.67    9.77
  -8  -8  16    4.55    2.76
  -8  -8  17  115.41   15.76
  -8  -8  18   53.92   10.41
  -8  -8  19    8.45    5.02
   8   9 -15   19.66    7.79
  -8   9 -15   23.39    7.04
   8   9 -14   16.42    7.00
  -8   9 -14   10.86    5.63
   8   9 -13   33.59    9.96
  -8   9 -13   12.09    4.93
   8   9 -12   18.79    7.32
  -8   9 -12    8.23    4.74
  -8  -9 -11    6.63    5.91
   8   9 -11   12.04    6.49
  -8   9 -11    6.76    3.91
  -8  -9 -10   19.73    7.38
   8   9 -10   12.68    4.45
  -8   9 -10   29.53    7.15
  -8  -9  -9    2.77    4.59
  -8   9  -9    2.92    3.84
   8   9  -9   -1.80    3.00
  -8  -9  -8   14.58    6.37
  -8   9  -8   18.85    6.88
   8   9  -8   18.62    5.81
  -8  -9  -7    4.06    4.91
  -8   9  -7    7.63    5.66
   8   9  -7   -1.63    3.30
  -8  -9  -6    2.21    4.44
  -8   9  -6    4.52    3.37
   8   9  -6    1.98    2.68
  -8   9  -5   30.86    6.87
   8   9  -5   23.27    7.58
  -8  -9  -5   36.01    9.54
  -8   9  -4    5.15    3.44
   8   9  -4    7.12    3.07
  -8  -9  -4    5.99    4.07
  -8   9  -3    6.75    3.75
   8   9  -3    4.31    4.46
  -8  -9  -3   13.45    5.99
  -8   9  -2   12.94    6.14
   8   9  -2   14.15    5.26
  -8  -9  -2   16.18    6.84
  -8   9  -1    5.60    4.00
   8   9  -1   16.62    6.19
  -8  -9  -1   12.98    6.87
   8   9   0    2.64    3.73
  -8   9   0   20.41    6.54
  -8  -9   0   15.92    6.34
   8   9   1   17.75    6.64
  -8   9   1    8.61    5.12
  -8  -9   1   14.00    4.40
   8   9   2   19.65    5.39
  -8   9   2   13.44    6.45
  -8  -9   2   28.41    7.65
   8   9   3    8.14    4.84
  -8  -9   3   -0.83    3.10
   8   9   4   12.48    5.35
  -8  -9   4    2.54    4.89
   8   9   5   25.25    6.40
  -8  -9   5   21.73    7.31
   8   9   6    4.43    3.08
  -8  -9   6   -0.44    2.76
   8   9   7    9.60    7.05
  -8  -9   7   -2.73    4.11
  -8  -9   8   14.45    6.35
  -8  -9   9    2.99    4.70
  -8  -9  10   11.38    6.26
  -8  -9  11   19.91    6.76
  -8  -9  12   15.12    5.44
  -8  -9  13   29.25    7.74
  -8  -9  14    8.67    5.52
  -8  -9  15   40.15   10.47
   8  10 -10    5.93    3.01
  -8  10 -10   -1.51    3.66
  -8  10  -9   45.35    9.47
   8  10  -9   38.87    8.40
  -8 -10  -9   55.38   11.59
  -8  10  -8   44.74    9.37
   8  10  -8   44.35    9.18
  -8 -10  -8   41.19   11.36
  -8  10  -7   26.94    7.28
   8  10  -7   40.95    9.40
  -8 -10  -7   28.61    8.09
  -8  10  -6    6.29    4.10
   8  10  -6    0.09    3.47
  -8 -10  -6    8.70    6.22
   8  10  -5   77.58   13.44
  -8  10  -5   86.03   13.40
  -8 -10  -5   55.33   11.14
  -8  10  -4   22.46    7.90
   8  10  -4   31.59    8.29
  -8 -10  -4   24.51    8.18
  -8  10  -3   -1.69    3.45
   8  10  -3   -4.16    3.99
  -8 -10  -3   -5.74    4.88
  -8  10  -2   25.73    8.28
   8  10  -2   31.42    8.81
  -8 -10  -2   26.71    8.74
   8  10  -1   48.58    9.82
  -8 -10  -1   40.69    9.42
  -8  10  -1   36.64    8.56
   8  10   0   11.25    5.81
  -8 -10   0    1.06    5.01
  -8  10   0   -2.32    4.27
   8  10   1   15.32    6.17
  -8 -10   1   40.72   10.20
   8  10   2   23.40    6.65
  -8 -10   2   24.42    6.70
   8  10   3   -0.31    3.41
  -8 -10   3    8.89    6.58
   8  10   4   11.38    5.22
  -8 -10   4   23.00    7.58
   8  10   5   57.41   11.15
  -8 -10   5   62.89   12.47
   8  10   6   -0.02    3.62
  -8 -10   6    6.21    2.89
  -8 -10   7   22.01    9.74
  -8 -10   8   39.21    9.88
  -8 -10   9   75.52   12.94
  -8 -10  10    4.63    4.75
  -9   0 -23   -5.07    4.83
  -9   0 -22   -2.95    4.55
  -9   0 -21   -0.35    2.32
  -9   0 -20    0.51    2.46
  -9   0 -19   -1.63    2.12
  -9   0 -18    2.70    4.63
  -9   0 -17    1.64    2.90
  -9   0 -16    0.19    2.68
  -9   0 -15   -0.23    1.75
  -9   0 -14    0.76    1.70
  -9   0 -13    0.80    1.97
  -9   0 -12   -0.33    2.66
  -9   0 -11   -0.67    2.67
  -9   0 -10   -1.78    2.89
  -9   0  -9    1.11    3.12
  -9   0  -8   -1.09    2.26
  -9   0  -7    1.63    3.37
  -9   0  -6    0.65    1.42
  -9   0  -5   -0.25    1.09
  -9   0  -4   -1.31    1.89
  -9   0  -3   -0.29    1.53
  -9   0  -2   -0.77    2.06
  -9   0  -1    0.30    1.22
  -9   0   0   -0.46    1.15
  -9   0   1   -1.03    1.13
  -9   0   2    0.06    1.92
  -9   0   3    1.18    2.07
  -9   0   4   -1.14    2.37
  -9   0   5   -1.64    1.46
  -9   0   6   -0.94    2.26
  -9   0   7   -1.53    2.07
  -9   0   8    1.28    1.68
  -9   0   9    0.60    1.32
  -9   0  10    0.52    1.94
  -9   0  11    0.04    1.81
  -9   0  12    0.92    1.90
  -9   0  13    5.75    4.22
  -9   1 -24    6.70    3.88
  -9   1 -23   53.44   10.13
  -9  -1 -22   78.47   12.05
  -9   1 -22   76.49   12.34
  -9  -1 -21  175.45   17.40
  -9   1 -21  186.25   18.18
  -9  -1 -20   34.14    7.70
  -9   1 -20   24.57    6.68
  -9  -1 -19   74.59   11.34
  -9   1 -19   64.70   10.43
  -9  -1 -18    3.18    2.46
  -9   1 -18    6.77    3.63
  -9   1 -17  815.23   35.43
  -9  -1 -17  777.23   34.41
  -9   1 -16   70.75   10.54
  -9  -1 -16   90.56   11.89
  -9   1 -15  372.26   23.70
  -9  -1 -15  412.32   24.03
  -9  -1 -14    6.11    4.32
  -9   1 -14    2.11    3.43
  -9  -1 -13    2.53    2.97
  -9   1 -13    3.07    1.72
  -9   1 -12  122.33   12.83
  -9  -1 -12  127.06   12.89
  -9   1 -11 1466.39   43.80
  -9  -1 -11 1429.96   42.63
  -9   1 -10   30.73    6.99
  -9  -1 -10   51.22    8.39
  -9   1  -9  800.77   31.60
  -9  -1  -9  756.08   30.05
  -9   1  -8  294.62   18.69
  -9  -1  -8  236.69   16.73
  -9   1  -7  303.45   18.71
  -9  -1  -7  306.57   18.96
  -9  -1  -6  244.67   16.60
  -9   1  -6  249.93   17.25
  -9  -1  -5  723.86   28.51
  -9   1  -5  747.42   29.09
  -9  -1  -4  356.84   20.00
  -9   1  -4  345.09   19.57
  -9  -1  -3  679.98   27.31
  -9   1  -3  688.82   26.79
  -9  -1  -2  324.36   18.94
  -9   1  -2  342.07   18.52
  -9  -1  -1 1012.51   32.83
  -9   1  -1 1112.38   33.26
  -9  -1   0 1299.29   37.34
  -9   1   0 1382.79   36.60
  -9  -1   1 1069.19   33.36
  -9   1   1 1083.61   32.49
  -9  -1   2  333.14   18.58
  -9   1   2  361.79   18.52
  -9  -1   3  645.81   25.75
  -9   1   3  710.43   26.12
  -9  -1   4  383.00   19.83
  -9   1   4  418.01   19.92
  -9  -1   5  707.25   27.15
  -9   1   5  728.42   26.12
  -9  -1   6  261.38   16.70
  -9   1   6  244.78   14.88
  -9  -1   7  316.33   18.44
  -9   1   7  329.58   17.36
  -9  -1   8  288.70   17.73
  -9   1   8  263.75   15.47
  -9  -1   9  705.41   27.59
  -9   1   9  749.23   26.10
  -9  -1  10   35.65    6.70
  -9   1  10   34.22    5.99
  -9  -1  11 1309.47   38.64
  -9   1  11 1421.65   35.92
  -9  -1  12  103.94   10.98
  -9  -1  13    2.08    2.14
  -9  -1  14    2.64    1.73
  -9   2 -25   10.37    7.77
  -9   2 -24    3.64    7.10
  -9   2 -23    2.41    4.91
  -9   2 -22    5.22    3.58
  -9   2 -21    5.03    3.99
  -9  -2 -21   -0.32    4.18
  -9   2 -20    0.71    2.72
  -9  -2 -20   -2.04    3.37
  -9   2 -19    0.78    2.29
  -9  -2 -19   -1.24    2.45
  -9   2 -18   20.49    5.43
  -9  -2 -18   28.66    7.04
  -9   2 -17   -0.44    2.63
  -9  -2 -17    3.34    3.57
  -9   2 -16   14.87    5.42
  -9  -2 -16   24.35    5.70
  -9   2 -15    0.62    1.85
  -9  -2 -15    0.42    1.89
  -9   2 -14    9.58    3.02
  -9  -2 -14   13.28    4.72
  -9   2 -13    5.83    3.04
  -9  -2 -13    6.20    2.99
  -9   2 -12   45.27    7.89
  -9  -2 -12   37.67    7.38
  -9   2 -11   15.02    4.67
  -9  -2 -11   22.80    5.96
  -9   2 -10    5.58    3.37
  -9  -2 -10    4.06    3.37
  -9  -2  -9    2.74    3.99
  -9   2  -9    1.55    1.72
  -9   2  -8   73.76    9.64
  -9  -2  -8   80.33   10.03
  -9   2  -7   39.95    7.52
  -9  -2  -7   31.72    6.73
  -9   2  -6   18.35    4.88
  -9  -2  -6   14.01    3.55
  -9   2  -5    7.34    3.89
  -9  -2  -5    3.86    2.26
  -9   2  -4   12.78    4.41
  -9  -2  -4   12.71    3.76
  -9   2  -3   17.59    4.32
  -9  -2  -3   21.03    4.97
  -9   2  -2   28.77    5.57
  -9  -2  -2   12.92    4.80
  -9   2  -1   92.95    9.67
  -9  -2  -1   95.24   10.22
  -9   2   0   39.01    6.07
  -9  -2   0   32.68    6.17
  -9  -2   1   84.10    9.79
  -9   2   1  104.77   10.27
  -9   2   2   18.81    4.19
  -9  -2   2   22.36    4.95
  -9   2   3   16.22    3.92
  -9  -2   3   15.78    3.93
  -9   2   4   12.81    4.36
  -9  -2   4   13.47    4.45
  -9   2   5    7.15    2.66
  -9  -2   5    2.10    3.44
  -9   2   6    6.91    3.74
  -9  -2   6   17.58    4.36
  -9  -2   7   32.47    6.26
  -9   2   7   45.54    6.79
  -9  -2   8   72.30    9.53
  -9   2   8   66.64    7.64
  -9  -2   9    4.10    2.73
  -9   2   9    5.45    2.42
  -9  -2  10    0.77    2.36
  -9   2  10    0.89    1.94
  -9  -2  11   17.66    4.78
  -9  -2  12   29.73    6.60
  -9  -2  13    4.93    2.19
  -9  -2  14   15.41    4.94
  -9  -2  15    2.66    2.88
  -9   3 -26   11.36    7.95
  -9   3 -25  139.33   16.51
  -9   3 -24   59.26   11.58
  -9   3 -23   30.36    8.26
  -9   3 -22  174.13   17.83
  -9   3 -21  207.20   19.44
  -9  -3 -20    4.49    4.88
  -9   3 -20   -0.56    3.83
  -9  -3 -19   48.62    8.80
  -9   3 -19   29.89    8.13
  -9   3 -18  159.35   16.04
  -9  -3 -18  153.07   16.27
  -9   3 -17  108.88   13.47
  -9  -3 -17  133.33   14.00
  -9   3 -16  733.07   33.94
  -9  -3 -16  740.44   33.51
  -9   3 -15  104.58   12.80
  -9  -3 -15  105.94   12.73
  -9   3 -14  130.53   13.95
  -9  -3 -14  133.35   13.88
  -9   3 -13  145.91   14.82
  -9  -3 -13  166.67   15.42
  -9   3 -12  674.04   31.25
  -9  -3 -12  625.08   29.20
  -9   3 -11  901.96   35.84
  -9  -3 -11  917.92   35.06
  -9   3 -10  982.99   37.18
  -9  -3 -10  941.93   35.36
  -9  -3  -9    5.10    2.57
  -9   3  -9    6.10    3.07
  -9   3  -8  210.05   16.33
  -9  -3  -8  194.33   15.49
  -9  -3  -7 2032.33   50.20
  -9   3  -7 2006.28   50.86
  -9   3  -6   80.45    9.83
  -9  -3  -6   86.01   10.14
  -9  -3  -5 2769.38   58.82
  -9   3  -5 2562.38   55.84
  -9   3  -4  933.25   33.04
  -9  -3  -4  931.57   33.87
  -9  -3  -3    3.69    1.63
  -9   3  -3    2.42    1.96
  -9   3  -2   46.27    7.12
  -9  -3  -2   52.19    8.20
  -9   3  -1 3639.61   62.94
  -9  -3  -1 3659.51   67.45
  -9  -3   0    1.75    2.07
  -9   3   0    3.84    3.22
  -9   3   1 3791.59   63.60
  -9  -3   1 3685.07   67.41
  -9  -3   2   33.41    6.53
  -9   3   2   31.53    5.89
  -9  -3   3   -0.08    1.60
  -9   3   3    1.21    2.73
  -9   3   4 1016.80   31.87
  -9  -3   4  993.58   35.09
  -9  -3   5 2555.98   57.14
  -9   3   5 2614.58   50.75
  -9  -3   6   70.90    9.34
  -9   3   6   86.64    9.08
  -9  -3   7 1986.41   50.07
  -9   3   7 1881.23   42.18
  -9  -3   8  182.94   15.66
  -9   3   8  208.71   13.84
  -9  -3   9    7.07    2.94
  -9   3   9    1.75    1.87
  -9  -3  10 1038.12   38.07
  -9  -3  11  925.03   35.93
  -9  -3  12  596.39   28.79
  -9  -3  13  131.65   14.03
  -9  -3  14  144.41   14.72
  -9  -3  15  111.88   13.30
  -9  -3  16  783.93   35.27
  -9  -3  17  126.90   15.21
  -9   4 -25    6.65    5.84
  -9   4 -24    0.89    4.20
  -9   4 -23   31.68    8.00
  -9   4 -22    4.42    3.03
  -9   4 -21   12.87    6.21
  -9   4 -20    7.12    3.83
  -9  -4 -19   12.02    5.70
  -9   4 -19    6.03    4.29
  -9  -4 -18    8.82    4.46
  -9   4 -18    1.19    2.75
  -9  -4 -17  300.23   22.16
  -9   4 -17  329.18   23.15
  -9   4 -16    3.96    2.92
  -9  -4 -16    4.48    4.44
  -9   4 -15   21.25    6.26
  -9  -4 -15   27.57    6.61
  -9   4 -14   44.41    9.20
  -9  -4 -14   46.07    8.87
  -9   4 -13    3.85    3.84
  -9  -4 -13    4.52    3.25
  -9  -4 -12   87.86   11.42
  -9   4 -12  102.12   12.16
  -9  -4 -11  379.25   23.40
  -9   4 -11  316.35   21.95
  -9   4 -10    2.15    3.26
  -9  -4 -10    3.50    2.89
  -9  -4  -9  241.72   18.71
  -9   4  -9  243.17   18.68
  -9  -4  -8  179.99   16.03
  -9   4  -8  166.32   15.65
  -9   4  -7    3.54    3.46
  -9  -4  -7   -0.26    2.79
  -9  -4  -6  278.49   19.93
  -9   4  -6  274.41   19.30
  -9  -4  -5  118.82   12.96
  -9   4  -5  126.42   12.82
  -9  -4  -4  107.04   12.13
  -9   4  -4   88.55   10.59
  -9  -4  -3   41.90    7.77
  -9   4  -3   34.35    6.77
  -9  -4  -2  168.29   14.72
  -9   4  -2  212.77   16.23
  -9  -4  -1   -0.22    2.46
  -9   4  -1    4.44    2.04
  -9  -4   0  530.30   26.42
  -9   4   0  552.07   25.67
  -9  -4   1    1.11    2.69
  -9   4   1    1.58    2.55
  -9  -4   2  208.99   16.60
  -9   4   2  196.75   14.73
  -9  -4   3   35.56    7.66
  -9   4   3   24.62    5.98
  -9  -4   4   88.55   11.42
  -9   4   4   97.41   10.38
  -9  -4   5  129.80   13.12
  -9   4   5  138.90   12.46
  -9   4   6  286.82   17.37
  -9  -4   6  299.65   20.53
  -9  -4   7    0.41    1.87
  -9   4   7    0.92    1.94
  -9   4   8  155.99   12.89
  -9  -4   8  174.55   15.51
  -9  -4   9  232.67   18.68
  -9  -4  10    0.44    2.34
  -9  -4  11  364.54   23.31
  -9  -4  12   78.54   11.82
  -9  -4  13    3.85    3.67
  -9  -4  14   57.58    9.86
  -9  -4  15   13.85    4.78
  -9  -4  16    3.58    3.43
  -9  -4  17  308.53   22.52
  -9  -4  18    5.16    3.80
  -9   5 -24    1.12    3.56
  -9   5 -23    8.15    3.47
  -9   5 -22   41.80    7.77
  -9   5 -21   84.36   12.49
  -9   5 -20   16.51    5.86
  -9   5 -19   14.39    5.25
  -9   5 -18   -2.03    2.83
  -9   5 -17   24.27    6.76
  -9  -5 -17   32.36    7.95
  -9   5 -16   34.09    7.54
  -9  -5 -16   25.06    6.81
  -9  -5 -15  271.90   21.61
  -9   5 -15  329.37   23.55
  -9   5 -14   29.03    7.06
  -9  -5 -14   32.05    7.42
  -9   5 -13   19.95    6.31
  -9  -5 -13   21.07    5.95
  -9   5 -12   44.56    8.24
  -9  -5 -12   45.69    9.01
  -9  -5 -11  365.46   23.96
  -9   5 -11  411.15   24.95
  -9   5 -10   21.32    5.82
  -9  -5 -10   16.44    4.30
  -9   5  -9   19.10    5.61
  -9  -5  -9    8.09    2.75
  -9   5  -8    6.31    4.51
  -9  -5  -8   -0.03    2.85
  -9  -5  -7   96.32   12.17
  -9   5  -7   96.44   11.87
  -9  -5  -6   25.99    6.44
  -9   5  -6   36.79    7.25
  -9  -5  -5  661.99   31.10
  -9   5  -5  643.95   29.76
  -9   5  -4   37.09    7.28
  -9  -5  -4   41.18    7.89
  -9   5  -3   16.01    5.10
  -9  -5  -3   15.26    4.75
  -9   5  -2   14.00    4.75
  -9  -5  -2   17.23    5.42
  -9  -5  -1  665.84   31.19
  -9   5  -1  671.30   29.98
  -9  -5   0   51.39    9.69
  -9   5   0   48.12    8.21
  -9  -5   1  707.27   32.30
  -9   5   1  627.81   28.46
  -9   5   2   11.91    3.52
  -9  -5   2   12.06    5.31
  -9  -5   3    7.95    2.95
  -9   5   3   13.13    4.97
  -9   5   4   59.42    8.73
  -9  -5   4   51.50    8.90
  -9   5   5  655.34   27.63
  -9  -5   5  662.45   31.83
  -9  -5   6   38.34    8.18
  -9   5   6   20.46    4.34
  -9  -5   7   78.16   11.07
  -9  -5   8    4.06    2.90
  -9  -5   9   12.48    4.83
  -9  -5  10   18.17    5.86
  -9  -5  11  419.38   26.08
  -9  -5  12   35.28    7.50
  -9  -5  13   15.57    4.80
  -9  -5  14   24.43    7.56
  -9  -5  15  315.56   24.11
  -9  -5  16   19.07    4.99
  -9  -5  17   10.67    4.12
  -9  -5  18   -2.35    3.02
  -9  -5  19   20.30    6.53
  -9   6 -23   -2.68    4.21
  -9   6 -22    5.65    3.96
  -9   6 -21   -2.84    3.71
  -9   6 -20    2.26    4.35
  -9   6 -19   35.50    8.20
  -9   6 -18   25.67    6.89
  -9   6 -17   18.45    5.34
  -9  -6 -16   21.73    6.80
  -9   6 -16   27.08    7.00
  -9  -6 -15   62.07   10.92
  -9   6 -15   88.29   12.69
  -9  -6 -14    5.31    5.07
  -9   6 -14    5.71    3.23
  -9  -6 -13   34.46    8.36
  -9   6 -13   33.71    7.80
  -9  -6 -12    9.43    4.16
  -9   6 -12   15.78    5.39
  -9  -6 -11    4.61    3.83
  -9   6 -11    5.04    3.49
  -9  -6 -10   38.60    7.96
  -9   6 -10   33.54    8.22
  -9  -6  -9   12.97    4.26
  -9   6  -9   21.84    5.53
  -9  -6  -8   58.45   10.17
  -9   6  -8   87.73   11.27
  -9  -6  -7  109.96   13.67
  -9   6  -7  105.15   12.37
  -9  -6  -6    1.00    2.35
  -9   6  -6    4.96    2.68
  -9  -6  -5   15.38    5.49
  -9   6  -5   14.70    3.84
  -9  -6  -4   16.68    6.25
  -9   6  -4   12.10    4.78
  -9  -6  -3   13.47    3.84
  -9   6  -3   12.61    4.81
  -9  -6  -2    4.39    3.90
  -9   6  -2    8.11    4.02
  -9   6  -1   90.53   11.46
  -9  -6  -1   86.02   12.36
  -9   6   0  161.71   15.08
  -9  -6   0  160.02   15.96
  -9   6   1   94.74   11.36
  -9  -6   1   96.54   12.73
  -9  -6   2    7.53    4.21
  -9   6   2    8.19    3.89
  -9  -6   3   10.73    4.76
  -9   6   3   12.92    4.37
  -9  -6   4   12.82    5.67
  -9   6   4   14.69    5.02
  -9   6   5    7.50    4.47
  -9  -6   5    9.92    3.92
  -9  -6   6    6.49    4.77
  -9  -6   7   99.94   12.55
   9   6   8   79.43   11.25
  -9  -6   8   82.69   12.53
  -9  -6   9   13.96    5.06
  -9  -6  10   46.82    9.96
  -9  -6  11    1.87    3.86
  -9  -6  12   18.01    6.28
  -9  -6  13   28.44    8.23
  -9  -6  14   12.15    5.09
  -9  -6  15   70.22   12.07
  -9  -6  16   28.58    7.77
  -9  -6  17    1.71    3.61
  -9  -6  18   18.92    6.02
  -9  -6  19   19.77    7.24
  -9  -6  20   19.77    9.99
  -9   7 -20   21.06    8.85
  -9   7 -19   -2.57    3.01
  -9   7 -18    6.67    3.73
  -9   7 -17   59.51   10.44
  -9   7 -16   13.11    6.07
  -9   7 -15  264.42   22.18
  -9  -7 -15  309.33   24.85
  -9  -7 -14   -0.96    3.69
  -9   7 -14    6.31    4.76
  -9  -7 -13   38.87    9.40
  -9   7 -13   32.32    7.69
  -9  -7 -12    2.74    4.45
  -9   7 -12   11.98    5.16
  -9   7 -11  295.31   22.59
  -9  -7 -11  275.62   22.30
  -9  -7 -10   26.82    8.14
  -9   7 -10   23.09    7.65
  -9  -7  -9   61.78   10.78
  -9   7  -9   70.72   11.50
  -9  -7  -8   20.00    6.35
  -9   7  -8   38.83    8.33
  -9  -7  -7    9.74    4.02
  -9   7  -7    9.25    3.83
  -9   7  -6   85.26   11.88
  -9  -7  -6   98.89   13.10
  -9   7  -5  415.91   25.54
  -9  -7  -5  365.67   25.31
  -9  -7  -4    7.17    4.54
  -9   7  -4   -0.86    3.46
  -9   7  -3   37.29    7.44
  -9  -7  -3   52.34   10.30
  -9  -7  -2    5.31    5.16
  -9   7  -2    2.58    2.38
  -9   7  -1  205.85   18.41
  -9  -7  -1  215.92   19.53
  -9   7   0  331.89   22.45
  -9  -7   0  399.79   25.91
  -9   7   1  187.58   16.91
  -9  -7   1  196.03   18.77
  -9  -7   2    3.64    3.15
  -9   7   2    6.82    4.00
  -9  -7   3   45.31    9.34
  -9   7   3   43.53    8.42
   9   7   3   46.20    8.86
  -9  -7   4   -1.37    1.99
  -9   7   4    5.24    4.51
   9   7   4   -0.55    2.55
   9   7   5  319.13   22.45
  -9  -7   5  328.92   24.61
   9   7   6   81.93   12.35
  -9  -7   6   81.93   12.55
  -9  -7   7   17.69    6.07
   9   7   7   -0.97    5.14
   9   7   8   27.87    8.56
  -9  -7   8   11.93    5.32
  -9  -7   9   68.46   10.82
  -9  -7  10   19.08    6.81
  -9  -7  11  343.96   25.27
  -9  -7  12    9.27    5.70
  -9  -7  13   29.30    8.98
  -9  -7  14    2.62    2.43
  -9  -7  15  261.73   23.60
  -9  -7  16   13.05    6.55
  -9  -7  17   58.69   11.92
  -9  -7  18    8.98    3.96
  -9  -7  19    5.51    5.85
  -9  -7  20   16.72    6.04
  -9   8 -18   16.78    6.33
   9   8 -18   31.21    9.37
  -9   8 -17    2.51    3.53
   9   8 -17   12.11    5.91
  -9   8 -16    6.79    3.77
   9   8 -16    7.37    5.24
  -9   8 -15    3.24    3.44
   9   8 -15   -3.91    3.43
  -9   8 -14    7.83    4.52
   9   8 -14    7.05    4.12
  -9  -8 -13  -11.56    7.31
  -9   8 -13   -1.53    4.39
   9   8 -13   -2.37    3.53
  -9  -8 -12    4.07    4.98
   9   8 -12    5.66    5.71
  -9   8 -12    6.20    4.32
  -9  -8 -11    1.24    4.66
   9   8 -11    5.64    5.70
  -9   8 -11   12.80    5.27
  -9  -8 -10    6.43    4.97
   9   8 -10   10.83    4.27
  -9  -8  -9    5.18    5.14
   9   8  -9    6.70    5.29
  -9   8  -9   -2.33    2.23
  -9  -8  -8   15.67    6.71
   9   8  -8   17.31    6.89
  -9   8  -8    7.19    4.29
  -9  -8  -7   15.82    5.56
   9   8  -7   15.26    6.48
  -9   8  -7   16.72    5.57
   9   8  -6   61.16   10.79
  -9   8  -6   40.54    8.06
  -9  -8  -6   57.78   11.34
  -9  -8  -5    2.71    2.88
   9   8  -5   -0.57    2.45
  -9   8  -5    2.19    2.27
  -9  -8  -4   12.80    5.62
   9   8  -4    5.66    5.22
  -9   8  -4    5.66    3.25
  -9  -8  -3   19.02    6.99
   9   8  -3   19.63    5.59
  -9   8  -3    7.89    4.55
  -9  -8  -2   29.34    7.70
   9   8  -2   32.03    7.07
  -9   8  -2   36.55    8.48
  -9  -8  -1   -0.93    3.38
   9   8  -1   -1.48    3.15
  -9   8  -1    2.13    2.16
  -9  -8   0   25.82    7.54
  -9   8   0   12.93    5.62
   9   8   0   15.34    7.86
  -9  -8   1    9.55    4.96
  -9   8   1    0.20    2.61
   9   8   1   14.50    6.72
  -9  -8   2   27.29    7.44
  -9   8   2   34.06    7.84
   9   8   2   28.72    6.87
  -9  -8   3   15.88    6.65
  -9   8   3   22.48    8.08
   9   8   3   12.26    7.17
   9   8   4   16.30    5.74
  -9  -8   4    7.68    3.75
   9   8   5    7.31    4.01
  -9  -8   5   10.96    5.64
   9   8   6   31.46    7.39
  -9  -8   6   38.83    8.85
   9   8   7   12.57    3.80
  -9  -8   7   18.22    5.34
  -9  -8   8    9.04    4.49
  -9  -8   9    2.83    3.29
  -9  -8  10   11.31    5.73
  -9  -8  11    3.84    3.29
  -9  -8  12    0.27    4.13
  -9  -8  13   -3.56    4.29
  -9  -8  14   13.29    6.04
  -9  -8  15    3.66    5.30
  -9  -8  16    9.74    7.41
  -9  -8  17    3.17    2.80
  -9  -8  18   21.95    8.42
   9   9 -14    2.27    3.59
  -9   9 -14   -2.42    3.59
   9   9 -13   24.21    7.35
  -9   9 -13   17.95    6.30
   9   9 -12    4.48    4.42
  -9   9 -12    8.19    6.78
  -9  -9 -11   71.18   12.51
   9   9 -11   98.30   14.15
  -9   9 -11  108.52   14.77
   9   9 -10   89.15   13.80
  -9  -9 -10  109.70   15.63
  -9   9 -10   89.59   13.23
  -9  -9  -9   85.17   13.56
  -9   9  -9   98.33   13.60
   9   9  -9   87.39   12.64
  -9  -9  -8    6.70    5.50
   9   9  -8    3.55    4.11
  -9   9  -8    4.13    5.71
  -9  -9  -7   71.69   12.27
   9   9  -7   72.25   11.47
  -9   9  -7   86.70   13.04
  -9  -9  -6   39.87    9.68
   9   9  -6   64.64   10.86
  -9   9  -6   58.26   10.08
   9   9  -5  268.09   22.62
  -9  -9  -5  268.91   22.78
  -9   9  -5  297.11   23.63
  -9  -9  -4    8.04    6.80
   9   9  -4    3.99    5.17
  -9   9  -4    4.21    2.79
  -9  -9  -3    1.46    2.72
   9   9  -3   -2.05    3.36
  -9   9  -3    4.99    4.79
   9   9  -2    5.26    5.85
  -9   9  -2    5.62    4.11
  -9  -9  -2   -0.05    3.87
   9   9  -1  122.52   15.42
  -9  -9  -1  152.27   17.73
  -9   9  -1  113.79   14.94
   9   9   0   90.56   13.69
  -9  -9   0  116.80   15.42
  -9   9   0   97.37   12.60
   9   9   1  131.15   15.22
  -9   9   1   93.31   13.28
  -9  -9   1  143.96   16.63
   9   9   2    4.37    3.04
  -9  -9   2    4.10    3.55
   9   9   3    4.38    4.62
  -9  -9   3   -2.29    4.13
   9   9   4   16.54    6.87
  -9  -9   4   22.98    7.28
   9   9   5  301.88   24.21
  -9  -9   5  309.49   24.76
   9   9   6   65.46   11.90
  -9  -9   6   62.51   11.24
  -9  -9   7   80.57   13.18
  -9  -9   8   -2.45    3.67
  -9  -9   9   93.31   14.04
  -9  -9  10   98.09   14.34
  -9  -9  11  106.84   15.23
  -9  -9  12    6.40    5.70
  -9  -9  13    3.04    3.71
  -9  -9  14    0.30    3.28
   9  10  -8   85.70   13.71
  -9  10  -8   62.64   12.36
  -9 -10  -8   89.96   14.19
   9  10  -7   14.72    4.98
  -9  10  -7   17.45    6.95
  -9 -10  -7   21.93    7.37
   9  10  -6  155.79   17.74
  -9 -10  -6  156.79   18.57
  -9  10  -6  119.52   15.91
   9  10  -5   32.23    9.89
  -9  10  -5   43.95    9.07
  -9 -10  -5   44.06    9.99
   9  10  -4    9.77    5.06
  -9  10  -4    9.74    5.63
  -9 -10  -4   16.16    7.43
   9  10  -3   11.06    4.18
  -9  10  -3    4.67    5.65
  -9 -10  -3    6.54    4.84
   9  10  -2   80.23   13.24
  -9  10  -2   71.13   11.87
  -9 -10  -2   90.26   14.27
   9  10  -1   24.32    7.86
  -9  10  -1   11.94    5.52
  -9 -10  -1   14.90    5.63
   9  10   0  170.42   18.54
  -9 -10   0  146.10   18.07
   9  10   1   13.18    4.80
  -9 -10   1    8.90    5.70
   9  10   2   73.16   13.66
  -9 -10   2  100.12   14.98
   9  10   3    6.79    5.97
  -9 -10   3    6.89    3.98
   9  10   4    6.21    4.38
  -9 -10   4    4.78    3.25
   9  10   5   24.98    8.11
  -9 -10   5   38.27    9.01
  -9 -10   6  146.60   18.02
  -9 -10   7    6.32    4.24
  -9 -10   8   93.58   14.65
 -10   0 -24   81.82   12.24
 -10   0 -23  171.00   17.99
 -10   0 -22   67.52   11.79
 -10   0 -21  258.96   21.62
 -10   0 -20   82.63   12.43
 -10   0 -19   84.84   12.40
 -10   0 -18  241.65   19.68
 -10   0 -17  397.90   25.01
 -10   0 -16  114.63   13.67
 -10   0 -15  421.02   25.12
 -10   0 -14  230.46   18.32
 -10   0 -13  264.95   19.12
 -10   0 -12  417.38   23.83
 -10   0 -11  410.62   23.35
 -10   0 -10  115.08   12.29
 -10   0  -9  335.83   21.01
 -10   0  -8  285.89   19.20
 -10   0  -7  121.46   12.28
 -10   0  -6   82.93   10.44
 -10   0  -5  306.03   18.99
 -10   0  -4  354.86   20.51
 -10   0  -3  285.78   18.15
 -10   0  -2  272.57   17.79
 -10   0  -1  193.10   15.04
 -10   0   0    2.91    2.28
 -10   0   1  176.32   14.21
 -10   0   2  275.68   17.17
 -10   0   3  297.45   17.98
 -10   0   4  432.32   21.76
 -10   0   5  336.84   19.16
 -10   0   6   93.55    9.93
 -10   0   7  162.95   13.58
 -10   0   8  291.18   18.09
 -10   0   9  286.90   18.34
 -10   0  10  122.64   11.89
 -10   0  11  413.82   22.13
 -10   0  12  391.42   21.02
 -10   1 -25    6.80    4.99
 -10   1 -24    4.83    5.74
 -10   1 -23    9.28    4.95
 -10  -1 -23    4.00    4.29
 -10   1 -22   11.86    3.49
 -10  -1 -22    0.61    2.66
 -10   1 -21   12.14    4.80
 -10  -1 -21   10.19    5.10
 -10   1 -20   15.10    5.25
 -10  -1 -20   11.43    6.13
 -10   1 -19   13.18    4.56
 -10  -1 -19   17.28    6.28
 -10   1 -18    9.54    4.72
 -10  -1 -18    7.21    3.80
 -10  -1 -17   17.19    5.52
 -10   1 -17   10.98    4.52
 -10  -1 -16    8.54    4.81
 -10   1 -16   19.91    6.90
 -10  -1 -15   28.99    6.70
 -10   1 -15   21.36    5.80
 -10  -1 -14    4.69    3.66
 -10   1 -14    2.96    1.83
 -10   1 -13   47.62    8.36
 -10  -1 -13   55.70    9.34
 -10  -1 -12   52.17    8.66
 -10   1 -12   40.61    8.37
 -10   1 -11    3.37    3.53
 -10  -1 -11    1.54    3.28
 -10   1 -10    5.69    2.37
 -10  -1 -10    2.32    2.21
 -10   1  -9   16.24    5.18
 -10  -1  -9   16.23    4.39
 -10   1  -8    4.95    3.80
 -10  -1  -8    0.62    1.62
 -10   1  -7   36.36    6.56
 -10  -1  -7   39.55    6.75
 -10   1  -6   17.33    4.84
 -10  -1  -6   33.92    6.75
 -10   1  -5    0.05    1.60
 -10  -1  -5    0.49    1.88
 -10   1  -4    3.55    1.20
 -10  -1  -4    2.21    1.45
 -10   1  -3    8.40    2.62
 -10  -1  -3    5.23    2.91
 -10   1  -2   13.16    3.91
 -10  -1  -2    4.36    2.07
 -10  -1  -1   45.48    7.42
 -10   1  -1   37.24    6.41
 -10  -1   0   40.28    7.17
 -10   1   0   36.25    6.35
 -10  -1   1   40.38    6.76
 -10   1   1   45.33    7.14
 -10   1   2   15.07    4.21
 -10  -1   2   14.09    4.59
 -10  -1   3   12.43    3.94
 -10   1   3   11.38    4.02
 -10  -1   4    8.44    2.91
 -10   1   4    4.48    2.48
 -10  -1   5   -0.18    2.06
 -10   1   5    1.00    1.54
 -10  -1   6   30.26    5.95
 -10   1   6   41.76    6.77
 -10  -1   7   67.49    8.94
 -10   1   7   43.22    6.67
 -10  -1   8    0.85    2.31
 -10   1   8    3.34    2.83
 -10  -1   9   12.99    4.20
 -10   1   9    7.81    3.40
 -10  -1  10   15.26    4.77
 -10   1  10    4.84    2.57
 -10  -1  11    0.02    1.82
 -10   1  11    0.19    1.61
 -10  -1  12   48.11    7.86
 -10  -1  13   47.05    7.62
 -10  -1  14   12.47    6.65
 -10   2 -26   26.33    8.42
 -10   2 -25   40.82    9.35
 -10   2 -24   66.47   11.29
 -10   2 -23   50.62   10.09
 -10   2 -22   50.71   10.50
 -10   2 -21   90.50   13.74
 -10  -2 -21   91.37   13.32
 -10   2 -20   29.99    7.62
 -10  -2 -20   35.65    8.93
 -10   2 -19   52.88   10.34
 -10  -2 -19   48.54    8.72
 -10   2 -18  176.44   17.75
 -10  -2 -18  156.31   16.61
 -10   2 -17  228.45   20.00
 -10  -2 -17  201.77   18.03
 -10   2 -16   59.76   10.41
 -10  -2 -16   75.80   11.01
 -10   2 -15  218.38   18.71
 -10  -2 -15  240.41   19.30
 -10   2 -14  149.88   15.40
 -10  -2 -14  193.03   16.90
 -10   2 -13   65.01    9.98
 -10  -2 -13   94.86   12.11
 -10   2 -12  273.88   19.77
 -10  -2 -12  251.49   18.68
 -10   2 -11  604.11   29.59
 -10  -2 -11  639.33   29.99
 -10   2 -10  143.43   14.25
 -10  -2 -10  145.53   14.07
 -10   2  -9  228.71   17.40
 -10  -2  -9  221.74   17.73
 -10   2  -8  264.72   19.06
 -10  -2  -8  276.99   19.09
 -10   2  -7  107.79   12.01
 -10  -2  -7  122.41   12.53
 -10   2  -6   99.70   11.74
 -10  -2  -6   86.24   10.85
 -10   2  -5  369.39   21.65
 -10  -2  -5  443.98   23.50
 -10   2  -4  227.30   16.95
 -10  -2  -4  169.20   14.60
 -10   2  -3  313.96   19.64
 -10  -2  -3  297.40   19.01
 -10   2  -2  538.40   25.39
 -10  -2  -2  535.93   25.69
 -10  -2  -1  425.69   22.83
 -10   2  -1  446.92   22.85
 -10  -2   0   64.53    8.94
 -10   2   0   56.15    8.44
 -10  -2   1  442.56   23.42
 -10   2   1  426.20   22.03
 -10  -2   2  517.52   25.47
 -10   2   2  511.33   23.59
 -10  -2   3  299.17   19.32
 -10   2   3  293.92   17.72
 -10  -2   4  162.45   14.40
 -10   2   4  186.60   14.19
 -10  -2   5  311.07   20.37
 -10   2   5  359.74   19.64
 -10  -2   6   83.60   10.59
 -10   2   6  112.16   11.00
 -10  -2   7   99.04   11.57
 -10   2   7  110.05   10.43
 -10  -2   8  252.87   18.16
 -10   2   8  275.76   16.73
 -10  -2   9  203.90   16.28
 -10   2   9  218.44   14.99
 -10  -2  10  158.43   14.60
 -10   2  10  127.63   12.31
 -10  -2  11  654.62   29.51
 -10  -2  12  257.54   19.10
 -10  -2  13  101.31   12.22
 -10  -2  14  147.29   15.03
 -10  -2  15  208.36   17.27
 -10   3 -26    0.89    4.86
 -10   3 -25    4.89    5.28
 -10   3 -24    2.38    3.38
 -10   3 -23    0.97    4.42
 -10   3 -22   -2.38    4.85
 -10   3 -21    4.67    4.50
 -10   3 -20    1.23    2.69
 -10  -3 -20    5.46    4.76
 -10   3 -19    2.26    4.07
 -10  -3 -19   -0.37    2.40
 -10  -3 -18   -2.54    3.15
 -10   3 -18    0.02    3.35
 -10  -3 -17   -0.53    3.75
 -10   3 -17    0.01    3.93
 -10  -3 -16    9.69    4.83
 -10   3 -16   13.36    4.64
 -10  -3 -15   -1.84    2.56
 -10   3 -15   -2.48    3.49
 -10  -3 -14    3.19    4.12
 -10   3 -14    2.53    2.82
 -10  -3 -13   26.96    6.14
 -10   3 -13   29.69    7.27
 -10  -3 -12   12.49    5.31
 -10   3 -12   11.02    5.12
 -10  -3 -11    4.41    3.38
 -10   3 -11    1.26    2.17
 -10  -3 -10   32.11    6.54
 -10   3 -10   29.81    6.15
 -10  -3  -9    9.09    4.11
 -10   3  -9   11.54    3.23
 -10  -3  -8    1.28    3.00
 -10   3  -8    0.42    1.61
 -10   3  -7   46.41    7.99
 -10  -3  -7   50.28    8.33
 -10  -3  -6   14.86    5.23
 -10   3  -6   26.22    6.34
 -10  -3  -5    8.42    3.93
 -10   3  -5    2.45    2.69
 -10  -3  -4   25.37    6.04
 -10   3  -4   17.01    4.43
 -10  -3  -3    4.01    4.35
 -10   3  -3   -1.30    2.32
 -10  -3  -2    5.85    1.43
 -10   3  -2   12.78    5.57
 -10  -3  -1   31.87    7.04
 -10   3  -1   30.25    6.20
 -10  -3   0   -0.45    3.66
 -10   3   0   10.17    3.80
 -10  -3   1   30.49    6.41
 -10   3   1   29.88    5.98
 -10  -3   2    8.05    4.28
 -10   3   2   11.48    3.59
 -10  -3   3   -0.81    1.92
 -10   3   3    7.11    3.53
 -10   3   4   24.41    5.80
 -10  -3   4   23.33    5.66
 -10   3   5    3.49    2.89
 -10  -3   5    4.67    3.36
 -10   3   6   18.86    4.75
 -10  -3   6   23.98    5.90
 -10  -3   7   55.97    8.96
 -10   3   7   59.12    7.83
 -10   3   8    1.71    2.57
 -10  -3   8    2.09    2.07
 -10  -3   9   11.53    4.69
 -10  -3  10   30.04    6.15
 -10  -3  11    2.71    3.72
 -10  -3  12   11.47    4.04
 -10  -3  13   36.51    8.05
 -10  -3  14    1.50    2.66
 -10  -3  15    0.07    3.20
 -10  -3  16    8.30    4.14
 -10   4 -25   37.90    9.82
 -10   4 -24   73.57   12.80
 -10   4 -23   10.09    6.69
 -10   4 -22   20.21    7.09
 -10   4 -21   62.03   10.56
 -10   4 -20   31.09    7.47
 -10  -4 -19   47.66    9.45
 -10   4 -19   39.56    8.70
 -10  -4 -18  111.32   14.53
 -10   4 -18  132.22   15.45
 -10  -4 -17  107.01   13.77
 -10   4 -17  131.17   14.91
 -10  -4 -16   56.29   10.00
 -10   4 -16   52.19    9.59
 -10  -4 -15  151.63   16.21
 -10   4 -15  150.01   15.64
 -10  -4 -14  128.22   14.72
 -10   4 -14  131.01   14.34
 -10  -4 -13   64.42   10.42
 -10   4 -13   86.99   12.00
 -10  -4 -12  171.18   16.27
 -10   4 -12  163.44   16.54
 -10  -4 -11  346.05   23.27
 -10   4 -11  405.92   25.21
 -10  -4 -10  119.11   13.88
 -10   4 -10  127.53   14.07
 -10  -4  -9  109.61   12.94
 -10   4  -9  126.48   13.82
 -10  -4  -8  150.50   14.95
 -10   4  -8  128.30   13.83
 -10   4  -7   48.70    8.34
 -10  -4  -7   49.09    8.46
 -10  -4  -6   49.89    8.97
 -10   4  -6   52.13    8.15
 -10  -4  -5  253.33   19.21
 -10   4  -5  235.82   18.03
 -10  -4  -4   86.56   11.30
 -10   4  -4   77.24   10.34
 -10  -4  -3   91.94   11.73
 -10   4  -3   91.22   11.11
 -10  -4  -2  394.96   23.84
 -10   4  -2  368.56   21.76
 -10  -4  -1  318.73   21.66
 -10   4  -1  375.90   21.82
 -10  -4   0  191.63   16.72
 -10   4   0  201.03   15.87
 -10  -4   1  366.59   23.15
 -10   4   1  372.98   21.51
 -10  -4   2  373.64   22.97
 -10   4   2  352.11   20.73
 -10  -4   3   98.38   11.99
 -10   4   3   86.09   10.43
 -10  -4   4   90.81   11.33
 -10   4   4   97.95   11.00
 -10  -4   5  271.73   19.81
 -10   4   5  284.42   18.14
 -10  -4   6   38.52    7.71
 -10   4   6   51.90    7.94
 -10   4   7   50.80    7.56
 -10  -4   7   49.11    8.72
 -10  -4   8  153.69   15.33
 -10  -4   9  130.23   14.06
 -10  -4  10  100.40   12.87
 -10  -4  11  379.84   24.68
 -10  -4  12  123.68   14.44
 -10  -4  13   79.32   12.15
 -10  -4  14  122.72   14.37
 -10  -4  15  144.71   16.42
 -10  -4  16   58.98   11.33
 -10  -4  17  108.17   14.16
 -10   5 -23    1.75    4.18
 -10   5 -22   13.30    6.05
 -10   5 -21   13.79    5.72
 -10   5 -20    4.00    2.68
 -10   5 -19    5.58    3.62
 -10  -5 -18    2.39    3.20
 -10   5 -18    5.69    3.90
 -10   5 -17   -0.55    2.34
 -10  -5 -17   -1.35    3.90
 -10   5 -16   20.28    6.42
 -10  -5 -16   19.13    4.72
 -10   5 -15   40.01    8.20
 -10  -5 -15   38.29    8.40
 -10   5 -14    5.03    4.64
 -10  -5 -14    5.08    4.34
 -10   5 -13    4.20    4.95
 -10  -5 -13    0.37    4.04
 -10   5 -12   -1.63    3.08
 -10  -5 -12    0.35    2.29
 -10   5 -11   17.90    4.60
 -10  -5 -11    4.81    4.52
 -10   5 -10   40.12    8.51
 -10  -5 -10   34.82    7.57
 -10   5  -9    8.37    3.89
 -10  -5  -9   14.71    5.50
 -10  -5  -8   41.62    8.42
 -10   5  -8   47.80    9.35
 -10   5  -7   26.30    6.91
 -10  -5  -7   23.16    6.74
 -10   5  -6   11.36    5.20
 -10  -5  -6    4.01    2.66
 -10   5  -5   10.22    5.29
 -10  -5  -5    8.53    4.48
 -10  -5  -4   51.25    9.54
 -10   5  -4   46.63    8.67
 -10   5  -3   18.83    4.96
 -10  -5  -3   14.90    4.17
 -10  -5  -2   67.20   10.80
 -10   5  -2   73.36   10.04
 -10  -5  -1  167.50   16.39
 -10   5  -1  200.38   16.85
 -10  -5   0  164.37   16.05
 -10   5   0  192.63   16.34
 -10  -5   1  192.40   17.45
 -10   5   1  196.17   16.30
 -10  -5   2   57.14    9.14
 -10   5   2   73.64    9.83
 -10  -5   3    8.48    2.93
 -10   5   3   23.62    5.95
 -10  -5   4   41.97    8.57
 -10   5   4   45.10    7.53
 -10  -5   5   11.30    3.74
 -10   5   5   20.98    5.42
 -10  -5   6    9.93    6.15
 -10   5   6   10.78    4.48
 -10  -5   7   24.85    6.22
 -10  -5   8   38.24    7.68
 -10  -5   9   -0.23    2.32
 -10  -5  10   36.55    7.86
 -10  -5  11   12.42    4.13
 -10  -5  12    1.91    3.12
 -10  -5  13   -1.84    3.96
 -10  -5  14    0.10    3.07
 -10  -5  15   41.35    9.24
 -10  -5  16   20.28    6.43
 -10  -5  17   -1.61    3.59
 -10  -5  18   -1.23    3.20
 -10   6 -22   35.04    8.34
 -10   6 -21  142.23   16.73
 -10   6 -20   88.64   12.95
 -10   6 -19   24.63    8.91
 -10   6 -18   66.17   11.53
 -10   6 -17   96.83   13.54
 -10  -6 -16   80.74   12.68
 -10   6 -16   92.35   13.03
 -10  -6 -15  184.01   18.85
 -10   6 -15  236.08   20.86
 -10  -6 -14  122.18   14.85
 -10   6 -14   83.57   12.39
 -10  -6 -13   78.65   12.51
 -10   6 -13   88.26   12.67
 -10  -6 -12   62.76   11.02
 -10   6 -12   66.57   10.68
 -10  -6 -11   99.00   13.50
 -10   6 -11  118.56   14.39
 -10  -6 -10   50.99    9.69
 -10   6 -10   43.54    9.16
 -10  -6  -9  119.74   14.18
 -10   6  -9  121.02   14.38
 -10  -6  -8  117.32   14.21
 -10   6  -8  118.39   13.94
 -10  -6  -7   25.84    7.59
 -10   6  -7   21.34    6.78
 -10  -6  -6   62.79   10.58
 -10   6  -6   55.69    9.51
 -10  -6  -5  189.56   17.81
 -10   6  -5  181.94   17.08
 -10  -6  -4   90.37   12.38
 -10   6  -4  116.94   13.41
 -10   6  -3    5.15    4.04
 -10  -6  -3    5.49    2.15
 -10  -6  -2   56.37    9.70
 -10   6  -2   73.41   10.72
 -10  -6  -1  185.63   17.76
 -10   6  -1  140.96   14.60
 -10   6   0  172.34   16.68
 -10  -6   0  161.22   16.08
 -10   6   1  177.81   16.55
 -10  -6   1  122.95   14.28
 -10   6   2   83.03   11.34
 -10  -6   2   62.14   11.01
 -10  -6   3    1.32    2.82
 -10   6   3    5.63    2.53
 -10   6   4   84.10   10.81
 -10  -6   4   97.55   13.82
 -10   6   5  211.52   17.00
 -10  -6   5  197.78   18.09
 -10  -6   6   53.61    9.52
 -10  -6   7   22.95    6.77
 -10  -6   8  107.63   13.77
 -10  -6   9  126.14   15.16
 -10  -6  10   67.62   11.26
 -10  -6  11  107.89   14.37
 -10  -6  12   83.77   12.77
 -10  -6  13   86.26   12.38
 -10  -6  14  117.39   15.29
 -10  -6  15  217.07   20.60
 -10  -6  16   80.91   13.30
 -10  -6  17   84.65   13.28
 -10  -6  18   75.53   12.28
 -10  -6  19   24.72    8.49
 -10   7 -19    2.19    3.35
 -10   7 -18   11.82    4.61
 -10   7 -17    9.22    4.87
 -10   7 -16    9.49    2.71
 -10  -7 -15    9.10    6.13
 -10   7 -15    7.76    4.32
 -10  -7 -14   17.51    4.79
 -10   7 -14   26.00    6.56
 -10  -7 -13   17.31    6.82
 -10   7 -13    6.84    3.53
 -10  -7 -12   19.33    5.57
 -10   7 -12    4.04    3.19
 -10  -7 -11   61.49   11.08
 -10   7 -11   41.87    9.75
 -10  -7 -10   57.43   10.80
 -10   7 -10   53.98    9.69
 -10  -7  -9   49.01    9.36
 -10   7  -9   39.98    8.83
 -10  -7  -8   18.60    5.75
 -10   7  -8   43.47    9.03
 -10  -7  -7    1.01    3.13
 -10   7  -7    1.78    3.76
 -10  -7  -6    3.61    3.66
 -10   7  -6   11.48    4.67
 -10  -7  -5    2.96    3.36
 -10   7  -5   13.70    5.23
 -10  -7  -4    7.24    4.18
 -10   7  -4    7.76    4.63
 -10  -7  -3   23.79    7.00
 -10   7  -3   16.13    4.87
 -10  -7  -2   29.01    7.70
 -10   7  -2   23.02    6.35
 -10   7  -1   80.72   11.41
 -10  -7  -1   82.41   12.57
 -10  -7   0   33.72    8.03
 -10   7   0   52.67    9.73
 -10   7   1   73.03   11.13
 -10  -7   1   70.64   11.06
 -10  -7   2   21.26    7.72
 -10   7   2   31.82    6.92
 -10  -7   3   15.05    4.25
 -10   7   3   19.28    5.71
 -10  -7   4    5.79    4.66
 -10  -7   5    6.75    4.85
  10   7   5    2.62    2.20
 -10  -7   6    7.91    5.58
  10   7   6    5.09    4.16
 -10  -7   7    2.71    2.74
  10   7   7    8.19    5.49
 -10  -7   8   32.35    8.72
 -10  -7   9   24.89    7.26
 -10  -7  10   50.73    9.09
 -10  -7  11   42.88    9.41
 -10  -7  12    4.85    3.31
 -10  -7  13   15.85    6.82
 -10  -7  14   11.64    6.24
 -10  -7  15   12.54    4.87
 -10  -7  16    9.76    2.72
 -10  -7  17    7.66    3.95
 -10  -7  18   16.02    6.93
 -10  -7  19   13.80    6.99
 -10   8 -17    4.99    3.69
  10   8 -17   21.58    8.74
 -10   8 -16   -5.37    5.50
  10   8 -16   10.19    6.07
 -10   8 -15   80.30   12.95
 -10   8 -14   96.54   13.94
 -10  -8 -13   29.09    8.75
 -10   8 -13   26.74    9.08
 -10  -8 -12   25.78    9.64
 -10   8 -12   36.67    8.97
 -10  -8 -11   46.05    9.92
 -10   8 -11   58.36   10.23
 -10  -8 -10   13.44    7.15
 -10   8 -10   13.84    4.99
 -10   8  -9   61.60   11.37
 -10  -8  -9   76.13   13.49
 -10   8  -8   96.66   13.56
 -10  -8  -8   99.12   14.35
 -10  -8  -7   21.05    6.38
 -10   8  -7   24.71    6.50
 -10   8  -6  108.18   14.03
 -10  -8  -6   91.77   13.14
 -10   8  -5  184.75   17.86
 -10  -8  -5  192.46   19.40
 -10   8  -4  126.21   15.39
 -10  -8  -4   74.53   12.25
 -10  -8  -3   29.77    7.16
 -10   8  -3   23.86    6.69
 -10  -8  -2   24.05    7.10
 -10   8  -2   21.89    6.46
  10   8  -2   17.42    6.28
 -10  -8  -1   36.94    8.85
 -10   8  -1   38.25    9.10
  10   8  -1   47.67    9.33
 -10   8   0   48.71    9.60
  10   8   0   26.64    8.37
 -10  -8   0   58.77   11.35
 -10  -8   1   24.84    7.37
 -10   8   1   44.96    9.03
  10   8   1   44.58    8.41
 -10  -8   2   35.20    8.23
 -10   8   2   32.15    8.32
  10   8   2   38.79    8.84
 -10  -8   3   18.05    5.06
  10   8   3   28.25    7.16
  10   8   4  107.41   14.67
 -10  -8   4  100.17   14.56
  10   8   5  176.00   18.54
 -10  -8   5  192.44   19.60
  10   8   6  102.02   14.27
 -10  -8   6  111.81   14.33
  10   8   7    2.29    2.42
 -10  -8   7   20.88    5.95
 -10  -8   8   81.96   13.31
 -10  -8   9   77.64   13.12
 -10  -8  10    5.54    2.92
 -10  -8  11   36.45    8.79
 -10  -8  12   27.84    7.75
 -10  -8  13   15.52    6.59
 -10  -8  14   69.43   12.35
 -10  -8  15   92.78   14.47
 -10  -8  16    7.68    4.22
 -10  -8  17    6.71    5.56
 -10   9 -13    4.77    4.76
 -10  -9 -12   -1.96    4.51
 -10   9 -12   -1.68    2.21
  10   9 -12    6.67    4.70
 -10  -9 -11   21.72    8.84
 -10   9 -11   15.74    6.00
  10   9 -11   19.06    7.06
 -10  -9 -10   12.45    5.25
 -10   9 -10   14.87    5.07
  10   9 -10   14.86    7.15
 -10  -9  -9   -3.90    4.49
 -10   9  -9    1.82    3.14
  10   9  -9    2.56    4.73
 -10  -9  -8    8.59    4.05
 -10   9  -8    6.20    2.76
  10   9  -8   15.90    6.08
 -10  -9  -7    4.49    4.58
 -10   9  -7    5.75    5.40
  10   9  -7    8.59    5.92
 -10  -9  -6    9.09    5.87
 -10   9  -6    8.94    3.86
  10   9  -6    5.28    5.11
 -10  -9  -5    1.94    3.04
 -10   9  -5    1.00    2.55
  10   9  -5    2.13    3.29
 -10  -9  -4   14.92    6.55
 -10   9  -4   15.28    5.76
  10   9  -4   15.02    5.59
 -10  -9  -3   13.80    3.55
 -10   9  -3    6.82    3.64
  10   9  -3   14.34    5.00
 -10  -9  -2    2.37    3.54
 -10   9  -2    2.57    3.08
  10   9  -2   10.42    5.63
 -10  -9  -1   21.11    7.42
 -10   9  -1   15.46    5.96
  10   9  -1   13.76    4.75
 -10  -9   0   19.34    5.91
 -10   9   0    8.08    4.20
  10   9   0   18.27    7.06
 -10   9   1   14.01    7.56
  10   9   1   27.62    9.38
 -10  -9   1   17.24    6.53
  10   9   2   -6.73    6.22
 -10  -9   2   12.62    4.96
  10   9   3   25.55    7.45
 -10  -9   3   24.94    8.15
  10   9   4    4.57    3.21
 -10  -9   4    8.27    4.47
  10   9   5    8.31    6.12
 -10  -9   5   -5.62    5.17
  10   9   6   25.89    9.43
 -10  -9   6    7.12    4.64
 -10  -9   7    2.06    3.32
 -10  -9   8   23.64    7.74
 -10  -9   9    0.32    2.84
 -10  -9  10   18.23    6.75
 -10  -9  11   16.32    5.87
 -10  -9  12   -4.12    6.20
 -10  -9  13    4.24    3.41
 -10  10  -5   34.68    8.81
  10  10  -5   25.36    7.96
 -10 -10  -5   20.13    8.28
 -10  10  -4   29.86    8.61
  10  10  -4   27.26    8.01
 -10 -10  -4   30.75    9.95
 -10  10  -3    0.64    3.37
  10  10  -3    9.83    6.74
 -10 -10  -3    4.72    5.72
 -10  10  -2   41.89   10.12
  10  10  -2   59.01   11.68
 -10 -10  -2   43.13   10.07
 -10  10  -1   25.04    9.49
  10  10  -1   27.21    6.98
 -10 -10  -1   25.36    8.03
  10  10   0    4.34    5.17
 -10 -10   0    0.74    4.46
  10  10   1   13.21    7.44
 -10 -10   1   21.67    6.42
  10  10   2   55.63   12.01
 -10 -10   2   59.66   11.73
  10  10   3    7.56    5.87
 -10 -10   3    0.02    5.17
  10  10   4   36.82    8.75
 -10 -10   4   56.01   11.50
  10  10   5   31.16   10.17
 -10 -10   5   50.00   10.91
 -11   0 -24    4.54    4.42
 -11   0 -23   -0.40    3.09
 -11   0 -22   -1.60    3.59
 -11   0 -21    4.76    5.35
 -11   0 -20    3.29    2.46
 -11   0 -19    6.38    5.74
 -11   0 -18    0.82    2.47
 -11   0 -17    0.99    2.38
 -11   0 -16    1.96    2.01
 -11   0 -15   -0.68    2.42
 -11   0 -14   -3.75    4.20
 -11   0 -13   -2.87    2.48
 -11   0 -12    1.69    2.24
 -11   0 -11   -1.49    3.56
 -11   0 -10   -0.82    2.49
 -11   0  -9   -0.30    2.20
 -11   0  -8   -0.30    2.74
 -11   0  -7   -0.86    3.75
 -11   0  -6   -0.74    1.88
 -11   0  -5   -0.99    3.41
 -11   0  -4   -0.96    1.80
 -11   0  -3    1.19    1.88
 -11   0  -2   -0.11    1.97
 -11   0  -1   -1.26    2.66
 -11   0   0    0.42    2.07
 -11   0   1    0.97    1.58
 -11   0   2   -0.61    2.36
 -11   0   3   -1.39    3.12
 -11   0   4    3.51    3.07
 -11   0   5    0.04    1.92
 -11   0   6    1.52    2.76
 -11   0   7    2.36    2.96
 -11   0   8    0.83    1.98
 -11   0   9    2.28    2.91
 -11   0  10    2.19    2.54
 -11   0  11   -1.57    2.01
 -11   0  12   -0.03    1.80
 -11   1 -25   33.48    8.86
 -11   1 -24  134.84   17.08
 -11   1 -23   20.17    6.30
 -11  -1 -23    8.75    4.63
 -11   1 -22    3.28    5.00
 -11  -1 -22    1.59    2.91
 -11   1 -21   37.17    7.89
 -11  -1 -21   20.21    6.36
 -11   1 -20   32.03    8.26
 -11  -1 -20   28.77    6.72
 -11  -1 -19   84.09   13.43
 -11   1 -19   87.05   12.87
 -11  -1 -18  439.93   27.98
 -11   1 -18  383.49   25.75
 -11   1 -17   30.79    6.91
 -11  -1 -17   31.57    7.23
 -11   1 -16   18.91    6.41
 -11  -1 -16    4.93    2.99
 -11  -1 -15  123.96   14.42
 -11   1 -15  119.50   13.33
 -11  -1 -14  389.41   24.83
 -11   1 -14  368.47   24.03
 -11  -1 -13  637.70   31.57
 -11   1 -13  595.10   30.09
 -11  -1 -12  734.23   32.86
 -11   1 -12  755.29   33.26
 -11   1 -11   56.98    9.57
 -11  -1 -11   37.54    8.14
 -11  -1 -10  348.23   22.36
 -11   1 -10  348.23   22.41
 -11  -1  -9  325.82   21.53
 -11   1  -9  301.57   20.53
 -11  -1  -8  346.24   21.67
 -11   1  -8  336.95   21.59
 -11  -1  -7  350.33   21.96
 -11   1  -7  344.76   21.41
 -11  -1  -6  253.22   18.93
 -11   1  -6  229.56   17.36
 -11  -1  -5   62.98    9.20
 -11   1  -5   68.27    9.64
 -11  -1  -4   68.19    9.56
 -11   1  -4   66.40    9.36
 -11  -1  -3  384.34   22.56
 -11   1  -3  372.33   21.44
 -11  -1  -2 1108.55   38.15
 -11   1  -2 1127.55   37.31
 -11  -1  -1   58.35    8.40
 -11   1  -1   51.44    7.91
 -11   1   0    4.59    2.82
 -11  -1   0    4.03    4.17
 -11   1   1   41.31    6.59
 -11  -1   1   56.37    8.39
 -11  -1   2 1258.35   39.43
 -11   1   2 1196.91   38.18
 -11  -1   3  402.14   22.13
 -11   1   3  377.12   21.13
 -11  -1   4   68.32    9.32
 -11   1   4   61.96    8.71
 -11  -1   5   77.89   10.23
 -11   1   5   77.22    9.68
 -11  -1   6  259.59   18.26
 -11   1   6  252.41   17.31
 -11  -1   7  373.65   22.15
 -11   1   7  322.74   19.50
 -11  -1   8  281.63   19.62
 -11   1   8  308.41   18.93
 -11  -1   9  231.70   17.59
 -11   1   9  292.51   18.66
 -11  -1  10  342.61   21.31
 -11   1  10  343.91   19.85
 -11  -1  11   39.47    7.17
 -11  -1  12  712.43   31.09
 -11  -1  13  615.94   29.52
 -11   2 -25   15.11    6.35
 -11   2 -24    5.36    3.54
 -11   2 -23   56.55   11.50
 -11   2 -22   -0.38    3.95
 -11  -2 -22    3.80    3.40
 -11   2 -21   -2.13    3.68
 -11  -2 -21    7.96    6.15
 -11   2 -20   12.18    4.23
 -11  -2 -20   29.84    8.41
 -11   2 -19    0.74    2.57
 -11  -2 -19   -0.54    2.57
 -11   2 -18    7.08    4.77
 -11  -2 -18    3.68    2.94
 -11   2 -17    2.24    2.27
 -11  -2 -17    3.03    2.60
 -11   2 -16    3.89    4.05
 -11  -2 -16    3.05    2.29
 -11   2 -15   -1.69    4.03
 -11  -2 -15   -0.93    2.75
 -11   2 -14   19.42    5.90
 -11  -2 -14   21.04    6.10
 -11   2 -13   46.16    8.50
 -11  -2 -13   43.85    8.02
 -11   2 -12    6.98    5.62
 -11  -2 -12    1.91    3.50
 -11   2 -11   16.94    6.56
 -11  -2 -11    2.95    3.61
 -11   2 -10   10.43    5.17
 -11  -2 -10    6.34    4.39
 -11   2  -9    7.06    4.93
 -11  -2  -9    5.45    3.41
 -11   2  -8  120.14   12.93
 -11  -2  -8  114.54   12.60
 -11   2  -7   29.87    6.39
 -11  -2  -7   31.73    7.14
 -11   2  -6    4.77    2.78
 -11  -2  -6    3.68    1.82
 -11  -2  -5   54.37    8.50
 -11   2  -5   42.94    8.11
 -11   2  -4    5.25    3.26
 -11  -2  -4    5.28    2.49
 -11  -2  -3  546.14   26.96
 -11   2  -3  499.30   25.72
 -11   2  -2   30.11    5.94
 -11  -2  -2   29.93    6.81
 -11  -2  -1  394.84   22.69
 -11   2  -1  379.49   21.78
 -11   2   0   -0.05    2.23
 -11  -2   0    4.90    3.52
 -11  -2   1  381.35   22.44
 -11   2   1  404.22   21.92
 -11   2   2   19.38    5.17
 -11  -2   2   29.01    6.32
 -11  -2   3  508.69   26.12
 -11   2   3  544.76   25.57
 -11   2   4    9.97    4.43
 -11  -2   4    6.94    2.95
 -11  -2   5   42.26    7.42
 -11   2   5   63.51    8.59
 -11  -2   6    4.52    3.18
 -11   2   6    2.41    2.00
 -11  -2   7   20.79    5.38
 -11   2   7   23.13    5.34
 -11  -2   8   99.19   11.73
 -11   2   8  121.33   11.69
 -11  -2   9    6.12    3.07
 -11   2   9    3.25    1.70
 -11  -2  10    8.87    4.17
 -11  -2  11    6.00    4.03
 -11  -2  12    7.77    4.60
 -11  -2  13   35.77    7.94
 -11  -2  14   28.81    6.52
 -11  -2  15   -1.00    3.77
 -11   3 -25   91.04   14.65
 -11   3 -24  114.99   15.82
 -11   3 -23   71.51   12.63
 -11   3 -22   14.51    5.88
 -11   3 -21   25.26    7.84
 -11  -3 -21   10.15    4.83
 -11   3 -20   50.68   10.72
 -11  -3 -20   53.44    9.74
 -11   3 -19   39.20    9.52
 -11  -3 -19   35.63    8.53
 -11   3 -18  175.90   17.90
 -11  -3 -18  197.04   18.94
 -11   3 -17  106.66   13.76
 -11  -3 -17   96.06   13.70
 -11   3 -16    0.65    3.60
 -11  -3 -16    3.83    3.68
 -11   3 -15   52.85    9.20
 -11  -3 -15   38.59    8.71
 -11   3 -14  158.15   16.10
 -11  -3 -14  162.23   16.37
 -11   3 -13  141.49   14.89
 -11  -3 -13  127.82   14.75
 -11   3 -12  155.28   15.75
 -11  -3 -12  148.57   14.93
 -11   3 -11  259.00   20.40
 -11  -3 -11  236.99   19.02
 -11   3 -10   65.15   10.08
 -11  -3 -10   59.03    9.44
 -11   3  -9  960.95   37.76
 -11  -3  -9  968.70   37.40
 -11   3  -8  383.03   23.78
 -11  -3  -8  402.52   24.38
 -11   3  -7   76.02   10.67
 -11  -3  -7  112.16   12.74
 -11   3  -6  104.66   12.28
 -11  -3  -6   97.65   12.07
 -11   3  -5  630.60   29.99
 -11  -3  -5  688.96   31.19
 -11   3  -4  431.05   24.69
 -11  -3  -4  450.15   25.45
 -11   3  -3 2298.86   56.47
 -11  -3  -3 2403.79   58.29
 -11   3  -2  465.63   25.29
 -11  -3  -2  575.00   28.59
 -11   3  -1 2080.78   52.74
 -11  -3  -1 2132.89   54.79
 -11   3   0  156.92   14.43
 -11  -3   0  133.67   13.92
 -11  -3   1 2034.54   54.47
 -11   3   1 2151.20   53.39
 -11  -3   2  572.99   28.78
 -11   3   2  538.33   25.74
 -11  -3   3 2342.98   58.21
 -11   3   3 2291.99   53.21
 -11  -3   4  425.91   25.20
 -11   3   4  414.34   22.30
 -11  -3   5  647.86   30.45
 -11   3   5  709.28   28.99
 -11  -3   6  112.58   12.81
 -11   3   6   88.47   10.58
 -11  -3   7   96.06   12.30
 -11   3   7   91.36   10.86
 -11  -3   8  406.16   24.71
 -11   3   8  438.43   22.68
 -11  -3   9 1062.26   40.13
 -11  -3  10   73.63   10.54
 -11  -3  11  248.12   19.81
 -11  -3  12  167.31   16.62
 -11  -3  13  124.10   14.26
 -11  -3  14  168.05   16.57
 -11  -3  15   40.44    8.95
 -11  -3  16    8.52    7.92
 -11   4 -24   27.15    7.82
 -11   4 -23   12.95    6.51
 -11   4 -22   43.77    9.35
 -11   4 -21   19.35    5.97
 -11   4 -20    2.12    3.48
 -11  -4 -19    3.68    4.11
 -11   4 -19    4.29    2.91
 -11  -4 -18    1.54    3.55
 -11   4 -18    6.30    4.48
 -11  -4 -17    0.62    3.41
 -11   4 -17   -2.12    4.39
 -11  -4 -16    3.02    2.69
 -11   4 -16    3.28    2.66
 -11  -4 -15   12.69    4.93
 -11   4 -15   21.24    7.61
 -11  -4 -14   -2.68    3.87
 -11   4 -14   -0.33    3.00
 -11  -4 -13    4.42    3.95
 -11   4 -13    0.73    2.06
 -11   4 -12   53.65    9.95
 -11  -4 -12   49.58    9.09
 -11  -4 -11   17.57    5.68
 -11   4 -11   22.07    6.26
 -11   4 -10   56.93    9.68
 -11  -4 -10   57.39   10.41
 -11  -4  -9    3.21    3.23
 -11   4  -9   18.80    5.87
 -11  -4  -8  150.64   15.58
 -11   4  -8  156.83   15.16
 -11  -4  -7   25.76    6.25
 -11   4  -7   17.43    5.39
 -11  -4  -6    4.05    2.90
 -11   4  -6   16.88    5.79
 -11  -4  -5    9.67    3.67
 -11   4  -5    3.02    3.24
 -11  -4  -4  943.82   37.96
 -11   4  -4 1030.17   38.05
 -11  -4  -3  117.18   13.61
 -11   4  -3  103.05   12.23
 -11  -4  -2  227.87   18.11
 -11   4  -2  207.24   16.81
 -11  -4  -1  350.17   23.36
 -11   4  -1  320.23   20.90
 -11  -4   0    7.86    3.77
 -11   4   0   10.52    4.02
 -11   4   1  352.81   21.97
 -11  -4   1  353.83   23.36
 -11   4   2  217.08   17.41
 -11  -4   2  251.02   19.26
 -11   4   3  135.24   13.49
 -11  -4   3  118.61   13.43
 -11   4   4 1035.28   37.30
 -11  -4   4 1023.70   39.54
 -11  -4   5    2.77    2.14
 -11   4   5    4.33    3.44
 -11  -4   6    9.68    4.82
 -11   4   6    4.57    2.53
 -11   4   7   36.41    6.98
 -11  -4   7   23.54    6.55
 -11  -4   8  134.32   14.92
 -11  -4   9    8.02    5.07
 -11  -4  10   56.26    9.89
 -11  -4  11   30.00    6.88
 -11  -4  12   47.10    9.09
 -11  -4  13    4.21    4.05
 -11  -4  14    8.01    5.01
 -11  -4  15   15.70    5.54
 -11  -4  16    1.29    2.25
 -11  -4  17   10.54    7.55
 -11   5 -22   55.93   10.03
 -11   5 -21    4.70    3.08
 -11   5 -20   66.80   11.49
 -11   5 -19   28.07    7.38
 -11  -5 -18   56.06   11.92
 -11   5 -18   66.40   11.34
 -11  -5 -17   11.84    5.76
 -11   5 -17   30.14    7.93
 -11  -5 -16   15.59    5.97
 -11   5 -16    6.81    4.42
 -11  -5 -15   53.61   10.67
 -11   5 -15   49.86   10.02
 -11  -5 -14  138.31   16.33
 -11   5 -14  159.35   17.02
 -11  -5 -13   79.80   12.75
 -11   5 -13   96.04   13.37
 -11  -5 -12   42.92    9.08
 -11   5 -12   34.05    8.07
 -11  -5 -11    3.83    3.75
 -11   5 -11    3.11    2.63
 -11  -5 -10    8.95    5.15
 -11   5 -10    7.85    4.29
 -11  -5  -9  116.68   14.53
 -11   5  -9  127.58   14.15
 -11  -5  -8  472.77   28.54
 -11   5  -8  520.41   29.27
 -11  -5  -7   58.48   10.05
 -11   5  -7   55.76    9.33
 -11  -5  -6   44.53    9.10
 -11   5  -6   45.47    8.45
 -11  -5  -5    7.67    2.01
 -11   5  -5   16.37    5.48
 -11  -5  -4  489.21   28.23
 -11   5  -4  440.68   26.02
 -11  -5  -3   65.46   11.10
 -11   5  -3   73.61   10.41
 -11  -5  -2  208.78   18.50
 -11   5  -2  162.68   15.63
 -11  -5  -1  258.84   20.61
 -11   5  -1  242.18   19.02
 -11  -5   0    4.92    3.48
 -11   5   0    6.97    3.49
 -11  -5   1  248.69   20.15
 -11   5   1  282.13   19.72
 -11  -5   2  191.81   17.83
 -11   5   2  181.88   16.29
 -11  -5   3   65.24   10.71
 -11   5   3   71.87   10.36
 -11  -5   4  456.78   27.36
 -11   5   4  470.51   26.00
 -11  -5   5   25.18    7.17
 -11   5   5   16.47    5.25
 -11   5   6   65.02   10.00
 -11  -5   6   43.38    7.73
 -11  -5   7   57.42    9.60
 -11  -5   8  482.28   29.77
 -11  -5   9   96.58   13.38
 -11  -5  10    1.77    2.46
 -11  -5  11    0.41    2.66
 -11  -5  12   31.65    8.33
 -11  -5  13   66.93   11.53
 -11  -5  14  139.76   16.39
 -11  -5  15   38.36    8.92
 -11  -5  16    6.48    5.81
 -11  -5  17   34.37    9.07
 -11  -5  18   74.73   14.57
 -11   6 -20   57.64   10.91
 -11   6 -19    3.61    4.90
 -11   6 -18    8.59    5.04
 -11   6 -17    2.46    2.67
 -11  -6 -17   -6.43    5.64
 -11   6 -16    8.09    4.35
 -11  -6 -16    1.47    3.73
 -11   6 -15   21.52    7.72
 -11  -6 -15   13.17    5.17
 -11   6 -14   24.06    7.04
 -11  -6 -14   36.34    8.74
 -11   6 -13   15.74    5.73
 -11  -6 -13    9.81    5.69
 -11   6 -12   -0.14    2.51
 -11  -6 -12   -2.95    5.21
 -11   6 -11    0.90    1.92
 -11  -6 -11    4.39    3.52
 -11  -6 -10   71.41   11.54
 -11   6 -10   77.19   11.89
 -11   6  -9    8.09    5.05
 -11  -6  -9    5.11    5.07
 -11  -6  -8   47.33    9.87
 -11   6  -8   69.83   11.51
 -11   6  -7    7.21    4.44
 -11  -6  -7   11.93    4.92
 -11  -6  -6   60.48   11.39
 -11   6  -6   63.63   10.57
 -11   6  -5   13.64    4.99
 -11  -6  -5   16.57    6.02
 -11   6  -4    8.40    3.40
 -11  -6  -4    9.88    2.08
 -11   6  -3    5.50    4.02
 -11  -6  -3    0.12    2.77
 -11  -6  -2  142.90   16.03
 -11   6  -2  158.60   15.58
 -11  -6  -1   13.21    4.23
 -11   6  -1    9.11    3.88
 -11  -6   0    4.91    4.42
 -11   6   0    0.90    2.27
 -11  -6   1   18.21    5.87
 -11   6   1   10.36    4.02
 -11   6   2  146.24   15.22
 -11  -6   2  149.94   16.25
 -11  -6   3    0.51    3.20
 -11   6   3   -2.36    4.33
 -11  -6   4    1.09    4.02
 -11   6   4    3.69    2.91
 -11  -6   5   13.86    5.61
 -11  -6   6   66.10   11.01
 -11  -6   7    7.82    3.30
 -11  -6   8   44.00    8.81
 -11  -6   9    5.17    3.97
 -11  -6  10   60.03   11.15
 -11  -6  11    7.35    5.61
 -11  -6  12   -2.03    3.69
 -11  -6  13   22.67    8.13
 -11  -6  14   27.88    7.80
 -11  -6  15   17.45    7.19
 -11  -6  16    6.98    5.42
 -11  -6  17    0.11    4.11
 -11  -6  18    0.67    4.01
 -11  -6  19   15.44    8.01
 -11   7 -18   50.39    9.55
 -11   7 -17    5.36    2.88
 -11   7 -16   17.92    6.65
 -11   7 -15   39.82    9.03
 -11  -7 -15   59.80   12.06
 -11  -7 -14  131.36   17.31
 -11   7 -14  152.35   17.38
 -11  -7 -13   85.07   12.56
 -11   7 -13  123.95   15.74
 -11   7 -12   46.05    9.64
 -11  -7 -12   52.98   11.51
 -11   7 -11   13.89    7.02
 -11  -7 -11   30.32    8.24
 -11   7 -10    3.69    3.85
 -11  -7 -10    4.15    4.70
 -11  -7  -9   48.85   10.10
 -11   7  -9   64.78   11.23
 -11  -7  -8  238.64   21.25
 -11   7  -8  237.59   20.46
 -11  -7  -7  226.32   20.36
 -11   7  -7  186.58   18.36
 -11   7  -6   98.53   13.14
 -11  -7  -6   86.51   12.67
 -11  -7  -5   14.41    4.80
 -11   7  -5   13.18    5.53
 -11   7  -4  104.54   13.41
 -11  -7  -4   78.92   12.31
 -11   7  -3  142.15   15.36
 -11  -7  -3  144.09   16.12
 -11   7  -2   47.09    8.80
 -11  -7  -2   49.54    9.48
 -11   7  -1    4.14    2.04
 -11  -7  -1   18.48    5.38
 -11   7   0    3.69    2.50
 -11  -7   0    0.56    4.35
 -11   7   1   10.33    4.02
 -11  -7   1    5.92    4.28
 -11  -7   2   45.32    9.16
 -11   7   2   41.92    9.20
 -11   7   3  143.42   15.87
 -11  -7   3  164.21   17.65
 -11  -7   4   86.28   12.67
 -11  -7   5    5.91    5.10
 -11  -7   6   81.11   13.12
 -11  -7   7  187.13   19.41
 -11  -7   8  214.45   20.22
 -11  -7   9   54.61   10.81
 -11  -7  10    8.46    4.26
 -11  -7  11   19.93    7.51
 -11  -7  12   59.96   11.46
 -11  -7  13  103.13   15.00
 -11  -7  14  144.34   17.86
 -11  -7  15   37.12    9.18
 -11  -7  16   14.55    7.07
 -11  -7  17    2.84    6.05
 -11  -7  18   31.76    8.44
 -11   8 -15   10.54    5.46
 -11  -8 -14    1.80    3.70
 -11   8 -14    5.61    4.41
 -11  -8 -13    6.82    5.62
 -11   8 -13    4.84    2.88
 -11  -8 -12    5.81    3.19
 -11   8 -12    7.93    5.56
 -11  -8 -11    6.71    4.54
 -11   8 -11    2.92    4.15
 -11  -8 -10    0.89    4.31
 -11   8 -10   -0.05    2.34
 -11  -8  -9    4.80    4.56
 -11   8  -9   10.96    3.72
 -11  -8  -8   12.14    7.42
 -11   8  -8    3.53    2.69
 -11  -8  -7   -2.74    4.74
 -11   8  -7   -2.98    3.49
 -11  -8  -6    6.94    6.34
 -11   8  -6    5.28    3.47
 -11  -8  -5    3.06    4.27
 -11   8  -5   11.50    4.67
 -11  -8  -4    0.11    4.22
 -11   8  -4    2.18    2.45
 -11  -8  -3   -2.83    2.45
 -11   8  -3   -3.77    3.55
 -11  -8  -2    8.22    4.26
 -11   8  -2   10.77    4.52
 -11   8  -1   57.78   10.71
 -11  -8  -1   64.93   11.28
 -11  -8   0   16.57    6.36
 -11   8   0    5.41    3.71
 -11  -8   1   41.35    9.84
 -11   8   1   71.88   11.17
  11   8   1   65.11   11.10
 -11  -8   2   -0.69    5.62
 -11   8   2    3.52    2.92
  11   8   2   -0.90    4.45
 -11  -8   3    5.14    5.74
  11   8   3   -1.44    4.78
 -11  -8   4   12.44    7.94
  11   8   4    2.63    3.26
 -11  -8   5   -0.84    2.86
  11   8   5    3.93    3.54
 -11  -8   6    5.76    4.49
  11   8   6    7.90    4.48
 -11  -8   7    4.15    3.08
 -11  -8   8   11.93    5.63
 -11  -8   9    5.31    4.65
 -11  -8  10    5.72    3.78
 -11  -8  11    5.56    3.25
 -11  -8  12    7.93    5.34
 -11  -8  13    5.42    3.53
 -11  -8  14   -0.74    3.51
 -11  -8  15    2.70    3.60
 -11  -9 -11    9.16    5.32
 -11   9 -11    3.55    3.11
 -11  -9 -10    3.04    6.61
 -11   9 -10    6.22    3.13
  11   9 -10   -3.85    4.20
 -11  -9  -9   52.68   11.37
 -11   9  -9   44.73    9.99
  11   9  -9   30.54    9.87
 -11  -9  -8   36.76    9.75
 -11   9  -8   34.04    7.03
  11   9  -8   36.35   10.12
  11   9  -7  131.56   16.38
 -11   9  -7  107.47   13.83
 -11  -9  -7   95.23   15.40
 -11  -9  -6   31.44    9.43
 -11   9  -6   16.94    4.26
  11   9  -6   32.57    9.21
 -11  -9  -5   35.56   10.11
 -11   9  -5   32.03    8.49
  11   9  -5   41.44    8.61
 -11  -9  -4   12.77    5.79
 -11   9  -4    9.03    4.38
  11   9  -4   15.50    5.12
 -11   9  -3  240.44   22.24
 -11  -9  -3  199.74   20.55
 -11  -9  -2   49.75    9.51
 -11   9  -2   44.11    9.57
  11   9  -2   54.20   10.64
 -11  -9  -1    7.38    5.62
 -11   9  -1    5.36    2.61
  11   9  -1   -1.40    2.84
 -11  -9   0   13.21    6.21
 -11   9   0    4.77    4.19
  11   9   0   -0.09    3.81
 -11  -9   1    3.17    4.29
  11   9   1    5.05    3.98
  11   9   2   62.87   11.42
 -11  -9   2   41.66    9.96
  11   9   3  253.02   23.29
 -11  -9   3  290.48   24.92
  11   9   4    4.05    3.25
 -11  -9   4   15.57    5.44
  11   9   5   29.73    8.15
 -11  -9   5   33.05    9.37
 -11  -9   6   31.83    8.95
 -11  -9   7  112.58   15.50
 -11  -9   8   52.32   11.27
 -11  -9   9   36.16    9.26
 -11  -9  10   -0.78    3.98
 -11  -9  11   14.25    5.89
 -12   0 -24   30.93    8.30
 -12   0 -23   14.79    6.40
 -12   0 -22   13.57    6.38
 -12   0 -21    4.93    2.60
 -12   0 -20   64.18   10.70
 -12   0 -19  149.15   16.07
 -12   0 -18  105.38   13.63
 -12   0 -17  373.15   25.63
 -12   0 -16  199.73   18.72
 -12   0 -15   23.93    7.07
 -12   0 -14  494.08   28.45
 -12   0 -13  708.40   33.78
 -12   0 -12  378.65   24.36
 -12   0 -11  365.89   23.63
 -12   0 -10  496.82   27.35
 -12   0  -9   60.51    9.46
 -12   0  -8  269.91   19.84
 -12   0  -7   30.97    7.28
 -12   0  -6  253.96   19.25
 -12   0  -5  345.36   21.81
 -12   0  -4  191.26   16.08
 -12   0  -3   76.66   10.31
 -12   0  -2  795.96   32.68
 -12   0  -1 1462.61   44.86
 -12   0   0  600.96   28.66
 -12   0   1 1506.54   44.97
 -12   0   2  805.90   32.71
 -12   0   3   78.50   10.14
 -12   0   4  175.03   15.56
 -12   0   5  353.84   21.46
 -12   0   6  241.79   18.09
 -12   0   7   33.15    6.89
 -12   0   8  278.19   19.49
 -12   0   9   72.43   10.19
 -12   0  10  474.19   26.30
 -12   0  11  274.15   19.46
 -12   1 -25    9.96    7.90
 -12   1 -24   -1.93    5.40
 -12   1 -23    4.65    3.73
 -12  -1 -23   18.12    7.80
 -12   1 -22   26.89    8.30
 -12  -1 -22   22.83    8.23
 -12   1 -21   23.80    7.28
 -12  -1 -21   13.68    5.67
 -12   1 -20    9.06    3.75
 -12  -1 -20    5.30    3.45
 -12   1 -19   13.21    4.74
 -12  -1 -19   13.45    6.05
 -12   1 -18    2.12    3.43
 -12  -1 -18   -2.72    4.22
 -12   1 -17   27.20    7.81
 -12  -1 -17   35.84    7.41
 -12   1 -16   17.73    6.36
 -12  -1 -16   16.15    6.17
 -12   1 -15    3.88    2.82
 -12  -1 -15    6.66    3.13
 -12   1 -14   12.55    5.00
 -12  -1 -14   25.23    6.62
 -12   1 -13   10.65    5.02
 -12  -1 -13   12.30    3.87
 -12   1 -12   10.24    2.73
 -12  -1 -12    9.28    5.07
 -12  -1 -11   70.18   10.83
 -12   1 -11   70.80   10.92
 -12  -1 -10   63.51    9.89
 -12   1 -10   57.04    9.48
 -12   1  -9   54.39    9.41
 -12  -1  -9   39.11    8.46
 -12   1  -8   25.23    6.59
 -12  -1  -8   30.91    7.05
 -12   1  -7    0.53    4.21
 -12  -1  -7    7.94    4.23
 -12   1  -6   17.79    5.76
 -12  -1  -6   17.37    4.51
 -12  -1  -5   59.02    9.16
 -12   1  -5   52.16    8.63
 -12  -1  -4  101.58   11.77
 -12   1  -4  120.91   12.97
 -12  -1  -3  298.16   20.77
 -12   1  -3  314.37   20.66
 -12  -1  -2  145.90   14.38
 -12   1  -2  162.45   14.82
 -12  -1  -1   86.49   11.33
 -12   1  -1   84.00   10.53
 -12   1   0   18.38    5.63
 -12  -1   0   17.36    4.85
 -12  -1   1   73.32   10.18
 -12   1   1   66.55    9.44
 -12  -1   2  174.70   15.23
 -12   1   2  128.11   13.01
 -12  -1   3  258.96   18.78
 -12   1   3  260.68   18.57
 -12  -1   4  121.08   13.29
 -12   1   4  113.83   12.06
 -12  -1   5   62.06    9.34
 -12   1   5   43.71    7.41
 -12  -1   6   22.68    5.25
 -12   1   6   14.68    4.74
 -12  -1   7    1.80    2.23
 -12   1   7    6.10    3.07
 -12  -1   8   36.31    7.37
 -12   1   8   32.83    6.49
 -12  -1   9   56.98    9.22
 -12   1   9   64.66    9.02
 -12  -1  10   55.88    9.15
 -12   1  10   62.46    9.21
 -12  -1  11   65.18    9.45
 -12  -1  12    9.01    5.10
 -12  -1  13   29.28    8.11
 -12   2 -24   86.34   13.44
 -12   2 -23   26.93    8.41
 -12   2 -22   25.27    7.50
 -12  -2 -22   25.22    6.58
 -12   2 -21   18.80    7.26
 -12  -2 -21   28.44    8.31
 -12   2 -20   34.05    7.71
 -12  -2 -20   26.94    7.34
 -12   2 -19   34.78    8.55
 -12  -2 -19   51.37   10.28
 -12  -2 -18  133.02   16.06
 -12   2 -18  134.53   16.04
 -12  -2 -17   54.65   11.59
 -12   2 -17   84.83   12.67
 -12   2 -16   29.54    7.52
 -12  -2 -16   34.29    7.79
 -12   2 -15   31.97    7.77
 -12  -2 -15   35.01    8.59
 -12  -2 -14  120.75   14.63
 -12   2 -14  151.62   16.47
 -12  -2 -13  202.19   18.36
 -12   2 -13  194.15   18.37
 -12  -2 -12  181.99   17.52
 -12   2 -12  177.93   16.70
 -12  -2 -11   70.74   11.00
 -12   2 -11   78.65   11.61
 -12  -2 -10   99.31   12.83
 -12   2 -10  100.38   12.66
 -12  -2  -9  170.52   16.11
 -12   2  -9  134.17   14.92
 -12  -2  -8  346.33   22.87
 -12   2  -8  367.43   23.32
 -12  -2  -7  108.68   12.98
 -12   2  -7  102.85   12.44
 -12  -2  -6   60.99   10.14
 -12   2  -6   90.24   11.79
 -12  -2  -5  164.18   15.42
 -12   2  -5  200.30   17.07
 -12  -2  -4  377.18   23.38
 -12   2  -4  400.90   23.64
 -12  -2  -3   38.16    7.42
 -12   2  -3   52.86    8.15
 -12  -2  -2  541.17   27.84
 -12   2  -2  490.95   26.23
 -12  -2  -1  700.38   31.63
 -12   2  -1  726.28   31.32
 -12  -2   0  291.04   20.57
 -12   2   0  293.37   19.51
 -12  -2   1  700.49   31.61
 -12   2   1  728.65   31.00
 -12  -2   2  509.68   27.06
 -12   2   2  528.71   26.39
 -12  -2   3   35.32    7.84
 -12   2   3   43.84    8.03
 -12  -2   4  368.34   23.40
 -12   2   4  382.87   22.53
 -12  -2   5  161.84   15.70
 -12   2   5  184.13   15.26
 -12  -2   6   79.13   10.74
 -12   2   6   72.72   10.25
 -12  -2   7  112.38   13.07
 -12   2   7   94.80   11.70
 -12  -2   8  337.69   22.59
 -12   2   8  305.38   20.21
 -12  -2   9  150.93   15.22
 -12   2   9  148.22   13.89
 -12  -2  10  109.31   13.28
 -12  -2  11   85.07   11.90
 -12  -2  12  206.55   18.26
 -12  -2  13  222.06   18.85
 -12  -2  14  149.43   15.77
 -12   3 -24   10.10    6.09
 -12   3 -23   34.83   10.26
 -12   3 -22   22.41    7.48
 -12   3 -21    8.04    5.75
 -12  -3 -21    2.19    3.67
 -12   3 -20   16.29    4.69
 -12  -3 -20   15.96    5.43
 -12   3 -19   13.28    6.17
 -12  -3 -19   -1.06    2.73
 -12   3 -18   56.50   10.45
 -12  -3 -18   51.83    8.91
 -12   3 -17    8.87    4.83
 -12  -3 -17    8.74    4.03
 -12   3 -16    1.74    3.10
 -12  -3 -16    6.57    3.53
 -12   3 -15    2.57    2.77
 -12  -3 -15    5.32    4.36
 -12   3 -14    3.74    4.24
 -12  -3 -14    9.51    5.81
 -12   3 -13    6.00    3.92
 -12  -3 -13    5.47    4.09
 -12   3 -12  134.60   14.93
 -12  -3 -12  118.31   14.03
 -12   3 -11   69.51   10.96
 -12  -3 -11   72.88   11.53
 -12   3 -10   93.19   11.96
 -12  -3 -10   85.04   11.70
 -12   3  -9   39.49    8.10
 -12  -3  -9   33.42    8.59
 -12   3  -8   40.18    8.27
 -12  -3  -8   33.43    8.04
 -12   3  -7    8.74    4.68
 -12  -3  -7    7.40    3.83
 -12   3  -6    7.36    3.43
 -12  -3  -6    6.55    3.57
 -12   3  -5   51.37    8.71
 -12  -3  -5   39.00    7.93
 -12   3  -4  266.31   19.77
 -12  -3  -4  268.43   20.21
 -12   3  -3  504.15   27.13
 -12  -3  -3  491.61   27.04
 -12  -3  -2  237.94   19.12
 -12   3  -2  239.78   18.45
 -12  -3  -1   62.04   10.42
 -12   3  -1   76.67   10.82
 -12   3   0   23.03    6.08
 -12  -3   0   26.71    6.51
 -12  -3   1   43.66    8.14
 -12   3   1   63.29    9.57
 -12  -3   2  269.89   20.27
 -12   3   2  232.11   18.08
 -12  -3   3  483.47   27.43
 -12   3   3  552.44   27.37
 -12  -3   4  240.05   19.24
 -12   3   4  246.88   17.99
 -12  -3   5   44.08    7.98
 -12   3   5   56.25    8.62
 -12   3   6    8.31    3.97
 -12  -3   6    9.84    4.10
 -12  -3   7    8.93    4.16
 -12   3   7    6.88    5.13
 -12  -3   8   49.35    8.86
 -12   3   8   45.64    8.08
 -12  -3   9   41.02    8.87
 -12  -3  10   86.83   12.39
 -12  -3  11   57.04   10.50
 -12  -3  12  109.32   13.88
 -12  -3  13   -1.62    3.62
 -12  -3  14    8.60    5.32
 -12  -3  15    0.02    2.54
 -12   4 -23   66.49   12.68
 -12   4 -22   94.92   14.44
 -12   4 -21   25.19    7.74
 -12  -4 -20   48.04   10.50
 -12   4 -20   22.55    6.99
 -12  -4 -19   15.63    6.21
 -12   4 -19   12.55    5.83
 -12  -4 -18   29.50    9.03
 -12   4 -18   20.01    5.90
 -12  -4 -17   15.48    6.44
 -12   4 -17   15.83    6.00
 -12  -4 -16   15.72    6.66
 -12   4 -16   16.93    6.40
 -12  -4 -15   12.37    5.57
 -12   4 -15   22.07    5.89
 -12   4 -14   65.01   11.35
 -12  -4 -14   60.74   10.19
 -12  -4 -13   56.26   10.19
 -12   4 -13   53.43    9.71
 -12  -4 -12    0.02    3.87
 -12   4 -12    7.24    4.51
 -12  -4 -11    9.41    4.99
 -12   4 -11   10.32    4.45
 -12  -4 -10   35.92    7.97
 -12   4 -10   48.31    8.90
 -12   4  -9   97.28   13.07
 -12  -4  -9   88.11   12.23
 -12   4  -8  334.00   23.32
 -12  -4  -8  432.82   26.78
 -12   4  -7  302.68   21.85
 -12  -4  -7  288.68   21.94
 -12   4  -6   90.15   11.68
 -12  -4  -6   74.33   11.61
 -12   4  -5  211.80   18.21
 -12  -4  -5  222.52   19.30
 -12   4  -4  619.39   31.33
 -12  -4  -4  657.97   32.57
 -12   4  -3  372.00   23.83
 -12  -4  -3  352.17   24.15
 -12   4  -2  562.38   29.27
 -12  -4  -2  510.16   28.82
 -12   4  -1  184.92   16.57
 -12  -4  -1  190.26   17.53
 -12  -4   0   28.72    6.81
 -12   4   0   27.33    6.81
 -12   4   1  203.77   17.29
 -12  -4   1  211.50   18.36
 -12   4   2  576.24   29.53
 -12  -4   2  498.02   28.04
 -12  -4   3  392.20   25.20
 -12   4   3  398.20   24.46
 -12  -4   4  625.23   32.25
 -12   4   4  579.11   28.90
 -12  -4   5  245.93   19.76
 -12   4   5  237.78   18.09
 -12  -4   6   85.81   11.63
 -12   4   6   82.40   10.95
 -12  -4   7  346.07   24.34
 -12  -4   8  348.17   24.08
 -12  -4   9   90.06   12.90
 -12  -4  10   46.47    8.81
 -12  -4  11    8.90    4.60
 -12  -4  12    1.92    2.65
 -12  -4  13   44.24    9.02
 -12  -4  14   64.79   10.88
 -12  -4  15    9.09    4.53
 -12  -4  16    3.27    4.18
 -12   5 -21    5.91    4.08
 -12   5 -20   -1.71    5.27
 -12   5 -19   10.62    5.61
 -12  -5 -18   11.50    5.31
 -12   5 -18   13.23    4.09
 -12  -5 -17   13.44    4.88
 -12   5 -17   23.29    6.71
 -12  -5 -16    3.56    4.40
 -12   5 -16    4.39    2.59
 -12  -5 -15    2.95    4.29
 -12   5 -15   14.03    6.28
 -12  -5 -14    2.51    3.99
 -12   5 -14    2.11    3.23
 -12  -5 -13   20.45    6.15
 -12   5 -13   20.91    6.31
 -12  -5 -12   27.14    7.56
 -12   5 -12   16.13    5.04
 -12  -5 -11    7.30    2.50
 -12   5 -11    9.03    4.57
 -12  -5 -10   45.83    9.26
 -12   5 -10   47.34    9.08
 -12  -5  -9   17.10    5.36
 -12   5  -9   26.13    7.11
 -12  -5  -8    7.18    5.06
 -12   5  -8    0.30    2.99
 -12  -5  -7   13.09    4.79
 -12   5  -7   11.74    4.88
 -12  -5  -6    0.66    3.57
 -12   5  -6   -0.14    3.00
 -12  -5  -5   -1.22    2.44
 -12   5  -5    3.37    1.82
 -12  -5  -4    6.40    3.80
 -12   5  -4    4.68    1.76
 -12  -5  -3   35.61    8.31
 -12   5  -3   22.36    5.97
 -12  -5  -2   81.23   12.03
 -12   5  -2  120.57   13.43
 -12   5  -1   45.97    9.07
 -12  -5  -1   45.77    8.88
 -12  -5   0   23.46    6.11
 -12   5   0    9.80    4.81
 -12  -5   1   39.82    9.23
 -12   5   1   51.53    9.64
 -12  -5   2  105.36   13.53
 -12   5   2  107.88   13.22
 -12  -5   3   23.82    6.98
 -12   5   3   25.41    6.07
 -12  -5   4   11.22    5.66
 -12   5   4    3.74    3.70
 -12  -5   5    3.08    2.05
 -12   5   5    3.13    4.84
 -12  -5   6    4.28    4.38
 -12  -5   7   15.06    5.84
 -12  -5   8    3.45    3.58
 -12  -5   9   18.06    6.55
 -12  -5  10   32.09    9.55
 -12  -5  11   15.28    6.02
 -12  -5  12   20.20    8.18
 -12  -5  13   23.10    7.54
 -12  -5  14   -1.05    2.54
 -12  -5  15   -0.04    3.59
 -12  -5  16   -1.91    2.98
 -12  -5  17   20.60    8.61
 -12   6 -19   69.32   12.65
 -12   6 -18   10.17    3.82
 -12   6 -17   98.20   14.23
 -12  -6 -17   44.53   11.45
 -12  -6 -16   41.32    9.69
 -12   6 -16   51.10   10.00
 -12  -6 -15   21.26    8.08
 -12   6 -15    4.53    4.07
 -12  -6 -14  128.47   16.11
 -12   6 -14  114.05   15.18
 -12  -6 -13  132.24   16.75
 -12   6 -13  150.44   16.53
 -12  -6 -12    0.54    3.64
 -12   6 -12    5.37    3.87
 -12  -6 -11   49.24   10.02
 -12   6 -11   75.50   12.40
 -12  -6 -10   94.30   13.50
 -12   6 -10   98.97   13.41
 -12  -6  -9   31.74    8.09
 -12   6  -9   38.33    8.05
 -12  -6  -8  244.00   21.10
 -12   6  -8  227.39   19.91
 -12  -6  -7  249.77   21.45
 -12   6  -7  258.24   21.62
 -12  -6  -6   37.63    8.76
 -12   6  -6   51.25    9.64
 -12  -6  -5   66.42   11.53
 -12   6  -5   79.15   10.95
 -12  -6  -4  176.39   18.22
 -12   6  -4  170.93   16.65
 -12  -6  -3  250.38   21.52
 -12   6  -3  207.74   18.91
 -12  -6  -2  202.27   19.26
 -12   6  -2  253.41   20.43
 -12  -6  -1   44.55    8.50
 -12   6  -1   71.95   11.57
 -12  -6   0   -3.88    2.78
 -12   6   0    4.77    4.58
 -12  -6   1   55.25    9.77
 -12   6   1   58.77    9.74
 -12   6   2  215.97   18.67
 -12  -6   2  239.81   20.39
 -12   6   3  239.15   19.91
 -12  -6   3  202.88   18.96
 -12   6   4  197.03   18.78
 -12  -6   4  153.66   16.81
 -12  -6   5   68.98   10.87
 -12  -6   6   42.88    9.93
 -12  -6   7  246.49   21.73
 -12  -6   8  208.93   19.86
 -12  -6   9   31.13    9.30
 -12  -6  10   62.02   11.09
 -12  -6  11   60.58   10.74
 -12  -6  12   15.43    7.07
 -12  -6  13  152.47   17.75
 -12  -6  14  107.16   14.55
 -12  -6  15    9.16    5.47
 -12  -6  16   24.85    8.45
 -12  -6  17   55.90   11.49
 -12  -6  18   11.22    5.88
 -12   7 -17   10.21    5.86
 -12   7 -16    0.73    3.84
 -12  -7 -15   71.66   13.45
 -12   7 -15   69.96   11.44
 -12   7 -14    6.05    5.19
 -12  -7 -14   10.97    6.21
 -12   7 -13   20.63    5.89
 -12  -7 -13   24.93    6.80
 -12   7 -12   18.76    6.55
 -12  -7 -12   14.83    7.95
 -12   7 -11    1.01    4.07
 -12  -7 -11    2.97    4.00
 -12   7 -10   31.62    7.32
 -12  -7 -10   33.84    8.58
 -12  -7  -9   72.19   11.76
 -12   7  -9   98.25   13.59
 -12   7  -8   22.79    7.07
 -12  -7  -8   21.73    7.47
 -12   7  -7   37.85    8.24
 -12  -7  -7   31.84    8.99
 -12   7  -6    2.39    2.75
 -12  -7  -6   13.53    6.00
 -12   7  -5   -1.32    2.69
 -12  -7  -5    6.05    5.64
 -12   7  -4   88.19   12.89
 -12  -7  -4   71.35   12.01
 -12  -7  -3   11.45    4.32
 -12   7  -3   22.35    5.72
 -12  -7  -2   43.90    9.39
 -12   7  -2   40.92    8.71
 -12   7  -1   47.19    8.88
 -12  -7  -1   65.65   11.87
 -12  -7   0   33.35    8.45
 -12   7   0   22.99    6.38
 -12   7   1   61.20   10.54
 -12  -7   1   61.69   11.76
 -12  -7   2   42.43   10.53
 -12   7   2   29.15    8.48
 -12  -7   3   11.86    4.28
 -12  -7   4   63.41   11.13
 -12  -7   5   -3.60    2.70
 -12  -7   6    3.25    3.80
 -12  -7   7   28.03    7.93
 -12  -7   8   36.75    9.02
 -12  -7   9  100.85   14.48
 -12  -7  10   22.74    6.76
 -12  -7  11    3.18    3.24
 -12  -7  12   25.79    7.75
 -12  -7  13   18.83    6.63
 -12  -7  14   10.60    6.01
 -12  -7  15   47.47   11.39
 -12  -7  16   -0.92    5.03
 -12  -7  17   22.99    7.85
 -12   8 -13   62.39   11.16
 -12  -8 -13   44.88    9.45
 -12  -8 -12   72.15   13.38
 -12   8 -12   87.70   12.68
 -12   8 -11   23.62    6.90
 -12  -8 -11   15.71    6.01
 -12   8 -10   39.75    9.39
 -12  -8 -10   12.18    5.62
 -12   8  -9   35.32    7.98
 -12  -8  -9   26.28    7.36
 -12   8  -8   32.64    8.30
 -12  -8  -8   30.72    8.09
 -12   8  -7   63.24   10.67
 -12  -8  -7   58.39   12.16
 -12   8  -6   45.09    9.61
 -12  -8  -6   36.97    8.22
 -12   8  -5    0.51    2.87
 -12  -8  -5    6.86    5.74
 -12   8  -4   16.01    6.65
 -12  -8  -4    5.80    5.72
 -12   8  -3   94.45   13.71
 -12  -8  -3   85.29   13.58
 -12   8  -2   31.18    7.87
 -12  -8  -2   28.10    7.19
 -12   8  -1    2.06    5.45
 -12  -8  -1   -1.73    4.23
 -12  -8   0   -1.04    4.62
 -12   8   0    4.77    3.62
 -12  -8   1   -0.50    3.34
 -12   8   1    1.03    3.99
 -12  -8   2   41.37    9.46
  12   8   3   83.03   12.45
 -12  -8   3   87.88   12.79
 -12  -8   4   14.68    5.42
  12   8   4   27.02    7.58
 -12  -8   5    5.64    3.93
  12   8   5    4.33    2.89
 -12  -8   6   37.83    9.08
 -12  -8   7   73.51   12.43
 -12  -8   8   37.42    8.56
 -12  -8   9   29.93    7.90
 -12  -8  10   18.45    6.98
 -12  -8  11   22.60    7.95
 -12  -8  12   76.03   13.28
 -12  -8  13   54.74   12.59
 -12  -9  -8   -4.26    3.80
 -12   9  -8    9.01    5.33
  12   9  -8    6.17    3.08
 -12  -9  -7    7.65    6.35
 -12   9  -7   10.53    5.34
  12   9  -7    4.79    4.30
 -12  -9  -6   14.21    6.50
 -12   9  -6    3.59    5.94
  12   9  -6   -0.09    3.81
 -12  -9  -5   12.96    4.26
 -12   9  -5    7.53    5.25
  12   9  -5   14.80    4.90
 -12  -9  -4    2.21    4.75
 -12   9  -4    3.09    5.00
  12   9  -4   -2.96    5.61
 -12  -9  -3   61.04   11.09
 -12   9  -3   31.55    8.74
  12   9  -3   38.19    9.50
 -12  -9  -2    2.46    4.02
 -12   9  -2   -1.66    3.19
  12   9  -2   -1.81    4.15
 -12  -9  -1   10.56    5.06
 -12   9  -1   10.64    4.54
  12   9  -1    6.75    5.05
 -12  -9   0   -0.11    4.43
  12   9   0    4.38    5.26
 -12  -9   1   11.03    6.78
  12   9   1    9.44    4.29
 -12  -9   2    2.99    4.88
  12   9   2   -4.48    5.07
 -12  -9   3   29.55    9.52
  12   9   3   46.71   11.49
  12   9   4   16.57    7.22
 -12  -9   4   -4.14    5.58
 -12  -9   5    5.29    4.93
 -12  -9   6   -1.86    3.79
 -12  -9   7    0.14    4.81
 -12  -9   8   13.96    7.02
 -13   0 -24   -0.02    5.54
 -13   0 -23    0.76    4.69
 -13   0 -22    0.68    3.76
 -13   0 -21   -0.39    2.81
 -13   0 -20    3.56    4.41
 -13   0 -19    2.07    3.88
 -13   0 -18    1.12    3.25
 -13   0 -17   -0.06    2.73
 -13   0 -16   -1.96    2.75
 -13   0 -15   -0.51    2.22
 -13   0 -14   -0.86    2.50
 -13   0 -13    0.37    2.01
 -13   0 -12    4.53    3.19
 -13   0 -11    1.39    2.59
 -13   0 -10    0.06    2.28
 -13   0  -9    1.29    4.02
 -13   0  -8   -1.93    3.22
 -13   0  -7   -1.20    1.78
 -13   0  -6    0.27    1.71
 -13   0  -5   -0.16    2.93
 -13   0  -4   -0.69    1.85
 -13   0  -3   -2.30    3.03
 -13   0  -2   -0.81    3.32
 -13   0  -1   -1.38    3.43
 -13   0   0    0.45    2.20
 -13   0   1    3.77    4.09
 -13   0   2   -1.34    1.55
 -13   0   3    3.02    3.47
 -13   0   4   -1.85    1.88
 -13   0   5    1.42    3.42
 -13   0   6    1.59    4.30
 -13   0   7   -0.28    2.98
 -13   0   8   -1.78    2.85
 -13   0   9    0.58    1.88
 -13   0  10    1.43    1.93
 -13   0  11   -4.35    3.57
 -13   1 -24    2.65    3.45
 -13   1 -23   19.08    8.09
 -13  -1 -23   21.67    9.60
 -13   1 -22   27.26    8.00
 -13  -1 -22   24.90    8.69
 -13  -1 -21  116.54   16.47
 -13   1 -21  117.17   15.54
 -13  -1 -20  124.73   15.04
 -13   1 -20  136.40   16.39
 -13   1 -19    5.98    4.26
 -13  -1 -19   18.28    6.52
 -13   1 -18    4.82    2.96
 -13  -1 -18    3.32    4.33
 -13   1 -17   63.97   10.34
 -13  -1 -17   35.23    8.76
 -13  -1 -16  177.75   18.10
 -13   1 -16  153.62   16.69
 -13  -1 -15   62.46   10.34
 -13   1 -15   80.33   12.11
 -13  -1 -14  155.09   16.27
 -13   1 -14  142.60   15.26
 -13   1 -13   40.89    8.43
 -13  -1 -13   29.77    6.40
 -13  -1 -12   94.64   13.31
 -13   1 -12   98.88   12.65
 -13   1 -11   16.21    6.11
 -13  -1 -11   11.13    4.14
 -13  -1 -10  230.77   19.56
 -13   1 -10  191.61   17.70
 -13  -1  -9  233.00   19.38
 -13   1  -9  229.66   18.60
 -13   1  -8   22.23    5.52
 -13  -1  -8   27.00    7.40
 -13  -1  -7   80.70   11.74
 -13   1  -7   51.83    9.38
 -13  -1  -6   86.13   11.76
 -13   1  -6   68.51   10.53
 -13  -1  -5  491.49   27.51
 -13   1  -5  423.76   25.44
 -13  -1  -4   83.56   11.22
 -13   1  -4   80.27   11.27
 -13  -1  -3  126.49   13.62
 -13   1  -3  110.65   12.83
 -13  -1  -2  212.53   17.93
 -13   1  -2  226.76   18.29
 -13  -1  -1  135.34   14.25
 -13   1  -1  155.23   15.04
 -13  -1   0 1755.02   51.02
 -13   1   0 1742.30   50.30
 -13  -1   1  134.48   13.95
 -13   1   1  172.17   15.55
 -13  -1   2  199.28   17.21
 -13   1   2  221.29   17.69
 -13  -1   3  132.14   13.77
 -13   1   3  115.34   12.87
 -13  -1   4   67.61    9.77
 -13   1   4   67.49   10.19
 -13  -1   5  524.19   27.95
 -13   1   5  492.24   26.82
 -13  -1   6   77.31   10.32
 -13   1   6   57.40    9.23
 -13  -1   7   66.09   10.12
 -13   1   7   57.31    8.96
 -13  -1   8   37.59    7.37
 -13   1   8   36.94    7.47
 -13  -1   9  237.66   19.48
 -13   1   9  230.49   18.35
 -13  -1  10  166.14   16.11
 -13   1  10  185.82   17.34
 -13  -1  11   12.76    5.51
 -13  -1  12   99.46   13.04
 -13   2 -23   25.08    7.81
 -13   2 -22    3.17    3.32
 -13  -2 -22   10.25    3.35
 -13   2 -21   14.50    6.21
 -13  -2 -21   22.07    6.36
 -13   2 -20    0.05    3.35
 -13  -2 -20    3.34    4.37
 -13   2 -19   -0.44    3.65
 -13  -2 -19   -2.69    5.67
 -13   2 -18   12.37    5.16
 -13  -2 -18    2.60    2.99
 -13  -2 -17   96.40   13.68
 -13   2 -17   99.08   14.09
 -13   2 -16   14.69    4.51
 -13  -2 -16   13.18    5.59
 -13   2 -15    7.07    3.59
 -13  -2 -15    4.88    4.86
 -13   2 -14    9.82    5.16
 -13  -2 -14   11.49    5.11
 -13   2 -13   22.64    7.13
 -13  -2 -13    6.94    5.15
 -13  -2 -12   84.67   11.99
 -13   2 -12   77.61   11.79
 -13  -2 -11  325.35   23.22
 -13   2 -11  312.89   22.91
 -13   2 -10   13.30    4.69
 -13  -2 -10   16.76    6.30
 -13   2  -9   14.53    5.10
 -13  -2  -9   28.81    7.19
 -13  -2  -8   86.12   11.91
 -13   2  -8   77.19   11.11
 -13  -2  -7   34.74    7.68
 -13   2  -7   45.62    8.65
 -13   2  -6    6.00    1.58
 -13  -2  -6    8.21    4.24
 -13   2  -5    2.37    1.67
 -13  -2  -5    0.08    2.31
 -13   2  -4   18.98    5.08
 -13  -2  -4   17.95    5.05
 -13  -2  -3  154.43   15.49
 -13   2  -3  137.94   14.27
 -13  -2  -2   42.32    8.18
 -13   2  -2   67.51   10.04
 -13  -2  -1   71.16   10.77
 -13   2  -1   80.40   10.75
 -13  -2   0  867.22   36.56
 -13   2   0  861.56   35.41
 -13  -2   1   87.61   11.92
 -13   2   1   71.84   10.53
 -13  -2   2   52.96    9.04
 -13   2   2   69.57    9.86
 -13  -2   3  150.62   15.59
 -13   2   3  142.84   14.60
 -13  -2   4   18.06    6.31
 -13   2   4   18.62    5.33
 -13  -2   5    3.49    3.78
 -13   2   5    0.53    1.97
 -13  -2   6    2.42    1.79
 -13   2   6   13.62    5.15
 -13  -2   7   42.92    8.23
 -13   2   7   36.76    8.45
 -13  -2   8   86.67   11.62
 -13   2   8   75.67   10.05
 -13  -2   9   16.15    5.42
 -13  -2  10   12.30    5.58
 -13  -2  11  284.39   21.79
 -13  -2  12   67.77   11.76
 -13  -2  13    6.71    4.81
 -13   3 -22   86.10   13.84
 -13   3 -21   20.02    5.67
 -13  -3 -21   18.30    8.29
 -13   3 -20   47.43   10.12
 -13  -3 -20   49.83    9.80
 -13   3 -19   21.52    6.85
 -13  -3 -19   18.56    6.15
 -13   3 -18   30.57    8.12
 -13  -3 -18   17.22    7.24
 -13   3 -17   44.31    8.78
 -13  -3 -17   34.02    8.96
 -13   3 -16  370.92   26.46
 -13  -3 -16  343.09   25.66
 -13   3 -15   71.05   11.18
 -13  -3 -15   54.46    9.78
 -13   3 -14  212.80   19.56
 -13  -3 -14  181.00   18.30
 -13   3 -13   83.53   12.23
 -13  -3 -13   72.50   11.26
 -13   3 -12  243.72   21.41
 -13  -3 -12  243.97   20.68
 -13   3 -11   28.80    8.33
 -13  -3 -11   27.09    6.83
 -13   3 -10  511.94   29.51
 -13  -3 -10  431.41   26.74
 -13   3  -9   65.78   10.90
 -13  -3  -9   74.71   10.84
 -13   3  -8   88.53   12.48
 -13  -3  -8   78.79   10.96
 -13   3  -7   70.03   10.98
 -13  -3  -7   64.99   10.93
 -13   3  -6   98.94   13.07
 -13  -3  -6  110.86   13.68
 -13   3  -5   24.09    7.05
 -13  -3  -5   15.60    5.69
 -13  -3  -4  389.20   24.94
 -13   3  -4  387.92   24.55
 -13  -3  -3   56.27    9.44
 -13   3  -3   75.49   10.82
 -13   3  -2   12.43    4.74
 -13  -3  -2    6.52    4.00
 -13   3  -1   24.69    6.13
 -13  -3  -1   25.28    6.70
 -13  -3   0  149.70   15.85
 -13   3   0  143.22   14.76
 -13   3   1   14.15    3.89
 -13  -3   1   25.47    7.09
 -13   3   2    7.10    4.55
 -13  -3   2    2.25    2.50
 -13  -3   3   58.75   10.19
 -13   3   3   69.23   10.21
 -13  -3   4  368.30   24.55
 -13   3   4  346.68   22.71
 -13   3   5    9.34    3.90
 -13  -3   5   12.15    5.69
 -13  -3   6  122.34   14.10
 -13   3   6  101.45   12.39
 -13  -3   7   63.80   11.03
 -13   3   7   51.95    8.67
 -13  -3   8  107.47   13.73
 -13  -3   9   37.81    8.44
 -13  -3  10  518.62   30.06
 -13  -3  11   29.81    7.41
 -13  -3  12  242.88   20.88
 -13  -3  13   82.56   12.55
 -13  -3  14  179.43   18.64
 -13  -3  15    0.02    1.14
 -13   4 -21   32.22   10.11
 -13   4 -20    8.22    5.63
 -13  -4 -20    7.45    6.73
 -13  -4 -19   30.76    9.27
 -13   4 -19   23.32    6.84
 -13  -4 -18   -2.65    4.81
 -13   4 -18    2.13    2.69
 -13  -4 -17   48.66   10.39
 -13   4 -17   24.90    6.80
 -13  -4 -16   11.91    6.16
 -13   4 -16    6.90    2.60
 -13  -4 -15   30.25    7.74
 -13   4 -15   18.97    6.72
 -13  -4 -14    8.14    5.93
 -13   4 -14    3.71    3.12
 -13  -4 -13    5.63    5.58
 -13   4 -13   -1.56    4.52
 -13  -4 -12   22.09    6.31
 -13   4 -12   17.62    5.36
 -13  -4 -11    2.95    4.58
 -13   4 -11    1.49    2.16
 -13  -4 -10   12.53    4.42
 -13   4 -10    7.76    3.18
 -13   4  -9  271.40   21.44
 -13  -4  -9  243.59   20.46
 -13  -4  -8    1.62    3.03
 -13   4  -8    7.85    3.96
 -13  -4  -7   10.40    4.70
 -13   4  -7   14.81    5.19
 -13   4  -6  152.43   15.86
 -13  -4  -6  171.14   17.05
 -13  -4  -5   17.89    7.12
 -13   4  -5   10.90    4.62
 -13  -4  -4   46.15    8.90
 -13   4  -4   45.30    8.96
 -13  -4  -3    6.14    2.78
 -13   4  -3   18.58    6.68
 -13   4  -2  256.60   20.49
 -13  -4  -2  234.25   20.08
 -13   4  -1  129.23   14.32
 -13  -4  -1  135.36   15.16
 -13  -4   0    7.38    3.74
 -13   4   0    7.56    4.05
 -13  -4   1  108.59   13.65
 -13   4   1  123.52   14.49
 -13  -4   2  214.89   18.95
 -13   4   2  275.79   20.52
 -13   4   3   16.78    4.53
 -13  -4   3   19.87    6.27
 -13  -4   4   58.09    9.96
 -13   4   4   47.01    8.50
 -13   4   5    6.17    2.94
 -13  -4   5   15.74    5.80
 -13  -4   6  163.14   16.87
 -13   4   6  164.02   15.85
 -13  -4   7   17.99    5.65
 -13  -4   8    2.44    2.67
 -13  -4   9  317.69   23.77
 -13  -4  10   18.38    5.80
 -13  -4  11   -0.15    3.34
 -13  -4  12   17.48    6.59
 -13  -4  13   -0.87    3.86
 -13  -4  14   22.89    7.70
 -13  -4  15   29.52    8.61
 -13  -4  16   -3.71    3.76
 -13   5 -20   42.41    8.87
 -13  -5 -19   11.95    6.87
 -13   5 -19   15.85    7.62
 -13  -5 -18   16.72    7.56
 -13   5 -18   27.12    7.98
 -13  -5 -17   42.20    9.88
 -13   5 -17   55.38   11.04
 -13  -5 -16   41.53    9.16
 -13   5 -16   59.20   11.08
 -13  -5 -15   25.59    8.77
 -13   5 -15   18.66    6.47
 -13  -5 -14   51.95   10.53
 -13   5 -14   47.33    9.19
 -13  -5 -13   12.83    6.07
 -13   5 -13   16.80    5.56
 -13  -5 -12   40.50    9.73
 -13   5 -12   42.60    9.36
 -13  -5 -11  118.21   14.82
 -13   5 -11  141.00   15.84
 -13  -5 -10   53.91   10.16
 -13   5 -10   38.73    8.74
 -13  -5  -9    2.20    4.27
 -13   5  -9    5.68    3.17
 -13  -5  -8   19.97    5.24
 -13   5  -8   21.45    6.83
 -13  -5  -7   80.89   12.49
 -13   5  -7   62.72   10.39
 -13  -5  -6  122.23   15.28
 -13   5  -6  148.67   15.82
 -13   5  -5   58.64   10.09
 -13  -5  -5   45.08    8.56
 -13  -5  -4  126.16   14.98
 -13   5  -4  134.67   15.16
 -13  -5  -3  111.03   14.36
 -13   5  -3  102.55   13.31
 -13  -5  -2  323.88   24.23
 -13   5  -2  283.42   22.25
 -13   5  -1  196.59   18.34
 -13  -5  -1  186.06   18.21
 -13  -5   0    9.33    4.70
 -13   5   0    6.60    4.02
 -13   5   1  221.83   19.33
 -13  -5   1  215.72   19.51
 -13   5   2  243.89   20.55
 -13  -5   2  270.92   22.27
 -13  -5   3   97.89   13.26
 -13   5   3  116.30   13.89
 -13  -5   4  117.44   14.68
 -13   5   4  139.07   15.02
 -13  -5   5   40.41    8.99
 -13   5   5   17.75    6.54
 -13  -5   6  131.59   15.53
 -13  -5   7   77.83   12.20
 -13  -5   8   -0.32    2.60
 -13  -5   9    1.71    3.32
 -13  -5  10   42.97    9.74
 -13  -5  11  128.44   15.95
 -13  -5  12   31.86    7.78
 -13  -5  13    8.70    5.26
 -13  -5  14   38.03    8.31
 -13  -5  15   12.41    5.56
 -13  -5  16   36.43    9.91
 -13  -5  17   -6.45    3.87
 -13   6 -18    5.25    3.83
 -13  -6 -17    4.84    5.60
 -13   6 -17    1.57    3.02
 -13  -6 -16   -5.00    3.71
 -13   6 -16   -3.23    2.97
 -13  -6 -15    6.00    6.26
 -13   6 -15   -2.69    4.57
 -13  -6 -14   10.61    6.67
 -13   6 -14   13.92    5.17
 -13  -6 -13   11.53    6.80
 -13   6 -13   17.61    5.94
 -13  -6 -12    9.29    5.87
 -13   6 -12    1.96    3.69
 -13  -6 -11   13.97    5.16
 -13   6 -11   18.28    5.76
 -13  -6 -10    1.70    3.95
 -13   6 -10    3.60    2.26
 -13  -6  -9    4.45    4.02
 -13   6  -9    5.00    4.31
 -13  -6  -8    4.53    4.21
 -13   6  -8    9.63    4.14
 -13  -6  -7    2.89    4.74
 -13   6  -7   11.01    5.43
 -13  -6  -6    5.56    4.15
 -13   6  -6   14.46    5.52
 -13  -6  -5    1.07    2.86
 -13   6  -5    8.37    3.85
 -13  -6  -4   -1.59    2.71
 -13   6  -4    3.58    3.99
 -13  -6  -3   16.33    6.52
 -13   6  -3    3.68    3.37
 -13  -6  -2   15.21    7.60
 -13   6  -2   21.65    7.07
 -13  -6  -1   16.82    6.47
 -13   6  -1   19.01    6.33
 -13  -6   0   -0.05    2.43
 -13   6   0    1.43    2.46
 -13  -6   1   21.69    8.49
 -13   6   1   21.67    6.67
 -13  -6   2   15.68    5.93
 -13   6   2   11.26    4.64
 -13  -6   3   25.30    6.81
 -13   6   3   12.86    3.66
 -13  -6   4    1.98    4.66
 -13  -6   5    4.62    3.56
 -13  -6   6   11.88    5.30
 -13  -6   7   10.18    4.13
 -13  -6   8    0.16    2.56
 -13  -6   9    7.21    5.02
 -13  -6  10    3.63    4.40
 -13  -6  11   12.95    7.52
 -13  -6  12    0.45    4.36
 -13  -6  13    9.89    5.87
 -13  -6  14   12.19    6.24
 -13  -6  15    4.66    2.62
 -13  -6  16    6.18    4.27
 -13  -6  17    9.13    6.24
 -13  -7 -15    5.53    4.76
 -13   7 -15   23.81    7.17
 -13  -7 -14   13.95    7.36
 -13   7 -14   14.58    6.73
 -13  -7 -13    3.17    4.34
 -13   7 -13    8.52    4.20
 -13  -7 -12   10.32    3.78
 -13   7 -12   11.61    5.59
 -13  -7 -11   24.58    8.55
 -13   7 -11   33.63    8.10
 -13  -7 -10   76.28   13.12
 -13   7 -10  104.84   14.31
 -13  -7  -9   24.53    8.33
 -13   7  -9   43.08    9.39
 -13  -7  -8   25.21    7.00
 -13   7  -8   13.76    4.10
 -13  -7  -7   16.79    7.07
 -13   7  -7   27.91    7.22
 -13  -7  -6   97.81   14.13
 -13   7  -6   78.37   12.17
 -13  -7  -5   17.12    5.30
 -13   7  -5   12.44    4.72
 -13  -7  -4   84.83   13.35
 -13   7  -4   62.26   11.10
 -13  -7  -3   20.01    5.44
 -13   7  -3   31.21    7.39
 -13  -7  -2   41.44   10.11
 -13   7  -2   65.63   11.49
 -13  -7  -1   18.81    6.97
 -13   7  -1   21.24    6.91
 -13  -7   0    8.56    5.21
 -13   7   0    8.60    5.29
 -13  -7   1   25.06    6.56
 -13   7   1   27.52    6.68
 -13   7   2   41.09   11.35
 -13  -7   2   78.13   13.05
 -13  -7   3   36.43    9.05
 -13  -7   4   33.03    8.79
 -13  -7   5   14.97    7.07
 -13  -7   6  113.54   15.26
 -13  -7   7   25.68    7.72
 -13  -7   8   15.95    6.25
 -13  -7   9   26.80    7.73
 -13  -7  10  110.52   15.55
 -13  -7  11   20.01    7.30
 -13  -7  12   10.50    4.70
 -13  -7  13    2.79    3.17
 -13  -7  14   19.97    7.70
 -13  -7  15   18.67    7.10
 -13  -8 -11    6.68    5.27
 -13   8 -11   18.34    5.66
 -13  -8 -10   -3.46    5.13
 -13   8 -10   -2.65    2.75
 -13  -8  -9   12.67    5.92
 -13   8  -9    4.26    3.54
 -13  -8  -8   14.83    7.37
 -13   8  -8    8.40    3.56
 -13  -8  -7    8.63    5.93
 -13   8  -7    6.73    6.07
 -13  -8  -6   10.65    5.59
 -13   8  -6    2.44    3.17
 -13  -8  -5   15.98    5.66
 -13   8  -5    9.45    3.51
 -13  -8  -4    5.87    5.95
 -13   8  -4   -2.56    3.77
 -13  -8  -3    9.42    6.24
 -13   8  -3   -1.71    3.39
 -13  -8  -2    8.63    6.64
 -13   8  -2    9.83    3.77
 -13  -8  -1    2.62    5.81
 -13   8  -1   -0.63    2.94
 -13  -8   0    9.44    6.35
 -13   8   0   -4.92    3.55
 -13  -8   1    1.33    2.61
 -13  -8   2   15.36    7.68
 -13  -8   3    2.67    3.27
 -13  -8   4    8.91    5.83
  13   8   4    4.91    4.68
 -13  -8   5    7.37    5.79
  13   8   5    0.44    5.33
 -13  -8   6    8.38    6.14
 -13  -8   7    6.33    3.53
 -13  -8   8   14.93    7.16
 -13  -8   9    8.13    5.33
 -13  -8  10    4.20    4.14
 -13  -8  11   14.79    7.20
 -13  -9  -3   23.30    6.91
  13   9  -3    7.92    3.41
 -13   9  -3   13.93    6.12
 -13  -9  -2   -0.63    3.16
  13   9  -2   11.32    6.42
 -13   9  -2    7.38    2.76
 -13  -9  -1    4.83    5.26
  13   9  -1   11.90    5.01
 -13  -9   0   19.27    6.36
  13   9   0   28.29    7.08
 -13  -9   1    5.39    4.95
  13   9   1    8.44    7.46
 -13  -9   2    8.27    6.71
  13   9   2   14.80    8.13
 -13  -9   3   10.79    6.94
  13   9   3   12.38    4.38
 -14   0 -22   36.53    8.88
 -14   0 -21  103.15   15.24
 -14   0 -20   42.48    8.90
 -14   0 -19   21.87    7.25
 -14   0 -18   -1.51    2.75
 -14   0 -17    9.70    4.76
 -14   0 -16  122.12   15.00
 -14   0 -15   14.77    5.13
 -14   0 -14   57.68   10.55
 -14   0 -13  153.87   16.65
 -14   0 -12  198.65   18.74
 -14   0 -11   14.57    5.10
 -14   0 -10  239.66   20.51
 -14   0  -9   36.13    7.29
 -14   0  -8   47.21    9.48
 -14   0  -7  308.93   22.65
 -14   0  -6  372.65   24.54
 -14   0  -5  227.13   19.01
 -14   0  -4  302.75   21.63
 -14   0  -3  135.29   14.93
 -14   0  -2  133.85   14.41
 -14   0  -1  182.69   17.36
 -14   0   0  217.29   18.53
 -14   0   1  192.16   17.17
 -14   0   2  101.96   12.90
 -14   0   3  137.75   14.64
 -14   0   4  294.69   21.52
 -14   0   5  216.68   18.77
 -14   0   6  442.62   26.29
 -14   0   7  304.22   22.25
 -14   0   8   39.29    8.58
 -14   0   9   21.82    6.61
 -14   0  10  238.61   19.88
 -14   1 -22    2.78    3.12
 -14  -1 -22   -0.68    3.69
 -14   1 -21   -1.21    3.42
 -14  -1 -21    3.01    4.10
 -14   1 -20    7.46    6.63
 -14  -1 -20    2.42    2.94
 -14   1 -19   15.52    7.39
 -14  -1 -19    9.77    5.08
 -14   1 -18   23.16    7.55
 -14  -1 -18   17.85    7.70
 -14   1 -17    3.05    3.12
 -14  -1 -17   -1.91    4.02
 -14   1 -16    5.27    3.49
 -14  -1 -16    7.21    6.33
 -14   1 -15   13.66    4.62
 -14  -1 -15   21.58    7.91
 -14   1 -14    0.94    2.91
 -14  -1 -14    1.02    3.27
 -14   1 -13    1.88    3.88
 -14  -1 -13   -4.86    4.00
 -14   1 -12    5.82    4.32
 -14  -1 -12    2.67    2.28
 -14   1 -11    4.79    3.83
 -14  -1 -11    3.47    2.62
 -14   1 -10   21.31    6.65
 -14  -1 -10    2.23    2.42
 -14   1  -9   42.85    8.52
 -14  -1  -9   29.46    8.27
 -14   1  -8   10.49    4.83
 -14  -1  -8   12.01    4.80
 -14  -1  -7   73.85   10.40
 -14   1  -7   62.22    9.95
 -14   1  -6   11.83    5.15
 -14  -1  -6    7.21    3.98
 -14   1  -5    2.21    2.21
 -14  -1  -5    6.82    4.44
 -14   1  -4   32.25    7.29
 -14  -1  -4   37.45    8.03
 -14   1  -3   15.27    5.44
 -14  -1  -3   16.92    5.90
 -14  -1  -2   97.18   12.56
 -14   1  -2   74.77   11.30
 -14  -1  -1   93.39   12.20
 -14   1  -1  110.13   12.96
 -14  -1   0   89.76   11.98
 -14   1   0   85.39   12.27
 -14  -1   1  107.40   12.87
 -14   1   1  114.39   13.82
 -14  -1   2   76.20   11.50
 -14   1   2   86.65   11.54
 -14  -1   3   17.61    6.17
 -14   1   3   25.39    7.29
 -14  -1   4   28.00    6.78
 -14   1   4   30.32    6.21
 -14  -1   5    1.28    2.42
 -14   1   5    1.09    4.19
 -14  -1   6    5.42    4.06
 -14   1   6    8.21    3.75
 -14  -1   7   78.66   11.25
 -14   1   7   46.37    8.72
 -14  -1   8   17.72    6.57
 -14   1   8   18.09    5.27
 -14  -1   9   41.06    8.38
 -14   1   9   34.82    7.43
 -14  -1  10    9.00    6.12
 -14  -1  11   -0.83    4.67
 -14  -1  12    3.74    4.83
 -14   2 -22   44.59   10.49
 -14  -2 -22   28.67    8.40
 -14   2 -21   46.50   10.80
 -14  -2 -21   52.18   11.08
 -14   2 -20   46.27   10.11
 -14  -2 -20   38.13   10.47
 -14   2 -19   15.64    7.66
 -14  -2 -19   -1.12    2.94
 -14   2 -18    3.11    2.63
 -14  -2 -18    7.60    4.14
 -14   2 -17   22.07    6.32
 -14  -2 -17   33.26    8.77
 -14  -2 -16   83.94   13.31
 -14   2 -16  101.39   13.83
 -14   2 -15   50.45   10.01
 -14  -2 -15   72.06   11.59
 -14  -2 -14  110.67   14.63
 -14   2 -14  102.10   14.05
 -14   2 -13   21.54    7.06
 -14  -2 -13   34.53    8.30
 -14  -2 -12  114.41   14.19
 -14   2 -12  111.59   14.02
 -14   2 -11   28.07    6.72
 -14  -2 -11   21.44    6.21
 -14  -2 -10   88.56   12.82
 -14   2 -10  100.63   13.55
 -14  -2  -9  159.95   16.54
 -14   2  -9  150.21   16.25
 -14   2  -8   37.25    7.80
 -14  -2  -8   38.23    8.08
 -14   2  -7   27.05    6.71
 -14  -2  -7   41.48    8.05
 -14  -2  -6  122.31   14.13
 -14   2  -6  116.53   13.64
 -14  -2  -5  166.31   16.63
 -14   2  -5  154.02   16.21
 -14  -2  -4  138.44   15.42
 -14   2  -4  127.43   14.05
 -14   2  -3   24.38    5.94
 -14  -2  -3   30.25    7.20
 -14   2  -2   15.94    4.68
 -14  -2  -2   15.28    5.19
 -14   2  -1   19.88    5.64
 -14  -2  -1   21.32    6.47
 -14  -2   0  335.96   23.59
 -14   2   0  388.68   24.88
 -14   2   1   17.94    4.69
 -14  -2   1   21.57    6.70
 -14  -2   2   12.43    4.88
 -14   2   2   21.46    6.21
 -14  -2   3   33.75    7.54
 -14   2   3   25.21    6.76
 -14  -2   4  133.72   15.56
 -14   2   4  153.50   15.58
 -14  -2   5  147.55   16.52
 -14   2   5  127.18   14.09
 -14  -2   6  126.57   15.04
 -14   2   6  131.98   14.43
 -14  -2   7   40.08    8.27
 -14   2   7   19.71    5.40
 -14  -2   8   39.78    9.02
 -14   2   8   37.82    7.80
 -14  -2   9  157.89   16.86
 -14  -2  10   75.47   12.12
 -14  -2  11   22.18    6.53
 -14  -2  12  103.08   14.28
 -14  -2  13   33.72   10.32
 -14   3 -21    0.06    3.65
 -14  -3 -21    3.91    6.78
 -14   3 -20    7.73    6.55
 -14  -3 -20    7.68    5.52
 -14   3 -19    3.77    6.20
 -14  -3 -19    7.06    3.68
 -14   3 -18    2.24    2.28
 -14  -3 -18   -0.45    3.74
 -14   3 -17    6.76    5.60
 -14  -3 -17    1.09    3.19
 -14   3 -16   20.65    4.70
 -14  -3 -16   31.06    7.94
 -14   3 -15   12.53    5.30
 -14  -3 -15   21.20    6.88
 -14   3 -14   11.42    4.57
 -14  -3 -14   16.87    7.51
 -14   3 -13   14.52    4.57
 -14  -3 -13    5.43    2.89
 -14   3 -12    4.25    2.74
 -14  -3 -12    8.41    3.15
 -14   3 -11   14.84    5.37
 -14  -3 -11    8.62    3.47
 -14  -3 -10  102.46   13.96
 -14   3 -10   72.66   11.35
 -14   3  -9    4.81    2.07
 -14  -3  -9   14.62    6.06
 -14   3  -8   -1.79    2.75
 -14  -3  -8   -0.32    3.99
 -14   3  -7    0.11    2.54
 -14  -3  -7    4.61    2.15
 -14   3  -6   10.50    5.40
 -14  -3  -6    9.98    3.83
 -14   3  -5   22.31    6.95
 -14  -3  -5   17.96    7.06
 -14   3  -4   10.98    4.59
 -14  -3  -4    4.57    2.74
 -14   3  -3   33.35    7.82
 -14  -3  -3   27.50    7.13
 -14  -3  -2  225.53   19.89
 -14   3  -2  203.39   18.25
 -14   3  -1   33.42    7.25
 -14  -3  -1   36.84    7.98
 -14  -3   0  179.09   17.84
 -14   3   0  192.63   17.80
 -14   3   1   40.20    8.33
 -14  -3   1   36.68    7.51
 -14  -3   2  209.17   19.09
 -14   3   2  218.23   18.44
 -14   3   3   47.12    8.55
 -14  -3   3   18.84    5.56
 -14   3   4    3.27    2.48
 -14  -3   4   14.08    5.86
 -14  -3   5   41.11    8.00
 -14   3   5   20.46    5.83
 -14  -3   6   27.66    7.68
 -14   3   6   19.00    6.42
 -14  -3   7   12.35    4.39
 -14  -3   8   -1.47    3.67
 -14  -3   9    1.47    2.57
 -14  -3  10   86.36   12.99
 -14  -3  11   24.58    6.62
 -14  -3  12    0.67    2.83
 -14  -3  13   17.14    6.81
 -14  -3  14   16.95    6.24
 -14   4 -20   92.86   14.05
 -14  -4 -20   85.95   15.49
 -14   4 -19    3.17    3.56
 -14  -4 -19    8.40    5.68
 -14   4 -18   24.39    7.78
 -14  -4 -18   18.20    6.77
 -14   4 -17   69.20   11.99
 -14  -4 -17   57.10   11.96
 -14   4 -16   42.55    9.90
 -14  -4 -16   52.40   10.62
 -14   4 -15   34.42    7.27
 -14  -4 -15   30.89    8.43
 -14  -4 -14   66.23   11.87
 -14   4 -14   57.33   10.60
 -14   4 -13   12.85    5.11
 -14  -4 -13   18.34    7.55
 -14   4 -12   65.03   10.69
 -14  -4 -12   72.61   11.96
 -14   4 -11  135.74   16.16
 -14  -4 -11  143.50   16.69
 -14   4 -10   67.98   10.86
 -14  -4 -10   63.94   10.61
 -14   4  -9  142.55   16.06
 -14  -4  -9  118.44   14.89
 -14   4  -8   34.10    8.38
 -14  -4  -8   46.07    9.61
 -14   4  -7   16.11    5.25
 -14  -4  -7   24.47    7.74
 -14   4  -6  153.62   16.44
 -14  -4  -6  144.33   16.42
 -14   4  -5   56.12    9.66
 -14  -4  -5   43.16    8.66
 -14   4  -4  124.16   14.31
 -14  -4  -4  113.46   14.55
 -14  -4  -3   77.62   12.30
 -14   4  -3   84.92   12.04
 -14   4  -2   17.97    5.85
 -14  -4  -2   28.13    7.68
 -14   4  -1   42.41    8.38
 -14  -4  -1   31.61    9.04
 -14  -4   0  932.49   40.69
 -14   4   0  827.56   37.42
 -14   4   1   49.47    9.20
 -14  -4   1   43.44    9.20
 -14   4   2   31.76    7.28
 -14  -4   2   11.98    5.24
 -14  -4   3   80.60   12.34
 -14   4   3   89.49   12.68
 -14  -4   4   80.98   12.59
 -14   4   4  103.78   12.30
 -14  -4   5   56.27   10.49
 -14   4   5   43.03    8.17
 -14  -4   6  177.12   18.19
 -14  -4   7    8.81    3.26
 -14  -4   8   42.19    9.59
 -14  -4   9  123.72   15.83
 -14  -4  10   45.25   10.63
 -14  -4  11  148.58   17.77
 -14  -4  12   80.26   13.35
 -14  -4  13   14.64    6.71
 -14  -4  14   54.83   11.31
 -14  -4  15   38.00    9.34
 -14  -5 -18    2.31    5.14
 -14   5 -18   -1.69    3.66
 -14  -5 -17    6.29    6.27
 -14   5 -17    2.47    3.44
 -14  -5 -16   20.74    6.51
 -14   5 -16   20.43    7.34
 -14  -5 -15   -0.25    4.81
 -14   5 -15   -2.74    3.86
 -14  -5 -14   21.46    7.64
 -14   5 -14   17.09    6.29
 -14  -5 -13    3.29    3.90
 -14   5 -13    6.97    3.86
 -14  -5 -12   24.53    7.05
 -14   5 -12   14.40    5.59
 -14  -5 -11   27.08    7.15
 -14   5 -11   29.45    8.52
 -14  -5 -10   10.72    3.11
 -14   5 -10   26.26    7.21
 -14  -5  -9   13.57    7.05
 -14   5  -9   21.96    7.23
 -14  -5  -8    5.53    3.00
 -14   5  -8    9.02    3.46
 -14  -5  -7   10.04    4.69
 -14   5  -7   20.56    5.79
 -14  -5  -6   -0.84    2.84
 -14   5  -6   -1.68    2.88
 -14  -5  -5    1.16    3.87
 -14   5  -5    4.21    1.94
 -14  -5  -4   18.53    4.50
 -14   5  -4   15.73    4.22
 -14  -5  -3   17.57    6.88
 -14   5  -3   19.41    7.29
 -14  -5  -2   17.84    6.20
 -14   5  -2   20.82    6.87
 -14   5  -1   95.77   13.17
 -14  -5  -1   86.12   12.92
 -14   5   0  172.27   17.33
 -14  -5   0  153.50   16.39
 -14  -5   1   82.67   11.72
 -14   5   1  104.38   13.99
 -14  -5   2   16.49    5.37
 -14   5   2    6.84    2.31
 -14  -5   3   22.17    7.45
 -14   5   3    4.37    3.38
 -14  -5   4   27.54    7.24
 -14   5   4   18.75    6.68
 -14  -5   5    2.10    3.44
 -14  -5   6    6.53    4.62
 -14  -5   7   21.68    7.23
 -14  -5   8    3.46    3.09
 -14  -5   9   14.65    5.41
 -14  -5  10   28.35    8.20
 -14  -5  11   39.53    7.71
 -14  -5  12   36.70    8.80
 -14  -5  13    8.64    4.25
 -14  -5  14   16.81    5.75
 -14  -5  15    3.59    4.57
 -14  -5  16   14.38    6.58
 -14  -6 -16   58.76   11.83
 -14   6 -16   53.83   10.92
 -14  -6 -15    9.61    5.94
 -14   6 -15    5.97    3.78
 -14  -6 -14   17.18    7.50
 -14   6 -14   19.39    6.84
 -14  -6 -13   24.58    8.97
 -14   6 -13    4.54    4.14
 -14   6 -12   58.79   11.13
 -14  -6 -12   49.92   10.91
 -14  -6 -11   44.05   10.32
 -14   6 -11   43.41    9.64
 -14  -6 -10  169.61   19.09
 -14   6 -10  137.51   15.94
 -14  -6  -9   29.69    7.98
 -14   6  -9   32.27    7.58
 -14  -6  -8    5.98    3.09
 -14   6  -8   14.94    5.56
 -14  -6  -7   31.06    7.37
 -14   6  -7   38.32    8.72
 -14  -6  -6  224.23   21.51
 -14   6  -6  191.17   19.15
 -14  -6  -5   10.23    6.62
 -14   6  -5   14.08    6.12
 -14  -6  -4  112.99   14.78
 -14   6  -4  136.74   15.91
 -14  -6  -3   73.71   11.91
 -14   6  -3   58.07   10.78
 -14  -6  -2   50.84    9.93
 -14   6  -2   48.83    8.86
 -14   6  -1   61.49   10.88
 -14  -6  -1   55.41   10.82
 -14  -6   0  368.47   26.66
 -14   6   0  338.58   25.60
 -14  -6   1   65.46   11.65
 -14   6   1   69.72   11.83
 -14  -6   2   49.33   10.94
 -14   6   2   61.77   10.67
 -14   6   3   21.08    8.25
 -14  -6   3   60.26   10.89
 -14  -6   4  127.01   16.35
 -14  -6   5    4.89    4.31
 -14  -6   6  235.15   21.77
 -14  -6   7   29.40    8.93
 -14  -6   8    4.61    2.92
 -14  -6   9   51.84   10.67
 -14  -6  10  156.36   18.38
 -14  -6  11   31.21    7.60
 -14  -6  12   51.95   11.73
 -14  -6  13   12.16    6.04
 -14  -6  14   -0.34    5.15
 -14  -6  15    1.56    4.06
 -14  -6  16   46.33   11.03
 -14  -7 -13    9.51    6.49
 -14   7 -13    7.76    3.78
 -14  -7 -12    0.57    2.87
 -14   7 -12   26.05    7.66
 -14  -7 -11    4.81    3.32
 -14   7 -11   15.91    6.58
 -14  -7 -10    6.46    3.97
 -14   7 -10   -0.34    2.54
 -14  -7  -9    4.03    4.76
 -14   7  -9    8.56    5.35
 -14  -7  -8   31.66    8.14
 -14   7  -8   25.77    8.06
 -14  -7  -7    2.45    2.82
 -14   7  -7    4.23    5.02
 -14  -7  -6   35.86    9.36
 -14   7  -6   49.09    9.41
 -14  -7  -5   27.47    7.73
 -14   7  -5   31.02    7.74
 -14  -7  -4    5.12    4.92
 -14   7  -4   10.52    4.40
 -14  -7  -3   31.12    8.81
 -14   7  -3   18.02    5.90
 -14  -7  -2   38.47    8.91
 -14   7  -2   33.72    9.04
 -14  -7  -1    5.00    3.74
 -14   7  -1    3.86    4.22
 -14  -7   0   60.89   10.97
 -14   7   0   71.54   11.26
 -14  -7   1   -4.78    4.88
 -14   7   1   -0.09    2.66
 -14  -7   2   37.87    9.37
 -14  -7   3   41.37    9.36
 -14  -7   4    7.62    5.96
 -14  -7   5   24.87    7.92
 -14  -7   6   25.07    8.51
 -14  -7   7    3.68    4.19
 -14  -7   8   14.94    5.39
 -14  -7   9    2.89    2.72
 -14  -7  10    7.20    4.24
 -14  -7  11    4.39    5.55
 -14  -7  12    8.83    4.59
 -14  -7  13    1.38    4.95
 -14  -8  -8    7.94    4.12
 -14   8  -8   27.79    8.71
 -14  -8  -7   16.82    6.15
 -14   8  -7   20.28    7.06
 -14  -8  -6   29.20    8.72
 -14   8  -6   39.68    9.53
 -14  -8  -5    0.08    3.30
 -14   8  -5    5.30    3.91
 -14  -8  -4   35.28    9.49
 -14   8  -4   49.70   10.83
 -14  -8  -3   17.70    7.36
 -14   8  -3    3.82    3.22
 -14  -8  -2    3.84    3.31
 -14   8  -2    5.42    3.89
 -14  -8  -1   29.87    9.63
 -14   8  -1   24.76    8.03
 -14  -8   0   -3.59    6.05
 -14  -8   1   24.98    8.05
 -14  -8   2    7.88    5.84
 -14  -8   3   27.81    8.58
 -14  -8   4   54.27   10.79
 -14  -8   5   -0.98    5.47
 -14  -8   6   37.09    8.87
 -14  -8   7   15.34    6.26
 -14  -8   8   18.41    7.25
 -15   0 -21    0.30    3.54
 -15   0 -20   -1.54    4.08
 -15   0 -19   -2.14    5.29
 -15   0 -18    0.78    4.54
 -15   0 -17    1.65    4.86
 -15   0 -16   -0.58    4.81
 -15   0 -15    3.17    4.54
 -15   0 -14   -1.72    4.70
 -15   0 -13   -1.33    4.08
 -15   0 -12    1.65    3.07
 -15   0 -11    0.93    3.56
 -15   0 -10   -0.92    2.34
 -15   0  -9   -0.34    3.74
 -15   0  -8    1.17    2.43
 -15   0  -7    3.02    4.46
 -15   0  -6    0.34    4.05
 -15   0  -5   -0.22    2.08
 -15   0  -4   -0.06    2.40
 -15   0  -3   -0.24    2.24
 -15   0  -2    3.69    4.65
 -15   0  -1    1.65    3.81
 -15   0   0    1.04    2.09
 -15   0   1    0.60    2.77
 -15   0   2   -0.03    2.65
 -15   0   3   -1.11    1.99
 -15   0   4    0.80    2.46
 -15   0   5   -0.79    1.82
 -15   0   6    0.88    4.68
 -15   0   7    0.86    2.75
 -15   0   8   -1.03    4.42
 -15   0   9   -2.63    3.20
 -15   0  10    4.03    5.19
 -15   1 -21   -3.15    3.39
 -15  -1 -21    4.96    3.27
 -15   1 -20    3.15    2.99
 -15  -1 -20   -2.66    4.62
 -15   1 -19   20.44    8.07
 -15  -1 -19   28.33    7.85
 -15   1 -18    7.15    5.29
 -15  -1 -18    6.79    3.46
 -15   1 -17   61.65   11.13
 -15  -1 -17   71.61   12.76
 -15   1 -16   39.95    8.61
 -15  -1 -16   50.29   10.82
 -15   1 -15    5.03    2.82
 -15  -1 -15    3.46    3.24
 -15   1 -14   22.93    6.91
 -15  -1 -14   21.40    6.97
 -15  -1 -13  283.81   23.25
 -15   1 -13  299.42   23.90
 -15   1 -12   37.42    8.10
 -15  -1 -12   53.91   10.05
 -15   1 -11    6.58    3.33
 -15  -1 -11    3.77    4.77
 -15   1 -10   19.95    5.37
 -15  -1 -10   29.70    6.59
 -15   1  -9    8.62    3.96
 -15  -1  -9    9.64    5.13
 -15  -1  -8   54.29   10.87
 -15   1  -8   65.53   10.37
 -15  -1  -7  170.50   17.18
 -15   1  -7  174.82   17.34
 -15   1  -6   12.43    5.24
 -15  -1  -6   10.50    5.50
 -15   1  -5   51.43   10.13
 -15  -1  -5   44.72    8.60
 -15  -1  -4   72.21   11.16
 -15   1  -4   83.97   11.81
 -15  -1  -3   95.20   12.46
 -15   1  -3  100.73   12.96
 -15  -1  -2   10.59    5.05
 -15   1  -2    8.75    3.47
 -15  -1  -1   -1.42    2.96
 -15   1  -1    9.23    5.35
 -15  -1   0    0.35    2.43
 -15   1   0    0.90    2.07
 -15  -1   1    1.98    2.85
 -15   1   1    6.24    3.84
 -15  -1   2    7.45    4.48
 -15   1   2    6.35    2.61
 -15  -1   3  130.00   14.84
 -15   1   3  111.16   13.94
 -15   1   4   80.06   11.27
 -15  -1   4   44.75    9.32
 -15  -1   5   55.21   10.16
 -15   1   5   68.09    9.85
 -15  -1   6   15.05    5.37
 -15   1   6   16.57    6.08
 -15  -1   7  194.02   18.75
 -15   1   7  148.93   15.99
 -15  -1   8   70.64   11.34
 -15   1   8   70.50   11.01
 -15  -1   9    1.38    3.37
 -15   1   9   -0.46    3.23
 -15  -1  10   24.65    7.38
 -15  -1  11    0.28    3.56
 -15   2 -20    1.21    3.87
 -15  -2 -20    5.03    3.56
 -15   2 -19    5.22    4.61
 -15  -2 -19    8.87    6.49
 -15   2 -18   18.35    6.04
 -15  -2 -18   14.70    6.42
 -15   2 -17   -2.91    3.89
 -15  -2 -17    0.97    5.17
 -15   2 -16   18.15    7.11
 -15  -2 -16   16.58    6.00
 -15   2 -15   43.73    9.45
 -15  -2 -15   34.49    8.41
 -15   2 -14   37.88    9.23
 -15  -2 -14   29.50    7.24
 -15  -2 -13   67.56   11.97
 -15   2 -13   61.10   11.18
 -15   2 -12   11.20    5.86
 -15  -2 -12   11.85    6.14
 -15   2 -11   16.78    5.88
 -15  -2 -11    7.38    4.45
 -15   2 -10   38.02    8.93
 -15  -2 -10   18.26    6.50
 -15   2  -9    5.63    1.76
 -15  -2  -9   19.88    6.95
 -15   2  -8    7.50    3.54
 -15  -2  -8    5.13    3.41
 -15   2  -7   38.74    8.23
 -15  -2  -7   26.63    6.72
 -15   2  -6   10.60    4.98
 -15  -2  -6   15.34    5.85
 -15   2  -5   11.78    5.86
 -15  -2  -5    6.57    3.34
 -15   2  -4    7.02    3.23
 -15  -2  -4   19.71    6.98
 -15   2  -3    2.60    1.82
 -15  -2  -3   -1.62    3.48
 -15   2  -2    3.87    3.78
 -15  -2  -2    3.46    4.05
 -15   2  -1    2.70    2.08
 -15  -2  -1    1.16    2.90
 -15   2   0    7.65    5.11
 -15  -2   0    2.47    2.77
 -15  -2   1    3.11    3.30
 -15   2   1    3.39    4.02
 -15  -2   2    2.79    3.16
 -15   2   2    3.50    2.27
 -15  -2   3    0.90    3.39
 -15   2   3    2.75    3.55
 -15  -2   4   12.53    4.95
 -15   2   4   10.57    4.92
 -15  -2   5   26.81    6.39
 -15   2   5   20.85    6.45
 -15  -2   6   21.36    7.02
 -15   2   6   17.38    6.08
 -15  -2   7   27.47    7.81
 -15   2   7   21.19    7.48
 -15  -2   8    3.15    3.92
 -15  -2   9   15.31    5.89
 -15  -2  10   32.21    7.60
 -15  -2  11   10.65    6.78
 -15  -2  12    7.36    4.90
 -15   3 -19   15.22    6.36
 -15  -3 -19    3.30    4.38
 -15   3 -18   52.88   11.26
 -15  -3 -18   53.09   11.49
 -15  -3 -17  117.96   16.05
 -15   3 -17  151.70   17.71
 -15   3 -16   14.41    6.12
 -15  -3 -16    4.67    4.11
 -15   3 -15   10.53    4.25
 -15  -3 -15   13.54    6.22
 -15   3 -14   35.79    7.15
 -15  -3 -14   25.52    7.42
 -15   3 -13   15.58    7.36
 -15  -3 -13   14.64    6.14
 -15  -3 -12   99.44   13.67
 -15   3 -12  110.46   14.48
 -15   3 -11   38.91    8.48
 -15  -3 -11   33.78    8.10
 -15   3 -10    2.59    4.45
 -15  -3 -10   10.86    6.65
 -15   3  -9   39.25    7.90
 -15  -3  -9   38.31    8.99
 -15   3  -8   37.08    8.25
 -15  -3  -8   36.96    8.86
 -15   3  -7   25.69    7.50
 -15  -3  -7   26.67    7.80
 -15  -3  -6   59.51   10.30
 -15   3  -6   65.67   10.49
 -15   3  -5   43.39    8.65
 -15  -3  -5   44.08    8.90
 -15   3  -4   30.90    7.72
 -15  -3  -4   26.58    7.25
 -15  -3  -3  178.58   17.86
 -15   3  -3  136.30   15.00
 -15   3  -2   48.65    8.96
 -15  -3  -2   26.87    7.24
 -15  -3  -1   61.40   10.42
 -15   3  -1   47.37    9.40
 -15  -3   0   88.31   12.65
 -15   3   0   93.29   11.96
 -15  -3   1   59.23    9.87
 -15   3   1   71.32   10.72
 -15  -3   2   45.14    9.35
 -15   3   2   61.43   10.61
 -15  -3   3  150.52   16.85
 -15   3   3  167.46   16.88
 -15  -3   4   41.74    8.39
 -15   3   4   26.61    6.42
 -15  -3   5   51.19    9.64
 -15   3   5   54.56    9.64
 -15  -3   6   72.93   11.97
 -15   3   6   73.32   11.28
 -15  -3   7   27.79    7.06
 -15  -3   8   35.12    8.21
 -15  -3   9   19.20    6.03
 -15  -3  10    1.41    3.12
 -15  -3  11   54.48   10.63
 -15  -3  12  108.63   14.90
 -15  -3  13   14.46    6.09
 -15   4 -18   11.48    6.37
 -15  -4 -18   13.36    7.30
 -15   4 -17   26.35    8.67
 -15  -4 -17   25.13    7.97
 -15   4 -16   26.50    8.03
 -15  -4 -16   13.68    5.81
 -15   4 -15   22.99    7.30
 -15  -4 -15   40.59    9.75
 -15   4 -14   25.75    6.77
 -15  -4 -14   32.76    9.13
 -15   4 -13   70.43   12.18
 -15  -4 -13   53.34   11.03
 -15   4 -12    0.07    2.72
 -15  -4 -12    4.07    3.59
 -15   4 -11   64.42   11.19
 -15  -4 -11   53.58   10.37
 -15   4 -10   14.84    6.40
 -15  -4 -10   15.53    4.99
 -15   4  -9   40.53    9.34
 -15  -4  -9   40.01    8.92
 -15  -4  -8   63.43   11.37
 -15   4  -8   60.05   10.57
 -15  -4  -7   50.71   10.63
 -15   4  -7   69.20   11.08
 -15   4  -6   15.76    6.11
 -15  -4  -6   20.45    6.88
 -15   4  -5   32.53    7.83
 -15  -4  -5   38.15    9.31
 -15   4  -4   14.17    6.31
 -15  -4  -4   18.50    6.26
 -15   4  -3   18.71    7.67
 -15  -4  -3   11.46    4.85
 -15   4  -2    5.18    4.64
 -15  -4  -2    2.84    3.20
 -15   4  -1   11.91    4.86
 -15  -4  -1   16.03    5.19
 -15   4   0   38.35    8.01
 -15  -4   0   34.71    8.80
 -15   4   1   15.17    6.00
 -15  -4   1   18.24    7.33
 -15   4   2   -1.19    2.13
 -15  -4   2    9.75    5.45
 -15   4   3   11.38    5.55
 -15  -4   3    7.80    5.04
 -15   4   4   18.00    4.59
 -15  -4   4   35.92    8.53
 -15  -4   5   37.04    8.42
 -15   4   5   47.79   11.24
 -15  -4   6   14.30    5.24
 -15  -4   7   64.27   11.16
 -15  -4   8   73.78   12.29
 -15  -4   9   32.48    7.71
 -15  -4  10   30.10    8.38
 -15  -4  11   60.27   11.24
 -15  -4  12    7.17    4.58
 -15  -4  13   64.25   12.17
 -15  -4  14   32.42    8.60
 -15  -5 -16   14.31    6.63
 -15   5 -16   17.59    6.30
 -15  -5 -15   16.77    6.10
 -15   5 -15   10.55    4.70
 -15  -5 -14   33.84   10.10
 -15   5 -14   42.04    9.52
 -15  -5 -13   56.06   11.88
 -15   5 -13   44.29    9.49
 -15  -5 -12   13.60    4.90
 -15   5 -12   24.25    7.72
 -15  -5 -11   18.00    6.51
 -15   5 -11   14.96    6.67
 -15  -5 -10   42.34    9.54
 -15   5 -10   48.85    9.57
 -15   5  -9  118.86   15.72
 -15  -5  -9  121.11   16.55
 -15  -5  -8   16.14    6.65
 -15   5  -8   11.82    4.75
 -15  -5  -7   26.89    7.67
 -15   5  -7   22.90    7.83
 -15  -5  -6   51.42    9.86
 -15   5  -6   46.38    8.87
 -15  -5  -5    8.79    5.02
 -15   5  -5    7.04    4.09
 -15  -5  -4   20.69    6.12
 -15   5  -4   34.37    8.42
 -15  -5  -3   80.79   13.21
 -15   5  -3  105.08   14.36
 -15  -5  -2    2.05    4.73
 -15   5  -2    3.17    2.96
 -15  -5  -1  115.54   15.19
 -15   5  -1  118.98   15.35
 -15  -5   0  109.24   14.05
 -15   5   0  102.40   13.83
 -15  -5   1  113.63   14.58
 -15   5   1  107.30   14.00
 -15   5   2    0.54    2.65
 -15  -5   2   -0.65    2.11
 -15  -5   3  112.33   15.06
 -15   5   3  108.32   13.74
 -15  -5   4   35.68    8.63
 -15  -5   5    9.62    4.22
 -15  -5   6   66.48   11.96
 -15  -5   7   21.92    7.27
 -15  -5   8   16.48    6.49
 -15  -5   9  112.82   15.51
 -15  -5  10   54.36   11.85
 -15  -5  11    5.94    3.60
 -15  -5  12   20.77    8.03
 -15  -5  13   48.32   10.41
 -15  -5  14   35.25    9.75
 -15  -5  15   30.66    8.55
 -15  -6 -14   -2.22    5.79
 -15   6 -14   -2.88    5.02
 -15  -6 -13   -2.34    5.82
 -15   6 -13   -2.67    3.95
 -15  -6 -12   17.63    6.85
 -15   6 -12    6.56    3.08
 -15  -6 -11    8.97    7.72
 -15   6 -11   -3.16    4.38
 -15  -6 -10   31.19    8.36
 -15   6 -10   17.74    6.28
 -15  -6  -9    8.69    5.83
 -15   6  -9    6.40    5.42
 -15  -6  -8    2.75    2.86
 -15   6  -8    3.87    2.80
 -15  -6  -7    7.89    5.28
 -15   6  -7    7.01    2.31
 -15  -6  -6   19.47    7.46
 -15   6  -6   10.73    5.72
 -15  -6  -5    7.84    4.66
 -15   6  -5    2.89    3.50
 -15  -6  -4   52.57    9.98
 -15   6  -4   42.86    9.90
 -15  -6  -3    0.02    3.82
 -15   6  -3    7.97    4.05
 -15  -6  -2   50.30   10.01
 -15   6  -2   42.06    9.51
 -15  -6  -1   66.49   11.36
 -15   6  -1   50.01    9.64
 -15  -6   0   50.76   10.49
 -15   6   0   46.74   10.05
 -15  -6   1   44.15    9.65
 -15   6   1   50.29   10.09
 -15  -6   2   47.29    9.70
 -15   6   2   39.33    9.47
 -15  -6   3    6.27    3.97
 -15  -6   4   49.32   10.16
 -15  -6   5   20.07    6.48
 -15  -6   6   14.41    6.79
 -15  -6   7    4.43    4.08
 -15  -6   8   14.70    6.32
 -15  -6   9   -1.62    5.07
 -15  -6  10   29.24    8.40
 -15  -6  11   12.32    5.89
 -15  -6  12    9.30    4.44
 -15  -6  13   -5.16    4.29
 -15  -6  14   11.69    7.79
 -15  -7 -10   45.38   10.16
 -15   7 -10   32.23    8.87
 -15  -7  -9   44.31   10.21
 -15   7  -9   55.63   10.70
 -15  -7  -8   -1.41    3.68
 -15   7  -8    2.55    2.63
 -15  -7  -7   28.00    9.12
 -15   7  -7   23.88    6.69
 -15  -7  -6    7.42    5.51
 -15   7  -6   14.72    8.01
 -15  -7  -5    9.89    4.39
 -15   7  -5   13.33    6.18
 -15  -7  -4   18.70    6.36
 -15   7  -4   30.76    9.27
 -15  -7  -3   51.58   10.26
 -15   7  -3   39.52    9.27
 -15  -7  -2   10.04    5.72
 -15   7  -2   13.58    6.04
 -15  -7  -1   55.46   12.21
 -15   7  -1   19.41    6.98
 -15  -7   0   29.52    6.97
 -15   7   0   30.08    8.60
 -15  -7   1   32.29    7.22
 -15  -7   2    9.82    4.51
 -15  -7   3   40.73    9.63
 -15  -7   4    9.51    4.70
 -15  -7   5   10.56    5.12
 -15  -7   6    2.66    3.63
 -15  -7   7   31.19    7.70
 -15  -7   8   16.02    8.00
 -15  -7   9   68.59   12.36
 -15  -7  10   35.16    8.98
 -15  -8  -2   59.70   12.17
 -15   8  -2   33.38    9.52
 -15  -8  -1   29.65    9.60
 -15  -8   0   14.94    7.43
 -15  -8   1   25.44    8.96
 -15  -8   2   43.56   10.83
 -16   0 -19  126.06   17.05
 -16   0 -18   57.25   11.04
 -16   0 -17  127.53   16.24
 -16   0 -16   15.71    6.52
 -16   0 -15   22.34    6.70
 -16   0 -14    7.49    4.89
 -16   0 -13  343.11   25.88
 -16   0 -12   13.33    3.44
 -16   0 -11   50.46   10.23
 -16   0 -10   31.95    8.60
 -16   0  -9   62.86   11.08
 -16   0  -8   23.65    6.80
 -16   0  -7  265.04   21.79
 -16   0  -6   12.17    3.64
 -16   0  -5    1.33    3.88
 -16   0  -4   57.22   10.35
 -16   0  -3  205.65   19.43
 -16   0  -2  172.03   17.85
 -16   0  -1   37.81    8.38
 -16   0   0    7.05    4.28
 -16   0   1   33.73    8.17
 -16   0   2  199.75   18.49
 -16   0   3  231.86   20.28
 -16   0   4   49.08    9.21
 -16   0   5    8.03    4.40
 -16   0   6   14.70    4.26
 -16   0   7  253.27   21.64
 -16   0   8   22.96    6.84
 -16   0   9   58.96   10.86
 -16   1 -19    5.65    5.98
 -16  -1 -19   -3.01    6.57
 -16   1 -18    7.83    5.89
 -16  -1 -18   -4.98    4.29
 -16   1 -17   11.21    6.31
 -16  -1 -17   12.36    5.63
 -16   1 -16   -0.48    3.33
 -16  -1 -16    3.77    3.26
 -16   1 -15    7.43    5.00
 -16  -1 -15   11.93    4.61
 -16   1 -14   20.87    8.29
 -16  -1 -14   38.21    8.70
 -16   1 -13   29.54    7.99
 -16  -1 -13   13.88    5.82
 -16   1 -12   -1.63    2.80
 -16  -1 -12    0.95    2.26
 -16   1 -11    6.91    6.54
 -16  -1 -11    0.85    3.64
 -16   1 -10    5.37    4.25
 -16  -1 -10    3.50    4.43
 -16   1  -9    3.62    3.69
 -16  -1  -9   18.75    7.42
 -16   1  -8    7.35    3.92
 -16  -1  -8    3.54    2.43
 -16  -1  -7    4.44    3.92
 -16   1  -7    3.00    5.45
 -16  -1  -6    8.00    5.36
 -16   1  -6    8.53    4.83
 -16  -1  -5   36.03    7.55
 -16   1  -5   39.86    8.03
 -16  -1  -4    0.50    3.07
 -16   1  -4    0.19    3.66
 -16  -1  -3   48.81    9.72
 -16   1  -3   30.70    7.82
 -16  -1  -2    5.13    3.88
 -16   1  -2    2.68    3.26
 -16  -1  -1   12.51    4.80
 -16   1  -1    8.49    2.77
 -16  -1   0    2.53    2.93
 -16   1   0   10.46    6.43
 -16  -1   1   11.00    4.39
 -16   1   1    7.96    3.16
 -16  -1   2    1.91    3.72
 -16   1   2    1.87    2.23
 -16   1   3   51.01   10.19
 -16  -1   3   35.75    7.54
 -16  -1   4   -2.15    2.89
 -16   1   4    1.43    3.36
 -16  -1   5   39.46    8.45
 -16   1   5   41.17    8.37
 -16  -1   6   12.75    6.16
 -16   1   6    5.59    3.09
 -16  -1   7    7.96    4.74
 -16   1   7   -1.49    2.28
 -16  -1   8   -0.79    4.04
 -16   1   8    0.26    2.50
 -16  -1   9   11.67    5.61
 -16  -1  10    1.60    4.11
 -16   2 -19   30.40    9.58
 -16  -2 -19   10.69    6.23
 -16   2 -18   14.65    6.97
 -16  -2 -18   13.22    6.66
 -16  -2 -17  110.83   15.61
 -16   2 -17  141.72   16.85
 -16   2 -16   19.36    7.35
 -16  -2 -16   11.87    6.40
 -16   2 -15    9.28    5.72
 -16  -2 -15    0.87    5.12
 -16   2 -14    3.49    3.42
 -16  -2 -14    6.05    4.57
 -16  -2 -13  185.66   19.13
 -16   2 -13  219.74   20.37
 -16   2 -12   10.72    5.07
 -16  -2 -12   22.44    7.30
 -16   2 -11   29.95    7.94
 -16  -2 -11   50.62    9.53
 -16   2 -10   16.34    6.31
 -16  -2 -10    3.57    3.87
 -16   2  -9   28.53    6.78
 -16  -2  -9   40.11    8.39
 -16   2  -8    6.38    4.22
 -16  -2  -8   10.82    4.91
 -16  -2  -7  101.47   13.19
 -16   2  -7  128.90   14.94
 -16   2  -6    2.79    2.94
 -16  -2  -6    7.10    4.07
 -16   2  -5   16.67    6.37
 -16  -2  -5   11.04    4.69
 -16   2  -4   16.05    6.34
 -16  -2  -4   12.29    4.69
 -16  -2  -3  189.54   18.60
 -16   2  -3  201.05   18.65
 -16   2  -2   17.03    5.40
 -16  -2  -2   10.92    4.46
 -16  -2  -1   10.98    4.55
 -16   2  -1   16.30    6.01
 -16  -2   0   -0.06    3.10
 -16   2   0    4.96    3.23
 -16  -2   1   30.95    7.32
 -16   2   1   13.92    5.37
 -16  -2   2    8.96    3.84
 -16   2   2    9.16    3.88
 -16  -2   3  174.13   18.24
 -16   2   3  195.07   18.60
 -16  -2   4    5.62    5.11
 -16   2   4    5.04    3.36
 -16  -2   5   15.76    6.13
 -16   2   5   15.84    6.56
 -16  -2   6   11.72    6.12
 -16   2   6    6.35    4.47
 -16  -2   7  134.92   16.05
 -16   2   7  129.43   15.94
 -16  -2   8   15.43    5.59
 -16  -2   9   32.07    8.68
 -16  -2  10    6.78    4.33
 -16  -2  11   22.90    7.62
 -16  -2  12   -3.10    2.70
 -16   3 -18   -0.15    4.14
 -16  -3 -18   -1.42    4.13
 -16   3 -17    6.05    4.59
 -16  -3 -17    0.13    3.70
 -16   3 -16    8.64    5.75
 -16  -3 -16    5.20    4.90
 -16   3 -15    0.04    4.00
 -16  -3 -15    2.25    3.21
 -16   3 -14   -0.14    3.68
 -16  -3 -14   -2.50    3.99
 -16   3 -13    4.92    2.84
 -16  -3 -13   14.07    6.51
 -16   3 -12   -1.27    2.98
 -16  -3 -12    3.15    4.47
 -16   3 -11   10.99    5.84
 -16  -3 -11   14.97    6.67
 -16   3 -10    1.95    2.16
 -16  -3 -10   -1.17    4.81
 -16   3  -9    5.08    2.61
 -16  -3  -9    9.40    3.18
 -16   3  -8    4.89    4.89
 -16  -3  -8    4.15    3.48
 -16   3  -7   10.94    5.46
 -16  -3  -7    6.85    4.26
 -16   3  -6    3.70    5.04
 -16  -3  -6    4.59    4.53
 -16   3  -5    6.63    3.28
 -16  -3  -5    8.26    7.37
 -16   3  -4    0.35    3.42
 -16  -3  -4    7.30    5.27
 -16   3  -3   -0.37    3.61
 -16  -3  -3    3.09    4.49
 -16   3  -2    4.99    4.11
 -16  -3  -2    3.66    2.46
 -16   3  -1    7.65    3.42
 -16  -3  -1    2.57    4.06
 -16   3   0   -2.82    4.37
 -16  -3   0   -2.43    4.21
 -16   3   1    4.95    4.61
 -16  -3   1    7.17    3.70
 -16   3   2    7.34    5.79
 -16  -3   2    4.40    3.40
 -16  -3   3   -3.17    4.31
 -16   3   3   -0.93    3.48
 -16  -3   4    3.38    3.92
 -16   3   4    5.49    3.82
 -16  -3   5    3.00    2.45
 -16   3   5    2.40    2.66
 -16  -3   6    9.53    4.48
 -16  -3   7    4.42    3.18
 -16  -3   8    7.59    3.55
 -16  -3   9   12.43    6.10
 -16  -3  10    4.60    4.53
 -16  -3  11   20.21    7.20
 -16  -3  12   -0.28    3.23
 -16   4 -16   16.93    6.38
 -16  -4 -16    6.99    3.59
 -16   4 -15   33.78    7.39
 -16  -4 -15   22.55    6.24
 -16   4 -14    7.72    4.82
 -16  -4 -14    8.54    5.67
 -16  -4 -13  174.23   18.67
 -16   4 -13  168.73   19.28
 -16   4 -12   18.47    5.08
 -16  -4 -12   23.32    8.38
 -16   4 -11   37.29    8.01
 -16  -4 -11   27.62    7.92
 -16   4 -10   17.56    6.26
 -16  -4 -10   29.11    8.44
 -16  -4  -9   82.13   13.10
 -16   4  -9   83.85   13.15
 -16   4  -8   -2.00    3.29
 -16  -4  -8    0.93    3.66
 -16  -4  -7   67.10   12.32
 -16   4  -7   78.31   12.43
 -16   4  -6    1.16    2.27
 -16  -4  -6    3.15    2.76
 -16  -4  -5   20.89    6.73
 -16   4  -5   47.63   10.19
 -16   4  -4   15.40    5.35
 -16  -4  -4    6.52    4.46
 -16  -4  -3  168.08   18.80
 -16   4  -3  165.77   17.75
 -16   4  -2   26.43    7.44
 -16  -4  -2   20.15    6.34
 -16   4  -1   36.83    8.42
 -16  -4  -1   35.85    8.83
 -16   4   0    6.97    5.43
 -16  -4   0   -1.09    2.77
 -16   4   1   41.40    8.59
 -16  -4   1   29.24    8.45
 -16   4   2    8.92    5.83
 -16  -4   2    6.87    4.23
 -16  -4   3  164.40   18.29
 -16   4   3  175.86   18.13
 -16   4   4    7.63    5.95
 -16  -4   4   10.70    4.99
 -16  -4   5   46.03   11.05
 -16  -4   6   -0.72    3.48
 -16  -4   7  102.59   13.84
 -16  -4   8    3.44    3.07
 -16  -4   9   88.05   13.24
 -16  -4  10   23.99    6.44
 -16  -4  11   32.18    9.38
 -16  -4  12   16.21    7.14
 -16  -4  13  167.46   19.06
 -16  -4  14  -12.71    5.40
 -16  -5 -14   62.10   12.54
 -16   5 -14   66.20   12.02
 -16  -5 -13   11.86    6.56
 -16   5 -13    3.47    3.53
 -16  -5 -12    9.90    6.14
 -16   5 -12   12.66    6.69
 -16  -5 -11   16.88    4.63
 -16   5 -11    8.15    6.07
 -16  -5 -10   14.53    5.79
 -16   5 -10   12.76    4.85
 -16  -5  -9    1.10    3.82
 -16   5  -9    0.58    3.86
 -16  -5  -8   -0.33    4.65
 -16   5  -8    3.87    2.20
 -16  -5  -7    4.67    4.30
 -16   5  -7    5.55    4.24
 -16  -5  -6   -2.40    3.60
 -16   5  -6    5.34    4.89
 -16   5  -5   31.22    7.93
 -16  -5  -5   21.57    6.86
 -16   5  -4   15.70    6.09
 -16  -5  -4   12.72    5.66
 -16   5  -3   12.11    5.42
 -16  -5  -3   15.79    5.10
 -16   5  -2    8.77    2.87
 -16  -5  -2   13.65    6.30
 -16   5  -1   23.31    6.64
 -16  -5  -1   23.62    7.19
 -16   5   0   -3.71    4.67
 -16  -5   0    3.20    5.02
 -16   5   1   33.40    9.04
 -16  -5   1   26.21    8.48
 -16   5   2    6.94    5.14
 -16  -5   2    8.64    5.49
 -16  -5   3   13.72    5.98
 -16  -5   4   19.58    6.18
 -16  -5   5   28.28    8.08
 -16  -5   6    2.60    3.11
 -16  -5   7    0.24    3.23
 -16  -5   8    1.80    2.58
 -16  -5   9    2.14    3.18
 -16  -5  10   21.59    7.51
 -16  -5  11    6.92    4.33
 -16  -5  12    9.49    4.02
 -16  -5  13    8.85    6.24
 -16  -5  14   50.32   11.85
 -16  -6 -11   27.06    6.57
 -16   6 -11   24.90    8.08
 -16  -6 -10   24.96    8.25
 -16   6 -10   25.16    7.69
 -16   6  -9  110.80   15.16
 -16  -6  -9   65.89   13.81
 -16  -6  -8    0.60    4.10
 -16   6  -8   -1.43    4.29
 -16   6  -7  139.39   16.57
 -16  -6  -7   94.90   14.02
 -16  -6  -6    8.29    5.32
 -16   6  -6    5.93    3.86
 -16  -6  -5   12.39    7.29
 -16   6  -5    9.27    3.94
 -16  -6  -4   20.17    6.57
 -16   6  -4   14.00    6.76
 -16   6  -3   94.05   13.88
 -16  -6  -2   69.41   12.03
 -16   6  -2   54.28   11.34
 -16  -6  -1   54.76   11.08
 -16   6  -1   64.73   11.33
 -16  -6   0    3.20    2.48
 -16   6   0    8.78    7.66
 -16  -6   1   94.18   14.48
 -16   6   1   80.72   12.97
 -16  -6   2   90.63   14.41
 -16  -6   3  102.98   15.22
 -16  -6   4   25.72    6.60
 -16  -6   5    1.16    2.29
 -16  -6   6    5.48    2.99
 -16  -6   7  129.05   16.47
 -16  -6   8    0.80    4.75
 -16  -6   9   97.15   14.88
 -16  -6  10    0.16    4.85
 -16  -6  11   30.48    9.03
 -16  -7  -6    6.48    4.93
 -16   7  -6    0.51    3.19
 -16  -7  -5   50.87   10.95
 -16   7  -5   46.89   11.43
 -16  -7  -4   -1.32    3.34
 -16   7  -4    2.52    2.61
 -16  -7  -3   17.98    6.44
 -16   7  -3   32.19    8.89
 -16  -7  -2    8.58    5.89
 -16   7  -2    5.69    5.22
 -16  -7  -1   -0.86    3.81
 -16   7  -1   -1.38    3.74
 -16  -7   0    7.57    6.63
 -16   7   0    0.42    1.91
 -16  -7   1   -2.03    2.56
 -16  -7   2    3.20    2.49
 -16  -7   3   24.07    7.68
 -16  -7   4   -0.64    3.36
 -16  -7   5   44.64   10.02
 -16  -7   6    2.05    2.77
 -17   0 -17   -2.08    4.39
 -17   0 -16   -3.06    5.41
 -17   0 -15    0.16    3.62
 -17   0 -14   -3.28    4.07
 -17   0 -13   -2.49    3.91
 -17   0 -12   -3.27    4.82
 -17   0 -11    0.57    3.42
 -17   0 -10    2.08    3.35
 -17   0  -9    4.59    4.10
 -17   0  -8   -3.09    2.32
 -17   0  -7   -2.53    3.46
 -17   0  -6   -0.15    2.26
 -17   0  -5    3.84    3.69
 -17   0  -4   -0.30    2.70
 -17   0  -3    0.92    3.81
 -17   0  -2    1.20    2.07
 -17   0  -1    0.79    3.18
 -17   0   0   -1.36    3.81
 -17   0   1    2.06    3.26
 -17   0   2    3.67    2.43
 -17   0   3   -3.61    5.31
 -17   0   4    3.68    5.86
 -17   0   5    2.30    5.35
 -17   0   6    0.36    4.21
 -17   0   7    2.03    5.26
 -17   0   8   -0.69    3.80
 -17  -1 -17   90.74   14.14
 -17   1 -17   93.28   13.79
 -17  -1 -16   78.49   13.53
 -17   1 -16   52.40   11.09
 -17  -1 -15    3.90    3.35
 -17   1 -15   -3.33    4.34
 -17  -1 -14   21.10    6.42
 -17   1 -14   19.54    5.69
 -17  -1 -13   24.40    7.87
 -17   1 -13   26.39    7.34
 -17  -1 -12   48.97   10.68
 -17   1 -12   55.64   10.77
 -17  -1 -11   70.27   12.03
 -17   1 -11   70.39   11.70
 -17  -1 -10   53.66   10.25
 -17   1 -10   48.89    9.82
 -17  -1  -9   33.17    8.67
 -17   1  -9   44.95    9.30
 -17  -1  -8   65.50   11.22
 -17   1  -8   35.26    7.65
 -17  -1  -7   22.49    6.53
 -17   1  -7   11.93    5.64
 -17  -1  -6   19.05    6.25
 -17   1  -6   16.53    5.82
 -17  -1  -5   10.79    4.30
 -17   1  -5   12.48    5.85
 -17  -1  -4  115.90   15.10
 -17   1  -4   89.25   13.01
 -17  -1  -3  153.67   16.96
 -17   1  -3  162.66   17.81
 -17  -1  -2   51.33   10.38
 -17   1  -2   53.46   10.87
 -17  -1  -1   31.47    7.82
 -17   1  -1   10.97    4.48
 -17  -1   0   87.74   12.97
 -17   1   0  100.96   14.06
 -17  -1   1   23.79    7.36
 -17   1   1   22.14    7.31
 -17  -1   2   70.46   11.31
 -17   1   2   83.46   12.80
 -17  -1   3  114.50   15.28
 -17   1   3  137.67   16.27
 -17  -1   4  111.16   14.77
 -17   1   4   89.44   13.02
 -17  -1   5   13.23    6.66
 -17   1   5   12.95    4.86
 -17  -1   6   22.81    7.26
 -17   1   6   19.60    5.81
 -17  -1   7   17.01    6.68
 -17   1   7    7.31    5.52
 -17  -1   8   48.97   10.26
 -17  -1   9   38.85    7.69
 -17   2 -16   11.63    5.02
 -17  -2 -16   -2.12    5.36
 -17   2 -15   19.37    6.56
 -17  -2 -15   13.46    5.76
 -17   2 -14   12.50    6.69
 -17  -2 -14   10.56    5.32
 -17   2 -13   14.22    4.02
 -17  -2 -13   16.18    6.52
 -17   2 -12    2.22    3.05
 -17  -2 -12   11.54    5.97
 -17   2 -11    2.66    2.45
 -17  -2 -11    2.27    3.31
 -17   2 -10   15.79    5.22
 -17  -2 -10   11.68    6.52
 -17   2  -9   16.89    5.62
 -17  -2  -9   10.92    5.34
 -17   2  -8   24.01    6.87
 -17  -2  -8   17.52    6.46
 -17   2  -7    9.10    3.69
 -17  -2  -7   16.40    6.63
 -17   2  -6   31.22    8.39
 -17  -2  -6   13.74    4.10
 -17   2  -5    8.29    4.64
 -17  -2  -5   13.36    6.49
 -17   2  -4   16.01    5.48
 -17  -2  -4    5.79    2.61
 -17  -2  -3   11.10    6.66
 -17   2  -3    3.15    5.97
 -17  -2  -2    5.91    2.48
 -17   2  -2    4.41    3.97
 -17  -2  -1    1.25    2.72
 -17   2  -1    2.62    3.08
 -17  -2   0    0.27    2.47
 -17   2   0   -3.44    4.43
 -17  -2   1    7.45    2.98
 -17   2   1    7.38    3.54
 -17  -2   2   11.62    4.36
 -17   2   2    9.78    5.38
 -17  -2   3    3.55    3.69
 -17   2   3    6.59    4.38
 -17  -2   4    8.07    3.35
 -17   2   4   10.72    5.79
 -17  -2   5    5.23    2.12
 -17   2   5    8.05    5.24
 -17  -2   6   17.86    6.58
 -17   2   6   18.58    7.24
 -17  -2   7   22.20    7.11
 -17  -2   8   20.85    7.39
 -17  -2   9   17.34    8.12
 -17  -2  10   22.87    7.15
 -17  -2  11   12.31    7.41
 -17   3 -15   38.72    8.98
 -17  -3 -15   42.78   10.42
 -17   3 -14   20.78    8.18
 -17  -3 -14   16.69    7.18
 -17   3 -13   28.88    8.79
 -17  -3 -13   27.95    8.70
 -17   3 -12   13.60    4.17
 -17  -3 -12    9.80    5.27
 -17   3 -11   13.23    5.55
 -17  -3 -11   18.33    7.10
 -17   3 -10   62.78   10.56
 -17  -3 -10   51.40   10.37
 -17   3  -9   29.82    7.49
 -17  -3  -9   27.63    6.35
 -17   3  -8    6.19    4.58
 -17  -3  -8    3.07    4.11
 -17   3  -7   38.34    8.42
 -17  -3  -7   23.21    6.60
 -17   3  -6    2.12    3.47
 -17  -3  -6   -0.42    2.70
 -17  -3  -5   88.29   13.15
 -17   3  -5   73.05   11.47
 -17  -3  -4  121.17   15.43
 -17   3  -4   92.04   14.04
 -17   3  -3   13.97    4.89
 -17  -3  -3    5.54    4.76
 -17  -3  -2   96.81   14.42
 -17   3  -2  117.75   14.56
 -17  -3  -1  185.83   19.30
 -17   3  -1  232.77   21.03
 -17   3   0    0.99    2.72
 -17  -3   0    3.18    3.24
 -17  -3   1  201.58   20.35
 -17   3   1  206.28   20.02
 -17  -3   2  106.90   15.28
 -17   3   2  121.13   15.39
 -17  -3   3   15.35    5.15
 -17   3   3   21.03    6.36
 -17  -3   4   96.90   13.55
 -17   3   4  100.90   13.79
 -17  -3   5   81.29   12.98
 -17   3   5  100.72   15.09
 -17  -3   6    8.23    4.81
 -17  -3   7   34.78    8.66
 -17  -3   8    3.01    2.49
 -17  -3   9   40.86    9.66
 -17  -3  10   71.43   12.49
 -17  -3  11   14.46    5.50
 -17  -3  12    9.31    6.86
 -17   4 -14   41.02    9.53
 -17  -4 -14   34.18    9.36
 -17   4 -13   52.15    9.67
 -17  -4 -13   61.90   12.44
 -17   4 -12    5.75    2.27
 -17  -4 -12    4.95    3.12
 -17   4 -11    9.44    3.33
 -17  -4 -11   19.34    7.67
 -17   4 -10   12.47    4.04
 -17  -4 -10   17.34    7.08
 -17   4  -9   -1.03    3.23
 -17  -4  -9   13.40    6.84
 -17   4  -8    3.89    3.38
 -17  -4  -8    7.70    5.11
 -17   4  -7    1.46    2.91
 -17  -4  -7   -0.26    5.57
 -17   4  -6   33.51    9.11
 -17  -4  -6   35.67    8.66
 -17   4  -5   37.82    9.11
 -17  -4  -5   30.30    8.22
 -17   4  -4    0.15    4.63
 -17  -4  -4    1.51    3.98
 -17   4  -3   17.65    4.17
 -17  -4  -3   15.93    6.03
 -17   4  -2   25.80    5.65
 -17  -4  -2   22.24    8.15
 -17   4  -1   38.40    9.40
 -17  -4  -1   40.73    8.95
 -17   4   0   24.42    7.14
 -17  -4   0   41.25    9.79
 -17   4   1   30.13    6.86
 -17  -4   1   37.82    9.65
 -17   4   2   32.81    9.35
 -17  -4   2   19.71    6.10
 -17   4   3    7.57    2.65
 -17  -4   3   16.12    6.74
 -17  -4   4   10.92    6.09
 -17  -4   5   42.53    9.46
 -17  -4   6   28.92    7.14
 -17  -4   7    4.05    5.50
 -17  -4   8    6.49    5.29
 -17  -4   9   -0.92    4.75
 -17  -4  10    9.51    5.69
 -17  -4  11   19.14    5.78
 -17  -4  12   15.43    6.37
 -17  -4  13   70.21   15.88
 -17   5 -11   14.76    5.46
 -17  -5 -11   27.32    8.48
 -17  -5 -10   83.15   12.57
 -17   5 -10   67.37   12.77
 -17   5  -9    9.76    4.16
 -17  -5  -9    8.09    5.56
 -17   5  -8    9.91    5.93
 -17  -5  -8   -2.80    4.70
 -17   5  -7   41.73   10.65
 -17  -5  -7   40.42   10.40
 -17  -5  -6   95.23   13.98
 -17   5  -6   94.96   14.01
 -17   5  -5   21.09    7.37
 -17  -5  -5   22.84    7.89
 -17   5  -4   16.35    5.58
 -17  -5  -4    5.83    3.18
 -17   5  -3    9.44    4.01
 -17  -5  -3   17.49    6.49
 -17   5  -2    6.09    2.50
 -17  -5  -2   20.68    7.35
 -17   5  -1   35.78   10.04
 -17  -5  -1   40.54    9.37
 -17   5   0   40.38    9.03
 -17  -5   0   44.47    9.17
 -17   5   1   21.07    5.97
 -17  -5   1   36.92    9.76
 -17   5   2   12.89    6.44
 -17  -5   2   14.50    6.76
 -17  -5   3   23.05    7.18
 -17  -5   4   16.26    6.48
 -17  -5   5   21.14    7.31
 -17  -5   6   71.09   12.35
 -17  -5   7   68.82   12.60
 -17  -5   8    7.40    3.20
 -17  -5   9   11.80    6.15
 -17  -5  10   75.43   14.16
 -17  -5  11   28.53    9.48
 -17  -6  -7    4.47    3.63
 -17   6  -7    6.37    5.14
 -17  -6  -6   26.21    7.65
 -17   6  -6   23.19    6.11
 -17  -6  -5    8.14    4.65
 -17   6  -5    3.85    3.36
 -17  -6  -4   17.61    6.81
 -17   6  -4    9.53    4.90
 -17  -6  -3   15.55    7.10
 -17   6  -3   12.45    7.24
 -17  -6  -2    2.50    2.42
 -17   6  -2   13.76    6.34
 -17  -6  -1    4.61    5.62
 -17   6  -1    1.73    4.03
 -17  -6   0    6.47    5.26
 -17   6   0   -2.90    5.44
 -17  -6   1    7.07    4.73
 -17  -6   2    7.81    5.01
 -17  -6   3   28.05    7.18
 -17  -6   4   10.52    6.05
 -17  -6   5   -0.48    2.87
 -17  -6   6   12.38    4.09
 -17  -6   7    6.09    3.53
 -18   0 -15  620.85   37.30
 -18   0 -14    7.61    6.78
 -18   0 -13   55.39   11.91
 -18   0 -12   99.02   14.85
 -18   0 -11  535.39   32.97
 -18   0 -10   99.81   13.91
 -18   0  -9   82.11   13.08
 -18   0  -8   34.09    8.19
 -18   0  -7   32.55    8.49
 -18   0  -6    7.89    4.29
 -18   0  -5  179.94   19.21
 -18   0  -4  245.65   22.29
 -18   0  -3  182.54   18.83
 -18   0  -2   68.21   11.65
 -18   0  -1   72.33   12.54
 -18   0   0  103.32   13.82
 -18   0   1   83.26   13.06
 -18   0   2   64.65   11.04
 -18   0   3  209.41   20.42
 -18   0   4  247.76   22.56
 -18   0   5  195.70   20.16
 -18   0   6    1.87    3.26
 -18   0   7   23.53    8.59
 -18   0   8   33.70   10.40
 -18  -1 -15   47.83   12.05
 -18   1 -15   66.77   11.87
 -18  -1 -14    1.38    3.07
 -18   1 -14    1.29    3.72
 -18  -1 -13    7.10    5.96
 -18   1 -13    4.29    3.59
 -18  -1 -12   -0.49    3.10
 -18   1 -12    9.60    6.37
 -18  -1 -11   11.68    6.52
 -18   1 -11    7.21    3.65
 -18  -1 -10   67.93   12.36
 -18   1 -10   74.79   12.90
 -18  -1  -9    7.65    5.14
 -18   1  -9    4.52    5.05
 -18  -1  -8    4.47    2.76
 -18   1  -8    5.54    3.56
 -18  -1  -7   13.98    5.15
 -18   1  -7    8.09    3.62
 -18  -1  -6   63.83   11.37
 -18   1  -6   69.20   12.51
 -18  -1  -5   -1.41    3.48
 -18   1  -5    3.25    4.90
 -18  -1  -4   -3.41    2.66
 -18   1  -4    7.20    5.68
 -18  -1  -3    2.06    2.20
 -18   1  -3    1.69    3.50
 -18  -1  -2   -1.54    2.11
 -18   1  -2   -0.90    4.32
 -18  -1  -1    4.07    2.92
 -18   1  -1    9.21    5.37
 -18  -1   0    4.31    4.21
 -18   1   0    1.76    3.47
 -18  -1   1   13.65    5.87
 -18   1   1    1.84    3.59
 -18  -1   2    0.74    2.59
 -18   1   2    4.54    5.97
 -18  -1   3    4.74    3.94
 -18   1   3    3.45    2.92
 -18  -1   4    5.25    4.97
 -18   1   4   -0.42    4.43
 -18  -1   5   -2.27    4.09
 -18   1   5    3.98    4.60
 -18  -1   6   56.24   10.80
 -18   1   6   50.92   10.36
 -18  -1   7    9.51    5.17
 -18   1   7   -1.72    4.00
 -18  -1   8    1.97    5.40
 -18  -1   9    8.83    5.75
 -18   2 -14   19.19    8.13
 -18  -2 -14   25.57    7.93
 -18   2 -13   18.89    6.65
 -18  -2 -13   18.56    5.92
 -18   2 -12    2.77    2.51
 -18  -2 -12   -1.15    4.03
 -18  -2 -11   46.29   10.29
 -18   2 -11   67.63   11.82
 -18  -2 -10   84.97   13.20
 -18   2 -10   94.83   13.62
 -18   2  -9   -3.34    4.80
 -18  -2  -9   -1.01    3.05
 -18   2  -8    2.33    5.71
 -18  -2  -8   -2.40    4.40
 -18  -2  -7    3.43    3.22
 -18   2  -7    6.75    3.23
 -18  -2  -6   57.95   11.40
 -18   2  -6   54.73   10.88
 -18  -2  -5   82.64   13.15
 -18   2  -5  102.63   13.83
 -18  -2  -4   89.83   13.56
 -18   2  -4  105.09   14.34
 -18  -2  -3   24.27    5.50
 -18   2  -3   14.30    5.12
 -18  -2  -2   39.95    9.86
 -18   2  -2   32.12    7.46
 -18  -2  -1  101.73   14.73
 -18   2  -1  142.53   16.85
 -18  -2   0  156.83   18.35
 -18   2   0  172.98   18.59
 -18  -2   1  122.63   15.66
 -18   2   1  138.34   17.31
 -18  -2   2   54.24   10.73
 -18   2   2   42.58    9.33
 -18  -2   3   18.81    6.64
 -18   2   3   22.98    8.05
 -18  -2   4   96.06   14.94
 -18   2   4   66.50   10.86
 -18  -2   5   97.66   14.86
 -18   2   5   87.68   13.65
 -18  -2   6   51.07   10.77
 -18  -2   7    5.04    2.51
 -18  -2   8    5.74    5.36
 -18  -2   9    3.52    3.00
 -18  -2  10   89.47   14.81
 -18   3 -13   56.50   11.14
 -18  -3 -13   43.10   10.09
 -18   3 -12   40.12    7.74
 -18  -3 -12   31.06    8.16
 -18   3 -11   -0.56    3.55
 -18  -3 -11    7.26    5.06
 -18   3 -10   13.11    6.66
 -18  -3 -10    9.98    4.70
 -18   3  -9    6.72    4.33
 -18  -3  -9    0.50    4.15
 -18   3  -8    2.44    2.49
 -18  -3  -8    0.22    5.44
 -18   3  -7    4.25    2.40
 -18  -3  -7    6.75    4.64
 -18  -3  -6   81.08   13.41
 -18   3  -6  112.93   15.05
 -18   3  -5    6.72    6.23
 -18  -3  -5    2.58    3.11
 -18   3  -4   19.36    5.93
 -18  -3  -4   18.52    6.48
 -18   3  -3    3.77    3.61
 -18  -3  -3    3.03    4.70
 -18   3  -2    0.95    2.89
 -18  -3  -2   -3.39    3.68
 -18  -3  -1    1.23    2.38
 -18   3  -1    3.84    5.47
 -18  -3   0    6.43    3.90
 -18   3   0    6.90    2.97
 -18  -3   1    2.26    4.76
 -18   3   1    3.43    4.69
 -18  -3   2    8.56    5.19
 -18   3   2    0.64    3.36
 -18  -3   3    3.05    4.33
 -18   3   3    0.56    4.01
 -18  -3   4   19.72    6.22
 -18   3   4   31.18    9.24
 -18  -3   5    0.19    3.14
 -18  -3   6  105.59   16.22
 -18  -3   7   10.32    5.29
 -18  -3   8   -5.42    5.10
 -18  -3   9    7.19    6.18
 -18  -3  10    2.70    3.11
 -18  -3  11   -6.85    4.91
 -18   4 -11   36.01    9.52
 -18  -4 -11   53.80   10.68
 -18  -4 -10   72.33   12.74
 -18   4 -10   96.88   14.27
 -18   4  -9    4.33    3.25
 -18  -4  -9   14.11    6.02
 -18   4  -8    5.29    2.92
 -18  -4  -8   16.00    7.41
 -18  -4  -7   84.76   13.77
 -18   4  -7   73.76   11.96
 -18  -4  -6  176.04   19.17
 -18   4  -6  178.96   19.01
 -18  -4  -5   97.84   15.26
 -18   4  -5   81.77   13.18
 -18   4  -4    7.12    5.92
 -18  -4  -4    8.34    5.27
 -18   4  -3   -0.20    3.92
 -18  -4  -3   -2.52    4.34
 -18   4  -2    2.24    3.27
 -18  -4  -2    7.39    5.07
 -18  -4  -1  105.10   14.73
 -18   4  -1  139.90   16.84
 -18  -4   0  156.18   18.00
 -18   4   0  139.29   17.11
 -18  -4   1  102.54   14.21
 -18   4   1  105.30   15.35
 -18  -4   2    1.65    2.76
 -18   4   2    6.57    4.71
 -18  -4   3   -0.77    3.22
 -18   4   3   -4.17    4.07
 -18  -4   4    4.10    5.32
 -18  -4   5  118.38   15.68
 -18  -4   6  199.91   20.84
 -18  -4   7   69.58   13.88
 -18  -4   8    5.82    3.96
 -18  -4   9   14.08    4.77
 -18  -4  10   73.90   12.76
 -18  -4  11   38.70    8.74
 -18   5  -7   -0.86    5.18
 -18  -5  -7    2.40    4.41
 -18   5  -6   11.65    4.37
 -18  -5  -6    3.65    3.37
 -18   5  -5   -2.72    4.48
 -18  -5  -5    3.44    2.47
 -18   5  -4   13.91    5.44
 -18  -5  -4   10.25    3.21
 -18   5  -3   -1.62    3.23
 -18  -5  -3    4.01    4.66
 -18   5  -2    3.75    4.27
 -18  -5  -2    2.59    3.52
 -18   5  -1   13.75    5.20
 -18  -5  -1    4.66    3.07
 -18   5   0    0.66    3.87
 -18  -5   0    4.48    2.37
 -18   5   1    6.38    2.88
 -18  -5   1    7.90    5.19
 -18  -5   2   13.03    6.72
 -18  -5   3    6.33    5.02
 -18  -5   4   23.41    7.02
 -18  -5   5    2.73    3.93
 -18  -5   6   18.33    7.06
 -18  -5   7   -2.08    5.19
 -19   0 -12    2.59    4.53
 -19   0 -11   -3.40    5.10
 -19   0 -10   -0.02    4.24
 -19   0  -9   -0.79    2.59
 -19   0  -8    4.61    2.74
 -19   0  -7    6.05    6.55
 -19   0  -6    3.20    4.35
 -19   0  -5    1.30    3.14
 -19   0  -4    2.36    5.32
 -19   0  -3   -1.04    3.14
 -19   0  -2   -0.22    4.03
 -19   0  -1   -0.41    2.52
 -19   0   0   -1.51    2.38
 -19   0   1    0.56    3.13
 -19   0   2    2.64    3.71
 -19   0   3    3.34    4.90
 -19   0   4   -0.53    4.70
 -19   0   5   -2.71    4.84
 -19   0   6   -3.62    3.69
 -19   0   7    0.08    3.62
 -19  -1 -11   74.76   12.78
 -19   1 -11   50.79    9.96
 -19  -1 -10  149.00   17.97
 -19   1 -10  155.88   18.12
 -19  -1  -9   30.19    7.84
 -19   1  -9   24.98    8.52
 -19  -1  -8   10.07    5.54
 -19   1  -8   24.82    6.61
 -19  -1  -7   52.44   11.07
 -19   1  -7   44.61   11.39
 -19   1  -6   75.81   11.95
 -19  -1  -6   53.41   11.16
 -19  -1  -5   68.75   12.23
 -19   1  -5   64.87   12.00
 -19  -1  -4   41.91    9.52
 -19   1  -4   49.98   10.25
 -19  -1  -3   13.43    4.24
 -19   1  -3    3.12    3.16
 -19  -1  -2   84.22   13.43
 -19   1  -2   88.08   13.99
 -19  -1  -1   94.99   14.06
 -19   1  -1   99.42   14.65
 -19  -1   0   40.82    9.37
 -19   1   0   35.25    9.81
 -19  -1   1   85.85   13.95
 -19   1   1   96.16   14.90
 -19  -1   2   73.34   12.99
 -19   1   2  102.34   14.48
 -19  -1   3   35.62    9.14
 -19   1   3   24.26    9.00
 -19  -1   4   27.82    8.19
 -19   1   4   40.01    9.54
 -19  -1   5   82.68   13.64
 -19   1   5   79.91   13.13
 -19  -1   6   79.33   13.44
 -19   1   6   77.97   15.14
 -19  -1   7   64.26   12.81
 -19  -1   8   11.79    3.45
 -19  -2 -11   13.64    5.22
 -19   2 -11    9.71    4.32
 -19  -2 -10    1.16    3.71
 -19   2 -10    0.93    3.74
 -19  -2  -9   -1.20    3.87
 -19   2  -9   12.08    6.44
 -19  -2  -8   -0.51    3.38
 -19   2  -8    9.11    4.99
 -19  -2  -7   14.88    6.87
 -19   2  -7   13.32    6.98
 -19  -2  -6   56.04   11.26
 -19   2  -6   36.64    9.19
 -19  -2  -5   43.58   10.08
 -19   2  -5   46.45   10.24
 -19  -2  -4   18.76    7.05
 -19   2  -4   25.98    7.54
 -19  -2  -3   14.17    5.83
 -19   2  -3   10.56    5.25
 -19  -2  -2   11.49    5.21
 -19   2  -2   12.70    5.72
 -19  -2  -1   10.53    5.06
 -19   2  -1    7.29    4.21
 -19  -2   0   14.19    3.52
 -19   2   0    6.39    4.63
 -19  -2   1   14.77    6.71
 -19   2   1    1.77    3.83
 -19  -2   2   -0.61    3.72
 -19   2   2    1.74    4.29
 -19  -2   3   15.78    6.77
 -19   2   3   18.60    7.46
 -19  -2   4   21.69    7.95
 -19   2   4   34.04    8.48
 -19  -2   5   54.44   11.55
 -19   2   5   -9.15    4.49
 -19  -2   6   37.95    9.80
 -19  -2   7   20.31    7.23
 -19  -2   8    3.38    5.13
 -19  -2   9   12.93    6.42
 -19   3  -9   22.50    6.82
 -19  -3  -9   27.82    8.35
 -19  -3  -8   44.49    9.72
 -19   3  -8   61.90   11.93
 -19   3  -7   17.10    6.82
 -19  -3  -7   23.09    7.10
 -19   3  -6   11.18    5.36
 -19  -3  -6   15.78    6.14
 -19   3  -5   16.13    7.47
 -19  -3  -5   23.75    7.40
 -19  -3  -4   11.57    5.87
 -19   3  -4    9.76    5.97
 -19  -3  -3   11.77    4.89
 -19   3  -3   14.75    7.05
 -19  -3  -2   26.50    7.90
 -19   3  -2   25.69    7.81
 -19  -3  -1   19.97    6.77
 -19   3  -1   13.60    4.39
 -19  -3   0    9.03    2.58
 -19   3   0    2.11    4.36
 -19  -3   1   23.53    7.61
 -19   3   1   19.50    7.28
 -19  -3   2   23.10    8.77
 -19   3   2   28.27    8.63
 -19  -3   3    6.95    2.67
 -19   3   3   21.08    5.46
 -19  -3   4   12.87    4.44
 -19  -3   5   26.31    7.78
 -19  -3   6    5.31    3.21
 -19  -3   7   12.50    4.44
 -19  -3   8   39.91   10.54
 -19  -3   9   26.01    9.72
 -19   4  -6   14.43    4.94
 -19  -4  -6    7.77    6.70
 -19   4  -5   -1.10    5.71
 -19  -4  -5    0.90    3.83
 -19   4  -4   23.16    8.10
 -19  -4  -4   25.32    8.05
 -19   4  -3    2.58    2.73
 -19  -4  -3    7.17    3.87
 -19   4  -2   21.16    7.50
 -19  -4  -2   14.12    5.15
 -19   4  -1    3.22    4.75
 -19  -4  -1    7.36    6.04
 -19  -4   0    6.84    3.11
 -19   4   0    6.96    6.66
 -19  -4   1    3.28    3.25
 -19   4   1    2.29    3.62
 -19  -4   2   14.55    6.71
 -19   4   2   33.44   12.50
 -19  -4   3    0.72    3.58
 -19  -4   4   11.24    4.93
 -19  -4   5    3.64    5.08
 -19  -4   6    1.58    3.50
 -20   0  -7   16.90    6.85
 -20   0  -6   -2.04    3.24
 -20   0  -5  146.45   18.24
 -20   0  -4  432.67   30.38
 -20   0  -3   12.25    4.44
 -20   0  -2  479.32   31.62
 -20   0  -1   60.57   11.98
 -20   0   0   -0.24    3.79
 -20   0   1   45.43   10.31
 -20   0   2  443.66   31.08
 -20   0   3   11.82    5.14
 -20   0   4  389.62   30.55
 -20   0   5  195.00   21.56
 -20   0   6   -6.09    5.15
 -20  -1  -7    3.96    3.16
 -20   1  -7    0.08    3.42
 -20  -1  -6    3.32    2.74
 -20   1  -6    0.95    2.78
 -20  -1  -5    3.70    4.49
 -20   1  -5   13.87    7.49
 -20  -1  -4   -0.92    4.10
 -20   1  -4    1.08    4.25
 -20  -1  -3   62.84   11.98
 -20   1  -3   32.82    9.22
 -20  -1  -2   13.24    7.18
 -20   1  -2    7.62    7.01
 -20  -1  -1    5.20    5.03
 -20   1  -1    4.03    3.47
 -20  -1   0    7.26    4.26
 -20   1   0   -3.68    4.27
 -20  -1   1    3.05    2.70
 -20   1   1    6.36    3.97
 -20  -1   2   22.83    8.63
 -20   1   2    8.88    6.57
 -20  -1   3   45.59   10.74
 -20   1   3   62.62   12.45
 -20  -1   4   -6.66    5.47
 -20   1   4   -2.88    3.05
 -20  -1   5   11.90    7.25
 -20   1   5    7.96    6.13
 -20  -1   6    1.67    3.36
 -20  -1   7    6.44    4.44
 -20  -2  -5    4.26    5.66
 -20   2  -5    7.98    4.58
 -20  -2  -4   39.62   10.51
 -20   2  -4   26.98   10.24
 -20  -2  -3   16.30    7.45
 -20   2  -3    8.85    4.88
 -20  -2  -2  192.77   20.48
 -20   2  -2  154.36   18.75
 -20  -2  -1    4.55    3.37
 -20   2  -1    8.34    6.54
 -20  -2   0    0.55    3.90
 -20   2   0    0.84    4.95
 -20  -2   1   15.86    7.07
 -20   2   1   12.25    6.65
 -20  -2   2  156.41   19.11
 -20   2   2  200.24   21.12
 -20  -2   3   29.82    9.25
 -20   2   3   13.17    6.76
 -20  -2   4   24.37    7.73
 -20  -2   5    2.33    4.14
   0   0   0    0.00    0.00
TITL 013_190K_SulfamerazineF1_ in Pna2(1)
REM Pna2(1) (#33, found as Pbn2(1) in ba-c setting)
CELL 0.68890  14.470070   8.188921  21.821636  90.0000  90.0000  90.0000
ZERR    8.00   0.000146   0.000085   0.000354   0.0000   0.0000   0.0000
LATT -1
SYMM -x,-y, z+1/2
SYMM  x+1/2,-y+1/2, z
SYMM -x+1/2, y+1/2, z+1/2
SFAC C H N O S
UNIT 88.00 96.00 32.00 16.00 8.00
TREF
HKLF 4
END
_computing_structure_solution     'SHELXT 2014/5 (Sheldrick, 2014)'
;
_shelx_hkl_checksum              32560
loop_
_space_group_symop_operation_xyz
'x, y, z'
'-x, -y, z+1/2'
'x+1/2, -y+1/2, z'
'-x+1/2, y+1/2, z+1/2'
loop_
_atom_site_label
_atom_site_type_symbol
_atom_site_fract_x
_atom_site_fract_y
_atom_site_fract_z
_atom_site_U_iso_or_equiv
_atom_site_adp_type
_atom_site_occupancy
_atom_site_site_symmetry_order
_atom_site_calc_flag
_atom_site_refinement_flags_posn
_atom_site_refinement_flags_adp
_atom_site_refinement_flags_occupancy
_atom_site_disorder_assembly
_atom_site_disorder_group
S1 S 0.35543(6) 0.50522(10) 0.65615(6) 0.0251(2) Uani 1 1 d . . . . .
S2 S 0.42208(6) 0.50253(11) 0.34699(6) 0.0247(2) Uani 1 1 d . . . . .
O1 O 0.3122(2) 0.6298(3) 0.69208(16) 0.0341(7) Uani 1 1 d . . . . .
O2 O 0.45302(19) 0.4778(3) 0.66281(16) 0.0326(7) Uani 1 1 d . . . . .
O3 O 0.32427(18) 0.5295(3) 0.34015(15) 0.0306(6) Uani 1 1 d . . . . .
O4 O 0.4644(2) 0.3751(3) 0.31181(15) 0.0319(7) Uani 1 1 d . . . . .
N1 N 0.1584(3) -0.1169(4) 0.6876(2) 0.0382(9) Uani 1 1 d . . . . .
N2 N 0.3462(2) 0.5533(4) 0.58292(19) 0.0297(8) Uani 1 1 d . . . . .
N3 N 0.1866(2) 0.5917(4) 0.58292(18) 0.0287(7) Uani 1 1 d . . . . .
N4 N 0.2723(3) 0.5695(5) 0.48985(18) 0.0405(10) Uani 1 1 d . . . . .
N5 N 0.6199(3) 1.1202(4) 0.3052(2) 0.0463(11) Uani 1 1 d . . . . .
H5A H 0.6765 1.1190 0.2931 0.060 Uiso 1 1 calc R U . . .
H5B H 0.5925 1.2118 0.3117 0.060 Uiso 1 1 calc R U . . .
N6 N 0.4315(2) 0.4602(4) 0.42035(18) 0.0286(8) Uani 1 1 d . . . . .
N7 N 0.5905(2) 0.4128(4) 0.41926(18) 0.0319(8) Uani 1 1 d . . . . .
N8 N 0.5048(3) 0.4340(6) 0.5124(2) 0.0423(10) Uani 1 1 d . . . . .
C1 C 0.2962(3) 0.3225(4) 0.6668(2) 0.0244(8) Uani 1 1 d . . . . .
C2 C 0.2063(2) 0.3209(4) 0.6902(2) 0.0268(8) Uani 1 1 d . . . . .
H2 H 0.1774 0.4182 0.7010 0.035 Uiso 1 1 calc R U . . .
C3 C 0.1609(3) 0.1752(5) 0.6971(2) 0.0270(9) Uani 1 1 d . . . . .
H3 H 0.1010 0.1740 0.7126 0.035 Uiso 1 1 calc R U . . .
C4 C 0.2040(3) 0.0273(4) 0.68109(19) 0.0264(8) Uani 1 1 d . . . . .
C5 C 0.2949(3) 0.0303(4) 0.6576(2) 0.0279(8) Uani 1 1 d . . . . .
H5 H 0.3243 -0.0667 0.6472 0.036 Uiso 1 1 calc R U . . .
C6 C 0.3398(3) 0.1769(4) 0.6504(2) 0.0290(9) Uani 1 1 d . . . . .
H6 H 0.3994 0.1791 0.6344 0.038 Uiso 1 1 calc R U . . .
C7 C 0.2643(3) 0.5722(5) 0.5507(2) 0.0292(9) Uani 1 1 d . . . . .
C8 C 0.1938(4) 0.5938(9) 0.4589(3) 0.0589(16) Uani 1 1 d . . . . .
H8 H 0.1957 0.5954 0.4163 0.077 Uiso 1 1 calc R U . . .
C9 C 0.1100(3) 0.6165(8) 0.4877(3) 0.0527(14) Uani 1 1 d . . . . .
H9 H 0.0563 0.6341 0.4653 0.069 Uiso 1 1 calc R U . . .
C10 C 0.1083(3) 0.6122(5) 0.5505(2) 0.0370(11) Uani 1 1 d . . . . .
C11 C 0.0218(3) 0.6317(7) 0.5865(3) 0.0505(13) Uani 1 1 d . . . . .
H11A H 0.0172 0.7420 0.6011 0.066 Uiso 1 1 calc R U . . .
H11B H 0.0226 0.5582 0.6208 0.066 Uiso 1 1 calc R U . . .
H11C H -0.0304 0.6074 0.5609 0.066 Uiso 1 1 calc R U . . .
C12 C 0.4807(3) 0.6832(4) 0.33448(19) 0.0246(8) Uani 1 1 d . . . . .
C13 C 0.4362(3) 0.8312(4) 0.3449(2) 0.0289(9) Uani 1 1 d . . . . .
H13 H 0.3752 0.8322 0.3584 0.038 Uiso 1 1 calc R U . . .
C14 C 0.4822(3) 0.9765(4) 0.3353(2) 0.0365(11) Uani 1 1 d . . . . .
H14 H 0.4523 1.0750 0.3430 0.047 Uiso 1 1 calc R U . . .
C15 C 0.5738(3) 0.9772(4) 0.3140(2) 0.0288(9) Uani 1 1 d . . . . .
C16 C 0.6178(3) 0.8275(4) 0.3036(2) 0.0272(9) Uani 1 1 d . . . . .
H16 H 0.6788 0.8260 0.2902 0.035 Uiso 1 1 calc R U . . .
C17 C 0.5717(3) 0.6822(5) 0.3130(2) 0.0240(8) Uani 1 1 d . . . . .
H17 H 0.6012 0.5835 0.3050 0.031 Uiso 1 1 calc R U . . .
C18 C 0.5140(3) 0.4336(5) 0.4514(2) 0.0298(9) Uani 1 1 d . . . . .
C19 C 0.5829(4) 0.4046(8) 0.5433(3) 0.0560(16) Uani 1 1 d . . . . .
H19 H 0.5807 0.4030 0.5859 0.073 Uiso 1 1 calc R U . . .
C20 C 0.6662(3) 0.3766(8) 0.5149(3) 0.0571(16) Uani 1 1 d . . . . .
H20 H 0.7192 0.3534 0.5374 0.074 Uiso 1 1 calc R U . . .
C21 C 0.6680(3) 0.3842(6) 0.4515(2) 0.0371(10) Uani 1 1 d . . . . .
C22 C 0.7547(3) 0.3639(7) 0.4149(3) 0.0511(13) Uani 1 1 d . . . . .
H22A H 0.7517 0.2637 0.3922 0.066 Uiso 1 1 calc R U . . .
H22B H 0.8069 0.3610 0.4420 0.066 Uiso 1 1 calc R U . . .
H22C H 0.7610 0.4539 0.3870 0.066 Uiso 1 1 calc R U . . .
H1N1 H 0.108(3) -0.125(6) 0.707(2) 0.038(13) Uiso 1 1 d . . . . .
H2N1 H 0.190(3) -0.206(6) 0.687(2) 0.042(13) Uiso 1 1 d . . . . .
H1N2 H 0.388(3) 0.513(5) 0.564(3) 0.031(13) Uiso 1 1 d . . . . .
H1N6 H 0.378(5) 0.501(8) 0.443(4) 0.09(2) Uiso 1 1 d . . . . .
loop_
_atom_site_aniso_label
_atom_site_aniso_U_11
_atom_site_aniso_U_22
_atom_site_aniso_U_33
_atom_site_aniso_U_23
_atom_site_aniso_U_13
_atom_site_aniso_U_12
S1 0.0236(4) 0.0261(4) 0.0255(6) 0.0026(4) -0.0013(4) -0.0014(3)
S2 0.0224(4) 0.0263(4) 0.0253(6) 0.0030(4) -0.0005(4) -0.0014(3)
O1 0.0366(16) 0.0271(13) 0.039(2) -0.0045(12) -0.0022(14) -0.0005(11)
O2 0.0253(13) 0.0395(14) 0.0330(19) 0.0046(14) -0.0072(14) -0.0029(11)
O3 0.0237(13) 0.0391(14) 0.0290(18) 0.0057(13) -0.0032(13) -0.0032(11)
O4 0.0364(16) 0.0255(12) 0.0338(18) -0.0029(12) -0.0029(13) -0.0010(11)
N1 0.0348(19) 0.0277(16) 0.052(3) -0.0048(17) 0.0137(19) -0.0043(14)
N2 0.0207(15) 0.0363(17) 0.032(2) 0.0055(16) -0.0027(15) 0.0018(13)
N3 0.0233(15) 0.0314(16) 0.032(2) 0.0012(14) 0.0008(14) 0.0032(12)
N4 0.0319(19) 0.066(3) 0.024(2) 0.0035(19) -0.0038(16) 0.0107(18)
N5 0.041(2) 0.0283(16) 0.070(3) -0.0044(18) 0.020(2) -0.0074(15)
N6 0.0216(15) 0.0396(18) 0.025(2) 0.0076(15) 0.0026(14) 0.0015(13)
N7 0.0248(16) 0.0361(17) 0.035(2) 0.0029(16) 0.0031(15) 0.0036(13)
N8 0.0288(18) 0.066(3) 0.032(3) 0.0033(19) 0.0001(17) 0.0107(18)
C1 0.0225(17) 0.0265(16) 0.024(2) 0.0025(15) 0.0019(16) 0.0009(13)
C2 0.0233(17) 0.0268(16) 0.030(2) 0.0006(15) -0.0011(16) 0.0027(13)
C3 0.0244(18) 0.0303(19) 0.026(3) -0.0018(17) 0.0027(17) 0.0031(14)
C4 0.0299(19) 0.0273(16) 0.022(2) -0.0013(14) -0.0001(16) -0.0007(13)
C5 0.0253(18) 0.0288(16) 0.030(2) -0.0041(17) 0.0029(19) 0.0029(13)
C6 0.0219(16) 0.0303(17) 0.035(3) -0.0010(18) 0.0060(17) 0.0028(13)
C7 0.0264(19) 0.0293(18) 0.032(3) 0.0059(16) -0.0033(17) 0.0023(14)
C8 0.039(3) 0.103(5) 0.035(3) 0.001(3) -0.011(2) 0.022(3)
C9 0.028(2) 0.089(4) 0.041(4) -0.004(3) -0.015(2) 0.011(2)
C10 0.024(2) 0.041(2) 0.046(3) -0.002(2) -0.0042(19) 0.0056(16)
C11 0.028(2) 0.061(3) 0.062(4) -0.006(3) -0.001(2) 0.008(2)
C12 0.0262(17) 0.0246(15) 0.023(2) 0.0012(14) 0.0015(16) 0.0002(13)
C13 0.0236(18) 0.0284(17) 0.035(3) -0.0009(18) 0.0050(19) 0.0032(13)
C14 0.033(2) 0.0232(16) 0.053(3) -0.0008(18) 0.005(2) 0.0047(14)
C15 0.030(2) 0.0271(16) 0.029(3) 0.0006(15) 0.0045(17) -0.0011(14)
C16 0.0245(18) 0.0284(17) 0.029(3) -0.0035(16) 0.0062(16) -0.0018(13)
C17 0.0260(19) 0.0273(17) 0.019(2) -0.0006(15) 0.0062(16) 0.0008(13)
C18 0.0247(18) 0.0313(18) 0.033(3) -0.0012(17) 0.0010(17) 0.0021(14)
C19 0.039(3) 0.095(4) 0.034(3) 0.005(3) -0.004(2) 0.020(3)
C20 0.032(2) 0.091(4) 0.048(4) -0.009(3) -0.007(2) 0.025(3)
C21 0.026(2) 0.045(2) 0.040(3) -0.004(2) 0.0007(18) 0.0056(17)
C22 0.028(2) 0.070(3) 0.054(4) -0.006(3) 0.007(2) 0.010(2)
loop_
_atom_type_symbol
_atom_type_description
_atom_type_scat_dispersion_real
_atom_type_scat_dispersion_imag
_atom_type_scat_source
C C 0.0033 0.0016 'International Tables Vol C Tables 4.2.6.8 and 6.1.1.4'
H H 0.0000 0.0000 'International Tables Vol C Tables 4.2.6.8 and 6.1.1.4'
N N 0.0061 0.0033 'International Tables Vol C Tables 4.2.6.8 and 6.1.1.4'
O O 0.0106 0.0060 'International Tables Vol C Tables 4.2.6.8 and 6.1.1.4'
S S 0.1246 0.1234 'International Tables Vol C Tables 4.2.6.8 and 6.1.1.4'
loop_
_geom_angle_atom_site_label_1
_geom_angle_atom_site_label_2
_geom_angle_atom_site_label_3
_geom_angle
_geom_angle_site_symmetry_1
_geom_angle_site_symmetry_3
O1 S1 O2 119.04(19) . .
O1 S1 N2 109.0(2) . .
O2 S1 N2 102.41(19) . .
O1 S1 C1 109.0(2) . .
O2 S1 C1 109.64(17) . .
N2 S1 C1 107.1(2) . .
O4 S2 O3 118.43(19) . .
O4 S2 N6 109.43(19) . .
O3 S2 N6 102.41(18) . .
O4 S2 C12 109.27(19) . .
O3 S2 C12 109.53(17) . .
N6 S2 C12 107.1(2) . .
C4 N1 H1N1 123(3) . .
C4 N1 H2N1 119(3) . .
H1N1 N1 H2N1 114(4) . .
C7 N2 S1 125.9(3) . .
C7 N2 H1N2 115(4) . .
S1 N2 H1N2 110(4) . .
C7 N3 C10 116.5(4) . .
C7 N4 C8 115.2(4) . .
C15 N5 H5A 120.0 . .
C15 N5 H5B 120.0 . .
H5A N5 H5B 120.0 . .
C18 N6 S2 125.4(3) . .
C18 N6 H1N6 119(4) . .
S2 N6 H1N6 111(4) . .
C18 N7 C21 116.3(4) . .
C19 N8 C18 114.7(4) . .
C6 C1 C2 120.4(3) . .
C6 C1 S1 118.6(3) . .
C2 C1 S1 121.0(3) . .
C3 C2 C1 119.6(3) . .
C3 C2 H2 120.2 . .
C1 C2 H2 120.2 . .
C2 C3 C4 120.7(3) . .
C2 C3 H3 119.7 . .
C4 C3 H3 119.7 . .
N1 C4 C3 120.4(4) . .
N1 C4 C5 120.3(3) . .
C3 C4 C5 119.2(3) . .
C6 C5 C4 119.8(3) . .
C6 C5 H5 120.1 . .
C4 C5 H5 120.1 . .
C5 C6 C1 120.2(3) . .
C5 C6 H6 119.9 . .
C1 C6 H6 119.9 . .
N4 C7 N3 126.9(4) . .
N4 C7 N2 115.4(4) . .
N3 C7 N2 117.8(4) . .
N4 C8 C9 122.4(5) . .
N4 C8 H8 118.8 . .
C9 C8 H8 118.8 . .
C10 C9 C8 118.0(4) . .
C10 C9 H9 121.0 . .
C8 C9 H9 121.0 . .
N3 C10 C9 120.9(4) . .
N3 C10 C11 116.4(5) . .
C9 C10 C11 122.7(4) . .
C10 C11 H11A 109.5 . .
C10 C11 H11B 109.5 . .
H11A C11 H11B 109.5 . .
C10 C11 H11C 109.5 . .
H11A C11 H11C 109.5 . .
H11B C11 H11C 109.5 . .
C13 C12 C17 119.8(3) . .
C13 C12 S2 119.6(3) . .
C17 C12 S2 120.7(3) . .
C14 C13 C12 120.2(4) . .
C14 C13 H13 119.9 . .
C12 C13 H13 119.9 . .
C13 C14 C15 120.6(3) . .
C13 C14 H14 119.7 . .
C15 C14 H14 119.7 . .
N5 C15 C16 120.4(4) . .
N5 C15 C14 120.9(3) . .
C16 C15 C14 118.7(3) . .
C17 C16 C15 120.7(3) . .
C17 C16 H16 119.6 . .
C15 C16 H16 119.6 . .
C16 C17 C12 120.0(3) . .
C16 C17 H17 120.0 . .
C12 C17 H17 120.0 . .
N7 C18 N8 127.8(4) . .
N7 C18 N6 118.7(4) . .
N8 C18 N6 113.5(4) . .
N8 C19 C20 122.9(5) . .
N8 C19 H19 118.5 . .
C20 C19 H19 118.5 . .
C19 C20 C21 117.3(5) . .
C19 C20 H20 121.3 . .
C21 C20 H20 121.3 . .
N7 C21 C20 121.0(4) . .
N7 C21 C22 116.1(5) . .
C20 C21 C22 123.0(4) . .
C21 C22 H22A 109.5 . .
C21 C22 H22B 109.5 . .
H22A C22 H22B 109.5 . .
C21 C22 H22C 109.5 . .
H22A C22 H22C 109.5 . .
H22B C22 H22C 109.5 . .
loop_
_geom_bond_atom_site_label_1
_geom_bond_atom_site_label_2
_geom_bond_distance
_geom_bond_site_symmetry_2
S1 O1 1.431(3) .
S1 O2 1.437(3) .
S1 N2 1.651(4) .
S1 C1 1.740(4) .
S2 O4 1.433(3) .
S2 O3 1.440(3) .
S2 N6 1.644(4) .
S2 C12 1.727(4) .
N1 C4 1.360(5) .
N1 H1N1 0.85(5) .
N1 H2N1 0.86(5) .
N2 C7 1.387(5) .
N2 H1N2 0.80(5) .
N3 C7 1.336(5) .
N3 C10 1.345(5) .
N4 C7 1.333(6) .
N4 C8 1.337(6) .
N5 C15 1.362(5) .
N5 H5A 0.8600 .
N5 H5B 0.8600 .
N6 C18 1.390(5) .
N6 H1N6 0.97(7) .
N7 C18 1.321(5) .
N7 C21 1.345(6) .
N8 C19 1.337(6) .
N8 C18 1.337(6) .
C1 C6 1.396(5) .
C1 C2 1.398(5) .
C2 C3 1.370(5) .
C2 H2 0.9300 .
C3 C4 1.406(5) .
C3 H3 0.9300 .
C4 C5 1.412(5) .
C5 C6 1.374(5) .
C5 H5 0.9300 .
C6 H6 0.9300 .
C8 C9 1.378(7) .
C8 H8 0.9300 .
C9 C10 1.370(8) .
C9 H9 0.9300 .
C10 C11 1.487(6) .
C11 H11A 0.9600 .
C11 H11B 0.9600 .
C11 H11C 0.9600 .
C12 C13 1.391(5) .
C12 C17 1.399(5) .
C13 C14 1.380(5) .
C13 H13 0.9300 .
C14 C15 1.403(6) .
C14 H14 0.9300 .
C15 C16 1.400(5) .
C16 C17 1.379(5) .
C16 H16 0.9300 .
C17 H17 0.9300 .
C19 C20 1.375(7) .
C19 H19 0.9300 .
C20 C21 1.386(8) .
C20 H20 0.9300 .
C21 C22 1.496(6) .
C22 H22A 0.9600 .
C22 H22B 0.9600 .
C22 H22C 0.9600 .
loop_
_geom_hbond_atom_site_label_D
_geom_hbond_atom_site_label_H
_geom_hbond_atom_site_label_A
_geom_hbond_distance_DH
_geom_hbond_distance_HA
_geom_hbond_distance_DA
_geom_hbond_angle_DHA
_geom_hbond_site_symmetry_A
N2 H1N2 N8 0.80(5) 2.13(5) 2.931(6) 174(4) .
N6 H1N6 N4 0.97(7) 1.93(7) 2.900(5) 177(6) .
loop_
_geom_torsion_atom_site_label_1
_geom_torsion_atom_site_label_2
_geom_torsion_atom_site_label_3
_geom_torsion_atom_site_label_4
_geom_torsion
_geom_torsion_site_symmetry_1
_geom_torsion_site_symmetry_2
_geom_torsion_site_symmetry_3
_geom_torsion_site_symmetry_4
O1 S1 N2 C7 -61.5(4) . . . .
O2 S1 N2 C7 171.6(3) . . . .
C1 S1 N2 C7 56.2(4) . . . .
O4 S2 N6 C18 57.6(4) . . . .
O3 S2 N6 C18 -176.0(3) . . . .
C12 S2 N6 C18 -60.8(4) . . . .
O1 S1 C1 C6 -162.5(4) . . . .
O2 S1 C1 C6 -30.6(4) . . . .
N2 S1 C1 C6 79.8(4) . . . .
O1 S1 C1 C2 18.7(4) . . . .
O2 S1 C1 C2 150.5(4) . . . .
N2 S1 C1 C2 -99.1(4) . . . .
C6 C1 C2 C3 0.1(6) . . . .
S1 C1 C2 C3 179.0(3) . . . .
C1 C2 C3 C4 0.2(7) . . . .
C2 C3 C4 N1 -179.5(4) . . . .
C2 C3 C4 C5 0.0(7) . . . .
N1 C4 C5 C6 179.0(4) . . . .
C3 C4 C5 C6 -0.5(7) . . . .
C4 C5 C6 C1 0.8(7) . . . .
C2 C1 C6 C5 -0.6(7) . . . .
S1 C1 C6 C5 -179.5(4) . . . .
C8 N4 C7 N3 2.0(7) . . . .
C8 N4 C7 N2 -177.6(5) . . . .
C10 N3 C7 N4 -0.6(6) . . . .
C10 N3 C7 N2 179.0(4) . . . .
S1 N2 C7 N4 -163.5(3) . . . .
S1 N2 C7 N3 16.8(5) . . . .
C7 N4 C8 C9 -1.3(9) . . . .
N4 C8 C9 C10 -0.6(10) . . . .
C7 N3 C10 C9 -1.6(6) . . . .
C7 N3 C10 C11 179.2(4) . . . .
C8 C9 C10 N3 2.1(8) . . . .
C8 C9 C10 C11 -178.7(6) . . . .
O4 S2 C12 C13 157.3(3) . . . .
O3 S2 C12 C13 26.0(4) . . . .
N6 S2 C12 C13 -84.3(4) . . . .
O4 S2 C12 C17 -21.6(4) . . . .
O3 S2 C12 C17 -152.8(3) . . . .
N6 S2 C12 C17 96.8(4) . . . .
C17 C12 C13 C14 -1.3(7) . . . .
S2 C12 C13 C14 179.8(4) . . . .
C12 C13 C14 C15 1.0(7) . . . .
C13 C14 C15 N5 -179.1(5) . . . .
C13 C14 C15 C16 -0.9(7) . . . .
N5 C15 C16 C17 179.4(4) . . . .
C14 C15 C16 C17 1.2(7) . . . .
C15 C16 C17 C12 -1.5(6) . . . .
C13 C12 C17 C16 1.6(6) . . . .
S2 C12 C17 C16 -179.6(3) . . . .
C21 N7 C18 N8 2.0(7) . . . .
C21 N7 C18 N6 -178.7(4) . . . .
C19 N8 C18 N7 -2.2(7) . . . .
C19 N8 C18 N6 178.4(5) . . . .
S2 N6 C18 N7 -12.1(5) . . . .
S2 N6 C18 N8 167.3(3) . . . .
C18 N8 C19 C20 0.2(9) . . . .
N8 C19 C20 C21 1.8(10) . . . .
C18 N7 C21 C20 0.3(7) . . . .
C18 N7 C21 C22 -178.9(4) . . . .
C19 C20 C21 N7 -2.0(9) . . . .
C19 C20 C21 C22 177.1(6) . . . .
