#------------------------------------------------------------------------------
#$Date: 2017-11-07 03:23:43 +0200 (Tue, 07 Nov 2017) $
#$Revision: 202831 $
#$URL: file:///home/coder/svn-repositories/cod/cif/1/54/75/1547509.cif $
#------------------------------------------------------------------------------
#
# This file is available in the Crystallography Open Database (COD),
# http://www.crystallography.net/
#
# All data on this site have been placed in the public domain by the
# contributors.
#
data_1547509
loop_
_publ_author_name
'Mandal, Debdeep'
'Dolai, Ramapada'
'Chrysochos, Nicolas'
'Kalita, Pankaj'
'Kumar, Ravi'
'Dhara, Debabrata'
'Maiti, Avijit'
'Narayanan, Ramakirushnan Suriya'
'Rajaraman, Gopalan'
'Schulzke, Carola'
'Chandrasekhar, Vadapalli'
'Jana, Anukul'
_publ_section_title
;
 Stepwise Reversible Oxidation of N-Peralkyl-Substituted NHC-CAAC Derived
 Triazaalkenes: Isolation of Radical Cations and Dications.
;
_journal_issue                   20
_journal_name_full               'Organic letters'
_journal_page_first              5605
_journal_page_last               5608
_journal_paper_doi               10.1021/acs.orglett.7b02721
_journal_volume                  19
_journal_year                    2017
_chemical_formula_sum            'C23 H42 F3 N3 O3 S'
_chemical_formula_weight         497.65
_chemical_name_systematic
;
 ?
;
_space_group_crystal_system      monoclinic
_space_group_IT_number           14
_space_group_name_Hall           '-P 2yn'
_space_group_name_H-M_alt        'P 1 21/n 1'
_symmetry_space_group_name_Hall  '-P 2yn'
_symmetry_space_group_name_H-M   'P 1 21/n 1'
_atom_sites_solution_hydrogens   geom
_audit_creation_method           SHELXL-2013
_cell_angle_alpha                90
_cell_angle_beta                 92.79(3)
_cell_angle_gamma                90
_cell_formula_units_Z            4
_cell_length_a                   10.299(2)
_cell_length_b                   8.3668(17)
_cell_length_c                   29.872(6)
_cell_measurement_reflns_used    23615
_cell_measurement_temperature    170(2)
_cell_measurement_theta_max      55.1
_cell_measurement_theta_min      6.3
_cell_volume                     2571.0(9)
_computing_cell_refinement       'X-Area by STOE & Cie GmbH 2010'
_computing_data_collection       'X-Area by STOE & Cie GmbH 2010'
_computing_data_reduction        'X-Area by STOE & Cie GmbH 2010'
_computing_molecular_graphics    'XP Version 5.1 by Bruker AXS 1998'
_computing_publication_material  'CIFTAB (Sheldrick, 2013)'
_computing_structure_refinement  'SHELXL-2013 (Sheldrick, 2013)'
_computing_structure_solution    'SHELXT-2014 (Sheldrick, 2013)'
_diffrn_ambient_temperature      170(2)
_diffrn_detector_area_resol_mean 6.67
_diffrn_measured_fraction_theta_full 0.998
_diffrn_measured_fraction_theta_max 0.982
_diffrn_measurement_device_type  'STOE IPDS2T'
_diffrn_measurement_method       \w
_diffrn_radiation_type           MoK\a
_diffrn_radiation_wavelength     0.71073
_diffrn_reflns_av_R_equivalents  0.0443
_diffrn_reflns_av_unetI/netI     0.0332
_diffrn_reflns_Laue_measured_fraction_full 0.998
_diffrn_reflns_Laue_measured_fraction_max 0.982
_diffrn_reflns_limit_h_max       13
_diffrn_reflns_limit_h_min       -13
_diffrn_reflns_limit_k_max       10
_diffrn_reflns_limit_k_min       -10
_diffrn_reflns_limit_l_max       38
_diffrn_reflns_limit_l_min       -36
_diffrn_reflns_number            22808
_diffrn_reflns_point_group_measured_fraction_full 0.998
_diffrn_reflns_point_group_measured_fraction_max 0.982
_diffrn_reflns_theta_full        25.242
_diffrn_reflns_theta_max         27.527
_diffrn_reflns_theta_min         3.138
_diffrn_source                   'fine-focus sealed tube'
_exptl_absorpt_coefficient_mu    0.176
_exptl_absorpt_correction_T_max  0.9774
_exptl_absorpt_correction_T_min  0.6665
_exptl_absorpt_correction_type   numerical
_exptl_absorpt_process_details   'face indexed'
_exptl_crystal_colour            colourless
_exptl_crystal_density_diffrn    1.286
_exptl_crystal_description       block
_exptl_crystal_F_000             1072
_exptl_crystal_size_max          0.384
_exptl_crystal_size_mid          0.342
_exptl_crystal_size_min          0.237
_refine_diff_density_max         0.631
_refine_diff_density_min         -0.509
_refine_diff_density_rms         0.055
_refine_ls_extinction_method     none
_refine_ls_goodness_of_fit_ref   1.080
_refine_ls_hydrogen_treatment    constr
_refine_ls_matrix_type           full
_refine_ls_number_parameters     374
_refine_ls_number_reflns         5821
_refine_ls_number_restraints     48
_refine_ls_restrained_S_all      1.092
_refine_ls_R_factor_all          0.0867
_refine_ls_R_factor_gt           0.0574
_refine_ls_shift/su_max          0.000
_refine_ls_shift/su_mean         0.000
_refine_ls_structure_factor_coef Fsqd
_refine_ls_weighting_details
'w=1/[\s^2^(Fo^2^)+(0.0897P)^2^+0.7451P] where P=(Fo^2^+2Fc^2^)/3'
_refine_ls_weighting_scheme      calc
_refine_ls_wR_factor_gt          0.1511
_refine_ls_wR_factor_ref         0.1743
_reflns_Friedel_coverage         0.000
_reflns_number_gt                3893
_reflns_number_total             5821
_reflns_threshold_expression     'I > 2\s(I)'
_cod_data_source_file            ol7b02721_si_002.cif
_cod_data_source_block           DM-392
_cod_depositor_comments
'Adding full bibliography for 1547507--1547513.cif.'
_cod_original_cell_volume        2571.2(9)
_cod_database_code               1547509
_shelx_space_group_comment
;
The symmetry employed for this shelxl refinement is uniquely defined
by the following loop, which should always be used as a source of
symmetry information in preference to the above space-group names.
They are only intended as comments.
;
_shelx_estimated_absorpt_t_min   0.935
_shelx_estimated_absorpt_t_max   0.959
_shelxl_version_number           2013-3
_shelx_res_file
;
TITL DM392 in P2(1)/n
CELL  0.71073  10.2995   8.3668  29.8725   90.000   92.789   90.000
ZERR     4.00   0.0021   0.0017   0.0060    0.000    0.030    0.000
LATT   1
SYMM  1/2 - X, 1/2 + Y, 1/2 - Z
SFAC  C    H    N    O    F    S
UNIT  92 168 12 12 12 4
MERG   2
DELU     0.010   0.010  O1 O2 O3 O1A O2A O3A
SIMU     0.020   0.040  1.900 O1 O2 O3 O1A O2A O3A
DELU     0.010   0.010  F1 F2 F3 F2A F3A
SIMU     0.020   0.040  1.900 F1 F2 F3 F2A F3A
FMAP   2
SIZE     0.237   0.342   0.384
PLAN -5
ACTA
BOND   $H
LIST   6
L.S.  24
TEMP  -103.00
WGHT    0.089700    0.745100
FVAR       0.60044   0.59977
MOLE    1
N1    3    1.022657    0.545521    0.672642    11.00000    0.03224    0.03340 =
         0.03850   -0.00242   -0.00199   -0.00237
N2    3    0.770775    0.527457    0.617340    11.00000    0.02551    0.02874 =
         0.03424   -0.00307   -0.00041    0.00426
N3    3    0.867422    0.353264    0.576491    11.00000    0.02813    0.02791 =
         0.03075   -0.00213   -0.00232    0.00336
C1    1    1.059324    0.715022    0.606643    11.00000    0.04172    0.04703 =
         0.04989    0.00991    0.00603   -0.00410
AFIX 137
H1A   2    1.020366    0.637217    0.585462    11.00000   -1.50000
H1B   2    1.126390    0.776162    0.591970    11.00000   -1.50000
H1C   2    0.991934    0.788015    0.616453    11.00000   -1.50000
AFIX   0
C2    1    1.233691    0.526847    0.631023    11.00000    0.03288    0.04858 =
         0.07291    0.00224    0.01397   -0.00185
AFIX 137
H2A   2    1.271051    0.463997    0.656161    11.00000   -1.50000
H2B   2    1.300452    0.597505    0.619652    11.00000   -1.50000
H2C   2    1.201961    0.454681    0.607075    11.00000   -1.50000
AFIX   0
C3    1    1.120175    0.627766    0.646986    11.00000    0.03136    0.03944 =
         0.05187    0.00019    0.00263   -0.00116
AFIX  13
H3    2    1.159523    0.711752    0.667233    11.00000   -1.20000
AFIX   0
C4    1    1.048836    0.530858    0.721811    11.00000    0.04242    0.03783 =
         0.03702   -0.00578   -0.00616   -0.00106
C5    1    1.187068    0.486276    0.737537    11.00000    0.04552    0.06537 =
         0.05243   -0.00077   -0.01926   -0.00402
AFIX 137
H5A   2    1.211720    0.386030    0.723260    11.00000   -1.50000
H5B   2    1.191591    0.472770    0.770163    11.00000   -1.50000
H5C   2    1.246797    0.571355    0.729303    11.00000   -1.50000
AFIX   0
C6    1    1.012643    0.688036    0.744246    11.00000    0.06541    0.05228 =
         0.05312   -0.01982   -0.00345   -0.00281
AFIX 137
H6A   2    1.072130    0.772533    0.735421    11.00000   -1.50000
H6B   2    1.019307    0.675015    0.776879    11.00000   -1.50000
H6C   2    0.923313    0.717216    0.734804    11.00000   -1.50000
AFIX   0
C7    1    0.953210    0.398385    0.733828    11.00000    0.04878    0.04382 =
         0.03687    0.00052    0.00045    0.00246
AFIX  23
H7A   2    0.986948    0.339710    0.760724    11.00000   -1.20000
H7B   2    0.868020    0.445455    0.740389    11.00000   -1.20000
AFIX   0
C8    1    0.937934    0.284779    0.693933    11.00000    0.03511    0.03031 =
         0.04398    0.00116   -0.00118    0.00046
C9    1    0.800574    0.215132    0.689292    11.00000    0.03958    0.03615 =
         0.05954    0.00738    0.00181   -0.00549
AFIX 137
H9A   2    0.791140    0.152516    0.661600    11.00000   -1.50000
H9B   2    0.736944    0.302301    0.688288    11.00000   -1.50000
H9C   2    0.785660    0.145970    0.715015    11.00000   -1.50000
AFIX   0
C10   1    1.032302    0.144016    0.696673    11.00000    0.04910    0.03508 =
         0.04337    0.00567   -0.00257    0.00973
AFIX 137
H10A  2    1.018229    0.082015    0.723845    11.00000   -1.50000
H10B  2    1.121810    0.184065    0.697643    11.00000   -1.50000
H10C  2    1.017444    0.075608    0.670291    11.00000   -1.50000
AFIX   0
C11   1    0.975780    0.395616    0.653264    11.00000    0.02784    0.03173 =
         0.03229   -0.00416   -0.00305    0.00534
AFIX  13
H11   2    1.050389    0.343708    0.638734    11.00000   -1.20000
AFIX   0
C12   1    0.870157    0.423505    0.617265    11.00000    0.02640    0.02464 =
         0.03068   -0.00166   -0.00082    0.00162
C13   1    0.706396    0.527080    0.575405    11.00000    0.02707    0.03329 =
         0.03621    0.00073   -0.00477    0.00278
C14   1    0.765845    0.418823    0.549887    11.00000    0.02994    0.03281 =
         0.03326    0.00276   -0.00526   -0.00023
C15   1    0.726975    0.612616    0.657910    11.00000    0.02963    0.03279 =
         0.03831   -0.00526    0.00257    0.00556
AFIX  13
H15   2    0.785511    0.577665    0.683760    11.00000   -1.20000
AFIX   0
C16   1    0.589528    0.564424    0.668621    11.00000    0.03504    0.04323 =
         0.05368   -0.00625    0.00923    0.00395
AFIX 137
H16A  2    0.526943    0.630397    0.651130    11.00000   -1.50000
H16B  2    0.577457    0.580210    0.700658    11.00000   -1.50000
H16C  2    0.575618    0.451612    0.660976    11.00000   -1.50000
AFIX   0
C17   1    0.740022    0.793127    0.654356    11.00000    0.04453    0.03339 =
         0.06389   -0.01083    0.00656    0.00237
AFIX 137
H17A  2    0.831355    0.821105    0.650833    11.00000   -1.50000
H17B  2    0.709728    0.843141    0.681618    11.00000   -1.50000
H17C  2    0.687393    0.831483    0.628327    11.00000   -1.50000
AFIX   0
C18   1    0.592394    0.629338    0.562201    11.00000    0.04242    0.05505 =
         0.05322   -0.00275   -0.01271    0.01819
AFIX 137
H18A  2    0.579690    0.630175    0.529475    11.00000   -1.50000
H18B  2    0.608068    0.738586    0.572992    11.00000   -1.50000
H18C  2    0.514461    0.586495    0.575452    11.00000   -1.50000
AFIX   0
C19   1    0.729154    0.369979    0.503077    11.00000    0.03947    0.04868 =
         0.03519   -0.00172   -0.00732    0.00247
AFIX 137
H19A  2    0.674510    0.274147    0.503466    11.00000   -1.50000
H19B  2    0.807896    0.346820    0.487111    11.00000   -1.50000
H19C  2    0.680887    0.456797    0.487822    11.00000   -1.50000
AFIX   0
C20   1    0.958006    0.225568    0.562653    11.00000    0.03547    0.03495 =
         0.03493   -0.00577    0.00050    0.00951
AFIX  13
H20   2    1.015063    0.199391    0.589702    11.00000   -1.20000
AFIX   0
C21   1    1.046922    0.283610    0.527179    11.00000    0.04418    0.05307 =
         0.05625   -0.00754    0.01413    0.00334
AFIX 137
H21A  2    0.997187    0.294767    0.498539    11.00000   -1.50000
H21B  2    1.117266    0.206242    0.523903    11.00000   -1.50000
H21C  2    1.083872    0.387391    0.536130    11.00000   -1.50000
AFIX   0
C22   1    0.885086    0.073832    0.549921    11.00000    0.05825    0.03356 =
         0.05226   -0.00619    0.00328    0.00532
AFIX 137
H22A  2    0.825114    0.047264    0.573293    11.00000   -1.50000
H22B  2    0.947126   -0.013833    0.546851    11.00000   -1.50000
H22C  2    0.835821    0.089858    0.521376    11.00000   -1.50000
AFIX   0
MOLE    2
PART    1
SAME S1A O1A O2A O3A
S1    6    0.336791    0.014047    0.600278    21.00000    0.03583    0.03526 =
         0.05844   -0.00427    0.01089   -0.00072
O1    4    0.250150    0.112849    0.621120    21.00000    0.08900    0.06589 =
         0.12397    0.01460    0.07293    0.03810
O2    4    0.401619   -0.095771    0.628610    21.00000    0.07601    0.08144 =
         0.12049    0.06326    0.00026    0.01040
O3    4    0.286278   -0.040720    0.557957    21.00000    0.12158    0.12919 =
         0.07617   -0.03569    0.00129   -0.07514
PART    2
S1A   6    0.354536    0.054937    0.614502   -21.00000    0.05841    0.04317 =
         0.06684    0.01729    0.01350    0.00831
O1A   4    0.227926    0.083347    0.599640   -21.00000    0.02359    0.10830 =
         0.23008    0.09080    0.00537    0.01084
O2A   4    0.391903   -0.109909    0.617029   -21.00000    0.04796    0.02484 =
         0.22219    0.03544    0.02994    0.01175
O3A   4    0.399556    0.159065    0.648827   -21.00000    0.25175    0.11474 =
         0.04699   -0.01715   -0.02096    0.00238
PART    0
F1    5    0.421541    0.267971    0.558785    11.00000    0.08800    0.08166 =
         0.12210    0.05563    0.02148    0.00173
PART    1
C23   1    0.463744    0.148114    0.583725    21.00000    0.03615    0.03183 =
         0.06322   -0.00369   -0.00009   -0.00426
F2    5    0.549258    0.071380    0.558604    21.00000    0.09108    0.08758 =
         0.15098    0.00443    0.07816    0.00579
F3    5    0.525633    0.209069    0.618901    21.00000    0.14272    0.12212 =
         0.12589    0.00243   -0.05453   -0.08425
PART    2
C23A  1    0.437015    0.110628    0.567409   -21.00000    0.07155    0.05762 =
         0.07371   -0.01383    0.01365    0.01275
F2A   5    0.568549    0.100752    0.579693   -21.00000    0.03567    0.14001 =
         0.20521    0.08923    0.03852    0.01775
F3A   5    0.405892    0.041914    0.532016   -21.00000    0.31248    0.22121 =
         0.08215   -0.05866    0.06391    0.01229
HKLF    4

REM  DM392 in P2(1)/n
REM R1 =  0.0574 for    3893 Fo > 4sig(Fo)  and  0.0867 for all    5821 data
REM    374 parameters refined using     48 restraints

END

WGHT      0.0898      0.7439

REM Highest difference peak  0.631,  deepest hole -0.509,  1-sigma level  0.055
Q1    1   0.9761  0.4264  0.6950  11.00000  0.05    0.63
Q2    1   1.1022  0.6616  0.6881  11.00000  0.05    0.49
Q3    1   0.3507 -0.1214  0.5727  11.00000  0.05    0.35
Q4    1   0.4564  0.2909  0.5989  11.00000  0.05    0.28
Q5    1   1.0133  0.5890  0.7670  11.00000  0.05    0.28
;
_shelx_res_checksum              45056
_shelx_hkl_file
;
  -2   0   0  941.67   13.36   0
   2   0   0  952.99   13.33   0
  -4   0   0 2126.93   14.22   0
   4   0   0 2043.22   14.30   0
   6   0   0  861.78    8.29   0
  -6   0   0  899.88    8.34   0
  -8   0   0   20.76    3.09   0
   8   0   0   14.23    3.03   0
  10   0   0  179.42    4.78   0
 -10   0   0  211.94    4.71   0
 -12   0   0   39.86    3.90   0
  12   0   0   37.06    3.91   0
  -1   1   0 9999.99   48.26   0
  -2   1   0 6408.79   31.57   0
  -2  -1   0 6458.97   32.85   0
   2   1   0 6394.41   32.70   0
   2  -1   0 6282.34   31.14   0
   3  -1   0   86.43    4.36   0
   3   1   0   87.50    4.66   0
  -3  -1   0   82.77    4.54   0
  -3   1   0   88.87    4.52   0
  -4  -1   0  461.09    7.19   0
   4   1   0  448.68    7.21   0
   4  -1   0  423.04    6.59   0
  -4   1   0  460.10    7.10   0
   5   1   0  131.67    4.46   0
   5  -1   0  130.83    4.40   0
  -5   1   0  137.23    4.43   0
  -5  -1   0  134.08    4.43   0
  -6   1   0   25.63    3.10   0
   6   1   0   27.92    3.29   0
   6  -1   0   24.90    3.02   0
  -6  -1   0   24.63    2.96   0
  -7  -1   0  211.48    4.52   0
   7   1   0  195.86    4.48   0
  -7   1   0  211.62    4.42   0
   7  -1   0  179.70    4.18   0
   8  -1   0    0.05    2.84   0
  -8   1   0    1.28    2.88   0
   8   1   0    2.82    3.18   0
  -8  -1   0    0.03    2.75   0
   9   1   0   95.06    3.86   0
  -9  -1   0   98.42    3.81   0
  -9   1   0  104.80    3.63   0
   9  -1   0   88.57    3.49   0
  10   1   0   26.21    3.54   0
 -10   1   0   28.23    3.56   0
 -10  -1   0   32.29    3.32   0
  10  -1   0   20.95    3.44   0
 -11   1   0  119.63    4.33   0
  11  -1   0  100.72    4.23   0
 -11  -1   0  121.58    4.48   0
  11   1   0   95.14    4.40   0
  12  -1   0    2.84    3.62   0
 -12   1   0    3.58    3.47   0
 -12  -1   0    6.39    3.67   0
  12   1   0   -0.48    3.39   0
  13   1   0    2.36    3.63   0
 -13   1   0    3.02    4.14   0
  13  -1   0    3.65    3.96   0
 -13  -1   0    2.31    4.21   0
   0  -2   0 1970.75   18.46   0
   0   2   0 1951.58   18.43   0
   0  -2   0 1961.07   21.27   0
  -1  -2   0  944.30   12.55   0
  -1  -2   0  910.81   16.23   0
  -1   2   0  939.62   12.41   0
   1   2   0  968.09   17.73   0
   1  -2   0  945.42   12.31   0
   2   2   0 4449.32   35.41   0
  -2  -2   0 4208.31   23.73   0
   2  -2   0 4366.20   23.00   0
  -2   2   0 4229.63   22.85   0
   3  -2   0   86.87    4.24   0
  -3   2   0   85.66    4.30   0
  -3  -2   0   92.68    4.41   0
  -4  -2   0    4.36    3.67   0
  -4   2   0    4.93    3.23   0
   4  -2   0    3.18    3.13   0
   4   2   0    4.19    3.67   0
   5  -2   0   24.15    3.21   0
  -5  -2   0   22.86    3.57   0
  -5   2   0   19.35    3.43   0
   5   2   0   25.44    3.59   0
   6   2   0   67.92    3.75   0
  -6   2   0   66.70    3.51   0
   6  -2   0   75.22    3.56   0
  -6  -2   0   72.22    3.64   0
  -7   2   0   54.64    3.32   0
  -7  -2   0   55.91    3.71   0
   7  -2   0   56.09    3.34   0
   7   2   0   51.24    3.49   0
  -8   2   0   63.68    3.52   0
   8   2   0   63.22    3.74   0
  -8  -2   0   66.46    3.43   0
   8  -2   0   64.66    3.61   0
   9  -2   0  751.95    7.31   0
   9   2   0  750.63    7.85   0
  -9  -2   0  872.15    7.89   0
  -9   2   0  813.88    7.59   0
 -10  -2   0    0.05    3.30   0
 -10   2   0    2.71    3.22   0
  10   2   0   -0.42    3.35   0
  10  -2   0    5.02    3.25   0
  11  -2   0   -2.42    3.40   0
 -11  -2   0    0.77    3.16   0
 -11   2   0    0.11    3.26   0
  11   2   0    1.11    3.47   0
  12   2   0   14.75    4.23   0
 -12  -2   0   15.41    3.82   0
  12  -2   0    4.41    3.95   0
 -12   2   0   15.90    3.61   0
  13  -2   0    3.55    4.13   0
 -13  -2   0   -0.71    4.25   0
  13   2   0    0.10    4.28   0
 -13   2   0    2.23    4.09   0
   1  -3   0   78.10    4.29   0
  -1  -3   0   78.90    4.65   0
  -1   3   0   80.24    4.33   0
  -1  -3   0   75.87    5.08   0
  -2   3   0  291.15    6.28   0
   2  -3   0  316.45    6.34   0
  -2  -3   0  313.04    6.93   0
  -2  -3   0  299.00    8.38   0
   2   3   0  306.31    9.21   0
  -3  -3   0  550.71    7.90   0
  -3   3   0  554.26    7.62   0
   3   3   0  555.68   11.47   0
   3  -3   0  554.13    7.62   0
   4  -3   0   21.54    3.32   0
   4   3   0   17.21    4.65   0
  -4  -3   0   19.91    3.54   0
  -4   3   0   14.84    3.34   0
   5  -3   0  410.55    6.01   0
  -5  -3   0  422.54    6.23   0
  -5   3   0  401.23    5.98   0
  -6   3   0  267.08    4.90   0
  -6  -3   0  279.42    5.11   0
   6  -3   0  251.80    4.86   0
   7   3   0    8.17    3.28   0
  -7   3   0   10.28    3.13   0
  -7  -3   0   15.89    3.06   0
   7  -3   0    7.30    3.00   0
  -8   3   0  109.97    3.98   0
  -8  -3   0  110.30    4.11   0
   8  -3   0  112.11    3.97   0
   8   3   0  101.35    4.21   0
  -9   3   0    4.25    2.87   0
   9  -3   0    7.12    3.38   0
   9   3   0    2.88    3.73   0
  -9  -3   0    4.44    3.58   0
  10   3   0   99.07    4.41   0
 -10  -3   0  118.03    4.27   0
  10  -3   0  109.73    3.99   0
 -10   3   0  112.88    4.06   0
  11   3   0    3.26    3.80   0
  11  -3   0   -1.00    3.52   0
 -11   3   0   -1.90    3.54   0
 -11  -3   0    6.49    3.78   0
  12  -3   0    3.51    3.74   0
 -12   3   0    7.65    3.88   0
  12   3   0    0.53    4.13   0
 -12  -3   0    8.01    4.13   0
   0  -4   0    2.70    4.04   0
   0   4   0    3.61    3.49   0
   0  -4   0    3.42    3.44   0
   1  -4   0   41.14    5.52   0
  -1   4   0   41.42    3.89   0
  -1  -4   0   43.91    4.04   0
  -1  -4   0   38.84    4.81   0
   1  -4   0   46.14    3.92   0
  -2  -4   0   79.14    4.27   0
   2  -4   0   71.14    4.09   0
  -2   4   0   68.45    4.04   0
  -2  -4   0   72.36    4.58   0
   3   4   0    0.29    5.63   0
  -3   4   0   -0.97    3.05   0
  -3  -4   0   -1.01    3.25   0
   3  -4   0    1.73    2.97   0
  -4  -4   0   96.58    4.21   0
  -4   4   0   95.31    3.82   0
   4  -4   0   89.30    3.81   0
   4   4   0   94.32    6.11   0
  -5   4   0    9.48    2.82   0
   5   4   0    9.41    4.68   0
  -5  -4   0    5.99    3.18   0
   5  -4   0    7.14    2.75   0
  -6   4   0  136.69    4.17   0
   6   4   0  136.72    6.62   0
  -6  -4   0  142.27    4.38   0
   6  -4   0  128.83    4.09   0
  -7  -4   0  117.72    4.27   0
  -7   4   0  108.78    4.03   0
   7   4   0  113.45    6.57   0
   7  -4   0  107.47    4.06   0
  -8  -4   0  304.26    5.63   0
  -8   4   0  282.71    5.50   0
   8   4   0  283.44    8.54   0
   8  -4   0  286.49    5.42   0
  -9  -4   0  123.90    4.59   0
   9  -4   0  115.29    4.13   0
  -9   4   0  123.41    4.26   0
  10  -4   0   14.65    3.44   0
 -10   4   0   15.07    3.47   0
 -10  -4   0   13.09    3.56   0
 -11  -4   0    4.38    4.03   0
 -11   4   0   -0.93    3.83   0
  11  -4   0   -2.52    3.83   0
 -12  -4   0    8.61    4.22   0
  12  -4   0    8.51    3.73   0
 -12   4   0   15.66    4.18   0
  -1  -5   0    4.50    4.66   0
   1  -5   0    5.76    3.24   0
   1  -5   0    2.87    4.58   0
  -1  -5   0    2.04    3.28   0
  -1   5   0    4.94    3.31   0
  -2   5   0  297.60    5.58   0
  -2  -5   0  307.15    5.77   0
   2  -5   0  321.13    5.74   0
  -2  -5   0  312.46    7.03   0
   2  -5   0  317.14    6.85   0
   3  -5   0    6.67    3.14   0
  -3   5   0    8.80    3.49   0
  -3  -5   0    7.49    3.37   0
  -4  -5   0   42.22    3.68   0
   4   5   0   44.89    6.37   0
   4  -5   0   39.37    3.38   0
  -4   5   0   45.89    3.52   0
  -4  -5   0   50.08    3.99   0
   5   5   0  109.02    7.14   0
  -5   5   0  116.74    4.38   0
   5  -5   0  112.59    4.38   0
  -5  -5   0  116.55    4.73   0
   6   5   0   27.44    6.22   0
   6  -5   0   30.10    3.54   0
  -6  -5   0   29.48    3.87   0
  -6   5   0   29.59    3.64   0
   7  -5   0   20.48    3.73   0
  -7  -5   0   16.02    3.91   0
   7   5   0   22.90    5.40   0
  -7   5   0   27.85    3.98   0
   8  -5   0   27.19    3.53   0
  -8   5   0   27.65    3.84   0
  -8  -5   0   38.25    3.91   0
   8   5   0   23.66    6.28   0
  -9   5   0    5.27    3.17   0
   9   5   0    9.50    6.07   0
  -9  -5   0   15.24    3.88   0
   9  -5   0   11.32    3.32   0
 -10  -5   0    6.40    3.99   0
 -10   5   0   -1.63    3.81   0
  10   5   0   -0.37    6.03   0
  10  -5   0   -3.45    3.74   0
 -11   5   0   -4.17    4.05   0
  11  -5   0   -1.87    3.92   0
  11   5   0   -1.01    7.40   0
 -11  -5   0   -4.37    4.19   0
   0  -6   0  165.83    5.59   0
   0  -6   0  181.55    4.87   0
   0   6   0  175.03    4.80   0
   1  -6   0   11.86    3.35   0
  -1  -6   0   18.19    4.29   0
   1  -6   0   11.66    4.58   0
  -1  -6   0   14.09    3.39   0
  -1   6   0   12.81    3.43   0
  -2   6   0  161.64    4.69   0
   2  -6   0  159.50    6.01   0
  -2  -6   0  155.16    4.76   0
   2  -6   0  156.69    4.64   0
  -2  -6   0  151.55    5.76   0
  -3   6   0    3.18    4.13   0
   3  -6   0   10.71    4.86   0
  -3  -6   0    7.67    3.63   0
  -3  -6   0    9.61    3.92   0
   3  -6   0    6.99    3.57   0
  -4   6   0   -0.30    3.42   0
  -4  -6   0   -2.05    3.54   0
   4  -6   0    0.83    3.85   0
  -4  -6   0    1.83    3.62   0
   5  -6   0   36.68    3.75   0
  -5  -6   0   44.02    4.01   0
  -5  -6   0   35.55    3.84   0
  -5   6   0   31.50    3.81   0
   6  -6   0  126.33    4.67   0
  -6  -6   0  120.83    4.66   0
  -6  -6   0  121.59    4.51   0
  -6   6   0  116.10    4.38   0
  -7   6   0    6.24    3.62   0
   7   6   0    6.84    7.04   0
  -7  -6   0   10.62    3.80   0
   7  -6   0    3.44    3.60   0
   8   6   0    7.19    6.81   0
  -8   6   0    2.77    3.78   0
   8  -6   0    6.84    3.77   0
  -8  -6   0   12.71    4.12   0
  -9   6   0    0.98    3.80   0
  -9  -6   0    1.44    3.77   0
   9   6   0    0.50    8.25   0
   9  -6   0   -1.59    3.74   0
  10  -6   0    3.41    3.93   0
 -10  -6   0   -0.97    4.11   0
 -10   6   0   -1.91    3.97   0
 -11  -6   0   13.48    5.28   0
  11  -6   0   56.32    4.51   0
 -11   6   0   53.12    5.08   0
  -1   7   0    3.87    3.68   0
   1  -7   0    5.82    3.87   0
  -1  -7   0    0.98    3.62   0
   1  -7   0    3.05    4.59   0
  -1  -7   0    3.84    4.37   0
  -2  -7   0   14.44    4.39   0
   2  -7   0   13.09    3.66   0
  -2   7   0   15.25    3.61   0
   2  -7   0   18.12    5.45   0
  -2  -7   0   16.10    3.79   0
  -3  -7   0  197.92    6.11   0
   3  -7   0  203.52    6.34   0
  -3   7   0  211.04    5.15   0
   3  -7   0  194.92    5.14   0
  -3  -7   0  210.64    5.41   0
  -4  -7   0   34.73    3.97   0
   4  -7   0   25.26    4.16   0
  -4   7   0   31.15    3.92   0
  -4  -7   0   28.92    3.95   0
   4  -7   0   21.19    5.25   0
  -5  -7   0    4.48    4.19   0
   5  -7   0    4.07    4.56   0
   5  -7   0    6.70    3.62   0
  -5  -7   0    1.40    3.81   0
  -5   7   0    3.64    3.55   0
   6  -7   0   13.20    3.70   0
  -6  -7   0   17.56    4.24   0
  -6  -7   0   18.88    3.81   0
  -6   7   0    7.21    3.86   0
  -7   7   0    9.85    3.79   0
  -7  -7   0   -2.40    4.38   0
   7  -7   0    7.54    3.79   0
  -7  -7   0    8.52    4.03   0
  -8   7   0   15.19    4.00   0
  -8  -7   0    3.61    4.21   0
   8  -7   0    8.64    3.87   0
  -8  -7   0   13.23    4.18   0
  -9  -7   0   -0.34    4.10   0
  -9   7   0    2.05    4.18   0
  -9  -7   0   -5.82    4.30   0
   9  -7   0    1.84    3.98   0
 -10  -7   0    0.86    4.21   0
 -10   7   0    6.87    4.38   0
  10  -7   0    3.37    4.34   0
   0   8   0   19.30    3.76   0
   0  -8   0   24.78    3.82   0
   0  -8   0   21.16    4.16   0
   1  -8   0   11.36    4.23   0
  -1  -8   0    6.71    3.65   0
  -1  -8   0    9.56    4.33   0
   1  -8   0   12.79    3.54   0
  -1   8   0   10.30    3.60   0
  -2  -8   0   19.28    3.73   0
  -2   8   0   16.93    3.80   0
  -2  -8   0   21.39    4.01   0
   2  -8   0   17.65    4.18   0
   2  -8   0   20.52    4.61   0
   3  -8   0  132.38    5.60   0
  -3  -8   0  133.78    5.55   0
   3  -8   0  133.52    4.61   0
  -3   8   0  140.12    4.72   0
  -3  -8   0  131.27    4.67   0
  -4   8   0    0.26    3.72   0
   4  -8   0    5.59    3.82   0
  -4  -8   0    7.58    3.79   0
   4  -8   0    5.10    4.74   0
  -4  -8   0    3.41    3.93   0
  -5   8   0   22.76    4.49   0
   5  -8   0   28.97    4.63   0
   5  -8   0   22.98    4.17   0
  -5  -8   0   22.07    4.47   0
  -5  -8   0   11.64    4.56   0
  -6  -8   0    2.88    4.12   0
  -6   8   0   -3.37    3.83   0
   6  -8   0   -6.72    3.97   0
  -6  -8   0   -1.87    4.00   0
   6  -8   0   -0.18    3.82   0
  -7  -8   0   36.55    4.38   0
  -7   8   0   35.14    4.32   0
   7  -8   0   40.28    4.26   0
   7  -8   0   47.78    5.38   0
  -7  -8   0   48.03    4.61   0
  -8  -8   0   -6.01    4.49   0
   8  -8   0   -0.86    4.22   0
  -8  -8   0   -0.43    4.29   0
   8  -8   0   -1.21    4.67   0
  -8   8   0    0.47    4.33   0
  -1   9   0    7.27    3.94   0
   1  -9   0    6.58    4.78   0
   1  -9   0    7.02    3.83   0
  -1  -9   0   10.84    4.61   0
  -1  -9   0    2.23    3.89   0
   2  -9   0    4.03    4.83   0
   2  -9   0   14.24    4.02   0
  -2  -9   0   10.97    4.54   0
  -2   9   0    4.75    4.49   0
  -2  -9   0    3.59    4.52   0
  -3   9   0    1.25    3.84   0
   3  -9   0    0.85    4.01   0
  -3  -9   0    0.14    4.30   0
  -3  -9   0   -0.71    3.95   0
   3  -9   0   -0.38    4.40   0
   4  -9   0   -4.54    4.67   0
   4  -9   0    1.64    3.82   0
  -4   9   0    1.82    4.44   0
  -4  -9   0    0.28    3.87   0
  -4  -9   0    2.68    3.94   0
  -5   9   0   19.82    4.14   0
  -5  -9   0   13.53    4.44   0
   5  -9   0   11.57    4.22   0
   5  -9   0   17.88    4.99   0
  -5  -9   0    9.61    4.57   0
   6  -9   0    0.78    4.24   0
  -6   9   0    1.42    4.24   0
  -6  -9   0    3.34    4.43   0
   6  -9   0    0.85    4.41   0
  -6  -9   0   -0.92    4.35   0
  -7  -9   0    6.44    4.57   0
  -7   9   0    3.50    4.74   0
   7  -9   0   -3.57    5.19   0
   7  -9   0   -1.50    4.26   0
  -7  -9   0    0.42    4.85   0
   0 -10   0    7.31    4.35   0
   0 -10   0    0.42    4.25   0
   1 -10   0   -1.52    4.80   0
  -1 -10   0    0.97    4.37   0
  -1 -10   0   -0.64    4.97   0
   1 -10   0    4.23    4.05   0
  -2 -10   0   -2.44    5.07   0
  -2 -10   0   17.39    4.37   0
   2 -10   0    6.80    4.23   0
   2 -10   0    0.63    5.38   0
  -2  10   0    3.14    4.16   0
  -3  10   0   21.81    4.51   0
   3 -10   0   32.84    5.07   0
   3 -10   0   28.68    4.61   0
  -3 -10   0    2.27    4.51   0
  -4  10   0   12.67    4.34   0
  -4 -10   0   14.83    4.38   0
  -4 -10   0   -1.08    4.35   0
   4 -10   0    7.16    4.45   0
   4 -10   0    9.55    4.84   0
  -5 -10   0    1.56    4.59   0
   5 -10   0    1.63    4.99   0
   5 -10   0    3.37    4.14   0
  -5 -10   0    5.68    4.46   0
 -13   0   1    1.26    3.81   0
  13   0  -1   -0.60    3.85   0
  11   0  -1  148.51    4.80   0
 -11   0   1  170.68    4.59   0
  -9   0   1  217.05    4.42   0
   9   0  -1  200.88    4.40   0
  -7   0   1  551.30    6.37   0
   7   0  -1  528.40    6.28   0
  -5   0   1   15.79    3.25   0
   5   0  -1   14.48    3.26   0
   3   0  -1 1520.04   13.91   0
  -3   0   1 1494.38   13.99   0
  -3   0  -1   19.02    3.56   0
   3   0   1   22.44    3.67   0
  -5   0  -1  701.07    7.91   0
   5   0   1  670.13    7.83   0
   7   0   1    2.06    2.55   0
  -7   0  -1   -1.90    2.61   0
  -9   0  -1    3.93    3.14   0
   9   0   1    3.23    2.77   0
  11   0   1  115.24    4.56   0
 -11   0  -1  128.20    4.10   0
  13   0   1   55.10    5.00   0
 -13   0  -1   97.60    5.07   0
  13  -1  -1    9.53    4.29   0
 -13  -1   1   20.48    4.34   0
 -13   1   1   13.50    4.30   0
  13   1  -1   10.17    4.45   0
 -12  -1   1    1.55    3.70   0
  12   1  -1    0.15    3.42   0
 -12   1   1    1.57    3.58   0
  12  -1  -1   -0.82    3.60   0
 -11   1   1   -2.89    3.42   0
  11  -1  -1    0.57    3.44   0
 -11  -1   1    1.43    3.36   0
  11   1  -1    1.26    3.48   0
  10  -1  -1    6.37    3.20   0
 -10   1   1    1.63    3.21   0
 -10  -1   1    1.29    2.79   0
  10   1  -1   -2.32    3.23   0
  -9   1   1   51.48    3.41   0
   9   1  -1   49.48    3.42   0
   9  -1  -1   52.51    3.31   0
  -9  -1   1   56.37    3.32   0
   8   1  -1   69.82    3.65   0
  -8   1   1   87.47    3.60   0
  -8  -1   1   75.48    3.58   0
   8  -1  -1   62.41    3.47   0
   7   1  -1   39.41    3.14   0
  -7  -1   1   50.68    2.99   0
  -7   1   1   42.41    3.16   0
   7  -1  -1   43.31    3.13   0
  -6  -1   1  205.72    4.74   0
  -6   1   1  210.52    4.64   0
   6   1  -1  197.13    4.79   0
   6  -1  -1  202.62    4.62   0
  -5   1   1   11.97    2.99   0
  -5  -1   1    6.41    3.17   0
   5  -1  -1    7.65    3.05   0
   5   1  -1    7.01    3.19   0
   4  -1  -1  267.77    5.75   0
  -4   1   1  271.55    5.80   0
   4   1  -1  261.34    6.04   0
  -4  -1   1  272.12    6.08   0
   3   1  -1  164.99    5.57   0
   3  -1  -1  162.84    5.39   0
  -3  -1   1  172.65    5.61   0
  -3   1   1  161.58    5.38   0
  -2  -1   1  653.32   11.06   0
   2  -1  -1  637.88   10.63   0
   2   1  -1  651.60   11.08   0
  -2   1   1  644.45   10.74   0
  -1   1   1  382.55   10.59   0
   1   1  -1  395.40   19.57   0
  -1  -1   1  361.21   18.65   0
  -1  -1  -1    0.97    3.97   0
   1   1   1    0.69    3.79   0
   1  -1   1    0.28    3.49   0
  -1   1  -1    0.50    3.56   0
  -2  -1  -1 5320.61   30.24   0
  -2   1  -1 5499.55   28.38   0
   2  -1   1 5233.53   28.04   0
   2   1   1 5341.22   30.06   0
   3  -1   1  396.88    7.28   0
  -3  -1  -1  399.57    7.69   0
   3   1   1  401.58    7.68   0
  -3   1  -1  401.34    7.39   0
  -4   1  -1 1458.00   11.76   0
  -4  -1  -1 1503.84   12.11   0
   4  -1   1 1466.08   11.61   0
   4   1   1 1419.93   11.82   0
  -5  -1  -1  207.88    5.04   0
   5  -1   1  198.03    4.88   0
   5   1   1  197.69    5.06   0
  -5   1  -1  220.66    5.02   0
  -6   1  -1  243.69    4.90   0
   6   1   1  249.09    5.16   0
  -6  -1  -1  245.68    4.99   0
   6  -1   1  226.00    4.71   0
  -7   1  -1  126.62    3.65   0
  -7  -1  -1  127.96    3.86   0
   7  -1   1  121.76    3.69   0
   7   1   1  119.50    3.98   0
   8  -1   1   99.33    3.75   0
  -8  -1  -1  111.92    4.05   0
  -8   1  -1  107.65    3.81   0
   8   1   1  107.94    4.13   0
   9   1   1    1.42    3.17   0
  -9   1  -1    2.28    2.76   0
   9  -1   1    2.99    2.58   0
  -9  -1  -1    6.27    3.08   0
 -10   1  -1  105.42    4.06   0
 -10  -1  -1  109.66    4.19   0
  10   1   1   92.11    3.73   0
  10  -1   1   93.16    3.96   0
 -11  -1  -1   38.16    3.70   0
  11   1   1   31.97    3.75   0
 -11   1  -1   42.01    3.74   0
  11  -1   1   32.82    3.79   0
 -12  -1  -1   53.86    4.45   0
 -12   1  -1   59.93    4.06   0
  12  -1   1   50.26    4.17   0
  12   1   1   39.60    4.39   0
 -13  -1  -1    2.23    4.06   0
  13   1   1   -1.04    4.23   0
 -13   1  -1    3.37    3.51   0
  13  -1   1    0.46    3.92   0
  13  -2  -1    4.24    4.24   0
 -13   2   1   10.70    4.29   0
  13   2  -1    8.61    4.38   0
 -13  -2   1   10.97    4.61   0
  12  -2  -1    4.84    3.77   0
 -12  -2   1    1.44    4.15   0
  12   2  -1    0.10    3.98   0
 -12   2   1    5.17    4.14   0
 -11  -2   1   18.39    3.79   0
 -11   2   1   17.60    3.48   0
  11  -2  -1   19.52    3.46   0
  11   2  -1   20.60    3.65   0
 -10   2   1    9.67    3.17   0
 -10  -2   1    7.53    3.14   0
  10  -2  -1   14.68    3.19   0
  10   2  -1    8.29    3.47   0
  -9   2   1  345.97    5.54   0
   9   2  -1  351.90    5.77   0
   9  -2  -1  320.18    5.45   0
  -9  -2   1  372.90    5.81   0
  -8  -2   1   46.42    3.52   0
   8  -2  -1   45.89    3.34   0
  -8   2   1   43.25    3.38   0
   8   2  -1   43.62    3.54   0
  -7  -2   1   75.40    3.64   0
   7   2  -1   76.87    3.76   0
  -7   2   1   71.06    3.53   0
   7  -2  -1   67.04    3.34   0
   6   2  -1    1.74    3.15   0
   6  -2  -1    4.02    2.82   0
  -6   2   1    3.62    2.87   0
  -6  -2   1    3.39    2.93   0
   5  -2  -1   36.10    3.52   0
  -5  -2   1   34.52    3.44   0
   5   2  -1   31.94    3.52   0
  -5   2   1   32.93    3.50   0
  -4   2   1   17.16    3.60   0
   4   2  -1   19.57    3.42   0
  -4  -2   1   14.17    3.48   0
   4  -2  -1   16.94    3.54   0
   3  -2  -1  106.48    5.12   0
  -3   2   1   93.98    4.41   0
  -3  -2   1  101.45    4.68   0
   2  -2  -1  825.31   10.63   0
   2   2  -1  844.26   18.51   0
  -2   2   1  809.37   10.71   0
  -1  -2   1   51.75    6.52   0
  -1  -2   1   51.97    4.68   0
  -1   2   1   51.99    4.75   0
   1  -2  -1   50.78    4.48   0
   0  -2   1 2812.29   21.00   0
   0   2   1 2882.23   23.40   0
   0  -2  -1 2794.98   23.88   0
   0  -2  -1 2936.27   23.55   0
   0   2  -1 2794.99   21.30   0
   1  -2   1 3260.03   21.38   0
  -1   2  -1 3217.71   21.40   0
  -1  -2  -1 3185.41   26.86   0
   1   2   1 3309.85   27.80   0
  -1  -2  -1 3285.61   23.87   0
   2  -2   1 1733.18   14.44   0
   2   2   1 1755.62   20.65   0
  -2  -2  -1 1744.22   15.89   0
  -2   2  -1 1680.54   14.56   0
   3   2   1  633.35    9.01   0
  -3   2  -1  618.63    8.23   0
   3  -2   1  631.64    8.24   0
  -3  -2  -1  652.67    9.15   0
  -4   2  -1 1325.95   10.92   0
   4   2   1 1384.66   11.74   0
  -4  -2  -1 1414.19   11.77   0
   4  -2   1 1334.07   10.84   0
  -5  -2  -1    8.53    3.32   0
  -5   2  -1    5.44    2.99   0
   5   2   1    6.23    3.43   0
   5  -2   1    6.70    2.96   0
  -6   2  -1   17.77    2.84   0
  -6  -2  -1   20.87    3.20   0
   6   2   1   20.73    3.21   0
   6  -2   1   20.25    2.86   0
  -7  -2  -1  230.43    4.75   0
   7  -2   1  202.09    4.33   0
   7   2   1  198.01    4.73   0
  -7   2  -1  211.99    4.44   0
   8  -2   1   29.86    3.09   0
   8   2   1   24.87    3.35   0
  -8  -2  -1   32.39    3.32   0
  -8   2  -1   29.09    3.16   0
   9  -2   1  140.19    3.96   0
  -9   2  -1  157.10    4.37   0
  -9  -2  -1  159.32    4.72   0
   9   2   1  148.17    4.76   0
 -10  -2  -1   41.19    3.41   0
 -10   2  -1   42.95    3.67   0
  10  -2   1   38.43    3.65   0
  10   2   1   36.73    3.77   0
  11   2   1   -0.79    3.72   0
  11  -2   1    7.58    3.35   0
 -11  -2  -1   -4.83    3.70   0
 -11   2  -1    2.19    3.46   0
  12  -2   1   -3.28    3.73   0
 -12  -2  -1   -0.84    3.54   0
  12   2   1    2.73    4.10   0
 -12   2  -1    3.20    3.68   0
  13   2   1    2.30    4.36   0
  13  -2   1    2.00    4.09   0
 -13   2  -1    1.28    3.71   0
 -13  -2  -1   -2.04    4.39   0
 -12   3   1    5.49    3.84   0
  12  -3  -1    4.51    3.83   0
 -12  -3   1    5.93    3.54   0
  11   3  -1   22.14    4.03   0
  11  -3  -1   23.40    3.85   0
 -11  -3   1   24.12    3.80   0
 -11   3   1   18.02    3.92   0
 -10   3   1    1.21    3.27   0
 -10  -3   1    1.07    3.05   0
  10  -3  -1   -3.78    3.37   0
  10   3  -1    2.95    3.13   0
  -9  -3   1  148.99    4.45   0
  -9   3   1  131.90    4.38   0
   9  -3  -1  141.60    4.10   0
   9   3  -1  132.38    4.47   0
   8   3  -1  113.04    4.19   0
  -8   3   1  121.28    4.04   0
   8  -3  -1  119.82    4.02   0
  -8  -3   1  114.48    4.37   0
  -7   3   1  100.24    3.74   0
   7  -3  -1   92.73    3.74   0
  -7  -3   1  102.33    4.05   0
  -6   3   1    0.43    2.76   0
   6  -3  -1    2.06    2.70   0
  -6  -3   1    2.98    2.82   0
  -5  -3   1    6.36    3.13   0
  -5   3   1    6.51    2.96   0
   5  -3  -1    8.82    2.94   0
   5   3  -1    5.89    4.08   0
  -4   3   1  908.21    8.91   0
   4  -3  -1  909.82    8.90   0
   4   3  -1  910.00   15.28   0
  -4  -3   1  912.40    9.12   0
   3   3  -1  396.41   10.80   0
  -3   3   1  379.30    7.00   0
  -3  -3   1  394.07    6.87   0
   3  -3  -1  393.01    6.76   0
   2  -3  -1  149.80    5.02   0
  -2  -3   1  148.01    7.28   0
  -2   3   1  152.29    5.09   0
  -2  -3   1  154.31    5.15   0
   2   3  -1  146.68    8.09   0
   1  -3  -1 1395.49   14.41   0
  -1  -3   1 1347.25   15.85   0
  -1   3   1 1380.22   13.15   0
   1  -3  -1 1330.58   12.65   0
  -1  -3   1 1402.60   12.58   0
   0   3  -1  175.78    5.63   0
   0  -3  -1  158.28    5.85   0
   0  -3   1  161.07    7.01   0
   0  -3  -1  156.11    6.06   0
   0   3   1  152.92    5.43   0
   0  -3   1  163.74    5.38   0
  -1  -3  -1   93.24    4.53   0
  -1  -3  -1   89.58    5.10   0
   1   3   1  100.01    6.09   0
   1  -3   1   97.24    4.44   0
  -1   3  -1   96.74    4.62   0
   2  -3   1  594.09    8.07   0
  -2   3  -1  625.40    8.28   0
  -2  -3  -1  593.40   10.26   0
   2   3   1  632.70   11.35   0
  -3   3  -1  262.68    5.62   0
  -3  -3  -1  267.45    6.11   0
   3  -3   1  255.71    5.60   0
   3   3   1  258.64    8.01   0
  -4   3  -1  541.97    6.97   0
  -4  -3  -1  535.98    7.37   0
   4   3   1  533.62   10.25   0
   4  -3   1  542.82    7.04   0
   5  -3   1   49.02    3.38   0
  -5   3  -1   52.61    3.42   0
  -5  -3  -1   46.88    3.55   0
  -6  -3  -1  229.62    4.87   0
   6  -3   1  215.71    4.69   0
  -6   3  -1  236.33    4.79   0
  -7  -3  -1   63.06    3.82   0
   7  -3   1   62.50    3.43   0
   7   3   1   58.68    3.75   0
  -7   3  -1   69.07    3.57   0
  -8  -3  -1  152.34    4.52   0
   8  -3   1  139.83    4.12   0
   8   3   1  137.50    4.52   0
  -8   3  -1  154.17    4.28   0
   9  -3   1    2.34    2.76   0
   9   3   1   -1.55    3.56   0
  -9   3  -1    1.35    2.75   0
  -9  -3  -1    0.19    3.51   0
  10   3   1   42.72    3.81   0
  10  -3   1   39.35    3.50   0
 -10   3  -1   49.18    3.38   0
 -10  -3  -1   50.97    3.78   0
 -11   3  -1    6.00    3.47   0
  11   3   1    1.50    3.39   0
  11  -3   1    2.38    3.54   0
 -11  -3  -1   -0.58    3.78   0
  12  -3   1   -0.23    3.85   0
 -12   3  -1    2.00    3.92   0
 -12  -3  -1    0.18    4.14   0
  12   3   1   -2.73    4.02   0
 -12  -4   1   11.26    4.11   0
  12   4  -1    3.12    6.79   0
 -12   4   1    5.09    4.16   0
  12  -4  -1    3.38    3.54   0
 -11   4   1   26.54    4.07   0
 -11  -4   1   29.29    4.36   0
  11  -4  -1   22.40    4.06   0
  10  -4  -1   93.72    4.06   0
 -10  -4   1   91.60    3.94   0
 -10   4   1   96.86    4.38   0
   9  -4  -1   10.31    3.35   0
  -9  -4   1   11.66    3.58   0
   9   4  -1   11.48    5.56   0
  -9   4   1   14.10    3.44   0
   8   4  -1   35.96    5.56   0
  -8   4   1   33.27    3.73   0
  -8  -4   1   36.08    3.82   0
   8  -4  -1   39.76    3.73   0
  -7  -4   1   42.66    3.57   0
   7   4  -1   38.22    5.77   0
  -7   4   1   44.81    3.62   0
   7  -4  -1   34.50    3.47   0
  -6   4   1  659.69    7.26   0
   6   4  -1  631.69   12.56   0
  -6  -4   1  672.87    7.17   0
   6  -4  -1  627.09    7.02   0
   5  -4  -1    5.30    2.93   0
  -5   4   1    4.47    2.93   0
   5   4  -1    6.16    5.12   0
  -5  -4   1    7.39    3.04   0
  -4   4   1    5.19    3.13   0
   4  -4  -1    0.09    3.13   0
  -4  -4   1   -1.77    3.00   0
   4   4  -1    1.23    4.92   0
   3  -4  -1  625.49    7.59   0
  -3  -4   1  617.34    7.56   0
   3   4  -1  615.15   12.20   0
  -3   4   1  626.05    7.81   0
  -2  -4   1   91.87    5.71   0
  -2   4   1   97.37    4.39   0
  -2  -4   1   98.70    4.35   0
   2  -4  -1  100.60    4.38   0
   1  -4  -1  125.61    4.86   0
  -1  -4   1  113.62    5.74   0
  -1   4   1  118.83    4.66   0
   1  -4  -1  123.82    5.93   0
  -1  -4   1  122.98    4.64   0
   0   4   1  220.29    5.59   0
   0  -4   1  231.63    6.66   0
   0   4  -1  221.50    5.82   0
   0  -4  -1  217.80    6.20   0
   0  -4  -1  237.32    6.05   0
   0  -4   1  233.06    5.67   0
  -1   4  -1   13.77    3.46   0
  -1  -4  -1   16.90    3.63   0
  -1  -4  -1   11.92    4.32   0
   1  -4   1   18.99    3.52   0
  -2   4  -1  224.51    5.27   0
  -2  -4  -1  227.85    6.26   0
  -2  -4  -1  229.98    5.72   0
   2   4   1  227.83    7.77   0
   2  -4   1  236.12    5.28   0
  -3  -4  -1  151.61    4.77   0
  -3   4  -1  149.44    4.37   0
   3  -4   1  157.25    4.37   0
   3   4   1  147.82    6.83   0
  -3  -4  -1  156.61    4.82   0
   4  -4   1   41.40    3.26   0
  -4  -4  -1   37.84    3.62   0
   4   4   1   40.64    4.96   0
  -4   4  -1   41.35    3.23   0
   5   4   1    3.18    4.04   0
   5  -4   1    1.84    2.67   0
  -5  -4  -1    6.19    3.10   0
  -5   4  -1    5.97    2.78   0
  -6  -4  -1   87.25    4.17   0
   6   4   1   81.98    5.46   0
  -6   4  -1   81.25    4.06   0
   6  -4   1   83.08    3.71   0
  -7  -4  -1  597.95    7.22   0
   7  -4   1  531.10    6.54   0
   7   4   1  549.48   10.62   0
  -7   4  -1  561.78    6.53   0
   8   4   1   15.25    4.39   0
  -8   4  -1    9.53    3.40   0
   8  -4   1   10.42    3.37   0
  -8  -4  -1   14.71    3.74   0
  -9  -4  -1    3.74    3.65   0
   9  -4   1    4.38    3.34   0
  -9   4  -1    3.23    3.39   0
 -10   4  -1   -1.30    3.51   0
 -10  -4  -1   -0.66    3.73   0
  10  -4   1   -0.12    3.43   0
 -11  -4  -1   -3.68    4.07   0
 -11   4  -1    1.34    3.92   0
  11  -4   1   -1.00    3.82   0
  12  -4   1    0.76    4.15   0
 -12   4  -1   14.36    4.25   0
 -12  -4  -1   13.28    4.41   0
 -11  -5   1   37.07    4.31   0
  11  -5  -1    3.88    4.27   0
  11   5  -1   23.78    9.64   0
 -11   5   1   33.83    4.47   0
 -10   5   1    6.04    4.03   0
  10   5  -1    5.62    7.35   0
 -10  -5   1    1.80    3.88   0
  10  -5  -1    6.26    3.83   0
   9  -5  -1   19.40    3.81   0
   9   5  -1   17.31    6.79   0
  -9  -5   1   18.06    3.70   0
  -9   5   1   20.32    3.88   0
   8   5  -1   39.08    7.35   0
   8  -5  -1   41.52    3.82   0
  -8  -5   1   39.29    3.89   0
  -8   5   1   46.75    3.94   0
   7   5  -1   -1.51    6.30   0
  -7  -5   1   -2.33    3.74   0
   7  -5  -1    2.74    3.58   0
  -7   5   1    2.83    3.54   0
   6  -5  -1   10.56    3.73   0
  -6  -5   1    6.56    3.55   0
  -6   5   1    8.80    3.54   0
   6   5  -1   11.92    7.05   0
  -5   5   1   47.94    4.06   0
  -5  -5   1   51.58    4.01   0
   5   5  -1   43.12    6.50   0
   5  -5  -1   46.59    3.87   0
  -4  -5   1   50.83    3.56   0
  -4  -5   1   48.94    3.63   0
  -4   5   1   52.91    3.67   0
   4  -5  -1   51.26    3.58   0
  -3   5   1    9.37    3.24   0
   3  -5  -1    8.05    3.68   0
  -3  -5   1    6.70    3.28   0
  -3  -5   1    8.91    3.80   0
   2  -5  -1  225.89    6.16   0
  -2  -5   1  232.81    5.19   0
  -2   5   1  215.16    5.14   0
  -2  -5   1  218.97    6.04   0
   2  -5  -1  228.60    5.18   0
  -1   5   1  299.24    6.14   0
   1  -5  -1  313.26    6.21   0
  -1  -5   1  304.99    5.70   0
   1  -5  -1  295.86    6.69   0
  -1  -5   1  296.96    7.24   0
   0   5  -1    6.86    3.37   0
   0  -5  -1    3.11    4.19   0
   0  -5   1    7.95    3.71   0
   0   5   1    9.07    3.94   0
   0  -5  -1    6.58    3.44   0
   0  -5   1   11.33    4.69   0
   1  -5   1    5.01    4.78   0
  -1  -5  -1   -1.45    4.59   0
  -1   5  -1    4.24    3.25   0
   1  -5   1    2.28    3.01   0
  -1  -5  -1    3.05    3.38   0
  -2  -5  -1   12.50    3.50   0
  -2   5  -1    8.64    3.27   0
  -2  -5  -1   10.93    4.01   0
   2  -5   1   14.98    3.21   0
  -3   5  -1   76.81    3.79   0
  -3  -5  -1   80.72    4.11   0
   3   5   1   73.63    6.36   0
   3  -5   1   76.54    3.75   0
  -4  -5  -1   23.93    3.61   0
   4   5   1   19.82    5.19   0
  -4  -5  -1   19.19    3.59   0
   4  -5   1   18.66    3.35   0
  -4   5  -1   17.40    3.43   0
  -5   5  -1  276.92    5.39   0
   5  -5   1  302.16    5.44   0
   5   5   1  263.34    8.29   0
  -5  -5  -1  301.73    5.99   0
  -6  -5  -1  416.45    6.25   0
   6  -5   1  398.80    5.81   0
   6   5   1  381.75    9.69   0
  -6   5  -1  410.93    6.11   0
  -7  -5  -1   58.01    3.90   0
  -7   5  -1   51.24    3.72   0
   7  -5   1   51.96    3.82   0
   7   5   1   54.22    5.97   0
  -8  -5  -1  288.18    5.81   0
   8   5   1  262.53    9.00   0
  -8   5  -1  278.89    5.42   0
   8  -5   1  259.99    5.26   0
  -9   5  -1    2.67    3.24   0
  -9  -5  -1   -0.02    3.82   0
   9  -5   1   -2.00    3.23   0
   9   5   1    0.85    5.20   0
 -10  -5  -1    2.68    4.04   0
  10   5   1    2.71    5.76   0
  10  -5   1    5.28    3.71   0
 -10   5  -1    3.23    3.52   0
  11  -5   1    2.35    3.99   0
 -11   5  -1    2.59    3.86   0
 -11  -5  -1    2.65    4.21   0
  11   5   1   -0.32    6.45   0
 -11   6   1    2.85    4.68   0
  11  -6  -1    7.52    4.56   0
 -11  -6   1    2.35    4.63   0
 -10   6   1    1.69    4.09   0
  10  -6  -1    2.56    4.05   0
 -10  -6   1    0.59    4.09   0
  -9   6   1    9.26    3.86   0
   9  -6  -1    6.90    3.82   0
  -9  -6   1    6.16    3.94   0
  -8   6   1    3.19    4.09   0
   8  -6  -1    3.53    3.81   0
  -8  -6   1    6.12    3.91   0
   7  -6  -1   17.25    3.76   0
  -7  -6   1   20.89    3.86   0
  -7   6   1   20.92    3.80   0
  -6  -6   1   -1.34    3.73   0
  -6   6   1    0.55    3.39   0
  -6  -6   1   -4.71    3.73   0
   6  -6  -1   -0.28    3.58   0
  -5  -6   1   15.20    3.82   0
  -5  -6   1   16.62    3.72   0
   5  -6  -1   15.91    3.52   0
  -5   6   1   14.87    3.59   0
   4  -6  -1    5.74    3.90   0
  -4  -6   1    4.29    3.69   0
   4  -6  -1   14.90    4.84   0
  -4  -6   1    8.49    3.89   0
  -4   6   1    4.44    3.62   0
   3  -6  -1  143.23    5.47   0
  -3  -6   1  136.67    4.76   0
   3  -6  -1  123.55    4.47   0
  -3   6   1  123.47    4.89   0
  -3  -6   1  116.26    5.32   0
  -2  -6   1  349.72    5.95   0
  -2   6   1  344.58    5.91   0
  -2  -6   1  328.73    6.98   0
   2  -6  -1  344.64    6.20   0
   2  -6  -1  350.48    7.09   0
  -1  -6   1   28.54    4.03   0
  -1  -6   1   39.87    3.69   0
   1  -6  -1   41.28    5.36   0
   1  -6  -1   36.82    4.11   0
  -1   6   1   33.61    4.11   0
   0  -6   1  228.18    5.42   0
   0  -6  -1  225.91    5.97   0
   0   6  -1  228.57    5.16   0
   0  -6   1  227.33    6.10   0
   0  -6  -1  229.66    5.36   0
   0   6   1  225.11    5.70   0
  -1  -6  -1  102.95    4.85   0
  -1   6  -1  109.72    4.26   0
   1  -6   1  113.28    4.21   0
   1  -6   1  105.53    6.12   0
  -1  -6  -1  116.03    4.43   0
  -2   6  -1   19.12    3.49   0
  -2  -6  -1   12.95    4.01   0
   2  -6   1   14.27    3.47   0
  -2  -6  -1   14.71    3.58   0
   2  -6   1   10.25    5.09   0
  -3  -6  -1    5.48    4.10   0
  -3   6  -1    6.35    3.65   0
   3  -6   1    7.28    3.56   0
  -3  -6  -1    4.69    3.45   0
  -4  -6  -1   35.26    4.02   0
  -4  -6  -1   32.14    3.80   0
  -4   6  -1   39.69    3.80   0
   4  -6   1   37.27    3.93   0
  -5  -6  -1  112.63    4.77   0
  -5  -6  -1  109.91    4.61   0
   5   6   1   98.42    7.78   0
   5  -6   1  112.36    4.40   0
  -5   6  -1  119.84    4.39   0
  -6  -6  -1  281.46    6.12   0
   6   6   1  267.47    8.93   0
   6  -6   1  259.23    5.47   0
  -6   6  -1  290.77    5.58   0
  -6  -6  -1  301.89    5.85   0
  -7  -6  -1   78.12    4.39   0
   7  -6   1   94.66    4.15   0
   7   6   1   71.60    7.05   0
  -7   6  -1   90.16    4.20   0
   8  -6   1   37.64    3.92   0
   8   6   1   30.42    7.13   0
  -8   6  -1   34.11    4.15   0
  -8  -6  -1   36.07    4.31   0
  -9   6  -1    2.95    3.89   0
   9  -6   1    7.97    3.89   0
   9   6   1    2.46    6.60   0
  -9  -6  -1    1.71    3.92   0
 -10   6  -1    6.06    4.30   0
  10  -6   1    1.80    4.18   0
 -10  -6  -1    1.89    4.10   0
  10   6   1    3.28    8.32   0
 -11  -6  -1   -0.69    4.41   0
  10  -7  -1    3.98    4.24   0
 -10  -7   1    2.38    4.40   0
  10  -7  -1    3.21    4.51   0
 -10   7   1    8.57    4.38   0
  -9  -7   1    2.95    4.32   0
   9  -7  -1    2.50    4.12   0
  -9   7   1    4.75    4.19   0
  -9  -7   1    9.20    4.09   0
   9  -7  -1    4.79    4.72   0
  -8  -7   1   26.80    4.25   0
   8  -7  -1   15.21    4.33   0
  -8   7   1   16.72    4.04   0
  -8  -7   1   21.75    4.00   0
   8  -7  -1   24.53    4.01   0
   7  -7  -1    0.01    3.94   0
  -7  -7   1    2.45    3.66   0
   7  -7  -1    2.21    4.25   0
  -7  -7   1    2.66    3.82   0
  -7   7   1   -1.81    3.94   0
  -6   7   1    7.67    3.67   0
   6  -7  -1   10.69    3.57   0
  -6  -7   1    6.87    3.83   0
  -6  -7   1    3.99    3.81   0
   6  -7  -1    1.49    4.25   0
  -5   7   1    3.15    3.53   0
  -5  -7   1    5.03    3.78   0
   5  -7  -1    6.75    3.52   0
  -5  -7   1    3.20    3.80   0
   5  -7  -1    5.43    3.96   0
  -4  -7   1   23.09    3.92   0
  -4   7   1   25.96    3.80   0
  -4  -7   1   18.43    4.02   0
   4  -7  -1   15.62    4.89   0
   4  -7  -1   15.40    3.71   0
  -3  -7   1   12.69    3.65   0
  -3  -7   1    9.57    4.47   0
   3  -7  -1   15.39    4.24   0
  -3   7   1   15.24    3.81   0
   3  -7  -1   14.63    5.16   0
   2  -7  -1   14.34    4.93   0
   2  -7  -1    9.76    3.43   0
  -2  -7   1    4.39    3.64   0
  -2  -7   1   10.92    4.44   0
  -2   7   1    8.23    4.08   0
  -1  -7   1  628.59    7.39   0
   1  -7  -1  629.63    7.49   0
  -1   7   1  595.36    7.42   0
   1  -7  -1  604.74    7.94   0
  -1  -7   1  573.26    8.49   0
   0   7  -1    6.17    3.61   0
   0  -7   1    1.81    3.53   0
   0   7   1    3.97    4.06   0
   0  -7   1    3.86    4.81   0
   0  -7  -1    1.57    3.40   0
   0  -7  -1    5.61    4.08   0
   1  -7   1   37.53    3.96   0
  -1  -7  -1   35.40    4.18   0
   1  -7   1   32.75    4.85   0
  -1   7  -1   37.15    3.87   0
  -1  -7  -1   38.79    4.01   0
  -2  -7  -1   82.78    5.02   0
  -2  -7  -1   83.98    4.22   0
   2  -7   1   82.21    4.37   0
  -2   7  -1   88.85    4.15   0
   2  -7   1   84.67    5.29   0
   3  -7   1   27.99    3.73   0
   3  -7   1   30.36    5.18   0
  -3  -7  -1   25.95    4.21   0
  -3  -7  -1   32.05    4.44   0
  -3   7  -1   24.58    3.77   0
  -4  -7  -1    0.47    3.75   0
   4  -7   1    7.77    4.78   0
   4  -7   1    3.34    3.69   0
  -4   7  -1    0.95    3.58   0
  -4  -7  -1    2.28    3.68   0
  -5  -7  -1  109.83    5.10   0
  -5  -7  -1  116.95    4.68   0
   5  -7   1  110.32    4.56   0
  -5   7  -1  109.43    4.62   0
  -6  -7  -1    6.04    4.14   0
  -6  -7  -1    3.25    3.99   0
   6  -7   1    8.19    3.62   0
  -6   7  -1    3.39    3.85   0
  -7  -7  -1    1.59    4.07   0
   7  -7   1    3.78    3.79   0
  -7   7  -1    5.30    3.97   0
  -7  -7  -1    2.09    4.22   0
   8  -7   1   36.31    4.17   0
  -8   7  -1   36.10    4.31   0
  -8  -7  -1   35.36    4.63   0
  -8  -7  -1   32.22    4.77   0
  -9  -7  -1    0.17    4.18   0
  -9   7  -1    1.52    4.13   0
  -9  -7  -1    6.53    3.82   0
   9  -7   1    4.28    3.98   0
  10  -7   1    2.19    4.58   0
 -10  -7  -1   11.85    4.19   0
 -10   7  -1    6.01    4.72   0
  -8  -8   1   -1.02    4.25   0
  -8  -8   1   -1.25    4.52   0
   8  -8  -1    9.10    4.24   0
   8  -8  -1   -4.13    4.31   0
  -8   8   1    0.92    4.22   0
  -7  -8   1   -6.62    4.05   0
   7  -8  -1    0.00    3.95   0
   7  -8  -1   -3.81    4.78   0
  -7  -8   1   -4.69    4.08   0
  -7   8   1   -0.33    3.86   0
  -6   8   1   -2.15    4.35   0
   6  -8  -1   -0.74    3.80   0
  -6  -8   1    0.45    4.08   0
  -6  -8   1    2.61    4.20   0
   6  -8  -1   -1.01    4.52   0
  -5  -8   1    8.10    4.31   0
  -5   8   1   19.79    4.71   0
  -5  -8   1   21.97    4.28   0
   5  -8  -1   15.41    4.17   0
   5  -8  -1   19.67    4.47   0
  -4   8   1    9.00    3.77   0
   4  -8  -1    6.77    3.66   0
  -4  -8   1   11.87    4.03   0
   4  -8  -1   16.06    4.61   0
  -4  -8   1    6.49    3.87   0
  -3  -8   1   43.46    3.89   0
  -3   8   1   31.63    4.34   0
  -3  -8   1   37.92    4.58   0
   3  -8  -1   29.72    4.77   0
   3  -8  -1   39.03    3.87   0
   2  -8  -1   68.62    4.87   0
  -2  -8   1   66.54    4.21   0
  -2  -8   1   62.44    4.50   0
   2  -8  -1   65.40    4.15   0
  -2   8   1   62.38    4.14   0
  -1  -8   1    1.92    3.65   0
   1  -8  -1    6.67    3.55   0
   1  -8  -1    6.23    4.36   0
  -1  -8   1    6.07    4.30   0
  -1   8   1    5.25    3.54   0
   0  -8   1  257.92    5.62   0
   0  -8  -1  251.62    6.00   0
   0  -8   1  262.45    6.09   0
   0  -8  -1  263.35    5.67   0
   0   8  -1  248.28    5.87   0
   1  -8   1   66.32    4.76   0
   1  -8   1   71.49    4.19   0
  -1  -8  -1   68.29    4.49   0
  -1  -8  -1   70.96    4.42   0
  -1   8  -1   70.58    4.22   0
   2  -8   1    2.60    4.42   0
  -2  -8  -1    4.83    3.57   0
   2  -8   1    5.25    3.54   0
  -2   8  -1    2.64    3.65   0
  -2  -8  -1    2.47    3.40   0
   3  -8   1   14.49    3.66   0
  -3  -8  -1    6.30    3.72   0
   3  -8   1    4.50    4.96   0
  -3   8  -1    7.39    3.69   0
  -3  -8  -1    3.39    3.55   0
  -4  -8  -1   25.83    4.30   0
  -4   8  -1   29.05    4.01   0
   4  -8   1   25.43    4.90   0
   4  -8   1   23.69    4.48   0
  -4  -8  -1   26.58    4.04   0
   5  -8   1   -2.87    4.48   0
  -5  -8  -1   -0.30    4.20   0
  -5  -8  -1    3.58    4.21   0
  -5   8  -1    5.32    4.54   0
   5  -8   1    5.41    3.87   0
  -6   8  -1    5.00    4.00   0
  -6  -8  -1    6.37    3.98   0
   6  -8   1    6.76    3.97   0
   6  -8   1    7.88    4.83   0
  -6  -8  -1    4.25    4.10   0
  -7  -8  -1   23.32    4.36   0
  -7   8  -1   15.06    4.22   0
   7  -8   1   14.95    5.35   0
  -7  -8  -1   15.82    4.31   0
   7  -8   1   16.07    4.16   0
  -8  -8  -1    1.23    4.28   0
   8  -8   1   -3.46    4.21   0
  -8  -8  -1   -1.64    4.45   0
   8  -8   1    1.02    4.69   0
  -8   8  -1   -1.59    4.26   0
  -7  -9   1    4.55    4.40   0
   7  -9  -1    5.02    5.13   0
   7  -9  -1   -0.26    4.78   0
  -7   9   1   -1.13    4.31   0
  -7  -9   1    3.19    4.41   0
   6  -9  -1    9.24    5.01   0
  -6  -9   1   16.94    4.87   0
   6  -9  -1   17.09    4.95   0
  -6   9   1    8.20    4.57   0
  -6  -9   1   18.65    4.48   0
   5  -9  -1   -0.14    4.30   0
   5  -9  -1    2.59    4.69   0
  -5  -9   1    3.18    4.05   0
  -5   9   1    7.33    4.82   0
  -5  -9   1   -1.46    4.33   0
  -4   9   1   40.53    4.33   0
   4  -9  -1   34.48    4.66   0
   4  -9  -1   43.39    4.95   0
  -4  -9   1   39.13    4.38   0
  -4  -9   1   40.53    4.39   0
  -3  -9   1    5.22    4.56   0
  -3   9   1    7.57    4.47   0
   3  -9  -1    2.20    4.54   0
  -3  -9   1    1.46    4.09   0
   3  -9  -1    5.57    3.97   0
  -2  -9   1    5.61    4.21   0
   2  -9  -1   15.13    4.82   0
  -2  -9   1    7.41    4.68   0
  -2   9   1    8.53    3.89   0
   2  -9  -1    8.85    3.79   0
  -1  -9   1  120.46    5.01   0
   1  -9  -1  123.27    5.20   0
   1  -9  -1  112.23    5.37   0
  -1  -9   1  125.94    5.22   0
  -1   9   1  110.49    4.72   0
   0  -9  -1   -1.60    4.04   0
   0  -9   1    3.56    4.16   0
   0  -9  -1   -0.92    4.23   0
   0  -9   1   -0.18    4.24   0
   1  -9   1    0.12    4.04   0
  -1   9  -1    3.49    4.00   0
  -1  -9  -1    0.42    4.10   0
   1  -9   1   -1.47    4.17   0
  -1  -9  -1    0.36    4.21   0
   2  -9   1    6.28    4.48   0
  -2  -9  -1   -0.73    4.02   0
   2  -9   1   -0.99    4.71   0
  -2   9  -1    1.46    3.96   0
  -2  -9  -1    3.94    3.72   0
   3  -9   1   18.52    4.62   0
  -3  -9  -1   19.28    3.99   0
  -3   9  -1   17.55    4.03   0
   3  -9   1   15.17    3.94   0
   4  -9   1   64.03    5.17   0
  -4  -9  -1   55.31    4.58   0
  -4   9  -1   59.92    4.71   0
   4  -9   1   56.94    4.71   0
  -4  -9  -1   51.93    5.00   0
   5  -9   1   -0.90    5.04   0
   5  -9   1   -1.10    4.08   0
  -5   9  -1   -6.49    4.03   0
  -5  -9  -1    1.60    4.30   0
  -5  -9  -1   -0.52    4.51   0
  -6  -9  -1    0.21    4.47   0
   6  -9   1    8.72    4.86   0
  -6  -9  -1    1.10    4.45   0
  -6   9  -1    2.96    4.25   0
   6  -9   1    1.80    4.28   0
  -7  -9  -1    8.78    4.64   0
  -7   9  -1   10.12    4.27   0
   7  -9   1   14.46    4.27   0
  -7  -9  -1    5.20    4.99   0
   7  -9   1    6.35    5.37   0
   5 -10  -1   28.86    5.53   0
   5 -10  -1  -12.77    4.77   0
  -5 -10   1   31.44    4.72   0
   4 -10  -1   -5.06    4.74   0
   4 -10  -1    7.91    4.67   0
  -4 -10   1    1.56    4.37   0
  -4  10   1    0.78    4.33   0
  -4 -10   1   -1.75    4.82   0
   3 -10  -1   -0.54    4.12   0
   3 -10  -1    9.69    5.46   0
  -3  10   1    1.45    4.59   0
  -3 -10   1    0.16    4.45   0
  -2 -10   1   24.30    5.11   0
  -2 -10   1    4.96    5.35   0
   2 -10  -1   19.92    4.38   0
  -2  10   1    4.48    4.85   0
   2 -10  -1   22.41    5.06   0
  -1 -10   1    1.22    5.00   0
   1 -10  -1    3.08    4.68   0
  -1 -10   1    1.96    5.33   0
   1 -10  -1    7.32    3.96   0
   0 -10   1   39.81    5.23   0
   0 -10   1   37.24    4.80   0
   0 -10  -1   42.40    4.42   0
   0 -10  -1   40.58    4.71   0
   1 -10   1    0.67    4.31   0
  -1 -10  -1    4.57    4.58   0
   1 -10   1    4.71    4.10   0
  -1 -10  -1   -2.31    4.02   0
  -2  10  -1   22.98    5.01   0
   2 -10   1   16.69    5.02   0
  -2 -10  -1   16.04    5.67   0
   2 -10   1    5.93    4.69   0
  -2 -10  -1    6.76    4.24   0
   3 -10   1    7.20    4.43   0
   3 -10   1    8.56    4.84   0
  -3  10  -1    6.23    4.53   0
  -3 -10  -1    3.69    4.24   0
  -4 -10  -1   22.78    4.77   0
   4 -10   1   43.82    5.30   0
  -4  10  -1   34.75    5.20   0
  -4 -10  -1   24.93    4.60   0
   4 -10   1   27.16    4.75   0
  -5 -10  -1   37.74    5.40   0
   5 -10   1   32.75    4.59   0
  12   0  -2    1.08    3.60   0
 -12   0   2    3.32    3.63   0
  10   0  -2   15.41    3.30   0
 -10   0   2   20.60    3.13   0
  -8   0   2  170.72    4.23   0
   8   0  -2  152.58    4.14   0
  -6   0   2   68.59    3.55   0
   6   0  -2   61.78    3.52   0
   4   0  -2    5.40    3.21   0
  -4   0   2    0.93    3.23   0
  -2   0   2 3945.39   26.93   0
   2   0  -2 3977.21   26.69   0
  -2   0  -2  277.56    7.82   0
   2   0   2  273.78    7.74   0
  -4   0  -2 2838.16   16.37   0
   4   0   2 2785.67   16.29   0
  -6   0  -2 1727.64   11.22   0
   6   0   2 1664.36   11.14   0
  -8   0  -2  335.95    5.30   0
   8   0   2  333.20    5.30   0
  10   0   2   30.87    3.31   0
 -10   0  -2   27.82    3.39   0
  12   0   2    1.03    3.67   0
 -12   0  -2   -2.19    3.69   0
  13  -1  -2    3.47    3.84   0
 -13   1   2   15.47    4.15   0
  13   1  -2    1.98    4.38   0
 -13  -1   2    7.55    4.17   0
 -12   1   2    6.59    3.74   0
 -12  -1   2   10.04    3.66   0
  12   1  -2   12.33    3.66   0
  12  -1  -2    3.84    3.81   0
 -11  -1   2    6.33    3.31   0
  11  -1  -2   -2.49    3.40   0
  11   1  -2    0.90    3.34   0
 -11   1   2    3.93    3.72   0
 -10   1   2   55.14    3.62   0
  10   1  -2   53.58    3.85   0
 -10  -1   2   64.25    3.53   0
  10  -1  -2   54.76    3.61   0
   9   1  -2   71.16    3.56   0
   9  -1  -2   58.30    3.41   0
  -9  -1   2   63.73    3.31   0
  -9   1   2   69.66    3.51   0
  -8  -1   2   35.11    3.05   0
   8  -1  -2   35.69    3.40   0
   8   1  -2   28.99    3.24   0
  -8   1   2   32.14    3.42   0
   7  -1  -2   79.93    3.34   0
   7   1  -2   76.01    3.38   0
  -7  -1   2   79.40    3.47   0
  -7   1   2   76.34    3.67   0
   6  -1  -2   66.33    3.54   0
  -6   1   2   74.81    3.69   0
   6   1  -2   65.13    3.60   0
  -6  -1   2   64.94    3.59   0
   5  -1  -2    0.83    3.03   0
   5   1  -2    1.78    3.13   0
  -5   1   2    2.93    3.02   0
  -5  -1   2    0.64    3.07   0
   4   1  -2  128.10    4.85   0
  -4   1   2  128.84    4.63   0
  -4  -1   2  136.55    4.93   0
   4  -1  -2  134.53    4.59   0
  -3  -1   2   11.78    3.82   0
   3  -1  -2   10.92    3.44   0
   3   1  -2    9.17    3.89   0
  -3   1   2    5.79    3.35   0
  -2  -1   2 1463.98   15.56   0
   2   1  -2 1456.17   15.64   0
   2  -1  -2 1421.45   15.66   0
  -2   1   2 1438.67   15.90   0
   1  -1  -2 9004.31   50.52   0
  -1   1   2 9035.47   50.77   0
   1  -1  -2 9469.66   50.05   0
   1  -1   2 2848.25   23.70   0
  -1   1  -2 2828.37   23.73   0
   1   1   2 2985.89   30.12   0
   2  -1   2 1057.18   12.66   0
   2   1   2 1079.92   14.17   0
  -2  -1  -2 1078.77   14.05   0
  -2   1  -2 1078.72   12.90   0
  -3   1  -2   20.07    3.48   0
   3   1   2   24.98    3.68   0
  -3  -1  -2   20.98    3.59   0
   3  -1   2   24.85    3.46   0
  -4  -1  -2   11.80    3.32   0
   4  -1   2   14.04    3.40   0
  -4   1  -2   13.45    3.43   0
   4   1   2   11.23    3.51   0
   5   1   2  355.11    6.25   0
   5  -1   2  342.73    5.87   0
  -5  -1  -2  366.18    6.23   0
  -5   1  -2  363.60    5.99   0
  -6  -1  -2  641.51    7.26   0
   6  -1   2  603.53    6.87   0
  -6   1  -2  627.33    7.04   0
   6   1   2  632.01    7.25   0
   7   1   2   18.41    3.20   0
   7  -1   2   18.07    2.83   0
  -7  -1  -2   19.75    3.09   0
  -7   1  -2   20.51    2.80   0
  -8   1  -2   27.80    3.13   0
  -8  -1  -2   25.31    3.30   0
   8   1   2   27.70    3.56   0
   8  -1   2   26.68    3.02   0
   9  -1   2   12.16    2.79   0
  -9   1  -2   11.68    2.66   0
  -9  -1  -2   20.83    3.21   0
   9   1   2   14.34    3.25   0
  10   1   2   21.14    3.56   0
  10  -1   2   25.13    3.38   0
 -10   1  -2   30.82    3.52   0
 -10  -1  -2   30.33    3.57   0
 -11   1  -2   16.31    3.49   0
  11  -1   2    3.06    3.46   0
  11   1   2    9.49    3.56   0
 -11  -1  -2   11.50    3.39   0
 -12   1  -2   36.57    3.74   0
  12  -1   2   27.14    3.76   0
  12   1   2   20.38    4.52   0
 -12  -1  -2   32.98    4.46   0
  13  -1   2   -0.77    4.07   0
 -13  -1  -2   17.77    4.30   0
  13   1   2   10.30    4.40   0
 -13   1  -2   16.95    3.75   0
  13   2  -2    1.74    4.18   0
 -13  -2   2   -0.20    4.14   0
 -13   2   2    6.08    3.72   0
  12  -2  -2   37.09    4.38   0
  12   2  -2   29.45    4.26   0
 -12  -2   2   45.09    4.23   0
 -12   2   2   46.72    4.39   0
 -11   2   2   32.16    3.95   0
  11   2  -2   24.54    3.42   0
 -11  -2   2   35.87    4.05   0
  11  -2  -2   35.08    3.66   0
  10   2  -2    5.94    3.39   0
 -10   2   2   -0.35    3.14   0
  10  -2  -2    4.11    3.22   0
 -10  -2   2    7.91    3.30   0
   9   2  -2   59.19    3.72   0
   9  -2  -2   53.74    3.67   0
  -9  -2   2   54.88    3.65   0
  -9   2   2   61.23    3.42   0
  -8   2   2   14.70    3.14   0
  -8  -2   2   18.77    3.28   0
   8  -2  -2   16.48    3.14   0
   8   2  -2   17.70    3.45   0
  -7   2   2   99.13    3.72   0
   7  -2  -2   90.65    3.59   0
   7   2  -2   89.22    3.64   0
  -7  -2   2   94.97    3.60   0
  -6  -2   2  332.82    5.40   0
  -6   2   2  314.18    5.35   0
   6  -2  -2  313.97    5.30   0
   6   2  -2  291.75    5.28   0
   5  -2  -2  330.51    5.82   0
   5   2  -2  319.19    5.96   0
  -5  -2   2  345.45    5.91   0
  -5   2   2  327.52    5.89   0
  -4  -2   2  556.57    7.55   0
   4  -2  -2  530.86    7.48   0
   4   2  -2  528.28    7.55   0
  -4   2   2  542.28    7.53   0
  -3   2   2 2008.39   14.78   0
   3   2  -2 2047.40   29.60   0
  -3  -2   2 2063.90   14.64   0
   3  -2  -2 2042.22   14.76   0
  -2   2   2 2292.14   17.72   0
   2   2  -2 2354.81   36.27   0
   2  -2  -2 2292.65   17.65   0
  -1  -2   2 1131.28   13.00   0
   1  -2  -2 1141.71   14.41   0
   1  -2  -2 1223.65   15.54   0
  -1   2   2 1104.63   14.44   0
  -1  -2   2 1079.98   20.62   0
   0  -2   2    2.92    4.11   0
   0  -2  -2    4.50    5.00   0
   0   2  -2    6.93    4.01   0
   0  -2  -2    5.01    5.13   0
   0   2   2    2.96    5.10   0
   0   2   2    2.60    6.06   0
   1  -2   2  345.35    7.64   0
   1   2   2  345.08    9.38   0
  -1  -2  -2  334.03    8.83   0
  -1  -2  -2  341.64    8.77   0
  -1   2  -2  344.29    7.61   0
   2   2   2  421.30    9.62   0
  -2  -2  -2  423.05    8.56   0
   2  -2   2  413.36    7.39   0
  -2   2  -2  407.79    7.48   0
   3  -2   2 2311.30   14.79   0
   3   2   2 2376.54   16.57   0
  -3  -2  -2 2472.47   16.79   0
  -3   2  -2 2321.42   14.94   0
   4  -2   2  289.73    5.65   0
  -4  -2  -2  298.05    6.24   0
   4   2   2  297.65    6.32   0
  -4   2  -2  292.53    5.70   0
   5   2   2  140.74    4.65   0
  -5   2  -2  131.59    4.23   0
  -5  -2  -2  150.10    4.58   0
   5  -2   2  133.03    4.15   0
  -6   2  -2  223.86    4.50   0
  -6  -2  -2  233.75    4.93   0
   6  -2   2  208.37    4.51   0
   6   2   2  229.82    5.01   0
  -7  -2  -2  234.06    4.92   0
  -7   2  -2  244.08    4.55   0
   7  -2   2  238.84    4.53   0
   7   2   2  224.02    5.02   0
  -8   2  -2  192.48    4.34   0
  -8  -2  -2  190.31    4.57   0
   8   2   2  169.72    4.62   0
   8  -2   2  160.62    4.17   0
   9  -2   2    9.00    2.66   0
  -9  -2  -2   18.35    3.32   0
  -9   2  -2   16.93    2.82   0
   9   2   2   15.16    3.59   0
 -10   2  -2    0.17    3.23   0
  10   2   2   -4.67    3.51   0
  10  -2   2   -0.09    3.19   0
 -10  -2  -2    9.61    3.33   0
 -11  -2  -2    0.97    3.16   0
  11  -2   2   -1.68    3.36   0
  11   2   2    0.92    3.72   0
 -11   2  -2   -1.10    3.39   0
 -12  -2  -2   -1.14    3.62   0
  12  -2   2    3.80    3.27   0
 -12   2  -2    4.57    3.70   0
  12   2   2   -3.16    4.06   0
  13   2   2   10.84    4.65   0
 -12  -3   2   -2.62    3.80   0
 -12   3   2    2.78    3.92   0
  12  -3  -2    3.64    3.94   0
 -11   3   2   54.94    4.21   0
 -11  -3   2   49.31    4.06   0
  11  -3  -2   51.23    4.11   0
  10  -3  -2  115.99    4.19   0
 -10  -3   2  116.71    3.95   0
  10   3  -2  120.89    4.28   0
 -10   3   2  124.48    4.21   0
  -9  -3   2   49.77    3.66   0
   9   3  -2   49.99    3.76   0
  -9   3   2   47.60    3.86   0
   9  -3  -2   49.95    3.89   0
   8  -3  -2   28.48    3.32   0
  -8  -3   2   21.24    3.39   0
  -8   3   2   34.01    3.42   0
  -7   3   2   16.67    3.12   0
   7  -3  -2   11.06    3.05   0
  -7  -3   2   13.30    2.99   0
  -6   3   2    3.74    2.80   0
  -6  -3   2    3.14    3.11   0
   6  -3  -2    0.70    2.64   0
  -5  -3   2    3.46    3.12   0
   5   3  -2    0.61    4.61   0
   5  -3  -2    2.71    2.85   0
  -5   3   2    1.78    2.95   0
  -4  -3   2  474.49    7.02   0
   4  -3  -2  495.12    7.00   0
  -4   3   2  488.84    7.04   0
   4   3  -2  489.74   13.36   0
  -3  -3   2  251.26    5.79   0
  -3   3   2  246.81    5.85   0
   3   3  -2  247.77   11.00   0
   3  -3  -2  247.64    5.81   0
   2  -3  -2   78.90    4.31   0
  -2   3   2   76.24    4.06   0
  -2  -3   2   71.69    6.33   0
  -2  -3   2   72.85    4.26   0
   1  -3  -2  534.04    9.19   0
   1   3  -2  495.72    7.88   0
  -1  -3   2  520.73    7.92   0
  -1  -3   2  491.96   10.94   0
   1  -3  -2  489.29    8.39   0
  -1   3   2  516.46    9.01   0
   0  -3  -2    3.32    4.29   0
   0  -3   2    6.48    3.48   0
   0  -3  -2    6.27    3.37   0
   0   3   2    6.65    3.40   0
   0   3  -2    7.52    3.26   0
   1   3   2  345.49    8.97   0
  -1  -3  -2  333.51    8.00   0
   1  -3   2  330.20    6.48   0
  -1  -3  -2  335.95    7.38   0
  -1   3  -2  339.16    6.59   0
   2   3   2   71.50    5.62   0
  -2   3  -2   66.32    3.90   0
   2  -3   2   70.61    3.92   0
   3  -3   2   49.97    3.64   0
  -3  -3  -2   54.20    3.74   0
   3   3   2   52.67    4.35   0
  -3   3  -2   58.96    3.94   0
  -4   3  -2  140.94    4.38   0
   4  -3   2  143.71    4.44   0
   4   3   2  143.47    6.16   0
  -4  -3  -2  147.56    4.81   0
  -5   3  -2  293.59    5.25   0
  -5  -3  -2  292.10    5.93   0
   5  -3   2  286.21    5.16   0
   6  -3   2  291.83    5.09   0
  -6  -3  -2  314.96    5.52   0
   6   3   2  302.16    5.72   0
  -6   3  -2  302.17    5.22   0
  -7   3  -2   24.94    3.20   0
   7   3   2   24.55    3.52   0
   7  -3   2   21.99    3.01   0
  -7  -3  -2   22.35    3.35   0
   8  -3   2   68.26    3.49   0
   8   3   2   72.94    4.23   0
  -8  -3  -2   92.70    4.44   0
  -8   3  -2   88.75    3.65   0
   9   3   2    5.84    3.69   0
  -9  -3  -2    8.58    3.58   0
  -9   3  -2    8.60    3.05   0
   9  -3   2    9.66    2.82   0
  10  -3   2   75.30    3.81   0
 -10  -3  -2   84.46    4.15   0
 -10   3  -2   78.32    3.63   0
  10   3   2   67.89    4.10   0
 -11  -3  -2   12.28    3.89   0
  11  -3   2    2.57    3.54   0
 -11   3  -2   15.60    3.81   0
  11   3   2    2.67    4.09   0
  12  -3   2   -0.75    3.85   0
 -12  -3  -2    2.07    4.14   0
  12   3   2   -0.79    3.59   0
 -12   3  -2   -2.07    3.37   0
 -12  -4   2    2.45    4.11   0
  12   4  -2    0.20    7.15   0
 -12   4   2    9.67    4.38   0
  12  -4  -2    3.97    4.00   0
  11   4  -2   10.10    6.65   0
 -11   4   2   19.86    3.86   0
 -11  -4   2   14.66    4.13   0
  11  -4  -2    4.16    3.90   0
  10   4  -2    9.06    5.82   0
 -10   4   2   16.61    3.61   0
 -10  -4   2    1.98    3.25   0
  10  -4  -2   11.67    3.40   0
   9  -4  -2   21.58    3.40   0
  -9   4   2   20.70    3.60   0
  -9  -4   2    3.74    3.61   0
   9   4  -2   21.54    6.11   0
   8   4  -2    0.74    5.45   0
   8  -4  -2    2.60    3.50   0
  -8   4   2   -0.36    3.58   0
  -8  -4   2    0.24    3.33   0
   7   4  -2    9.29    5.46   0
  -7  -4   2    9.62    3.59   0
  -7   4   2    5.82    3.78   0
   7  -4  -2    5.45    3.30   0
   6   4  -2   12.99    6.26   0
  -6   4   2   17.99    3.62   0
  -6  -4   2   16.78    3.20   0
   6  -4  -2   14.29    3.50   0
   5  -4  -2    1.82    2.97   0
  -5   4   2    6.60    3.06   0
  -5  -4   2    3.37    2.90   0
   5   4  -2    5.74    6.40   0
   4   4  -2   99.66    8.34   0
  -4   4   2  100.18    4.06   0
  -4  -4   2   98.52    4.00   0
   4  -4  -2   99.21    4.40   0
   3  -4  -2  158.49    5.16   0
  -3   4   2  163.06    4.76   0
  -3  -4   2  156.07    4.54   0
  -2   4   2   45.29    3.80   0
   2  -4  -2   57.81    5.59   0
  -2  -4   2   42.54    5.09   0
  -2  -4   2   46.31    4.13   0
   2  -4  -2   45.19    4.36   0
  -1  -4   2  116.10    4.66   0
   1  -4  -2  117.56    5.60   0
  -1  -4   2  111.11    5.45   0
   1  -4  -2  107.00    4.94   0
   1   4  -2  118.55    4.67   0
  -1   4   2  112.77    4.65   0
   0  -4  -2    1.00    4.15   0
   0  -4  -2    1.29    2.81   0
   0  -4   2    0.65    3.82   0
   0   4  -2   -1.41    3.49   0
   0   4   2    1.82    3.47   0
   0  -4   2   -0.70    5.25   0
   1  -4   2   31.03    3.68   0
  -1  -4  -2   30.70    3.73   0
  -1   4  -2   31.93    3.72   0
  -1  -4  -2   34.27    3.91   0
   1   4   2   35.77    5.69   0
   2   4   2  380.26    8.20   0
  -2  -4  -2  358.56    7.22   0
  -2  -4  -2  383.74    6.73   0
  -2   4  -2  378.49    6.21   0
   2  -4   2  372.51    6.18   0
  -3  -4  -2  105.80    5.06   0
   3  -4   2   96.86    3.98   0
   3   4   2   93.56    5.96   0
  -3   4  -2   95.76    4.03   0
  -4   4  -2    1.52    2.86   0
   4   4   2    5.58    4.17   0
   4  -4   2    1.28    2.79   0
  -4  -4  -2   -0.03    3.20   0
   5   4   2   24.72    4.38   0
  -5  -4  -2   29.42    3.58   0
  -5   4  -2   28.65    3.13   0
   5  -4   2   26.38    3.01   0
   6  -4   2   37.47    3.29   0
  -6  -4  -2   40.38    4.04   0
   6   4   2   42.16    4.74   0
  -6   4  -2   45.19    3.35   0
   7  -4   2   28.71    3.27   0
  -7   4  -2   29.19    3.37   0
   7   4   2   30.91    5.01   0
  -7  -4  -2   26.51    3.86   0
   8  -4   2   10.20    3.16   0
  -8   4  -2    8.54    3.29   0
  -8  -4  -2    9.22    3.72   0
   8   4   2    8.18    4.07   0
  -9  -4  -2    9.01    3.69   0
   9  -4   2   16.90    3.30   0
  -9   4  -2   15.84    3.18   0
  10  -4   2   61.24    3.68   0
 -10   4  -2   63.31    3.97   0
 -10  -4  -2   65.60    4.31   0
 -11   4  -2   20.88    4.18   0
  11  -4   2   13.34    4.01   0
 -11  -4  -2   16.56    3.77   0
 -12  -4  -2   30.11    4.78   0
  12  -4   2    4.80    4.22   0
 -12   4  -2   13.91    4.34   0
 -11  -5   2   11.82    4.22   0
  11  -5  -2    7.01    4.25   0
 -11   5   2   14.68    4.24   0
  10   5  -2    0.80    9.52   0
 -10   5   2    3.15    4.09   0
 -10  -5   2    2.30    3.80   0
  10  -5  -2    5.97    3.97   0
   9   5  -2   19.28    9.04   0
   9  -5  -2   20.33    3.83   0
  -9   5   2   23.84    3.89   0
  -9  -5   2   20.90    3.42   0
   8   5  -2    9.31    8.40   0
   8  -5  -2   13.19    3.56   0
  -8  -5   2    9.09    3.44   0
  -8   5   2    8.66    3.64   0
   7  -5  -2    3.61    3.42   0
  -7   5   2    1.22    3.43   0
  -7  -5   2    6.31    3.41   0
   7   5  -2    1.27    7.66   0
  -6  -5   2    3.13    3.34   0
   6   5  -2    4.00    7.56   0
  -6   5   2    3.59    3.46   0
   6  -5  -2    5.35    3.38   0
   5  -5  -2  356.73    6.20   0
  -5   5   2  365.80    6.40   0
  -5  -5   2  372.88    5.84   0
  -4  -5   2  746.04    7.83   0
  -4  -5   2  742.83    7.69   0
   4  -5  -2  776.73    7.91   0
  -4   5   2  774.80    7.91   0
  -3  -5   2   -0.73    3.75   0
  -3  -5   2    0.89    3.18   0
  -3   5   2   -1.11    3.39   0
   3  -5  -2    2.28    5.44   0
   3  -5  -2    2.15    3.25   0
  -2  -5   2    4.20    4.04   0
   2  -5  -2    5.86    3.30   0
  -2  -5   2    2.59    3.16   0
   2  -5  -2    1.09    4.90   0
  -2   5   2    0.28    3.90   0
   1  -5  -2   90.21    4.66   0
   1   5  -2  100.19    4.28   0
  -1  -5   2   90.50    5.09   0
  -1   5   2   89.07    4.38   0
   1  -5  -2   89.17    4.92   0
  -1  -5   2   91.99    4.00   0
   0  -5  -2    1.08    3.91   0
   0  -5  -2    1.10    3.47   0
   0   5   2    3.31    4.02   0
   0   5  -2   -0.26    3.14   0
   0  -5   2   -2.46    5.50   0
   0  -5   2    1.70    3.11   0
  -1   5  -2  579.34    7.05   0
  -1  -5  -2  574.49    8.52   0
   1  -5   2  569.68    6.91   0
  -1  -5  -2  580.80    8.00   0
  -2  -5  -2    2.84    3.86   0
  -2   5  -2    3.93    2.98   0
   2  -5   2    3.27    2.93   0
  -2  -5  -2    6.08    3.57   0
  -3   5  -2   97.40    3.89   0
  -3  -5  -2  103.72    4.88   0
   3   5   2  105.93    6.13   0
   3  -5   2   94.30    3.73   0
  -4   5  -2   57.99    3.50   0
  -4  -5  -2   60.74    4.31   0
   4  -5   2   54.92    3.65   0
   4   5   2   53.72    5.36   0
  -4  -5  -2   62.30    4.01   0
  -5  -5  -2  521.32    7.30   0
   5   5   2  496.68    9.67   0
   5  -5   2  515.55    6.40   0
  -5   5  -2  543.01    6.44   0
  -6   5  -2   99.27    4.03   0
  -6  -5  -2  102.95    4.41   0
   6   5   2   95.57    6.42   0
   6  -5   2  102.22    3.92   0
  -7  -5  -2   44.44    3.83   0
  -7   5  -2   48.57    3.67   0
   7  -5   2   45.40    3.76   0
   7   5   2   44.17    5.26   0
   8  -5   2   36.30    3.57   0
  -8   5  -2   43.64    3.76   0
  -8  -5  -2   41.54    4.10   0
   8   5   2   36.56    5.61   0
   9  -5   2   35.09    3.55   0
  -9  -5  -2   33.97    4.24   0
  -9   5  -2   40.19    3.64   0
   9   5   2   35.12    5.89   0
  10  -5   2   -4.79    3.73   0
 -10  -5  -2   -0.55    4.25   0
 -10   5  -2    4.76    3.82   0
  10   5   2   -0.64    5.16   0
 -11  -5  -2   10.10    4.38   0
  11  -5   2    9.52    3.98   0
  11   5   2    9.22    6.43   0
 -11   5  -2   18.04    3.94   0
 -11  -6   2   26.61    4.70   0
  11  -6  -2   15.17    4.66   0
  10  -6  -2   23.49    4.31   0
 -10  -6   2   20.99    4.29   0
 -10   6   2   38.26    4.46   0
   9  -6  -2   88.12    4.65   0
  -9  -6   2   97.13    4.83   0
  -9   6   2  101.55    4.76   0
  -8  -6   2    2.63    3.76   0
  -8   6   2    7.78    3.64   0
   8  -6  -2    3.92    3.75   0
  -7   6   2   88.68    4.47   0
  -7  -6   2   92.30    4.29   0
   7  -6  -2   87.98    4.43   0
  -6  -6   2    2.63    3.66   0
   6  -6  -2    4.92    3.47   0
  -6  -6   2   -4.79    3.75   0
  -6   6   2    4.88    3.75   0
  -5   6   2  433.66    6.45   0
  -5  -6   2  463.88    6.63   0
   5  -6  -2  415.82    7.34   0
   5  -6  -2  420.11    6.64   0
  -5  -6   2  444.34    6.55   0
  -4  -6   2   21.28    3.84   0
   4  -6  -2   26.56    3.55   0
  -4  -6   2   30.97    3.86   0
   4  -6  -2   16.25    5.31   0
  -4   6   2   24.72    3.70   0
   3  -6  -2   84.27    5.16   0
   3  -6  -2   90.49    4.03   0
  -3   6   2   82.55    4.41   0
  -3  -6   2   80.61    5.17   0
  -3  -6   2   88.00    4.38   0
   2  -6  -2   -0.29    3.78   0
  -2  -6   2    0.45    3.92   0
  -2  -6   2    0.32    3.42   0
   2  -6  -2    6.09    4.94   0
  -2   6   2    0.98    3.42   0
  -1  -6   2  129.38    4.33   0
  -1   6   2  127.25    4.73   0
   1  -6  -2  131.28    4.91   0
  -1  -6   2  118.50    5.48   0
   1  -6  -2  135.38    5.21   0
   0   6   2   62.49    4.22   0
   0  -6   2   65.10    5.04   0
   0  -6  -2   59.60    4.74   0
   0  -6  -2   69.28    4.09   0
   0   6  -2   66.14    3.86   0
   0  -6   2   60.26    3.71   0
   1  -6   2    4.44    3.12   0
  -1  -6  -2    8.17    4.30   0
  -1   6  -2    6.00    3.21   0
   1  -6   2    8.25    4.93   0
  -1  -6  -2    6.84    3.91   0
  -2   6  -2   61.33    3.96   0
  -2  -6  -2   53.07    3.92   0
  -2  -6  -2   54.50    4.06   0
   2  -6   2   65.62    3.95   0
   3  -6   2   98.09    4.21   0
  -3  -6  -2  108.26    4.28   0
  -3   6  -2  100.64    4.37   0
   4  -6   2  105.84    4.21   0
   4   6   2   88.41    6.49   0
  -4   6  -2   96.34    4.26   0
  -4  -6  -2   94.64    4.76   0
  -4  -6  -2   89.23    4.97   0
  -5   6  -2   11.73    3.68   0
   5   6   2    8.66    5.82   0
  -5  -6  -2    9.06    3.74   0
   5  -6   2    6.04    3.58   0
  -5  -6  -2   14.61    3.76   0
  -6  -6  -2    7.83    3.80   0
  -6   6  -2    3.85    3.63   0
  -6  -6  -2    8.13    3.69   0
   6   6   2    7.36    5.50   0
   6  -6   2    3.49    3.25   0
   7  -6   2  112.46    4.40   0
  -7   6  -2  112.80    4.42   0
  -7  -6  -2  111.05    4.66   0
   7   6   2   98.16    7.39   0
   8   6   2    2.65    5.89   0
   8  -6   2    4.00    3.30   0
  -8  -6  -2    6.32    4.02   0
  -8   6  -2    3.91    3.60   0
  -9  -6  -2   -2.55    4.07   0
   9  -6   2    0.87    3.73   0
   9   6   2    0.46    6.44   0
  -9   6  -2   -0.94    3.71   0
  10   6   2   13.84    7.25   0
 -10  -6  -2   14.78    4.36   0
  10  -6   2   16.20    4.13   0
 -10   6  -2   11.60    4.18   0
  10  -7  -2    0.24    5.02   0
 -10   7   2    1.25    4.23   0
 -10  -7   2   -1.70    4.43   0
  10  -7  -2   -0.36    4.02   0
  -9  -7   2   19.50    4.22   0
  -9   7   2   17.97    4.44   0
  -9  -7   2   28.81    4.31   0
   9  -7  -2   23.89    4.33   0
   9  -7  -2   -5.14    4.33   0
  -8   7   2   17.60    4.13   0
   8  -7  -2   -6.33    3.97   0
   8  -7  -2    5.22    3.92   0
  -8  -7   2    7.03    4.04   0
  -8  -7   2    7.34    4.18   0
  -7  -7   2    7.58    3.60   0
  -7  -7   2    6.62    3.90   0
  -7   7   2    4.75    4.16   0
   7  -7  -2    1.33    4.47   0
   7  -7  -2    4.97    4.06   0
  -6  -7   2   21.78    3.62   0
  -6  -7   2   19.48    3.86   0
   6  -7  -2   14.28    3.89   0
   6  -7  -2   25.19    4.56   0
  -6   7   2   20.13    3.85   0
   5  -7  -2   54.55    4.62   0
  -5   7   2   63.44    4.16   0
  -5  -7   2   65.22    4.28   0
  -5  -7   2   61.41    4.44   0
   5  -7  -2   63.37    3.99   0
   4  -7  -2  606.96    7.77   0
  -4   7   2  639.53    7.55   0
  -4  -7   2  672.03    7.46   0
   4  -7  -2  624.95    8.43   0
  -3  -7   2   20.60    3.80   0
   3  -7  -2   10.67    4.31   0
  -3  -7   2   16.00    4.20   0
  -3   7   2   14.70    3.84   0
   3  -7  -2   14.79    5.21   0
   2  -7  -2    1.64    3.55   0
  -2  -7   2   -1.37    4.44   0
  -2  -7   2    2.74    3.37   0
   2  -7  -2    4.04    4.82   0
  -2   7   2    1.42    3.61   0
  -1  -7   2    1.90    3.49   0
   1  -7  -2    3.46    4.43   0
  -1  -7   2    6.30    4.62   0
  -1   7   2    9.35    3.62   0
   1  -7  -2    8.32    3.50   0
   0  -7  -2   41.34    3.81   0
   0  -7   2   48.65    3.80   0
   0  -7  -2   48.75    4.38   0
   0   7  -2   45.36    3.95   0
   0  -7   2   44.70    4.56   0
   0   7   2   46.02    3.96   0
  -1  -7  -2  180.40    5.10   0
  -1   7  -2  190.92    4.92   0
   1  -7   2  195.88    5.13   0
  -1  -7  -2  184.81    5.34   0
   1  -7   2  176.99    6.06   0
  -2  -7  -2    7.24    3.54   0
  -2  -7  -2    2.70    3.45   0
   2  -7   2    1.63    3.49   0
   2  -7   2    1.43    4.91   0
  -2   7  -2    1.17    3.59   0
   3  -7   2   18.87    5.12   0
  -3  -7  -2   18.94    4.37   0
  -3   7  -2   29.46    3.89   0
  -3  -7  -2   17.25    3.63   0
   3  -7   2   26.40    3.78   0
  -4  -7  -2  129.87    5.26   0
   4  -7   2  124.56    4.50   0
  -4  -7  -2  120.04    4.78   0
  -4   7  -2  118.24    4.44   0
  -5  -7  -2   11.66    3.63   0
   5  -7   2    9.86    3.66   0
  -5  -7  -2    8.24    3.90   0
  -5   7  -2    5.91    3.89   0
  -6  -7  -2   31.58    4.06   0
  -6   7  -2    7.42    4.00   0
   6  -7   2   28.64    3.90   0
  -6  -7  -2   27.48    3.99   0
  -7  -7  -2  170.21    5.86   0
  -7   7  -2  188.27    5.08   0
   7  -7   2  176.46    5.05   0
  -7  -7  -2  173.72    5.79   0
  -8  -7  -2   -0.74    4.72   0
  -8   7  -2    0.41    4.04   0
  -8  -7  -2    7.73    4.15   0
   8  -7   2    1.03    3.99   0
   9  -7   2   -0.60    3.86   0
  -9   7  -2   -1.63    3.61   0
  -9  -7  -2    1.63    4.30   0
 -10   7  -2    1.39    4.47   0
 -10  -7  -2   -0.89    4.15   0
  10  -7   2   -1.22    4.36   0
  -8  -8   2    9.91    4.41   0
  -8  -8   2   10.86    4.42   0
   8  -8  -2    7.78    4.68   0
   8  -8  -2    4.78    4.38   0
  -8   8   2    1.90    4.53   0
  -7  -8   2   14.56    4.34   0
  -7  -8   2   14.68    4.26   0
   7  -8  -2   14.77    4.13   0
   7  -8  -2    8.78    4.35   0
  -7   8   2   15.38    4.02   0
  -6   8   2   17.49    4.44   0
  -6  -8   2   24.20    4.28   0
   6  -8  -2   30.42    4.98   0
  -6  -8   2   20.96    4.57   0
   6  -8  -2   15.20    3.89   0
   5  -8  -2    4.48    4.55   0
  -5  -8   2    7.52    4.12   0
   5  -8  -2    2.95    3.98   0
  -5   8   2    7.95    4.34   0
  -5  -8   2    5.63    4.18   0
  -4   8   2   -1.49    3.80   0
   4  -8  -2    2.16    4.48   0
   4  -8  -2    4.15    3.81   0
  -4  -8   2    1.26    3.84   0
   3  -8  -2    0.25    3.49   0
  -3  -8   2    8.99    3.70   0
  -3  -8   2    0.71    4.03   0
   3  -8  -2    2.22    4.62   0
  -3   8   2    3.60    4.09   0
   2  -8  -2    6.29    4.36   0
  -2   8   2    3.19    3.61   0
  -2  -8   2    5.89    3.61   0
  -2  -8   2   10.74    3.76   0
   2  -8  -2    5.78    3.60   0
   1  -8  -2   -1.28    4.07   0
  -1  -8   2    4.39    3.70   0
  -1   8   2    1.19    4.12   0
   1  -8  -2    3.57    3.50   0
  -1  -8   2    1.77    3.61   0
   0  -8   2   12.39    4.77   0
   0  -8  -2   10.37    4.50   0
   0  -8  -2   10.12    3.81   0
   0  -8   2   14.65    3.70   0
   0   8  -2   14.63    3.82   0
  -1  -8  -2    1.19    3.85   0
  -1   8  -2    0.84    3.65   0
   1  -8   2    2.19    4.39   0
  -1  -8  -2    0.94    3.60   0
   1  -8   2    5.12    3.62   0
   2  -8   2    2.73    3.65   0
  -2  -8  -2    3.68    4.10   0
  -2   8  -2    2.53    3.73   0
   2  -8   2   -3.76    4.32   0
  -2  -8  -2    2.97    4.08   0
  -3  -8  -2  261.04    5.80   0
  -3  -8  -2  270.56    6.24   0
   3  -8   2  284.09    6.08   0
  -3   8  -2  300.04    5.86   0
   3  -8   2  274.50    6.62   0
  -4  -8  -2   17.75    4.05   0
   4  -8   2   21.46    3.73   0
  -4  -8  -2   17.39    4.04   0
   4  -8   2   20.60    4.92   0
  -4   8  -2   18.24    4.02   0
  -5  -8  -2    2.92    3.97   0
  -5  -8  -2    3.59    4.00   0
  -5   8  -2    5.58    3.82   0
   5  -8   2    8.17    4.63   0
   5  -8   2    0.82    3.69   0
   6  -8   2   25.92    5.12   0
  -6  -8  -2    2.86    4.41   0
  -6   8  -2   23.14    4.09   0
  -6  -8  -2   20.67    4.15   0
   6  -8   2   20.11    3.99   0
  -7  -8  -2    0.41    4.30   0
   7  -8   2   -0.86    3.96   0
   7  -8   2    6.50    5.08   0
  -7  -8  -2   -1.19    4.41   0
  -7   8  -2   -0.72    4.08   0
  -8  -8  -2   13.31    4.63   0
   8  -8   2    9.96    4.22   0
  -8  -8  -2   21.46    4.67   0
  -8   8  -2   14.89    4.40   0
  -7  -9   2    5.80    4.40   0
   7  -9  -2   -2.20    5.21   0
  -7   9   2   -3.32    4.91   0
  -7  -9   2    4.23    4.34   0
   7  -9  -2   -0.18    4.32   0
  -6  -9   2   57.18    5.03   0
   6  -9  -2   53.40    5.29   0
  -6  -9   2    6.16    5.11   0
  -6   9   2   45.34    4.78   0
   6  -9  -2   38.45    4.70   0
  -5   9   2    0.97    4.63   0
   5  -9  -2    2.51    4.24   0
  -5  -9   2    0.55    4.23   0
  -5  -9   2   -3.91    4.04   0
   5  -9  -2    3.35    4.65   0
  -4   9   2    4.67    3.97   0
   4  -9  -2    6.11    4.79   0
  -4  -9   2    9.90    4.18   0
   4  -9  -2   10.50    4.01   0
   3  -9  -2    2.82    4.14   0
  -3  -9   2    1.56    4.49   0
  -3   9   2    0.73    3.68   0
   3  -9  -2   -2.08    4.54   0
  -3  -9   2   -5.64    4.00   0
   2  -9  -2   28.73    4.45   0
  -2  -9   2   35.59    4.29   0
  -2  -9   2   30.00    4.37   0
   2  -9  -2   33.35    5.20   0
  -2   9   2   32.99    4.40   0
  -1  -9   2   16.30    4.80   0
  -1  -9   2    1.54    4.67   0
   1  -9  -2    5.84    4.91   0
   1  -9  -2    2.17    3.99   0
  -1   9   2    5.67    3.83   0
   0  -9   2   26.42    4.65   0
   0  -9  -2   25.08    4.74   0
   0  -9   2   23.51    4.31   0
   0  -9  -2   27.19    3.96   0
   1  -9   2   10.17    4.22   0
  -1  -9  -2    4.18    4.77   0
   1  -9   2    8.49    4.12   0
  -1  -9  -2   12.80    3.70   0
  -1   9  -2   13.09    4.56   0
  -2   9  -2   -0.10    4.14   0
  -2  -9  -2    0.10    3.68   0
  -2  -9  -2    2.37    4.61   0
   2  -9   2   -1.61    3.97   0
   2  -9   2   -1.77    4.51   0
   3  -9   2    3.70    3.97   0
   3  -9   2    8.97    4.66   0
  -3   9  -2   15.28    4.17   0
  -3  -9  -2   12.46    4.36   0
   4  -9   2   11.12    4.83   0
   4  -9   2    3.41    4.02   0
  -4   9  -2   10.50    4.13   0
  -4  -9  -2    6.39    4.27   0
  -4  -9  -2    6.85    4.12   0
  -5   9  -2   10.69    4.58   0
  -5  -9  -2   16.53    4.36   0
  -5  -9  -2   17.27    4.42   0
   5  -9   2    2.13    5.17   0
   5  -9   2   11.96    4.04   0
   6  -9   2    9.59    4.99   0
  -6  -9  -2   12.41    4.36   0
   6  -9   2    8.38    4.28   0
  -6  -9  -2    6.27    4.38   0
  -6   9  -2    9.70    4.42   0
   7  -9   2    5.36    4.25   0
  -7   9  -2   13.50    4.35   0
  -7  -9  -2   14.03    4.43   0
  -7  -9  -2   21.78    4.67   0
   7  -9   2    4.19    5.22   0
  -5 -10   2    7.10    4.54   0
  -4 -10   2   12.61    4.48   0
   4 -10  -2   16.80    4.51   0
  -4  10   2    2.72    4.48   0
   4 -10  -2    6.59    4.91   0
  -4 -10   2    1.17    4.62   0
  -3  10   2    4.57    4.60   0
  -3 -10   2    2.04    5.55   0
   3 -10  -2    0.03    5.01   0
  -3 -10   2    0.03    4.60   0
   3 -10  -2    6.75    4.54   0
  -2 -10   2    2.17    4.44   0
   2 -10  -2   -1.18    4.07   0
  -2  10   2    1.21    4.20   0
  -2 -10   2   -1.09    4.36   0
   2 -10  -2   -1.42    4.82   0
   1 -10  -2   11.27    3.78   0
  -1 -10   2    8.25    4.61   0
  -1 -10   2    4.92    4.92   0
   1 -10  -2    5.84    4.28   0
   0 -10  -2   -0.70    4.38   0
   0 -10   2   10.80    4.37   0
   0 -10  -2    4.05    4.85   0
   0 -10   2    1.43    4.51   0
  -1  10  -2    5.19    4.50   0
   1 -10   2    4.16    4.35   0
  -1 -10  -2   -0.20    4.32   0
   1 -10   2   -0.41    4.40   0
  -1 -10  -2    1.31    3.73   0
  -2 -10  -2   -0.63    4.07   0
   2 -10   2    4.39    4.44   0
  -2 -10  -2    2.16    5.60   0
  -2  10  -2    2.85    4.37   0
   2 -10   2    5.03    4.72   0
   3 -10   2    8.88    4.30   0
   3 -10   2    1.61    5.59   0
  -3  10  -2    3.74    4.36   0
  -3 -10  -2    2.41    4.84   0
  -4  10  -2    9.06    4.46   0
   4 -10   2    1.74    4.90   0
  -4 -10  -2    3.38    4.61   0
   4 -10   2    2.98    5.03   0
  -4 -10  -2    0.36    4.84   0
   5 -10   2   45.03    4.79   0
  13   0  -3   29.22    4.52   0
 -13   0   3   35.61    4.50   0
  11   0  -3   36.98    3.88   0
 -11   0   3   46.20    3.90   0
  -9   0   3   39.95    3.23   0
   9   0  -3   32.54    2.98   0
   7   0  -3   66.64    3.48   0
  -7   0   3   72.86    3.45   0
   5   0  -3  919.49    8.98   0
  -5   0   3  929.96    9.01   0
  -3   0   3  125.93    5.11   0
   3   0  -3  119.01    5.07   0
   3   0   3  602.93    9.06   0
  -3   0  -3  622.14    9.13   0
  -5   0  -3  191.34    4.90   0
   5   0   3  184.68    4.89   0
   7   0   3    7.16    2.91   0
  -7   0  -3    5.00    2.94   0
  -9   0  -3   -3.15    2.98   0
   9   0   3    6.84    3.05   0
 -11   0  -3  226.40    5.12   0
  11   0   3  197.15    5.06   0
  13   0   3    2.33    4.21   0
 -13   0  -3    2.41    4.17   0
 -13  -1   3    1.25    4.02   0
 -13   1   3   -0.33    3.55   0
  13   1  -3    0.77    4.00   0
  13  -1  -3    1.78    4.21   0
 -12  -1   3   23.74    3.69   0
  12   1  -3   13.44    3.96   0
 -12   1   3   27.57    3.78   0
  12  -1  -3   14.55    4.07   0
 -11   1   3   22.48    3.53   0
  11   1  -3   16.75    3.76   0
 -11  -1   3   23.96    3.37   0
  11  -1  -3   16.32    3.64   0
 -10   1   3   58.15    3.79   0
 -10  -1   3   51.09    3.36   0
  10   1  -3   43.72    3.69   0
  10  -1  -3   52.40    3.72   0
  -9  -1   3  276.72    5.05   0
   9  -1  -3  278.83    5.18   0
   9   1  -3  258.26    4.87   0
  -9   1   3  274.41    5.03   0
  -8  -1   3   14.48    3.03   0
   8  -1  -3    6.33    3.07   0
   8   1  -3    9.03    2.91   0
  -8   1   3    9.76    2.98   0
  -7  -1   3    4.27    2.71   0
   7   1  -3    5.04    2.75   0
  -7   1   3    3.09    2.94   0
   7  -1  -3    6.17    2.91   0
   6   1  -3    4.03    3.01   0
  -6   1   3    3.69    2.84   0
   6  -1  -3    2.47    2.77   0
  -6  -1   3    3.60    2.96   0
  -5  -1   3    1.68    3.21   0
   5   1  -3    3.84    3.25   0
  -5   1   3    3.57    3.34   0
   5  -1  -3    5.26    3.27   0
  -4   1   3  169.61    5.13   0
   4  -1  -3  162.90    5.03   0
  -4  -1   3  178.12    5.18   0
   4   1  -3  168.25    5.18   0
   3  -1  -3 4412.11   23.18   0
   3   1  -3 4322.82   22.62   0
  -3  -1   3 4631.56   22.80   0
  -3   1   3 4530.90   23.25   0
  -2  -1   3   52.29    4.92   0
  -2   1   3   47.34    4.63   0
   2  -1  -3   53.45    4.62   0
  -1   1   3    6.01    5.21   0
   1  -1  -3    6.17    4.97   0
   1  -1  -3    5.05    3.73   0
  -1   1   3    5.64    4.42   0
   0   1  -3 1959.28   20.84   0
   0  -1  -3 1928.16   21.72   0
   0  -1   3 1936.33   20.82   0
   0   1   3 2048.33   37.17   0
   0   1   3 1927.92   21.53   0
   1   1   3  614.51   14.72   0
  -1   1  -3  583.46   10.85   0
   1  -1   3  583.62   10.75   0
   2  -1   3 2959.34   20.26   0
  -2   1  -3 2886.19   20.18   0
  -2  -1  -3 2985.57   23.17   0
   2   1   3 2980.51   23.16   0
  -3  -1  -3 1141.92   12.26   0
   3   1   3 1123.86   12.60   0
  -3   1  -3 1161.05   11.38   0
   3  -1   3 1146.47   11.25   0
  -4   1  -3   84.07    4.16   0
  -4  -1  -3   88.77    4.33   0
   4  -1   3   83.43    4.14   0
   4   1   3   77.55    4.08   0
  -5  -1  -3    3.61    3.39   0
  -5   1  -3    7.09    3.05   0
   5  -1   3    6.29    3.03   0
   5   1   3    4.22    3.36   0
  -6   1  -3  171.01    4.26   0
   6   1   3  164.79    4.56   0
   6  -1   3  168.82    4.40   0
  -6  -1  -3  188.45    4.68   0
  -7  -1  -3  438.37    6.01   0
  -7   1  -3  398.21    5.54   0
   7   1   3  420.19    5.93   0
   7  -1   3  386.54    5.56   0
  -8   1  -3   89.83    3.69   0
   8   1   3   73.92    3.56   0
  -8  -1  -3   87.19    3.75   0
   8  -1   3   86.47    3.58   0
   9   1   3   31.37    3.41   0
  -9  -1  -3   29.15    3.44   0
   9  -1   3   29.51    2.90   0
  -9   1  -3   32.25    3.19   0
  10  -1   3   15.05    3.55   0
 -10   1  -3   13.65    3.28   0
  10   1   3   12.63    3.43   0
 -10  -1  -3   18.08    3.47   0
  11   1   3    1.28    3.56   0
 -11  -1  -3    4.15    3.76   0
  11  -1   3    2.57    3.09   0
 -11   1  -3    7.34    3.28   0
  12   1   3   -4.37    4.14   0
  12  -1   3    0.49    3.67   0
 -12   1  -3    5.00    3.69   0
 -12  -1  -3    2.15    3.98   0
  13  -1   3    1.29    4.25   0
 -13  -1  -3    6.81    4.30   0
  13   1   3    7.16    4.45   0
 -13   1  -3    5.30    4.27   0
  13  -2  -3    4.16    4.35   0
 -13  -2   3   36.79    4.61   0
 -13   2   3   50.52    4.79   0
 -12  -2   3    6.95    3.91   0
 -12   2   3    2.80    3.95   0
  12   2  -3    5.21    3.45   0
  12  -2  -3    1.69    3.88   0
 -11   2   3    5.73    3.45   0
  11  -2  -3   -0.02    3.42   0
 -11  -2   3    5.87    3.38   0
  11   2  -3    4.89    3.35   0
  10  -2  -3   42.95    3.63   0
  10   2  -3   40.14    3.87   0
 -10   2   3   41.17    3.87   0
 -10  -2   3   47.37    3.68   0
  -9  -2   3   11.49    3.03   0
   9   2  -3   10.12    3.08   0
  -9   2   3   14.55    3.69   0
   9  -2  -3   11.46    3.34   0
   8   2  -3   89.30    3.82   0
   8  -2  -3   80.14    3.54   0
  -8  -2   3   99.97    3.75   0
  -8   2   3   82.72    3.68   0
  -7   2   3    0.58    3.11   0
   7  -2  -3    0.60    2.88   0
  -7  -2   3    2.21    2.76   0
   7   2  -3    3.23    2.76   0
   6   2  -3   36.81    3.29   0
  -6  -2   3   32.60    3.10   0
  -6   2   3   35.45    3.21   0
   6  -2  -3   31.41    3.19   0
  -5  -2   3 2163.40   12.99   0
   5   2  -3 2126.61   12.97   0
  -5   2   3 2206.87   13.17   0
   5  -2  -3 2158.90   13.15   0
   4  -2  -3 1325.01   11.26   0
  -4  -2   3 1367.33   11.08   0
  -4   2   3 1343.83   11.43   0
   3  -2  -3 1345.33   12.61   0
   3   2  -3 1462.69   33.32   0
  -3   2   3 1357.70   12.69   0
  -3  -2   3 1364.06   12.26   0
  -2   2   3 1626.73   15.53   0
   2  -2  -3 1645.82   15.45   0
  -1   2   3  345.70    9.30   0
   1  -2  -3  352.82    9.23   0
   1  -2  -3  350.03    9.24   0
  -1  -2   3  340.99    7.66   0
   0   2   3  954.98   15.73   0
   0   2  -3  966.92   12.06   0
   0   2   3  947.03   13.37   0
   0  -2  -3  957.59   13.02   0
   0  -2  -3  970.16   15.65   0
   0  -2   3  948.40   11.98   0
   1  -2   3   85.80    4.93   0
  -1   2  -3   87.66    4.92   0
   1   2   3   88.92    5.83   0
  -1  -2  -3   85.73    5.25   0
   2  -2   3  809.81    9.75   0
  -2   2  -3  818.16    9.80   0
  -2  -2  -3  815.17   11.87   0
   2   2   3  824.44   12.08   0
  -3   2  -3  168.31    4.96   0
  -3  -2  -3  169.49    5.68   0
   3   2   3  173.54    5.59   0
   3  -2   3  168.61    4.78   0
   4  -2   3  360.05    5.98   0
  -4  -2  -3  390.71    7.19   0
  -4   2  -3  381.45    6.18   0
   4   2   3  387.77    6.94   0
   5   2   3    5.79    3.28   0
  -5  -2  -3    7.95    3.22   0
  -5   2  -3    8.79    2.99   0
   5  -2   3    8.17    3.03   0
   6  -2   3  246.67    4.67   0
  -6  -2  -3  245.71    4.97   0
   6   2   3  247.98    5.12   0
  -6   2  -3  248.95    4.80   0
  -7  -2  -3   13.13    3.12   0
   7   2   3    5.66    3.47   0
   7  -2   3   15.77    2.51   0
  -7   2  -3    9.37    2.59   0
  -8  -2  -3  191.41    4.64   0
  -8   2  -3  201.84    4.31   0
   8  -2   3  180.51    4.27   0
   8   2   3  182.79    4.77   0
   9  -2   3  201.84    4.30   0
  -9  -2  -3  243.44    5.25   0
  -9   2  -3  230.14    4.38   0
   9   2   3  202.67    5.45   0
  10   2   3  163.91    4.98   0
 -10   2  -3  172.66    4.68   0
 -10  -2  -3  160.55    4.73   0
  10  -2   3  139.83    4.57   0
 -11  -2  -3   94.30    4.46   0
  11   2   3  104.50    4.60   0
 -11   2  -3  106.57    4.43   0
  11  -2   3   89.74    4.56   0
  12  -2   3    3.86    3.44   0
 -12   2  -3   -0.15    3.53   0
 -12  -2  -3    2.21    4.18   0
  12   2   3   -1.64    4.19   0
 -12  -3   3    6.75    3.91   0
  12  -3  -3    1.18    3.87   0
 -12   3   3   -1.06    3.96   0
 -11  -3   3   21.40    3.68   0
 -11   3   3   21.87    3.75   0
  11  -3  -3   22.51    3.90   0
  10  -3  -3    2.38    3.28   0
 -10  -3   3    1.54    3.00   0
 -10   3   3    6.50    3.40   0
   9  -3  -3   16.71    3.48   0
  -9  -3   3   17.23    3.09   0
  -9   3   3   13.57    3.57   0
  -8   3   3   -0.00    3.25   0
   8  -3  -3   -0.05    3.22   0
  -8  -3   3    3.20    2.96   0
  -7   3   3   64.24    3.70   0
  -7  -3   3   68.24    3.70   0
   7  -3  -3   71.67    3.56   0
  -6   3   3    6.07    2.97   0
  -6  -3   3    4.18    3.03   0
   6  -3  -3    4.91    3.00   0
  -5  -3   3   -1.81    3.09   0
   5  -3  -3    2.22    3.13   0
   5   3  -3    0.86    5.75   0
  -5   3   3    0.10    2.95   0
  -4  -3   3 2678.37   14.45   0
   4  -3  -3 2742.59   15.00   0
   4   3  -3 2739.97   35.01   0
  -4   3   3 2691.60   15.05   0
  -3   3   3  872.58    9.51   0
   3  -3  -3  892.90    9.61   0
  -2  -3   3  171.82    8.41   0
   2  -3  -3  235.27    8.10   0
   2  -3  -3  175.73    5.30   0
  -2  -3   3  179.78    5.23   0
  -2   3   3  172.98    5.39   0
   1  -3  -3 1329.36   12.95   0
  -1  -3   3 1277.40   16.79   0
   1   3  -3 1325.78   11.84   0
   1  -3  -3 1287.00   13.46   0
  -1  -3   3 1335.58   11.71   0
  -1   3   3 1290.62   13.57   0
   0  -3   3 2632.33   16.28   0
   0   3   3 2557.91   19.41   0
   0  -3  -3 2507.26   17.77   0
   0   3  -3 2614.05   16.17   0
   0   3   3 2655.52   19.16   0
   0  -3  -3 2625.70   19.44   0
  -1  -3  -3  431.95    8.58   0
  -1  -3  -3  462.48    8.84   0
   1  -3   3  468.39    7.29   0
   1   3   3  472.83    8.97   0
  -1   3  -3  474.82    7.38   0
   2  -3   3   22.18    3.40   0
   2   3   3   23.07    4.57   0
  -2   3  -3   23.37    3.44   0
   3  -3   3   25.87    3.17   0
  -3  -3  -3   25.34    3.59   0
  -3   3  -3   23.55    3.15   0
   3   3   3   23.50    3.67   0
   4  -3   3   45.01    3.40   0
  -4  -3  -3   50.39    4.06   0
   4   3   3   49.33    4.75   0
  -4   3  -3   46.52    3.38   0
   5  -3   3  323.40    5.20   0
  -5   3  -3  341.92    5.42   0
  -5  -3  -3  357.11    6.18   0
   6  -3   3  445.60    5.79   0
   6   3   3  449.13    6.45   0
  -6   3  -3  450.00    5.82   0
  -6  -3  -3  496.55    6.54   0
   7  -3   3   13.42    2.87   0
   7   3   3   13.69    3.77   0
  -7  -3  -3   17.19    3.69   0
  -7   3  -3    8.64    3.25   0
  -8   3  -3   44.50    3.39   0
   8  -3   3   48.81    3.36   0
   8   3   3   54.54    4.16   0
  -8  -3  -3   48.29    4.15   0
   9   3   3  246.70    5.51   0
  -9   3  -3  267.63    5.07   0
  -9  -3  -3  281.24    5.60   0
   9  -3   3  234.67    4.83   0
  10  -3   3    0.79    2.89   0
  10   3   3   -4.79    3.83   0
 -10  -3  -3   -0.38    3.49   0
 -10   3  -3   -0.31    3.18   0
 -11  -3  -3   34.58    4.34   0
  11   3   3   31.40    4.31   0
 -11   3  -3   34.33    3.54   0
  11  -3   3   13.35    3.90   0
 -12   3  -3    1.13    3.73   0
 -12  -3  -3   -0.57    4.17   0
  12  -3   3   -0.03    3.63   0
  12   3   3   -1.07    4.05   0
 -12   4   3   41.61    4.52   0
 -12  -4   3   38.37    4.10   0
  12   4  -3   20.14    8.44   0
  12  -4  -3   11.67    4.56   0
  11  -4  -3   36.04    3.95   0
 -11   4   3   46.23    4.28   0
 -11  -4   3   39.59    4.35   0
  11   4  -3   37.60    8.00   0
  10  -4  -3   26.33    3.86   0
  10   4  -3   20.67    6.46   0
 -10  -4   3   18.05    3.64   0
 -10   4   3   26.02    3.94   0
   9  -4  -3   -3.74    3.62   0
  -9  -4   3    5.78    3.35   0
  -9   4   3    1.27    3.84   0
   9   4  -3    5.60    6.11   0
  -8  -4   3   13.15    3.41   0
  -8   4   3   11.34    3.68   0
   8  -4  -3   13.51    3.65   0
   8   4  -3   12.25    6.34   0
  -7   4   3   81.92    4.09   0
   7  -4  -3   75.03    4.01   0
   7   4  -3   72.61    8.10   0
  -7  -4   3   75.61    3.76   0
   6  -4  -3    6.90    3.39   0
   6   4  -3    7.31    7.31   0
  -6  -4   3    0.74    3.09   0
  -6   4   3    4.60    3.51   0
   5   4  -3  113.39   10.60   0
  -5   4   3  109.82    4.12   0
   5  -4  -3  115.05    4.39   0
  -5  -4   3  117.33    4.03   0
  -4  -4   3    3.26    3.11   0
   4  -4  -3    3.29    3.07   0
  -4   4   3    5.21    3.19   0
   3  -4  -3  567.14    7.54   0
   3  -4  -3  595.82    8.53   0
  -3   4   3  569.60    7.49   0
  -3  -4   3  592.10    7.20   0
  -2  -4   3    8.80    3.42   0
   2  -4  -3    4.46    5.22   0
   2  -4  -3    5.83    3.46   0
  -2   4   3    5.81    4.01   0
  -2  -4   3    7.68    4.61   0
   1  -4  -3  157.06    5.77   0
   1  -4  -3  153.42    4.91   0
  -1  -4   3  148.16    4.87   0
  -1  -4   3  150.88    7.07   0
   1   4  -3  151.92    4.87   0
  -1   4   3  159.71    5.33   0
   0  -4  -3  682.05    8.97   0
   0  -4  -3  717.87    9.13   0
   0  -4   3  702.93    8.25   0
   0   4  -3  698.65    8.22   0
   0   4   3  705.53    9.31   0
  -1  -4  -3   23.30    3.84   0
   1   4   3   17.73    5.40   0
   1  -4   3   20.18    3.32   0
  -1   4  -3   25.71    3.57   0
  -1  -4  -3   24.78    3.42   0
  -2  -4  -3  562.19    8.11   0
   2  -4   3  533.82    7.12   0
  -2   4  -3  536.15    7.05   0
   2   4   3  542.31    9.23   0
  -2  -4  -3  537.77    8.26   0
   3   4   3   16.98    4.15   0
  -3  -4  -3   15.54    4.20   0
  -3   4  -3   19.93    3.45   0
   3  -4   3   18.33    3.16   0
   4  -4   3   12.59    2.92   0
   4   4   3   12.09    3.74   0
  -4   4  -3   10.73    2.99   0
  -4  -4  -3   12.12    3.50   0
   5   4   3  128.58    5.15   0
  -5   4  -3  139.61    4.07   0
  -5  -4  -3  147.52    4.78   0
   5  -4   3  129.30    4.02   0
   6  -4   3  101.28    3.81   0
  -6  -4  -3  102.63    4.58   0
   6   4   3   94.40    5.28   0
  -6   4  -3   96.06    3.83   0
  -7  -4  -3  198.61    5.22   0
   7   4   3  175.21    6.30   0
  -7   4  -3  185.00    4.44   0
   7  -4   3  172.68    4.29   0
  -8   4  -3   41.94    3.49   0
  -8  -4  -3   44.19    3.96   0
   8  -4   3   33.44    3.31   0
  -9  -4  -3   19.70    3.83   0
   9  -4   3   11.08    3.29   0
  -9   4  -3   18.93    3.39   0
 -10  -4  -3    6.11    3.79   0
 -10   4  -3   10.77    3.17   0
  10  -4   3   10.24    3.29   0
 -11  -4  -3   42.17    4.61   0
  11  -4   3    7.58    3.99   0
 -11   4  -3   43.68    4.57   0
 -12  -4  -3   12.32    4.52   0
  12  -4   3    2.12    4.13   0
 -12   4  -3   12.88    4.18   0
 -11  -5   3    4.01    3.64   0
  11  -5  -3    8.53    4.12   0
 -11   5   3    2.55    4.14   0
  10  -5  -3    1.70    3.85   0
 -10   5   3   -3.49    3.91   0
 -10  -5   3    1.76    3.80   0
   9  -5  -3    6.05    3.78   0
  -9   5   3    2.89    3.77   0
  -9  -5   3    1.61    3.21   0
   8  -5  -3   22.81    4.11   0
  -8   5   3   31.96    4.08   0
  -8  -5   3   29.80    3.56   0
  -7   5   3  160.77    4.68   0
  -7  -5   3  145.15    4.68   0
   7  -5  -3  147.98    4.63   0
  -6  -5   3  102.49    4.05   0
  -6   5   3  127.32    4.46   0
   6  -5  -3  107.44    4.31   0
  -5   5   3   40.42    3.82   0
  -5  -5   3   41.06    3.56   0
   5  -5  -3   39.36    3.60   0
  -4  -5   3  123.99    4.01   0
   4  -5  -3  130.51    4.43   0
   4  -5  -3  138.79    5.34   0
  -4   5   3  121.77    4.79   0
  -4  -5   3  130.11    4.26   0
  -3  -5   3  131.15    5.93   0
  -3  -5   3  134.01    4.20   0
  -3   5   3  152.37    4.67   0
   3  -5  -3  169.96    6.16   0
   3  -5  -3  143.85    4.72   0
  -2  -5   3    5.43    3.12   0
   2  -5  -3    3.67    3.94   0
   2  -5  -3   -0.99    4.23   0
  -2  -5   3    4.03    4.29   0
  -2   5   3    3.22    3.42   0
  -1  -5   3   43.79    3.74   0
  -1  -5   3   43.09    5.43   0
  -1   5   3   40.93    4.62   0
   1   5  -3   40.97    3.44   0
   1  -5  -3   32.13    4.46   0
   1  -5  -3   43.14    4.58   0
   0  -5  -3   99.70    4.60   0
   0  -5   3  100.82    3.97   0
   0  -5   3   95.44    5.51   0
   0   5   3   97.31    4.99   0
   0  -5  -3   95.50    4.77   0
   0   5  -3  100.14    4.03   0
  -1  -5  -3   12.30    3.97   0
   1  -5   3   12.65    3.12   0
  -1   5  -3   14.63    3.16   0
  -1  -5  -3   13.37    3.67   0
   2   5   3    2.98    4.69   0
   2  -5   3    7.63    2.94   0
  -2   5  -3    6.08    3.02   0
  -2  -5  -3    7.74    3.42   0
  -2  -5  -3    3.58    3.56   0
   3  -5   3  133.05    3.84   0
  -3   5  -3  138.10    4.08   0
  -3  -5  -3  148.52    4.83   0
   3   5   3  135.58    6.23   0
  -3  -5  -3  134.32    5.14   0
  -4  -5  -3   19.85    3.78   0
   4  -5   3   23.36    3.04   0
  -4   5  -3   19.31    3.08   0
   4   5   3   24.21    4.97   0
  -4  -5  -3   31.22    3.74   0
   5   5   3  286.44    7.78   0
  -5   5  -3  298.76    5.25   0
   5  -5   3  287.52    5.20   0
  -5  -5  -3  303.33    5.95   0
   6   5   3   36.08    5.39   0
  -6  -5  -3   46.88    4.01   0
   6  -5   3   36.69    3.43   0
  -6   5  -3   42.63    3.52   0
   7  -5   3    1.82    3.14   0
  -7  -5  -3    4.41    3.64   0
   7   5   3    2.37    4.70   0
  -7   5  -3   -0.48    3.38   0
   8   5   3    4.75    5.16   0
  -8   5  -3   12.16    3.49   0
  -8  -5  -3    9.83    3.81   0
   8  -5   3   15.32    3.43   0
   9   5   3   19.43    5.66   0
   9  -5   3   22.96    3.62   0
  -9  -5  -3   29.99    4.06   0
  -9   5  -3   25.52    3.59   0
  10   5   3    8.18    4.78   0
 -10  -5  -3   12.54    4.18   0
  10  -5   3   15.08    3.50   0
 -10   5  -3    5.95    3.82   0
  11  -5   3   -2.15    3.96   0
 -11  -5  -3    0.60    4.40   0
 -11   5  -3    1.97    3.49   0
  11   5   3    1.62    5.50   0
 -11   6   3   -2.84    4.35   0
 -11  -6   3    0.95    4.34   0
  11  -6  -3   -4.77    5.14   0
  11  -6  -3    1.62    4.32   0
  10  -6  -3   77.32    4.88   0
 -10   6   3   83.50    4.93   0
 -10  -6   3   78.65    4.52   0
  10  -6  -3   73.02    5.38   0
   9  -6  -3    2.18    3.98   0
  -9  -6   3    0.76    3.71   0
   9  -6  -3    1.52    4.73   0
  -9   6   3    3.19    3.86   0
  -8   6   3   28.77    4.68   0
  -8  -6   3   25.03    3.71   0
   8  -6  -3   31.83    4.55   0
   8  -6  -3   28.09    4.49   0
   7  -6  -3   19.25    3.95   0
  -7  -6   3   20.30    3.82   0
   7  -6  -3   23.63    4.36   0
  -7   6   3   21.27    3.75   0
  -6  -6   3   47.29    4.26   0
   6  -6  -3   41.38    4.08   0
  -6   6   3   48.44    3.92   0
   6  -6  -3   49.78    3.99   0
  -6  -6   3   47.81    4.25   0
   5  -6  -3    8.30    3.69   0
   5  -6  -3    9.90    4.24   0
  -5  -6   3    2.97    3.84   0
  -5   6   3    5.33    4.24   0
  -5  -6   3    5.29    4.07   0
  -4  -6   3   74.01    4.20   0
   4  -6  -3   87.05    5.39   0
   4  -6  -3   74.82    3.97   0
  -4   6   3   81.54    4.17   0
  -3   6   3    5.44    3.72   0
  -3  -6   3    1.85    3.52   0
  -3  -6   3    2.24    4.16   0
   3  -6  -3    5.17    4.43   0
   3  -6  -3    2.35    3.17   0
   2  -6  -3  137.66    4.68   0
  -2  -6   3  136.64    5.76   0
   2  -6  -3  156.32    5.50   0
  -2   6   3  133.89    5.05   0
  -2  -6   3  141.04    4.52   0
   1  -6  -3    3.93    4.06   0
  -1  -6   3    1.98    3.20   0
  -1  -6   3    2.54    4.67   0
   1  -6  -3    1.55    3.89   0
  -1   6   3    6.53    3.96   0
   0  -6   3  127.28    6.23   0
   0  -6  -3  127.09    5.11   0
   0   6   3  133.79    4.68   0
   0   6  -3  118.63    4.20   0
   0  -6   3  140.16    4.23   0
   0  -6  -3  122.75    5.01   0
   1  -6   3    6.07    5.93   0
  -1  -6  -3    3.88    3.45   0
  -1  -6  -3    5.68    4.47   0
   1  -6   3    3.66    3.10   0
  -1   6  -3    2.32    3.52   0
   2  -6   3   42.46    3.60   0
  -2   6  -3   38.57    3.86   0
  -2  -6  -3   39.98    4.20   0
  -2  -6  -3   40.85    3.83   0
  -3   6  -3   34.80    3.80   0
   3   6   3   31.00    5.08   0
  -3  -6  -3   34.74    3.72   0
   3  -6   3   39.69    4.02   0
  -4  -6  -3  373.06    6.37   0
  -4  -6  -3  393.79    6.32   0
   4  -6   3  388.21    5.90   0
   4   6   3  369.25    8.82   0
  -4   6  -3  384.20    6.17   0
  -5   6  -3   49.68    3.98   0
  -5  -6  -3   49.11    4.07   0
  -5  -6  -3   40.72    4.17   0
   5  -6   3   48.36    3.61   0
   5   6   3   47.30    5.93   0
   6   6   3   25.68    5.15   0
  -6  -6  -3   31.50    4.32   0
   6  -6   3   30.89    3.60   0
  -6   6  -3   25.08    3.67   0
  -7   6  -3   22.24    3.58   0
   7   6   3   21.82    5.42   0
  -7  -6  -3   22.00    3.74   0
   7  -6   3   18.73    3.43   0
  -8   6  -3   22.89    3.42   0
  -8  -6  -3   23.60    4.19   0
   8   6   3   12.48    5.63   0
   8  -6   3   21.57    3.06   0
  -9  -6  -3   61.76    4.45   0
   9  -6   3   62.69    3.87   0
  -9   6  -3   73.34    4.34   0
   9   6   3   57.13    6.35   0
  10   6   3    6.12    6.48   0
 -10  -6  -3    6.93    4.39   0
 -10   6  -3    4.80    3.98   0
  10  -6   3    7.24    3.95   0
 -10  -7   3    2.70    4.45   0
  10  -7  -3    2.60    5.10   0
 -10   7   3   -1.00    4.23   0
  10  -7  -3    0.01    4.12   0
 -10  -7   3    0.90    4.50   0
   9  -7  -3    3.59    4.56   0
   9  -7  -3    2.37    4.27   0
  -9  -7   3    2.75    4.26   0
  -9  -7   3   -2.00    4.06   0
  -9   7   3    0.44    4.28   0
  -8  -7   3    6.17    4.07   0
   8  -7  -3    2.03    4.26   0
  -8  -7   3   15.71    4.12   0
   8  -7  -3   16.69    4.08   0
  -8   7   3   16.89    4.24   0
   7  -7  -3    8.64    4.34   0
  -7  -7   3   -0.10    3.70   0
  -7   7   3    5.92    4.05   0
   7  -7  -3    3.39    4.07   0
  -7  -7   3    2.01    3.82   0
  -6   7   3   16.74    4.35   0
   6  -7  -3   19.12    4.09   0
  -6  -7   3    3.34    4.08   0
   6  -7  -3   15.71    3.72   0
  -6  -7   3   21.78    3.87   0
   5  -7  -3   13.02    4.41   0
   5  -7  -3   30.01    3.57   0
  -5  -7   3   27.19    3.91   0
  -5  -7   3   27.99    4.13   0
  -5   7   3   27.17    3.69   0
   4  -7  -3   91.83    5.53   0
  -4   7   3   92.27    4.47   0
   4  -7  -3   83.40    4.86   0
  -4  -7   3   90.56    4.57   0
  -3   7   3  353.18    6.17   0
  -3  -7   3  327.49    5.93   0
   3  -7  -3  347.96    7.11   0
   3  -7  -3  333.93    6.36   0
  -3  -7   3  314.40    7.78   0
   2  -7  -3  128.60    4.53   0
  -2  -7   3  130.80    5.81   0
  -2  -7   3  132.83    4.57   0
  -2   7   3  130.59    4.64   0
   2  -7  -3  137.33    5.45   0
  -1   7   3    2.40    3.50   0
  -1  -7   3    4.16    3.47   0
  -1  -7   3    1.77    4.52   0
   1  -7  -3    3.04    4.40   0
   1  -7  -3   -1.91    3.50   0
   0  -7   3   23.88    4.45   0
   0   7   3   34.76    3.82   0
   0  -7  -3   34.98    4.31   0
   0   7  -3   30.87    3.83   0
   0  -7   3   35.48    3.77   0
   0  -7  -3   31.19    4.37   0
  -1   7  -3    4.38    3.74   0
   1  -7   3    6.77    3.65   0
   1  -7   3    5.01    5.82   0
  -1  -7  -3    3.18    4.39   0
  -1  -7  -3    0.44    3.94   0
   2  -7   3   76.12    5.58   0
  -2   7  -3   68.99    4.22   0
  -2  -7  -3   77.57    4.56   0
  -2  -7  -3   77.91    4.50   0
   2  -7   3   82.38    4.24   0
   3  -7   3    2.69    3.46   0
  -3  -7  -3    7.59    4.22   0
  -3   7  -3    5.23    3.59   0
  -4  -7  -3    0.89    4.24   0
  -4  -7  -3    3.22    4.18   0
  -4   7  -3    1.05    3.60   0
   4  -7   3    5.27    3.63   0
  -5   7  -3   39.11    3.81   0
   5  -7   3   46.72    3.84   0
  -5  -7  -3   49.52    4.06   0
  -5  -7  -3   33.53    3.90   0
  -6  -7  -3    2.55    3.80   0
   6   7   3    1.68    5.96   0
  -6  -7  -3    1.71    3.79   0
  -6   7  -3   -1.27    3.64   0
   6  -7   3    1.48    3.52   0
  -7  -7  -3    0.42    4.13   0
  -7  -7  -3    0.96    4.04   0
   7   7   3    1.97    6.13   0
  -7   7  -3   -1.76    3.77   0
   7  -7   3    3.86    3.79   0
  -8  -7  -3    1.36    4.32   0
   8   7   3    2.25    6.24   0
  -8   7  -3    1.53    4.00   0
  -8  -7  -3    5.14    4.05   0
   8  -7   3    1.50    3.86   0
   9  -7   3   -3.14    4.14   0
  -9   7  -3    2.80    4.21   0
   9   7   3   -2.84    7.08   0
  -9  -7  -3    0.73    4.29   0
  -8   8   3    4.30    4.38   0
  -8  -8   3   -2.04    4.27   0
  -8  -8   3    5.67    4.25   0
   8  -8  -3    3.51    4.55   0
   8  -8  -3    4.69    4.27   0
   7  -8  -3    0.75    4.20   0
   7  -8  -3    2.69    4.63   0
  -7  -8   3   -0.61    4.21   0
  -7  -8   3    1.24    4.08   0
  -7   8   3   -0.86    4.32   0
  -6  -8   3    4.69    4.12   0
   6  -8  -3    2.76    4.60   0
  -6   8   3    6.44    4.56   0
  -6  -8   3   13.56    4.04   0
   6  -8  -3   17.19    3.94   0
  -5  -8   3   11.13    3.94   0
   5  -8  -3   16.31    4.66   0
   5  -8  -3    7.83    3.96   0
  -5   8   3   13.64    4.41   0
  -5  -8   3    6.08    3.95   0
   4  -8  -3   -0.48    4.31   0
  -4   8   3    3.73    3.83   0
   4  -8  -3    6.85    3.76   0
  -4  -8   3    7.26    4.06   0
   3  -8  -3    4.59    3.60   0
  -3   8   3    4.79    3.58   0
  -3  -8   3    6.16    4.30   0
  -3  -8   3    8.77    3.76   0
   3  -8  -3    7.41    4.41   0
  -2   8   3  396.32    6.38   0
  -2  -8   3  385.43    6.35   0
   2  -8  -3  391.57    6.47   0
  -2  -8   3  382.97    7.58   0
   2  -8  -3  391.15    6.97   0
  -1  -8   3    0.23    3.86   0
   1  -8  -3   -2.00    3.45   0
  -1   8   3    1.36    3.45   0
  -1  -8   3    0.09    3.49   0
   1  -8  -3    1.04    3.82   0
   0  -8   3   37.41    3.94   0
   0  -8  -3   33.76    4.19   0
   0   8  -3   40.30    4.13   0
   0  -8   3   29.03    4.97   0
   0  -8  -3   34.01    4.23   0
   1  -8   3   55.03    4.13   0
  -1  -8  -3   51.79    4.52   0
  -1   8  -3   55.45    4.25   0
  -1  -8  -3   59.38    5.04   0
   1  -8   3   55.15    4.74   0
  -2   8  -3   53.25    4.29   0
   2  -8   3   51.13    4.22   0
  -2  -8  -3   55.24    4.07   0
   2  -8   3   58.32    4.81   0
  -2  -8  -3   57.09    4.19   0
   3  -8   3    1.58    4.74   0
  -3  -8  -3    0.95    3.83   0
  -3   8  -3    2.74    3.80   0
   3  -8   3   -1.60    3.74   0
  -4  -8  -3   10.36    3.88   0
   4  -8   3    2.90    5.08   0
  -4  -8  -3    4.87    3.98   0
   4  -8   3    9.99    3.80   0
  -4   8  -3    9.47    3.75   0
  -5  -8  -3   12.37    3.99   0
   5  -8   3   25.21    3.85   0
  -5  -8  -3   17.30    3.96   0
   5  -8   3   20.73    5.10   0
  -5   8  -3   19.56    3.66   0
  -6  -8  -3    2.84    3.80   0
  -6  -8  -3    2.79    4.23   0
  -6   8  -3   -2.35    3.90   0
   6  -8   3    1.85    4.01   0
   7  -8   3    7.84    4.06   0
  -7  -8  -3   -2.28    4.88   0
  -7  -8  -3    5.85    4.89   0
  -7   8  -3    1.21    4.17   0
  -8  -8  -3    8.86    4.56   0
  -8   8  -3   14.87    4.13   0
   8  -8   3    1.82    3.69   0
  -8  -8  -3   11.19    4.93   0
   7  -9  -3    0.09    4.07   0
  -7   9   3    5.54    4.53   0
  -7  -9   3    4.77    4.21   0
  -7  -9   3    1.81    4.26   0
   7  -9  -3   -0.77    4.91   0
  -6  -9   3   -0.71    4.43   0
  -6  -9   3    1.86    4.40   0
   6  -9  -3   -1.44    4.73   0
   6  -9  -3   -2.42    4.53   0
  -6   9   3    2.59    4.25   0
   5  -9  -3   11.22    4.32   0
  -5   9   3   19.75    4.68   0
   5  -9  -3   16.21    4.79   0
  -5  -9   3   16.68    4.33   0
  -5  -9   3   27.85    4.18   0
  -4   9   3   11.78    3.99   0
   4  -9  -3   18.49    4.11   0
  -4  -9   3   16.36    4.06   0
   4  -9  -3   20.37    4.76   0
   3  -9  -3   14.49    4.52   0
   3  -9  -3   14.31    4.43   0
  -3   9   3    7.90    3.98   0
  -3  -9   3    5.42    4.37   0
  -3  -9   3    9.67    4.02   0
   2  -9  -3   10.87    4.23   0
  -2   9   3    6.02    3.99   0
  -2  -9   3    8.69    4.77   0
   2  -9  -3   10.72    4.55   0
  -2  -9   3    5.42    4.01   0
  -1  -9   3    4.92    4.25   0
   1  -9  -3    5.60    4.14   0
  -1   9   3    9.09    3.66   0
  -1  -9   3    5.60    4.15   0
   1  -9  -3    0.34    3.71   0
   0  -9  -3    1.87    3.57   0
   0  -9   3    0.74    4.74   0
   0  -9  -3    1.33    3.99   0
   0  -9   3    2.59    4.12   0
   1  -9   3    1.69    4.58   0
  -1   9  -3    3.44    4.10   0
  -1  -9  -3    5.39    4.14   0
  -1  -9  -3    3.36    4.12   0
   1  -9   3    0.76    4.16   0
   2  -9   3   33.43    4.79   0
  -2  -9  -3   42.02    5.27   0
  -2  -9  -3   37.86    4.38   0
   2  -9   3   45.53    4.20   0
  -2   9  -3   40.70    4.23   0
  -3   9  -3   15.47    4.11   0
  -3  -9  -3   11.97    3.95   0
   3  -9   3   11.04    3.99   0
   3  -9   3    5.88    4.63   0
   4  -9   3   14.51    4.87   0
  -4   9  -3   21.70    4.21   0
  -4  -9  -3   22.09    4.24   0
   4  -9   3    8.31    4.04   0
  -4  -9  -3    7.40    4.05   0
   5  -9   3    6.72    4.51   0
  -5  -9  -3    9.01    4.18   0
  -5   9  -3    6.98    4.34   0
   5  -9   3    8.16    4.07   0
  -5  -9  -3    4.53    4.04   0
  -6  -9  -3    4.51    4.32   0
  -6   9  -3    5.83    4.34   0
   6  -9   3    7.72    4.24   0
  -6  -9  -3    0.24    4.72   0
   6  -9   3    7.21    5.46   0
   7  -9   3   38.19    4.96   0
  -7  -9  -3   34.77    5.43   0
  -7   9  -3   36.95    4.50   0
   7  -9   3    4.07    4.38   0
  -7  -9  -3   33.23    4.86   0
  -5 -10   3    2.37    4.34   0
   5 -10  -3   -2.20    5.07   0
   4 -10  -3    6.39    5.64   0
  -4  10   3   -9.91    5.08   0
   4 -10  -3   39.69    5.00   0
  -4 -10   3   36.88    4.78   0
  -4 -10   3   34.55    4.84   0
   3 -10  -3    1.08    4.42   0
   3 -10  -3   15.67    4.90   0
  -3 -10   3   -2.08    4.53   0
  -3  10   3    5.63    4.96   0
  -3 -10   3   14.01    5.33   0
   2 -10  -3    4.77    5.06   0
  -2 -10   3   20.58    4.45   0
  -2 -10   3   12.78    4.85   0
  -2  10   3    4.74    4.74   0
   2 -10  -3    0.33    4.61   0
   1 -10  -3    5.91    5.09   0
   1 -10  -3    4.11    4.49   0
  -1 -10   3    8.11    4.47   0
  -1 -10   3    1.69    5.60   0
   0 -10  -3   65.97    4.67   0
   0 -10   3   56.51    4.86   0
   0 -10   3   59.26    5.18   0
   0 -10  -3   60.90    4.91   0
   1 -10   3    4.06    4.19   0
   1 -10   3    5.46    4.28   0
  -1 -10  -3    2.08    4.90   0
  -1  10  -3    1.23    4.43   0
  -1 -10  -3    4.58    4.30   0
  -2 -10  -3    0.68    4.31   0
   2 -10   3    7.59    4.92   0
  -2  10  -3    2.50    4.34   0
  -2 -10  -3   21.74    5.27   0
   2 -10   3    9.50    4.86   0
   3 -10   3    7.84    5.14   0
  -3  10  -3    1.71    4.44   0
  -3 -10  -3   10.46    4.28   0
   3 -10   3    4.39    4.47   0
   4 -10   3   -2.88    5.00   0
  -4 -10  -3   -0.91    4.72   0
  -4  10  -3   -0.26    4.38   0
   4 -10   3    0.96    4.23   0
  -4 -10  -3   -0.35    5.18   0
 -12   0   4    3.78    3.36   0
  12   0  -4   -0.64    3.69   0
  10   0  -4   18.84    3.41   0
 -10   0   4   26.79    3.67   0
   8   0  -4  683.62    7.23   0
  -8   0   4  723.77    7.18   0
  -6   0   4  486.44    6.49   0
   6   0  -4  473.66    6.36   0
   4   0  -4  135.98    4.77   0
  -4   0   4  137.99    4.74   0
   2   0  -4   60.79    5.08   0
  -2   0   4   60.87    4.97   0
   2   0   4 7349.82   34.53   0
  -2   0  -4 7220.16   34.15   0
  -4   0  -4  133.51    4.63   0
   4   0   4  134.63    4.67   0
  -6   0  -4    4.85    2.81   0
   6   0   4   12.66    3.09   0
  -8   0  -4   84.66    3.79   0
   8   0   4   78.19    3.88   0
 -10   0  -4  288.71    5.27   0
  10   0   4  263.25    5.05   0
 -12   0  -4   18.48    4.13   0
  12   0   4    1.95    4.34   0
  13   1  -4    9.58    4.45   0
 -13   1   4   10.79    4.25   0
  13  -1  -4   10.24    4.35   0
 -13  -1   4   17.24    4.21   0
 -12   1   4    6.71    4.14   0
 -12  -1   4    2.65    3.77   0
  12  -1  -4    0.20    4.17   0
  12   1  -4    2.71    3.63   0
  11  -1  -4   12.44    3.59   0
 -11   1   4   25.17    3.56   0
  11   1  -4   19.20    3.38   0
 -11  -1   4   20.86    3.41   0
  10   1  -4  142.05    4.42   0
 -10   1   4  164.54    4.52   0
  10  -1  -4  132.37    4.15   0
 -10  -1   4  160.56    4.52   0
  -9   1   4   93.11    3.84   0
  -9  -1   4   89.28    3.45   0
   9  -1  -4   73.25    3.84   0
   9   1  -4   81.54    3.54   0
  -8   1   4   30.73    3.19   0
   8   1  -4   22.46    3.22   0
  -8  -1   4   31.37    3.18   0
   8  -1  -4   28.57    3.20   0
   7  -1  -4  176.37    4.41   0
  -7   1   4  178.10    4.42   0
  -7  -1   4  196.53    4.39   0
   7   1  -4  176.60    4.52   0
  -6  -1   4  128.84    4.10   0
   6  -1  -4  117.45    4.14   0
  -6   1   4  119.91    4.10   0
   6   1  -4  117.86    4.08   0
   5   1  -4  521.00    7.07   0
  -5  -1   4  536.03    7.07   0
  -5   1   4  508.71    7.16   0
   5  -1  -4  529.62    7.24   0
  -4   1   4    4.17    3.02   0
  -4  -1   4    6.08    3.50   0
   4   1  -4    8.22    3.55   0
   4  -1  -4    5.93    3.05   0
   3   1  -4 4836.51   23.16   0
  -3  -1   4 4881.43   23.28   0
   3  -1  -4 4674.77   23.89   0
  -3   1   4 4702.77   24.14   0
  -2  -1   4  205.72    6.73   0
  -2   1   4  208.92    7.10   0
   2  -1  -4  212.83    7.18   0
   2  -1  -4  210.07    8.83   0
   2   1  -4  206.79   15.90   0
  -1   1   4 5158.15   31.53   0
   1  -1  -4 5734.83   43.86   0
  -1   1   4 5563.93   43.69   0
   1  -1  -4 5289.76   32.25   0
   0   1   4 1999.04   20.10   0
   0  -1  -4 1993.51   20.39   0
   0   1  -4 2000.72   20.34   0
   0  -1   4 1987.64   20.04   0
   0  -1  -4 2043.76   47.15   0
   1   1   4  312.49   11.37   0
   1  -1   4  291.39    7.84   0
  -1   1  -4  286.48    7.89   0
   2   1   4  686.94   11.63   0
   2  -1   4  659.40    9.88   0
  -2  -1  -4  689.09   11.58   0
  -2   1  -4  674.63    9.99   0
  -3  -1  -4   32.43    3.60   0
   3   1   4   29.05    3.63   0
   3  -1   4   34.85    3.70   0
  -3   1  -4   30.47    3.68   0
  -4   1  -4  127.66    4.58   0
  -4  -1  -4  118.13    4.63   0
   4  -1   4  110.96    4.43   0
   4   1   4  110.89    4.42   0
  -5   1  -4    1.62    2.92   0
   5  -1   4    0.74    2.79   0
  -5  -1  -4   -0.57    3.21   0
   5   1   4    1.04    3.24   0
   6   1   4  113.37    4.27   0
  -6   1  -4  111.53    3.83   0
   6  -1   4  107.40    3.72   0
  -6  -1  -4  114.19    4.02   0
   7  -1   4  191.75    4.44   0
   7   1   4  201.94    4.65   0
  -7  -1  -4  209.04    4.54   0
  -7   1  -4  218.82    4.39   0
   8   1   4   87.09    4.08   0
  -8   1  -4   92.76    3.66   0
   8  -1   4   90.87    3.62   0
  -8  -1  -4  103.16    3.79   0
  -9  -1  -4    0.45    3.26   0
   9  -1   4    0.51    2.75   0
  -9   1  -4    2.07    2.94   0
   9   1   4   -0.65    3.37   0
 -10  -1  -4    2.34    3.32   0
  10  -1   4   -0.36    3.23   0
 -10   1  -4   -1.74    3.08   0
  10   1   4    2.44    3.35   0
  11  -1   4   35.85    3.70   0
  11   1   4   41.58    3.82   0
 -11   1  -4   52.28    3.93   0
 -11  -1  -4   49.77    3.83   0
  12  -1   4    1.87    3.96   0
 -12   1  -4   11.43    3.50   0
  12   1   4   10.14    4.08   0
 -12  -1  -4   12.87    4.08   0
 -13   1  -4   20.95    4.35   0
  13  -1   4    4.88    4.22   0
 -13  -1  -4    7.68    4.48   0
  13   1   4    7.79    4.63   0
  13  -2  -4   -0.34    4.32   0
  13   2  -4    3.38    3.78   0
 -13  -2   4   -1.60    4.17   0
 -13   2   4    0.28    4.36   0
 -12   2   4    8.41    4.15   0
 -12  -2   4   -1.17    3.86   0
  12   2  -4    4.08    3.68   0
  12  -2  -4    3.96    3.89   0
 -11  -2   4   20.28    3.58   0
  11   2  -4   16.59    3.73   0
 -11   2   4   16.02    3.60   0
  11  -2  -4   16.83    3.60   0
 -10  -2   4   24.55    3.50   0
  10  -2  -4   25.39    3.46   0
  10   2  -4   26.97    3.62   0
 -10   2   4   23.63    3.48   0
  -9  -2   4   84.92    3.68   0
   9   2  -4   74.35    3.69   0
  -9   2   4   74.76    4.04   0
   9  -2  -4   70.11    3.65   0
  -8  -2   4  110.08    3.90   0
   8  -2  -4  106.46    3.87   0
  -8   2   4  115.70    4.06   0
   8   2  -4  114.51    4.07   0
  -7  -2   4    4.38    2.78   0
   7  -2  -4    9.84    2.90   0
  -7   2   4   13.89    3.00   0
   7   2  -4    9.43    2.91   0
  -6  -2   4   10.82    2.86   0
   6  -2  -4    9.64    2.93   0
  -6   2   4    7.75    3.21   0
   6   2  -4    3.89    2.83   0
   5   2  -4  382.18    6.18   0
   5  -2  -4  385.98    6.57   0
  -5   2   4  413.65    6.39   0
  -5  -2   4  399.66    6.20   0
  -4  -2   4   78.72    4.14   0
   4  -2  -4   69.97    4.67   0
  -4   2   4   77.58    4.39   0
   3  -2  -4    4.59    3.33   0
  -3  -2   4    1.08    3.20   0
  -3   2   4    5.11    3.73   0
   2  -2  -4   21.96    3.72   0
  -2  -2   4   19.31    9.87   0
   2  -2  -4   20.48    5.50   0
  -2   2   4   20.56    3.78   0
  -1  -2   4  421.63    7.61   0
  -1   2   4  419.67   10.36   0
  -1   2   4  410.50    9.39   0
   1  -2  -4  428.45    9.98   0
   1  -2  -4  434.00    9.08   0
   0   2   4 1065.77   17.43   0
   0  -2  -4 1076.26   17.38   0
   0   2   4 1052.75   13.35   0
   0  -2   4 1054.82   12.09   0
   0   2  -4 1055.92   12.16   0
   0  -2  -4 1024.93   12.87   0
   1  -2   4 1589.34   14.11   0
  -1   2  -4 1580.24   14.12   0
   1   2   4 1590.43   15.85   0
  -1  -2  -4 1566.55   15.87   0
  -2  -2  -4 1787.31   17.37   0
   2   2   4 1754.10   16.57   0
  -2   2  -4 1763.53   13.67   0
   2  -2   4 1726.43   13.53   0
  -3  -2  -4   -0.59    3.99   0
   3   2   4    1.57    3.15   0
   3  -2   4    2.02    2.99   0
  -3   2  -4    1.61    2.80   0
  -4   2  -4   21.49    3.26   0
  -4  -2  -4   20.87    3.70   0
   4  -2   4   21.22    3.23   0
   4   2   4   22.77    3.73   0
   5   2   4  399.35    6.85   0
   5  -2   4  372.85    5.80   0
  -5   2  -4  385.19    5.88   0
  -5  -2  -4  416.27    6.81   0
   6  -2   4    3.37    2.64   0
  -6  -2  -4    0.89    3.10   0
  -6   2  -4    2.72    2.55   0
   6   2   4    1.93    3.23   0
  -7  -2  -4   18.81    3.27   0
   7   2   4   14.65    3.62   0
   7  -2   4    9.47    2.87   0
  -7   2  -4   15.45    2.77   0
   8  -2   4   21.06    3.00   0
  -8   2  -4   24.77    3.10   0
   8   2   4   24.07    3.52   0
  -8  -2  -4   22.33    3.55   0
   9  -2   4   56.49    3.35   0
   9   2   4   47.66    4.09   0
  -9  -2  -4   61.26    4.06   0
  -9   2  -4   60.59    3.41   0
  10  -2   4   -0.19    3.20   0
  10   2   4   -1.65    3.47   0
 -10  -2  -4    1.70    3.43   0
 -10   2  -4   -1.20    3.24   0
  11   2   4   -2.49    3.59   0
  11  -2   4   -2.67    3.48   0
 -11  -2  -4   -1.20    3.56   0
 -11   2  -4    4.44    3.43   0
  12  -2   4    6.97    3.55   0
  12   2   4    1.37    3.70   0
 -12  -2  -4   16.13    4.25   0
 -12   2  -4   12.45    3.63   0
  12  -3  -4    2.14    3.86   0
 -12   3   4    2.37    3.87   0
 -12  -3   4   -1.09    3.73   0
 -11  -3   4    9.19    3.81   0
  11  -3  -4    4.60    3.94   0
 -11   3   4    7.75    3.88   0
  10  -3  -4   44.96    3.83   0
 -10  -3   4   40.14    3.57   0
 -10   3   4   39.15    3.70   0
  -9  -3   4    0.24    2.84   0
   9  -3  -4   -3.40    3.37   0
  -9   3   4   -2.47    3.47   0
   8  -3  -4   14.23    3.44   0
  -8  -3   4    8.62    3.10   0
  -8   3   4    9.05    3.46   0
  -7  -3   4  515.87    6.26   0
   7  -3  -4  527.63    6.83   0
  -7   3   4  544.48    6.86   0
   6  -3  -4    0.24    2.94   0
  -6   3   4   -0.95    2.95   0
  -6  -3   4    1.37    2.72   0
   5  -3  -4  950.15    8.81   0
   5   3  -4  949.11   25.00   0
  -5  -3   4  936.34    8.38   0
  -5   3   4  910.18    8.86   0
  -4  -3   4   35.89    3.70   0
  -4   3   4   34.14    3.87   0
   4  -3  -4   34.83    3.74   0
   3  -3  -4    3.18    4.90   0
   3  -3  -4    2.90    3.19   0
  -3   3   4    3.72    3.17   0
   2  -3  -4  334.83    7.05   0
  -2  -3   4  322.27   11.23   0
  -2   3   4  321.78    6.81   0
   2  -3  -4  405.61    8.60   0
  -2  -3   4  342.19    6.39   0
  -1  -3   4    3.41    3.26   0
  -1   3   4    1.12    3.78   0
   1  -3  -4    2.13    3.03   0
   1   3  -4    4.41    3.30   0
   1  -3  -4    2.99    4.17   0
   0  -3   4  829.46    9.36   0
   0   3   4  866.41   11.08   0
   0   3  -4  829.16    9.36   0
   0   3   4  832.84   11.63   0
   0  -3  -4  838.85   11.87   0
   0  -3  -4  829.51   10.22   0
   1   3   4  306.39    7.27   0
   1  -3   4  307.12    6.15   0
  -1  -3  -4  298.66    6.75   0
  -1  -3  -4  308.61    7.33   0
  -1   3  -4  299.48    5.94   0
   2   3   4   73.57    4.52   0
  -2  -3  -4   75.80    4.30   0
  -2   3  -4   74.82    4.02   0
   2  -3   4   78.68    4.08   0
  -3   3  -4   -1.53    3.02   0
  -3  -3  -4    2.41    3.80   0
   3  -3   4    1.92    2.97   0
   3   3   4   -0.43    3.23   0
   4   3   4  557.58    9.15   0
   4  -3   4  523.50    6.71   0
  -4   3  -4  540.76    6.69   0
  -4  -3  -4  597.17    7.98   0
  -5   3  -4   46.33    3.06   0
   5  -3   4   50.45    3.19   0
  -5  -3  -4   46.10    3.79   0
   5   3   4   47.87    3.85   0
  -6   3  -4  185.56    4.28   0
   6  -3   4  189.71    4.30   0
  -6  -3  -4  203.98    5.02   0
   6   3   4  188.01    4.95   0
  -7  -3  -4   91.43    4.32   0
   7  -3   4   84.55    3.49   0
  -7   3  -4   85.00    3.63   0
   7   3   4   84.86    4.44   0
  -8   3  -4  113.67    3.71   0
  -8  -3  -4  116.39    4.30   0
   8  -3   4   99.39    3.65   0
   8   3   4   92.17    4.24   0
  -9  -3  -4   11.56    3.63   0
   9  -3   4    8.66    3.09   0
  -9   3  -4   10.05    3.10   0
   9   3   4   10.82    3.81   0
  10  -3   4    6.20    3.37   0
 -10   3  -4    7.18    3.32   0
 -10  -3  -4   22.38    4.04   0
  10   3   4    7.70    3.90   0
 -11   3  -4   -1.04    3.79   0
 -11  -3  -4    2.10    4.10   0
  11  -3   4    3.81    3.58   0
  11   3   4    0.85    4.28   0
 -12  -3  -4   -0.69    4.37   0
  12  -3   4    0.43    3.71   0
  12   3   4   -1.08    4.51   0
 -12   3  -4    2.61    3.72   0
 -12  -4   4   44.29    4.62   0
  12   4  -4   34.74   11.48   0
  12  -4  -4   27.48    4.68   0
 -12   4   4   44.26    4.57   0
  12   4  -4   30.37   11.05   0
 -11  -4   4   17.91    4.24   0
 -11   4   4   -0.12    4.16   0
  11   4  -4   15.97    8.58   0
  11  -4  -4   14.96    3.93   0
  10  -4  -4  130.40    4.48   0
 -10  -4   4  144.07    4.50   0
  10   4  -4  118.97   10.77   0
 -10   4   4  133.17    4.81   0
  -9  -4   4  190.81    4.73   0
   9  -4  -4  170.22    5.05   0
   9   4  -4  171.97   11.88   0
  -9   4   4  197.30    5.09   0
   8   4  -4    7.08    8.32   0
   8  -4  -4   10.32    3.57   0
  -8   4   4    9.98    3.81   0
  -8  -4   4    3.97    2.92   0
   7   4  -4   53.82   11.82   0
  -7  -4   4   62.65    3.53   0
  -7   4   4   63.33    4.00   0
   7  -4  -4   54.03    3.87   0
   6  -4  -4   47.75    3.83   0
  -6   4   4   47.28    3.85   0
  -6  -4   4   55.77    3.49   0
   5  -4  -4  291.92    5.61   0
  -5   4   4  286.38    5.65   0
  -5  -4   4  277.17    5.07   0
   4  -4  -4  532.80    7.69   0
   4  -4  -4  522.62    7.11   0
  -4  -4   4  529.27    6.72   0
  -4   4   4  528.92    7.22   0
   3  -4  -4  210.91    5.54   0
  -3  -4   4  205.23    8.48   0
   3  -4  -4  220.81    6.19   0
  -3  -4   4  205.81    4.98   0
  -3   4   4  211.14    5.25   0
   2  -4  -4  127.09    4.99   0
  -2  -4   4  123.42    6.59   0
   2  -4  -4  143.92    5.61   0
  -2   4   4  129.67    4.75   0
  -2  -4   4  133.88    4.58   0
  -1  -4   4  124.28    7.06   0
   1   4  -4  122.25    4.77   0
  -1   4   4  122.89    4.94   0
  -1  -4   4  133.93    4.58   0
   1  -4  -4  117.56    5.33   0
   1  -4  -4  123.73    5.05   0
   0   4  -4   45.61    3.89   0
   0  -4   4   45.90    3.67   0
   0   4   4   44.98    4.03   0
   0  -4  -4   47.73    3.89   0
   0  -4  -4   41.71    4.97   0
   0   4   4   40.83    5.40   0
   1   4   4  130.99    5.86   0
  -1   4  -4  119.95    4.75   0
  -1  -4  -4  129.52    5.17   0
  -1  -4  -4  124.65    4.76   0
   1  -4   4  131.77    4.53   0
  -2   4  -4  237.31    5.23   0
   2  -4   4  246.55    5.25   0
   2   4   4  242.58    6.45   0
  -2  -4  -4  233.46    5.70   0
  -2  -4  -4  236.68    6.16   0
  -3  -4  -4  305.35    6.34   0
  -3   4  -4  298.51    5.43   0
   3  -4   4  291.76    5.28   0
   3   4   4  288.85    6.85   0
  -4   4  -4   15.20    3.06   0
  -4  -4  -4   17.64    3.76   0
   4   4   4   17.08    4.47   0
   4  -4   4   20.94    3.06   0
  -5  -4  -4  144.44    4.91   0
   5   4   4  145.64    5.60   0
  -5   4  -4  143.93    4.10   0
   5  -4   4  147.62    4.15   0
  -6   4  -4    3.34    2.98   0
  -6  -4  -4    2.24    3.57   0
   6  -4   4    0.38    2.99   0
   6   4   4    1.80    3.34   0
   7   4   4    6.13    4.11   0
  -7   4  -4    5.72    3.02   0
  -7  -4  -4    4.86    3.62   0
   7  -4   4    1.11    2.94   0
  -8   4  -4   34.75    3.39   0
   8  -4   4   27.82    3.29   0
  -8  -4  -4   35.60    3.92   0
  -9   4  -4    5.04    3.22   0
  -9  -4  -4    9.20    3.76   0
   9  -4   4    5.60    2.92   0
 -10   4  -4    1.46    3.06   0
  10  -4   4    4.25    3.28   0
 -10  -4  -4   -0.54    4.30   0
  11  -4   4    1.62    3.64   0
 -11  -4  -4   -0.18    4.16   0
 -11   4  -4    0.71    3.97   0
  12  -4   4    0.76    4.03   0
 -12  -4  -4    7.46    4.40   0
 -12   4  -4    4.64    4.23   0
 -11  -5   4   -5.05    3.96   0
  11  -5  -4    3.47    4.07   0
 -11   5   4    5.85    4.21   0
  11  -5  -4   -1.99    5.09   0
  10  -5  -4   -2.11    4.08   0
 -10   5   4    1.11    4.53   0
 -10  -5   4    2.54    3.94   0
  -9   5   4    7.17    3.86   0
   9  -5  -4    8.20    3.73   0
  -9  -5   4    4.43    3.32   0
   8  -5  -4   51.32    4.05   0
  -8  -5   4   51.77    3.66   0
  -8   5   4   52.04    4.06   0
  -7  -5   4   10.37    3.35   0
   7  -5  -4   12.12    3.60   0
  -7   5   4    6.83    3.65   0
   6  -5  -4   -4.28    4.30   0
  -6   5   4    0.45    4.08   0
  -6  -5   4    0.16    3.24   0
   6  -5  -4    1.22    3.36   0
   5  -5  -4   14.34    4.71   0
  -5   5   4   14.83    3.45   0
  -5  -5   4    9.73    3.26   0
  -5  -5   4    9.16    3.30   0
   5  -5  -4   15.43    3.89   0
   4  -5  -4   21.59    4.03   0
  -4  -5   4   20.92    3.27   0
   4  -5  -4   30.98    4.34   0
  -4  -5   4   19.85    3.23   0
  -4   5   4   16.04    3.60   0
   3  -5  -4  301.20    6.85   0
  -3  -5   4  271.16    5.09   0
  -3   5   4  281.73    6.08   0
   3  -5  -4  291.68    5.76   0
  -3  -5   4  274.74    7.81   0
   2  -5  -4  215.30    5.37   0
  -2  -5   4  199.29    6.77   0
  -2   5   4  212.34    5.40   0
  -2  -5   4  204.60    4.70   0
   2  -5  -4  203.66    5.64   0
   1   5  -4    4.55    3.03   0
  -1  -5   4    0.36    4.19   0
  -1  -5   4    2.21    3.05   0
   1  -5  -4    1.82    3.18   0
   1  -5  -4    2.65    3.82   0
  -1   5   4    6.47    3.28   0
   0  -5  -4  522.61    7.42   0
   0   5  -4  514.49    6.83   0
   0  -5   4  540.30    6.66   0
   0   5   4  537.76    8.06   0
   0  -5  -4  538.88    8.13   0
   1   5   4  495.30    8.58   0
  -1   5  -4  494.92    6.42   0
  -1  -5  -4  507.60    7.74   0
  -1  -5  -4  486.93    7.75   0
   1  -5   4  498.76    6.51   0
  -2  -5  -4  658.86    8.18   0
   2   5   4  643.82    9.63   0
   2  -5   4  659.17    7.05   0
  -2  -5  -4  648.22    8.25   0
  -2   5  -4  621.32    7.06   0
   3   5   4   50.76    5.49   0
  -3   5  -4   46.86    3.25   0
   3  -5   4   53.85    3.29   0
  -3  -5  -4   47.11    3.97   0
  -3  -5  -4   52.09    4.06   0
  -4  -5  -4   -1.70    4.42   0
   4   5   4    1.22    4.38   0
   4  -5   4   -0.81    2.86   0
  -4   5  -4    1.70    2.93   0
  -4  -5  -4    1.47    3.65   0
   5  -5   4  152.89    4.17   0
  -5  -5  -4  157.10    4.77   0
  -5   5  -4  144.36    4.47   0
   5   5   4  151.46    6.45   0
  -6  -5  -4   40.51    3.91   0
  -6   5  -4   50.84    3.52   0
   6   5   4   43.26    5.10   0
   6  -5   4   39.14    3.43   0
   7  -5   4  111.36    4.12   0
  -7   5  -4  114.76    4.17   0
  -7  -5  -4  128.46    4.73   0
   7   5   4  114.08    6.08   0
  -8   5  -4   28.89    3.33   0
   8  -5   4   20.91    2.99   0
  -8  -5  -4   32.51    4.49   0
   8   5   4   29.04    5.14   0
   9  -5   4   15.38    3.54   0
  -9  -5  -4   16.44    4.14   0
  -9   5  -4   21.79    3.71   0
   9   5   4   11.46    5.18   0
  10  -5   4   33.07    4.12   0
 -10   5  -4   46.70    4.48   0
  10   5   4   29.66    5.41   0
 -10  -5  -4   46.79    4.41   0
 -11   5  -4   27.68    4.28   0
 -11  -5  -4   41.25    4.75   0
  11  -5   4   32.43    4.18   0
  11   5   4   32.50    6.18   0
  11  -6  -4   -2.66    5.41   0
 -11  -6   4   10.64    4.51   0
  11  -6  -4    2.68    4.31   0
 -10   6   4    3.47    5.08   0
  10  -6  -4   25.81    4.32   0
 -10  -6   4   31.81    4.12   0
  10  -6  -4   -6.86    4.98   0
  -9   6   4    4.04    4.06   0
  -9  -6   4    1.51    3.63   0
   9  -6  -4    0.09    3.87   0
   9  -6  -4   -0.30    4.21   0
   8  -6  -4   35.88    4.24   0
  -8   6   4   41.68    4.32   0
   8  -6  -4    0.80    4.55   0
  -8  -6   4   42.27    3.59   0
   7  -6  -4   -9.04    4.32   0
   7  -6  -4    0.25    3.40   0
  -7   6   4   -1.23    4.02   0
  -7  -6   4   -1.81    3.38   0
  -7  -6   4   -0.25    3.35   0
  -6   6   4   12.00    3.59   0
  -6  -6   4    8.73    3.61   0
  -6  -6   4    8.95    3.71   0
   6  -6  -4   14.15    3.63   0
   6  -6  -4    8.97    3.94   0
  -5  -6   4  319.78    5.76   0
  -5   6   4  328.92    5.86   0
   5  -6  -4  309.41    5.82   0
  -5  -6   4  316.13    5.83   0
   5  -6  -4  293.03    5.91   0
  -4  -6   4    9.40    3.38   0
   4  -6  -4    4.50    4.68   0
  -4   6   4    1.85    3.38   0
   4  -6  -4    5.93    3.80   0
   3  -6  -4    1.29    4.41   0
  -3   6   4    2.78    3.74   0
  -3  -6   4    4.72    4.12   0
  -3  -6   4    6.12    3.20   0
   3  -6  -4    6.41    3.15   0
  -2  -6   4   35.23    3.43   0
  -2  -6   4   24.38    4.64   0
   2  -6  -4   28.97    4.50   0
   2  -6  -4   26.76    3.70   0
  -2   6   4   29.39    3.70   0
   1  -6  -4  218.72    5.60   0
   1  -6  -4  229.30    6.03   0
  -1  -6   4  220.60    4.96   0
  -1   6   4  227.92    5.45   0
  -1  -6   4  206.36    6.45   0
   0  -6  -4    3.65    3.85   0
   0   6   4    2.70    3.53   0
   0   6  -4    0.66    3.12   0
   0  -6  -4    3.79    3.96   0
   0  -6   4   10.40    5.61   0
   0  -6   4    0.98    2.92   0
   1  -6   4    7.88    3.10   0
  -1  -6  -4   15.39    4.39   0
  -1  -6  -4   11.93    4.29   0
  -1   6  -4   15.02    3.48   0
  -2   6  -4   75.56    3.73   0
  -2  -6  -4   68.20    4.87   0
   2  -6   4   65.55    3.74   0
  -2  -6  -4   64.96    4.13   0
   3  -6   4   14.74    3.20   0
  -3  -6  -4   11.93    3.62   0
  -3   6  -4   15.53    3.25   0
   3   6   4   13.57    4.79   0
  -3  -6  -4   14.48    3.54   0
  -4   6  -4    1.56    3.18   0
  -4  -6  -4    2.86    3.62   0
   4   6   4    4.53    5.52   0
  -4  -6  -4    2.54    3.52   0
   4  -6   4    3.18    3.08   0
  -5  -6  -4  202.26    5.70   0
  -5   6  -4  218.86    4.86   0
   5   6   4  196.71    7.39   0
  -5  -6  -4  222.04    5.39   0
   5  -6   4  200.30    4.81   0
  -6  -6  -4    8.23    3.80   0
   6   6   4    7.16    4.84   0
  -6   6  -4   13.99    3.74   0
   6  -6   4   12.84    3.53   0
   7   6   4    1.30    5.07   0
  -7  -6  -4    0.86    3.89   0
  -7   6  -4    4.17    3.62   0
   7  -6   4    5.23    3.46   0
   8   6   4  118.86    6.92   0
  -8   6  -4  136.66    4.36   0
   8  -6   4  128.13    4.32   0
  -8  -6  -4  138.67    5.41   0
  -9   6  -4    4.20    3.49   0
   9  -6   4    2.74    3.70   0
   9   6   4    3.17    5.48   0
  -9  -6  -4    4.38    4.40   0
 -10  -6  -4    7.49    4.45   0
 -10   6  -4    7.25    3.62   0
  10  -6   4    2.09    3.92   0
  10   6   4    9.41    5.87   0
  10  -7  -4   -1.71    5.21   0
  10  -7  -4    4.45    4.21   0
 -10   7   4    0.16    4.26   0
 -10  -7   4    4.31    4.50   0
 -10  -7   4    8.32    4.58   0
   9  -7  -4    1.35    4.28   0
   9  -7  -4    0.99    4.12   0
  -9  -7   4    2.17    4.15   0
  -9  -7   4    3.64    4.25   0
  -9   7   4    5.86    4.31   0
  -8   7   4    3.34    4.47   0
  -8  -7   4    2.19    4.09   0
  -8  -7   4    2.26    4.26   0
   8  -7  -4   -2.25    4.48   0
   7  -7  -4    1.21    4.10   0
  -7  -7   4   -3.19    3.95   0
  -7   7   4    3.04    3.86   0
   7  -7  -4   -2.52    4.38   0
  -7  -7   4   -0.21    3.76   0
  -6   7   4   85.77    4.82   0
   6  -7  -4   78.56    4.92   0
  -6  -7   4   76.42    4.61   0
  -6  -7   4   78.69    4.58   0
   6  -7  -4   89.48    4.38   0
  -5  -7   4    3.56    3.60   0
   5  -7  -4    9.39    3.53   0
   5  -7  -4    7.09    4.36   0
  -5   7   4    7.16    3.50   0
  -5  -7   4   11.38    3.55   0
  -4   7   4    3.23    3.57   0
  -4  -7   4    6.22    3.74   0
   4  -7  -4    4.72    3.51   0
   4  -7  -4   -3.62    4.57   0
   3  -7  -4  412.30    7.04   0
  -3   7   4  422.03    6.52   0
  -3  -7   4  428.68    6.31   0
   3  -7  -4  399.82    6.51   0
  -3  -7   4  397.67    8.71   0
  -2  -7   4   10.10    3.76   0
   2  -7  -4    8.56    3.31   0
   2  -7  -4   12.74    4.43   0
  -2  -7   4    5.58    4.60   0
  -2   7   4    6.87    3.80   0
  -1   7   4  107.00    4.79   0
   1  -7  -4  110.72    4.44   0
  -1  -7   4  105.52    4.40   0
  -1  -7   4   96.88    5.01   0
   1  -7  -4  109.15    4.98   0
   0  -7  -4    3.32    4.00   0
   0   7   4    0.05    3.54   0
   0  -7  -4    5.31    3.90   0
   0   7  -4   -1.72    3.57   0
   0  -7   4   -0.96    4.37   0
   0  -7   4    2.28    3.47   0
  -1  -7  -4   37.49    3.74   0
  -1   7  -4   33.55    3.84   0
  -1  -7  -4   35.09    4.58   0
   1  -7   4   34.81    5.21   0
   1  -7   4   32.70    3.75   0
  -2  -7  -4  226.72    6.06   0
   2  -7   4  245.62    5.30   0
   2  -7   4  237.81    6.69   0
  -2   7  -4  239.79    5.40   0
  -2  -7  -4  229.37    5.28   0
   3  -7   4  397.27    6.32   0
  -3  -7  -4  413.22    6.59   0
  -3   7  -4  426.53    6.25   0
   4  -7   4   30.74    3.84   0
  -4   7  -4   31.68    3.83   0
  -4  -7  -4   32.38    3.84   0
  -4  -7  -4   30.54    4.47   0
   5  -7   4    9.59    3.48   0
   5   7   4   12.26    5.35   0
  -5   7  -4   11.99    3.68   0
  -5  -7  -4   14.61    4.26   0
  -5  -7  -4    6.50    3.75   0
  -6  -7  -4    4.30    3.92   0
   6   7   4    6.61    5.71   0
  -6  -7  -4    7.22    4.34   0
  -6   7  -4    6.69    3.57   0
   6  -7   4    7.57    3.65   0
  -7   7  -4    6.61    3.73   0
  -7  -7  -4   12.27    3.90   0
   7  -7   4    2.93    3.42   0
   7   7   4    8.84    5.91   0
  -7  -7  -4    5.48    4.62   0
  -8  -7  -4    1.18    3.82   0
  -8   7  -4    0.74    3.39   0
  -8  -7  -4   -0.25    3.98   0
   8   7   4    1.38    5.71   0
   8  -7   4    3.53    3.54   0
  -9  -7  -4    1.54    4.44   0
  -9   7  -4    3.29    3.62   0
   9   7   4    1.44    6.80   0
   9  -7   4    3.26    3.93   0
  -8  -8   4   29.88    4.44   0
   8  -8  -4    5.09    4.59   0
   8  -8  -4   12.21    4.68   0
  -8  -8   4   32.67    4.58   0
  -8   8   4    3.29    4.59   0
   7  -8  -4    0.00    4.13   0
   7  -8  -4    0.41    4.26   0
  -7   8   4   -0.15    4.24   0
  -7  -8   4    4.21    4.14   0
  -7  -8   4   -0.32    4.17   0
  -6   8   4    8.24    4.33   0
   6  -8  -4    2.06    4.79   0
   6  -8  -4   12.04    3.76   0
  -6  -8   4   16.66    3.95   0
  -6  -8   4   10.91    4.11   0
  -5  -8   4   34.37    4.13   0
   5  -8  -4   36.01    4.73   0
  -5   8   4   35.21    4.50   0
   5  -8  -4   33.50    4.40   0
  -5  -8   4   19.82    4.12   0
   4  -8  -4    3.98    4.09   0
  -4   8   4    0.80    4.15   0
  -4  -8   4   -0.62    3.85   0
   4  -8  -4    1.90    3.66   0
   3  -8  -4   12.00    4.46   0
  -3  -8   4    1.08    4.61   0
  -3  -8   4    2.06    3.64   0
  -3   8   4   -0.14    4.12   0
   3  -8  -4    2.44    3.55   0
  -2  -8   4    2.71    4.32   0
  -2  -8   4    1.20    3.77   0
  -2   8   4    0.62    3.52   0
   2  -8  -4    6.93    4.89   0
   2  -8  -4    2.81    3.56   0
  -1  -8   4  210.30    5.90   0
  -1   8   4  204.90    5.43   0
  -1  -8   4  231.63    5.55   0
   1  -8  -4  208.58    5.69   0
   1  -8  -4  235.75    5.53   0
   0  -8   4    7.50    4.65   0
   0  -8  -4    3.84    3.78   0
   0  -8   4    2.24    3.68   0
   0  -8  -4    2.50    4.04   0
   0   8  -4    5.67    3.75   0
  -1   8  -4  284.23    5.65   0
   1  -8   4  297.65    5.74   0
   1  -8   4  274.03    6.76   0
  -1  -8  -4  286.25    5.88   0
  -1  -8  -4  279.86    6.06   0
   2  -8   4   -0.04    3.68   0
  -2   8  -4    3.83    3.84   0
   2  -8   4   -1.81    5.10   0
  -2  -8  -4   -0.12    3.56   0
  -2  -8  -4    1.39    3.52   0
   3  -8   4   22.82    3.96   0
  -3  -8  -4   17.34    3.78   0
   3  -8   4   20.10    4.90   0
  -3   8  -4   19.46    3.87   0
   4  -8   4    7.15    5.10   0
  -4   8  -4   16.68    3.93   0
  -4  -8  -4    5.11    4.52   0
  -4  -8  -4    6.70    3.80   0
   4  -8   4   10.80    3.98   0
  -5  -8  -4   28.66    4.35   0
  -5   8  -4   48.14    4.01   0
  -5  -8  -4   43.37    4.63   0
   5  -8   4   49.31    4.05   0
   6  -8   4    4.32    3.70   0
  -6  -8  -4   -1.19    3.90   0
  -6  -8  -4    0.49    3.92   0
  -6   8  -4   -1.27    3.86   0
   7  -8   4    1.12    4.03   0
  -7   8  -4    6.96    4.12   0
  -7  -8  -4    7.83    4.20   0
  -7  -8  -4    5.48    4.34   0
   8  -8   4   -2.10    4.20   0
  -8  -8  -4    0.67    4.62   0
  -8   8  -4    6.13    3.98   0
  -8  -8  -4    0.86    4.29   0
   7  -9  -4   -3.27    4.52   0
   7  -9  -4    2.77    5.00   0
  -7  -9   4   13.54    4.33   0
  -7  -9   4    9.19    4.39   0
  -7   9   4    4.51    5.03   0
   6  -9  -4   13.13    4.88   0
  -6  -9   4   12.57    4.44   0
   6  -9  -4   17.12    4.28   0
  -6  -9   4   21.88    4.43   0
  -6   9   4    1.48    4.60   0
   5  -9  -4   55.33    5.11   0
  -5   9   4   43.14    4.16   0
  -5  -9   4   47.90    4.72   0
  -5  -9   4   59.69    4.61   0
   5  -9  -4   38.50    4.13   0
  -4   9   4    0.13    4.17   0
   4  -9  -4    1.27    4.22   0
  -4  -9   4    4.21    4.18   0
   4  -9  -4    1.51    4.63   0
  -3  -9   4   17.20    3.96   0
  -3  -9   4   14.51    4.48   0
  -3   9   4    5.69    4.02   0
   3  -9  -4    3.17    4.29   0
   3  -9  -4   13.29    4.27   0
  -2  -9   4    2.30    4.49   0
  -2   9   4    2.51    4.69   0
   2  -9  -4    6.19    4.32   0
  -2  -9   4    4.03    3.85   0
   2  -9  -4    2.60    4.37   0
   1  -9  -4   -1.05    3.65   0
  -1  -9   4    1.27    3.78   0
  -1   9   4   -1.64    4.33   0
  -1  -9   4    0.32    4.58   0
   1  -9  -4    0.97    4.36   0
   0  -9  -4   -1.20    4.48   0
   0  -9  -4   -1.53    4.24   0
   0  -9   4    2.83    3.92   0
   0  -9   4    5.17    4.26   0
  -1   9  -4    1.46    3.87   0
  -1  -9  -4   -4.56    3.82   0
  -1  -9  -4   -2.62    4.04   0
   1  -9   4    0.68    4.36   0
   1  -9   4    0.21    3.72   0
  -2  -9  -4   55.14    4.42   0
  -2   9  -4   64.17    4.39   0
   2  -9   4   71.85    4.49   0
  -2  -9  -4   58.21    5.15   0
   2  -9   4   65.66    4.94   0
  -3  -9  -4   21.83    4.52   0
  -3   9  -4   14.66    4.14   0
   3  -9   4   15.62    4.78   0
   3  -9   4   15.89    4.04   0
  -4   9  -4   41.52    4.40   0
   4  -9   4   25.15    4.88   0
  -4  -9  -4   42.53    4.11   0
   4  -9   4   36.29    4.31   0
  -4  -9  -4   34.29    4.64   0
  -5   9  -4   46.26    4.83   0
  -5  -9  -4   40.16    4.22   0
   5  -9   4   12.88    5.49   0
   5  -9   4   37.67    4.43   0
  -5  -9  -4   32.68    4.59   0
  -6  -9  -4   45.39    5.44   0
  -6  -9  -4   45.32    5.03   0
   6  -9   4   43.74    4.54   0
  -6   9  -4   38.02    4.54   0
   6  -9   4   19.63    6.00   0
  -7   9  -4   17.14    4.58   0
  -7  -9  -4   10.85    4.93   0
   7  -9   4    5.27    5.50   0
  -7  -9  -4   14.64    4.86   0
   7  -9   4    2.98    4.34   0
  -4 -10   4   13.46    4.56   0
  -4  10   4   -5.43    4.63   0
   4 -10  -4   20.60    5.10   0
   4 -10  -4   12.56    4.87   0
   3 -10  -4    0.28    4.46   0
  -3 -10   4    1.51    4.73   0
  -3  10   4   -3.05    4.53   0
   3 -10  -4    8.81    5.03   0
  -3 -10   4   23.87    5.63   0
   2 -10  -4   -4.09    5.01   0
  -2  10   4    8.84    4.69   0
   2 -10  -4   11.10    5.27   0
  -2 -10   4   47.53    4.78   0
  -2 -10   4   38.48    5.54   0
   1 -10  -4    3.69    4.58   0
  -1 -10   4    7.47    4.30   0
  -1 -10   4    3.07    5.08   0
   1 -10  -4    3.11    4.73   0
   0 -10  -4   -2.81    3.94   0
   0 -10   4   -3.38    5.48   0
   0 -10   4    0.29    4.28   0
   0 -10  -4   -0.77    4.59   0
   1 -10   4    1.68    4.18   0
  -1  10  -4   -1.28    4.40   0
   1 -10   4    0.90    4.29   0
  -1 -10  -4    6.49    4.06   0
  -1 -10  -4   -2.13    4.65   0
  -2 -10  -4    0.21    4.48   0
   2 -10   4    0.64    4.28   0
   2 -10   4    0.21    4.64   0
  -2  10  -4    4.29    4.31   0
  -2 -10  -4    5.79    5.07   0
  -3 -10  -4    7.00    4.95   0
  -3  10  -4    8.56    4.97   0
   3 -10   4    9.38    4.96   0
  -3 -10  -4    4.54    4.82   0
   3 -10   4    1.17    4.35   0
  -4 -10  -4   47.79    5.33   0
  -4  10  -4   45.59    5.05   0
   4 -10   4   39.08    5.32   0
   4 -10   4   37.87    4.63   0
  -4 -10  -4   42.97    5.21   0
  13   0  -5   -2.55    4.13   0
 -13   0   5    2.51    4.22   0
  11   0  -5   20.13    3.56   0
 -11   0   5   21.17    3.55   0
   9   0  -5  713.74    7.43   0
  -9   0   5  751.12    7.25   0
  -7   0   5  170.59    4.51   0
   7   0  -5  162.65    4.40   0
   5   0  -5  623.62    7.78   0
  -5   0   5  653.18    7.85   0
   3   0  -5   98.35    4.77   0
  -3   0   5  106.21    4.87   0
  -1   0   5 5348.69   37.06   0
  -1   0   5 5436.32   39.58   0
   1   0   5 6749.70   41.25   0
  -3   0  -5 1983.05   15.41   0
   3   0   5 2001.72   15.82   0
   5   0   5   -0.01    3.23   0
  -5   0  -5    2.11    3.25   0
  -7   0  -5   72.69    3.50   0
   7   0   5   70.84    3.59   0
  -9   0  -5  205.08    4.79   0
   9   0   5  190.64    4.75   0
 -11   0  -5   80.05    4.16   0
  11   0   5   65.56    4.18   0
  13   0   5    7.17    4.20   0
 -13   0  -5   41.35    4.68   0
  13  -1  -5    3.05    4.21   0
  13   1  -5    2.39    4.30   0
 -13  -1   5    4.87    3.76   0
 -13   1   5    0.95    4.24   0
 -12   1   5  109.50    4.87   0
 -12  -1   5  113.35    4.81   0
  12   1  -5   95.87    4.81   0
  12  -1  -5   93.37    4.86   0
 -11   1   5   19.76    3.67   0
  11  -1  -5   26.03    3.82   0
 -11  -1   5   21.69    3.78   0
  11   1  -5   17.52    3.45   0
 -10  -1   5   96.04    4.05   0
  10  -1  -5   86.17    3.96   0
  10   1  -5   95.24    4.40   0
 -10   1   5  105.15    4.11   0
   9   1  -5   23.14    3.32   0
   9  -1  -5   22.72    3.35   0
  -9   1   5   25.32    3.36   0
  -9  -1   5   23.08    3.37   0
   8  -1  -5   51.29    3.23   0
  -8  -1   5   51.39    3.30   0
  -8   1   5   48.00    3.42   0
   8   1  -5   45.38    3.48   0
   7  -1  -5  102.45    3.66   0
   7   1  -5   99.79    3.74   0
  -7   1   5  102.26    3.81   0
  -7  -1   5   93.19    3.62   0
  -6  -1   5  165.56    4.28   0
  -6   1   5  162.25    4.42   0
   6   1  -5  159.52    4.39   0
   6  -1  -5  156.03    4.40   0
  -5  -1   5    1.57    2.94   0
   5   1  -5    3.26    3.18   0
  -5   1   5   -0.29    3.27   0
   5  -1  -5    3.17    3.27   0
   4   1  -5  349.12    6.52   0
  -4   1   5  324.64    6.39   0
  -4  -1   5  355.84    6.46   0
   4  -1  -5  348.38    6.62   0
   3  -1  -5 2322.16   17.22   0
  -3   1   5 2394.15   17.33   0
  -3  -1   5 2319.92   16.14   0
   3   1  -5 2339.88   16.33   0
   3   1  -5 2289.17   31.10   0
   3  -1  -5 2354.90   19.09   0
   2  -1  -5  172.68    6.61   0
   2  -1  -5  163.71    7.40   0
  -2  -1   5  155.00   13.22   0
  -2   1   5  162.59    7.08   0
  -2  -1   5  161.77    6.04   0
  -1  -1   5  297.77    8.03   0
  -1   1   5  301.75   11.96   0
   1  -1  -5  297.43    8.52   0
  -1   1   5  291.18    8.57   0
   1  -1  -5  315.70   11.93   0
   0   1   5 2591.68   21.51   0
   0   1  -5 2550.54   21.71   0
   0  -1  -5 2591.06   21.63   0
   0  -1   5 2567.01   21.73   0
  -1   1  -5   86.44    5.26   0
   1   1   5   90.15    7.46   0
   1  -1   5   80.48    5.07   0
  -2   1  -5  226.15    6.26   0
   2   1   5  225.95    7.78   0
   2  -1   5  228.38    6.26   0
   3   1   5  373.42    7.56   0
   3  -1   5  389.21    6.92   0
  -3  -1  -5  392.29    7.53   0
  -3   1  -5  389.73    6.93   0
  -4   1  -5  138.64    4.61   0
   4  -1   5  136.48    4.59   0
   4   1   5  132.42    4.84   0
  -4  -1  -5  137.49    4.81   0
  -5   1  -5   91.00    3.92   0
   5   1   5   86.51    4.09   0
  -5  -1  -5   91.11    4.07   0
   5  -1   5   89.78    3.79   0
   6   1   5   14.36    3.08   0
   6  -1   5   14.05    2.87   0
  -6  -1  -5   12.62    3.05   0
  -6   1  -5   16.85    2.85   0
  -7  -1  -5   27.88    3.06   0
   7   1   5   18.70    3.12   0
   7  -1   5   21.42    2.81   0
  -7   1  -5   25.06    2.80   0
   8  -1   5   86.49    3.81   0
  -8   1  -5   93.48    3.80   0
  -8  -1  -5  108.17    3.93   0
   8   1   5   86.22    3.83   0
   9  -1   5    5.77    3.05   0
   9   1   5    3.98    3.51   0
  -9   1  -5    6.72    3.07   0
  -9  -1  -5    9.55    3.69   0
 -10   1  -5   32.73    3.56   0
 -10  -1  -5   23.57    3.60   0
  10   1   5   20.87    3.62   0
  10  -1   5   22.16    3.31   0
 -11   1  -5   10.47    3.28   0
  11   1   5    6.71    3.51   0
 -11  -1  -5    7.98    3.53   0
  11  -1   5    5.97    3.41   0
 -12  -1  -5   -1.24    3.97   0
  12  -1   5   -0.46    3.92   0
 -12   1  -5   -5.20    3.64   0
  12   1   5    1.93    4.12   0
 -13   1  -5   14.43    4.36   0
 -13  -1  -5    5.49    4.56   0
  13   1   5    6.52    3.93   0
  13   2  -5   -1.52    6.05   0
  13  -2  -5   -0.25    4.38   0
 -13  -2   5   -1.11    3.55   0
 -13   2   5    2.50    4.39   0
  13   2  -5    2.28    4.09   0
  12  -2  -5   -0.93    3.89   0
 -12  -2   5    3.55    3.46   0
  12   2  -5    0.49    3.59   0
 -12   2   5    4.24    3.92   0
 -11   2   5    5.45    3.54   0
 -11  -2   5    9.17    3.62   0
  11   2  -5    3.17    3.65   0
  11  -2  -5    4.31    3.61   0
  10  -2  -5   28.34    3.71   0
 -10  -2   5   27.25    3.37   0
 -10   2   5   26.13    3.44   0
  10   2  -5   23.61    3.61   0
   9   2  -5  221.22    4.58   0
   9  -2  -5  215.31    5.12   0
  -9  -2   5  254.67    4.82   0
  -9   2   5  228.93    5.19   0
  -8  -2   5  368.63    5.40   0
   8  -2  -5  360.93    5.66   0
   8   2  -5  317.40    5.50   0
  -8   2   5  356.71    5.68   0
   7  -2  -5  281.49    5.13   0
   7   2  -5  248.40    4.89   0
  -7   2   5  282.51    5.19   0
  -7  -2   5  288.27    4.83   0
   6   2  -5   21.58    3.01   0
  -6  -2   5   18.00    2.96   0
   6  -2  -5   25.68    3.20   0
  -6   2   5   22.82    3.32   0
  -5  -2   5  102.42    4.10   0
   5  -2  -5  107.34    4.16   0
  -5   2   5  106.07    4.26   0
  -4  -2   5  201.85    5.17   0
  -4   2   5  194.33    5.42   0
   4   2  -5  191.67   16.98   0
   4  -2  -5  186.32    5.34   0
  -3   2   5  123.32    5.30   0
   3  -2  -5  117.79    4.72   0
   3  -2  -5  134.23    6.09   0
  -3  -2   5  126.38    4.73   0
  -2   2   5 3274.89   22.96   0
   2  -2  -5 3287.18   22.89   0
  -2  -2   5 3075.58   63.96   0
   2  -2  -5 3487.82   21.44   0
  -1   2   5  106.60    6.53   0
  -1   2   5  104.75    5.06   0
  -1  -2   5  110.95    4.94   0
   1  -2  -5  111.00    5.73   0
   1  -2  -5  115.47    6.63   0
   0  -2   5   67.36    4.52   0
   0   2   5   67.15    6.47   0
   0   2  -5   79.48    4.66   0
   0  -2  -5   61.78    4.77   0
   0   2   5   68.62    5.37   0
   0  -2  -5   65.99    6.31   0
   1   2   5  498.49    8.94   0
   1  -2   5  478.01    7.96   0
  -1   2  -5  482.38    8.02   0
   2   2   5  429.71    8.06   0
  -2   2  -5  399.90    6.99   0
   2  -2   5  420.79    7.11   0
  -3   2  -5   19.84    3.40   0
  -3  -2  -5   18.57    4.12   0
   3   2   5   16.52    3.38   0
   3  -2   5   19.17    3.43   0
   4   2   5   26.36    3.73   0
  -4   2  -5   22.30    3.24   0
   4  -2   5   23.78    3.23   0
  -4  -2  -5   21.56    4.16   0
  -5   2  -5  326.98    5.42   0
   5  -2   5  329.35    5.47   0
   5   2   5  324.68    6.05   0
  -5  -2  -5  345.05    6.08   0
   6   2   5  122.84    4.39   0
  -6   2  -5  115.38    3.73   0
   6  -2   5  121.16    3.70   0
  -6  -2  -5  127.20    4.33   0
   7   2   5  102.71    4.66   0
  -7   2  -5   94.47    3.74   0
   7  -2   5   98.72    3.65   0
  -7  -2  -5  110.53    4.32   0
   8   2   5   78.02    4.14   0
  -8   2  -5   69.52    3.44   0
   8  -2   5   67.67    3.42   0
  -8  -2  -5   72.48    4.11   0
   9   2   5   62.54    4.33   0
   9  -2   5   62.93    3.36   0
  -9  -2  -5   60.19    4.24   0
  -9   2  -5   53.46    3.32   0
 -10   2  -5   -0.60    3.18   0
 -10  -2  -5    4.66    3.89   0
  10   2   5    4.58    3.72   0
  10  -2   5    0.07    2.91   0
  11   2   5    1.05    4.03   0
 -11  -2  -5    0.94    3.54   0
 -11   2  -5    2.33    3.37   0
  11  -2   5    5.38    3.55   0
  12   2   5   10.97    4.14   0
 -12  -2  -5    8.03    4.10   0
  12  -2   5    9.47    3.42   0
 -12   2  -5   13.91    3.65   0
  12  -3  -5    2.59    3.90   0
 -12   3   5    5.95    4.02   0
  12   3  -5    3.49    7.34   0
 -12  -3   5   -0.01    3.83   0
  11  -3  -5    4.66    4.01   0
 -11  -3   5    2.64    3.75   0
 -11   3   5    9.15    3.93   0
 -10  -3   5    5.20    3.32   0
  10  -3  -5    7.24    3.61   0
 -10   3   5    3.49    3.63   0
   9  -3  -5  229.84    5.35   0
  -9  -3   5  230.24    4.84   0
  -9   3   5  238.42    5.41   0
  -8   3   5  114.82    4.62   0
   8  -3  -5  115.11    4.47   0
  -8  -3   5  119.47    3.81   0
   7  -3  -5   42.45    3.89   0
  -7  -3   5   45.74    3.40   0
  -7   3   5   46.48    4.02   0
  -6  -3   5  217.65    4.52   0
   6  -3  -5  213.77    4.78   0
  -6   3   5  214.78    4.93   0
   6   3  -5  215.05   13.31   0
  -5   3   5   91.54    4.12   0
   5  -3  -5  105.66    4.16   0
  -5  -3   5   87.65    3.72   0
   4  -3  -5 1694.12   12.66   0
  -4  -3   5 1704.28   11.54   0
   4  -3  -5 1797.50   12.62   0
  -4   3   5 1797.10   12.72   0
   3  -3  -5 1849.25   14.13   0
   3  -3  -5 1759.80   13.67   0
  -3   3   5 1746.93   13.58   0
  -2   3   5  765.10   10.37   0
  -2  -3   5  777.60    8.68   0
   2  -3  -5  760.83    9.98   0
   2  -3  -5  824.31   10.43   0
  -2  -3   5  709.40   16.52   0
   1  -3  -5    5.85    3.92   0
  -1  -3   5    6.69    3.23   0
   1   3  -5    6.65    3.15   0
  -1   3   5    6.82    4.59   0
  -1   3   5    4.46    3.13   0
   1  -3  -5    6.48    3.92   0
   0   3  -5   57.64    3.91   0
   0  -3  -5   59.77    4.52   0
   0  -3   5   63.81    4.04   0
   0  -3  -5   64.04    5.17   0
   0   3   5   58.12    5.04   0
   0   3   5   56.41    5.15   0
   1  -3   5   47.31    3.90   0
  -1   3  -5   51.27    3.88   0
  -1  -3  -5   57.39    4.38   0
   1   3   5   51.34    4.35   0
  -1  -3  -5   53.72    4.36   0
   2   3   5   31.22    4.62   0
  -2   3  -5   25.69    3.47   0
  -2  -3  -5   28.56    3.80   0
   2  -3   5   22.34    3.42   0
  -3  -3  -5  102.00    4.58   0
   3   3   5   99.73    4.65   0
  -3   3  -5   96.67    4.03   0
   3  -3   5  100.47    4.03   0
  -4   3  -5   28.70    3.57   0
  -4  -3  -5   24.55    3.70   0
   4  -3   5   24.81    3.10   0
   5  -3   5   92.25    3.58   0
  -5  -3  -5  101.54    4.34   0
   5   3   5  105.01    4.47   0
  -5   3  -5   98.92    3.64   0
   6  -3   5  522.54    6.09   0
  -6  -3  -5  591.51    7.33   0
   6   3   5  531.87    7.48   0
  -6   3  -5  551.29    6.18   0
  -7   3  -5  101.32    3.72   0
  -7  -3  -5  105.85    4.51   0
   7  -3   5   95.04    3.93   0
   7   3   5   88.86    4.61   0
  -8   3  -5    5.79    2.77   0
  -8  -3  -5   10.63    3.79   0
   8  -3   5    6.16    2.61   0
   8   3   5    7.45    3.78   0
   9   3   5    3.00    3.83   0
  -9  -3  -5   -1.59    3.58   0
   9  -3   5    0.11    3.02   0
  -9   3  -5    2.31    3.15   0
 -10   3  -5    6.87    3.45   0
  10   3   5    1.53    4.07   0
  10  -3   5    2.51    3.38   0
 -10  -3  -5    7.92    3.85   0
  11  -3   5    3.66    3.42   0
 -11  -3  -5    3.18    4.18   0
 -11   3  -5    1.88    3.21   0
  11   3   5    2.89    4.03   0
  12  -3   5   14.17    3.44   0
 -12   3  -5   13.95    3.77   0
 -12  -3  -5    1.07    4.29   0
  12   3   5    6.77    4.46   0
 -12  -4   5   14.93    4.21   0
  12  -4  -5   10.49    4.45   0
 -12   4   5   -2.21    4.36   0
 -11  -4   5    6.39    4.02   0
  11  -4  -5    4.52    4.02   0
 -11   4   5   -0.50    4.22   0
 -10  -4   5    7.62    3.35   0
  10  -4  -5    5.77    3.62   0
 -10   4   5    5.72    3.61   0
  -9   4   5   44.78    4.06   0
  -9  -4   5   42.77    3.39   0
   9  -4  -5   38.27    4.06   0
  -8  -4   5  113.02    4.04   0
   8  -4  -5  129.32    4.35   0
  -8   4   5  118.60    4.47   0
  -7   4   5   21.06    3.62   0
   7  -4  -5   22.30    3.55   0
  -7  -4   5   22.57    3.15   0
  -6   4   5    3.43    3.94   0
   6  -4  -5   -0.79    3.31   0
  -6  -4   5   -0.36    3.27   0
  -5   4   5   75.32    4.10   0
   5  -4  -5   67.88    3.95   0
   5  -4  -5   70.64    4.91   0
  -5  -4   5   68.63    3.51   0
   4  -4  -5  443.35    6.89   0
  -4   4   5  442.71    7.26   0
   4  -4  -5  437.36    7.00   0
  -4  -4   5  423.23    6.15   0
   3  -4  -5    3.33    3.41   0
  -3   4   5    6.84    3.21   0
  -3  -4   5    4.87    3.02   0
   3  -4  -5   12.85    4.56   0
  -3  -4   5    4.93    5.13   0
  -2  -4   5   46.88    6.46   0
  -2  -4   5   44.64    3.60   0
   2  -4  -5   48.09    4.67   0
   2  -4  -5   49.49    4.23   0
  -2   4   5   46.58    3.82   0
   1  -4  -5  663.05    8.54   0
   1   4  -5  674.11    7.76   0
   1  -4  -5  681.38    9.45   0
  -1  -4   5  663.08    7.70   0
  -1   4   5  666.95    9.39   0
   0   4  -5   27.36    3.45   0
   0   4   5   28.46    4.45   0
   0  -4  -5   31.52    3.75   0
   0  -4  -5   27.20    3.95   0
   0  -4   5   33.84    3.44   0
   0   4   5   32.80    4.94   0
   1   4   5  343.45    7.34   0
  -1  -4  -5  347.67    7.52   0
  -1   4  -5  320.65    5.71   0
  -1  -4  -5  318.26    6.51   0
   1  -4   5  325.46    5.76   0
  -2   4  -5  775.48    8.02   0
   2   4   5  798.73    9.90   0
  -2  -4  -5  800.23    9.63   0
   2  -4   5  787.66    8.09   0
  -2  -4  -5  790.37    9.23   0
  -3  -4  -5 1176.07   11.51   0
   3   4   5 1119.40   11.84   0
  -3   4  -5 1120.96    9.00   0
   3  -4   5 1108.65    9.04   0
  -4  -4  -5  426.34    6.97   0
   4   4   5  402.99    7.81   0
  -4   4  -5  404.65    5.66   0
   4  -4   5  408.01    5.68   0
  -5  -4  -5   82.93    4.36   0
   5  -4   5   77.17    3.59   0
   5   4   5   76.15    4.75   0
  -5   4  -5   82.26    3.55   0
  -6  -4  -5   31.51    3.74   0
  -6   4  -5   30.22    3.40   0
   6   4   5   22.98    3.73   0
   6  -4   5   26.46    3.27   0
   7  -4   5  274.22    4.96   0
   7   4   5  255.46    6.86   0
  -7   4  -5  270.30    4.96   0
  -7  -4  -5  301.93    5.84   0
  -8   4  -5    0.75    3.07   0
  -8  -4  -5   -1.43    3.61   0
   8  -4   5    0.61    3.05   0
  -9  -4  -5    0.45    3.76   0
   9  -4   5   -3.18    3.27   0
  -9   4  -5    0.59    3.25   0
 -10  -4  -5    2.10    3.98   0
  10  -4   5   -1.30    3.46   0
 -10   4  -5    2.88    3.56   0
  11  -4   5    1.90    3.73   0
 -11   4  -5    5.29    3.78   0
 -11  -4  -5    7.65    4.27   0
 -12  -4  -5   13.93    4.40   0
  12  -4   5   14.63    4.23   0
 -12   4  -5   12.92    4.24   0
  11  -5  -5   -4.64    4.26   0
 -11   5   5   -3.01    4.30   0
 -11  -5   5   13.68    4.07   0
 -10  -5   5    0.36    3.72   0
  10  -5  -5    1.58    3.85   0
  10  -5  -5    0.87    5.03   0
 -10   5   5   -3.61    3.91   0
   9  -5  -5   32.52    4.23   0
  -9  -5   5   30.63    3.82   0
  -9   5   5   39.48    4.24   0
   9  -5  -5   34.59    3.93   0
  -8   5   5   22.75    3.80   0
  -8  -5   5   18.72    3.28   0
   8  -5  -5   24.58    4.12   0
   8  -5  -5   26.64    3.90   0
   7  -5  -5   37.01    4.50   0
   7  -5  -5   33.48    4.16   0
  -7  -5   5   30.85    3.63   0
  -7   5   5   33.71    3.89   0
   6  -5  -5  724.20    8.28   0
   6  -5  -5  721.09    7.71   0
  -6   5   5  720.34    7.64   0
  -6  -5   5  683.73    7.23   0
  -5   5   5  243.87    5.16   0
   5  -5  -5  242.21    5.18   0
  -5  -5   5  260.42    4.97   0
  -5  -5   5  232.37    4.88   0
   5  -5  -5  243.73    5.98   0
  -4  -5   5   91.75    3.90   0
  -4   5   5   99.91    4.32   0
   4  -5  -5  100.90    4.84   0
   4  -5  -5   97.48    4.32   0
   3  -5  -5   57.26    5.17   0
  -3  -5   5   39.97    3.38   0
  -3  -5   5   43.71    5.31   0
  -3   5   5   47.47    4.54   0
   3  -5  -5   49.29    3.81   0
  -2  -5   5  457.97    9.27   0
  -2   5   5  492.75    7.19   0
   2  -5  -5  475.81    7.04   0
  -2  -5   5  471.68    6.27   0
   2  -5  -5  498.29    7.20   0
  -1  -5   5  124.71    4.05   0
  -1   5   5  128.39    4.71   0
   1  -5  -5  129.34    5.11   0
  -1  -5   5  118.38    6.20   0
   1  -5  -5  112.27    4.63   0
   1   5  -5  112.62    4.06   0
   0  -5   5   31.55    3.26   0
   0   5  -5   34.07    3.36   0
   0  -5  -5   34.99    4.51   0
   0  -5  -5   27.28    4.02   0
   0   5   5   34.70    3.75   0
   1   5   5  219.73    6.63   0
   1  -5   5  220.15    4.66   0
  -1   5  -5  209.19    4.71   0
  -1  -5  -5  200.48    5.45   0
  -1  -5  -5  220.56    5.61   0
  -2   5  -5   36.72    3.35   0
  -2  -5  -5   36.12    3.92   0
   2  -5   5   38.50    3.27   0
   2   5   5   32.72    5.05   0
  -2  -5  -5   38.46    4.22   0
   3  -5   5    0.45    2.78   0
  -3  -5  -5    2.77    3.41   0
  -3  -5  -5    4.76    3.93   0
  -3   5  -5    3.82    2.84   0
   3   5   5    3.48    3.95   0
   4   5   5   79.65    5.46   0
  -4  -5  -5   80.70    4.30   0
  -4  -5  -5   83.71    4.37   0
   4  -5   5   76.14    3.54   0
  -4   5  -5   79.41    3.64   0
  -5  -5  -5  733.21    8.15   0
   5  -5   5  662.78    6.83   0
   5   5   5  665.36    9.93   0
  -5   5  -5  668.15    6.93   0
   6  -5   5   28.32    3.23   0
  -6   5  -5   30.18    3.14   0
   6   5   5   23.19    4.60   0
  -6  -5  -5   27.75    3.85   0
   7   5   5   52.24    5.15   0
  -7   5  -5   64.26    3.73   0
  -7  -5  -5   68.12    4.75   0
   7  -5   5   52.67    3.31   0
   8  -5   5    4.02    3.17   0
  -8  -5  -5   -1.68    3.69   0
  -8   5  -5    4.85    3.05   0
   8   5   5   -0.12    4.62   0
  -9  -5  -5    0.11    4.20   0
  -9   5  -5    0.16    3.43   0
   9  -5   5   -0.54    3.51   0
   9   5   5   -0.04    4.35   0
  10   5   5   51.83    5.61   0
 -10   5  -5   57.83    4.70   0
  10  -5   5   48.21    4.62   0
 -10  -5  -5   59.84    4.56   0
  11  -5   5   11.47    4.11   0
  11   5   5   14.71    5.38   0
 -11  -5  -5   19.41    4.47   0
 -11   5  -5   13.99    4.05   0
 -11  -6   5   -2.99    4.22   0
 -10  -6   5    4.88    3.86   0
 -10   6   5    6.96    4.40   0
  10  -6  -5    4.06    4.84   0
  10  -6  -5   11.37    4.93   0
  -9  -6   5    1.50    3.91   0
  -9   6   5    1.17    4.10   0
   9  -6  -5    6.04    4.84   0
   9  -6  -5    8.19    4.02   0
   8  -6  -5    2.37    4.01   0
  -8  -6   5   -1.17    3.51   0
   8  -6  -5   -0.50    3.86   0
  -8   6   5    7.05    4.11   0
   7  -6  -5   16.76    4.19   0
  -7  -6   5   18.30    3.57   0
  -7   6   5   18.23    3.65   0
  -7  -6   5   14.75    3.34   0
   7  -6  -5   17.70    3.59   0
  -6  -6   5   51.85    4.00   0
  -6  -6   5   48.43    3.99   0
   6  -6  -5   50.17    3.94   0
  -6   6   5   54.03    4.51   0
   6  -6  -5   48.91    4.26   0
   5  -6  -5   78.79    4.63   0
   5  -6  -5   69.43    4.14   0
  -5   6   5   67.23    4.06   0
  -5  -6   5   70.41    4.09   0
  -5  -6   5   64.81    3.96   0
  -4  -6   5   13.82    3.63   0
   4  -6  -5   14.47    4.82   0
   4  -6  -5   12.28    3.39   0
  -4   6   5   10.43    3.50   0
   3  -6  -5   56.96    4.72   0
  -3  -6   5   47.50    4.96   0
  -3  -6   5   48.88    3.65   0
  -3   6   5   46.69    3.87   0
   3  -6  -5   47.28    3.74   0
  -2   6   5  277.46    5.71   0
  -2  -6   5  251.82    6.94   0
   2  -6  -5  296.81    5.97   0
   2  -6  -5  264.67    6.16   0
  -2  -6   5  268.29    5.14   0
  -1  -6   5   50.91    4.60   0
  -1   6   5   51.51    3.91   0
   1  -6  -5   48.69    4.40   0
   1  -6  -5   56.60    3.95   0
  -1  -6   5   50.87    3.50   0
   1   6  -5   47.30    3.58   0
   0   6   5    1.70    3.80   0
   0  -6   5    0.66    3.01   0
   0  -6  -5    0.70    4.14   0
   0  -6   5   -1.24    4.95   0
   0  -6  -5   -1.74    3.82   0
   0   6  -5    7.45    3.06   0
  -1  -6  -5   -0.64    3.39   0
  -1  -6  -5   -2.49    3.57   0
  -1   6  -5    0.45    2.82   0
   1  -6   5   -1.49    2.96   0
  -2   6  -5    7.86    3.01   0
   2   6   5   17.06    5.14   0
  -2  -6  -5   11.41    4.24   0
   2  -6   5   13.55    3.00   0
  -2  -6  -5   10.88    3.60   0
   3  -6   5   12.04    3.09   0
   3   6   5   14.09    5.36   0
  -3   6  -5   17.21    3.14   0
  -3  -6  -5   13.92    4.12   0
  -3  -6  -5   13.01    3.51   0
   4   6   5    4.10    4.13   0
  -4   6  -5    1.84    3.48   0
   4  -6   5    2.50    3.46   0
  -4  -6  -5    0.87    4.43   0
  -4  -6  -5   -2.13    3.62   0
   5  -6   5    5.24    3.23   0
  -5  -6  -5    7.00    3.79   0
  -5   6  -5    6.97    3.33   0
   5   6   5    9.33    4.61   0
  -5  -6  -5    8.96    4.31   0
  -6   6  -5   78.94    4.01   0
  -6  -6  -5   77.98    4.92   0
   6  -6   5   67.69    4.01   0
   6   6   5   71.19    5.50   0
  -7   6  -5   -3.64    3.35   0
  -7  -6  -5    3.50    3.62   0
   7   6   5    2.39    4.97   0
   7  -6   5    3.07    3.24   0
   8   6   5   20.09    5.55   0
   8  -6   5   27.72    3.58   0
  -8   6  -5   32.27    3.67   0
  -8  -6  -5   34.65    4.44   0
  -9  -6  -5   36.12    4.40   0
   9   6   5   30.05    5.34   0
   9  -6   5   31.53    3.99   0
  -9   6  -5   34.45    4.12   0
  10  -6   5    6.18    3.97   0
 -10   6  -5   12.77    3.95   0
 -10  -6  -5    8.17    4.40   0
  10   6   5   12.19    5.66   0
  10  -7  -5    1.83    5.24   0
  10  -7  -5   20.33    4.41   0
 -10   7   5   -6.77    4.29   0
 -10  -7   5    9.82    4.36   0
 -10  -7   5   16.30    4.44   0
  -9  -7   5    1.68    4.44   0
  -9   7   5   42.18    4.79   0
   9  -7  -5   12.79    5.04   0
   9  -7  -5   47.26    4.79   0
  -9  -7   5   47.99    4.34   0
  -8  -7   5   -0.58    4.00   0
  -8   7   5   20.31    4.12   0
  -8  -7   5   20.64    4.05   0
   8  -7  -5   20.28    4.01   0
  -7  -7   5    1.29    3.89   0
   7  -7  -5    2.49    3.74   0
  -7   7   5    7.04    3.92   0
  -7  -7   5   10.32    4.06   0
   7  -7  -5   -0.15    4.35   0
   6  -7  -5   80.81    4.86   0
  -6   7   5   74.52    4.90   0
   6  -7  -5   54.97    4.83   0
  -6  -7   5   83.99    4.25   0
  -6  -7   5   80.85    4.20   0
  -5  -7   5    4.42    3.61   0
   5  -7  -5    3.51    4.03   0
  -5  -7   5    4.95    3.61   0
   5  -7  -5    0.49    3.43   0
  -5   7   5    2.74    3.43   0
   4  -7  -5    3.99    3.45   0
   4  -7  -5    5.85    4.38   0
  -4   7   5    4.83    3.62   0
  -4  -7   5    8.45    3.86   0
  -3   7   5    8.67    4.06   0
  -3  -7   5    7.21    4.14   0
   3  -7  -5    1.96    4.56   0
  -3  -7   5   13.38    5.04   0
   3  -7  -5   11.01    3.51   0
  -2  -7   5   87.74    5.70   0
   2  -7  -5   83.47    5.01   0
  -2   7   5   82.67    4.07   0
   2  -7  -5   87.32    4.53   0
  -2  -7   5   85.33    4.30   0
  -1   7   5  110.52    5.00   0
  -1  -7   5  100.59    4.25   0
  -1  -7   5  106.57    5.68   0
   1  -7  -5  105.39    4.85   0
   1  -7  -5  112.54    4.40   0
   0  -7  -5    7.19    3.82   0
   0   7  -5    0.44    3.55   0
   0  -7  -5    8.26    3.82   0
   0  -7   5    7.76    3.27   0
   0  -7   5    3.50    5.76   0
   1  -7   5   33.47    5.16   0
  -1  -7  -5   44.65    4.21   0
  -1   7  -5   44.94    3.78   0
   1  -7   5   32.65    3.54   0
  -1  -7  -5   37.82    4.52   0
  -2   7  -5   83.07    4.37   0
   2  -7   5   84.69    3.97   0
  -2  -7  -5   73.63    4.76   0
  -2  -7  -5   77.84    4.23   0
  -3  -7  -5   57.30    4.56   0
  -3  -7  -5   66.54    4.08   0
   3  -7   5   66.16    3.93   0
  -3   7  -5   65.70    4.14   0
   4  -7   5   15.66    3.52   0
   4   7   5   13.03    4.30   0
  -4  -7  -5   15.97    4.17   0
  -4   7  -5    9.16    3.50   0
  -4  -7  -5   12.76    4.19   0
  -5  -7  -5   82.49    4.36   0
   5   7   5   74.46    5.08   0
  -5  -7  -5   87.99    4.44   0
   5  -7   5   87.15    3.97   0
  -5   7  -5   74.94    4.01   0
  -6  -7  -5    4.10    3.92   0
  -6  -7  -5    4.64    3.77   0
  -6   7  -5    7.90    3.35   0
   6   7   5    4.97    5.27   0
   6  -7   5    6.38    3.29   0
   7   7   5   34.66    5.53   0
  -7  -7  -5   39.86    4.59   0
  -7   7  -5   35.68    3.78   0
   7  -7   5   34.80    3.72   0
  -7  -7  -5   39.60    4.29   0
  -8  -7  -5   13.54    4.66   0
  -8  -7  -5   -2.19    4.50   0
   8   7   5    1.53    5.70   0
   8  -7   5    1.44    3.45   0
  -8   7  -5    2.38    3.80   0
  -9  -7  -5    1.72    4.51   0
   9   7   5    6.43    6.01   0
   9  -7   5   12.37    3.88   0
  -9   7  -5   10.78    4.01   0
  -8  -8   5   94.39    4.56   0
   8  -8  -5   38.88    4.96   0
  -8  -8   5   84.79    4.81   0
  -8   8   5   -3.41    5.01   0
   8  -8  -5   77.37    4.67   0
  -7  -8   5    9.19    4.37   0
   7  -8  -5   12.40    4.71   0
  -7  -8   5    8.74    4.22   0
  -7   8   5    9.43    4.32   0
   7  -8  -5    8.30    4.51   0
  -6  -8   5   26.17    4.18   0
   6  -8  -5   19.51    4.04   0
  -6  -8   5   21.68    4.30   0
   6  -8  -5   26.45    4.62   0
  -6   8   5   28.74    4.01   0
  -5   8   5   -0.19    3.60   0
  -5  -8   5    0.07    3.80   0
   5  -8  -5   -1.28    4.08   0
  -5  -8   5   -0.67    3.74   0
   5  -8  -5   -1.99    4.37   0
  -4  -8   5    4.74    3.88   0
  -4   8   5    3.32    3.77   0
   4  -8  -5    0.84    4.09   0
   4  -8  -5    2.69    4.12   0
  -3   8   5   30.00    3.93   0
  -3  -8   5   33.12    5.12   0
  -3  -8   5   31.97    3.92   0
   3  -8  -5   32.42    4.01   0
   3  -8  -5   37.65    4.65   0
  -2  -8   5   82.39    4.38   0
   2  -8  -5   84.74    4.33   0
  -2   8   5   88.47    4.84   0
  -2  -8   5   86.08    4.93   0
   2  -8  -5  101.81    5.01   0
   1  -8  -5    7.73    4.48   0
  -1   8   5   11.02    4.12   0
   1  -8  -5    6.89    3.68   0
  -1  -8   5   10.06    4.29   0
  -1  -8   5    4.98    3.65   0
   0  -8  -5   30.10    4.31   0
   0  -8   5   35.19    4.96   0
   0  -8   5   28.39    3.50   0
   0   8  -5   28.28    3.78   0
   0  -8  -5   21.05    3.87   0
  -1  -8  -5   11.90    3.70   0
   1  -8   5   13.13    3.61   0
  -1  -8  -5   13.69    3.85   0
  -1   8  -5   16.37    3.77   0
   1  -8   5    6.84    5.00   0
   2  -8   5   35.20    3.88   0
  -2   8  -5   44.61    4.06   0
  -2  -8  -5   47.34    4.65   0
  -2  -8  -5   40.78    3.92   0
   2  -8   5   37.74    4.84   0
   3  -8   5   -2.71    3.65   0
   3  -8   5    3.33    4.96   0
  -3  -8  -5    3.16    3.70   0
  -3   8  -5   -1.16    3.57   0
  -3  -8  -5    0.37    3.61   0
   4  -8   5   -1.79    3.59   0
  -4   8  -5    1.27    4.25   0
  -4  -8  -5   -3.04    4.34   0
  -4  -8  -5    3.02    3.89   0
  -5   8  -5    3.48    3.87   0
  -5  -8  -5    4.00    3.88   0
   5  -8   5    8.38    3.81   0
  -5  -8  -5    2.38    3.68   0
  -6  -8  -5    5.72    3.90   0
  -6  -8  -5   -0.00    3.80   0
   6  -8   5    6.76    3.91   0
  -6   8  -5    6.23    3.90   0
   7  -8   5    1.11    3.41   0
  -7   8  -5    0.12    3.85   0
  -7  -8  -5    4.08    3.80   0
  -7  -8  -5    5.33    4.62   0
  -8   8  -5    0.80    4.15   0
  -8  -8  -5   -0.10    4.40   0
  -8  -8  -5   -0.83    4.81   0
   8  -8   5   -2.79    4.25   0
  -7  -9   5    2.94    4.16   0
   7  -9  -5    0.16    4.87   0
   7  -9  -5    1.56    5.06   0
  -7   9   5    0.61    5.21   0
  -7  -9   5    0.88    4.24   0
  -6  -9   5   11.83    4.24   0
   6  -9  -5    7.74    4.68   0
   6  -9  -5    5.89    4.89   0
  -6   9   5    1.75    4.44   0
  -6  -9   5    8.60    4.36   0
   5  -9  -5    4.24    4.19   0
   5  -9  -5    0.12    4.48   0
  -5   9   5    1.51    3.92   0
  -5  -9   5    7.81    4.22   0
  -5  -9   5    0.91    4.20   0
   4  -9  -5    1.60    4.67   0
  -4   9   5   -0.17    3.90   0
  -4  -9   5    4.07    3.65   0
   4  -9  -5    1.36    3.77   0
   3  -9  -5   15.51    3.76   0
  -3  -9   5   20.87    4.06   0
   3  -9  -5   14.23    4.46   0
  -3  -9   5   12.14    4.82   0
  -3   9   5   16.82    4.38   0
  -2  -9   5   -1.34    4.79   0
  -2  -9   5   -1.00    3.77   0
   2  -9  -5    5.62    4.65   0
  -2   9   5    0.85    3.75   0
   2  -9  -5   -3.70    4.25   0
   1  -9  -5  123.96    4.99   0
  -1  -9   5  124.99    5.92   0
  -1  -9   5  128.63    4.76   0
   1  -9  -5  140.61    5.45   0
   0  -9  -5   15.69    4.47   0
   0  -9   5   11.96    5.30   0
   0  -9  -5   15.78    4.13   0
   0  -9   5   13.29    3.94   0
  -1  -9  -5    5.42    4.55   0
   1  -9   5    2.73    3.68   0
  -1  -9  -5    4.55    3.91   0
   1  -9   5    5.10    5.03   0
  -1   9  -5    4.59    3.84   0
  -2   9  -5   -0.45    3.69   0
   2  -9   5    1.72    3.61   0
  -2  -9  -5    3.55    3.75   0
  -2  -9  -5    1.75    4.24   0
   2  -9   5    0.41    4.34   0
  -3   9  -5    5.23    4.00   0
  -3  -9  -5    2.95    3.81   0
  -3  -9  -5    7.05    4.32   0
   3  -9   5    1.23    3.77   0
   3  -9   5    0.68    4.64   0
  -4  -9  -5    5.89    4.51   0
   4  -9   5   12.26    4.16   0
  -4   9  -5   12.45    4.22   0
   4  -9   5    4.58    5.04   0
  -4  -9  -5   12.20    4.22   0
  -5  -9  -5    2.01    4.54   0
  -5  -9  -5    6.49    4.00   0
   5  -9   5    1.10    5.03   0
  -5   9  -5    7.06    4.03   0
   5  -9   5    2.36    4.03   0
  -6  -9  -5   11.15    4.44   0
   6  -9   5    7.70    5.33   0
  -6  -9  -5    7.74    4.93   0
  -6   9  -5    5.77    4.22   0
   6  -9   5    1.45    4.18   0
  -7  -9  -5    1.42    4.68   0
  -7  -9  -5    0.49    5.10   0
  -7   9  -5    3.70    4.95   0
   7  -9   5    3.02    5.38   0
   7  -9   5    0.60    4.51   0
  -4  10   5    0.64    4.74   0
  -4 -10   5    0.00    4.18   0
   4 -10  -5   -0.99    4.61   0
   4 -10  -5    3.37    4.69   0
  -3  10   5    5.26    5.27   0
   3 -10  -5    7.03    4.51   0
  -3 -10   5   -0.37    3.99   0
   3 -10  -5   10.74    4.79   0
  -3 -10   5   20.79    5.54   0
   2 -10  -5   -2.35    4.53   0
  -2  10   5   -1.60    4.02   0
  -2 -10   5    0.56    4.23   0
   2 -10  -5   -0.55    4.60   0
  -2 -10   5    2.32    5.39   0
  -1 -10   5    6.80    4.91   0
   1 -10  -5   14.80    4.87   0
  -1 -10   5   24.36    4.41   0
   1 -10  -5   26.80    4.88   0
   0 -10   5    0.76    4.67   0
   0 -10  -5    6.14    4.49   0
   0 -10  -5   14.24    4.80   0
   0 -10   5    8.64    4.82   0
   1 -10   5   13.91    4.39   0
  -1 -10  -5    4.64    4.15   0
  -1  10  -5   10.77    4.32   0
  -1 -10  -5   14.29    4.25   0
   1 -10   5   -0.15    5.00   0
   2 -10   5   12.70    5.41   0
   2 -10   5   11.92    4.34   0
  -2 -10  -5    2.78    4.04   0
  -2 -10  -5    8.68    4.49   0
  -2  10  -5    1.57    4.43   0
  -3 -10  -5    5.11    4.40   0
  -3  10  -5   10.69    4.37   0
   3 -10   5   -5.91    4.35   0
   3 -10   5    6.55    5.45   0
  -3 -10  -5    4.37    4.18   0
   4 -10   5   -0.92    4.04   0
  -4  10  -5    0.39    4.18   0
  -4 -10  -5    5.16    4.30   0
  -4 -10  -5    3.12    5.07   0
   4 -10   5    6.94    5.10   0
 -12   0   6   24.12    4.55   0
  12   0  -6   19.95    4.45   0
  10   0  -6   42.84    3.64   0
 -10   0   6   48.78    3.70   0
   8   0  -6  763.79    7.43   0
  -8   0   6  788.87    7.46   0
  -6   0   6  373.35    5.78   0
   6   0  -6  370.51    5.96   0
   4   0  -6  430.67    7.18   0
  -4   0   6  465.80    7.32   0
  -2   0   6  111.56    7.36   0
  -2   0   6  110.18    5.70   0
   2   0  -6  114.42    5.83   0
   0   0   6 2599.33   29.56   0
   2   0   6 1041.42   12.94   0
  -2   0  -6 1048.00   13.00   0
   4   0   6  659.58    8.37   0
  -4   0  -6  674.64    8.42   0
   6   0   6    3.05    2.90   0
  -6   0  -6    7.95    2.89   0
  -8   0  -6    5.76    2.80   0
   8   0   6    3.29    2.83   0
  10   0   6   36.49    3.70   0
 -10   0  -6   39.58    3.38   0
 -12   0  -6    9.56    3.89   0
  12   0   6    0.63    3.93   0
  13  -1  -6   15.43    4.54   0
 -13   1   6   24.59    4.59   0
  13   1  -6   18.40    6.02   0
  13   1  -6   11.63    4.45   0
 -13  -1   6   12.45    4.39   0
  13  -1  -6   20.91    6.03   0
 -12   1   6    4.81    4.16   0
 -12  -1   6    1.42    3.93   0
  12  -1  -6    4.45    4.02   0
  12   1  -6    4.90    3.88   0
 -11  -1   6    1.68    3.48   0
  11  -1  -6    7.82    3.63   0
  11   1  -6    4.04    3.47   0
 -11   1   6    2.72    3.34   0
 -10  -1   6   33.99    3.59   0
 -10   1   6   25.70    3.54   0
  10   1  -6   26.39    3.42   0
  10  -1  -6   22.70    3.43   0
  -9  -1   6  255.02    4.80   0
  -9   1   6  248.08    5.14   0
   9  -1  -6  236.06    5.06   0
   9   1  -6  230.56    4.99   0
  -8   1   6  305.48    5.28   0
   8   1  -6  314.17    5.40   0
   8  -1  -6  291.83    5.24   0
  -8  -1   6  327.08    5.39   0
   7  -1  -6   56.26    3.41   0
  -7  -1   6   63.66    3.52   0
  -7   1   6   57.07    3.29   0
   7   1  -6   61.84    3.60   0
  -6  -1   6  257.16    4.90   0
   6  -1  -6  238.68    5.30   0
  -6   1   6  260.19    5.18   0
   6   1  -6  248.29    5.05   0
   5  -1  -6  180.24    4.95   0
  -5   1   6  188.98    4.91   0
   5   1  -6  181.51    4.86   0
  -5  -1   6  187.75    4.82   0
   4  -1  -6  332.22    6.90   0
  -4   1   6  349.15    6.72   0
   4   1  -6  350.19   11.42   0
   4  -1  -6  343.51    8.03   0
  -4  -1   6  334.47    6.38   0
   4   1  -6  349.03    6.52   0
   3  -1  -6 1744.07   16.25   0
   3  -1  -6 1722.92   15.40   0
  -3  -1   6 1747.65   13.85   0
  -3   1   6 1664.38   15.08   0
   3   1  -6 1764.64   25.36   0
  -2   1   6    7.46    5.14   0
  -2  -1   6    5.38    6.57   0
   2  -1  -6   11.24    4.50   0
  -2  -1   6    5.48    3.65   0
   2  -1  -6    3.52    4.46   0
  -2   1   6    5.22    4.44   0
   1  -1  -6   37.66    6.77   0
  -1   1   6   36.69    5.23   0
  -1   1   6   36.06    6.55   0
   1  -1  -6   38.09    4.94   0
  -1  -1   6   34.57    4.53   0
   0  -1   6 4783.94   28.26   0
   0   1   6 4857.38   27.22   0
   0   1  -6 4808.66   28.38   0
   1   1   6 2961.25   32.69   0
   1  -1   6 2705.13   20.18   0
  -1   1  -6 2753.58   20.22   0
  -2   1  -6  952.11   11.18   0
   2  -1   6  973.61   11.18   0
   2   1   6  985.13   14.07   0
  -3  -1  -6   89.00    4.51   0
   3  -1   6   90.53    4.21   0
  -3   1  -6   91.92    4.13   0
   3   1   6   90.13    4.55   0
  -4  -1  -6  487.47    7.46   0
   4   1   6  499.34    7.55   0
   4  -1   6  497.22    7.12   0
  -4   1  -6  487.91    6.91   0
   5   1   6  127.61    4.41   0
   5  -1   6  117.47    4.25   0
  -5  -1  -6  128.35    4.42   0
  -5   1  -6  129.88    4.40   0
   6   1   6  222.91    5.01   0
   6  -1   6  238.64    4.83   0
  -6   1  -6  214.57    4.75   0
  -6  -1  -6  232.19    5.00   0
  -7  -1  -6    1.37    2.87   0
   7   1   6    3.41    2.98   0
   7  -1   6    4.59    2.66   0
  -7   1  -6    3.06    2.95   0
   8  -1   6    0.10    2.87   0
   8   1   6    1.00    3.29   0
  -8  -1  -6   -2.25    3.21   0
  -8   1  -6    0.17    2.97   0
   9   1   6   18.29    3.65   0
  -9   1  -6   20.29    2.87   0
   9  -1   6   13.71    3.24   0
  -9  -1  -6   16.97    3.53   0
 -10  -1  -6    9.55    3.29   0
  10   1   6    6.42    3.44   0
  10  -1   6   10.92    3.30   0
 -10   1  -6   10.76    3.25   0
  11   1   6   10.81    3.62   0
  11  -1   6    7.53    3.47   0
 -11  -1  -6   10.06    3.67   0
 -11   1  -6   15.03    3.52   0
  12   1   6   23.56    4.31   0
 -12   1  -6   30.32    4.11   0
 -12  -1  -6   31.13    4.36   0
  12  -1   6   18.49    4.23   0
  13  -2  -6   11.09    4.61   0
  12   2  -6   12.46    5.55   0
  12   2  -6    5.97    3.76   0
 -12   2   6    6.74    3.93   0
 -12  -2   6    6.28    3.80   0
  12  -2  -6    4.37    3.94   0
 -11  -2   6    4.49    3.47   0
 -11   2   6    4.66    3.63   0
  11   2  -6    2.58    3.64   0
  11  -2  -6    8.30    3.52   0
 -10  -2   6    5.98    2.97   0
 -10   2   6   -3.36    3.36   0
  10  -2  -6   -1.52    3.19   0
  10   2  -6   -2.59    3.30   0
   9  -2  -6    3.54    3.50   0
  -9   2   6    5.28    3.55   0
   9   2  -6   -1.26    2.66   0
  -9  -2   6    0.35    2.98   0
   8  -2  -6  193.44    5.06   0
  -8  -2   6  215.37    4.49   0
  -8   2   6  201.84    4.99   0
   8   2  -6  178.70    4.58   0
  -7  -2   6  215.33    4.48   0
   7  -2  -6  200.47    4.85   0
  -7   2   6  203.95    4.96   0
   7   2  -6  185.98    4.49   0
  -6  -2   6    7.41    2.61   0
   6  -2  -6    6.74    3.12   0
  -6   2   6    3.02    3.16   0
  -5   2   6   40.77    3.72   0
  -5  -2   6   42.70    3.47   0
   5  -2  -6   40.96    3.70   0
   5   2  -6   47.07    9.30   0
  -4  -2   6  147.51    4.72   0
   4  -2  -6  148.36    5.45   0
   4  -2  -6  147.68    6.07   0
  -4   2   6  154.48    5.50   0
  -3   2   6   31.88    3.53   0
   3  -2  -6   30.64    3.40   0
   3  -2  -6   33.96    4.91   0
  -3  -2   6   32.67    3.85   0
   2  -2  -6 9300.12   39.13   0
  -2   2   6 9388.25   39.39   0
   2  -2  -6 9737.09   33.66   0
  -2   2   6 9271.99   32.16   0
   1  -2  -6   35.67    5.50   0
  -1  -2   6   38.09    4.08   0
  -1   2   6   33.75    5.05   0
  -1   2   6   36.01    5.17   0
   1   2  -6   36.38    3.88   0
   1  -2  -6   33.22    4.70   0
   0  -2  -6  627.91   15.83   0
   0  -2   6  625.42    9.07   0
   0   2   6  615.85    9.53   0
   0  -2  -6  609.03    9.35   0
   0   2  -6  600.97    8.88   0
   0   2   6  635.08   16.08   0
  -1   2  -6   26.12    3.78   0
   1  -2   6   23.98    3.53   0
   1   2   6   21.37    3.82   0
  -2   2  -6  398.95    6.87   0
   2  -2   6  411.49    6.93   0
   2   2   6  425.67    9.58   0
   3  -2   6   13.72    3.23   0
  -3  -2  -6   16.63    3.83   0
  -3   2  -6   16.47    3.32   0
   3   2   6   17.07    4.24   0
   4   2   6   94.54    5.02   0
  -4  -2  -6   93.02    4.97   0
   4  -2   6   87.12    3.77   0
  -4   2  -6   89.01    3.82   0
  -5   2  -6  386.56    5.83   0
   5   2   6  396.38    6.62   0
  -5  -2  -6  414.03    6.89   0
   5  -2   6  371.02    5.77   0
  -6  -2  -6  256.10    5.28   0
   6   2   6  225.95    5.18   0
   6  -2   6  222.90    4.56   0
  -6   2  -6  233.14    4.64   0
   7  -2   6  146.12    4.07   0
  -7  -2  -6  168.43    4.86   0
  -7   2  -6  164.73    4.11   0
   7   2   6  159.11    5.34   0
   8  -2   6    3.67    2.85   0
  -8  -2  -6   -2.19    3.47   0
   8   2   6    6.46    3.61   0
  -8   2  -6    0.39    2.80   0
   9   2   6   36.73    3.92   0
  -9   2  -6   36.09    3.48   0
   9  -2   6   32.59    3.43   0
  -9  -2  -6   44.03    3.91   0
  10  -2   6   31.51    3.56   0
 -10   2  -6   36.40    3.59   0
 -10  -2  -6   45.75    4.06   0
  10   2   6   34.29    4.10   0
 -11   2  -6    9.95    3.66   0
  11  -2   6    8.83    3.22   0
  11   2   6    6.33    4.33   0
 -11  -2  -6   10.46    4.11   0
  12  -2   6    0.95    3.77   0
 -12  -2  -6    7.08    4.18   0
  12   2   6    0.70    4.53   0
 -12   2  -6   12.08    3.86   0
 -12  -3   6   18.99    3.57   0
  12  -3  -6   10.31    5.04   0
  12   3  -6   13.86    8.21   0
  12  -3  -6    3.29    4.42   0
 -12   3   6   21.22    4.49   0
 -11  -3   6   66.54    4.06   0
  11  -3  -6   49.59    4.43   0
 -11   3   6   74.26    4.59   0
  11   3  -6   54.21    7.89   0
  10   3  -6   44.00    7.77   0
 -10  -3   6   40.67    3.72   0
 -10   3   6   53.26    4.20   0
  10  -3  -6   44.42    4.07   0
   9   3  -6  181.55   10.42   0
  -9  -3   6  189.07    4.54   0
   9  -3  -6  188.46    4.91   0
  -9   3   6  175.31    5.00   0
  -8  -3   6   63.22    3.39   0
  -8   3   6   64.55    4.00   0
   8   3  -6   51.72    8.33   0
   8  -3  -6   55.03    3.97   0
  -7  -3   6   45.41    3.43   0
   7   3  -6   45.00   10.21   0
   7  -3  -6   48.34    3.92   0
  -7   3   6   46.52    3.96   0
  -6   3   6   32.10    3.52   0
   6  -3  -6   31.84    3.45   0
  -6  -3   6   27.13    2.93   0
   5  -3  -6   52.11    4.15   0
   5  -3  -6   46.59    4.63   0
  -5  -3   6   52.35    3.39   0
  -5   3   6   55.80    3.80   0
  -4   3   6  464.30    7.15   0
  -4  -3   6  443.87    6.48   0
   4  -3  -6  465.02    7.59   0
   4  -3  -6  449.71    7.10   0
   3  -3  -6 1499.62   12.97   0
   3  -3  -6 1318.38   12.18   0
  -3   3   6 1384.56   12.30   0
  -2  -3   6    6.58    3.39   0
   2  -3  -6    7.60    4.43   0
   2  -3  -6    2.97    3.14   0
  -2   3   6    4.64    3.22   0
   1  -3  -6  240.68    7.19   0
  -1   3   6  239.83    7.28   0
   1  -3  -6  237.82    6.13   0
  -1  -3   6  233.89    5.51   0
  -1   3   6  232.80    5.71   0
   1   3  -6  244.21    5.73   0
   0   3   6  204.58    7.37   0
   0  -3  -6  205.71    5.94   0
   0   3   6  199.93    6.27   0
   0   3  -6  207.05    5.45   0
   0  -3   6  204.17    5.41   0
   0  -3  -6  201.58    7.11   0
  -1  -3  -6  123.66    5.91   0
  -1   3  -6  123.41    4.59   0
   1   3   6  109.81    5.13   0
   1  -3   6  124.31    4.57   0
  -1  -3  -6  116.20    4.84   0
  -2   3  -6  146.72    4.60   0
   2  -3   6  138.81    4.53   0
   2   3   6  147.45    5.86   0
  -3  -3  -6   68.53    4.24   0
  -3   3  -6   61.99    3.59   0
   3   3   6   61.66    4.14   0
   3  -3   6   61.62    3.48   0
  -4  -3  -6   91.08    4.52   0
   4  -3   6   90.99    3.79   0
  -4   3  -6   92.89    3.79   0
  -5   3  -6  112.12    3.71   0
  -5  -3  -6  115.76    5.01   0
   5  -3   6  104.99    3.56   0
   5   3   6  101.63    4.66   0
   6   3   6  128.12    5.04   0
  -6   3  -6  137.69    3.83   0
  -6  -3  -6  154.56    4.75   0
   6  -3   6  129.51    3.77   0
  -7  -3  -6   68.83    4.17   0
   7  -3   6   62.85    3.35   0
   7   3   6   59.37    4.25   0
  -7   3  -6   56.59    3.37   0
  -8  -3  -6   92.66    4.39   0
   8   3   6   92.70    4.58   0
   8  -3   6   78.67    3.57   0
  -8   3  -6   85.59    3.56   0
   9  -3   6   10.05    3.29   0
  -9   3  -6   19.15    2.92   0
  -9  -3  -6   22.53    3.93   0
   9   3   6   13.47    3.99   0
  10  -3   6    4.73    3.26   0
  10   3   6    3.57    3.99   0
 -10  -3  -6    7.19    3.93   0
 -10   3  -6    2.66    3.41   0
 -11   3  -6    1.80    3.62   0
  11  -3   6    3.20    3.51   0
  11   3   6    4.86    4.29   0
 -11  -3  -6    8.96    4.26   0
 -12   3  -6   -0.83    3.71   0
  12  -3   6   -0.16    3.71   0
 -12  -3  -6   -0.60    4.29   0
  12   3   6   -6.58    3.95   0
 -12   4   6   -3.50    4.19   0
  12  -4  -6    9.83    4.20   0
 -12  -4   6   12.32    4.09   0
  11  -4  -6   23.92    4.59   0
  11  -4  -6   -3.38    5.46   0
 -11  -4   6   50.77    4.17   0
 -11   4   6   62.45    4.58   0
 -10   4   6   -0.99    3.87   0
  10  -4  -6    1.67    3.63   0
 -10  -4   6   -0.53    3.31   0
  10  -4  -6    0.63    4.78   0
   9  -4  -6   39.72    4.00   0
  -9   4   6   46.55    4.15   0
  -9  -4   6   52.93    3.51   0
   9  -4  -6   49.25    5.14   0
  -8   4   6   45.21    3.94   0
  -8  -4   6   40.12    3.55   0
   8  -4  -6   48.63    5.10   0
   8  -4  -6   39.19    3.84   0
  -7  -4   6    8.99    3.14   0
   7  -4  -6    4.52    3.74   0
   7  -4  -6   12.66    5.18   0
  -7   4   6   12.14    3.56   0
  -6   4   6   86.34    3.97   0
   6  -4  -6   71.81    4.91   0
   6  -4  -6   81.81    3.98   0
  -6  -4   6   79.13    3.89   0
  -5  -4   6  121.86    3.86   0
   5  -4  -6  135.68    4.62   0
   5  -4  -6  129.55    5.20   0
  -5   4   6  135.22    4.99   0
  -4  -4   6  523.70    6.42   0
   4  -4  -6  520.33    7.40   0
  -4   4   6  522.11    7.44   0
   4  -4  -6  522.72    7.29   0
  -4  -4   6  504.36    6.37   0
  -3  -4   6   40.48    3.30   0
   3  -4  -6   47.44    5.24   0
  -3   4   6   39.04    3.63   0
  -3  -4   6   40.79    6.95   0
   3  -4  -6   42.58    3.76   0
   2  -4  -6   79.34    4.68   0
   2  -4  -6   68.17    4.62   0
  -2  -4   6   63.81    3.66   0
  -2  -4   6   65.49    7.00   0
  -2   4   6   70.14    4.92   0
   1  -4  -6  135.16    4.96   0
   1   4  -6  123.11    4.40   0
  -1  -4   6  133.96    4.39   0
   1  -4  -6  136.79    5.14   0
  -1   4   6  135.86    5.67   0
   0   4   6  405.70    7.51   0
   0   4   6  400.14    8.34   0
   0  -4   6  402.00    6.23   0
   0  -4  -6  412.29    8.06   0
   0  -4  -6  382.66    6.69   0
   0   4  -6  382.87    6.18   0
   1   4   6   54.67    4.81   0
   1  -4   6   57.53    3.60   0
  -1  -4  -6   62.47    4.28   0
  -1   4  -6   53.11    3.65   0
  -1  -4  -6   62.20    4.33   0
  -2   4  -6  412.79    6.13   0
  -2  -4  -6  428.83    7.65   0
   2   4   6  422.10    7.52   0
   2  -4   6  404.64    6.09   0
  -2  -4  -6  418.37    7.71   0
  -3  -4  -6  108.10    4.80   0
   3  -4   6  106.70    3.83   0
  -3   4  -6  110.78    3.96   0
   3   4   6  117.29    5.72   0
  -4  -4  -6  131.98    4.99   0
  -4   4  -6  119.04    3.79   0
   4   4   6  119.17    4.93   0
   4  -4   6  125.24    3.78   0
  -5  -4  -6   86.80    4.88   0
  -5   4  -6   87.34    3.38   0
   5  -4   6   75.22    3.34   0
   5   4   6   81.73    4.92   0
  -6  -4  -6   13.89    3.61   0
   6   4   6   18.33    3.73   0
  -6   4  -6   18.15    2.91   0
   6  -4   6   13.49    3.01   0
   7  -4   6  460.12    5.79   0
  -7   4  -6  465.38    5.88   0
  -7  -4  -6  508.79    7.02   0
   7   4   6  461.98    7.83   0
   8  -4   6   -3.15    2.96   0
  -8  -4  -6    2.27    3.59   0
  -8   4  -6    2.45    2.98   0
  -9  -4  -6   15.37    3.94   0
   9  -4   6   13.17    3.27   0
  -9   4  -6   11.99    3.20   0
 -10   4  -6    2.04    3.56   0
  10  -4   6    0.40    3.57   0
 -10  -4  -6    1.38    3.94   0
 -11  -4  -6   38.63    5.11   0
  11  -4   6   28.00    3.68   0
 -11   4  -6   40.22    4.12   0
  12  -4   6   10.54    3.82   0
 -12   4  -6    5.58    4.17   0
 -12  -4  -6    7.60    4.45   0
 -11   5   6    4.55    4.99   0
  11  -5  -6   44.96    4.71   0
 -11  -5   6   42.07    4.17   0
 -10   5   6    3.67    4.02   0
 -10  -5   6   15.22    4.05   0
  10  -5  -6   12.00    5.05   0
  10  -5  -6   20.09    4.17   0
  -9  -5   6   -0.79    3.35   0
  -9   5   6   -0.99    3.94   0
   9  -5  -6    0.79    3.96   0
   9  -5  -6    0.92    4.13   0
  -8  -5   6   22.91    3.48   0
   8  -5  -6   30.25    4.64   0
  -8   5   6   25.65    3.77   0
   8  -5  -6   22.71    3.80   0
   7  -5  -6   -2.81    4.25   0
   7  -5  -6    0.54    3.44   0
  -7  -5   6    0.04    3.16   0
  -7   5   6    1.62    3.53   0
   6  -5  -6   84.84    4.95   0
  -6   5   6   96.90    4.86   0
   6  -5  -6   79.95    4.23   0
  -6  -5   6   87.97    3.95   0
  -5   5   6   66.29    3.98   0
   5  -5  -6   68.36    4.73   0
   5  -5  -6   63.70    3.78   0
  -5  -5   6   75.76    3.82   0
  -5  -5   6   77.72    3.74   0
  -4   5   6  223.12    5.43   0
   4  -5  -6  239.40    5.89   0
   4  -5  -6  235.45    5.40   0
  -4  -5   6  223.45    4.85   0
  -3  -5   6   10.09    5.28   0
  -3  -5   6   14.00    3.21   0
   3  -5  -6   10.21    3.39   0
   3  -5  -6   12.57    4.61   0
  -3   5   6   11.69    3.94   0
   2  -5  -6    2.74    3.15   0
   2  -5  -6    7.56    3.90   0
  -2  -5   6    3.88    4.71   0
  -2  -5   6    3.16    3.08   0
  -2   5   6    3.12    3.67   0
   1  -5  -6   -2.14    3.56   0
  -1   5   6    1.32    3.16   0
   1   5  -6   -0.18    2.77   0
  -1  -5   6    1.71    2.98   0
   1  -5  -6   -0.05    3.46   0
  -1  -5   6    0.59    5.33   0
   0   5  -6   27.43    3.26   0
   0   5   6   26.29    4.29   0
   0  -5  -6   32.46    3.88   0
   0  -5   6   23.91    3.22   0
   0   5   6   27.21    4.90   0
   0  -5  -6   27.33    3.50   0
  -1  -5  -6   21.22    3.92   0
  -1  -5  -6   26.81    3.81   0
   1   5   6   23.80    4.86   0
  -1   5  -6   24.04    3.27   0
   1  -5   6   29.65    3.20   0
   2   5   6    0.01    5.08   0
   2  -5   6   -0.15    2.78   0
  -2   5  -6    2.66    2.83   0
  -2  -5  -6    1.06    3.61   0
  -2  -5  -6    1.24    3.55   0
  -3   5  -6   96.82    3.83   0
   3  -5   6   92.66    3.74   0
   3   5   6   94.56    5.62   0
  -3  -5  -6   96.83    4.68   0
  -3  -5  -6   99.66    4.77   0
  -4  -5  -6   27.70    3.86   0
  -4  -5  -6   23.02    3.80   0
   4  -5   6   25.50    3.34   0
   4   5   6   27.89    4.67   0
  -4   5  -6   22.58    3.10   0
  -5  -5  -6   11.88    3.51   0
  -5   5  -6   10.85    3.19   0
   5   5   6   11.80    4.73   0
   5  -5   6    8.12    2.91   0
  -6  -5  -6  370.75    6.47   0
   6   5   6  334.25    7.59   0
  -6   5  -6  346.12    5.24   0
   6  -5   6  313.75    5.18   0
   7  -5   6  355.29    5.61   0
  -7   5  -6  360.65    5.33   0
  -7  -5  -6  406.69    6.69   0
   7   5   6  353.86    7.46   0
   8  -5   6    2.71    3.18   0
   8   5   6    3.75    4.57   0
  -8   5  -6    1.19    2.90   0
  -8  -5  -6    4.61    3.67   0
  -9  -5  -6   28.74    4.37   0
  -9   5  -6   17.93    3.59   0
   9   5   6   23.89    4.62   0
   9  -5   6   20.23    3.47   0
 -10   5  -6    5.36    3.78   0
 -10  -5  -6    3.88    4.08   0
  10  -5   6    1.98    3.34   0
  10   5   6    5.65    4.83   0
 -11   5  -6   20.77    4.30   0
  11  -5   6   11.04    3.61   0
  11   5   6    8.14    5.77   0
 -11  -5  -6   16.29    4.65   0
  10  -6  -6    2.64    4.83   0
  10  -6  -6    4.60    4.25   0
 -10  -6   6    2.68    3.63   0
 -10   6   6    2.00    4.35   0
   9  -6  -6   15.77    4.67   0
   9  -6  -6   16.02    4.09   0
  -9   6   6    7.83    4.17   0
  -9  -6   6   18.95    3.93   0
  -8  -6   6    5.39    3.36   0
  -8   6   6   -1.90    4.50   0
   8  -6  -6    2.24    4.00   0
   8  -6  -6   -1.86    4.32   0
   7  -6  -6   86.99    4.73   0
  -7  -6   6   91.69    4.08   0
  -7   6   6   96.03    4.43   0
  -7  -6   6   88.17    4.19   0
   7  -6  -6   91.77    4.88   0
  -6  -6   6    0.08    3.22   0
   6  -6  -6   -3.69    4.14   0
  -6  -6   6   -1.03    3.21   0
  -6   6   6    2.32    4.21   0
   6  -6  -6    0.35    3.94   0
  -5  -6   6  242.91    5.12   0
   5  -6  -6  243.25    5.98   0
  -5   6   6  233.53    5.51   0
   5  -6  -6  268.36    5.76   0
  -5  -6   6  248.15    5.19   0
  -4  -6   6    3.35    3.18   0
   4  -6  -6    8.22    3.35   0
   4  -6  -6    3.50    4.62   0
  -4   6   6    3.19    3.36   0
  -3   6   6   10.50    3.38   0
   3  -6  -6   11.94    3.28   0
  -3  -6   6   10.07    3.16   0
   3  -6  -6   10.12    4.25   0
  -3  -6   6    8.05    5.00   0
   2  -6  -6   63.45    3.95   0
  -2   6   6   57.88    3.79   0
  -2  -6   6   57.99    3.69   0
   2  -6  -6   65.59    4.41   0
  -2  -6   6   56.60    5.03   0
  -1  -6   6   22.50    4.49   0
  -1  -6   6   22.14    3.17   0
   1  -6  -6   23.12    3.75   0
   1   6  -6   24.84    3.25   0
  -1   6   6   22.00    3.47   0
   1  -6  -6   18.84    4.08   0
   0   6  -6  104.68    3.93   0
   0  -6  -6  107.64    4.66   0
   0  -6  -6  101.58    4.95   0
   0  -6   6  105.59    3.96   0
   0   6   6  103.22    4.46   0
  -1   6  -6  155.60    4.23   0
   1  -6   6  154.96    4.22   0
  -1  -6  -6  158.70    4.89   0
  -1  -6  -6  155.41    4.83   0
  -2  -6  -6    3.47    3.21   0
   2  -6   6    2.53    2.86   0
   2   6   6   17.45    5.43   0
  -2  -6  -6    3.79    3.56   0
  -2   6  -6    4.28    3.08   0
  -3  -6  -6  210.52    5.52   0
  -3   6  -6  196.82    4.45   0
   3  -6   6  205.41    4.55   0
   3   6   6  200.01    6.50   0
  -3  -6  -6  202.76    6.17   0
   4  -6   6   24.96    3.27   0
  -4   6  -6   20.88    3.36   0
  -4  -6  -6   19.50    4.14   0
   4   6   6   18.17    5.39   0
  -4  -6  -6   21.91    3.67   0
  -5  -6  -6    4.32    3.43   0
  -5   6  -6    2.05    3.46   0
  -5  -6  -6    2.92    3.58   0
   5  -6   6    2.06    3.19   0
   5   6   6    3.61    4.59   0
  -6  -6  -6  274.86    6.25   0
   6  -6   6  241.71    4.96   0
   6   6   6  238.26    6.80   0
  -6   6  -6  267.61    5.04   0
   7  -6   6   71.64    3.76   0
  -7  -6  -6   80.94    4.51   0
  -7   6  -6   74.53    3.88   0
   7   6   6   64.28    5.75   0
  -8  -6  -6    0.89    4.38   0
   8   6   6    2.47    4.73   0
   8  -6   6    3.62    3.12   0
  -8   6  -6   -1.03    3.43   0
   9   6   6    5.01    4.84   0
  -9  -6  -6    3.35    4.08   0
  -9   6  -6   -3.47    3.84   0
   9  -6   6   -3.34    3.47   0
  10  -6   6   -2.83    3.88   0
  10   6   6    0.71    5.30   0
 -10  -6  -6    1.17    4.56   0
 -10   6  -6   -1.10    3.87   0
 -10  -7   6    2.27    4.37   0
 -10  -7   6    0.86    3.88   0
  10  -7  -6    2.96    4.23   0
 -10   7   6   -0.12    4.65   0
  10  -7  -6   -2.08    5.05   0
  -9  -7   6   -2.05    3.93   0
   9  -7  -6   -3.96    4.79   0
  -9  -7   6    3.79    3.98   0
  -9   7   6    0.35    4.35   0
   8  -7  -6    4.40    3.99   0
  -8  -7   6   -0.23    3.95   0
   8  -7  -6    5.48    4.67   0
  -8   7   6   -0.19    3.98   0
  -8  -7   6   -1.17    3.70   0
  -7  -7   6    2.45    3.46   0
  -7  -7   6    2.38    3.58   0
  -7   7   6    1.33    3.55   0
   7  -7  -6    1.52    3.74   0
  -6  -7   6   -1.08    3.51   0
   6  -7  -6    0.21    3.62   0
   6  -7  -6    7.88    4.07   0
  -6   7   6    0.09    4.27   0
  -6  -7   6    5.96    3.75   0
  -5   7   6   -0.63    3.51   0
   5  -7  -6   -0.06    3.97   0
  -5  -7   6    2.04    3.41   0
  -5  -7   6   -1.35    3.46   0
   5  -7  -6   -0.44    3.40   0
  -4   7   6  171.48    5.38   0
   4  -7  -6  193.46    5.74   0
  -4  -7   6  154.46    4.79   0
   4  -7  -6  179.02    5.12   0
   3  -7  -6  123.77    5.23   0
  -3   7   6  132.60    4.60   0
  -3  -7   6  114.23    6.47   0
  -3  -7   6  111.31    4.41   0
   3  -7  -6  115.28    4.84   0
  -2  -7   6  143.96    4.58   0
  -2  -7   6  138.14    6.01   0
  -2   7   6  139.70    4.79   0
   2  -7  -6  151.53    4.87   0
   2  -7  -6  142.89    5.04   0
   1  -7  -6  112.32    4.95   0
   1  -7  -6  114.54    4.88   0
  -1  -7   6  105.70    5.96   0
  -1   7   6  116.73    5.19   0
  -1  -7   6  109.93    4.32   0
   0  -7  -6  105.47    4.84   0
   0  -7   6  103.24    4.38   0
   0  -7   6  101.22    5.97   0
   0  -7  -6  104.57    4.70   0
   0   7  -6  107.92    4.35   0
  -1  -7  -6   19.18    4.13   0
  -1   7  -6   25.68    3.63   0
   1  -7   6   23.45    3.51   0
   1  -7   6   22.35    4.95   0
  -1  -7  -6   23.11    4.47   0
  -2  -7  -6    9.09    3.45   0
  -2  -7  -6    2.67    4.00   0
   2  -7   6    7.79    3.41   0
  -2   7  -6    7.51    3.42   0
   3  -7   6  100.83    4.29   0
  -3   7  -6  116.83    4.48   0
  -3  -7  -6  112.03    4.84   0
   3   7   6  112.27    5.47   0
  -3  -7  -6  119.61    4.51   0
  -4  -7  -6   -2.22    4.13   0
  -4  -7  -6   -0.67    3.54   0
  -4   7  -6    2.65    3.40   0
   4   7   6   -0.80    4.87   0
   4  -7   6   -2.67    3.38   0
  -5   7  -6   98.26    4.15   0
  -5  -7  -6   90.03    4.52   0
  -5  -7  -6   87.97    4.41   0
   5  -7   6   85.06    3.82   0
   5   7   6   83.47    5.88   0
  -6  -7  -6   10.40    3.83   0
   6   7   6   11.84    4.38   0
  -6  -7  -6   16.33    3.94   0
  -6   7  -6   16.32    3.29   0
   6  -7   6   12.85    3.37   0
  -7  -7  -6   20.37    3.95   0
   7  -7   6   10.41    3.43   0
  -7  -7  -6   12.14    3.95   0
   7   7   6    9.13    4.95   0
  -7   7  -6   15.66    3.55   0
  -8  -7  -6   20.37    4.37   0
   8   7   6   14.33    5.48   0
  -8   7  -6   22.08    4.17   0
   8  -7   6   23.62    3.97   0
  -8  -7  -6   28.32    4.85   0
  -9  -7  -6   24.80    4.46   0
  -9   7  -6   28.50    4.07   0
   9  -7   6   33.98    4.08   0
   9   7   6   21.39    6.22   0
  -8  -8   6    3.53    4.53   0
  -8   8   6   -1.98    4.37   0
   8  -8  -6    0.52    4.64   0
  -8  -8   6    3.53    4.55   0
   8  -8  -6    1.27    4.33   0
  -7   8   6   -2.76    3.72   0
   7  -8  -6    6.67    4.43   0
   7  -8  -6    5.38    4.38   0
  -7  -8   6   -0.70    3.95   0
  -7  -8   6   -2.61    4.04   0
   6  -8  -6    3.89    4.59   0
   6  -8  -6   -0.06    4.30   0
  -6  -8   6    2.59    4.03   0
  -6   8   6    3.49    4.31   0
  -6  -8   6   -0.37    3.76   0
  -5  -8   6   24.85    4.11   0
  -5   8   6   19.38    3.98   0
   5  -8  -6   26.38    4.01   0
  -5  -8   6   27.49    3.96   0
   5  -8  -6   39.95    5.13   0
   4  -8  -6   13.99    4.04   0
  -4   8   6    5.76    3.81   0
  -4  -8   6    8.90    3.74   0
   4  -8  -6    5.45    3.84   0
  -3   8   6  125.90    5.19   0
  -3  -8   6  129.32    4.29   0
  -3  -8   6  126.64    6.17   0
   3  -8  -6  127.05    5.42   0
   3  -8  -6  129.24    4.94   0
   2  -8  -6   -1.10    4.01   0
   2  -8  -6    3.21    4.12   0
  -2  -8   6    5.63    3.61   0
  -2  -8   6    2.81    4.30   0
  -2   8   6    0.38    3.64   0
   1  -8  -6   14.41    3.68   0
  -1  -8   6   19.08    4.57   0
   1  -8  -6   15.12    4.13   0
  -1   8   6   14.96    4.37   0
  -1  -8   6   19.48    3.31   0
   0   8  -6   24.11    3.72   0
   0  -8  -6   14.51    3.79   0
   0  -8  -6   20.12    4.07   0
   0  -8   6   19.45    3.77   0
   0  -8   6   16.97    4.29   0
  -1  -8  -6   46.54    4.11   0
   1  -8   6   31.92    4.70   0
   1  -8   6   45.54    3.63   0
  -1  -8  -6   48.77    4.42   0
  -1   8  -6   44.60    3.93   0
   2  -8   6    1.50    4.65   0
   2  -8   6    1.35    3.14   0
  -2  -8  -6   -0.10    4.23   0
  -2  -8  -6    1.95    3.78   0
  -2   8  -6   -1.40    3.79   0
  -3   8  -6    1.59    3.28   0
  -3  -8  -6    4.71    4.18   0
  -3  -8  -6    2.49    4.24   0
   3  -8   6    1.83    3.64   0
   4  -8   6   25.13    4.01   0
  -4  -8  -6   27.26    4.60   0
  -4   8  -6   26.14    3.88   0
  -4  -8  -6   24.76    4.73   0
  -5  -8  -6    7.22    4.40   0
  -5   8  -6    4.43    3.71   0
  -5  -8  -6   -1.22    4.34   0
   5  -8   6    5.53    3.68   0
  -6  -8  -6   23.92    4.51   0
  -6  -8  -6    5.34    4.18   0
   6  -8   6   25.16    3.93   0
  -6   8  -6   24.67    4.07   0
  -7  -8  -6    2.44    4.46   0
  -7  -8  -6    8.72    4.22   0
  -7   8  -6    7.43    4.29   0
   7   8   6    2.76    6.35   0
   7  -8   6   13.81    3.76   0
  -8  -8  -6   24.92    5.55   0
   8   8   6   24.00    6.52   0
   8  -8   6   22.84    4.38   0
  -8   8  -6   19.15    4.40   0
  -8  -8  -6   29.38    5.37   0
  -7  -9   6    6.82    4.10   0
  -7   9   6    1.89    4.63   0
   7  -9  -6    2.77    4.62   0
   7  -9  -6    6.33    4.82   0
  -7  -9   6    0.18    4.56   0
   6  -9  -6    3.13    4.12   0
  -6   9   6    1.06    4.74   0
   6  -9  -6   -0.46    4.69   0
  -6  -9   6   -1.65    4.25   0
  -6  -9   6    4.00    4.34   0
   5  -9  -6    3.29    4.58   0
  -5  -9   6   17.97    4.24   0
   5  -9  -6    9.67    4.29   0
  -5   9   6   -5.18    4.57   0
  -5  -9   6    5.91    4.38   0
  -4  -9   6   15.26    4.31   0
   4  -9  -6   20.41    4.60   0
  -4   9   6   -0.97    4.80   0
   4  -9  -6    9.67    4.22   0
   3  -9  -6    3.68    4.60   0
  -3   9   6   -2.84    3.96   0
   3  -9  -6    0.66    3.72   0
  -3  -9   6   -0.23    4.67   0
  -3  -9   6   -2.33    3.74   0
  -2  -9   6   23.29    4.91   0
   2  -9  -6   23.23    4.39   0
  -2  -9   6   28.38    4.06   0
   2  -9  -6   23.28    4.47   0
  -2   9   6    3.90    4.25   0
   1  -9  -6    8.99    4.45   0
   1  -9  -6   15.22    3.94   0
  -1  -9   6    7.38    5.10   0
  -1  -9   6   21.64    3.86   0
   0  -9  -6    0.63    4.22   0
   0  -9   6    2.88    4.51   0
   0  -9  -6    4.80    4.53   0
   0  -9   6    0.22    3.71   0
   1  -9   6    0.28    3.74   0
  -1  -9  -6    1.10    4.19   0
   1  -9   6    4.05    4.27   0
  -1  -9  -6   -0.75    3.86   0
  -1   9  -6   -0.45    3.75   0
  -2  -9  -6   18.58    3.99   0
  -2  -9  -6   18.67    4.42   0
   2  -9   6   25.78    3.80   0
   2  -9   6   16.26    4.62   0
  -2   9  -6   23.08    3.87   0
   3  -9   6   45.14    4.29   0
  -3   9  -6   40.44    4.29   0
   3  -9   6   49.00    5.00   0
  -3  -9  -6    9.25    4.90   0
  -3  -9  -6   48.80    5.08   0
  -4  -9  -6    0.34    4.10   0
  -4   9  -6    1.82    4.16   0
  -4  -9  -6    0.04    4.69   0
   4  -9   6    4.42    4.11   0
   4  -9   6   -0.73    4.82   0
  -5  -9  -6   33.70    4.37   0
  -5  -9  -6   31.75    4.41   0
  -5   9  -6   31.56    4.38   0
   5  -9   6    3.45    5.61   0
   5  -9   6   34.32    4.34   0
  -6  -9  -6    6.94    4.86   0
  -6   9  -6    6.02    4.01   0
   6  -9   6   -1.50    4.07   0
  -6  -9  -6    7.84    4.41   0
  -7  -9  -6   -0.56    5.29   0
  -4 -10   6    3.45    4.23   0
  -4  10   6   -2.26    4.55   0
   4 -10  -6   -1.88    4.79   0
   4 -10  -6   -5.22    4.60   0
  -3  10   6    3.91    4.18   0
   3 -10  -6    2.05    4.74   0
   3 -10  -6   -2.42    4.57   0
  -3 -10   6    3.85    4.38   0
  -3 -10   6    1.53    5.16   0
  -2 -10   6    6.61    5.67   0
   2 -10  -6   22.88    5.11   0
   2 -10  -6    6.35    4.85   0
  -2  10   6   -3.29    4.99   0
  -2 -10   6   24.17    4.30   0
   1 -10  -6   20.82    5.36   0
   1 -10  -6   22.88    4.95   0
  -1 -10   6   23.83    5.50   0
  -1 -10   6   19.04    3.97   0
   0 -10  -6    0.86    4.72   0
   0 -10   6    1.98    4.97   0
   0 -10   6    1.01    4.24   0
   0 -10  -6    1.79    4.15   0
  -1 -10  -6    3.47    4.17   0
   1 -10   6    0.05    4.19   0
  -1  10  -6   -0.36    4.16   0
   1 -10   6    2.29    4.43   0
  -1 -10  -6    2.64    4.63   0
   2 -10   6    5.89    4.74   0
  -2  10  -6    2.85    4.32   0
  -2 -10  -6    5.13    4.26   0
  -2 -10  -6    1.83    4.29   0
   2 -10   6    7.65    4.34   0
   3 -10   6   -0.08    3.89   0
  -3 -10  -6   17.38    4.77   0
   3 -10   6    9.28    4.93   0
  -3  10  -6   10.68    4.33   0
  -3 -10  -6    5.17    4.96   0
  -4 -10  -6    1.56    5.12   0
  -4  10  -6   -1.42    4.23   0
   4 -10   6    5.74    5.16   0
  -4 -10  -6    2.51    4.60   0
   4 -10   6    1.04    3.64   0
  13   0  -7   12.34    6.48   0
 -13   0   7    7.63    4.41   0
  13   0  -7    3.48    3.88   0
  11   0  -7  185.53    5.11   0
 -11   0   7  220.32    5.27   0
  -9   0   7    3.60    3.29   0
   9   0  -7   -0.82    3.39   0
   7   0  -7    0.44    2.94   0
  -7   0   7   -2.43    2.86   0
  -5   0   7   43.43    3.70   0
   5   0  -7   38.67    3.82   0
   3   0  -7  548.37    8.89   0
  -3   0   7  561.53    8.78   0
  -1   0   7 5923.77   32.80   0
   1   0   7 2948.59   25.44   0
   3   0   7   75.84    4.28   0
  -3   0  -7   73.97    4.64   0
  -5   0  -7    9.40    3.12   0
   5   0   7    9.95    3.05   0
  -7   0  -7   -1.33    2.90   0
   7   0   7   -1.58    2.88   0
   9   0   7   14.76    3.51   0
  -9   0  -7   17.23    3.64   0
  11   0   7    0.22    3.43   0
 -11   0  -7    0.12    3.33   0
  13  -1  -7    8.38    4.50   0
  13  -1  -7   17.48    5.43   0
 -13  -1   7    5.55    4.44   0
 -13   1   7   17.33    4.41   0
  13   1  -7   20.00    6.36   0
  13   1  -7    4.70    4.48   0
  12  -1  -7    4.74    3.97   0
  12  -1  -7    1.64    5.27   0
 -12  -1   7    0.01    3.88   0
 -12   1   7    1.27    3.99   0
  12   1  -7    6.09    5.64   0
  12   1  -7    1.38    3.94   0
  11  -1  -7    2.82    3.43   0
 -11   1   7    1.13    3.49   0
 -11  -1   7    1.28    3.43   0
  11   1  -7    4.36    3.40   0
  10  -1  -7   24.75    3.58   0
 -10   1   7   32.41    3.31   0
  10   1  -7   29.74    3.66   0
 -10  -1   7   22.06    3.54   0
   9  -1  -7   57.51    4.12   0
  -9  -1   7   60.02    3.80   0
  -9   1   7   68.01    4.19   0
   9   1  -7   64.98    3.90   0
  -8   1   7  110.56    4.35   0
  -8  -1   7  112.83    4.03   0
   8  -1  -7  113.16    4.12   0
   8   1  -7  105.81    4.10   0
   7  -1  -7  135.98    4.15   0
  -7   1   7  134.82    4.38   0
  -7  -1   7  137.96    4.11   0
   7   1  -7  130.67    4.21   0
   6   1  -7    3.39    5.24   0
  -6  -1   7    4.65    2.95   0
   6  -1  -7    1.12    3.08   0
  -6   1   7    0.87    3.12   0
   6   1  -7    2.21    2.99   0
  -5  -1   7   29.49    3.59   0
   5   1  -7   29.68    5.94   0
   5  -1  -7   28.86    4.06   0
  -5   1   7   31.21    3.48   0
   5  -1  -7   28.23    5.16   0
   5   1  -7   29.55    3.75   0
   4  -1  -7 1314.14   12.06   0
  -4  -1   7 1366.60   11.47   0
   4  -1  -7 1371.66   13.69   0
  -4   1   7 1355.85   11.86   0
   4   1  -7 1358.70   11.43   0
   4   1  -7 1356.76   18.71   0
  -3  -1   7 1038.74   10.92   0
   3  -1  -7  995.05   11.81   0
   3   1  -7 1031.92   18.36   0
  -3   1   7  976.69   11.78   0
   3  -1  -7  983.06   12.14   0
   2  -1  -7   28.12    4.90   0
  -2   1   7   27.06    4.04   0
   2  -1  -7   24.09    5.30   0
  -2  -1   7   24.52    5.59   0
  -2   1   7   29.18    4.95   0
   1  -1  -7 1000.14   20.78   0
  -1   1   7  929.16   19.94   0
  -1  -1   7  911.59   12.13   0
   1  -1  -7  922.33   12.07   0
  -1   1   7  914.12   12.00   0
   0  -1   7  633.20   10.56   0
   0   1   7  639.02   10.15   0
   0   1  -7  643.98   10.85   0
   1  -1   7 3476.13   22.17   0
   1   1   7 3678.43   36.02   0
  -1   1  -7 3423.82   22.06   0
   2   1   7   58.49    5.19   0
  -2   1  -7   56.63    4.75   0
   2  -1   7   57.03    4.18   0
   3  -1   7   53.38    3.69   0
   3   1   7   54.63    4.48   0
  -3   1  -7   47.97    3.68   0
  -3  -1  -7   56.66    3.95   0
  -4   1  -7    3.89    3.40   0
   4   1   7    5.98    3.36   0
  -4  -1  -7    3.88    3.37   0
   4  -1   7    5.56    3.27   0
  -5   1  -7  345.43    5.98   0
  -5  -1  -7  330.45    6.29   0
   5  -1   7  310.65    5.43   0
   5   1   7  330.30    6.04   0
   6   1   7    4.05    3.04   0
  -6  -1  -7    1.44    3.07   0
   6  -1   7   -0.19    2.76   0
  -6   1  -7    1.31    2.76   0
   7  -1   7   36.92    3.49   0
  -7  -1  -7   33.44    3.51   0
   7   1   7   29.07    3.58   0
  -7   1  -7   34.70    3.26   0
   8  -1   7  378.72    5.54   0
  -8  -1  -7  404.76    6.04   0
  -8   1  -7  374.63    5.52   0
   8   1   7  365.55    6.03   0
  -9  -1  -7    0.25    3.83   0
   9   1   7   -1.06    3.74   0
   9  -1   7    1.72    3.04   0
  -9   1  -7   -1.36    3.04   0
  10  -1   7   95.24    4.17   0
 -10  -1  -7  135.26    4.41   0
  10   1   7  110.27    4.33   0
 -10   1  -7  115.39    3.95   0
  11  -1   7   43.81    3.97   0
 -11  -1  -7   59.03    4.13   0
  11   1   7   42.89    4.04   0
 -11   1  -7   52.90    4.18   0
  12   1   7    6.92    4.09   0
  12  -1   7   -1.01    3.79   0
 -12   1  -7    2.20    3.89   0
 -12  -1  -7    1.51    3.84   0
  12  -2  -7   72.18    4.68   0
  12   2  -7   86.62    7.12   0
  12   2  -7   73.15    4.60   0
 -12  -2   7   89.52    4.57   0
  12  -2  -7   82.83    5.49   0
 -12   2   7   93.69    4.67   0
  11  -2  -7    5.29    4.73   0
  11  -2  -7    9.68    3.83   0
  11   2  -7    4.32    6.22   0
  11   2  -7    1.48    3.73   0
 -11   2   7    3.51    3.86   0
 -11  -2   7   -3.16    3.28   0
  10   2  -7   23.17    5.90   0
 -10  -2   7   28.16    3.55   0
 -10   2   7   19.48    3.72   0
  10   2  -7   26.21    3.52   0
  10  -2  -7   27.53    3.84   0
  -9   2   7   10.79    3.72   0
  -9  -2   7    7.40    3.16   0
   9   2  -7   14.62    5.84   0
   9   2  -7    5.22    3.22   0
   9  -2  -7   12.77    3.62   0
   8   2  -7   -0.20    5.94   0
   8  -2  -7    1.06    3.49   0
  -8  -2   7   -0.32    2.85   0
  -8   2   7    0.44    3.47   0
   8   2  -7    3.77    2.97   0
   7  -2  -7   28.95    3.60   0
   7   2  -7   27.88    6.54   0
  -7   2   7   34.42    3.54   0
  -7  -2   7   22.83    3.12   0
   7   2  -7   29.06    3.29   0
  -6  -2   7  113.91    3.77   0
   6  -2  -7  115.28    4.17   0
   6   2  -7  110.33    9.05   0
   6  -2  -7  119.51    5.57   0
  -6   2   7  113.70    4.18   0
   5  -2  -7 1394.05   11.85   0
  -5   2   7 1468.28   11.52   0
  -5  -2   7 1455.94   10.50   0
   5   2  -7 1443.16   27.34   0
   5  -2  -7 1423.31   11.11   0
   4  -2  -7  540.36    7.99   0
  -4   2   7  534.52    7.80   0
  -4  -2   7  528.32    7.09   0
   4  -2  -7  535.16    8.56   0
   3  -2  -7  264.84    6.79   0
  -3   2   7  262.53    6.53   0
   3  -2  -7  288.56    7.29   0
  -3  -2   7  284.79    6.03   0
  -2   2   7 1072.27   11.57   0
   2  -2  -7 1090.32   14.05   0
  -2   2   7 1092.61   14.24   0
  -2  -2   7 1087.31   10.67   0
   2  -2  -7 1133.58   11.89   0
  -1  -2   7   77.52    4.53   0
   1   2  -7   79.45    4.51   0
   1  -2  -7   76.75    4.67   0
  -1   2   7   76.96    6.17   0
   1  -2  -7   80.70    6.52   0
  -1   2   7   76.02    4.88   0
   0  -2  -7  162.44    5.43   0
   0  -2   7  168.90    5.49   0
   0   2  -7  167.41    5.45   0
   0   2   7  168.38    5.71   0
   0  -2  -7  157.46   10.32   0
  -1   2  -7  370.66    6.90   0
  -1  -2  -7  389.94   11.71   0
   1  -2   7  360.39    6.84   0
   1   2   7  385.70    7.46   0
   2   2   7   26.89    4.78   0
   2  -2   7   22.07    3.41   0
  -2   2  -7   25.23    3.25   0
   3  -2   7   64.37    3.77   0
  -3  -2  -7   66.92    4.03   0
   3   2   7   65.05    4.79   0
  -3   2  -7   70.26    3.86   0
  -4   2  -7  943.45    8.79   0
  -4  -2  -7  987.28   10.34   0
   4  -2   7  914.93    8.70   0
   4   2   7  968.13   10.26   0
  -5  -2  -7    2.80    3.26   0
  -5   2  -7    6.41    2.84   0
   5  -2   7    2.10    2.77   0
   5   2   7    0.35    3.35   0
  -6   2  -7   41.27    3.16   0
   6   2   7   34.36    3.69   0
  -6  -2  -7   41.57    3.65   0
   6  -2   7   40.19    3.17   0
   7   2   7    3.44    3.66   0
   7  -2   7    0.23    2.80   0
  -7  -2  -7    0.72    3.59   0
  -7   2  -7    0.98    2.79   0
   8   2   7   10.77    3.84   0
  -8  -2  -7   13.96    3.58   0
   8  -2   7   10.68    2.99   0
  -8   2  -7    6.68    2.82   0
   9  -2   7    2.41    2.92   0
   9   2   7    0.70    3.62   0
  -9  -2  -7    3.23    3.65   0
  -9   2  -7    3.55    3.08   0
  10   2   7   75.95    4.49   0
 -10   2  -7   69.77    3.65   0
  10  -2   7   61.59    3.80   0
 -10  -2  -7   68.72    4.38   0
  11   2   7   73.83    4.47   0
  11  -2   7   66.12    4.31   0
 -11  -2  -7   97.02    4.78   0
 -11   2  -7   92.34    4.41   0
 -12   2  -7    6.73    3.85   0
  12   2   7    4.14    4.34   0
 -12  -2  -7    6.05    4.15   0
  12  -2   7    4.35    3.76   0
  12  -3  -7   56.81    4.69   0
 -12  -3   7   60.62    4.18   0
  12  -3  -7   55.08    5.57   0
  12   3  -7   56.17    9.82   0
 -12   3   7   11.63    4.69   0
  11  -3  -7   61.13    5.91   0
  11   3  -7   60.84    8.77   0
 -11  -3   7   63.39    4.12   0
 -11   3   7   74.59    4.60   0
  11  -3  -7   66.98    4.48   0
  10  -3  -7   19.48    4.06   0
 -10   3   7   18.13    3.99   0
 -10  -3   7   18.58    3.65   0
  10   3  -7   15.38    7.34   0
  10  -3  -7   20.94    4.93   0
   9  -3  -7   36.05    4.39   0
  -9  -3   7   41.34    3.48   0
   9   3  -7   39.13    8.25   0
   9  -3  -7   37.05    4.97   0
  -9   3   7   36.77    4.00   0
   8  -3  -7    2.75    4.76   0
  -8  -3   7    7.24    2.84   0
   8  -3  -7    1.25    3.45   0
   8   3  -7    1.56    8.02   0
  -8   3   7    3.39    3.43   0
   7  -3  -7   21.97    3.69   0
  -7  -3   7   21.26    3.11   0
   7  -3  -7   21.45    5.29   0
  -7   3   7   22.80    3.69   0
  -6   3   7   24.82    3.81   0
   6  -3  -7   17.40    3.33   0
   6  -3  -7   15.28    4.43   0
  -6  -3   7   14.80    2.79   0
   5  -3  -7   32.78    4.38   0
   5  -3  -7   35.32    3.66   0
  -5  -3   7   30.48    3.09   0
  -5   3   7   30.97    3.77   0
   4  -3  -7  156.77    5.56   0
  -4   3   7  145.57    4.86   0
   4  -3  -7  149.47    5.50   0
  -4  -3   7  155.84    4.57   0
  -3   3   7  347.96    7.02   0
   3  -3  -7  389.92    7.49   0
   3  -3  -7  336.80    7.10   0
  -3  -3   7  343.61    6.05   0
  -2  -3   7  710.41    8.12   0
   2  -3  -7  701.64   10.39   0
   2  -3  -7  752.67    9.24   0
  -2   3   7  702.05   10.45   0
   1  -3  -7  348.63    8.58   0
  -1   3   7  345.78    8.66   0
  -1   3   7  336.96    6.95   0
   1   3  -7  346.57    6.26   0
  -1  -3   7  347.08    6.25   0
   1  -3  -7  356.36    6.78   0
   0  -3   7   59.08    3.97   0
   0   3  -7   56.89    4.01   0
   0   3   7   60.25    5.27   0
   0  -3  -7   62.13    4.53   0
   0   3   7   57.62    4.57   0
   0  -3  -7   59.72    5.10   0
  -1   3  -7  463.98    6.87   0
  -1  -3  -7  467.28    9.95   0
  -1  -3  -7  477.48    7.50   0
   1   3   7  473.16    7.92   0
   1  -3   7  469.39    6.88   0
   2   3   7   11.79    3.87   0
   2  -3   7    9.68    3.18   0
  -2   3  -7   10.16    3.23   0
  -3  -3  -7  256.45    6.37   0
   3   3   7  263.89    6.26   0
   3  -3   7  252.98    5.21   0
  -3   3  -7  244.11    5.11   0
  -4  -3  -7 1013.40   10.29   0
   4  -3   7  921.86    8.40   0
  -4   3  -7  933.91    8.43   0
   5   3   7   36.36    4.36   0
   5  -3   7   44.01    3.13   0
  -5   3  -7   41.39    2.97   0
  -5  -3  -7   45.90    4.21   0
  -6  -3  -7   97.88    4.72   0
   6   3   7  101.78    4.46   0
  -6   3  -7   86.60    3.43   0
   6  -3   7   91.10    3.41   0
   7   3   7    7.77    3.74   0
  -7   3  -7   11.10    3.00   0
  -7  -3  -7   12.09    3.59   0
   7  -3   7    9.44    2.89   0
  -8   3  -7  119.54    3.84   0
  -8  -3  -7  138.92    4.66   0
   8  -3   7  125.06    3.85   0
   8   3   7  125.23    4.72   0
  -9   3  -7    0.75    2.82   0
  -9  -3  -7    4.82    3.82   0
   9  -3   7    3.15    2.77   0
   9   3   7    8.94    4.09   0
 -10  -3  -7   74.61    4.41   0
  10  -3   7   61.64    3.89   0
  10   3   7   74.98    4.60   0
 -10   3  -7   72.58    3.86   0
  11  -3   7    2.70    3.25   0
 -11  -3  -7    5.33    4.30   0
 -11   3  -7    3.16    3.56   0
  11   3   7    3.38    4.32   0
 -12   3  -7   -2.84    4.30   0
  12  -3   7   18.44    4.24   0
 -12  -3  -7   24.46    4.49   0
  12   3   7   28.51    4.56   0
 -12   4   7    7.37    4.11   0
  12  -4  -7    5.55    4.33   0
 -12  -4   7    5.30    4.20   0
  12  -4  -7    7.91    5.07   0
  11  -4  -7    1.98    4.88   0
  11  -4  -7   -0.05    4.07   0
 -11  -4   7    3.71    3.34   0
 -11   4   7    0.60    4.00   0
 -10   4   7   -0.18    3.54   0
  10  -4  -7    1.49    3.67   0
 -10  -4   7   -0.18    3.46   0
  10  -4  -7    1.39    4.84   0
  -9  -4   7   62.69    3.77   0
   9  -4  -7   58.53    4.40   0
  -9   4   7   58.77    4.17   0
   9  -4  -7   55.81    5.19   0
  -8   4   7   -3.27    3.52   0
   8  -4  -7   -0.41    3.47   0
  -8  -4   7    0.78    3.02   0
   8  -4  -7    3.73    4.72   0
  -7   4   7  351.03    5.77   0
  -7  -4   7  334.49    5.20   0
   7  -4  -7  329.13    6.66   0
   7  -4  -7  339.44    5.96   0
  -6  -4   7   40.36    3.24   0
  -6   4   7   42.06    3.70   0
   6  -4  -7   33.48    3.59   0
   6  -4  -7   31.79    4.64   0
  -5   4   7  438.93    6.72   0
   5  -4  -7  438.12    6.96   0
   5  -4  -7  438.85    6.90   0
  -5  -4   7  422.55    5.78   0
  -4   4   7   22.24    4.07   0
  -4  -4   7   16.68    2.99   0
   4  -4  -7   23.06    4.09   0
   4  -4  -7   22.66    3.54   0
  -4  -4   7   17.92    3.12   0
  -3  -4   7  645.80    7.09   0
  -3  -4   7  624.60   17.45   0
  -3   4   7  627.33    8.72   0
   3  -4  -7  742.15    9.12   0
   3  -4  -7  657.35    8.46   0
  -2   4   7  765.86   10.11   0
   2  -4  -7  786.07    8.79   0
  -2  -4   7  742.03    7.54   0
   2  -4  -7  780.63   10.08   0
  -2  -4   7  709.49   13.52   0
   1   4  -7   18.07    3.06   0
   1  -4  -7   23.57    3.95   0
  -1   4   7   17.16    4.62   0
  -1  -4   7   21.16    3.39   0
   1  -4  -7   22.47    4.00   0
  -1   4   7   20.81    3.67   0
   0  -4  -7  268.87    5.99   0
   0  -4  -7  294.00    7.47   0
   0   4  -7  292.11    5.43   0
   0   4   7  299.48    7.45   0
   0   4   7  289.66    6.63   0
   0  -4   7  303.04    5.51   0
   1  -4   7   46.52    3.51   0
  -1  -4  -7   48.85    4.16   0
  -1   4  -7   44.92    3.54   0
   1   4   7   44.44    4.51   0
  -1  -4  -7   47.71    4.06   0
   2  -4   7 1892.78   11.86   0
  -2  -4  -7 1987.79   15.32   0
   2   4   7 1977.32   14.10   0
  -2   4  -7 1914.22   11.77   0
  -3   4  -7   42.07    3.25   0
   3  -4   7   40.96    3.15   0
   3   4   7   37.36    4.38   0
  -3  -4  -7   46.28    4.39   0
  -4  -4  -7   11.00    4.33   0
   4   4   7   11.46    3.88   0
  -4   4  -7    7.63    2.81   0
   4  -4   7    8.92    2.77   0
  -5  -4  -7   75.45    4.28   0
   5  -4   7   64.58    3.20   0
  -5   4  -7   68.58    3.29   0
   5   4   7   67.69    4.59   0
  -6   4  -7  209.32    4.37   0
   6  -4   7  207.76    4.37   0
   6   4   7  196.96    6.19   0
  -6  -4  -7  227.57    5.31   0
  -7   4  -7   98.20    3.60   0
  -7  -4  -7  108.62    5.13   0
   7  -4   7   86.88    3.48   0
  -8   4  -7   10.24    3.00   0
  -8  -4  -7   14.07    4.07   0
   8  -4   7    9.60    3.13   0
  -9   4  -7   24.37    3.45   0
  -9  -4  -7   25.76    4.20   0
   9  -4   7   18.83    3.71   0
 -10   4  -7    6.82    3.43   0
  10  -4   7    5.46    3.55   0
 -10  -4  -7   13.47    4.15   0
 -11   4  -7   84.66    4.16   0
  11  -4   7   75.50    4.21   0
 -11  -4  -7   85.88    5.13   0
 -12   4  -7   -0.17    3.97   0
 -12  -4  -7    1.16    4.33   0
 -11  -5   7   14.48    4.04   0
  11  -5  -7    9.35    5.04   0
  11  -5  -7   11.85    4.37   0
 -11   5   7   -0.23    4.42   0
  10  -5  -7    6.72    3.83   0
 -10  -5   7    4.76    3.73   0
 -10   5   7   -3.19    4.04   0
   9  -5  -7   16.76    4.63   0
  -9   5   7    8.63    4.09   0
  -9  -5   7    9.91    3.09   0
   9  -5  -7   11.67    4.11   0
   8  -5  -7    3.30    3.49   0
  -8   5   7   12.52    3.54   0
   8  -5  -7   10.74    3.71   0
  -8  -5   7    0.86    3.38   0
  -7   5   7   18.71    3.77   0
   7  -5  -7   15.26    3.70   0
  -7  -5   7   13.51    3.26   0
   7  -5  -7   20.51    4.32   0
  -6  -5   7   22.13    3.27   0
   6  -5  -7   19.38    3.81   0
   6  -5  -7   30.07    4.19   0
  -6   5   7   24.92    3.85   0
   5  -5  -7  184.34    5.39   0
  -5  -5   7  190.83    4.80   0
   5  -5  -7  193.88    4.86   0
  -5   5   7  191.58    5.43   0
  -5  -5   7  188.62    4.58   0
  -4  -5   7   -1.85    3.14   0
   4  -5  -7    2.55    3.80   0
   4  -5  -7   -0.50    4.02   0
  -4   5   7    1.72    3.84   0
  -3  -5   7  488.11    6.42   0
  -3   5   7  513.05    7.58   0
  -3  -5   7  488.13   11.87   0
   3  -5  -7  514.29    7.31   0
   3  -5  -7  572.93    7.80   0
  -2   5   7  348.95    6.77   0
   2  -5  -7  357.98    6.76   0
  -2  -5   7  350.38    5.58   0
   2  -5  -7  363.49    6.21   0
  -2  -5   7  326.44    8.96   0
  -1  -5   7   -0.77    2.91   0
  -1   5   7   -0.32    3.74   0
   1  -5  -7    2.50    3.52   0
   1  -5  -7   -0.16    3.38   0
   1   5  -7    1.52    3.06   0
   0   5   7  165.45    5.89   0
   0   5  -7  154.36    4.14   0
   0   5   7  170.98    5.90   0
   0  -5  -7  167.80    4.98   0
   0  -5  -7  164.16    5.66   0
   0  -5   7  148.59    4.09   0
  -1  -5  -7   19.77    4.09   0
   1   5   7   23.01    4.72   0
  -1  -5  -7   16.87    4.17   0
   1  -5   7   15.11    3.04   0
  -1   5  -7   17.24    3.15   0
  -2  -5  -7   72.28    4.07   0
   2   5   7   76.46    5.08   0
   2  -5   7   65.39    3.55   0
  -2  -5  -7   66.26    4.20   0
  -2   5  -7   68.66    3.54   0
   3  -5   7   57.78    3.34   0
  -3  -5  -7   53.20    4.43   0
   3   5   7   51.97    5.21   0
  -3   5  -7   54.58    3.37   0
  -3  -5  -7   52.20    3.87   0
  -4  -5  -7   40.87    4.63   0
  -4   5  -7   30.06    3.35   0
   4   5   7   32.98    5.06   0
   4  -5   7   35.47    3.37   0
  -5   5  -7   90.20    3.85   0
   5   5   7   87.74    4.78   0
   5  -5   7   97.86    3.75   0
  -5  -5  -7   95.70    4.46   0
  -6  -5  -7    6.83    3.67   0
  -6   5  -7    6.23    3.05   0
   6  -5   7    1.97    3.04   0
   6   5   7    7.18    3.53   0
  -7  -5  -7   -0.19    3.82   0
  -7   5  -7    0.80    3.32   0
   7  -5   7   -2.98    3.22   0
   7   5   7    3.44    3.87   0
   8  -5   7    2.99    2.94   0
  -8   5  -7   -0.43    3.24   0
  -8  -5  -7    5.67    4.22   0
   8   5   7    3.33    4.43   0
  -9  -5  -7   -1.36    4.72   0
  -9   5  -7    4.72    3.36   0
   9  -5   7    0.83    3.43   0
   9   5   7    0.41    4.57   0
  10   5   7   41.53    5.64   0
 -10   5  -7   45.31    4.18   0
 -10  -5  -7   55.86    4.64   0
  10  -5   7   32.86    4.01   0
 -11   5  -7    3.77    3.85   0
  11  -5   7    0.58    3.98   0
  11   5   7    2.15    5.50   0
 -11  -5  -7    2.82    4.51   0
 -10  -6   7   83.31    4.58   0
  10  -6  -7  -17.21    5.00   0
 -10   6   7   76.71    5.69   0
  -9  -6   7    6.81    3.94   0
  -9   6   7    2.79    4.44   0
   9  -6  -7    6.73    4.12   0
   8  -6  -7    4.72    4.39   0
  -8  -6   7    5.00    3.20   0
   8  -6  -7    1.67    3.77   0
  -8  -6   7    4.50    3.54   0
  -8   6   7    1.67    3.81   0
  -7   6   7  157.12    4.89   0
   7  -6  -7  160.35    5.31   0
   7  -6  -7  169.92    4.98   0
  -7  -6   7  151.33    4.52   0
  -7  -6   7  164.36    4.56   0
  -6  -6   7   77.99    3.91   0
   6  -6  -7   77.84    4.54   0
  -6   6   7   85.46    4.25   0
  -6  -6   7   81.48    3.85   0
   6  -6  -7   74.40    4.15   0
  -5   6   7  161.94    4.87   0
   5  -6  -7  166.71    5.22   0
   5  -6  -7  161.33    4.80   0
  -5  -6   7  148.20    4.45   0
  -5  -6   7  167.38    4.52   0
  -4  -6   7   15.19    3.28   0
   4  -6  -7   11.47    3.69   0
   4  -6  -7    9.01    4.50   0
  -4   6   7   15.17    3.48   0
  -3   6   7   59.00    4.72   0
   3  -6  -7   57.35    4.34   0
   3  -6  -7   56.03    3.96   0
  -3  -6   7   52.23    3.48   0
  -3  -6   7   54.34    5.72   0
   2  -6  -7   10.12    3.19   0
  -2  -6   7   14.56    2.94   0
   2  -6  -7   12.14    4.22   0
  -2  -6   7   15.44    5.15   0
  -2   6   7   14.93    3.81   0
   1   6  -7   10.09    3.10   0
   1  -6  -7    4.86    3.18   0
  -1  -6   7    7.96    3.49   0
   1  -6  -7   10.80    4.51   0
  -1   6   7   13.18    3.39   0
  -1  -6   7    6.23    4.48   0
   0   6  -7  393.24    5.63   0
   0  -6  -7  386.73    6.81   0
   0  -6   7  374.97    5.75   0
   0  -6  -7  413.65    6.93   0
  -1   6  -7   43.74    3.46   0
   1   6   7   36.63    5.20   0
  -1  -6  -7   39.16    3.64   0
   1  -6   7   45.88    3.22   0
  -1  -6  -7   44.59    3.88   0
  -2  -6  -7    0.66    3.82   0
   2  -6   7    1.24    2.96   0
   2   6   7    3.20    4.57   0
  -2  -6  -7   -0.25    3.87   0
  -2   6  -7    3.59    2.95   0
  -3  -6  -7    2.38    4.10   0
   3  -6   7   -0.78    2.82   0
  -3   6  -7    3.37    3.06   0
  -3  -6  -7    2.26    3.90   0
   3   6   7    5.39    4.43   0
  -4   6  -7   10.20    3.14   0
  -4  -6  -7   12.72    4.44   0
  -4  -6  -7   11.52    3.62   0
   4   6   7    4.47    5.27   0
   4  -6   7    3.64    2.89   0
   5  -6   7   50.68    3.50   0
  -5  -6  -7   59.74    4.56   0
  -5  -6  -7   53.70    3.91   0
   5   6   7   51.27    4.75   0
  -5   6  -7   52.46    3.57   0
  -6  -6  -7    3.28    3.58   0
   6  -6   7    1.15    3.05   0
   6   6   7    0.02    4.29   0
  -6   6  -7    4.91    3.42   0
  -7  -6  -7   17.60    4.36   0
   7  -6   7   14.88    3.27   0
   7   6   7   15.09    4.55   0
  -7   6  -7   14.44    3.05   0
   8   6   7    2.01    5.02   0
  -8  -6  -7    4.77    3.90   0
   8  -6   7    6.78    3.37   0
  -8   6  -7    2.82    3.36   0
   9   6   7    7.91    4.90   0
   9  -6   7    6.71    3.99   0
  -9  -6  -7    4.80    4.21   0
  -9   6  -7   11.31    4.09   0
 -10   6  -7    5.57    4.16   0
  10  -6   7   13.75    3.67   0
 -10  -6  -7   12.39    4.64   0
  10   6   7   12.08    5.59   0
  -9  -7   7   10.82    4.10   0
  -9   7   7    4.30    4.29   0
   9  -7  -7   18.39    4.24   0
  -9  -7   7   10.42    3.79   0
   8  -7  -7    5.10    4.34   0
  -8   7   7   -1.12    3.98   0
  -8  -7   7    7.61    3.62   0
  -8  -7   7    6.30    3.94   0
  -7  -7   7    7.68    3.54   0
  -7   7   7    1.31    3.70   0
   7  -7  -7   -0.42    3.70   0
  -7  -7   7   -0.10    3.45   0
   6  -7  -7   24.89    4.37   0
  -6  -7   7   28.14    3.61   0
  -6  -7   7   25.41    3.24   0
  -6   7   7   24.17    4.56   0
   6  -7  -7   15.39    4.57   0
  -5  -7   7    7.39    3.51   0
  -5   7   7    4.16    3.71   0
   5  -7  -7    6.05    3.46   0
   5  -7  -7    7.78    3.94   0
  -5  -7   7    7.17    3.51   0
  -4  -7   7  149.95    4.58   0
   4  -7  -7  148.91    5.36   0
  -4   7   7  145.29    4.78   0
   4  -7  -7  157.79    5.52   0
  -3  -7   7  262.91    8.04   0
  -3   7   7  269.51    6.03   0
   3  -7  -7  284.31    6.27   0
   3  -7  -7  289.37    6.04   0
  -3  -7   7  280.65    5.38   0
   2  -7  -7  144.18    5.32   0
  -2  -7   7  135.58    4.45   0
  -2   7   7  143.23    5.19   0
  -2  -7   7  137.35    6.46   0
   2  -7  -7  140.94    5.75   0
   1  -7  -7   35.12    3.55   0
  -1  -7   7   29.83    3.52   0
   1  -7  -7   36.28    4.30   0
  -1   7   7   32.96    4.24   0
  -1  -7   7   25.35    4.43   0
   0  -7   7   10.98    3.11   0
   0  -7  -7   11.16    3.76   0
   0  -7   7    6.55    4.69   0
   0   7  -7   10.41    3.42   0
   0  -7  -7   15.47    4.50   0
  -1   7  -7   19.31    3.88   0
  -1  -7  -7   21.74    3.99   0
   1  -7   7   23.96    3.40   0
  -1  -7  -7   24.67    3.87   0
   2  -7   7   41.21    3.60   0
  -2   7  -7   34.60    4.02   0
  -2  -7  -7   35.34    3.79   0
  -2  -7  -7   29.91    4.11   0
   3  -7   7    0.37    3.39   0
  -3  -7  -7   -0.28    3.36   0
   3   7   7    3.02    4.19   0
  -3   7  -7    0.56    3.42   0
  -3  -7  -7    0.36    3.45   0
   4  -7   7   17.64    3.55   0
  -4  -7  -7   25.25    3.88   0
   4   7   7   25.78    5.34   0
  -4   7  -7   28.69    3.58   0
  -4  -7  -7   26.28    3.80   0
  -5   7  -7   11.54    3.32   0
   5  -7   7    4.47    3.24   0
   5   7   7   12.55    5.13   0
  -5  -7  -7    8.06    4.27   0
  -5  -7  -7   12.74    4.32   0
   6   7   7    9.27    5.05   0
  -6  -7  -7    7.37    4.52   0
  -6  -7  -7    8.43    4.05   0
   6  -7   7    3.52    3.20   0
  -6   7  -7   11.91    3.32   0
  -7  -7  -7    1.94    3.95   0
  -7  -7  -7    5.99    3.93   0
   7   7   7   -0.02    5.21   0
  -7   7  -7    3.11    3.62   0
   7  -7   7    5.71    3.55   0
  -8  -7  -7   51.76    5.01   0
  -8   7  -7   49.65    4.28   0
   8  -7   7   40.57    4.23   0
   8   7   7   37.63    6.63   0
  -8  -7  -7   44.06    4.40   0
  -9  -7  -7   -0.72    4.60   0
  -9   7  -7    4.25    3.86   0
   9   7   7    0.59    5.81   0
   9  -7   7    2.97    3.82   0
  -8  -8   7    3.48    4.17   0
   8  -8  -7    2.78    4.28   0
  -8  -8   7    1.19    4.27   0
  -8   8   7   -1.22    4.59   0
   8  -8  -7   -0.08    3.94   0
  -7  -8   7    4.26    4.01   0
  -7  -8   7    3.12    4.10   0
   7  -8  -7    2.55    3.71   0
   7  -8  -7    0.73    4.15   0
  -7   8   7    2.80    3.92   0
  -6  -8   7    3.59    3.52   0
  -6  -8   7    4.65    3.96   0
   6  -8  -7    2.28    3.58   0
  -6   8   7   -0.14    3.85   0
   6  -8  -7    3.12    4.68   0
  -5   8   7   -0.39    4.37   0
  -5  -8   7    1.80    3.63   0
   5  -8  -7    5.76    4.64   0
   5  -8  -7   -2.10    4.69   0
  -5  -8   7   -2.44    3.99   0
  -4  -8   7   19.61    3.59   0
   4  -8  -7   19.29    4.75   0
  -4   8   7   16.79    4.57   0
   4  -8  -7   18.75    3.84   0
   3  -8  -7    0.01    3.97   0
  -3  -8   7    0.33    3.64   0
  -3  -8   7   -1.13    4.86   0
  -3   8   7   -2.02    3.69   0
   3  -8  -7    0.32    3.67   0
  -2   8   7  206.39    5.58   0
   2  -8  -7  196.63    5.64   0
  -2  -8   7  194.26    4.98   0
   2  -8  -7  193.64    5.39   0
  -2  -8   7  191.88    6.78   0
  -1  -8   7    5.94    4.55   0
   1  -8  -7   -0.26    4.01   0
   1  -8  -7    8.57    3.99   0
  -1   8   7    1.01    4.04   0
  -1  -8   7    4.82    3.64   0
   0  -8  -7   15.86    4.21   0
   0   8  -7   29.68    3.67   0
   0  -8  -7   18.30    3.83   0
   0  -8   7    8.84    4.55   0
   0  -8   7   16.87    3.55   0
  -1  -8  -7   19.14    4.21   0
   1  -8   7   21.40    3.44   0
   1  -8   7   12.20    4.72   0
  -1   8  -7   17.46    3.66   0
  -1  -8  -7   18.41    3.80   0
   2  -8   7   12.70    3.53   0
  -2   8  -7   11.05    3.75   0
   2  -8   7    5.92    4.82   0
  -2  -8  -7   14.25    4.37   0
  -2  -8  -7    3.76    3.75   0
  -3  -8  -7   13.57    4.27   0
  -3   8  -7    6.49    3.45   0
   3  -8   7    9.39    3.43   0
  -3  -8  -7   11.71    4.32   0
  -4  -8  -7   39.50    4.41   0
   4  -8   7   41.03    3.67   0
  -4  -8  -7   42.84    4.55   0
  -4   8  -7   44.64    3.59   0
  -5   8  -7   39.95    3.80   0
   5  -8   7   37.08    3.79   0
  -5  -8  -7    3.97    4.40   0
  -5  -8  -7   37.07    4.26   0
  -6  -8  -7    6.13    3.93   0
  -6   8  -7    8.62    3.71   0
  -6  -8  -7    2.56    3.86   0
   6   8   7    4.33    5.55   0
   6  -8   7    8.36    3.82   0
  -7   8  -7    6.11    3.91   0
  -7  -8  -7   15.40    4.16   0
  -7  -8  -7    2.66    4.62   0
   7   8   7   10.54    5.80   0
   7  -8   7   11.56    3.60   0
   8   8   7    1.16    6.25   0
  -8  -8  -7    2.96    4.57   0
  -8  -8  -7    0.50    5.25   0
  -8   8  -7    2.21    4.27   0
   8  -8   7    1.39    3.91   0
  -7  -9   7   -0.16    4.67   0
   7  -9  -7    0.61    4.51   0
  -7   9   7   -0.71    4.70   0
   7  -9  -7    4.08    4.89   0
  -7  -9   7   -2.16    4.59   0
  -6   9   7    0.41    5.13   0
   6  -9  -7   -1.18    5.02   0
  -6  -9   7   39.51    4.47   0
  -6  -9   7   27.74    4.38   0
   6  -9  -7   40.82    4.53   0
  -5  -9   7   21.20    4.35   0
  -5   9   7   -2.09    4.59   0
   5  -9  -7   15.61    4.20   0
   5  -9  -7   26.00    5.06   0
  -5  -9   7   20.24    4.51   0
  -4   9   7    0.88    4.22   0
  -4  -9   7   -1.89    3.88   0
   4  -9  -7   -0.58    4.49   0
   4  -9  -7   -2.22    4.45   0
  -3  -9   7    0.91    5.32   0
  -3   9   7   32.68    4.81   0
   3  -9  -7   34.36    4.77   0
  -3  -9   7   37.76    4.32   0
   3  -9  -7   26.94    4.68   0
   2  -9  -7   35.82    4.30   0
  -2  -9   7   35.81    5.27   0
   2  -9  -7   50.50    4.67   0
  -2  -9   7   44.69    4.15   0
  -2   9   7   41.70    4.43   0
  -1  -9   7   25.80    5.11   0
   1  -9  -7   20.36    4.50   0
   1  -9  -7   36.00    4.73   0
  -1  -9   7   29.91    3.99   0
   0  -9  -7    1.61    3.96   0
   0  -9  -7   -1.53    4.41   0
   0  -9   7    3.63    3.84   0
   0  -9   7    2.34    5.02   0
  -1  -9  -7   44.78    4.28   0
   1  -9   7   37.61    4.00   0
   1  -9   7   46.77    5.30   0
  -1   9  -7   40.43    3.73   0
  -1  -9  -7   43.97    4.85   0
   2  -9   7    0.07    3.86   0
   2  -9   7    2.36    4.66   0
  -2  -9  -7    3.50    3.98   0
  -2  -9  -7    2.77    4.23   0
  -2   9  -7    4.16    3.83   0
  -3   9  -7   -0.69    3.94   0
   3  -9   7    3.40    4.76   0
   3  -9   7   -4.37    4.01   0
  -3  -9  -7    4.48    4.65   0
  -3  -9  -7    0.53    3.87   0
  -4  -9  -7    0.47    4.45   0
   4  -9   7    1.55    5.03   0
  -4  -9  -7    7.62    4.69   0
  -4   9  -7    4.31    3.92   0
   4  -9   7    1.95    3.92   0
  -5  -9  -7    1.56    4.71   0
  -5  -9  -7    3.51    4.65   0
   5  -9   7    5.36    3.97   0
  -5   9  -7    3.80    4.02   0
  -6  -9  -7    0.74    4.29   0
  -6   9  -7    1.17    4.34   0
   6  -9   7    1.15    4.19   0
  -6  -9  -7    2.76    4.30   0
   4 -10  -7    8.99    5.05   0
   4 -10  -7    1.47    4.82   0
  -4 -10   7   26.88    4.54   0
  -4  10   7   -3.59    4.80   0
  -3 -10   7   -1.08    4.19   0
  -3  10   7   -0.80    4.31   0
   3 -10  -7   -1.31    4.40   0
  -3 -10   7   -0.11    5.52   0
   3 -10  -7   -1.39    4.68   0
   2 -10  -7    2.75    4.79   0
  -2 -10   7    4.87    4.19   0
   2 -10  -7    2.31    4.58   0
  -2 -10   7    2.90    5.36   0
  -1 -10   7   15.62    4.27   0
   1 -10  -7   14.77    5.15   0
  -1 -10   7   -5.07    5.61   0
   1 -10  -7    7.12    4.68   0
   0 -10  -7   -7.07    5.49   0
   0 -10  -7   33.59    4.82   0
   0 -10   7   32.11    4.54   0
   0 -10   7   35.06    6.40   0
   1 -10   7   40.79    4.32   0
  -1  10  -7   27.22    4.27   0
  -1 -10  -7   -4.44    4.57   0
   1 -10   7   27.74    5.17   0
  -1 -10  -7    7.59    5.49   0
   2 -10   7    1.88    4.26   0
  -2 -10  -7   -0.17    4.57   0
  -2  10  -7   -3.33    4.06   0
   2 -10   7   -0.92    4.64   0
   3 -10   7    2.39    4.93   0
  -3 -10  -7    0.46    4.80   0
   3 -10   7    1.66    4.08   0
  -3  10  -7    1.74    4.34   0
  -3 -10  -7    0.45    5.03   0
  -4 -10  -7    1.04    5.75   0
  -4  10  -7   -0.77    4.36   0
   4 -10   7   -0.59    4.84   0
  -4 -10  -7    1.75    4.54   0
   4 -10   7    0.41    4.28   0
  12   0  -8    0.66    5.88   0
 -12   0   8    4.86    3.91   0
  12   0  -8   -1.45    3.90   0
 -10   0   8    5.92    3.37   0
  10   0  -8    2.30    5.22   0
  10   0  -8    7.92    3.44   0
   8   0  -8  648.18    7.32   0
  -8   0   8  665.67    7.38   0
   8   0  -8  639.16    9.46   0
   6   0  -8    0.84    3.01   0
  -6   0   8    2.73    2.90   0
   4   0  -8    6.56    4.02   0
  -4   0   8    4.46    3.51   0
  -2   0   8  392.68    9.06   0
   2   0  -8  400.55    9.22   0
  -2   0   8  413.84    8.91   0
   0   0   8   58.71    5.43   0
   2   0   8 3469.55   22.53   0
  -2   0  -8 3465.61   22.38   0
   4   0   8  318.41    6.22   0
  -4   0  -8  319.60    6.22   0
   6   0   8  560.82    6.74   0
  -6   0  -8  556.47    6.75   0
   8   0   8   58.55    3.72   0
  -8   0  -8   58.72    3.68   0
  10   0   8   62.72    3.97   0
 -10   0  -8   70.79    3.90   0
 -12   0  -8   57.30    4.40   0
  12   0   8   42.30    4.45   0
  13  -1  -8    2.49    4.35   0
 -13   1   8    1.29    4.43   0
 -13  -1   8    0.76    4.18   0
  13   1  -8   -2.98    4.20   0
  13  -1  -8    3.60    5.63   0
  12   1  -8   -1.74    5.96   0
  12  -1  -8    4.48    5.96   0
 -12  -1   8    3.53    3.98   0
 -12   1   8   -1.27    3.87   0
  12  -1  -8    1.82    3.94   0
  12   1  -8    0.53    4.03   0
  11  -1  -8    4.23    3.15   0
  11  -1  -8   -2.43    5.40   0
  11   1  -8   -0.99    5.06   0
 -11  -1   8   -3.71    3.31   0
  11   1  -8    2.70    3.54   0
 -11   1   8    0.18    3.60   0
  10  -1  -8    5.68    3.42   0
 -10  -1   8    0.86    3.24   0
  10   1  -8    2.07    5.36   0
 -10   1   8    4.78    3.46   0
  10  -1  -8   -1.80    4.50   0
  10   1  -8    0.23    3.37   0
   9  -1  -8  203.03    5.12   0
   9  -1  -8  208.73    6.61   0
   9   1  -8  201.78    7.42   0
  -9   1   8  214.29    5.07   0
  -9  -1   8  223.55    4.96   0
   9   1  -8  202.21    4.71   0
  -8   1   8   18.26    3.57   0
  -8  -1   8   16.65    3.18   0
   8   1  -8   17.57    6.23   0
   8  -1  -8   14.53    4.83   0
   8  -1  -8   13.04    3.56   0
   8   1  -8   12.92    3.11   0
   7   1  -8   30.55    5.29   0
  -7  -1   8   32.78    3.28   0
  -7   1   8   23.67    3.67   0
   7  -1  -8   28.82    6.15   0
   7  -1  -8   29.80    3.42   0
   7   1  -8   29.66    3.34   0
   6  -1  -8   39.42    3.61   0
  -6  -1   8   37.37    3.36   0
   6  -1  -8   39.25    5.80   0
  -6   1   8   42.02    3.55   0
   6   1  -8   39.55    6.01   0
   6   1  -8   46.40    3.55   0
  -5  -1   8  738.05    8.05   0
   5   1  -8  738.63   13.23   0
  -5   1   8  765.88    8.49   0
   5  -1  -8  755.70    8.45   0
   5   1  -8  738.94    8.37   0
   5  -1  -8  755.50   10.40   0
  -4  -1   8   98.40    4.60   0
   4  -1  -8   95.92    4.51   0
  -4   1   8   96.60    4.60   0
   4  -1  -8   98.68    6.08   0
   4   1  -8   96.77    7.09   0
  -3  -1   8  864.50    9.96   0
   3  -1  -8  875.84   11.24   0
  -3   1   8  849.01   10.88   0
  -3  -1   8  808.66   15.89   0
   3   1  -8  877.94   15.57   0
   3  -1  -8  823.88   11.11   0
  -2   1   8  156.22    6.92   0
   2  -1  -8  161.12    6.67   0
  -2   1   8  155.98    6.85   0
   2  -1  -8  165.58    7.04   0
  -2  -1   8  159.61    7.51   0
  -1   1   8 4106.00   40.48   0
  -1   1   8 3996.91   22.36   0
  -1  -1   8 3900.20   23.41   0
   1  -1  -8 4007.99   22.90   0
   0  -1   8  297.35    7.89   0
   0   1  -8  295.85    7.48   0
   0   1   8  337.03   26.43   0
   0   1   8  312.85    7.18   0
   1   1   8  409.91   12.76   0
   1  -1   8  384.30    7.83   0
  -1  -1  -8  397.00   12.44   0
  -1   1  -8  388.22    7.84   0
   2   1   8 3104.87   23.97   0
  -2   1  -8 3108.72   19.03   0
   2  -1   8 3020.16   18.83   0
  -3  -1  -8  698.03    9.64   0
  -3   1  -8  712.26    8.67   0
   3   1   8  708.81   10.10   0
   3  -1   8  685.17    8.57   0
  -4  -1  -8   90.37    4.41   0
   4  -1   8   92.66    4.21   0
  -4   1  -8   84.98    4.13   0
   4   1   8   84.24    4.38   0
   5   1   8  198.08    5.12   0
  -5  -1  -8  198.27    5.10   0
   5  -1   8  192.33    4.96   0
  -5   1  -8  203.68    4.81   0
   6   1   8   80.89    3.92   0
   6  -1   8   81.62    3.55   0
  -6  -1  -8   95.60    4.05   0
  -6   1  -8   93.08    3.84   0
   7  -1   8   16.13    3.10   0
  -7  -1  -8   18.58    3.57   0
  -7   1  -8   14.44    2.83   0
   7   1   8   18.27    3.59   0
   8   1   8  235.61    5.29   0
  -8   1  -8  234.76    4.83   0
   8  -1   8  214.42    4.85   0
  -8  -1  -8  233.41    5.38   0
   9   1   8   28.18    3.83   0
  -9  -1  -8   32.23    3.83   0
  -9   1  -8   28.18    3.50   0
   9  -1   8   28.19    3.74   0
  10   1   8    1.25    3.75   0
 -10  -1  -8    3.42    3.69   0
  10  -1   8   -0.27    3.28   0
 -10   1  -8    3.44    3.32   0
  11   1   8   -0.60    3.62   0
  11  -1   8   -1.85    3.48   0
 -11   1  -8   -5.55    3.52   0
 -11  -1  -8   -2.69    3.97   0
 -12  -1  -8   -1.35    3.52   0
  12   1   8    0.18    4.24   0
  12  -1   8    0.25    3.69   0
 -12   1  -8    1.33    3.73   0
  12  -2  -8    1.93    3.94   0
 -12   2   8   -1.06    4.10   0
 -12  -2   8    5.20    3.83   0
  12  -2  -8    3.25    4.83   0
  12   2  -8    3.00    6.43   0
  11  -2  -8    1.79    3.80   0
 -11   2   8   -0.76    3.92   0
 -11  -2   8   -1.26    3.40   0
  11  -2  -8    6.12    5.19   0
  11   2  -8   -1.24    5.96   0
  11   2  -8    3.31    3.59   0
  10   2  -8  127.78    7.33   0
  10  -2  -8  133.77    4.83   0
 -10  -2   8  141.07    4.39   0
  10  -2  -8  128.48    5.91   0
 -10   2   8  131.49    4.73   0
  10   2  -8  112.26    4.45   0
  -9  -2   8    0.53    3.08   0
   9  -2  -8    3.84    5.28   0
  -9   2   8    2.64    4.04   0
   9   2  -8   -0.67    5.86   0
   9  -2  -8    1.23    3.58   0
   9   2  -8   -1.30    3.22   0
   8   2  -8   34.29    6.52   0
  -8  -2   8   37.22    3.30   0
   8  -2  -8   32.13    5.91   0
   8  -2  -8   32.09    3.78   0
  -8   2   8   35.35    3.77   0
   7  -2  -8  195.05    5.10   0
  -7  -2   8  208.20    4.66   0
   7  -2  -8  192.66    6.08   0
  -7   2   8  195.34    5.40   0
   7   2  -8  189.27    9.03   0
  -6  -2   8  197.49    4.62   0
   6  -2  -8  198.95    4.92   0
   6   2  -8  193.17   10.24   0
  -6   2   8  209.84    5.12   0
   6  -2  -8  196.12    6.25   0
  -5  -2   8  194.96    4.64   0
   5  -2  -8  197.84    5.11   0
   5  -2  -8  190.32    5.90   0
  -5   2   8  197.35    5.13   0
   5   2  -8  200.42   12.56   0
   4  -2  -8  343.81    6.48   0
   4  -2  -8  373.30    7.40   0
  -4   2   8  355.77    6.89   0
  -4  -2   8  351.62    6.02   0
   3  -2  -8  367.71    7.37   0
   3  -2  -8  377.71    7.63   0
  -3   2   8  354.07    7.41   0
  -3  -2   8  345.26    6.29   0
  -2  -2   8  405.75    6.95   0
   2  -2  -8  420.30    7.68   0
  -2   2   8  386.07    7.50   0
   2  -2  -8  412.55    9.44   0
  -2   2   8  402.55    9.39   0
   1   2  -8 1025.24   10.64   0
  -1   2   8  978.57   18.89   0
   1  -2  -8 1016.17   19.32   0
   1  -2  -8 1033.03   10.90   0
  -1   2   8  943.29   10.66   0
  -1  -2   8 1012.33   10.56   0
   0  -2   8  644.92    8.74   0
   0  -2  -8  626.14   21.80   0
   0   2  -8  640.45    8.70   0
   0   2   8  627.71    8.84   0
   0  -2  -8  612.56    8.66   0
   1  -2   8  947.68   10.19   0
  -1  -2  -8 1011.11   18.49   0
  -1   2  -8  944.52   10.14   0
   1   2   8  951.02   10.47   0
   2  -2   8  756.85    8.67   0
  -2   2  -8  779.13    8.78   0
   2   2   8  788.62   12.75   0
  -3   2  -8  330.66    5.97   0
  -3  -2  -8  349.21    7.53   0
   3   2   8  328.92    7.26   0
   3  -2   8  334.17    5.95   0
   4   2   8  188.03    5.84   0
  -4   2  -8  192.70    4.90   0
   4  -2   8  192.35    4.70   0
  -4  -2  -8  198.66    5.76   0
  -5   2  -8   99.33    3.77   0
  -5  -2  -8   94.80    4.43   0
   5   2   8  102.76    5.26   0
   5  -2   8   87.84    3.69   0
  -6   2  -8   34.89    3.20   0
   6   2   8   38.98    3.77   0
  -6  -2  -8   36.75    4.13   0
   6  -2   8   32.27    3.18   0
   7   2   8   16.11    3.87   0
   7  -2   8   15.87    3.01   0
  -7  -2  -8   19.72    3.64   0
  -7   2  -8   12.71    3.11   0
  -8   2  -8  105.93    3.93   0
   8   2   8  101.22    4.56   0
  -8  -2  -8  117.09    4.47   0
   8  -2   8   91.86    4.05   0
  -9   2  -8   30.56    3.72   0
   9   2   8   23.73    4.04   0
   9  -2   8   20.50    3.29   0
  -9  -2  -8   27.16    4.07   0
  10   2   8    5.61    4.01   0
  10  -2   8    2.48    3.21   0
 -10  -2  -8    7.28    3.84   0
 -10   2  -8   10.31    3.07   0
  11  -2   8    0.95    3.59   0
  11   2   8    2.82    4.20   0
 -11  -2  -8    0.37    4.15   0
 -11   2  -8    0.38    3.54   0
 -12   2  -8   -0.54    3.78   0
  12  -2   8   -1.74    3.82   0
  12   2   8   -0.83    4.22   0
 -12  -2  -8    1.72    4.29   0
  12  -3  -8   -2.00    4.09   0
 -12  -3   8    1.96    3.63   0
  12  -3  -8    5.42    4.99   0
  12   3  -8    1.71    9.12   0
 -12   3   8    0.26    4.15   0
  11  -3  -8   56.80    4.68   0
  11   3  -8   61.81    9.87   0
 -11  -3   8   60.70    4.14   0
  11  -3  -8   73.16    5.32   0
 -11   3   8   69.62    4.57   0
  10  -3  -8   -0.07    3.75   0
 -10  -3   8   -2.94    3.58   0
  10  -3  -8    4.68    4.68   0
 -10   3   8   -1.70    3.72   0
  10   3  -8    0.50    7.73   0
  -9  -3   8    0.84    3.10   0
   9   3  -8    0.36    8.46   0
  -9   3   8   -0.78    3.66   0
   9  -3  -8   -0.03    3.66   0
   9  -3  -8    2.26    4.47   0
   8  -3  -8  246.00    5.36   0
   8  -3  -8  228.07    6.09   0
  -8  -3   8  240.95    4.52   0
  -8   3   8  246.55    5.33   0
  -7  -3   8   12.97    2.97   0
  -7   3   8   16.74    3.45   0
   7  -3  -8   14.07    3.58   0
   7  -3  -8    7.53    5.38   0
  -6  -3   8   26.18    3.00   0
   6  -3  -8   29.86    3.93   0
  -6   3   8   32.37    3.65   0
   6  -3  -8   31.45    4.71   0
  -5  -3   8    6.43    2.75   0
   5  -3  -8    3.96    4.00   0
   5  -3  -8    6.79    3.92   0
  -5   3   8    4.79    3.38   0
   4  -3  -8  421.43    6.99   0
   4  -3  -8  410.84    7.30   0
  -4  -3   8  409.70    6.00   0
  -4   3   8  414.60    6.99   0
   3  -3  -8 2130.24   14.23   0
  -3   3   8 2012.52   15.46   0
  -3  -3   8 1971.53   12.41   0
   3  -3  -8 2044.79   15.66   0
   2  -3  -8   16.04    4.02   0
   2  -3  -8   16.44    4.25   0
  -2   3   8   18.96    4.82   0
  -2   3   8   16.74    4.09   0
  -2  -3   8   14.82    3.23   0
   1   3  -8  165.83    4.79   0
  -1   3   8  170.48    7.42   0
  -1   3   8  162.68    5.60   0
  -1  -3   8  170.81    4.91   0
   1  -3  -8  166.78    5.29   0
   1  -3  -8  164.93    7.12   0
   0  -3   8  592.58    7.69   0
   0   3   8  570.97    8.23   0
   0  -3  -8  602.65   12.59   0
   0  -3  -8  584.76    7.99   0
   0   3  -8  594.29    7.63   0
   1  -3   8  484.40    6.94   0
  -1  -3  -8  508.08   10.77   0
  -1   3  -8  490.29    6.97   0
  -1  -3  -8  501.45    7.60   0
   1   3   8  497.48    7.74   0
  -1  -3  -8  507.57   11.41   0
   2   3   8  343.98    7.08   0
   2  -3   8  330.40    5.83   0
  -2   3  -8  338.60    5.84   0
   3  -3   8  350.53    5.73   0
  -3   3  -8  341.91    5.64   0
   3   3   8  352.47    6.62   0
  -4  -3  -8   11.36    3.42   0
  -4   3  -8   10.29    2.90   0
   4  -3   8    8.80    2.88   0
   4   3   8   10.72    3.48   0
   5  -3   8   78.06    3.47   0
  -5   3  -8   79.32    3.48   0
  -5  -3  -8   85.55    4.32   0
   5   3   8   81.56    4.46   0
  -6   3  -8    5.96    3.03   0
  -6  -3  -8    8.66    3.42   0
   6  -3   8    3.73    2.72   0
   6   3   8   18.52    3.72   0
  -7   3  -8   36.88    3.15   0
  -7  -3  -8   37.80    3.93   0
   7  -3   8   31.86    3.08   0
   7   3   8   34.73    4.01   0
  -8   3  -8  118.13    3.84   0
  -8  -3  -8  120.76    5.01   0
   8  -3   8  112.47    3.86   0
   8   3   8  116.07    4.85   0
  -9   3  -8    6.83    3.20   0
   9  -3   8    2.91    3.26   0
  -9  -3  -8    6.36    3.96   0
   9   3   8    5.83    3.92   0
  10  -3   8    6.39    3.47   0
 -10   3  -8    8.33    3.52   0
 -10  -3  -8   13.58    3.96   0
  10   3   8   11.24    4.02   0
 -11   3  -8    1.52    3.70   0
  11  -3   8    5.40    3.60   0
 -11  -3  -8    3.37    4.21   0
  11   3   8   -1.36    4.10   0
 -12   3  -8    5.24    4.18   0
  12  -3   8   -1.31    4.06   0
 -12  -3  -8    2.59    4.50   0
  12   3   8    0.86    4.26   0
  12  -4  -8    9.70    5.04   0
  12  -4  -8   16.91    4.31   0
 -12   4   8   19.86    4.42   0
 -12  -4   8   16.77    4.36   0
 -11   4   8   14.74    4.22   0
  11  -4  -8   10.95    4.97   0
 -11  -4   8    9.52    3.63   0
  11  -4  -8    7.02    4.15   0
 -10   4   8   46.01    4.30   0
  10  -4  -8   39.03    5.18   0
  10  -4  -8   38.49    4.17   0
 -10  -4   8   39.88    3.60   0
  -9   4   8   82.74    4.59   0
  -9  -4   8   73.04    3.87   0
   9  -4  -8   72.95    4.27   0
   9  -4  -8   71.49    5.29   0
  -8   4   8   92.12    4.37   0
  -8  -4   8   95.41    3.69   0
   8  -4  -8   97.12    4.29   0
   8  -4  -8   92.09    5.44   0
  -7   4   8   49.78    4.66   0
  -7  -4   8   42.00    3.30   0
   7  -4  -8   49.72    3.85   0
   7  -4  -8   39.41    4.78   0
  -6  -4   8   77.90    3.69   0
   6  -4  -8   82.53    3.99   0
   6  -4  -8   80.01    4.82   0
  -6   4   8   79.38    4.03   0
  -5   4   8   50.04    4.36   0
   5  -4  -8   52.73    3.75   0
   5  -4  -8   51.44    4.51   0
  -5  -4   8   53.30    3.16   0
  -4   4   8   67.83    3.91   0
   4  -4  -8   74.11    3.94   0
  -4  -4   8   70.75    3.50   0
   4  -4  -8   74.74    4.47   0
  -3  -4   8  243.20   12.88   0
  -3   4   8  265.24    6.44   0
  -3  -4   8  252.67    4.95   0
   3  -4  -8  282.63    6.34   0
   3  -4  -8  259.20    6.22   0
  -2  -4   8   39.09    3.42   0
   2  -4  -8   36.93    4.07   0
   2  -4  -8   40.45    4.31   0
  -2   4   8   37.79    4.20   0
   1  -4  -8    6.89    3.66   0
   1   4  -8    2.10    3.03   0
  -1  -4   8    2.70    2.14   0
  -1   4   8    0.37    4.59   0
  -1   4   8    4.29    3.96   0
   1  -4  -8    2.22    3.58   0
   0   4  -8   24.51    3.34   0
   0  -4  -8   27.74    4.37   0
   0   4   8   29.86    4.46   0
   0  -4  -8   24.98    3.69   0
   0  -4   8   27.94    3.18   0
  -1  -4  -8  442.91    6.84   0
  -1  -4  -8  470.91    8.96   0
  -1   4  -8  463.18    6.40   0
   1   4   8  451.38    7.34   0
   1  -4   8  446.23    6.35   0
  -2  -4  -8   17.99    4.14   0
  -2   4  -8   15.35    3.01   0
   2  -4   8   19.96    3.16   0
   2   4   8   23.89    4.18   0
  -3   4  -8  119.89    3.97   0
  -3  -4  -8  139.43    5.59   0
   3   4   8  130.35    5.59   0
   3  -4   8  126.69    3.95   0
  -4   4  -8    9.95    2.71   0
   4  -4   8    6.95    2.79   0
  -4  -4  -8    1.71    3.91   0
   4   4   8    6.98    3.80   0
  -5  -4  -8   63.66    4.71   0
   5  -4   8   54.00    3.14   0
  -5   4  -8   53.68    3.21   0
   5   4   8   56.69    4.26   0
  -6  -4  -8   17.47    4.00   0
   6   4   8   17.34    3.92   0
  -6   4  -8   13.98    3.01   0
   6  -4   8   22.58    3.05   0
  -7   4  -8   30.05    3.05   0
   7  -4   8   30.11    3.13   0
  -7  -4  -8   30.46    4.64   0
  -8  -4  -8   28.79    4.30   0
   8  -4   8   27.02    3.26   0
  -8   4  -8   25.89    3.22   0
  -9   4  -8    0.53    3.28   0
  -9  -4  -8    0.99    3.77   0
   9  -4   8   -2.62    3.41   0
 -10   4  -8    3.64    3.47   0
  10  -4   8    4.35    3.57   0
 -10  -4  -8   -0.51    4.08   0
  11  -4   8   -1.80    3.57   0
 -11  -4  -8   -0.70    4.41   0
 -11   4  -8    0.68    3.42   0
 -11   5   8   -3.95    4.74   0
  11  -5  -8   30.61    4.68   0
 -11  -5   8    5.94    4.14   0
  11  -5  -8    3.91    5.20   0
 -10  -5   8    5.19    3.36   0
  10  -5  -8   -3.12    4.11   0
 -10   5   8    3.24    4.27   0
  -9  -5   8    3.13    3.25   0
  -9   5   8    0.06    4.61   0
   9  -5  -8    8.50    4.20   0
   9  -5  -8    4.67    4.64   0
   8  -5  -8    8.21    3.63   0
  -8   5   8    9.30    3.57   0
  -8  -5   8    3.64    3.32   0
   8  -5  -8    2.53    3.89   0
   7  -5  -8   46.89    4.53   0
  -7   5   8   41.78    4.12   0
   7  -5  -8   41.63    4.17   0
  -7  -5   8   39.33    3.57   0
  -6  -5   8  340.50    5.28   0
   6  -5  -8  345.21    6.08   0
  -6  -5   8  348.75    5.57   0
   6  -5  -8  336.22    6.17   0
  -6   5   8  337.75    6.06   0
  -5  -5   8  539.11    6.49   0
  -5   5   8  561.37    7.69   0
   5  -5  -8  555.91    7.11   0
   5  -5  -8  561.64    7.34   0
  -5  -5   8  547.76    6.58   0
   4  -5  -8    8.85    3.31   0
  -4   5   8    4.17    3.95   0
   4  -5  -8    4.92    4.23   0
  -4  -5   8    7.73    2.99   0
  -3  -5   8  244.00    4.60   0
  -3  -5   8  240.97    9.52   0
   3  -5  -8  267.54    5.90   0
  -3   5   8  246.37    5.60   0
   3  -5  -8  245.88    5.86   0
  -2  -5   8   21.30    2.94   0
  -2  -5   8   23.66    5.96   0
  -2   5   8   21.66    3.48   0
   2  -5  -8   33.36    3.67   0
   2  -5  -8   25.74    3.33   0
  -1   5   8  323.69    7.09   0
   1  -5  -8  317.11    7.03   0
  -1  -5   8  315.35    5.18   0
   1   5  -8  308.73    5.16   0
   1  -5  -8  320.96    5.74   0
   0  -5  -8   46.61    3.90   0
   0  -5   8   45.22    3.18   0
   0   5   8   47.26    4.91   0
   0  -5  -8   49.85    4.42   0
   0   5  -8   43.00    3.23   0
  -1  -5  -8   68.36    4.56   0
   1   5   8   73.16    5.15   0
   1  -5   8   80.12    3.45   0
  -1   5  -8   71.29    3.44   0
  -1  -5  -8   66.27    4.65   0
   2  -5   8   12.61    2.80   0
  -2   5  -8    5.30    2.80   0
   2   5   8   11.45    4.45   0
  -2  -5  -8   13.15    3.93   0
  -3   5  -8  136.08    3.82   0
   3  -5   8  128.69    3.73   0
   3   5   8  141.77    5.50   0
  -3  -5  -8  140.11    4.90   0
  -3  -5  -8  141.07    5.17   0
  -4  -5  -8   71.16    4.11   0
   4  -5   8   64.86    3.29   0
   4   5   8   70.15    4.66   0
  -4   5  -8   66.66    3.33   0
  -5   5  -8  248.99    4.71   0
  -5  -5  -8  265.27    6.22   0
   5   5   8  242.65    6.85   0
   5  -5   8  223.70    4.51   0
  -6  -5  -8   39.56    3.82   0
  -6   5  -8   34.63    3.10   0
   6   5   8   40.62    3.95   0
   6  -5   8   30.98    3.11   0
  -7  -5  -8   92.88    4.62   0
  -7   5  -8   84.74    3.90   0
   7  -5   8   69.58    3.38   0
   7   5   8   76.42    4.39   0
  -8  -5  -8   -3.41    3.98   0
   8  -5   8    0.76    3.00   0
  -8   5  -8   -3.49    3.24   0
   8   5   8   -1.70    4.32   0
  -9  -5  -8    6.84    4.19   0
  -9   5  -8    2.40    3.64   0
   9  -5   8    1.96    3.55   0
   9   5   8    5.53    4.54   0
 -10   5  -8    1.48    3.66   0
 -10  -5  -8   -2.03    4.99   0
  10  -5   8    2.94    3.59   0
  10   5   8    2.04    5.11   0
 -11   5  -8    3.50    4.11   0
  11  -5   8   -3.50    3.58   0
 -11  -5  -8    0.22    4.55   0
  11   5   8    2.02    5.52   0
 -10  -6   8    2.71    3.82   0
 -10   6   8   -2.93    4.38   0
  10  -6  -8    1.38    4.33   0
   9  -6  -8    0.18    4.35   0
  -9   6   8    3.47    4.49   0
  -9  -6   8   -0.34    3.69   0
  -8  -6   8   -1.05    3.36   0
   8  -6  -8    0.22    4.16   0
  -8   6   8    0.09    3.57   0
   8  -6  -8   -2.27    3.74   0
  -8  -6   8   -2.69    3.41   0
  -7  -6   8    0.61    3.36   0
   7  -6  -8    2.81    3.54   0
  -7   6   8   -0.79    4.15   0
  -7  -6   8   -2.93    3.17   0
   7  -6  -8    5.14    3.85   0
  -6  -6   8   48.10    3.78   0
   6  -6  -8   44.17    4.28   0
   6  -6  -8   48.04    3.93   0
  -6   6   8   53.11    4.00   0
  -6  -6   8   45.69    3.70   0
  -5  -6   8  232.76    5.08   0
   5  -6  -8  277.63    5.71   0
   5  -6  -8  288.13    5.68   0
  -5   6   8  267.14    5.75   0
  -5  -6   8  269.77    5.17   0
  -4  -6   8   13.62    3.28   0
   4  -6  -8   10.52    4.00   0
   4  -6  -8    7.70    4.02   0
  -4   6   8    7.89    3.42   0
   3  -6  -8  241.92    5.52   0
  -3   6   8  235.92    5.60   0
   3  -6  -8  251.84    5.72   0
  -3  -6   8  223.58    4.82   0
  -3  -6   8  220.00    8.05   0
  -2  -6   8   -1.25    3.05   0
  -2  -6   8    6.92    5.43   0
   2  -6  -8    0.91    3.80   0
  -2   6   8    7.20    4.05   0
   2  -6  -8    3.21    3.25   0
  -1   6   8   80.00    4.84   0
  -1  -6   8   65.64    3.63   0
   1  -6  -8   76.07    4.10   0
  -1  -6   8   71.01    5.37   0
   1   6  -8   72.84    3.71   0
   1  -6  -8   73.26    4.48   0
   0   6  -8   73.83    3.68   0
   0  -6  -8   69.73    4.57   0
   0  -6  -8   68.48    4.67   0
   0  -6   8   70.57    3.64   0
  -1   6  -8   17.49    3.18   0
   1  -6   8   20.20    2.98   0
  -1  -6  -8   18.04    3.37   0
   1   6   8   21.80    5.17   0
  -1  -6  -8   17.22    4.24   0
  -2  -6  -8   37.57    3.78   0
   2  -6   8   38.96    3.37   0
   2   6   8   40.58    4.80   0
  -2   6  -8   37.55    3.42   0
  -2  -6  -8   38.87    4.25   0
  -3   6  -8   -0.58    2.98   0
   3   6   8    0.60    4.34   0
   3  -6   8    2.29    2.92   0
  -3  -6  -8    0.23    3.38   0
  -3  -6  -8    0.46    3.26   0
  -4  -6  -8  178.83    5.79   0
   4  -6   8  167.99    4.30   0
   4   6   8  175.23    5.64   0
  -4   6  -8  172.08    4.34   0
  -4  -6  -8  181.14    5.27   0
  -5  -6  -8    2.32    4.05   0
  -5  -6  -8    0.25    3.37   0
   5   6   8    3.28    3.57   0
   5  -6   8    5.44    3.09   0
  -5   6  -8    1.33    3.14   0
   6   6   8   -2.05    3.52   0
  -6  -6  -8    0.53    3.63   0
   6  -6   8    2.07    3.01   0
  -6   6  -8    0.29    3.25   0
   7   6   8   29.17    5.35   0
  -7   6  -8   32.31    3.41   0
   7  -6   8   34.54    3.38   0
  -7  -6  -8   38.81    4.31   0
  -8  -6  -8   49.33    4.36   0
   8  -6   8   37.27    3.37   0
   8   6   8   42.18    5.46   0
  -8   6  -8   40.35    3.72   0
   9  -6   8    1.61    3.62   0
   9   6   8    4.68    4.95   0
  -9  -6  -8    7.55    4.22   0
  -9   6  -8    0.49    3.86   0
  10  -6   8    3.14    4.06   0
 -10  -6  -8   -3.78    4.25   0
  10   6   8    5.50    5.29   0
 -10   6  -8    1.23    3.89   0
 -10  -7   8   -2.45    4.44   0
  -9  -7   8   -2.35    3.87   0
   9  -7  -8    3.36    4.09   0
  -9   7   8    2.43    4.33   0
  -9  -7   8   -2.03    3.98   0
  -8  -7   8    4.06    4.00   0
   8  -7  -8    6.14    3.86   0
  -8  -7   8    6.01    3.94   0
  -8   7   8    1.89    3.91   0
  -7  -7   8    1.50    3.26   0
  -7  -7   8    0.64    3.76   0
   7  -7  -8    4.29    3.79   0
  -7   7   8    1.14    3.85   0
   7  -7  -8    1.36    4.21   0
  -6  -7   8   78.63    3.98   0
   6  -7  -8   74.60    4.47   0
   6  -7  -8   74.85    4.55   0
  -6  -7   8   69.84    4.00   0
  -6   7   8   72.74    5.27   0
  -5  -7   8   -1.53    3.21   0
   5  -7  -8    4.97    4.08   0
   5  -7  -8   -1.49    3.94   0
  -5  -7   8    1.58    3.36   0
  -5   7   8    3.34    4.03   0
  -4   7   8   13.47    3.58   0
  -4  -7   8   16.95    3.62   0
   4  -7  -8   17.94    3.97   0
  -3  -7   8   53.12    5.60   0
  -3  -7   8   60.77    3.78   0
   3  -7  -8   58.23    4.67   0
  -3   7   8   56.27    4.35   0
   3  -7  -8   59.93    3.92   0
   2  -7  -8    3.89    3.56   0
  -2  -7   8    4.39    3.29   0
  -2   7   8    2.59    3.65   0
   2  -7  -8    4.56    3.94   0
  -2  -7   8    0.99    4.77   0
   1  -7  -8    9.21    3.88   0
  -1  -7   8    5.37    4.89   0
   1  -7  -8   14.48    4.16   0
  -1   7   8   10.15    3.38   0
  -1  -7   8    7.93    3.35   0
   0  -7   8   13.45    3.20   0
   0  -7  -8   16.69    3.43   0
   0  -7   8    6.35    4.86   0
   0  -7  -8   10.91    3.91   0
   0   7  -8   16.60    3.35   0
   1  -7   8  101.78    4.07   0
  -1   7  -8   97.13    3.99   0
  -1  -7  -8   97.36    4.88   0
  -1  -7  -8   94.15    4.90   0
  -2  -7  -8   21.95    4.08   0
   2  -7   8   27.34    3.51   0
   2   7   8   26.80    5.74   0
  -2   7  -8   28.25    3.50   0
  -2  -7  -8   34.94    4.53   0
   3  -7   8    1.63    3.26   0
  -3   7  -8    4.50    3.28   0
  -3  -7  -8    3.00    3.75   0
   3   7   8   -0.10    4.57   0
  -3  -7  -8    2.29    3.18   0
   4  -7   8    2.34    3.06   0
  -4  -7  -8    2.96    3.91   0
   4   7   8   -0.51    5.17   0
  -4   7  -8   -1.55    3.54   0
  -4  -7  -8    2.83    3.68   0
  -5  -7  -8   77.50    5.08   0
  -5   7  -8   68.23    3.84   0
   5   7   8   79.06    5.96   0
  -5  -7  -8   78.45    4.94   0
   5  -7   8   80.29    3.98   0
  -6   7  -8   10.25    3.48   0
  -6  -7  -8   11.84    3.99   0
  -6  -7  -8   17.66    4.59   0
   6  -7   8   13.08    3.35   0
   6   7   8   12.54    4.10   0
  -7  -7  -8   37.59    4.70   0
  -7  -7  -8   26.51    4.45   0
  -7   7  -8    6.11    3.95   0
   7   7   8   35.09    5.38   0
   7  -7   8   37.49    3.85   0
  -8  -7  -8    1.93    3.84   0
  -8   7  -8    2.73    3.85   0
   8   7   8    0.82    5.35   0
   8  -7   8    1.75    3.82   0
  -8  -7  -8    2.68    3.80   0
  -9  -7  -8   -0.19    4.74   0
   9   7   8    2.03    5.92   0
  -9   7  -8   -0.74    4.04   0
   9  -7   8    1.17    4.01   0
  -8  -8   8   -0.74    4.24   0
   8  -8  -8    0.29    4.68   0
   8  -8  -8    1.90    4.51   0
  -8   8   8   -2.28    4.30   0
  -8  -8   8   -0.07    4.14   0
  -7  -8   8   25.30    4.15   0
   7  -8  -8   26.75    4.52   0
   7  -8  -8   29.37    4.44   0
  -7  -8   8    7.24    4.28   0
  -7   8   8   18.85    4.29   0
  -6  -8   8   18.62    4.01   0
  -6   8   8   27.80    4.33   0
   6  -8  -8   30.50    4.67   0
   6  -8  -8   26.84    4.52   0
  -6  -8   8   30.08    4.34   0
   5  -8  -8   83.02    5.03   0
  -5   8   8   76.87    4.89   0
  -5  -8   8   69.80    4.23   0
   5  -8  -8   82.78    4.55   0
  -5  -8   8   79.19    4.39   0
  -4  -8   8    3.90    3.08   0
  -4   8   8    1.39    4.42   0
   4  -8  -8    3.73    3.98   0
   4  -8  -8    2.70    3.93   0
  -3  -8   8    0.62    3.41   0
   3  -8  -8    1.66    3.86   0
  -3   8   8    1.71    3.59   0
  -3  -8   8    0.32    4.54   0
   3  -8  -8   -0.38    3.99   0
  -2  -8   8    7.66    3.30   0
  -2   8   8    6.81    3.58   0
   2  -8  -8    4.77    4.19   0
  -2  -8   8    3.11    4.96   0
   2  -8  -8    0.59    4.20   0
  -1   8   8   68.10    4.18   0
  -1  -8   8   57.81    5.27   0
   1  -8  -8   67.99    4.67   0
  -1  -8   8   66.62    3.95   0
   1  -8  -8   64.78    4.41   0
   0  -8   8    5.78    3.44   0
   0  -8  -8   -0.98    3.78   0
   0   8  -8    0.56    3.36   0
   0  -8  -8    2.70    3.19   0
   0  -8   8    8.72    4.47   0
   1  -8   8   14.77    3.51   0
   1  -8   8    5.24    4.60   0
  -1  -8  -8    4.30    3.70   0
  -1  -8  -8    1.47    3.80   0
  -1   8  -8    7.35    3.35   0
   2  -8   8   89.94    4.08   0
  -2   8  -8   91.96    3.98   0
  -2  -8  -8   89.16    4.45   0
  -2  -8  -8   91.59    5.06   0
   3  -8   8   80.73    3.97   0
  -3  -8  -8   74.29    4.54   0
  -3   8  -8   74.48    3.99   0
  -3  -8  -8   79.74    4.54   0
  -4  -8  -8   52.86    4.94   0
  -4   8  -8   45.51    3.91   0
  -4  -8  -8   54.62    4.59   0
   4  -8   8   40.52    3.67   0
   5   8   8    1.94    5.68   0
  -5  -8  -8   13.83    4.12   0
  -5   8  -8    7.23    3.20   0
   5  -8   8    8.16    3.71   0
  -5  -8  -8    5.08    3.98   0
  -6  -8  -8    1.12    4.63   0
  -6  -8  -8    0.70    4.87   0
   6   8   8    3.24    5.59   0
  -6   8  -8    0.79    3.85   0
   6  -8   8    1.84    3.76   0
   7   8   8    1.09    5.50   0
   7  -8   8    0.67    3.91   0
  -7  -8  -8   -1.64    4.10   0
  -7  -8  -8    0.44    4.01   0
  -7   8  -8   -0.99    3.52   0
  -8   8  -8    0.55    4.08   0
  -8  -8  -8   -0.91    4.80   0
  -8  -8  -8   -1.01    4.36   0
   8  -8   8   -0.26    4.01   0
   8   8   8   -1.57    5.75   0
  -7  -9   8    3.58    4.62   0
  -6  -9   8   24.90    4.65   0
  -6  -9   8   23.17    4.70   0
  -6   9   8    0.20    4.58   0
   6  -9  -8   20.74    4.85   0
   6  -9  -8    0.88    4.38   0
   5  -9  -8    0.01    4.64   0
  -5  -9   8    2.58    4.11   0
  -5  -9   8    6.26    4.17   0
  -5   9   8    3.29    5.01   0
   5  -9  -8    4.68    4.68   0
  -4   9   8    6.02    4.78   0
   4  -9  -8    8.90    4.29   0
  -4  -9   8   13.07    4.01   0
   4  -9  -8    3.89    4.28   0
  -3   9   8    6.92    5.01   0
   3  -9  -8    7.83    4.68   0
  -3  -9   8    5.77    4.23   0
   3  -9  -8   12.89    4.15   0
  -3  -9   8   11.41    5.30   0
   2  -9  -8    6.36    4.93   0
  -2   9   8   13.14    4.43   0
  -2  -9   8    6.53    3.92   0
   2  -9  -8   13.21    4.29   0
  -2  -9   8    0.49    4.88   0
   1  -9  -8   23.71    4.36   0
  -1  -9   8   20.18    4.16   0
   1  -9  -8   17.43    4.84   0
  -1  -9   8   16.03    5.16   0
   0  -9  -8   17.76    4.38   0
   0  -9   8   12.85    5.30   0
   0  -9   8   10.74    3.87   0
   0  -9  -8   15.90    4.71   0
  -1  -9  -8   16.18    4.46   0
   1  -9   8   13.14    4.16   0
  -1  -9  -8   14.51    4.92   0
   1  -9   8   16.13    4.53   0
  -1   9  -8    4.95    3.61   0
   2  -9   8    0.15    4.00   0
   2  -9   8    1.55    4.73   0
  -2  -9  -8    2.33    4.05   0
  -2   9  -8    5.33    4.06   0
  -3  -9  -8    1.52    4.55   0
  -3  -9  -8    1.31    4.68   0
   3  -9   8    0.78    3.86   0
   3  -9   8    1.09    5.16   0
  -3   9  -8    3.63    3.84   0
  -4  -9  -8    3.27    5.09   0
  -4   9  -8    4.28    3.84   0
  -4  -9  -8    3.17    4.30   0
   4  -9   8   -0.60    3.42   0
  -5  -9  -8   24.09    5.15   0
  -5  -9  -8   15.98    4.54   0
  -5   9  -8   29.90    4.44   0
   5  -9   8   23.34    3.94   0
   6  -9   8   29.21    4.42   0
  -6   9  -8   14.89    4.56   0
  -6  -9  -8   25.28    5.15   0
  -6  -9  -8   29.14    4.79   0
  -4 -10   8    0.28    4.61   0
   4 -10  -8    3.65    5.06   0
   4 -10  -8   -7.35    5.08   0
  -4  10   8    1.52    5.54   0
   3 -10  -8   -2.21    4.68   0
  -3 -10   8   -1.39    4.05   0
   3 -10  -8    0.46    4.56   0
  -3  10   8   -0.98    4.67   0
  -3 -10   8    3.60    5.49   0
   2 -10  -8   16.94    4.93   0
  -2 -10   8   17.57    4.30   0
  -2 -10   8    9.72    5.77   0
   2 -10  -8   -1.75    4.87   0
   1 -10  -8   -4.38    4.56   0
  -1 -10   8    1.87    4.19   0
  -1 -10   8    4.65    5.08   0
   1 -10  -8    1.61    4.68   0
   0 -10  -8    7.58    4.81   0
   0 -10  -8   24.53    5.14   0
   0 -10   8    8.25    5.92   0
   0 -10   8   33.92    4.49   0
   1 -10   8    2.35    4.25   0
   1 -10   8    2.10    5.10   0
  -1 -10  -8   -0.39    5.22   0
  -1 -10  -8   -0.02    4.91   0
  -1  10  -8    2.25    4.13   0
  -2  10  -8   -0.23    4.30   0
   2 -10   8   23.29    5.67   0
  -2 -10  -8    3.76    5.64   0
  -2 -10  -8   27.37    5.61   0
   2 -10   8   27.44    4.31   0
  -3  10  -8   67.65    4.83   0
   3 -10   8   56.19    4.76   0
   3 -10   8   66.25    5.74   0
  -3 -10  -8   62.54    6.01   0
  -3 -10  -8   65.77    5.41   0
  -4 -10  -8    2.81    4.66   0
   4 -10   8    3.67    4.65   0
   4 -10   8    3.16    4.99   0
  -4 -10  -8   -1.97    4.48   0
 -13   0   9    6.14    4.48   0
  13   0  -9    3.97    4.13   0
 -11   0   9   -1.68    3.14   0
  11   0  -9   -5.10    5.11   0
  11   0  -9   -3.18    3.53   0
   9   0  -9   56.56    4.06   0
  -9   0   9   60.99    3.98   0
   9   0  -9   54.38    5.38   0
   7   0  -9 1795.08   11.40   0
  -7   0   9 1838.37   11.33   0
   5   0  -9  102.02    4.32   0
  -5   0   9  100.81    4.19   0
  -3   0   9  746.20   10.02   0
  -3   0   9  730.21   11.70   0
   3   0  -9  775.43   10.15   0
  -1   0   9 2870.49   24.42   0
  -1   0   9 2852.23   20.54   0
   1   0   9  162.75    6.86   0
   3   0   9   94.76    4.31   0
  -3   0  -9   93.14    4.26   0
   5   0   9    8.89    3.21   0
  -5   0  -9    6.12    3.27   0
   7   0   9  621.85    7.39   0
  -7   0  -9  666.55    7.32   0
   9   0   9  182.84    4.92   0
  -9   0  -9  189.53    4.92   0
  11   0   9    4.95    3.87   0
 -11   0  -9   11.20    3.92   0
  13  -1  -9   -1.51    5.04   0
 -13   1   9   -0.31    4.23   0
  13  -1  -9    1.10    4.35   0
 -13  -1   9   -0.18    4.24   0
  12  -1  -9   63.05    4.88   0
  12   1  -9   79.36    6.56   0
 -12  -1   9   99.75    4.85   0
  12  -1  -9   96.32    6.65   0
 -12   1   9   86.71    4.79   0
  12   1  -9   79.50    4.89   0
  11  -1  -9   17.26    3.75   0
 -11  -1   9   18.70    3.78   0
  11   1  -9   20.92    5.17   0
 -11   1   9   26.74    4.16   0
  11  -1  -9   29.02    4.80   0
  11   1  -9   17.34    3.85   0
  10  -1  -9    1.30    3.56   0
 -10   1   9    2.61    3.47   0
 -10  -1   9    2.12    3.36   0
  10  -1  -9    0.64    4.22   0
  10   1  -9   -0.87    5.24   0
  10   1  -9   -0.34    3.38   0
   9  -1  -9  135.46    5.37   0
   9  -1  -9  132.51    4.84   0
  -9  -1   9  154.10    4.50   0
   9   1  -9  141.52    6.66   0
  -9   1   9  152.64    4.84   0
   9   1  -9  130.09    4.61   0
   8   1  -9  136.19    4.54   0
   8   1  -9  145.27    7.26   0
   8  -1  -9  160.75    4.76   0
  -8   1   9  157.97    4.68   0
   8  -1  -9  140.60    5.80   0
  -8  -1   9  159.84    4.37   0
   7  -1  -9  182.98    6.32   0
   7  -1  -9  185.99    4.84   0
  -7  -1   9  193.03    4.61   0
  -7   1   9  190.52    4.87   0
   7   1  -9  177.13    4.55   0
   7   1  -9  177.96    7.10   0
   6  -1  -9  312.23    5.79   0
  -6  -1   9  315.56    5.38   0
  -6   1   9  328.19    5.84   0
   6   1  -9  322.85    8.89   0
   6  -1  -9  316.48    7.54   0
   6   1  -9  328.23    5.55   0
   5  -1  -9   54.32    5.28   0
  -5  -1   9   49.91    3.68   0
  -5   1   9   48.99    3.72   0
   5   1  -9   50.66    5.50   0
   5  -1  -9   58.19    3.89   0
   5   1  -9   50.79    3.87   0
  -4  -1   9  505.55    7.28   0
   4  -1  -9  497.21    7.77   0
   4  -1  -9  503.81    8.43   0
  -4   1   9  484.13    7.86   0
   4   1  -9  499.25   11.27   0
   3  -1  -9  688.52    9.97   0
  -3  -1   9  632.81   13.44   0
  -3   1   9  666.21    9.83   0
   3  -1  -9  701.57   10.24   0
  -3  -1   9  689.26    8.96   0
  -3   1   9  647.34    9.79   0
   2  -1  -9  150.62    6.39   0
  -2   1   9  146.56    6.66   0
   2  -1  -9  150.64    5.61   0
  -2   1   9  148.12    5.72   0
  -2  -1   9  141.22    6.90   0
  -1   1   9   12.92    5.26   0
  -1  -1   9   13.70    3.58   0
  -1   1   9   11.51    3.85   0
   1  -1  -9   11.84    3.65   0
   0  -1   9   38.50    4.63   0
   0   1   9   36.99    4.23   0
   0   1   9   39.21    9.17   0
   0   1  -9   38.29    4.08   0
  -1  -1  -9  848.92   16.73   0
   1  -1   9  845.09   10.69   0
   1   1   9  882.69   17.20   0
  -1   1  -9  825.91   10.67   0
   2   1   9  427.05    9.58   0
  -2   1  -9  409.49    7.35   0
   2  -1   9  426.04    7.43   0
  -3   1  -9   65.85    3.97   0
   3   1   9   60.29    4.61   0
   3  -1   9   64.84    3.91   0
  -3  -1  -9   65.09    4.58   0
  -4  -1  -9    7.89    4.03   0
  -4   1  -9    8.31    3.26   0
   4  -1   9   10.44    3.19   0
   4   1   9    8.50    3.35   0
   5   1   9  241.80    5.49   0
   5  -1   9  241.89    5.18   0
  -5  -1  -9  251.63    5.49   0
  -5   1  -9  250.71    5.12   0
  -6  -1  -9    2.23    3.20   0
   6   1   9    2.25    3.13   0
   6  -1   9    1.64    2.74   0
  -6   1  -9    4.04    2.74   0
   7  -1   9   11.19    2.90   0
   7   1   9    7.56    3.54   0
  -7  -1  -9   10.47    3.59   0
  -7   1  -9   12.58    2.99   0
   8   1   9   -0.20    3.43   0
   8  -1   9    1.81    3.12   0
  -8  -1  -9   -2.20    3.42   0
  -8   1  -9    2.67    3.04   0
   9   1   9    9.22    3.65   0
   9  -1   9    9.89    3.47   0
  -9  -1  -9    5.97    3.70   0
  -9   1  -9    6.66    3.55   0
 -10   1  -9   18.32    3.38   0
  10   1   9   20.90    3.95   0
  10  -1   9   20.93    3.41   0
 -10  -1  -9   16.67    3.89   0
  11   1   9    9.04    4.09   0
 -11  -1  -9   15.76    4.10   0
  11  -1   9   10.53    3.79   0
 -11   1  -9   11.50    3.86   0
  12   1   9   11.90    4.35   0
  12  -1   9    7.54    4.12   0
 -12   1  -9   29.18    4.17   0
 -12  -1  -9   26.66    4.21   0
 -12  -2   9   -0.65    3.51   0
  12  -2  -9    3.07    4.02   0
 -12   2   9    1.94    4.21   0
  12  -2  -9    2.58    5.26   0
  12   2  -9    3.38    5.87   0
  11  -2  -9   11.51    4.04   0
  11  -2  -9   10.50    4.57   0
 -11  -2   9   16.05    3.80   0
  11   2  -9   14.28    6.31   0
 -11   2   9   13.82    4.08   0
  10  -2  -9   23.25    3.92   0
 -10  -2   9   27.89    3.46   0
  10  -2  -9   18.26    5.39   0
  10   2  -9   23.43    5.81   0
 -10   2   9   21.80    3.92   0
  -9   2   9    8.43    3.61   0
   9  -2  -9   -0.61    3.57   0
  -9  -2   9    2.69    3.08   0
   9  -2  -9    8.14    4.26   0
   9   2  -9    3.98    5.57   0
  -8  -2   9   44.34    3.34   0
   8  -2  -9   55.02    3.94   0
  -8   2   9   54.13    3.90   0
   8   2  -9   52.72    6.50   0
   8  -2  -9   40.98    5.89   0
   7  -2  -9  561.70    7.27   0
  -7  -2   9  594.98    6.64   0
   7   2  -9  563.65   13.30   0
   7  -2  -9  544.21    8.00   0
  -7   2   9  579.79    7.31   0
  -6  -2   9   60.39    3.58   0
   6  -2  -9   68.07    4.05   0
   6  -2  -9   71.12    5.20   0
  -6   2   9   74.05    4.03   0
   6   2  -9   71.89    7.80   0
  -5  -2   9  109.56    4.08   0
  -5   2   9  118.98    4.62   0
   5  -2  -9  106.52    5.15   0
   5  -2  -9  113.15    4.95   0
   4  -2  -9  800.14    9.64   0
  -4   2   9  790.47    9.38   0
   4  -2  -9  840.86    9.63   0
  -4  -2   9  804.36    8.55   0
   3  -2  -9  113.86    5.23   0
  -3  -2   9  107.76   10.32   0
  -3   2   9  109.18    5.11   0
   3  -2  -9  118.77    5.40   0
  -2   2   9  134.54    5.47   0
  -2  -2   9  137.32    5.22   0
   2  -2  -9  144.56    6.86   0
   2  -2  -9  148.96    5.48   0
  -2   2   9  143.19    6.50   0
   1   2  -9   18.01    3.75   0
   1  -2  -9   19.21    5.77   0
  -1   2   9   18.62    5.68   0
  -1  -2   9   16.47    3.44   0
   1  -2  -9   20.28    3.74   0
  -1   2   9   15.49    3.78   0
   0   2  -9  319.55    6.52   0
   0   2   9  308.07    6.50   0
   0  -2  -9  315.41    6.45   0
   0  -2   9  309.92    6.59   0
   1  -2   9   18.44    3.64   0
  -1   2  -9   21.95    3.67   0
  -1  -2  -9   22.28    5.72   0
   1   2   9   17.99    3.42   0
   2   2   9  827.78   13.31   0
  -2   2  -9  819.13    9.00   0
   2  -2   9  834.01    9.04   0
   3   2   9  229.90    6.42   0
  -3   2  -9  220.11    5.35   0
   3  -2   9  234.88    5.60   0
   4   2   9    5.93    3.94   0
  -4   2  -9   -4.08    3.30   0
   4  -2   9   -1.05    3.16   0
  -4  -2  -9    6.09    3.34   0
  -5   2  -9   91.14    3.54   0
  -5  -2  -9   98.18    4.43   0
   5  -2   9  102.99    3.80   0
   5   2   9  103.05    4.99   0
  -6   2  -9   20.51    3.03   0
  -6  -2  -9   29.52    3.61   0
   6  -2   9   26.27    3.02   0
   6   2   9   24.46    4.44   0
  -7   2  -9   39.21    3.30   0
   7   2   9   45.60    3.90   0
   7  -2   9   42.03    3.27   0
  -7  -2  -9   43.95    3.98   0
  -8   2  -9  220.10    4.73   0
   8   2   9  220.11    5.40   0
   8  -2   9  212.15    4.70   0
  -8  -2  -9  241.12    5.35   0
  -9   2  -9   87.30    4.01   0
   9   2   9   82.84    4.96   0
  -9  -2  -9   98.21    4.59   0
   9  -2   9   76.57    3.76   0
 -10   2  -9   15.13    3.47   0
  10   2   9   15.33    4.10   0
  10  -2   9   20.10    3.45   0
 -10  -2  -9   23.03    4.07   0
 -11   2  -9   15.95    4.11   0
  11  -2   9   30.77    4.12   0
  11   2   9   25.08    4.42   0
 -11  -2  -9   33.52    4.44   0
  12   2   9    5.51    4.19   0
 -12   2  -9   -1.85    3.93   0
 -12  -2  -9    1.28    4.21   0
  12  -2   9    0.86    3.78   0
  12  -3  -9   -0.42    4.13   0
 -12  -3   9    1.68    3.91   0
  12  -3  -9    4.07    5.14   0
 -12   3   9   -0.08    4.10   0
  11  -3  -9    8.75    4.26   0
 -11  -3   9   18.53    3.75   0
 -11   3   9    3.83    4.29   0
  11  -3  -9   11.57    4.71   0
  11   3  -9   11.69   10.75   0
  10  -3  -9    0.36    3.71   0
 -10  -3   9    5.30    3.49   0
 -10   3   9    1.59    3.90   0
  10  -3  -9    4.39    4.63   0
   9  -3  -9  111.90    5.21   0
   9  -3  -9   99.11    4.99   0
  -9  -3   9  113.00    3.80   0
  -9   3   9  129.86    4.73   0
  -8  -3   9    5.23    2.95   0
   8  -3  -9    5.07    4.50   0
   8  -3  -9    5.26    3.61   0
  -8   3   9    3.77    3.60   0
  -7  -3   9   22.59    3.13   0
   7  -3  -9   18.57    4.91   0
   7  -3  -9   16.33    3.58   0
  -7   3   9   23.04    3.61   0
   6  -3  -9  118.70    4.49   0
   6  -3  -9  117.60    5.27   0
  -6  -3   9  114.16    3.80   0
  -6   3   9  119.73    4.47   0
  -5  -3   9    4.76    2.62   0
   5  -3  -9    5.22    3.29   0
   5  -3  -9    4.94    3.91   0
  -5   3   9    5.85    3.37   0
  -4  -3   9    0.75    2.89   0
   4  -3  -9    3.29    3.18   0
   4  -3  -9    5.25    4.24   0
  -4   3   9    3.31    3.23   0
  -3   3   9  157.39    5.92   0
  -3  -3   9  160.51    4.60   0
   3  -3  -9  148.82    5.75   0
   3  -3  -9  166.12    5.34   0
  -2   3   9  433.43    7.40   0
  -2   3   9  437.05    9.10   0
   2  -3  -9  455.01    9.19   0
  -2  -3   9  430.28    6.55   0
   2  -3  -9  448.47    7.06   0
   1   3  -9   14.28    3.33   0
   1  -3  -9   11.10    4.19   0
  -1   3   9   11.11    4.89   0
  -1   3   9   13.94    4.13   0
  -1  -3   9    9.18    3.28   0
   1  -3  -9   10.76    3.57   0
   0  -3   9  113.46    4.36   0
   0  -3  -9  112.81    7.45   0
   0   3   9  109.06    4.84   0
   0   3  -9  109.16    4.35   0
   0  -3  -9  109.99    4.53   0
  -1  -3  -9 1020.22   16.33   0
   1   3   9  969.48    9.95   0
  -1   3  -9  963.22    9.16   0
  -1  -3  -9  986.51   15.47   0
   1  -3   9  966.33    9.15   0
   2  -3   9  426.10    6.36   0
   2   3   9  423.88    7.18   0
  -2   3  -9  431.65    6.38   0
   3  -3   9   11.14    2.94   0
   3   3   9   10.16    3.65   0
  -3   3  -9   10.13    2.86   0
  -4  -3  -9   12.45    3.78   0
  -4   3  -9   11.81    2.83   0
   4  -3   9    9.06    2.77   0
   4   3   9    9.77    3.45   0
   5   3   9   26.47    3.93   0
  -5   3  -9   26.87    3.03   0
  -5  -3  -9   32.72    3.79   0
   5  -3   9   27.16    3.03   0
  -6   3  -9  269.55    4.96   0
  -6  -3  -9  274.95    5.70   0
   6  -3   9  256.09    4.91   0
   6   3   9  267.41    5.75   0
  -7   3  -9   -1.86    2.77   0
  -7  -3  -9    1.34    3.95   0
   7  -3   9   -0.45    2.66   0
   7   3   9   -1.94    3.57   0
  -8   3  -9   58.28    3.64   0
   8  -3   9   53.47    3.54   0
  -8  -3  -9   64.03    4.15   0
   8   3   9   56.73    4.20   0
   9   3   9   10.81    3.91   0
  -9   3  -9   10.34    3.35   0
   9  -3   9    9.13    3.26   0
  -9  -3  -9    5.23    3.58   0
 -10   3  -9   37.25    3.63   0
  10   3   9   36.75    4.41   0
  10  -3   9   26.25    3.36   0
 -10  -3  -9   30.63    4.25   0
 -11   3  -9   -1.33    3.68   0
  11  -3   9    8.47    3.36   0
  11   3   9    1.83    4.04   0
 -11  -3  -9   -1.46    4.09   0
  12  -3   9    8.53    4.19   0
 -12   3  -9   23.47    4.15   0
 -12  -3  -9   29.91    4.54   0
  12   3   9   19.02    4.74   0
 -12   4   9   11.22    4.22   0
  12  -4  -9   -1.16    4.24   0
 -12  -4   9    3.57    3.94   0
  12  -4  -9    3.91    5.25   0
 -11   4   9    2.59    4.21   0
 -11  -4   9    1.95    3.42   0
  11  -4  -9    0.30    5.21   0
  11  -4  -9    3.67    4.06   0
  10  -4  -9    3.75    3.91   0
 -10  -4   9    3.96    3.49   0
 -10   4   9    0.74    3.93   0
  10  -4  -9    4.73    5.30   0
  -9  -4   9   72.68    3.68   0
   9  -4  -9   71.83    4.42   0
   9  -4  -9   81.08    5.55   0
  -9   4   9   77.05    4.45   0
   8  -4  -9    3.61    4.53   0
  -8  -4   9    3.63    2.79   0
   8  -4  -9    4.16    3.45   0
  -8   4   9    5.88    3.49   0
  -7   4   9    2.78    3.43   0
  -7  -4   9    2.20    2.82   0
   7  -4  -9    4.60    3.49   0
   7  -4  -9    3.80    4.67   0
  -6  -4   9  218.26    4.65   0
  -6   4   9  216.25    5.16   0
   6  -4  -9  210.58    5.04   0
   6  -4  -9  209.41    5.55   0
  -5   4   9  225.40    5.45   0
   5  -4  -9  218.77    5.94   0
   5  -4  -9  210.26    5.49   0
  -5  -4   9  203.25    4.48   0
  -4  -4   9   30.09    3.09   0
  -4   4   9   22.03    3.92   0
   4  -4  -9   23.87    3.20   0
   4  -4  -9   21.28    3.84   0
   3  -4  -9   38.61    3.95   0
  -3   4   9   37.15    4.24   0
   3  -4  -9   33.84    4.19   0
  -3  -4   9   34.72    8.80   0
  -3  -4   9   36.20    3.29   0
   2  -4  -9    1.60    3.56   0
   2  -4  -9    2.10    3.62   0
  -2   4   9    1.93    3.84   0
  -2  -4   9   -0.69    3.02   0
   1  -4  -9   28.93    4.69   0
  -1   4   9   24.66    4.19   0
  -1   4   9   25.61    4.41   0
  -1  -4   9   29.54    3.28   0
   1   4  -9   35.34    3.34   0
   1  -4  -9   30.61    3.95   0
   0  -4  -9  180.87    6.63   0
   0   4  -9  171.85    4.45   0
   0   4   9  177.87    5.40   0
   0  -4  -9  175.66    4.78   0
   0  -4   9  180.68    4.61   0
   1  -4   9    0.49    2.88   0
  -1  -4  -9    0.11    3.95   0
  -1   4  -9   -1.17    2.93   0
   1   4   9   -2.50    3.64   0
  -1  -4  -9    0.28    3.08   0
   2  -4   9  301.53    5.18   0
  -2  -4  -9  304.55    7.43   0
  -2   4  -9  276.92    5.08   0
   2   4   9  302.25    6.20   0
   3  -4   9   14.89    2.68   0
  -3   4  -9   15.02    2.99   0
   3   4   9   15.93    4.11   0
   4  -4   9   81.73    3.43   0
  -4   4  -9   83.60    3.43   0
  -4  -4  -9   91.23    4.81   0
   4   4   9   86.27    4.57   0
  -5  -4  -9  485.22    7.32   0
  -5   4  -9  442.21    5.82   0
   5  -4   9  437.37    5.84   0
   5   4   9  459.15    7.63   0
  -6  -4  -9  316.80    6.14   0
  -6   4  -9  296.44    5.01   0
   6   4   9  283.86    6.19   0
   6  -4   9  285.86    4.93   0
  -7   4  -9  420.85    5.62   0
  -7  -4  -9  466.70    7.27   0
   7  -4   9  414.37    5.61   0
  -8   4  -9    1.94    3.21   0
  -8  -4  -9    7.52    3.70   0
   8  -4   9    4.52    2.76   0
  -9  -4  -9   74.71    4.82   0
   9  -4   9   61.47    3.86   0
  -9   4  -9   68.20    3.88   0
 -10   4  -9    5.11    3.37   0
  10  -4   9    5.71    3.33   0
 -10  -4  -9    6.35    4.11   0
 -11   4  -9   52.20    3.98   0
  11  -4   9   40.14    4.00   0
 -11  -4  -9   47.09    4.88   0
 -11   5   9   -1.52    4.87   0
  11  -5  -9   -1.45    4.36   0
 -11  -5   9    0.18    3.91   0
 -10   5   9   -1.20    4.59   0
 -10  -5   9   -3.11    3.53   0
  10  -5  -9    1.11    4.18   0
  10  -5  -9    0.43    4.76   0
  -9   5   9    8.12    4.43   0
   9  -5  -9   32.44    4.19   0
   9  -5  -9   26.39    4.65   0
  -9  -5   9   24.33    3.64   0
   8  -5  -9   66.43    4.69   0
  -8   5   9   71.97    4.71   0
  -8  -5   9   68.73    3.87   0
   8  -5  -9   62.04    4.68   0
  -7  -5   9   40.34    3.45   0
  -7   5   9   44.31    4.48   0
   7  -5  -9   45.29    4.39   0
   7  -5  -9   35.74    4.66   0
  -6   5   9   83.84    4.18   0
  -6  -5   9   88.83    3.70   0
   6  -5  -9   86.63    4.62   0
   6  -5  -9   99.68    4.15   0
  -6  -5   9   87.19    3.72   0
  -5   5   9   40.02    3.84   0
   5  -5  -9   40.85    4.19   0
  -5  -5   9   33.13    3.50   0
  -5  -5   9   38.81    3.40   0
   5  -5  -9   46.87    4.15   0
   4  -5  -9  903.36    9.60   0
  -4   5   9  896.31    9.72   0
   4  -5  -9  973.78    9.23   0
  -4  -5   9  916.68    8.09   0
  -3  -5   9   10.01    6.17   0
  -3  -5   9    9.87    2.85   0
   3  -5  -9   19.35    3.83   0
   3  -5  -9    9.31    3.73   0
  -3   5   9    9.59    3.78   0
  -2   5   9  157.81    5.11   0
  -2  -5   9  149.99    7.20   0
  -2  -5   9  155.36    4.06   0
   2  -5  -9  152.81    4.89   0
   2  -5  -9  150.28    5.27   0
  -1   5   9   10.68    4.89   0
  -1  -5   9   19.18    2.95   0
   1   5  -9   11.87    3.03   0
   1  -5  -9   14.46    3.81   0
   1  -5  -9   16.31    3.39   0
  -1   5   9   17.61    4.07   0
   0   5  -9  230.10    4.71   0
   0  -5  -9  234.28    6.48   0
   0  -5  -9  226.69    5.05   0
   0   5   9  223.79    5.88   0
   0  -5   9  230.73    4.65   0
  -1  -5  -9  408.45    7.98   0
   1  -5   9  417.59    5.67   0
  -1  -5  -9  405.77    6.35   0
  -1   5  -9  385.87    5.54   0
   1   5   9  412.78    7.00   0
   2  -5   9   11.45    2.68   0
  -2   5  -9    6.15    2.74   0
   2   5   9    8.03    4.86   0
  -2  -5  -9    7.02    3.95   0
  -3  -5  -9  130.58    4.88   0
  -3  -5  -9  130.80    4.75   0
  -3   5  -9  126.32    3.85   0
   3  -5   9  125.16    3.75   0
   3   5   9  129.23    5.80   0
   4  -5   9    5.69    2.88   0
   4   5   9    6.56    4.37   0
  -4   5  -9    3.24    2.95   0
  -4  -5  -9   10.34    3.52   0
  -5   5  -9   23.45    2.98   0
  -5  -5  -9   27.30    4.02   0
   5   5   9   25.67    4.91   0
   5  -5   9   22.37    2.97   0
  -6  -5  -9  289.22    6.23   0
   6   5   9  264.84    6.10   0
   6  -5   9  248.60    4.79   0
  -6   5  -9  276.41    4.77   0
  -7  -5  -9  116.49    4.87   0
  -7   5  -9  105.47    3.90   0
   7  -5   9  112.53    3.93   0
   7   5   9  112.22    5.03   0
   8  -5   9   -2.31    3.18   0
  -8   5  -9    1.57    3.27   0
  -8  -5  -9    0.98    3.74   0
   8   5   9    0.51    4.16   0
   9  -5   9    4.62    3.37   0
  -9   5  -9    6.03    3.28   0
  -9  -5  -9    9.22    3.93   0
   9   5   9    5.36    4.64   0
 -10   5  -9    0.99    3.70   0
  10  -5   9    0.85    3.43   0
 -10  -5  -9    2.72    4.63   0
  10   5   9    0.77    4.27   0
 -11   5  -9    2.47    4.01   0
  11  -5   9   -1.03    3.88   0
 -11  -5  -9    0.68    4.98   0
  11   5   9   -1.55    5.27   0
 -10  -6   9   18.41    4.09   0
  10  -6  -9   14.63    4.88   0
 -10   6   9   16.86    4.35   0
  -9  -6   9   45.56    4.13   0
   9  -6  -9   37.59    4.21   0
  -9   6   9   35.97    4.52   0
  -8  -6   9    5.03    3.40   0
   8  -6  -9    4.91    3.54   0
   8  -6  -9    3.61    4.21   0
  -8   6   9   -0.82    3.77   0
  -8  -6   9    3.96    3.41   0
  -7  -6   9   12.00    3.11   0
  -7  -6   9    9.72    3.17   0
   7  -6  -9   14.07    4.33   0
  -7   6   9   11.91    4.37   0
   6  -6  -9   51.27    4.31   0
  -6  -6   9   45.20    3.61   0
   6  -6  -9   42.81    4.00   0
  -6   6   9   47.08    3.96   0
  -6  -6   9   43.89    3.77   0
   5  -6  -9    5.09    3.68   0
   5  -6  -9    7.01    3.64   0
  -5   6   9    7.79    3.27   0
  -5  -6   9    0.65    3.49   0
  -5  -6   9    2.21    3.00   0
  -4  -6   9   -0.62    3.04   0
   4  -6  -9    0.72    3.60   0
  -4   6   9    1.01    3.82   0
   4  -6  -9   -0.43    3.16   0
  -3  -6   9    1.23    3.00   0
   3  -6  -9    7.68    4.05   0
  -3   6   9   -0.67    3.97   0
   3  -6  -9    1.50    3.92   0
  -3  -6   9    2.44    5.30   0
   2  -6  -9  309.90    5.77   0
  -2  -6   9  289.15    5.47   0
  -2  -6   9  288.36    8.65   0
  -2   6   9  295.50    6.79   0
   2  -6  -9  297.56    6.80   0
   1   6  -9    8.01    3.02   0
   1  -6  -9    3.09    3.30   0
  -1   6   9   10.04    4.02   0
   1  -6  -9    3.12    3.56   0
  -1  -6   9    6.76    3.25   0
   0   6  -9   16.93    3.36   0
   0  -6  -9   18.99    4.15   0
   0  -6  -9   21.82    4.09   0
   0   6   9   26.44    5.56   0
   0  -6   9   23.01    3.40   0
  -1   6  -9   27.28    3.39   0
   1   6   9   31.56    5.34   0
   1  -6   9   26.68    3.40   0
  -1  -6  -9   33.89    4.01   0
  -1  -6  -9   24.94    4.25   0
   2  -6   9  123.61    4.15   0
  -2  -6  -9  119.43    5.20   0
  -2   6  -9  118.78    4.10   0
   2   6   9  110.00    6.11   0
  -3  -6  -9   89.14    5.22   0
  -3  -6  -9   88.46    5.08   0
  -3   6  -9   76.69    3.88   0
   3   6   9   77.01    5.24   0
   3  -6   9   85.50    3.76   0
   4  -6   9  116.40    3.85   0
  -4  -6  -9  126.34    5.16   0
  -4   6  -9  116.29    3.89   0
   4   6   9  119.78    5.15   0
  -4  -6  -9  113.82    5.17   0
   5   6   9   36.80    4.79   0
  -5   6  -9   46.77    3.64   0
  -5  -6  -9   43.93    3.88   0
   5  -6   9   47.66    3.34   0
  -5  -6  -9   50.09    4.46   0
  -6   6  -9   -1.85    3.09   0
  -6  -6  -9    3.33    4.12   0
   6   6   9   -1.63    3.94   0
   6  -6   9   -5.51    3.03   0
   7  -6   9    5.05    3.20   0
  -7  -6  -9   13.09    4.01   0
  -7   6  -9    3.63    3.25   0
   7   6   9    5.34    4.03   0
  -8   6  -9    4.99    3.58   0
  -8  -6  -9    4.44    4.51   0
   8   6   9    2.45    4.73   0
   8  -6   9    4.61    3.44   0
  -9   6  -9   19.69    3.79   0
  -9  -6  -9   17.03    4.57   0
   9   6   9   18.55    5.09   0
   9  -6   9   18.16    3.84   0
 -10   6  -9    3.59    4.04   0
 -10  -6  -9    3.22    4.41   0
  10  -6   9    1.12    3.98   0
  10   6   9    1.69    5.20   0
  -9  -7   9    8.01    3.96   0
   9  -7  -9   16.03    4.45   0
  -9   7   9   12.13    4.67   0
  -9  -7   9    2.96    4.00   0
   8  -7  -9    1.54    4.68   0
  -8  -7   9    1.50    3.96   0
   8  -7  -9    1.63    4.13   0
  -8   7   9   -1.11    3.83   0
  -8  -7   9    2.60    3.91   0
  -7  -7   9   13.34    3.48   0
   7  -7  -9   18.16    4.39   0
  -7  -7   9   12.74    3.76   0
   7  -7  -9   16.59    3.76   0
  -7   7   9   17.57    3.93   0
  -6   7   9    3.22    4.70   0
   6  -7  -9   15.40    4.01   0
  -6  -7   9   16.85    3.48   0
   6  -7  -9   15.41    4.30   0
  -6  -7   9   20.69    3.74   0
   5  -7  -9    3.43    4.19   0
  -5  -7   9    3.05    3.27   0
   5  -7  -9   -0.18    4.37   0
  -5  -7   9    6.60    3.41   0
  -5   7   9   -1.42    4.27   0
  -4   7   9    8.29    3.84   0
  -4  -7   9    7.65    3.46   0
   4  -7  -9    8.95    3.73   0
  -3  -7   9    7.71    5.23   0
  -3  -7   9    4.58    3.26   0
  -3   7   9    6.73    3.66   0
   3  -7  -9    8.15    3.67   0
   3  -7  -9    9.83    3.50   0
  -2  -7   9    7.59    3.05   0
  -2   7   9    7.30    3.31   0
  -2  -7   9   10.08    5.26   0
   2  -7  -9    1.84    3.90   0
   2  -7  -9    5.64    3.59   0
  -1  -7   9  170.78    6.63   0
   1  -7  -9  181.40    5.54   0
   1  -7  -9  182.90    5.24   0
  -1   7   9  174.25    5.71   0
  -1  -7   9  161.48    4.82   0
   0  -7  -9   54.80    4.36   0
   0  -7   9   51.29    3.67   0
   0   7  -9   59.76    3.77   0
   0  -7  -9   70.66    4.27   0
  -1   7  -9   25.39    3.52   0
   1  -7   9   22.59    3.40   0
  -1  -7  -9   26.42    3.62   0
  -1  -7  -9   21.01    4.08   0
   2   7   9   11.38    4.91   0
   2  -7   9   14.32    3.31   0
  -2  -7  -9   10.79    3.43   0
  -2  -7  -9   13.19    3.86   0
  -2   7  -9   13.51    3.29   0
  -3  -7  -9    1.78    3.20   0
   3  -7   9    3.69    3.10   0
  -3   7  -9    4.75    3.14   0
  -3  -7  -9    0.86    3.13   0
   3   7   9    2.19    4.58   0
  -4   7  -9  149.10    4.29   0
   4  -7   9  144.91    4.40   0
  -4  -7  -9  151.23    5.42   0
   4   7   9  151.33    5.84   0
  -4  -7  -9  146.81    5.00   0
  -5  -7  -9   35.42    4.64   0
  -5   7  -9   37.46    3.48   0
  -5  -7  -9   39.53    4.21   0
   5   7   9   38.78    4.67   0
   5  -7   9   36.81    3.50   0
  -6   7  -9    1.39    3.69   0
   6  -7   9    2.94    3.50   0
  -6  -7  -9    1.02    4.69   0
   6   7   9    1.10    5.02   0
  -6  -7  -9    1.82    3.86   0
   7   7   9    3.65    5.00   0
  -7  -7  -9    4.44    4.53   0
  -7  -7  -9    2.57    4.00   0
   7  -7   9    6.55    3.66   0
  -7   7  -9   12.21    3.40   0
  -8  -7  -9   -0.18    4.09   0
   8  -7   9    1.21    3.54   0
   8   7   9    2.09    5.23   0
  -8   7  -9    1.56    3.91   0
  -8  -7  -9    0.77    3.91   0
  -9  -7  -9    6.49    4.99   0
   9   7   9   10.93    5.51   0
  -9   7  -9    4.85    4.21   0
   9  -7   9    4.04    4.11   0
  -8  -8   9   30.49    4.32   0
   8  -8  -9   31.82    4.90   0
  -8  -8   9   38.37    4.37   0
   8  -8  -9   31.43    5.14   0
  -8   8   9   -3.38    5.04   0
  -7   8   9   15.50    5.68   0
  -7  -8   9   63.26    4.16   0
   7  -8  -9   33.89    4.51   0
   7  -8  -9   64.20    4.53   0
  -7  -8   9   56.63    4.69   0
  -6   8   9   -0.46    4.74   0
   6  -8  -9    1.21    4.59   0
  -6  -8   9    7.22    4.14   0
   6  -8  -9    0.72    4.52   0
  -6  -8   9    1.11    4.04   0
   5  -8  -9   -1.95    3.90   0
  -5   8   9   -1.99    3.92   0
   5  -8  -9    2.62    4.81   0
  -5  -8   9   -2.12    3.56   0
  -5  -8   9    0.25    3.84   0
  -4   8   9   -1.67    3.90   0
   4  -8  -9    4.60    4.16   0
  -4  -8   9    4.50    3.52   0
   4  -8  -9    4.57    3.70   0
  -3  -8   9   -1.84    3.47   0
  -3   8   9    1.60    3.82   0
   3  -8  -9    3.09    3.93   0
   3  -8  -9    1.96    3.80   0
  -3  -8   9   -0.13    5.09   0
  -2  -8   9   46.68    3.87   0
  -2   8   9   42.55    4.38   0
  -2  -8   9   49.19    5.53   0
   2  -8  -9   56.80    4.58   0
   2  -8  -9   48.77    4.31   0
  -1  -8   9   -2.69    4.37   0
  -1  -8   9   -3.04    3.29   0
   1  -8  -9    0.68    3.98   0
   1  -8  -9    1.00    4.04   0
   0  -8   9   -1.40    4.49   0
   0  -8  -9    2.85    4.32   0
   0   8  -9    5.11    3.37   0
   0  -8   9    2.33    3.10   0
   0  -8  -9    4.88    3.96   0
  -1   8  -9    8.66    3.45   0
  -1  -8  -9    8.51    3.56   0
   1  -8   9   11.03    3.20   0
   1  -8   9    9.30    5.35   0
  -1  -8  -9    9.31    3.80   0
   2  -8   9  135.16    4.34   0
  -2   8  -9  122.80    4.21   0
  -2  -8  -9  123.03    4.89   0
   3  -8   9    3.29    3.24   0
  -3  -8  -9    2.48    3.94   0
  -3   8  -9   -1.17    3.25   0
  -3  -8  -9    2.10    3.65   0
   4  -8   9   10.22    3.06   0
  -4  -8  -9    6.95    4.24   0
  -4   8  -9   11.93    3.42   0
  -4  -8  -9   12.35    4.05   0
   4   8   9    6.25    5.54   0
  -5  -8  -9    8.44    4.20   0
  -5   8  -9    8.65    3.63   0
   5   8   9   10.95    5.85   0
  -5  -8  -9    9.27    4.96   0
   5  -8   9    8.46    3.68   0
  -6   8  -9   11.33    3.85   0
  -6  -8  -9    0.60    5.37   0
  -6  -8  -9   -1.46    4.23   0
   6   8   9    6.10    5.91   0
   6  -8   9    7.48    3.98   0
  -7   8  -9    6.11    3.94   0
  -7  -8  -9    7.26    5.05   0
   7  -8   9    2.61    3.60   0
   7   8   9    5.68    5.62   0
  -7  -8  -9    4.25    4.28   0
  -8   8  -9   -1.71    4.41   0
   8   8   9    4.63    6.38   0
  -8  -8  -9    3.96    4.45   0
  -8  -8  -9    4.91    4.56   0
   8  -8   9    2.15    4.28   0
   6  -9  -9   -0.10    4.65   0
  -6   9   9    1.36    5.23   0
   6  -9  -9    0.03    4.52   0
  -6  -9   9   -1.36    4.36   0
  -6  -9   9    0.35    4.14   0
   5  -9  -9   35.06    5.17   0
  -5  -9   9   38.98    4.29   0
   5  -9  -9   35.66    5.02   0
  -5   9   9   -6.81    4.79   0
  -5  -9   9   36.03    4.19   0
   4  -9  -9   29.35    4.48   0
  -4  -9   9   29.83    3.71   0
  -4   9   9   32.34    5.90   0
   4  -9  -9   27.93    5.32   0
  -3  -9   9    4.30    3.78   0
   3  -9  -9    2.13    4.78   0
  -3   9   9    1.91    5.38   0
   3  -9  -9    3.68    4.50   0
  -3  -9   9    0.02    5.14   0
  -2  -9   9    2.93    4.85   0
  -2   9   9    2.21    4.20   0
   2  -9  -9    1.32    4.38   0
  -2  -9   9    5.59    3.84   0
   2  -9  -9    2.83    4.07   0
   1  -9  -9   33.31    4.80   0
  -1  -9   9   24.37    3.92   0
  -1  -9   9   36.01    5.39   0
   1  -9  -9   31.25    4.44   0
   0  -9  -9   -0.62    4.47   0
   0  -9   9    1.82    3.64   0
   0  -9   9    0.88    5.40   0
   0  -9  -9    0.19    4.02   0
   1  -9   9    2.98    3.36   0
  -1  -9  -9   -0.60    3.96   0
   1  -9   9   -0.45    5.08   0
  -1   9  -9   -0.27    3.74   0
  -1  -9  -9    2.82    3.75   0
   2  -9   9    4.80    3.91   0
   2  -9   9   13.35    4.81   0
  -2  -9  -9   14.55    4.29   0
  -2   9  -9   16.53    3.89   0
  -2  -9  -9   18.42    5.24   0
   3  -9   9   14.26    3.78   0
  -3   9  -9   12.61    3.90   0
   3  -9   9    8.48    5.07   0
  -3  -9  -9    1.30    5.08   0
  -3  -9  -9   10.47    5.22   0
  -4   9  -9    2.04    3.96   0
   4  -9   9   -0.53    3.73   0
  -4  -9  -9    1.38    5.28   0
  -4  -9  -9    0.72    5.27   0
  -5  -9  -9   -0.10    5.24   0
  -5  -9  -9    3.14    5.46   0
  -5   9  -9    1.81    3.80   0
   5  -9   9    1.76    4.15   0
  -6  -9  -9    1.47    5.14   0
  -6   9  -9   -0.61    4.19   0
  -6  -9  -9    0.23    4.38   0
   6  -9   9    0.32    4.18   0
  -4  10   9    5.23    5.44   0
   4 -10  -9   15.78    5.36   0
  -4 -10   9   27.94    4.77   0
   4 -10  -9   14.66    4.86   0
  -3 -10   9   -0.60    4.94   0
  -3 -10   9    1.59    4.24   0
  -3  10   9    2.52    4.63   0
   3 -10  -9   -3.20    4.46   0
   3 -10  -9    0.81    5.58   0
  -2 -10   9    7.47    4.24   0
  -2 -10   9    4.90    5.06   0
   2 -10  -9    4.43    5.25   0
   2 -10  -9   11.37    4.51   0
   1 -10  -9   -3.64    5.47   0
   1 -10  -9   -1.04    4.54   0
  -1 -10   9    2.54    3.60   0
  -1 -10   9    1.70    4.36   0
   0 -10  -9   -1.96    5.01   0
   0 -10   9   -0.11    5.18   0
   0 -10   9    1.94    4.21   0
   0 -10  -9    5.25    4.29   0
   1 -10   9   14.95    4.26   0
  -1  10  -9    8.08    4.31   0
   1 -10   9    8.55    4.76   0
  -1 -10  -9   16.89    5.22   0
  -1 -10  -9    8.84    4.55   0
   2 -10   9    0.61    5.77   0
   2 -10   9   26.01    4.56   0
  -2 -10  -9   -4.11    5.12   0
  -2 -10  -9   15.38    4.95   0
  -2  10  -9    4.95    4.47   0
   3 -10   9    3.79    4.34   0
  -3 -10  -9    1.32    4.63   0
   3 -10   9    3.83    5.80   0
  -3  10  -9    1.08    4.46   0
  -3 -10  -9   -0.41    4.83   0
  -4 -10  -9   -0.28    5.17   0
  -4 -10  -9   -3.82    5.10   0
 -12   0  10   -1.47    3.93   0
  12   0 -10   -0.42    3.98   0
 -10   0  10   79.69    3.90   0
  10   0 -10   70.05    4.04   0
  -8   0  10    1.56    3.34   0
   8   0 -10   -1.70    3.39   0
   6   0 -10  989.81    9.25   0
  -6   0  10  976.86    9.13   0
  -4   0  10   26.12    3.79   0
   4   0 -10   27.01    3.97   0
  -2   0  10  924.33   12.29   0
  -2   0  10  876.92   11.64   0
   0   0  10 1282.76   16.92   0
  -2   0 -10   53.41    4.42   0
   2   0  10   50.85    4.09   0
   4   0  10  201.38    5.36   0
  -4   0 -10  198.36    5.23   0
   6   0  10   24.94    3.64   0
  -6   0 -10   22.37    3.25   0
   8   0  10  358.93    6.15   0
  -8   0 -10  404.56    6.17   0
  10   0  10   15.92    3.76   0
 -10   0 -10   17.88    3.81   0
  12   0  10   -2.15    4.34   0
 -12   0 -10   -1.16    4.39   0
  12  -1 -10   -3.93    4.12   0
  12  -1 -10    2.46    5.05   0
  12   1 -10   -0.83    3.98   0
 -12  -1  10    0.62    3.48   0
  12   1 -10    1.19    5.08   0
 -12   1  10    1.16    4.03   0
  11  -1 -10   19.19    4.24   0
 -11  -1  10    6.38    3.44   0
 -11   1  10   23.93    4.13   0
  11   1 -10   17.20    5.24   0
  11  -1 -10   22.90    4.98   0
  11   1 -10   10.78    3.73   0
  10  -1 -10   98.04    4.85   0
 -10  -1  10  125.37    4.33   0
  10  -1 -10  101.43    5.18   0
  10   1 -10  109.71    6.26   0
 -10   1  10  116.95    4.69   0
  10   1 -10  103.33    4.10   0
   9  -1 -10  258.71    5.52   0
  -9  -1  10  256.18    5.21   0
   9   1 -10  245.49    7.68   0
  -9   1  10  251.80    5.37   0
   9  -1 -10  252.65    6.18   0
   9   1 -10  249.98    5.36   0
  -8  -1  10  128.81    4.19   0
  -8   1  10  115.14    4.55   0
   8   1 -10  115.62    6.77   0
   8  -1 -10  123.78    6.15   0
   8   1 -10  109.02    4.20   0
   8  -1 -10  124.30    4.66   0
   7  -1 -10  122.35    4.74   0
  -7  -1  10  117.85    4.02   0
  -7   1  10  121.39    4.54   0
   7  -1 -10  108.17    5.46   0
   7   1 -10  114.76    6.18   0
   7   1 -10  117.37    4.21   0
   6  -1 -10    5.13    5.63   0
   6  -1 -10    5.83    3.35   0
  -6  -1  10    5.77    2.89   0
  -6   1  10    5.11    3.23   0
   6   1 -10    4.60    4.47   0
   6   1 -10    6.24    3.06   0
   5  -1 -10  166.45    6.08   0
   5  -1 -10  167.28    4.95   0
  -5  -1  10  158.77    4.57   0
  -5   1  10  163.38    4.86   0
   5   1 -10  164.12    6.92   0
   4  -1 -10   -0.01    3.07   0
  -4  -1  10   -1.84    3.24   0
  -4   1  10    2.35    2.96   0
   4  -1 -10    1.41    5.01   0
   4   1 -10    0.77    4.35   0
   3  -1 -10  939.77   11.48   0
  -3   1  10  863.65   10.93   0
  -3   1  10  923.23   11.29   0
   3  -1 -10  928.63   10.67   0
  -3  -1  10  861.73   13.81   0
  -3  -1  10  906.35    9.95   0
   2  -1 -10  983.56   11.01   0
  -2   1  10  963.76   13.95   0
   2  -1 -10  950.51   14.22   0
  -2  -1  10  899.04   13.25   0
  -2   1  10  908.55   10.61   0
  -1  -1  10    2.42    3.40   0
  -1   1  10    4.44    5.52   0
  -1   1  10    3.13    3.43   0
   1  -1 -10    4.32    3.32   0
   0   1  10   21.95    7.26   0
   0   1 -10   20.83    3.77   0
   0   1  10   22.66    3.75   0
   0  -1  10   20.83    3.67   0
  -1  -1 -10  169.99    8.54   0
   1  -1  10  160.69    5.43   0
   1   1  10  175.47    8.40   0
  -1   1 -10  160.76    5.46   0
   2  -1  10  119.21    4.90   0
   2   1  10  116.40    5.86   0
  -2   1 -10  110.04    4.67   0
  -3   1 -10  115.99    5.09   0
   3   1  10  113.09    5.08   0
   3  -1  10  107.32    4.56   0
  -3  -1 -10  114.85    4.90   0
  -4   1 -10  268.09    5.39   0
   4   1  10  258.33    5.99   0
   4  -1  10  269.95    5.54   0
  -4  -1 -10  268.25    5.81   0
  -5   1 -10  405.92    6.02   0
   5   1  10  416.65    7.14   0
   5  -1  10  400.42    6.03   0
  -5  -1 -10  443.97    6.91   0
   6   1  10   44.98    3.71   0
  -6   1 -10   47.20    3.28   0
   6  -1  10   44.19    3.10   0
  -6  -1 -10   45.94    3.78   0
   7   1  10    8.83    4.18   0
   7  -1  10    7.69    3.12   0
  -7  -1 -10    8.47    3.48   0
  -7   1 -10    7.72    3.24   0
   8   1  10    1.77    3.55   0
   8  -1  10    1.80    3.01   0
  -8  -1 -10    2.68    3.57   0
  -8   1 -10   -1.19    3.23   0
   9  -1  10   -0.42    3.38   0
  -9  -1 -10    3.70    3.66   0
  -9   1 -10   -2.81    3.40   0
   9   1  10   -1.72    3.67   0
 -10  -1 -10  126.77    4.96   0
  10   1  10  111.28    5.07   0
  10  -1  10  111.50    4.25   0
 -10   1 -10  133.03    4.37   0
  11   1  10    0.37    4.15   0
  11  -1  10    1.27    3.82   0
 -11  -1 -10    3.79    3.77   0
 -11   1 -10   -2.43    3.94   0
  12  -1  10    6.50    3.94   0
  12   1  10    6.61    4.33   0
 -12  -1 -10    8.04    4.32   0
 -12   1 -10    9.16    3.90   0
  12  -2 -10   15.33    4.51   0
 -12  -2  10   24.93    4.13   0
  12   2 -10   28.59    7.26   0
  12  -2 -10   29.05    5.31   0
 -12   2  10   34.46    4.50   0
  11  -2 -10    8.24    3.92   0
  11  -2 -10   11.19    4.80   0
 -11  -2  10    8.23    3.94   0
  11   2 -10    4.71    6.52   0
 -11   2  10   12.03    4.13   0
  10  -2 -10   69.06    4.49   0
 -10  -2  10   82.69    3.77   0
  10  -2 -10   71.87    5.40   0
 -10   2  10   84.52    4.42   0
  10   2 -10   83.43    7.05   0
   9   2 -10   43.78    6.54   0
  -9  -2  10   41.15    3.48   0
   9  -2 -10   39.16    4.71   0
  -9   2  10   48.48    3.98   0
   9  -2 -10   39.08    4.54   0
   8  -2 -10    7.79    3.94   0
  -8  -2  10    3.47    3.09   0
   8  -2 -10    1.89    4.73   0
  -8   2  10    4.64    3.54   0
   8   2 -10    4.29    5.93   0
   7  -2 -10   73.98    5.50   0
   7  -2 -10   73.68    4.06   0
  -7  -2  10   74.31    3.64   0
  -7   2  10   65.02    4.02   0
   7   2 -10   67.78    7.14   0
  -6  -2  10   -0.27    2.71   0
  -6   2  10    2.03    3.31   0
   6  -2 -10    0.54    3.34   0
   6  -2 -10   -2.46    5.16   0
   6   2 -10    0.10    5.75   0
  -5  -2  10  261.50    5.09   0
   5  -2 -10  240.35    6.03   0
  -5   2  10  263.24    5.76   0
   5  -2 -10  253.58    6.68   0
   4  -2 -10  715.43    9.47   0
  -4  -2  10  712.09    7.94   0
  -4   2  10  690.69    9.02   0
   4  -2 -10  703.84    8.85   0
   3  -2 -10  201.09    6.50   0
  -3   2  10  205.89    6.58   0
   3  -2 -10  208.63    5.82   0
  -3   2  10  198.45    6.30   0
  -3  -2  10  196.94   10.06   0
   2  -2 -10 2012.78   20.58   0
  -2  -2  10 1922.61   13.40   0
  -2   2  10 1926.48   20.33   0
   2  -2 -10 2004.15   14.07   0
  -2   2  10 1856.28   13.40   0
   1  -2 -10  100.80    9.21   0
  -1   2  10   95.94    9.02   0
  -1   2  10   95.91    4.79   0
  -1  -2  10   91.18    4.25   0
   1   2 -10   97.29    4.34   0
   1  -2 -10   98.89    4.45   0
   0  -2  10   50.34    4.31   0
   0   2 -10   46.86    3.77   0
   0   2  10   48.36    3.30   0
  -1   2 -10  468.45    7.62   0
   1  -2  10  472.34    7.30   0
   1   2  10  466.43    7.31   0
  -1  -2 -10  497.02   14.93   0
   2   2  10  745.59   12.82   0
   2  -2  10  720.09    8.52   0
  -2   2 -10  730.75    8.48   0
   3   2  10    3.11    4.28   0
  -3   2 -10    8.68    3.09   0
   3  -2  10    6.64    3.25   0
   4   2  10    9.83    3.45   0
  -4   2 -10   12.75    3.11   0
  -4  -2 -10   12.76    3.82   0
   4  -2  10    7.78    3.10   0
   5   2  10   67.83    4.93   0
  -5   2 -10   70.62    3.50   0
  -5  -2 -10   77.84    4.37   0
   5  -2  10   64.23    3.46   0
   6   2  10  270.83    5.97   0
  -6   2 -10  281.63    5.00   0
  -6  -2 -10  291.94    6.10   0
   6  -2  10  266.04    4.96   0
   7   2  10   53.83    4.51   0
  -7   2 -10   55.17    3.42   0
   7  -2  10   57.37    3.27   0
  -7  -2 -10   60.36    4.00   0
  -8   2 -10   46.13    3.60   0
   8  -2  10   40.83    3.58   0
  -8  -2 -10   47.54    3.94   0
   8   2  10   45.21    4.55   0
  -9   2 -10    8.96    3.29   0
   9   2  10   18.62    3.91   0
   9  -2  10    5.35    3.33   0
  -9  -2 -10   16.62    4.01   0
  10  -2  10   -2.56    3.33   0
 -10  -2 -10   -2.55    4.05   0
  10   2  10    0.14    4.13   0
 -10   2 -10    3.91    3.40   0
  11   2  10    1.62    4.12   0
 -11   2 -10    1.55    3.91   0
  11  -2  10    2.53    3.81   0
 -11  -2 -10   -0.14    4.03   0
  12   2  10   -1.35    4.28   0
 -12   2 -10    6.61    4.09   0
  12  -2  10    3.94    4.08   0
 -12  -2 -10    0.41    4.33   0
 -12   3  10   -0.96    4.31   0
  12  -3 -10   -0.11    4.29   0
 -12  -3  10   -0.25    3.87   0
  12  -3 -10   -0.43    5.14   0
 -11  -3  10    0.36    3.66   0
  11  -3 -10    2.53    4.56   0
  11  -3 -10   -0.20    3.93   0
 -11   3  10   -2.55    3.83   0
 -10  -3  10   29.16    3.60   0
  10  -3 -10   22.65    4.17   0
  10  -3 -10   22.52    5.27   0
 -10   3  10   12.67    4.26   0
   9  -3 -10   92.88    4.31   0
  -9   3  10   94.46    4.57   0
  -9  -3  10   96.38    4.02   0
   9  -3 -10  105.40    5.23   0
   8  -3 -10  124.94    5.27   0
  -8  -3  10  131.28    4.07   0
  -8   3  10  125.95    4.61   0
   8  -3 -10  117.70    4.56   0
  -7  -3  10   90.66    3.82   0
   7  -3 -10   85.10    4.06   0
   7  -3 -10   93.67    5.11   0
  -7   3  10   87.59    4.20   0
  -6  -3  10   44.47    3.47   0
   6  -3 -10   51.13    3.81   0
  -6   3  10   47.87    3.87   0
   6  -3 -10   52.79    4.76   0
  -5  -3  10  217.23    4.72   0
   5  -3 -10  212.56    5.39   0
   5  -3 -10  233.81    5.56   0
  -5   3  10  227.41    5.77   0
   4  -3 -10    0.13    3.57   0
   4  -3 -10    2.11    4.09   0
  -4  -3  10    0.58    2.80   0
  -4   3  10    0.02    3.46   0
  -3   3  10  521.27    9.04   0
   3  -3 -10  545.98    7.83   0
   3  -3 -10  541.18    8.96   0
  -3  -3  10  517.38    6.69   0
  -3  -3  10  543.67   18.37   0
  -2   3  10   98.27    5.02   0
  -2  -3  10  109.54    4.24   0
  -2   3  10  104.22    6.03   0
   2  -3 -10  104.62    5.69   0
   2  -3 -10  112.23    4.67   0
   1  -3 -10  186.16    5.24   0
  -1   3  10  188.27    8.32   0
   1   3 -10  187.48    4.84   0
   1  -3 -10  194.36    8.27   0
  -1   3  10  181.78    5.28   0
  -1  -3  10  190.80    5.00   0
   0   3 -10  431.10    6.51   0
   0  -3 -10  441.99   13.11   0
   0  -3  10  417.08    6.59   0
   0  -3 -10  425.83    6.76   0
   0   3  10  412.80    6.84   0
  -1  -3 -10   66.40    6.51   0
  -1  -3 -10   66.96    6.46   0
  -1   3 -10   67.29    3.83   0
   1  -3  10   67.91    3.82   0
   1   3  10   67.16    4.43   0
  -2  -3 -10   52.78    5.10   0
   2   3  10   52.60    4.03   0
   2  -3  10   51.63    3.86   0
  -2   3 -10   54.08    3.60   0
   3   3  10   40.42    3.78   0
   3  -3  10   34.72    3.42   0
  -3   3 -10   39.52    3.41   0
  -4  -3 -10    1.46    3.86   0
  -4   3 -10   -0.67    2.69   0
   4  -3  10    1.64    2.76   0
   4   3  10   -0.09    3.31   0
   5   3  10   35.33    4.52   0
  -5   3 -10   23.88    3.08   0
  -5  -3 -10   28.74    3.66   0
   5  -3  10   24.14    3.08   0
  -6   3 -10  144.98    4.19   0
  -6  -3 -10  146.97    4.77   0
   6  -3  10  152.85    4.20   0
   6   3  10  143.04    5.39   0
  -7   3 -10  131.71    3.98   0
  -7  -3 -10  147.29    5.27   0
   7  -3  10  131.32    4.05   0
   7   3  10  131.63    5.10   0
  -8   3 -10  125.74    4.11   0
   8  -3  10  121.51    4.02   0
  -8  -3 -10  136.54    4.78   0
   8   3  10  116.32    4.89   0
  -9   3 -10  115.72    4.18   0
   9  -3  10   89.84    4.00   0
  -9  -3 -10  107.46    4.65   0
   9   3  10   97.23    4.84   0
 -10   3 -10   68.20    4.24   0
  10  -3  10   53.30    3.81   0
 -10  -3 -10   77.19    4.67   0
  10   3  10   59.98    4.61   0
 -11   3 -10   -2.16    3.59   0
  11  -3  10    4.18    3.97   0
 -11  -3 -10    2.72    4.16   0
  11   3  10   -2.47    4.10   0
 -12   3 -10    4.33    4.18   0
  12  -3  10    5.67    4.16   0
 -12  -3 -10    3.40    4.32   0
  12   3  10    1.36    4.40   0
 -12   4  10   -2.54    4.26   0
  12  -4 -10    2.21    4.26   0
  11  -4 -10    0.24    4.19   0
 -11  -4  10   -2.17    3.49   0
  11  -4 -10    4.75    5.10   0
 -11   4  10   -3.61    4.21   0
  10  -4 -10   22.40    4.52   0
  10  -4 -10   30.68    4.76   0
 -10  -4  10   22.98    3.50   0
 -10   4  10   29.31    4.15   0
  -9  -4  10   -0.16    3.28   0
   9  -4 -10    7.29    4.20   0
   9  -4 -10   -0.21    4.67   0
  -9   4  10   -0.59    3.88   0
  -8  -4  10    3.55    3.25   0
   8  -4 -10    8.72    3.79   0
   8  -4 -10    8.22    4.36   0
  -8   4  10   12.71    3.59   0
  -7   4  10  266.06    6.05   0
  -7  -4  10  255.85    4.73   0
   7  -4 -10  268.74    5.70   0
   7  -4 -10  258.62    6.33   0
  -6   4  10  187.61    5.09   0
   6  -4 -10  184.19    5.51   0
   6  -4 -10  177.54    5.36   0
  -6  -4  10  191.51    4.43   0
  -5   4  10  238.57    5.93   0
   5  -4 -10  256.06    5.73   0
   5  -4 -10  250.87    5.61   0
  -5  -4  10  238.81    4.72   0
  -4   4  10   35.50    3.80   0
   4  -4 -10   32.38    3.39   0
   4  -4 -10   39.58    4.44   0
  -4  -4  10   33.34    2.95   0
  -3  -4  10   32.36    9.40   0
  -3   4  10   37.98    4.18   0
   3  -4 -10   40.77    4.17   0
  -3  -4  10   39.27    3.24   0
   3  -4 -10   46.77    4.05   0
   2  -4 -10   53.96    4.65   0
  -2   4  10   56.71    4.50   0
   2  -4 -10   48.49    3.95   0
  -2  -4  10   57.20    3.46   0
  -2   4  10   53.22    4.55   0
   1   4 -10   59.08    3.56   0
  -1   4  10   52.23    5.22   0
  -1  -4  10   53.76    3.53   0
   1  -4 -10   55.51    3.68   0
  -1   4  10   58.19    4.28   0
   1  -4 -10   58.30    5.07   0
   0   4  10  208.02    5.52   0
   0  -4 -10  219.20    7.54   0
   0   4 -10  212.70    4.80   0
   0  -4 -10  216.30    5.12   0
   0  -4  10  221.74    4.91   0
   1  -4  10  237.17    5.01   0
   1   4  10  236.04    5.54   0
  -1  -4 -10  232.34    7.43   0
  -1  -4 -10  246.36    8.03   0
  -1  -4 -10  234.57    5.17   0
  -1   4 -10  223.66    4.88   0
  -2  -4 -10   72.58    5.12   0
  -2   4 -10   66.53    3.44   0
   2  -4  10   68.39    3.46   0
   2   4  10   72.08    4.29   0
   3  -4  10   13.22    2.78   0
   3   4  10   20.39    4.01   0
  -3   4 -10   17.37    2.82   0
  -4  -4 -10  494.93    7.73   0
   4   4  10  463.90    7.19   0
  -4   4 -10  480.19    5.87   0
   4  -4  10  461.59    5.76   0
  -5  -4 -10  183.32    5.12   0
   5  -4  10  170.66    4.15   0
  -5   4 -10  160.60    4.46   0
   5   4  10  171.52    5.29   0
  -6  -4 -10   -0.18    3.39   0
  -6   4 -10   -0.83    2.83   0
   6  -4  10    3.48    2.74   0
   6   4  10    3.83    4.03   0
   7  -4  10  289.35    5.00   0
  -7   4 -10  320.20    5.12   0
  -7  -4 -10  361.67    6.56   0
  -8   4 -10   -2.19    3.12   0
  -8  -4 -10    3.80    3.61   0
   8  -4  10    1.66    3.10   0
  -9   4 -10   -0.34    3.58   0
   9  -4  10    4.05    3.31   0
  -9  -4 -10   -1.15    3.92   0
 -10   4 -10    5.67    3.82   0
  10  -4  10   10.66    3.36   0
 -10  -4 -10    6.50    4.04   0
 -11   4 -10    3.18    3.44   0
  11  -4  10   -0.61    3.48   0
 -11  -4 -10    7.23    4.53   0
 -11   5  10    5.95    4.65   0
  11  -5 -10    5.27    4.46   0
 -11  -5  10    9.42    4.14   0
 -10   5  10   -2.53    4.65   0
 -10  -5  10   -0.65    3.43   0
  10  -5 -10    2.95    4.25   0
  10  -5 -10    9.50    4.70   0
  -9   5  10   51.34    4.24   0
  -9  -5  10   53.41    3.76   0
   9  -5 -10   10.54    4.32   0
   9  -5 -10   57.19    4.74   0
  -8   5  10  104.97    4.70   0
   8  -5 -10  109.35    4.80   0
   8  -5 -10  107.39    4.63   0
  -8  -5  10  104.80    3.95   0
  -7  -5  10    0.11    3.22   0
  -7   5  10    1.38    3.96   0
   7  -5 -10    3.13    3.92   0
   7  -5 -10    4.37    4.16   0
  -6  -5  10  145.56    4.10   0
  -6   5  10  161.49    5.47   0
   6  -5 -10  147.88    4.65   0
   6  -5 -10  132.32    4.91   0
  -6  -5  10  144.86    4.25   0
  -5   5  10   45.92    3.81   0
   5  -5 -10   43.62    3.76   0
  -5  -5  10   44.34    3.29   0
   5  -5 -10   43.38    4.32   0
  -5  -5  10   35.00    3.25   0
  -4   5  10  149.50    5.24   0
   4  -5 -10  158.50    4.86   0
   4  -5 -10  164.85    5.39   0
  -4  -5  10  152.86    4.17   0
   3  -5 -10   74.65    4.41   0
   3  -5 -10   79.34    4.64   0
  -3  -5  10   83.81    3.45   0
  -3  -5  10   72.88    7.84   0
  -3   5  10   82.95    4.14   0
  -2   5  10  323.78    7.10   0
  -2  -5  10  318.21    5.18   0
   2  -5 -10  332.16    5.91   0
   2  -5 -10  340.30    7.08   0
   1  -5 -10  236.34    6.56   0
  -1   5  10  224.60    6.01   0
  -1  -5  10  227.15    4.65   0
   1   5 -10  237.35    4.73   0
   1  -5 -10  228.47    5.14   0
  -1   5  10  235.98    6.69   0
   0  -5 -10   88.98    4.92   0
   0   5  10   83.69    4.60   0
   0  -5  10   84.03    3.54   0
   0   5 -10   87.56    3.57   0
   0  -5 -10   86.18    3.84   0
  -1  -5 -10   66.41    3.80   0
   1   5  10   65.69    4.54   0
   1  -5  10   67.89    3.23   0
  -1  -5 -10   68.45    4.69   0
  -1   5 -10   63.77    3.33   0
   2  -5  10   47.89    3.09   0
  -2   5 -10   44.39    3.08   0
   2   5  10   54.35    4.45   0
  -2  -5 -10   48.83    4.49   0
  -3  -5 -10    5.89    3.92   0
   3  -5  10    9.53    2.82   0
  -3   5 -10    9.00    2.94   0
   3   5  10    9.23    3.93   0
  -4  -5 -10   82.28    4.86   0
   4   5  10   80.46    5.06   0
   4  -5  10   77.95    3.62   0
  -4   5 -10   85.80    3.68   0
  -5   5 -10   -0.32    2.79   0
  -5  -5 -10    3.28    3.87   0
   5  -5  10   -0.88    2.75   0
   5   5  10   -1.79    4.34   0
   6   5  10  100.75    5.00   0
  -6  -5 -10  115.20    5.00   0
   6  -5  10  108.42    3.77   0
  -6   5 -10   98.06    3.73   0
  -7  -5 -10    9.88    3.77   0
   7  -5  10   12.14    3.18   0
  -7   5 -10   11.21    3.14   0
   7   5  10   13.22    4.39   0
  -8  -5 -10    2.53    3.90   0
  -8   5 -10    3.29    3.34   0
   8  -5  10    5.15    3.17   0
   8   5  10    5.19    4.36   0
  -9   5 -10   80.61    3.93   0
  -9  -5 -10   74.46    4.89   0
   9  -5  10   77.55    4.30   0
   9   5  10   71.29    5.67   0
  10  -5  10    0.29    3.10   0
 -10   5 -10    3.41    3.22   0
 -10  -5 -10    2.44    4.40   0
  10   5  10    4.52    5.12   0
 -11  -5 -10    4.87    4.71   0
  11  -5  10    8.62    3.91   0
 -11   5 -10   14.00    4.08   0
  11   5  10   12.29    6.08   0
  10  -6 -10    1.55    4.12   0
 -10   6  10    4.66    4.13   0
 -10  -6  10    6.08    3.88   0
  10  -6 -10   -2.22    5.05   0
  -9  -6  10   -2.73    3.67   0
   9  -6 -10    0.37    3.90   0
  -9   6  10    2.71    3.71   0
  -9  -6  10    1.37    3.71   0
   9  -6 -10   -1.58    4.40   0
  -8  -6  10   -2.00    3.40   0
  -8  -6  10    0.03    3.45   0
   8  -6 -10   -0.16    3.68   0
  -8   6  10   -1.10    3.81   0
  -7  -6  10  204.89    4.94   0
  -7  -6  10  199.29    4.77   0
   7  -6 -10  196.86    6.01   0
  -7   6  10  203.44    6.26   0
  -6   6  10   29.74    3.83   0
  -6  -6  10   25.96    3.13   0
   6  -6 -10   32.41    3.77   0
   6  -6 -10   32.64    4.14   0
  -6  -6  10   25.98    3.58   0
  -5   6  10  106.76    4.67   0
  -5  -6  10   81.74    4.02   0
   5  -6 -10   97.32    4.89   0
   5  -6 -10   91.34    4.23   0
  -5  -6  10   95.28    3.97   0
  -4  -6  10   17.08    3.19   0
  -4   6  10   14.90    3.45   0
   4  -6 -10   16.62    3.98   0
   4  -6 -10   17.60    3.83   0
  -3   6  10  343.10    7.08   0
  -3  -6  10  369.30    5.50   0
   3  -6 -10  396.62    6.37   0
  -3  -6  10  337.78   10.23   0
   3  -6 -10  352.24    6.73   0
   2  -6 -10  238.99    6.25   0
  -2  -6  10  236.01    4.89   0
  -2  -6  10  221.04    8.59   0
   2  -6 -10  226.32    5.26   0
  -2   6  10  222.09    5.86   0
  -1  -6  10  152.54    4.14   0
   1   6 -10  162.11    4.33   0
   1  -6 -10  167.05    5.90   0
   1  -6 -10  169.60    4.84   0
  -1   6  10  164.88    5.85   0
   0   6 -10  291.94    5.08   0
   0  -6 -10  300.52    7.20   0
   0  -6  10  298.87    5.03   0
   0  -6 -10  303.18    5.94   0
   0   6  10  310.25    6.94   0
  -1   6 -10  127.08    4.06   0
   1   6  10  126.42    6.61   0
  -1  -6 -10  131.13    5.41   0
  -1  -6 -10  129.64    4.78   0
   1  -6  10  121.89    3.99   0
  -2   6 -10   85.82    3.73   0
  -2  -6 -10   88.44    5.18   0
   2  -6  10   81.95    3.62   0
   2   6  10   73.82    5.10   0
  -3  -6 -10  429.13    7.66   0
   3   6  10  409.12    7.42   0
   3  -6  10  430.64    5.73   0
  -3   6 -10  427.39    5.61   0
   4  -6  10    4.55    2.60   0
   4   6  10    8.82    3.90   0
  -4  -6 -10    4.96    3.33   0
  -4   6 -10    9.20    2.99   0
  -4  -6 -10    9.26    3.79   0
   5  -6  10   26.89    3.47   0
  -5  -6 -10   30.58    3.93   0
   5   6  10   25.09    4.90   0
  -5  -6 -10   27.72    4.15   0
  -5   6 -10   30.42    3.41   0
   6   6  10   20.26    4.85   0
  -6  -6 -10   23.43    4.77   0
   6  -6  10   12.33    3.48   0
  -6   6 -10   22.19    3.37   0
  -7  -6 -10   -1.55    3.89   0
   7   6  10   -0.26    3.59   0
   7  -6  10   -1.73    2.97   0
  -7   6 -10   -1.94    3.22   0
  -8  -6 -10   11.25    4.55   0
   8  -6  10   13.34    3.23   0
   8   6  10   11.69    4.77   0
  -8   6 -10   10.43    3.60   0
   9  -6  10   -1.87    3.79   0
   9   6  10   -1.91    4.42   0
  -9  -6 -10   -1.81    4.33   0
  -9   6 -10    4.25    3.66   0
 -10  -6 -10   31.68    5.06   0
  10  -6  10   21.96    4.16   0
  10   6  10    7.70    5.50   0
 -10   6 -10   23.59    4.25   0
  -9  -7  10   16.93    4.21   0
   9  -7 -10   20.05    4.76   0
  -9   7  10   25.03    4.67   0
  -9  -7  10   19.10    4.08   0
  -8  -7  10   -2.04    3.70   0
  -8  -7  10   -1.45    4.10   0
   8  -7 -10   -2.21    3.87   0
  -8   7  10    1.89    3.97   0
  -7  -7  10   -1.11    3.88   0
   7  -7 -10   -0.57    3.63   0
  -7   7  10    0.75    3.66   0
  -7  -7  10    1.27    3.74   0
  -6  -7  10   65.51    3.99   0
   6  -7 -10   55.23    4.43   0
   6  -7 -10   66.58    4.71   0
  -6   7  10   58.02    4.56   0
  -6  -7  10   67.13    4.09   0
  -5  -7  10   17.93    3.20   0
  -5   7  10   14.26    3.81   0
  -5  -7  10    2.31    3.43   0
   5  -7 -10   16.06    4.27   0
   5  -7 -10   11.01    4.06   0
  -4  -7  10   35.05    3.64   0
  -4   7  10   38.58    4.15   0
   4  -7 -10   42.08    4.43   0
   4  -7 -10   35.51    4.09   0
  -3  -7  10   -0.84    2.85   0
   3  -7 -10    0.17    3.44   0
  -3  -7  10    0.63    5.00   0
   3  -7 -10   -0.10    3.70   0
  -3   7  10    1.74    3.56   0
  -2  -7  10  263.69    7.81   0
  -2  -7  10  273.14    5.07   0
   2  -7 -10  287.99    5.83   0
  -2   7  10  280.76    6.49   0
   2  -7 -10  282.66    6.60   0
  -1  -7  10   14.15    3.37   0
  -1   7  10   14.02    3.59   0
  -1  -7  10    8.30    4.46   0
   1  -7 -10   14.69    4.06   0
   1  -7 -10    9.39    4.21   0
   0  -7 -10    4.50    3.99   0
   0   7 -10   -0.63    3.22   0
   0  -7  10    1.16    3.20   0
   0  -7 -10    2.22    3.68   0
  -1   7 -10  203.57    4.68   0
   1  -7  10  219.28    4.77   0
   1   7  10  196.19    6.27   0
  -1  -7 -10  206.79    6.30   0
  -1  -7 -10  222.01    5.46   0
  -2  -7 -10   22.70    4.08   0
   2  -7  10   22.98    3.37   0
   2   7  10   22.07    4.97   0
  -2   7 -10   33.81    3.37   0
  -3  -7 -10  106.90    5.17   0
   3  -7  10  109.59    3.95   0
  -3  -7 -10  101.28    4.54   0
   3   7  10  102.19    5.98   0
  -3   7 -10  106.46    4.02   0
   4  -7  10   14.09    3.24   0
  -4  -7 -10   18.71    4.05   0
   4   7  10   18.39    5.04   0
  -4   7 -10   12.10    3.59   0
  -4  -7 -10   13.30    4.10   0
  -5  -7 -10  147.79    5.29   0
  -5   7 -10  111.78    4.34   0
  -5  -7 -10  137.64    5.16   0
   5   7  10  113.61    6.48   0
   5  -7  10  133.39    4.19   0
  -6   7 -10   -0.17    3.24   0
   6  -7  10    0.22    3.27   0
  -6  -7 -10   -0.85    4.94   0
  -6  -7 -10    0.59    3.94   0
   6   7  10    1.33    4.45   0
  -7  -7 -10   -1.69    4.75   0
  -7  -7 -10    2.46    4.65   0
   7   7  10   -1.00    4.41   0
   7  -7  10    0.47    3.55   0
  -7   7 -10   -1.19    3.52   0
   8   7  10    9.62    5.70   0
  -8  -7 -10   10.93    4.31   0
   8  -7  10   10.96    3.94   0
  -8  -7 -10   10.70    4.67   0
  -8   7 -10    6.54    4.09   0
  -9   7 -10    4.27    4.08   0
  -9  -7 -10    2.99    4.48   0
   9  -7  10    4.67    4.09   0
   9   7  10    3.44    5.91   0
   8  -8 -10    6.18    4.95   0
  -8  -8  10   22.40    3.95   0
  -8   8  10   -3.65    5.01   0
  -8  -8  10   11.38    4.54   0
   8  -8 -10    7.32    4.86   0
  -7  -8  10    2.66    4.66   0
   7  -8 -10   38.72    4.49   0
  -7  -8  10   39.59    4.44   0
   7  -8 -10   41.75    4.46   0
  -7   8  10    3.90    5.34   0
  -6   8  10   -4.90    4.17   0
   6  -8 -10    1.54    4.04   0
   6  -8 -10    8.74    4.42   0
  -6  -8  10    3.91    3.57   0
  -6  -8  10    0.34    3.83   0
  -5   8  10   33.94    4.83   0
  -5  -8  10   31.60    3.99   0
   5  -8 -10   29.69    4.67   0
   5  -8 -10   31.73    4.76   0
  -5  -8  10   22.34    4.09   0
  -4   8  10    0.97    4.33   0
   4  -8 -10    7.02    3.76   0
  -4  -8  10    6.03    3.20   0
   4  -8 -10    6.16    4.43   0
   3  -8 -10   -2.85    3.83   0
  -3  -8  10    0.49    3.29   0
  -3   8  10    5.64    4.16   0
  -3  -8  10    2.19    4.96   0
   3  -8 -10    1.09    4.29   0
  -2   8  10    3.65    4.64   0
  -2  -8  10    3.25    5.03   0
  -2  -8  10    2.86    3.38   0
   2  -8 -10    7.31    4.10   0
   2  -8 -10   -0.00    4.04   0
   1  -8 -10    1.47    4.04   0
   1  -8 -10    1.83    4.06   0
  -1  -8  10    3.74    3.24   0
  -1  -8  10    4.38    4.65   0
   0  -8 -10    6.90    3.85   0
   0  -8  10   13.81    3.53   0
   0  -8 -10    7.33    3.33   0
   0  -8  10    4.78    5.01   0
   0   8 -10    8.06    3.42   0
  -1   8 -10   86.46    4.09   0
   1  -8  10   80.57    3.98   0
  -1  -8 -10   83.59    5.25   0
  -1  -8 -10   87.77    4.60   0
   2  -8  10   54.68    3.79   0
  -2   8 -10   62.85    3.77   0
  -2  -8 -10   56.64    5.02   0
  -2  -8 -10   44.66    4.62   0
  -3   8 -10   55.33    3.96   0
  -3  -8 -10   52.01    4.76   0
   3  -8  10   50.92    3.68   0
   3   8  10   46.80    5.93   0
  -3  -8 -10   55.97    5.20   0
  -4  -8 -10   10.23    4.05   0
   4   8  10    4.55    4.66   0
   4  -8  10    7.68    3.58   0
  -4  -8 -10    8.80    3.92   0
  -4   8 -10    6.64    3.51   0
  -5  -8 -10    0.74    4.38   0
  -5   8 -10    0.40    3.95   0
   5   8  10   -0.54    5.37   0
  -5  -8 -10    1.14    4.10   0
   5  -8  10   -3.95    3.67   0
  -6  -8 -10    6.40    5.73   0
  -6  -8 -10    3.97    4.60   0
  -6   8 -10   16.66    4.01   0
   6   8  10    3.62    5.98   0
   6  -8  10   20.68    4.00   0
   7  -8  10    4.97    3.82   0
  -7   8 -10    1.84    3.96   0
  -7  -8 -10    0.41    4.90   0
   7   8  10    2.74    5.73   0
  -7  -8 -10   -1.72    4.82   0
  -8  -8 -10    2.04    4.67   0
   8  -8  10   -0.50    4.23   0
  -8   8 -10    3.81    4.23   0
  -8  -8 -10   -0.34    4.58   0
   6  -9 -10    0.02    4.92   0
   6  -9 -10   -0.34    4.46   0
  -6   9  10    0.01    4.53   0
  -6  -9  10    1.29    4.18   0
  -6  -9  10   -0.25    4.31   0
  -5  -9  10    3.93    3.99   0
   5  -9 -10   14.34    4.28   0
   5  -9 -10    0.38    4.72   0
  -5   9  10   -1.64    4.78   0
  -5  -9  10    5.50    3.64   0
   4  -9 -10    8.01    5.60   0
  -4  -9  10    4.90    3.91   0
  -4   9  10    8.48    5.12   0
   4  -9 -10    4.70    4.45   0
  -3  -9  10    5.21    3.83   0
   3  -9 -10    4.08    3.90   0
  -3  -9  10    4.78    5.50   0
  -3   9  10   -1.01    5.14   0
   3  -9 -10    2.01    4.82   0
  -2  -9  10    3.95    4.72   0
   2  -9 -10    2.74    4.32   0
  -2   9  10    1.45    4.86   0
  -2  -9  10    0.98    3.92   0
   2  -9 -10    1.14    3.85   0
   1  -9 -10    0.12    4.26   0
   1  -9 -10   -2.47    4.05   0
  -1  -9  10   -0.75    4.79   0
  -1  -9  10   -4.52    3.78   0
   0  -9 -10   30.52    4.65   0
   0  -9  10   26.53    5.82   0
   0  -9  10   33.78    3.84   0
   0  -9 -10   30.67    4.21   0
   1  -9  10    1.07    4.79   0
   1  -9  10   -0.84    3.49   0
  -1  -9 -10    2.95    4.84   0
  -1   9 -10    4.65    3.82   0
  -1  -9 -10    2.71    4.00   0
  -2   9 -10   -2.14    3.73   0
   2  -9  10   -1.31    3.85   0
   2  -9  10    1.03    5.22   0
  -2  -9 -10   -5.18    4.37   0
  -2  -9 -10   -1.08    4.99   0
  -3  -9 -10    5.34    4.78   0
  -3  -9 -10    4.51    5.05   0
  -3   9 -10    2.76    3.81   0
   3  -9  10    3.19    3.81   0
  -4   9 -10    8.57    4.25   0
   4  -9  10   26.87    4.18   0
  -4  -9 -10   30.85    5.65   0
  -4  -9 -10   24.52    5.55   0
  -5  -9 -10    5.19    5.17   0
  -5   9 -10   -1.72    3.82   0
  -5  -9 -10   -1.60    4.69   0
   5  -9  10    2.92    3.92   0
  -6  -9 -10    0.20    5.62   0
  -6   9 -10   -0.47    4.17   0
  -6  -9 -10    5.21    5.62   0
   6  -9  10    3.96    4.02   0
  -3 -10  10    0.48    5.84   0
   3 -10 -10   10.86    4.58   0
  -3  10  10    0.61    4.59   0
   3 -10 -10    0.00    4.98   0
  -3 -10  10    6.92    4.45   0
  -2 -10  10   -3.11    5.40   0
  -2 -10  10    0.41    4.35   0
   2 -10 -10   -1.13    4.42   0
   2 -10 -10   -0.11    5.22   0
  -1 -10  10    2.68    4.42   0
   1 -10 -10    1.35    4.80   0
  -1 -10  10   -1.79    5.09   0
   1 -10 -10    2.18    4.53   0
   0 -10  10    5.81    6.22   0
   0 -10 -10    6.67    5.10   0
   0 -10  10   10.75    4.55   0
   0 -10 -10    5.79    4.55   0
   1 -10  10    5.14    4.40   0
  -1 -10 -10    1.96    5.44   0
  -1  10 -10    3.32    4.26   0
  -1 -10 -10    5.15    4.52   0
   1 -10  10    7.51    4.88   0
   2 -10  10   -2.51    4.29   0
  -2 -10 -10    0.54    4.76   0
   2 -10  10    5.61    4.89   0
  -2  10 -10   -4.17    4.29   0
  -2 -10 -10   -1.95    4.93   0
  -3 -10 -10   18.13    4.92   0
   3 -10  10   17.05    4.60   0
  -3 -10 -10    0.98    5.27   0
   3 -10  10   16.36    6.23   0
  -3  10 -10   25.12    4.59   0
  11   0 -11    0.68    3.52   0
 -11   0  11   -1.52    3.54   0
  -9   0  11   77.62    4.29   0
   9   0 -11   80.77    4.34   0
  -7   0  11   39.12    3.93   0
   7   0 -11   45.18    4.11   0
  -5   0  11   69.15    3.96   0
   5   0 -11   69.31    4.19   0
  -3   0  11 1242.70   12.29   0
   3   0 -11 1228.19   13.23   0
  -3   0  11 1166.39   12.81   0
  -1   0  11 1427.82   16.34   0
  -1   0  11 1401.95   13.25   0
   1   0  11 1524.27   16.37   0
  -3   0 -11    1.23    3.45   0
   3   0  11    3.80    3.04   0
   5   0  11  242.49    5.32   0
  -5   0 -11  244.56    5.26   0
   7   0  11    9.09    3.60   0
  -7   0 -11    7.21    3.79   0
   9   0  11   17.83    3.64   0
  -9   0 -11   26.00    3.71   0
  11   0  11   38.71    4.61   0
 -11   0 -11   57.42    4.58   0
  12  -1 -11    0.65    4.25   0
  12   1 -11   22.56    5.53   0
 -12  -1  11   15.11    4.27   0
  12  -1 -11   31.15    5.82   0
 -12   1  11    2.32    4.26   0
  12   1 -11   14.88    4.24   0
  11  -1 -11    3.46    3.94   0
 -11  -1  11    0.58    3.60   0
 -11   1  11    4.05    3.86   0
  11   1 -11    1.08    4.88   0
  11  -1 -11    2.64    5.41   0
  11   1 -11   -7.30    3.75   0
  10  -1 -11    1.70    3.81   0
  10   1 -11   -1.43    4.97   0
  10  -1 -11    5.48    4.18   0
 -10  -1  11    2.27    3.02   0
 -10   1  11    0.09    3.80   0
  10   1 -11   -2.89    3.53   0
   9  -1 -11   76.12    4.42   0
  -9   1  11   73.43    4.33   0
   9  -1 -11   72.00    5.14   0
   9   1 -11   74.86    5.56   0
  -9  -1  11   77.42    4.22   0
   9   1 -11   68.09    4.22   0
   8  -1 -11  328.51    5.99   0
   8  -1 -11  326.12    6.79   0
   8   1 -11  323.68    8.66   0
  -8  -1  11  325.15    5.65   0
  -8   1  11  314.76    5.81   0
   8   1 -11  336.88    5.73   0
   7  -1 -11   15.77    3.82   0
  -7  -1  11   10.62    3.22   0
  -7   1  11   12.23    3.60   0
   7  -1 -11    5.29    5.15   0
   7   1 -11    8.63    5.07   0
   7   1 -11    8.72    3.38   0
   6  -1 -11  181.85    5.06   0
  -6  -1  11  187.79    4.56   0
  -6   1  11  181.37    5.27   0
   6  -1 -11  179.61    6.03   0
   6   1 -11  174.06    6.74   0
   5  -1 -11   38.56    3.95   0
   5  -1 -11   40.65    4.66   0
  -5  -1  11   42.24    3.53   0
   5   1 -11   35.45    4.80   0
  -5   1  11   42.28    3.85   0
   4  -1 -11    1.76    3.30   0
  -4  -1  11    4.53    3.42   0
  -4   1  11    1.15    2.98   0
   4  -1 -11    2.82    4.05   0
   4   1 -11    4.72    4.85   0
  -3  -1  11   17.39    5.05   0
   3  -1 -11   22.08    3.93   0
  -3   1  11   21.12    3.48   0
  -3   1  11   19.19    4.39   0
  -3  -1  11   20.74    3.74   0
   3  -1 -11   19.63    4.24   0
  -2   1  11   99.52    5.83   0
  -2   1  11   95.84    4.91   0
  -2  -1  11  101.84    5.60   0
  -2  -1  11  100.89    4.68   0
   2  -1 -11  107.39    4.89   0
  -1   1  11  542.32   14.42   0
  -1   1  11  534.90    8.12   0
  -1   1  11  515.88   13.87   0
  -1  -1  11  517.17    8.62   0
   0   1 -11   79.97    4.98   0
   0   1  11   83.13    8.57   0
   0   1  11   82.01    4.41   0
   0  -1  11   73.00    4.30   0
  -1   1 -11   52.65    4.62   0
  -1  -1 -11   51.52    5.92   0
   1  -1  11   48.57    4.00   0
   1   1  11   52.00    5.91   0
   2  -1  11  235.40    5.72   0
   2   1  11  246.76    7.57   0
  -2   1 -11  237.00    5.84   0
   3   1  11   42.82    3.89   0
  -3   1 -11   45.31    3.79   0
   3  -1  11   37.89    3.77   0
  -4   1 -11  127.92    4.46   0
   4   1  11  134.15    5.29   0
  -4  -1 -11  141.20    5.38   0
   4  -1  11  125.58    4.48   0
  -5   1 -11   57.68    3.63   0
   5   1  11   44.95    4.49   0
   5  -1  11   49.36    3.54   0
  -5  -1 -11   52.19    3.95   0
   6   1  11   50.00    3.85   0
  -6   1 -11   54.70    3.51   0
   6  -1  11   59.49    3.48   0
  -6  -1 -11   58.91    3.79   0
   7   1  11    6.21    3.57   0
   7  -1  11    5.43    3.39   0
  -7  -1 -11    8.55    4.01   0
  -7   1 -11    9.82    3.49   0
  -8   1 -11   86.55    4.12   0
   8   1  11   85.21    4.22   0
   8  -1  11   83.33    4.17   0
  -8  -1 -11   85.80    4.18   0
   9   1  11    2.06    3.87   0
   9  -1  11    5.78    3.40   0
  -9  -1 -11    4.13    3.74   0
  -9   1 -11    8.92    3.38   0
  10   1  11  144.13    5.19   0
  10  -1  11  150.26    4.59   0
 -10  -1 -11  170.65    5.17   0
 -10   1 -11  164.16    4.67   0
 -11   1 -11   36.95    4.07   0
  11   1  11   20.16    4.51   0
  11  -1  11   30.63    4.03   0
 -11  -1 -11   34.42    4.53   0
  12   1  11   -2.67    3.73   0
  12  -1  11   -1.83    3.84   0
 -12   1 -11    0.37    4.00   0
 -12  -1 -11   -2.63    4.08   0
  12  -2 -11   -0.42    4.18   0
  12   2 -11    0.29    6.76   0
 -12  -2  11   -2.74    3.50   0
  12  -2 -11   -4.47    4.63   0
 -12   2  11    0.76    4.05   0
  11  -2 -11    1.53    4.08   0
  11   2 -11    2.80    6.21   0
 -11  -2  11   10.78    3.78   0
 -11   2  11    2.10    3.94   0
  11  -2 -11    2.01    4.29   0
  10  -2 -11    5.21    3.77   0
 -10  -2  11   11.29    3.34   0
  10   2 -11    4.78    6.12   0
 -10   2  11    1.67    3.78   0
  10  -2 -11    5.49    5.07   0
   9  -2 -11   23.73    3.84   0
   9   2 -11   19.49    6.19   0
   9  -2 -11   19.85    5.02   0
  -9  -2  11   20.58    3.31   0
  -9   2  11   15.57    3.67   0
   8  -2 -11    3.64    4.14   0
  -8  -2  11    1.44    2.99   0
   8  -2 -11    2.23    4.42   0
   8   2 -11    2.02    5.75   0
  -8   2  11    1.29    3.60   0
   7  -2 -11  106.65    4.35   0
  -7  -2  11   98.20    3.65   0
   7   2 -11  112.67    7.82   0
   7  -2 -11  106.34    5.76   0
  -7   2  11  111.40    4.31   0
  -6  -2  11  220.18    4.71   0
   6  -2 -11  217.56    5.35   0
  -6   2  11  223.33    5.35   0
   6  -2 -11  220.90    5.96   0
  -5  -2  11  111.34    4.05   0
   5  -2 -11  127.66    4.83   0
  -5   2  11  121.35    4.69   0
   5  -2 -11  133.42    5.26   0
  -4   2  11   25.04    4.07   0
   4  -2 -11   25.47    4.16   0
   4  -2 -11   32.87    4.24   0
  -4  -2  11   23.66    3.42   0
   3  -2 -11 1338.19   14.07   0
  -3   2  11 1320.71   14.01   0
  -3   2  11 1250.68   11.32   0
   3  -2 -11 1350.73   11.42   0
  -3  -2  11 1261.61   18.66   0
   2  -2 -11  211.76    8.28   0
  -2   2  11  205.21    7.98   0
  -2  -2  11  205.12    5.50   0
  -2   2  11  197.48    5.95   0
   2  -2 -11  208.92    5.86   0
   1   2 -11  225.09    5.75   0
  -1  -2  11  224.91    5.74   0
  -1   2  11  211.28    5.57   0
   1  -2 -11  212.27    5.55   0
  -1   2  11  220.39   13.53   0
   0  -2  11   10.86    3.41   0
   0   2 -11   11.58    3.45   0
   0   2  11   13.98    3.65   0
  -1   2 -11  835.17    9.21   0
   1   2  11  816.84    8.95   0
   1  -2  11  867.51    9.39   0
  -1  -2 -11  865.69   20.30   0
   2   2  11  292.48    8.73   0
   2  -2  11  278.13    5.86   0
  -2  -2 -11  289.94    8.52   0
  -2   2 -11  268.80    5.87   0
   3   2  11   62.35    4.53   0
   3  -2  11   66.48    4.15   0
  -3   2 -11   70.29    3.82   0
   4   2  11  165.42    5.29   0
  -4   2 -11  171.42    4.51   0
  -4  -2 -11  163.62    5.70   0
   4  -2  11  165.43    4.59   0
  -5   2 -11   39.63    3.16   0
  -5  -2 -11   45.49    3.79   0
   5  -2  11   37.63    3.12   0
   5   2  11   49.31    4.70   0
   6   2  11    4.29    3.52   0
   6  -2  11    2.82    2.92   0
  -6  -2 -11    6.20    3.47   0
  -6   2 -11    7.34    2.93   0
  -7   2 -11   17.69    3.48   0
   7  -2  11   15.95    3.10   0
  -7  -2 -11    8.81    4.00   0
   7   2  11    9.35    3.54   0
   8   2  11    8.55    3.80   0
  -8   2 -11    1.29    3.25   0
   8  -2  11    4.49    3.31   0
  -8  -2 -11    2.88    3.55   0
  -9   2 -11   87.81    4.04   0
   9   2  11   66.68    4.73   0
   9  -2  11   80.71    3.97   0
  -9  -2 -11   94.67    4.34   0
  10   2  11   76.15    4.92   0
 -10   2 -11   95.43    4.16   0
  10  -2  11   91.65    4.20   0
 -10  -2 -11  110.61    5.39   0
  11   2  11    2.09    4.13   0
  11  -2  11    7.77    3.93   0
 -11  -2 -11    7.94    4.07   0
 -11   2 -11    4.12    3.96   0
  12   2  11   -2.29    4.37   0
 -12   2 -11   -2.45    4.04   0
  12  -2  11    1.32    4.02   0
 -12  -2 -11    4.11    4.25   0
  12  -3 -11    7.60    4.45   0
 -12  -3  11   17.12    3.90   0
  12  -3 -11    7.30    5.42   0
 -12   3  11    2.39    4.56   0
  11  -3 -11    0.16    4.03   0
 -11  -3  11   -1.43    3.69   0
  11  -3 -11    1.07    4.24   0
 -11   3  11   -2.41    3.99   0
  10  -3 -11   23.31    4.24   0
 -10  -3  11   23.05    3.47   0
  10  -3 -11   21.87    4.56   0
 -10   3  11   18.62    4.23   0
   9  -3 -11   -0.89    3.45   0
  -9  -3  11   -0.13    3.21   0
   9  -3 -11    1.38    4.17   0
  -9   3  11   -2.00    3.46   0
   8  -3 -11   86.75    4.44   0
  -8  -3  11   95.48    3.98   0
   8  -3 -11   91.42    5.35   0
  -8   3  11   96.10    4.51   0
  -7   3  11   38.43    3.81   0
   7  -3 -11   44.73    4.81   0
   7  -3 -11   40.43    3.69   0
  -7  -3  11   43.66    3.54   0
  -6  -3  11   20.37    3.24   0
   6  -3 -11   12.72    3.55   0
   6  -3 -11   15.23    4.34   0
  -6   3  11   16.64    3.93   0
  -5  -3  11  168.97    4.47   0
   5  -3 -11  171.41    4.83   0
   5  -3 -11  159.86    5.10   0
  -5   3  11  167.02    5.07   0
   4  -3 -11   51.95    4.33   0
   4  -3 -11   54.14    4.21   0
  -4  -3  11   53.33    3.29   0
  -4   3  11   47.88    4.37   0
  -3   3  11    0.56    3.53   0
   3  -3 -11   -0.18    3.72   0
  -3  -3  11    0.68    3.17   0
  -3   3  11    1.04    4.44   0
  -3  -3  11    1.12    6.10   0
   3  -3 -11   -0.18    3.71   0
  -2  -3  11  440.51    6.79   0
   2  -3 -11  479.58   10.36   0
  -2   3  11  457.09   10.21   0
   2  -3 -11  460.51    6.95   0
  -2   3  11  434.19    7.02   0
  -1   3  11 1214.50   10.42   0
  -1  -3  11 1239.98   10.12   0
   1  -3 -11 1306.13   20.81   0
   1   3 -11 1280.06   10.51   0
   1  -3 -11 1275.45   10.56   0
  -1   3  11 1281.04   20.82   0
   0  -3 -11  126.18   10.98   0
   0  -3 -11  121.45    4.46   0
   0   3 -11  116.52    4.22   0
   0   3  11  113.72    4.63   0
   0  -3 -11  117.00   10.00   0
   0  -3  11  117.92    4.72   0
  -1  -3 -11  476.31   13.22   0
  -1   3 -11  447.22    6.66   0
   1  -3  11  456.67    6.71   0
   1   3  11  447.92    6.99   0
  -1  -3 -11  462.01   12.81   0
  -2   3 -11  259.35    5.28   0
   2  -3  11  248.44    5.08   0
   2   3  11  253.68    5.59   0
  -2  -3 -11  275.61    8.15   0
   3  -3  11  680.20    7.33   0
  -3   3 -11  682.41    7.39   0
   3   3  11  714.74    8.22   0
  -4  -3 -11   41.27    4.11   0
  -4   3 -11   46.66    3.26   0
   4  -3  11   41.94    3.23   0
   4   3  11   40.58    4.55   0
  -5   3 -11   12.47    2.97   0
  -5  -3 -11   11.25    3.20   0
   5  -3  11   14.86    2.92   0
   5   3  11   13.64    3.41   0
  -6   3 -11    6.00    3.08   0
  -6  -3 -11    8.71    4.12   0
   6  -3  11    4.53    2.99   0
   6   3  11   10.48    3.52   0
  -7   3 -11   21.87    3.31   0
  -7  -3 -11   26.14    3.77   0
   7  -3  11   22.25    3.48   0
   7   3  11   25.66    3.89   0
  -8   3 -11   64.28    3.64   0
   8  -3  11   62.81    3.66   0
  -8  -3 -11   63.94    4.21   0
   8   3  11   60.89    4.49   0
  -9   3 -11    2.42    3.20   0
   9  -3  11   -0.41    3.13   0
  -9  -3 -11    2.96    4.40   0
   9   3  11    3.38    4.04   0
  10   3  11   85.59    5.00   0
 -10   3 -11  113.96    4.43   0
  10  -3  11   90.25    4.39   0
 -10  -3 -11  101.14    4.79   0
 -11   3 -11    0.76    3.98   0
  11  -3  11    0.47    3.80   0
  11   3  11   -0.77    4.96   0
 -11  -3 -11    0.26    4.27   0
  12  -3  11    0.04    4.19   0
 -11  -4  11   16.71    3.67   0
  11  -4 -11   -2.22    4.53   0
  11  -4 -11    3.31    5.22   0
 -11   4  11   17.32    4.62   0
 -10  -4  11   27.21    3.70   0
  10  -4 -11   19.41    4.71   0
  10  -4 -11   24.01    4.19   0
 -10   4  11   33.60    4.33   0
  -9  -4  11   19.01    3.49   0
   9  -4 -11   20.77    3.95   0
   9  -4 -11   18.56    4.67   0
  -9   4  11   19.79    4.41   0
  -8  -4  11   12.43    3.07   0
   8  -4 -11   12.93    4.02   0
   8  -4 -11   14.51    4.51   0
  -8   4  11   19.12    3.68   0
  -7  -4  11    9.67    3.05   0
   7  -4 -11   10.77    4.07   0
   7  -4 -11   14.50    4.08   0
  -7   4  11   11.30    3.63   0
  -6  -4  11  145.51    4.05   0
  -6   4  11  148.53    5.35   0
   6  -4 -11  141.06    4.71   0
   6  -4 -11  145.52    5.00   0
   5  -4 -11  269.50    5.68   0
   5  -4 -11  254.55    5.45   0
  -5  -4  11  276.69    4.96   0
  -5  -4  11  272.03    5.02   0
  -5   4  11  274.71    5.76   0
  -4   4  11  169.77    5.04   0
   4  -4 -11  167.82    5.50   0
  -4  -4  11  168.53    4.20   0
   4  -4 -11  185.08    5.30   0
   3  -4 -11  124.78    5.26   0
  -3  -4  11  120.01    3.88   0
  -3   4  11  129.45    5.32   0
   3  -4 -11  134.92    4.67   0
   2  -4 -11   11.36    3.43   0
  -2   4  11   18.71    4.22   0
  -2   4  11   15.32    4.46   0
  -2  -4  11   14.60    2.93   0
   2  -4 -11   19.43    4.24   0
  -1  -4  11   65.33    3.40   0
   1   4 -11   63.79    3.34   0
   1  -4 -11   67.84    3.72   0
  -1   4  11   72.60    5.39   0
   1  -4 -11   71.40    5.37   0
  -1   4  11   68.68    4.23   0
   0   4  11    5.67    3.49   0
   0  -4 -11    3.38    4.31   0
   0   4 -11    3.66    2.97   0
   0  -4 -11    2.64    3.17   0
   0  -4  11    3.91    2.86   0
  -1  -4 -11  167.23    7.46   0
  -1  -4 -11  148.86    6.95   0
   1  -4  11  141.85    4.08   0
   1   4  11  150.46    4.89   0
  -1   4 -11  149.56    4.15   0
  -2  -4 -11  130.48    5.92   0
  -2   4 -11  133.31    3.94   0
   2  -4  11  124.75    3.78   0
   2   4  11  132.84    4.65   0
  -2  -4 -11  128.71    6.05   0
   3   4  11   65.02    4.74   0
   3  -4  11   67.83    3.41   0
  -3   4 -11   70.20    3.44   0
   4  -4  11    1.54    2.77   0
  -4   4 -11   -0.55    2.68   0
   4   4  11    4.15    3.71   0
   5  -4  11   54.57    3.54   0
  -5  -4 -11   61.01    3.95   0
  -5   4 -11   56.60    3.40   0
   5   4  11   56.18    4.59   0
  -6  -4 -11    8.10    3.63   0
  -6   4 -11    9.77    3.25   0
   6  -4  11    4.61    2.77   0
   6   4  11   10.23    4.28   0
   7  -4  11  102.52    3.99   0
  -7   4 -11   99.58    4.00   0
  -7  -4 -11  118.48    4.84   0
   8  -4  11   10.81    3.27   0
  -8   4 -11   10.74    3.35   0
  -8  -4 -11   14.62    3.71   0
  -9   4 -11   21.09    3.43   0
   9   4  11   18.42    4.14   0
   9  -4  11   25.70    3.64   0
  -9  -4 -11   25.15    4.04   0
 -10   4 -11   -0.96    3.79   0
  10  -4  11    3.47    3.71   0
 -10  -4 -11    0.84    4.22   0
  10   4  11    3.39    4.21   0
 -11   4 -11    0.28    3.36   0
  11  -4  11    2.60    3.74   0
 -11  -4 -11    0.83    4.89   0
 -11   5  11    0.28    4.52   0
  11  -5 -11    4.64    4.93   0
 -11  -5  11    9.48    3.92   0
 -10   5  11    4.16    4.38   0
 -10  -5  11    7.56    3.51   0
  10  -5 -11    3.58    4.84   0
  10  -5 -11    7.42    4.73   0
  -9   5  11    0.12    3.66   0
  -9  -5  11   -1.49    3.56   0
   9  -5 -11   -3.34    4.11   0
   9  -5 -11    0.79    4.29   0
  -8  -5  11    4.26    3.42   0
  -8   5  11    2.31    3.72   0
   8  -5 -11    4.86    3.64   0
   8  -5 -11    3.73    4.19   0
  -7  -5  11   38.38    3.21   0
  -7   5  11   36.71    3.92   0
   7  -5 -11   40.62    4.32   0
   7  -5 -11   42.81    4.48   0
  -6  -5  11  120.97    4.02   0
  -6   5  11  134.16    5.07   0
  -6  -5  11  123.50    4.03   0
   6  -5 -11  136.69    4.92   0
   6  -5 -11  132.63    5.03   0
  -5  -5  11   21.61    2.98   0
  -5   5  11   26.20    3.51   0
   5  -5 -11   24.05    3.95   0
   5  -5 -11   25.17    3.76   0
  -5  -5  11   24.15    3.10   0
  -4  -5  11   -2.95    3.12   0
  -4   5  11    1.50    3.16   0
   4  -5 -11    9.09    3.86   0
   4  -5 -11    0.51    3.67   0
  -3  -5  11   79.21    3.59   0
   3  -5 -11   79.04    4.48   0
   3  -5 -11   84.34    4.54   0
  -3  -5  11   69.00    7.94   0
  -3   5  11   71.81    4.60   0
  -2  -5  11  200.07    4.39   0
   2  -5 -11  205.80    4.90   0
  -2   5  11  202.87    6.25   0
   2  -5 -11  209.09    6.15   0
   1  -5 -11  386.06    8.14   0
  -1  -5  11  391.38    5.51   0
  -1   5  11  393.03    8.30   0
   1   5 -11  377.54    5.44   0
  -1   5  11  404.13    6.70   0
   1  -5 -11  398.40    6.04   0
   0  -5 -11   10.24    4.13   0
   0   5  11   10.53    4.01   0
   0   5 -11    8.10    2.80   0
   0  -5 -11    6.89    3.10   0
   0  -5  11   13.50    2.77   0
   1  -5  11   76.81    3.37   0
   1   5  11   74.31    4.64   0
  -1  -5 -11   76.54    3.93   0
  -1  -5 -11   77.14    4.87   0
  -1  -5 -11   78.06    5.00   0
  -1   5 -11   78.69    3.35   0
  -2   5 -11   10.32    2.79   0
  -2  -5 -11   12.83    3.98   0
   2  -5  11   13.79    2.71   0
   2   5  11   13.25    4.10   0
   3   5  11    1.09    3.91   0
  -3  -5 -11    1.46    3.75   0
  -3   5 -11    3.08    2.88   0
   3  -5  11   -0.31    2.89   0
   4  -5  11  124.32    3.89   0
   4   5  11  118.65    5.41   0
  -4   5 -11  133.84    3.98   0
  -5  -5 -11   90.81    4.98   0
   5   5  11   72.35    4.40   0
  -5   5 -11   68.62    3.30   0
   5  -5  11   75.13    3.42   0
   6   5  11   -1.98    4.16   0
  -6  -5 -11   -0.78    3.47   0
  -6   5 -11   -3.79    2.87   0
   6  -5  11   -2.28    2.48   0
  -7  -5 -11   36.27    3.95   0
  -7   5 -11   31.90    3.35   0
   7   5  11   32.96    4.18   0
   7  -5  11   26.82    3.29   0
  -8  -5 -11   18.16    4.26   0
  -8   5 -11   13.74    3.36   0
   8  -5  11   16.01    3.59   0
   8   5  11   12.81    4.64   0
  -9  -5 -11   -4.13    3.92   0
  -9   5 -11   -3.09    3.34   0
   9  -5  11    0.43    3.13   0
   9   5  11   -1.68    4.44   0
 -10   5 -11    3.96    3.52   0
  10  -5  11   -3.87    3.70   0
 -10  -5 -11   -0.93    4.81   0
  10   5  11   -0.10    5.39   0
 -10  -6  11    9.34    4.10   0
  10  -6 -11    5.65    4.89   0
 -10   6  11    9.02    4.59   0
  -9  -6  11   11.64    3.74   0
  -9   6  11   -0.78    3.90   0
   9  -6 -11    6.22    3.88   0
   9  -6 -11    9.21    4.46   0
  -9  -6  11   18.09    3.71   0
  -8  -6  11   18.11    3.76   0
   8  -6 -11   18.00    4.34   0
  -8   6  11   22.78    4.04   0
  -8  -6  11   16.06    3.82   0
  -7  -6  11    3.61    3.03   0
   7  -6 -11    0.52    4.51   0
  -7   6  11    3.55    4.31   0
  -7  -6  11    2.79    3.38   0
  -6   6  11   72.63    4.58   0
   6  -6 -11   73.28    4.43   0
   6  -6 -11   87.41    4.23   0
  -6  -6  11   79.58    4.06   0
  -6  -6  11   64.68    3.87   0
   5  -6 -11  299.20    5.91   0
   5  -6 -11  299.06    5.49   0
  -5   6  11  287.89    6.31   0
  -5  -6  11  291.34    5.16   0
  -5  -6  11  283.19    5.12   0
  -4  -6  11  174.25    4.18   0
   4  -6 -11  196.30    5.33   0
   4  -6 -11  234.47    5.80   0
  -4   6  11  195.12    5.79   0
  -3   6  11   24.31    4.33   0
  -3  -6  11   27.29    3.16   0
  -3  -6  11   22.13    6.45   0
   3  -6 -11   24.74    4.12   0
   3  -6 -11   20.60    3.96   0
  -2   6  11  335.78    7.64   0
  -2  -6  11  336.22    5.31   0
   2  -6 -11  344.24    5.85   0
   2  -6 -11  349.84    7.31   0
  -2  -6  11  312.71    9.48   0
   1  -6 -11    4.68    4.26   0
   1   6 -11    7.44    2.97   0
  -1   6  11    6.64    4.67   0
  -1  -6  11    3.02    3.04   0
   1  -6 -11    7.82    3.52   0
   0   6 -11   69.53    3.57   0
   0  -6 -11   78.04    5.24   0
   0   6  11   72.36    5.91   0
   0  -6  11   71.43    3.55   0
   0  -6 -11   80.68    4.35   0
  -1   6 -11   -2.12    2.98   0
   1  -6  11   -0.10    2.93   0
  -1  -6 -11   -0.58    4.11   0
   1   6  11   -4.30    4.93   0
  -1  -6 -11   -1.07    3.69   0
  -2   6 -11  161.92    4.20   0
  -2  -6 -11  170.78    6.34   0
   2  -6  11  178.53    4.27   0
   2   6  11  177.28    6.40   0
   3  -6  11    7.53    2.89   0
  -3   6 -11   10.48    2.96   0
   3   6  11    9.89    5.16   0
  -3  -6 -11   10.57    3.96   0
   4  -6  11   14.56    2.70   0
  -4  -6 -11   18.23    3.98   0
  -4   6 -11   19.56    2.99   0
  -4  -6 -11   17.74    3.93   0
   4   6  11   11.82    4.12   0
  -5  -6 -11   47.09    4.26   0
  -5  -6 -11   47.05    4.41   0
   5   6  11   48.19    4.96   0
  -5   6 -11   48.13    3.40   0
   5  -6  11   48.48    3.53   0
  -6   6 -11   14.12    3.50   0
  -6  -6 -11   15.07    3.88   0
   6   6  11   16.89    4.93   0
   6  -6  11   11.19    3.07   0
   7   6  11   -2.06    4.29   0
  -7  -6 -11    1.51    4.69   0
   7  -6  11    2.22    3.29   0
  -7   6 -11    6.21    3.17   0
  -8  -6 -11    2.45    4.33   0
  -8   6 -11   -1.89    3.08   0
   8   6  11   -1.46    5.31   0
   8  -6  11    1.94    3.25   0
  -9   6 -11   10.32    3.62   0
  -9  -6 -11   13.12    4.20   0
   9  -6  11    7.45    3.64   0
   9   6  11    8.87    5.23   0
 -10   6 -11    5.54    4.22   0
 -10  -6 -11    2.54    5.35   0
  10  -6  11    0.67    3.92   0
  10   6  11    1.52    5.94   0
  -9  -7  11    7.88    3.98   0
  -9   7  11   -2.34    4.28   0
   9  -7 -11   -1.94    4.24   0
  -9  -7  11    5.49    4.10   0
  -8  -7  11   12.62    4.18   0
   8  -7 -11   14.49    4.00   0
  -8   7  11    8.66    4.31   0
  -8  -7  11   22.60    4.29   0
  -7  -7  11    0.61    3.58   0
   7  -7 -11    1.21    4.41   0
  -7   7  11   -1.57    3.99   0
  -7  -7  11    0.12    3.22   0
  -6  -7  11   52.69    3.78   0
   6  -7 -11   57.47    4.40   0
   6  -7 -11   47.55    4.23   0
  -6   7  11   29.80    5.14   0
  -6  -7  11   44.69    3.77   0
  -5  -7  11   11.16    3.35   0
  -5   7  11   10.44    4.11   0
  -5  -7  11    9.60    3.23   0
   5  -7 -11   11.86    3.75   0
   5  -7 -11    7.03    4.07   0
  -4   7  11    9.71    3.87   0
  -4  -7  11    7.37    3.23   0
   4  -7 -11    7.63    3.62   0
   4  -7 -11    9.75    4.23   0
  -3  -7  11  260.40    8.92   0
  -3  -7  11  265.96    5.05   0
   3  -7 -11  264.24    5.56   0
   3  -7 -11  261.17    6.18   0
  -3   7  11  263.40    6.31   0
  -2  -7  11   58.22    3.64   0
  -2  -7  11   45.49    5.97   0
   2  -7 -11   63.69    4.37   0
   2  -7 -11   49.98    4.00   0
  -2   7  11   53.94    4.74   0
   1  -7 -11   14.21    3.93   0
   1  -7 -11   12.34    4.12   0
  -1  -7  11   13.27    5.45   0
  -1  -7  11   18.18    3.30   0
   0  -7 -11   99.32    5.25   0
   0  -7  11  111.91    3.99   0
   0   7 -11   99.68    4.03   0
   0  -7 -11  109.54    4.68   0
   1  -7  11   13.69    3.06   0
  -1   7 -11    7.63    3.31   0
  -1  -7 -11    9.73    3.87   0
  -1  -7 -11   13.37    3.79   0
   1   7  11    5.62    4.84   0
  -2   7 -11   91.56    3.84   0
   2  -7  11   90.96    3.85   0
   2   7  11   92.47    6.00   0
  -2  -7 -11  104.11    4.97   0
   3  -7  11  121.05    4.05   0
  -3  -7 -11  117.66    5.19   0
   3   7  11  117.61    5.43   0
  -3   7 -11  120.87    4.07   0
   4  -7  11   46.46    3.59   0
  -4  -7 -11   47.33    4.94   0
  -4   7 -11   56.19    3.65   0
   4   7  11   36.96    4.78   0
  -4  -7 -11   44.99    4.12   0
  -5  -7 -11    4.31    4.49   0
  -5  -7 -11    1.08    3.94   0
  -5   7 -11    6.27    3.24   0
   5  -7  11    1.41    3.21   0
   5   7  11    3.64    4.48   0
  -6   7 -11   22.02    3.43   0
  -6  -7 -11   23.49    4.92   0
  -6  -7 -11   23.76    5.10   0
   6   7  11   20.58    5.16   0
   6  -7  11   22.17    3.32   0
  -7  -7 -11    2.55    4.75   0
   7  -7  11   -0.22    3.62   0
  -7  -7 -11   -1.50    4.98   0
   7   7  11    4.35    5.47   0
  -7   7 -11    4.33    3.64   0
  -8  -7 -11   -0.06    4.70   0
  -8  -7 -11   -0.09    4.60   0
   8  -7  11   -5.71    3.76   0
  -8   7 -11   -0.14    3.74   0
   8   7  11    2.35    5.11   0
  -9  -7 -11    6.01    5.20   0
   9   7  11    6.83    6.11   0
  -9   7 -11   14.86    4.10   0
   9  -7  11   10.59    4.22   0
  -8  -8  11    5.15    4.32   0
   8  -8 -11    0.93    4.19   0
   8  -8 -11    6.36    4.42   0
  -8  -8  11    4.43    4.34   0
  -8   8  11    1.38    4.61   0
  -7   8  11    1.74    4.33   0
  -7  -8  11   -0.37    3.94   0
  -7  -8  11    1.26    3.99   0
   7  -8 -11    3.68    4.74   0
   7  -8 -11   -1.72    4.38   0
  -6  -8  11   -0.92    4.02   0
   6  -8 -11   -3.41    4.35   0
  -6   8  11    1.77    5.12   0
   6  -8 -11   -0.28    4.07   0
  -6  -8  11   -1.27    3.63   0
  -5  -8  11   24.07    3.76   0
  -5   8  11   18.78    5.06   0
   5  -8 -11   20.61    4.80   0
   5  -8 -11   11.11    5.05   0
  -5  -8  11   19.44    3.86   0
  -4  -8  11   14.83    3.64   0
   4  -8 -11    7.96    3.99   0
   4  -8 -11    8.16    4.29   0
  -4   8  11    3.95    4.57   0
  -3  -8  11   23.35    3.51   0
  -3   8  11   13.84    3.86   0
  -3  -8  11    8.92    5.30   0
   3  -8 -11    9.35    3.81   0
   3  -8 -11   11.67    4.43   0
  -2   8  11    2.52    4.20   0
  -2  -8  11   -0.35    4.95   0
   2  -8 -11   -0.24    4.09   0
   2  -8 -11   -0.52    4.40   0
  -2  -8  11   -0.92    3.26   0
   1  -8 -11   -0.98    4.22   0
  -1  -8  11    5.76    4.74   0
  -1  -8  11   -4.51    3.20   0
   1  -8 -11    0.24    3.46   0
   0  -8  11   46.74    5.84   0
   0  -8 -11   49.93    4.57   0
   0  -8  11   50.29    3.67   0
   0   8 -11   53.31    3.76   0
   0  -8 -11   53.42    4.53   0
  -1   8 -11   18.07    3.60   0
   1  -8  11   12.11    3.28   0
  -1  -8 -11   16.08    4.18   0
  -1  -8 -11   24.57    4.14   0
  -2  -8 -11   -0.22    4.39   0
   2  -8  11    1.25    3.16   0
  -2   8 -11    0.70    3.41   0
  -3  -8 -11    2.45    4.42   0
  -3  -8 -11   -0.46    4.10   0
   3  -8  11    0.03    3.48   0
  -3   8 -11    0.86    3.51   0
   3   8  11   -1.14    4.55   0
  -4  -8 -11   43.43    5.15   0
  -4  -8 -11   48.00    4.92   0
   4   8  11   45.64    5.72   0
   4  -8  11   53.73    3.98   0
  -4   8 -11   44.04    3.85   0
  -5  -8 -11   44.90    5.20   0
  -5  -8 -11   52.95    5.37   0
  -5   8 -11   51.29    4.12   0
   5   8  11   32.47    5.84   0
   5  -8  11   44.91    4.19   0
  -6  -8 -11    0.22    5.75   0
  -6  -8 -11   -2.46    5.23   0
  -6   8 -11   -1.27    3.80   0
   6   8  11   -0.87    5.93   0
   6  -8  11   -3.29    3.93   0
  -7   8 -11   11.94    4.12   0
  -7  -8 -11    5.19    5.54   0
   7   8  11   12.72    5.76   0
  -7  -8 -11    6.00    5.31   0
   7  -8  11    6.95    4.11   0
  -8  -8 -11   -2.21    5.40   0
  -6  -9  11   -1.05    4.30   0
  -6  -9  11    2.63    3.70   0
   6  -9 -11   -0.20    4.60   0
  -6   9  11   -0.09    5.12   0
   6  -9 -11   -2.57    4.86   0
  -5  -9  11    0.89    3.92   0
  -5  -9  11   -3.43    4.00   0
   5  -9 -11    4.25    4.68   0
   5  -9 -11    0.11    4.50   0
  -5   9  11    1.31    5.00   0
  -4  -9  11   12.10    4.16   0
  -4   9  11   12.85    5.14   0
   4  -9 -11   19.41    5.38   0
   4  -9 -11   26.26    4.67   0
   3  -9 -11   44.33    4.69   0
  -3  -9  11   47.18    4.34   0
  -3   9  11   43.25    5.22   0
   3  -9 -11   48.44    5.24   0
  -3  -9  11   50.36    6.48   0
  -2  -9  11    4.83    4.79   0
   2  -9 -11    5.95    4.38   0
  -2  -9  11    2.33    3.85   0
   2  -9 -11    6.58    3.89   0
   1  -9 -11    3.79    4.37   0
   1  -9 -11    6.34    4.14   0
  -1  -9  11    2.34    3.61   0
  -1  -9  11    2.87    5.30   0
   0  -9 -11   43.76    5.12   0
   0  -9 -11   42.94    4.66   0
   0  -9  11   43.42    4.16   0
   0  -9  11   25.70    5.29   0
  -1  -9 -11   12.80    4.59   0
   1  -9  11   12.20    3.98   0
   1  -9  11    5.31    5.97   0
  -1   9 -11   -0.32    3.96   0
  -1  -9 -11    9.39    4.30   0
   2  -9  11   -3.28    4.74   0
   2  -9  11    1.60    3.87   0
  -2  -9 -11    3.50    4.63   0
  -2   9 -11    3.50    3.82   0
  -3  -9 -11   35.95    5.57   0
   3  -9  11   36.76    4.18   0
  -3   9 -11   38.22    4.27   0
  -3  -9 -11   33.11    5.00   0
  -4   9 -11   -0.86    3.88   0
   4  -9  11    0.41    3.92   0
  -4  -9 -11    0.78    5.38   0
  -4  -9 -11   -2.39    5.28   0
  -5  -9 -11    8.87    5.20   0
  -5  -9 -11    0.54    4.48   0
  -5   9 -11   -2.33    3.86   0
   5  -9  11    6.14    3.91   0
  -6  -9 -11   -4.74    6.05   0
   6   9  11   27.89    6.81   0
  -6   9 -11   31.36    4.59   0
  -6  -9 -11    3.83    4.90   0
   6  -9  11   21.29    4.62   0
   3 -10 -11    6.56    5.00   0
   3 -10 -11    4.02    5.10   0
  -3 -10  11    5.78    4.25   0
  -3  10  11   -5.23    5.41   0
  -3 -10  11    3.67    6.10   0
  -2 -10  11   -4.42    5.42   0
  -2 -10  11    9.67    4.18   0
   2 -10 -11    3.02    4.53   0
   2 -10 -11    1.99    4.82   0
  -1 -10  11   -1.16    5.53   0
  -1 -10  11    2.94    3.77   0
   1 -10 -11    1.10    4.60   0
   1 -10 -11    1.06    4.26   0
   0 -10 -11   12.71    5.24   0
   0 -10  11    5.40    4.13   0
   0 -10  11   13.36    5.54   0
   0 -10 -11    3.92    4.49   0
  -1 -10 -11   -2.85    4.62   0
  -1 -10 -11   -0.04    4.28   0
  -1  10 -11    6.86    4.18   0
   1 -10  11   11.27    4.27   0
   1 -10  11    4.81    6.16   0
   2 -10  11   10.08    4.62   0
  -2  10 -11   -2.92    4.50   0
  -2 -10 -11   10.96    5.66   0
   2 -10  11    0.59    5.22   0
  -2 -10 -11    0.85    5.40   0
  -3 -10 -11    2.51    5.05   0
   3 -10  11    7.08    4.32   0
   3 -10  11   -1.84    5.49   0
 -12   0  12   21.65    4.46   0
  12   0 -12    8.27    4.12   0
 -10   0  12  106.51    4.57   0
  10   0 -12  103.11    4.70   0
  -8   0  12    2.78    3.79   0
   8   0 -12    7.17    3.66   0
  -6   0  12  713.85    7.94   0
   6   0 -12  712.38    8.00   0
  -4   0  12 2033.54   14.07   0
  -4   0  12 1823.79   15.58   0
   4   0 -12 1940.73   16.03   0
  -2   0  12    5.56    3.25   0
  -2   0  12    4.99    3.43   0
   0   0  12    0.77    3.87   0
   2   0  12  120.61    5.28   0
  -4   0 -12  739.92    8.83   0
   4   0  12  751.73    8.69   0
   6   0  12   21.84    3.32   0
  -6   0 -12   11.69    3.79   0
   8   0  12   66.99    4.38   0
  -8   0 -12   74.88    4.20   0
  10   0  12    2.48    3.82   0
 -10   0 -12    5.81    3.73   0
  12   0  12   -1.21    3.98   0
 -12   0 -12   -0.46    4.03   0
  12   1 -12    1.90    4.10   0
 -12  -1  12    7.64    4.00   0
  12  -1 -12    2.73    5.51   0
 -12   1  12   -1.34    4.23   0
  12   1 -12   11.06    5.45   0
  12  -1 -12    2.89    4.33   0
  11  -1 -12  158.58    5.44   0
  11   1 -12  127.95    4.86   0
  11  -1 -12  176.74    7.31   0
  11   1 -12  160.58    6.93   0
 -11   1  12  183.13    5.23   0
 -11  -1  12  172.53    5.12   0
  10  -1 -12   42.59    4.40   0
 -10  -1  12   52.34    3.83   0
 -10   1  12   53.74    4.45   0
  10  -1 -12   49.69    4.47   0
  10   1 -12   47.41    5.50   0
  10   1 -12   44.45    3.89   0
   9  -1 -12  249.88    5.78   0
  -9  -1  12  262.72    5.34   0
  -9   1  12  276.79    5.59   0
   9  -1 -12  245.52    6.46   0
   9   1 -12  249.01    7.58   0
   9   1 -12  232.43    5.47   0
   8  -1 -12  124.45    4.69   0
  -8  -1  12  125.05    4.50   0
  -8   1  12  119.36    4.56   0
   8  -1 -12  122.10    5.74   0
   8   1 -12  112.47    6.45   0
   8   1 -12  113.19    4.54   0
   7  -1 -12  256.59    5.68   0
  -7  -1  12  247.47    5.43   0
  -7   1  12  252.23    5.42   0
   7  -1 -12  244.79    6.25   0
   7   1 -12  237.05    7.46   0
   6  -1 -12   43.25    3.93   0
  -6  -1  12   34.21    3.82   0
  -6   1  12   36.58    4.24   0
   6  -1 -12   35.79    4.57   0
   6   1 -12   37.20    5.06   0
   5  -1 -12  128.83    4.83   0
  -5  -1  12  119.33    4.70   0
  -5   1  12  126.06    4.68   0
   5  -1 -12  125.11    5.38   0
   5   1 -12  124.06    6.24   0
   4  -1 -12  151.01    5.61   0
  -4  -1  12  145.24    4.72   0
  -4   1  12  138.58    5.53   0
  -4  -1  12  139.91    7.28   0
   4  -1 -12  150.92    5.35   0
  -3   1  12  216.35    6.60   0
  -3   1  12  205.56    6.19   0
  -3  -1  12  208.16    7.14   0
   3  -1 -12  230.71    6.10   0
   3  -1 -12  230.91    6.96   0
  -3  -1  12  216.72    5.62   0
  -2   1  12  155.48    6.78   0
  -2   1  12  151.47    5.28   0
  -2  -1  12  143.65    5.52   0
   2  -1 -12  161.89    5.35   0
  -2  -1  12  151.78    5.54   0
  -1   1  12  460.84   12.79   0
  -1  -1  12  424.27    7.94   0
  -1   1  12  432.49   12.45   0
  -1   1  12  436.67    7.24   0
   0   1  12   90.09    8.43   0
   0   1 -12   92.16    5.22   0
   0   1  12   82.72    4.40   0
   0  -1  12   86.38    4.36   0
  -1   1 -12  381.56    7.48   0
   1  -1  12  409.66    7.62   0
   1   1  12  412.66   11.40   0
  -1  -1 -12  404.90   11.26   0
   2  -1  12  700.99    8.88   0
   2   1  12  720.89   11.66   0
  -2   1 -12  706.99    9.18   0
   3  -1  12  648.62    8.15   0
   3   1  12  641.25    9.87   0
  -3   1 -12  652.96    8.46   0
  -4  -1 -12   27.58    3.47   0
  -4   1 -12   26.74    3.34   0
   4   1  12   25.41    4.23   0
   4  -1  12   22.13    3.26   0
  -5   1 -12  158.43    4.44   0
   5   1  12  154.63    4.97   0
   5  -1  12  154.40    4.51   0
  -5  -1 -12  145.31    5.15   0
  -6   1 -12   20.79    3.31   0
   6   1  12   21.45    3.96   0
   6  -1  12   18.99    3.26   0
  -6  -1 -12   18.31    3.50   0
   7   1  12  330.85    5.99   0
   7  -1  12  317.11    5.68   0
  -7  -1 -12  329.69    6.19   0
  -7   1 -12  327.06    5.63   0
   8   1  12    7.09    3.55   0
   8  -1  12    7.54    3.70   0
  -8  -1 -12    6.09    3.80   0
  -8   1 -12    6.84    3.36   0
   9  -1  12   30.73    3.80   0
  -9  -1 -12   22.44    4.01   0
   9   1  12   33.17    3.95   0
  -9   1 -12   32.35    3.95   0
  10   1  12    2.81    4.07   0
  10  -1  12    4.17    3.84   0
 -10  -1 -12    4.14    3.84   0
 -10   1 -12    3.42    3.78   0
 -11   1 -12   13.64    3.87   0
 -11  -1 -12    1.48    4.16   0
  11   1  12   -2.03    4.16   0
  11  -1  12    5.67    3.88   0
 -12   1 -12    3.99    3.81   0
  12  -1  12    1.41    4.38   0
 -12  -1 -12    7.52    4.18   0
  12   1  12    8.48    4.29   0
  12  -2 -12   20.85    4.67   0
  12   2 -12   28.27    7.56   0
 -12  -2  12   18.31    4.27   0
  12  -2 -12   25.77    5.44   0
 -12   2  12   26.16    4.57   0
 -11  -2  12   47.34    3.92   0
  11  -2 -12   22.38    4.22   0
  11  -2 -12   45.23    5.44   0
 -11   2  12   55.51    4.81   0
  11   2 -12   42.30    7.10   0
  10  -2 -12   70.88    4.74   0
 -10  -2  12   70.82    4.00   0
  10  -2 -12   61.10    4.97   0
 -10   2  12   64.25    4.61   0
  10   2 -12   73.18    7.18   0
   9  -2 -12    4.25    3.63   0
   9   2 -12    3.53    5.89   0
  -9  -2  12    3.57    2.94   0
   9  -2 -12    3.63    4.72   0
  -9   2  12    4.10    3.65   0
   8  -2 -12  610.88    8.03   0
   8  -2 -12  645.59    8.46   0
  -8  -2  12  627.77    7.15   0
  -8   2  12  651.80    7.71   0
   8   2 -12  638.96   13.92   0
   7  -2 -12  201.61    5.09   0
  -7  -2  12  195.45    4.62   0
   7  -2 -12  197.10    5.80   0
  -7   2  12  203.47    5.46   0
   7   2 -12  202.19    9.29   0
  -6  -2  12   -0.60    2.97   0
   6  -2 -12    0.99    3.35   0
   6  -2 -12    0.71    4.29   0
  -6   2  12    0.96    4.11   0
   5  -2 -12  192.96    5.25   0
  -5   2  12  201.29    5.20   0
   5  -2 -12  199.11    5.87   0
  -5  -2  12  198.08    4.64   0
   4  -2 -12   69.55    4.69   0
  -4   2  12   62.50    4.53   0
   4  -2 -12   66.01    4.53   0
  -4  -2  12   61.31    3.74   0
   3  -2 -12   16.26    4.23   0
  -3  -2  12   13.23    3.36   0
  -3   2  12    8.92    4.26   0
   3  -2 -12   14.64    3.77   0
  -3  -2  12   12.14    5.19   0
  -3   2  12   10.83    4.03   0
   2  -2 -12  230.50    8.64   0
  -2  -2  12  215.54    5.39   0
   2  -2 -12  226.57    5.84   0
  -2   2  12  228.37    8.34   0
  -2   2  12  210.67    5.79   0
  -1   2  12  236.11    5.64   0
  -1  -2  12  247.56    6.01   0
   1   2 -12  250.63    6.15   0
   1  -2 -12  262.36    5.73   0
  -1   2  12  235.58   17.64   0
   0   2 -12   36.02    3.92   0
   0   2  12   34.44    3.71   0
   0  -2  12   39.08    3.93   0
  -1  -2 -12  150.10   10.83   0
  -1   2 -12  150.32    4.89   0
   1  -2  12  146.67    4.79   0
   1   2  12  140.00    4.70   0
   2   2  12 2301.09   22.48   0
   2  -2  12 2184.25   13.64   0
  -2  -2 -12 2296.85   21.85   0
  -2   2 -12 2243.61   13.66   0
   3   2  12  433.20    8.78   0
  -3   2 -12  409.65    6.23   0
   3  -2  12  427.77    6.34   0
   4   2  12    9.92    3.31   0
  -4  -2 -12   13.52    3.91   0
  -4   2 -12    8.21    3.02   0
   4  -2  12   12.73    3.00   0
   5   2  12  122.42    4.94   0
  -5   2 -12  128.88    3.98   0
  -5  -2 -12  141.11    4.65   0
   5  -2  12  131.68    4.23   0
   6   2  12  176.48    5.13   0
  -6   2 -12  182.93    4.40   0
   6  -2  12  179.73    4.43   0
  -6  -2 -12  187.17    5.14   0
   7   2  12   21.07    3.65   0
  -7   2 -12   18.83    3.32   0
   7  -2  12   20.15    3.31   0
  -7  -2 -12   19.64    3.60   0
  -8   2 -12   13.51    3.45   0
   8   2  12    6.88    4.33   0
   8  -2  12    9.10    3.49   0
  -8  -2 -12   17.56    3.62   0
   9   2  12   58.38    4.28   0
  -9   2 -12   66.76    3.80   0
   9  -2  12   62.03    3.96   0
  -9  -2 -12   63.89    4.72   0
  10   2  12    3.53    4.20   0
 -10   2 -12   -0.58    3.70   0
  10  -2  12    8.66    3.40   0
 -10  -2 -12    3.74    4.11   0
  11   2  12    5.10    4.29   0
 -11   2 -12    3.40    4.21   0
  11  -2  12    5.61    4.10   0
 -11  -2 -12   11.03    4.15   0
  12   2  12   10.75    4.47   0
 -12   2 -12   -1.36    4.28   0
  12  -2  12    2.79    4.13   0
 -12  -2 -12    9.54    4.29   0
  12  -3 -12    7.70    4.41   0
 -12  -3  12    0.67    4.28   0
  12  -3 -12   22.36    5.17   0
 -12   3  12   -0.40    4.45   0
  11  -3 -12   94.30    4.99   0
 -11  -3  12   90.04    4.88   0
  11  -3 -12   95.38    5.18   0
 -11   3  12    3.26    5.27   0
  10  -3 -12    2.83    4.06   0
 -10  -3  12    0.58    3.33   0
 -10   3  12    6.88    4.49   0
  10  -3 -12    4.65    4.30   0
   9  -3 -12   23.60    3.84   0
  -9  -3  12   27.70    3.33   0
   9  -3 -12   22.89    4.38   0
  -9   3  12   21.52    4.30   0
   8  -3 -12    4.24    3.54   0
  -8  -3  12    5.10    3.15   0
  -8   3  12    2.41    3.60   0
   8  -3 -12    1.05    4.15   0
  -7  -3  12   69.73    3.71   0
   7  -3 -12   66.53    4.45   0
   7  -3 -12   81.29    4.92   0
  -7   3  12   70.65    4.08   0
  -6  -3  12   60.91    3.60   0
   6  -3 -12   59.80    4.60   0
   6  -3 -12   55.68    5.13   0
  -6   3  12   63.69    3.99   0
  -5  -3  12   20.07    3.15   0
   5  -3 -12   29.90    3.91   0
   5  -3 -12   27.80    4.02   0
  -5   3  12   24.39    3.25   0
   4  -3 -12   33.92    4.13   0
   4  -3 -12   32.22    4.00   0
  -4  -3  12   31.99    3.35   0
  -4   3  12   34.57    3.60   0
  -4  -3  12   32.02    3.31   0
  -3   3  12   20.94    4.07   0
  -3  -3  12   20.61    3.60   0
   3  -3 -12   26.00    4.08   0
  -3   3  12   17.20    4.39   0
   3  -3 -12   26.15    3.94   0
  -3  -3  12   21.56    5.76   0
  -2  -3  12    2.92    3.19   0
   2  -3 -12    4.09    4.32   0
  -2   3  12    4.76    4.30   0
  -2   3  12    1.49    3.96   0
   2  -3 -12    6.26    3.46   0
   1   3 -12  806.05    8.36   0
   1  -3 -12  871.99   20.06   0
  -1  -3  12  794.09    8.23   0
  -1   3  12  789.96    8.45   0
   1  -3 -12  820.60    8.53   0
  -1   3  12  821.39   20.18   0
   0   3 -12    1.25    3.23   0
   0  -3 -12    0.44    3.13   0
   0   3  12    1.45    3.23   0
   0  -3  12    1.71    3.19   0
   1  -3  12   26.60    3.42   0
  -1  -3 -12   28.93    6.47   0
  -1   3 -12   29.76    3.53   0
  -1  -3 -12   30.65    6.65   0
   1   3  12   27.79    3.89   0
  -2   3 -12   75.13    3.85   0
   2  -3  12   84.87    4.12   0
  -2  -3 -12   83.48    5.88   0
   2   3  12   79.74    4.34   0
   3  -3  12   74.73    3.65   0
  -3   3 -12   67.76    3.62   0
   3   3  12   72.39    4.12   0
   4  -3  12  454.36    6.04   0
  -4   3 -12  464.25    5.91   0
   4   3  12  453.42    8.35   0
  -5   3 -12  101.33    3.75   0
  -5  -3 -12   97.38    4.31   0
   5  -3  12   98.48    3.75   0
   5   3  12   88.69    4.41   0
  -6   3 -12   73.15    3.62   0
  -6  -3 -12   73.06    4.13   0
   6  -3  12   66.36    3.55   0
   6   3  12   79.88    5.07   0
  -7   3 -12   38.11    3.38   0
  -7  -3 -12   41.24    3.91   0
   7  -3  12   35.04    3.40   0
   7   3  12   38.54    3.99   0
  -8   3 -12   -1.07    3.25   0
   8  -3  12    1.25    3.05   0
  -8  -3 -12    0.19    3.68   0
   8   3  12    2.38    3.74   0
  -9   3 -12   26.45    3.23   0
   9  -3  12   32.05    3.51   0
  -9  -3 -12   33.58    4.60   0
   9   3  12   33.44    4.88   0
 -10   3 -12    1.45    3.65   0
  10  -3  12   -0.68    3.56   0
 -10  -3 -12    1.87    4.42   0
  10   3  12    0.92    3.96   0
 -11  -3 -12    2.57    4.40   0
 -11   3 -12    1.45    3.40   0
  11  -3  12   -3.30    3.71   0
  11   3  12    0.09    4.55   0
  11  -4 -12    8.79    4.60   0
 -11  -4  12   17.12    3.96   0
  11  -4 -12   12.22    4.99   0
 -11   4  12    6.26    5.06   0
 -10  -4  12   27.63    3.72   0
  10  -4 -12   32.42    4.76   0
  10  -4 -12   32.04    4.14   0
 -10   4  12   30.58    4.30   0
   9  -4 -12    7.87    3.80   0
  -9   4  12    8.06    3.83   0
  -9  -4  12    5.45    3.29   0
   9  -4 -12    9.43    4.28   0
  -8  -4  12   51.98    3.70   0
   8  -4 -12   53.57    4.39   0
   8  -4 -12   50.48    4.64   0
  -8   4  12   60.26    4.45   0
  -7  -4  12  178.26    4.57   0
   7  -4 -12  185.44    5.50   0
   7  -4 -12  185.48    5.65   0
  -7   4  12  191.04    5.25   0
  -6  -4  12    7.03    3.12   0
  -6   4  12    3.19    3.45   0
   6  -4 -12    1.00    4.12   0
   6  -4 -12    3.51    4.01   0
   5  -4 -12   25.77    3.84   0
   5  -4 -12   25.59    4.08   0
  -5   4  12   18.67    3.43   0
  -5  -4  12   23.86    3.57   0
  -5  -4  12   24.00    3.40   0
   4  -4 -12   86.67    4.59   0
  -4   4  12   80.25    4.17   0
  -4  -4  12   79.72    3.74   0
   4  -4 -12   81.71    4.55   0
  -3  -4  12  229.42    4.85   0
   3  -4 -12  226.52    6.33   0
  -3   4  12  217.77    6.55   0
   3  -4 -12  232.48    5.27   0
  -2  -4  12  134.63    4.01   0
  -2   4  12  132.95    5.93   0
   2  -4 -12  134.81    6.20   0
  -2   4  12  130.87    4.84   0
   2  -4 -12  131.39    4.23   0
  -1  -4  12  226.46    4.73   0
  -1   4  12  246.24    8.81   0
   1   4 -12  245.73    4.88   0
   1  -4 -12  240.49    5.12   0
  -1   4  12  226.72    5.31   0
   1  -4 -12  250.99    8.48   0
   0  -4 -12  153.43    7.86   0
   0   4 -12  147.77    4.11   0
   0   4  12  140.04    4.71   0
   0  -4  12  142.71    4.10   0
   0  -4 -12  155.71    4.49   0
  -1  -4 -12  122.34    7.07   0
  -1  -4 -12  125.80    7.16   0
   1  -4  12  118.60    3.82   0
  -1   4 -12  127.37    3.99   0
   1   4  12  119.05    4.39   0
  -2  -4 -12    7.49    3.74   0
  -2   4 -12    8.95    2.92   0
   2  -4  12    7.74    2.63   0
   2   4  12    6.67    3.53   0
  -2  -4 -12    6.11    4.42   0
   3  -4  12  508.69    6.25   0
   3   4  12  512.05    7.15   0
  -3   4 -12  499.00    6.22   0
  -4   4 -12  499.92    6.06   0
   4  -4  12  486.61    6.13   0
   4   4  12  520.59    7.26   0
  -5  -4 -12   78.92    4.21   0
  -5   4 -12   66.29    3.64   0
   5  -4  12   76.08    3.73   0
   5   4  12   63.24    4.71   0
  -6  -4 -12  209.95    6.00   0
  -6   4 -12  185.92    4.30   0
   6  -4  12  192.45    4.31   0
   6   4  12  196.48    5.56   0
  -7   4 -12   22.67    3.03   0
  -7  -4 -12   19.05    4.52   0
   7  -4  12   26.01    3.32   0
  -8   4 -12   17.19    3.28   0
  -8  -4 -12   13.60    3.83   0
   8   4  12   12.31    3.98   0
   8  -4  12   12.18    3.28   0
  -9   4 -12    0.93    3.38   0
   9  -4  12    1.97    3.15   0
  -9  -4 -12    5.47    3.76   0
   9   4  12    2.35    3.74   0
 -10   4 -12   11.24    3.98   0
  10  -4  12    3.38    3.88   0
 -10  -4 -12    8.33    4.85   0
  10   4  12    3.03    4.32   0
 -11   4 -12    1.25    3.59   0
  11  -4  12    5.65    4.12   0
 -11  -4 -12    7.07    4.19   0
 -11   5  12    7.77    4.91   0
  11  -5 -12   53.12    4.64   0
 -11  -5  12   33.25    4.30   0
  11  -5 -12   25.52    4.99   0
 -10   5  12   25.61    4.29   0
  10  -5 -12   17.26    4.25   0
 -10  -5  12   30.50    3.71   0
  10  -5 -12   27.15    4.84   0
  -9   5  12   11.20    4.25   0
  -9  -5  12    1.22    3.43   0
   9  -5 -12    1.85    3.75   0
   9  -5 -12    3.80    4.12   0
  -8  -5  12   41.20    3.47   0
  -8   5  12   46.93    4.29   0
   8  -5 -12   46.86    4.38   0
   8  -5 -12   56.63    4.54   0
   7  -5 -12   -0.88    3.80   0
  -7  -5  12   -4.44    3.29   0
   7  -5 -12    0.34    3.92   0
  -7   5  12   -0.53    3.44   0
  -7  -5  12   -0.40    3.57   0
  -6  -5  12  176.34    4.44   0
  -6   5  12  177.83    5.43   0
   6  -5 -12  177.49    5.03   0
   6  -5 -12  169.79    5.26   0
  -6  -5  12  160.13    4.27   0
  -5  -5  12   23.11    3.02   0
  -5  -5  12   21.52    3.04   0
   5  -5 -12   18.30    4.04   0
  -5   5  12   21.25    4.06   0
   5  -5 -12   18.37    3.87   0
   4  -5 -12  112.42    5.13   0
  -4  -5  12  118.33    3.93   0
  -4   5  12  118.95    5.19   0
   4  -5 -12  122.54    4.93   0
  -3  -5  12   55.73    7.84   0
   3  -5 -12   63.48    4.31   0
   3  -5 -12   63.84    4.34   0
  -3  -5  12   58.44    3.56   0
  -3   5  12   61.18    4.53   0
  -2  -5  12  402.01    5.65   0
  -2   5  12  365.64    6.47   0
   2  -5 -12  407.09    6.11   0
  -2   5  12  382.40    8.24   0
   2  -5 -12  408.30    8.33   0
  -1   5  12  152.33    6.40   0
   1   5 -12  136.54    3.84   0
  -1   5  12  142.93    5.09   0
  -1  -5  12  150.26    3.95   0
   1  -5 -12  151.43    4.42   0
   1  -5 -12  155.15    6.39   0
   0  -5 -12    0.71    3.99   0
   0  -5  12    1.47    2.75   0
   0  -5 -12   -3.71    3.12   0
   0   5 -12    1.96    2.72   0
   0   5  12    2.40    3.84   0
  -1  -5 -12   66.88    5.34   0
   1  -5  12   74.74    3.36   0
   1   5  12   61.19    4.56   0
  -1  -5 -12   70.88    5.60   0
  -1   5 -12   58.64    3.27   0
  -2  -5 -12    5.78    3.97   0
   2  -5  12    9.25    2.87   0
  -2   5 -12    4.95    2.96   0
  -2  -5 -12    5.67    4.00   0
   2   5  12    5.52    4.34   0
  -3   5 -12   42.16    3.26   0
   3   5  12   39.92    4.36   0
   3  -5  12   44.10    3.26   0
  -3  -5 -12   41.38    4.63   0
  -4   5 -12    2.76    2.78   0
   4  -5  12    2.48    2.69   0
   4   5  12    2.13    3.86   0
  -5  -5 -12   30.93    4.39   0
   5   5  12   32.85    4.07   0
  -5   5 -12   32.49    2.95   0
   5  -5  12   28.28    2.96   0
  -6  -5 -12    4.77    3.43   0
  -6   5 -12    0.58    3.00   0
   6  -5  12    4.48    2.95   0
   6   5  12    3.87    3.80   0
  -7  -5 -12   83.99    5.10   0
  -7   5 -12   83.39    3.94   0
   7  -5  12   69.97    3.83   0
   7   5  12   82.40    4.77   0
  -8  -5 -12   10.14    4.02   0
  -8   5 -12   11.70    3.48   0
   8  -5  12   12.20    3.43   0
   8   5  12   10.92    4.07   0
  -9  -5 -12   36.23    4.20   0
  -9   5 -12   35.50    3.82   0
   9  -5  12   21.70    3.76   0
   9   5  12   22.78    4.58   0
  10  -5  12    2.67    3.65   0
 -10   5 -12    5.40    3.67   0
 -10  -5 -12    4.09    4.36   0
  10   5  12    1.46    5.11   0
 -10  -6  12    1.03    4.00   0
  10  -6 -12    0.68    4.49   0
 -10  -6  12    0.53    4.03   0
 -10   6  12    0.31    4.63   0
  -9  -6  12    4.77    3.25   0
  -9  -6  12    2.43    3.70   0
   9  -6 -12   -0.35    3.85   0
  -9   6  12   -0.14    4.10   0
  -8  -6  12   -1.59    3.18   0
  -8  -6  12   -2.50    3.25   0
   8  -6 -12    2.66    4.15   0
  -8   6  12    2.57    3.73   0
   8  -6 -12   -0.78    3.97   0
  -7  -6  12    2.32    3.35   0
   7  -6 -12    5.83    3.84   0
   7  -6 -12    0.73    4.26   0
  -7   6  12   -0.17    4.54   0
  -7  -6  12   -0.30    3.45   0
   6  -6 -12    0.57    4.22   0
  -6   6  12    3.61    4.28   0
   6  -6 -12   -0.46    3.59   0
  -6  -6  12    2.16    3.36   0
  -6  -6  12    4.56    3.34   0
  -5  -6  12    1.14    3.20   0
   5  -6 -12    4.88    3.63   0
   5  -6 -12    1.81    3.60   0
  -5   6  12    3.12    3.18   0
  -5  -6  12    2.72    3.28   0
  -4  -6  12   39.00    3.35   0
   4  -6 -12   40.38    3.67   0
  -4   6  12   49.20    4.26   0
   4  -6 -12   53.24    4.51   0
  -3   6  12   45.84    4.80   0
   3  -6 -12   45.66    4.49   0
  -3  -6  12   45.52    7.03   0
   3  -6 -12   50.74    4.08   0
  -3  -6  12   41.93    3.12   0
  -2  -6  12   74.53    3.60   0
  -2   6  12   77.97    5.36   0
   2  -6 -12   80.94    5.20   0
   2  -6 -12   78.39    4.11   0
  -1   6  12  212.84    6.02   0
   1   6 -12  213.85    4.63   0
   1  -6 -12  233.40    7.21   0
   1  -6 -12  236.08    5.12   0
  -1  -6  12  213.97    4.54   0
   0   6 -12  163.54    4.26   0
   0  -6 -12  174.68    6.40   0
   0   6  12  176.90    5.97   0
   0  -6  12  172.18    4.29   0
   0  -6 -12  182.56    4.98   0
  -1  -6 -12  463.10    6.66   0
  -1   6 -12  433.23    5.73   0
   1   6  12  446.81    7.50   0
   1  -6  12  441.79    5.78   0
  -1  -6 -12  460.32    9.14   0
  -1  -6 -12  454.07    9.40   0
  -2  -6 -12   33.45    5.03   0
  -2  -6 -12   32.79    4.68   0
   2  -6  12   36.94    3.26   0
   2   6  12   32.30    4.82   0
  -2   6 -12   35.87    3.27   0
   3  -6  12  129.81    3.86   0
  -3   6 -12  133.99    3.91   0
   3   6  12  129.25    5.51   0
  -3  -6 -12  134.92    5.78   0
   4  -6  12   76.99    3.48   0
   4   6  12   74.18    5.35   0
  -4   6 -12   70.39    3.45   0
  -4  -6 -12   74.90    4.78   0
  -5   6 -12   32.55    3.41   0
  -5  -6 -12   30.98    4.19   0
  -5  -6 -12   25.70    3.91   0
   5   6  12   28.75    4.78   0
   5  -6  12   29.72    3.57   0
   6   6  12   90.07    5.41   0
  -6  -6 -12  108.17    5.26   0
   6  -6  12   80.58    3.99   0
  -6   6 -12   93.67    4.09   0
  -7  -6 -12    3.38    4.42   0
   7   6  12   -0.78    4.65   0
  -7   6 -12    3.98    3.63   0
   7  -6  12    2.77    3.34   0
  -8  -6 -12   31.13    5.36   0
   8   6  12   25.69    5.43   0
   8  -6  12   15.61    3.79   0
  -8   6 -12   27.99    3.75   0
  -9  -6 -12   46.77    4.77   0
   9  -6  12    7.59    3.89   0
  -9   6 -12   39.26    3.68   0
   9   6  12   36.73    5.79   0
 -10  -6 -12    0.68    5.27   0
  10  -6  12    2.49    3.55   0
 -10   6 -12   -0.81    4.07   0
  -9  -7  12    2.07    3.98   0
   9  -7 -12    6.04    4.77   0
  -9  -7  12    0.19    4.00   0
  -9   7  12    0.21    4.38   0
  -8  -7  12   10.72    4.03   0
   8  -7 -12   12.11    4.60   0
   8  -7 -12   18.06    4.72   0
  -8   7  12   -1.25    5.00   0
  -8  -7  12   16.99    4.11   0
  -7  -7  12   -2.20    3.81   0
   7  -7 -12   10.76    4.52   0
   7  -7 -12    7.99    4.35   0
  -7  -7  12    7.64    3.88   0
  -7   7  12    5.62    5.00   0
  -6  -7  12   41.17    3.88   0
  -6  -7  12   46.60    3.79   0
   6  -7 -12   45.92    4.85   0
  -6   7  12   -9.77    5.09   0
  -5   7  12    7.95    4.15   0
   5  -7 -12    4.25    3.55   0
  -5  -7  12   11.13    3.33   0
  -5  -7  12    7.23    3.34   0
  -4   7  12    0.89    3.23   0
  -4  -7  12    2.53    3.42   0
   4  -7 -12   -0.58    3.90   0
   4  -7 -12   -1.63    4.20   0
  -3   7  12    2.88    4.10   0
  -3  -7  12    0.87    3.37   0
   3  -7 -12    1.20    4.08   0
   3  -7 -12    4.15    3.85   0
  -3  -7  12    3.31    5.85   0
  -2  -7  12   38.95    3.65   0
  -2   7  12   37.52    4.53   0
  -2  -7  12   36.71    5.38   0
   2  -7 -12   45.36    4.22   0
   2  -7 -12   40.14    4.49   0
   1  -7 -12   76.02    4.90   0
   1  -7 -12   70.51    4.57   0
  -1  -7  12   76.39    3.39   0
   0  -7  12   83.65    3.67   0
   0  -7 -12   95.67    5.27   0
   0   7 -12   83.65    3.63   0
   0  -7 -12   93.29    4.44   0
  -1  -7 -12  141.80    5.77   0
   1  -7  12  135.98    4.01   0
   1   7  12  135.89    5.71   0
  -1   7 -12  133.89    4.02   0
  -1  -7 -12  138.39    4.79   0
  -2   7 -12    6.03    3.14   0
   2  -7  12    6.38    3.29   0
   2   7  12    0.95    4.39   0
  -2  -7 -12    7.04    4.07   0
  -3  -7 -12   45.15    4.31   0
   3  -7  12   44.95    3.59   0
   3   7  12   47.82    4.72   0
  -3   7 -12   51.24    3.58   0
   4  -7  12    5.91    3.34   0
  -4   7 -12    6.51    3.37   0
   4   7  12    8.75    4.41   0
  -4  -7 -12    9.52    3.93   0
  -5  -7 -12   34.37    4.27   0
  -5   7 -12   32.68    3.47   0
  -5  -7 -12   28.45    4.50   0
   5   7  12   23.66    4.77   0
   5  -7  12   28.63    3.46   0
  -6   7 -12    4.83    3.10   0
  -6  -7 -12    1.53    4.16   0
  -6  -7 -12    0.33    4.12   0
   6   7  12   -0.84    4.80   0
   6  -7  12    2.30    3.50   0
  -7   7 -12   93.21    4.36   0
  -7  -7 -12  104.16    6.19   0
  -7  -7 -12   89.50    5.92   0
   7   7  12   92.14    6.38   0
   7  -7  12   82.81    4.03   0
   8   7  12    5.22    5.45   0
  -8  -7 -12   13.03    5.04   0
   8  -7  12    7.46    3.50   0
  -8   7 -12   10.66    3.45   0
  -8  -7 -12    8.62    4.95   0
  -9  -7 -12   12.91    5.97   0
   9  -7  12    9.58    4.19   0
   9   7  12    8.94    5.71   0
  -8  -8  12    5.83    4.48   0
  -8  -8  12    4.91    4.41   0
   8  -8 -12   21.69    5.24   0
   8  -8 -12    8.17    4.79   0
  -8   8  12   -3.00    4.93   0
  -7  -8  12    1.15    4.12   0
  -7   8  12    3.62    5.25   0
  -7  -8  12    2.72    3.99   0
   7  -8 -12    3.22    5.01   0
   7  -8 -12   -1.46    4.13   0
  -6   8  12   -3.81    5.18   0
  -6  -8  12   19.22    4.30   0
   6  -8 -12   10.71    4.90   0
   6  -8 -12   27.98    4.13   0
  -6  -8  12   15.35    4.22   0
  -5  -8  12   11.59    3.50   0
  -5   8  12    1.83    4.66   0
   5  -8 -12    2.47    4.02   0
   5  -8 -12    5.16    4.30   0
  -5  -8  12    3.93    3.42   0
  -4  -8  12   -1.38    3.13   0
   4  -8 -12   -0.73    4.59   0
  -4   8  12   -1.34    4.36   0
   4  -8 -12   -0.66    4.03   0
  -3  -8  12   16.12    3.47   0
  -3  -8  12   16.19    5.59   0
   3  -8 -12   15.37    4.07   0
   3  -8 -12   19.67    3.97   0
  -3   8  12   17.66    4.67   0
   2  -8 -12   88.40    5.04   0
  -2   8  12   95.80    5.18   0
  -2  -8  12   78.60    6.22   0
   2  -8 -12  100.71    4.68   0
  -2  -8  12   99.74    4.13   0
   1  -8 -12    0.64    4.02   0
  -1  -8  12    3.54    2.85   0
  -1  -8  12   -0.21    4.91   0
   1  -8 -12    4.17    4.03   0
   0  -8 -12   14.03    4.14   0
   0  -8  12   16.11    3.29   0
   0   8 -12   12.91    3.26   0
   0  -8 -12   18.40    4.28   0
  -1   8 -12   19.90    3.27   0
  -1  -8 -12   15.48    4.34   0
   1  -8  12   19.23    3.02   0
  -1  -8 -12   23.46    4.09   0
   2  -8  12    3.74    3.39   0
  -2   8 -12    5.33    3.34   0
   2   8  12    5.47    4.98   0
  -2  -8 -12   -0.07    4.19   0
  -3  -8 -12    4.23    4.35   0
  -3   8 -12    3.95    3.43   0
   3  -8  12    3.14    3.07   0
   3   8  12    0.95    4.63   0
   4  -8  12   58.92    3.92   0
  -4  -8 -12   57.28    5.54   0
   4   8  12   59.98    5.29   0
  -4   8 -12   48.96    3.84   0
  -5  -8 -12   18.89    4.99   0
  -5   8 -12   15.01    4.10   0
   5   8  12   17.58    5.06   0
  -5  -8 -12   21.43    5.03   0
   5  -8  12   18.13    4.11   0
  -6  -8 -12    2.85    4.93   0
  -6  -8 -12    0.77    5.19   0
  -6   8 -12   -4.62    3.92   0
   6   8  12    3.72    5.25   0
   6  -8  12    1.97    3.90   0
  -7   8 -12    3.75    4.02   0
  -7  -8 -12    3.31    6.14   0
  -7  -8 -12    6.58    4.71   0
   7   8  12    1.48    6.43   0
   7  -8  12   12.85    4.21   0
   6  -9 -12   -0.68    4.44   0
  -6  -9  12    4.77    4.41   0
  -6   9  12    3.11    5.41   0
   6  -9 -12   -1.55    5.01   0
  -6  -9  12   -0.11    4.39   0
  -5   9  12   -3.18    5.43   0
   5  -9 -12   -1.87    4.34   0
  -5  -9  12   -0.28    3.86   0
   5  -9 -12    2.70    4.34   0
  -5  -9  12   -3.77    3.92   0
  -4  -9  12   16.90    4.10   0
  -4   9  12    6.40    5.44   0
   4  -9 -12   14.88    5.24   0
   4  -9 -12   15.95    4.58   0
   3  -9 -12    5.06    4.93   0
   3  -9 -12    6.02    3.76   0
  -3  -9  12    4.48    5.77   0
  -3   9  12    1.50    4.69   0
  -3  -9  12    8.57    3.99   0
   2  -9 -12   29.82    4.65   0
  -2  -9  12   31.45    5.29   0
   2  -9 -12   31.82    4.69   0
  -2  -9  12   28.73    4.18   0
  -1  -9  12    1.41    4.95   0
   1  -9 -12    2.47    4.03   0
  -1  -9  12    4.03    3.47   0
   1  -9 -12    1.82    4.38   0
   0  -9 -12   13.62    5.00   0
   0  -9  12   21.84    4.08   0
   0  -9  12   22.05    6.07   0
   0  -9 -12   16.44    4.19   0
  -1  -9 -12    3.31    4.66   0
   1  -9  12    4.49    3.86   0
   1  -9  12    0.12    4.90   0
  -1   9 -12    0.40    3.86   0
  -1  -9 -12    1.67    4.04   0
  -2   9 -12   18.99    4.13   0
   2  -9  12    8.98    3.97   0
  -2  -9 -12    6.92    4.65   0
   3  -9  12    6.67    3.96   0
  -3   9 -12    6.21    3.94   0
  -3  -9 -12    6.68    4.74   0
   4  -9  12    3.93    3.70   0
  -4  -9 -12    0.90    5.15   0
  -4  -9 -12    1.34    4.95   0
  -4   9 -12    2.68    3.98   0
  -5  -9 -12    9.23    5.53   0
  -5  -9 -12   -1.36    4.97   0
   5   9  12   -2.23    5.97   0
  -5   9 -12    3.51    4.21   0
   5  -9  12   -0.76    4.24   0
   3 -10 -12   -3.60    4.92   0
  -3 -10  12   -0.06    6.13   0
   2 -10 -12    3.30    4.57   0
  -2 -10  12    2.09    5.58   0
  -2 -10  12    5.14    4.29   0
   2 -10 -12    3.72    4.86   0
  -1 -10  12   13.93    4.27   0
  -1 -10  12    5.50    5.65   0
   1 -10 -12    6.87    4.62   0
   1 -10 -12    2.00    5.57   0
   0 -10 -12    0.04    5.28   0
   0 -10  12    0.92    4.02   0
   0 -10  12    0.99    4.87   0
   0 -10 -12   -4.62    4.68   0
  -1 -10 -12    2.11    5.31   0
   1 -10  12   -1.59    4.14   0
  -1  10 -12   -1.16    4.18   0
   1 -10  12   -0.35    5.71   0
   2 -10  12    0.27    4.34   0
  -2 -10 -12    4.58    5.15   0
   2 -10  12   -0.12    5.09   0
  -2  10 -12   -0.18    4.37   0
 -11   0  13   34.47    4.25   0
  11   0 -13   18.19    4.28   0
  -9   0  13    0.17    3.73   0
   9   0 -13   -4.91    3.68   0
  -7   0  13 2861.90   14.72   0
   7   0 -13 2771.07   14.94   0
  -5   0  13  178.33    5.13   0
   5   0 -13  181.52    5.27   0
  -3   0  13  236.41    6.29   0
  -3   0  13  214.69    6.04   0
  -1   0  13   73.06    5.19   0
  -1   0  13   72.04    4.96   0
   1   0  13   20.38    3.54   0
   3   0  13    3.14    3.73   0
  -3   0 -13    2.25    3.16   0
   5   0  13   24.12    3.57   0
  -5   0 -13   32.93    3.56   0
   7   0  13  166.16    5.19   0
  -7   0 -13  174.81    5.17   0
   9   0  13  242.36    5.72   0
  -9   0 -13  295.50    5.72   0
  11   0  13   24.57    4.38   0
 -11   0 -13   33.98    4.32   0
  12   1 -13    4.11    5.39   0
 -12  -1  13   -2.55    3.95   0
  12  -1 -13    4.28    4.84   0
 -12   1  13   -0.97    4.32   0
  12  -1 -13   -1.34    4.36   0
 -11  -1  13    6.42    3.89   0
 -11   1  13    2.39    4.08   0
  11  -1 -13    3.74    5.05   0
  11   1 -13    3.66    4.82   0
  11  -1 -13   -0.20    4.19   0
  10  -1 -13    2.64    3.89   0
  10  -1 -13    3.57    4.17   0
 -10  -1  13    3.32    3.59   0
  10   1 -13    3.25    5.16   0
 -10   1  13    3.16    3.94   0
   9  -1 -13   58.83    4.36   0
   9  -1 -13   65.92    5.28   0
   9   1 -13   72.69    6.02   0
  -9  -1  13   81.91    4.31   0
  -9   1  13   77.06    4.30   0
   8  -1 -13  163.94    5.88   0
  -8  -1  13  159.81    5.34   0
  -8   1  13  170.62    4.84   0
   8  -1 -13  169.77    5.05   0
   8   1 -13  164.10    6.86   0
   7   1 -13    1.53    4.59   0
  -7  -1  13    2.45    3.44   0
  -7   1  13   -0.82    3.81   0
   7  -1 -13   -2.53    4.78   0
   7  -1 -13   -0.71    3.67   0
   6  -1 -13  249.02    5.60   0
  -6  -1  13  238.27    5.09   0
  -6   1  13  237.70    5.48   0
   6  -1 -13  237.89    6.26   0
   6   1 -13  234.17    7.38   0
  -5  -1  13   99.22    4.18   0
  -5   1  13  103.11    4.52   0
   5  -1 -13  105.04    5.09   0
   5   1 -13  102.97    5.82   0
   5  -1 -13  113.65    4.77   0
  -4  -1  13   95.43    4.28   0
  -4   1  13   98.27    4.85   0
  -4   1  13   90.45    5.40   0
   4  -1 -13  101.80    4.80   0
  -4  -1  13   89.75    6.27   0
   4  -1 -13   96.14    5.05   0
   3  -1 -13    1.82    3.60   0
  -3   1  13    4.94    3.79   0
  -3  -1  13    4.57    3.68   0
  -3   1  13   -1.52    4.35   0
  -3  -1  13    7.12    4.49   0
  -2   1  13  123.98    6.15   0
  -2   1  13  117.50    5.12   0
  -2  -1  13  125.65    4.79   0
  -2  -1  13  123.46    5.43   0
   2  -1 -13  130.44    5.03   0
  -1   1  13  145.01    8.11   0
  -1   1  13  140.73    5.00   0
  -1  -1  13  130.60    5.19   0
  -1   1  13  137.75    7.83   0
   0   1  13 2428.12   29.76   0
   0   1 -13 2413.60   16.96   0
   0  -1  13 2298.40   16.46   0
   0   1  13 2335.98   14.51   0
  -1   1 -13   11.04    3.85   0
   1  -1  13   11.11    3.00   0
   1   1  13   13.57    5.17   0
  -1  -1 -13   14.49    4.85   0
   2  -1  13    1.06    2.97   0
  -2   1 -13    0.05    3.05   0
   2   1  13    1.12    3.83   0
   3   1  13   62.22    4.72   0
  -3   1 -13   58.34    3.99   0
   3  -1  13   52.74    3.83   0
  -4   1 -13    5.86    3.23   0
   4   1  13   -0.88    3.88   0
   4  -1  13    2.53    3.13   0
  -4  -1 -13    1.41    3.85   0
  -5   1 -13   11.22    3.29   0
   5   1  13    7.87    3.38   0
   5  -1  13    6.24    3.15   0
  -5  -1 -13    6.32    4.14   0
  -6   1 -13   17.35    3.72   0
   6   1  13   15.68    3.46   0
   6  -1  13   18.00    3.73   0
  -6  -1 -13   11.48    3.47   0
  -7   1 -13   27.35    3.77   0
  -7  -1 -13   27.91    3.62   0
   7   1  13   27.31    4.23   0
   7  -1  13   27.95    3.80   0
  -8   1 -13  151.16    4.63   0
   8   1  13  132.27    4.78   0
   8  -1  13  128.43    4.62   0
  -8  -1 -13  157.00    4.79   0
  -9   1 -13   80.94    3.99   0
   9   1  13   71.51    4.39   0
   9  -1  13   81.01    4.36   0
  -9  -1 -13   88.42    4.84   0
 -10   1 -13   15.54    3.45   0
  10   1  13    7.97    4.13   0
  10  -1  13    5.11    3.76   0
 -10  -1 -13   10.69    4.26   0
 -11   1 -13    5.08    4.01   0
  11   1  13    1.45    4.16   0
  11  -1  13    1.89    3.98   0
 -11  -1 -13   -2.31    4.11   0
 -12   1 -13    6.96    4.55   0
  12   1  13    3.85    4.41   0
  12  -1  13    7.73    4.54   0
 -12  -1 -13   13.40    4.41   0
  12  -2 -13    1.07    4.43   0
  12  -2 -13   10.60    5.18   0
 -12  -2  13   11.11    3.96   0
  12   2 -13    5.61    7.53   0
 -12   2  13    2.71    4.39   0
  11  -2 -13    2.94    4.03   0
 -11  -2  13    2.13    3.70   0
 -11   2  13    1.65    3.94   0
  11  -2 -13   -3.10    4.55   0
  11   2 -13    0.76    6.98   0
  10  -2 -13    4.71    4.16   0
  10   2 -13    0.48    6.25   0
 -10  -2  13    0.72    3.38   0
  10  -2 -13    1.97    4.27   0
 -10   2  13    6.39    4.59   0
   9  -2 -13  173.86    5.15   0
  -9  -2  13  189.81    4.82   0
  -9   2  13  178.70    5.21   0
   9   2 -13  182.74    9.48   0
   9  -2 -13  181.97    5.55   0
   8  -2 -13   -1.46    4.01   0
  -8   2  13   -1.61    3.64   0
  -8  -2  13   -0.81    3.37   0
   8  -2 -13    0.28    4.22   0
   8   2 -13   -1.50    5.82   0
   7  -2 -13   39.05    4.28   0
  -7  -2  13   35.48    3.50   0
  -7   2  13   36.02    3.70   0
   7  -2 -13   41.87    4.49   0
   6  -2 -13   42.91    3.97   0
  -6  -2  13   45.39    3.90   0
  -6   2  13   43.47    3.76   0
   6  -2 -13   53.32    4.54   0
  -5  -2  13  226.87    4.86   0
   5  -2 -13  243.45    5.68   0
   5  -2 -13  229.85    6.46   0
  -5   2  13  233.01    5.54   0
   4  -2 -13   56.49    4.56   0
  -4  -2  13   49.49    7.21   0
  -4   2  13   54.71    4.35   0
   4  -2 -13   58.28    4.26   0
  -4  -2  13   56.15    3.70   0
   3  -2 -13    0.42    3.96   0
  -3   2  13    1.12    3.83   0
  -3  -2  13    1.88    4.54   0
  -3  -2  13    1.07    3.27   0
  -3   2  13    2.41    4.08   0
   3  -2 -13    1.40    3.80   0
  -2   2  13  367.90   10.38   0
  -2  -2  13  358.83    6.67   0
  -2   2  13  342.97    6.55   0
   2  -2 -13  378.05    6.59   0
   2  -2 -13  385.66   11.08   0
   1   2 -13  463.95    7.18   0
  -1  -2  13  462.25    7.24   0
   1  -2 -13  459.01    6.80   0
  -1   2  13  444.89    6.93   0
   0   2 -13   39.09    3.84   0
   0   2  13   42.84    3.82   0
   0  -2  13   36.14    3.82   0
   1   2  13   14.15    3.40   0
  -1   2 -13   14.83    4.06   0
   1  -2  13   11.61    3.42   0
  -1  -2 -13   14.36    7.51   0
   2   2  13   93.90    6.38   0
   2  -2  13   88.91    4.14   0
  -2  -2 -13   90.07    6.16   0
  -2   2 -13   93.04    4.17   0
   3   2  13   22.58    4.37   0
  -3   2 -13   20.65    3.34   0
   3  -2  13   23.53    3.43   0
   4   2  13   10.29    3.27   0
  -4   2 -13   10.09    3.18   0
   4  -2  13    5.73    3.10   0
   5   2  13  128.86    4.65   0
  -5  -2 -13  144.26    5.03   0
  -5   2 -13  136.38    4.50   0
   5  -2  13  130.25    4.08   0
   6   2  13    0.33    3.86   0
  -6   2 -13    0.64    3.19   0
   6  -2  13   -2.85    3.30   0
  -6  -2 -13    1.92    4.08   0
   7   2  13   19.37    3.58   0
  -7   2 -13    9.74    3.31   0
   7  -2  13   11.78    3.33   0
  -7  -2 -13    8.77    3.39   0
   8   2  13    4.22    3.87   0
  -8   2 -13    9.96    3.44   0
   8  -2  13    8.86    3.42   0
  -8  -2 -13    8.12    3.66   0
   9   2  13  139.48    5.14   0
  -9   2 -13  159.25    4.60   0
   9  -2  13  130.12    4.51   0
  -9  -2 -13  158.91    5.11   0
  10   2  13   12.57    4.08   0
 -10   2 -13    6.93    3.66   0
  10  -2  13    2.00    3.56   0
 -10  -2 -13   11.51    3.98   0
  11   2  13    3.73    4.38   0
 -11   2 -13    1.78    3.86   0
  11  -2  13    2.11    3.78   0
 -11  -2 -13    7.54    4.40   0
 -12  -2 -13    6.51    4.29   0
  12   2  13    6.03    4.49   0
 -12   2 -13   12.38    4.39   0
  12  -2  13    7.53    4.34   0
  12  -3 -13    5.18    4.52   0
 -12  -3  13    2.44    4.33   0
 -12   3  13   -2.50    4.42   0
  11  -3 -13   28.13    4.64   0
 -11  -3  13   33.49    4.27   0
  11  -3 -13   30.88    4.33   0
 -11   3  13   19.16    4.53   0
  10  -3 -13   55.61    4.93   0
 -10  -3  13   43.69    3.61   0
  10  -3 -13   49.00    4.79   0
 -10   3  13   54.06    4.39   0
   9  -3 -13   -1.54    4.10   0
  -9  -3  13    4.74    3.17   0
   9  -3 -13    2.53    4.28   0
  -9   3  13    3.04    3.68   0
   8  -3 -13   46.68    4.08   0
  -8  -3  13   48.29    3.56   0
  -8   3  13   59.42    4.19   0
   8  -3 -13   54.77    4.97   0
  -7  -3  13    6.61    3.18   0
   7  -3 -13    8.73    3.40   0
   7  -3 -13   10.84    4.28   0
  -7   3  13    4.76    3.34   0
  -6  -3  13   -0.44    2.98   0
   6  -3 -13    3.54    3.84   0
   6  -3 -13    2.39    4.55   0
  -6   3  13    1.20    4.21   0
   5  -3 -13  119.57    4.48   0
  -5   3  13  120.22    4.96   0
   5  -3 -13  141.58    5.18   0
  -5  -3  13  126.13    4.20   0
   4  -3 -13  108.29    5.13   0
  -4   3  13  114.38    5.12   0
   4  -3 -13  118.18    4.55   0
  -4  -3  13  106.71    3.93   0
  -4  -3  13  114.52    3.86   0
  -3   3  13   68.82    5.11   0
   3  -3 -13   69.49    4.84   0
  -3  -3  13   67.78    3.72   0
  -3   3  13   73.78    4.67   0
   3  -3 -13   70.47    4.16   0
  -3  -3  13   69.08    6.43   0
   2  -3 -13  237.36    8.86   0
  -2   3  13  223.91    8.55   0
  -2   3  13  209.75    5.21   0
   2  -3 -13  236.88    5.32   0
  -2  -3  13  227.83    4.98   0
   1  -3 -13   31.37   10.91   0
  -1  -3  13   20.35    3.38   0
   1   3 -13   23.07    3.44   0
   1  -3 -13   26.06    3.43   0
  -1   3  13   24.04    3.72   0
   0  -3  13   86.22    3.99   0
   0   3 -13   78.23    3.96   0
   0   3  13   84.87    4.17   0
  -1  -3 -13  288.57   14.93   0
  -1   3 -13  291.98    5.46   0
  -1  -3 -13  283.90   14.54   0
   1   3  13  269.62    5.51   0
   1  -3  13  270.54    5.54   0
   2   3  13   29.53    3.53   0
  -2   3 -13   25.67    3.22   0
   2  -3  13   25.67    3.24   0
  -2  -3 -13   29.99    5.01   0
   3  -3  13    3.26    2.78   0
  -3   3 -13    2.48    2.84   0
  -3  -3 -13    4.28    3.63   0
   3   3  13    1.61    3.05   0
  -4   3 -13    0.13    2.82   0
   4  -3  13    0.45    2.82   0
   4   3  13   -0.62    3.70   0
  -5   3 -13   74.55    3.56   0
   5  -3  13   60.22    3.71   0
   5   3  13   70.69    4.73   0
  -5  -3 -13   76.19    4.69   0
  -6   3 -13  153.20    4.11   0
  -6  -3 -13  160.40    4.97   0
   6  -3  13  131.80    4.18   0
   6   3  13  153.83    5.16   0
   7   3  13   85.49    4.91   0
  -7   3 -13   90.65    3.99   0
   7  -3  13   83.86    3.99   0
  -7  -3 -13   87.79    4.66   0
   8   3  13  238.91    6.33   0
  -8   3 -13  260.67    5.20   0
   8  -3  13  230.59    5.21   0
  -8  -3 -13  274.42    6.23   0
  -9   3 -13   63.74    3.87   0
   9  -3  13   59.25    3.80   0
  -9  -3 -13   70.03    4.88   0
   9   3  13   57.58    4.65   0
 -10   3 -13    6.52    3.73   0
  10  -3  13    1.35    3.77   0
 -10  -3 -13   11.74    4.55   0
  10   3  13    5.11    4.31   0
 -11   3 -13   -1.65    3.79   0
 -11  -3 -13   -0.38    4.40   0
  11  -3  13   -1.02    3.92   0
  11   3  13    0.91    4.58   0
  11  -4 -13    0.36    4.35   0
 -11  -4  13    1.03    3.69   0
  11  -4 -13    0.54    4.84   0
 -11   4  13    1.96    4.72   0
  10  -4 -13   -1.89    4.34   0
 -10  -4  13    5.16    3.75   0
  10  -4 -13    1.02    4.44   0
 -10   4  13   -0.47    3.85   0
   9  -4 -13   -4.11    3.73   0
  -9  -4  13    0.88    3.24   0
   9  -4 -13    0.48    4.55   0
  -9   4  13    0.75    3.82   0
   8  -4 -13   -0.38    3.98   0
  -8  -4  13   -1.28    3.17   0
   8  -4 -13   -1.40    4.25   0
  -8   4  13   -0.23    3.97   0
  -7  -4  13  179.91    4.55   0
   7  -4 -13  169.07    4.87   0
   7  -4 -13  197.55    5.44   0
  -7   4  13  176.97    5.47   0
  -6  -4  13   60.89    3.51   0
  -6   4  13   57.42    3.97   0
   6  -4 -13   57.51    4.49   0
   6  -4 -13   68.60    4.60   0
  -5   4  13    6.01    3.77   0
   5  -4 -13    8.62    3.99   0
  -5  -4  13    6.57    3.24   0
   5  -4 -13   11.22    3.89   0
  -5  -4  13    5.03    3.22   0
  -4  -4  13   77.10    3.75   0
  -4   4  13   78.64    4.57   0
   4  -4 -13   81.64    4.66   0
   4  -4 -13   87.16    4.53   0
  -3  -4  13   24.60    3.25   0
  -3   4  13   27.07    4.10   0
   3  -4 -13   21.91    3.74   0
  -3   4  13   21.01    3.82   0
   3  -4 -13   22.11    3.53   0
  -2   4  13  201.95    7.50   0
   2  -4 -13  216.04    7.59   0
   2  -4 -13  220.20    4.88   0
  -2   4  13  193.10    5.19   0
  -2  -4  13  198.13    4.56   0
  -1   4  13   40.76    6.46   0
  -1  -4  13   40.78    3.35   0
   1  -4 -13   36.02    3.38   0
  -1   4  13   33.99    3.87   0
   1   4 -13   41.19    3.42   0
   1  -4 -13   41.65    6.18   0
   0   4  13   45.46    4.06   0
   0  -4  13   42.67    3.41   0
   0  -4 -13   45.07    3.51   0
   0  -4 -13   49.29    7.50   0
   0   4 -13   46.57    3.44   0
   0  -4 -13   49.04    6.77   0
  -1  -4 -13   92.46    7.25   0
   1  -4  13   91.49    3.73   0
   1   4  13   79.98    4.16   0
  -1   4 -13   86.69    3.74   0
  -1  -4 -13   87.25    7.06   0
  -2  -4 -13   41.67    5.07   0
  -2  -4 -13   43.65    5.16   0
   2  -4  13   43.11    3.32   0
  -2   4 -13   46.57    3.39   0
   2   4  13   40.54    3.69   0
  -3   4 -13    1.69    2.88   0
   3  -4  13    2.31    2.87   0
  -3  -4 -13    0.91    3.51   0
   3   4  13   -0.99    3.47   0
   4   4  13   92.46    4.65   0
  -4   4 -13   95.26    3.85   0
   4  -4  13  102.34    3.82   0
  -5  -4 -13  107.63    5.16   0
   5   4  13  100.51    4.57   0
  -5   4 -13   97.98    3.78   0
   5  -4  13   89.65    3.62   0
   6  -4  13  132.81    4.10   0
  -6  -4 -13  162.98    5.34   0
  -6   4 -13  137.28    4.11   0
   6   4  13  148.22    5.11   0
   7  -4  13   58.80    3.62   0
  -7   4 -13   60.17    3.69   0
  -7  -4 -13   65.97    4.26   0
   8  -4  13    3.02    3.32   0
  -8   4 -13   17.12    3.60   0
  -8  -4 -13   23.37    4.79   0
   8   4  13   19.89    4.15   0
  -9   4 -13   19.72    3.55   0
   9  -4  13   25.31    3.64   0
  -9  -4 -13   17.64    3.98   0
   9   4  13    6.00    4.13   0
 -10   4 -13    2.64    3.91   0
 -10  -4 -13    3.45    4.57   0
  10  -4  13   -1.00    3.87   0
  10   4  13    1.58    3.97   0
  11   4  13    2.10    4.52   0
 -11   4 -13    1.03    3.62   0
  11  -4  13    1.81    3.57   0
 -11  -4 -13   -0.23    4.44   0
 -11   5  13   -0.98    5.13   0
  11  -5 -13   -2.05    5.06   0
 -11  -5  13    5.37    4.22   0
  11  -5 -13    8.89    4.68   0
 -10   5  13   -1.50    3.88   0
  10  -5 -13   -0.26    3.80   0
 -10  -5  13   -1.41    3.70   0
  10  -5 -13    4.18    4.69   0
  -9   5  13    2.31    4.53   0
  -9  -5  13   -3.68    3.54   0
   9  -5 -13    3.34    3.82   0
   9  -5 -13   -2.54    4.26   0
  -8  -5  13    4.69    3.48   0
  -8   5  13    0.95    3.78   0
   8  -5 -13    0.31    3.72   0
   8  -5 -13    2.83    4.27   0
  -7  -5  13   15.66    3.42   0
  -7   5  13   14.33    3.83   0
   7  -5 -13    9.18    3.61   0
  -7  -5  13   14.35    3.02   0
   7  -5 -13   11.71    3.89   0
  -6   5  13  106.25    4.89   0
   6  -5 -13  115.77    4.90   0
   6  -5 -13  107.06    4.74   0
  -6  -5  13  105.09    4.03   0
  -6  -5  13   99.32    4.00   0
  -5  -5  13   20.00    3.04   0
   5  -5 -13   17.74    3.98   0
  -5   5  13   18.22    4.20   0
   5  -5 -13   18.10    4.02   0
  -5  -5  13   13.89    2.98   0
  -4  -5  13  103.55    3.87   0
   4  -5 -13  104.22    4.65   0
  -4   5  13  104.44    5.09   0
   4  -5 -13  111.41    4.58   0
  -3   5  13   33.85    4.69   0
   3  -5 -13   38.68    3.73   0
   3  -5 -13   37.00    4.62   0
  -3  -5  13   37.06    3.41   0
   2  -5 -13  127.51    4.69   0
  -2  -5  13  144.07    4.14   0
  -2   5  13  141.32    5.15   0
   2  -5 -13  142.08    6.09   0
  -2   5  13  137.69    6.34   0
  -1  -5  13   28.44    3.20   0
   1   5 -13   20.72    3.05   0
  -1   5  13   28.13    4.27   0
   1  -5 -13   25.98    3.49   0
   1  -5 -13   23.31    4.81   0
   0  -5 -13  148.26    6.74   0
   0   5  13  144.20    4.99   0
   0  -5  13  143.79    4.07   0
   0   5 -13  147.16    4.06   0
   0  -5 -13  153.61    4.40   0
  -1  -5 -13   65.81    5.79   0
  -1   5 -13   65.56    3.52   0
   1   5  13   64.02    4.74   0
  -1  -5 -13   60.83    5.63   0
   1  -5  13   63.45    3.50   0
  -2  -5 -13  259.58    7.56   0
   2  -5  13  242.68    4.77   0
  -2  -5 -13  245.40    7.50   0
  -2   5 -13  235.63    4.74   0
   2   5  13  240.77    6.25   0
   3  -5  13    5.84    2.85   0
  -3  -5 -13    5.75    4.44   0
  -3   5 -13    4.00    2.94   0
   3   5  13    7.43    4.09   0
  -3  -5 -13    6.35    4.39   0
   4  -5  13   57.64    3.48   0
  -4   5 -13   49.14    3.23   0
  -4  -5 -13   60.54    4.80   0
   4   5  13   58.66    4.35   0
  -5  -5 -13   27.88    4.07   0
   5   5  13   25.05    4.25   0
  -5   5 -13   31.28    3.53   0
   5  -5  13   25.18    3.22   0
  -6  -5 -13  193.83    5.82   0
  -6   5 -13  185.10    4.47   0
   6  -5  13  174.56    4.45   0
   6   5  13  180.13    5.46   0
   7  -5  13   81.47    3.92   0
  -7  -5 -13   95.75    4.79   0
  -7   5 -13   81.86    3.95   0
   7   5  13   80.75    5.30   0
  -8  -5 -13   93.17    4.94   0
  -8   5 -13   76.25    4.01   0
   8  -5  13   81.36    4.13   0
   8   5  13   79.59    4.86   0
   9  -5  13    2.48    3.71   0
  -9  -5 -13    0.50    4.04   0
  -9   5 -13    2.38    3.65   0
   9   5  13    2.69    4.80   0
  10  -5  13   66.59    4.28   0
 -10   5 -13   81.54    4.43   0
 -10  -5 -13   94.98    5.28   0
  10   5  13   63.50    5.87   0
 -10  -6  13   13.28    4.01   0
 -10  -6  13    4.38    3.88   0
  10  -6 -13   -3.90    4.58   0
 -10   6  13   15.77    4.59   0
  10  -6 -13    8.36    4.68   0
  -9  -6  13    9.46    3.41   0
  -9  -6  13    1.94    3.49   0
   9  -6 -13    4.25    3.94   0
  -9   6  13    0.23    4.12   0
  -8  -6  13    3.50    3.44   0
  -8  -6  13    7.06    3.57   0
   8  -6 -13    6.12    4.24   0
  -8   6  13    0.63    4.10   0
   8  -6 -13    2.74    4.11   0
  -7  -6  13    8.18    3.43   0
   7  -6 -13    4.27    3.95   0
   7  -6 -13    9.21    3.93   0
  -7  -6  13   12.04    3.56   0
  -7   6  13    5.11    3.99   0
   6  -6 -13    0.46    3.25   0
  -6   6  13    0.31    3.89   0
   6  -6 -13    2.02    3.58   0
  -6  -6  13    1.28    3.43   0
  -6  -6  13    0.19    3.38   0
  -5  -6  13  127.59    4.25   0
  -5  -6  13  122.06    4.14   0
   5  -6 -13  136.54    5.27   0
   5  -6 -13  138.04    4.72   0
  -5   6  13  125.12    5.27   0
  -4   6  13   15.12    4.03   0
   4  -6 -13   13.86    3.79   0
   4  -6 -13   24.62    4.01   0
  -4  -6  13   13.84    3.06   0
  -3   6  13   48.01    5.20   0
  -3  -6  13   50.36    3.29   0
   3  -6 -13   52.70    4.87   0
   3  -6 -13   53.14    4.07   0
  -3  -6  13   49.50    7.17   0
  -2  -6  13    1.91    2.92   0
  -2   6  13    2.02    4.47   0
   2  -6 -13   -3.89    3.50   0
   2  -6 -13    1.92    4.21   0
   1   6 -13   25.70    3.24   0
  -1   6  13   20.87    4.61   0
   1  -6 -13   24.58    3.34   0
   1  -6 -13   26.69    4.93   0
  -1  -6  13   22.70    3.15   0
   0   6 -13   97.30    3.77   0
   0  -6 -13   96.00    6.02   0
   0   6  13   91.80    5.19   0
   0  -6  13   84.58    3.56   0
   0  -6 -13   91.82    4.17   0
  -1   6 -13    7.94    2.89   0
   1  -6  13    6.88    2.95   0
   1   6  13    4.76    4.69   0
  -1  -6 -13    6.50    4.77   0
  -1  -6 -13    4.63    4.77   0
  -2  -6 -13   13.10    4.69   0
  -2  -6 -13    8.84    4.78   0
   2   6  13    5.78    4.44   0
   2  -6  13    6.99    2.82   0
  -2   6 -13    8.58    2.94   0
  -3  -6 -13  202.26    6.85   0
   3  -6  13  170.68    4.25   0
   3   6  13  181.92    5.84   0
  -3   6 -13  183.84    4.49   0
  -3  -6 -13  180.65    6.60   0
  -4  -6 -13  112.24    5.45   0
   4  -6  13  111.76    3.81   0
  -4   6 -13   98.14    3.71   0
   4   6  13  110.61    5.17   0
  -5  -6 -13   17.88    3.86   0
  -5   6 -13   11.28    3.23   0
  -5  -6 -13   11.83    4.24   0
   5   6  13   12.39    4.49   0
   5  -6  13   11.63    3.15   0
  -6  -6 -13   36.65    3.95   0
   6  -6  13   24.04    3.56   0
   6   6  13   35.13    4.66   0
  -6   6 -13   36.05    3.59   0
  -7   6 -13    1.45    3.30   0
   7   6  13    2.74    4.11   0
  -7  -6 -13   -4.31    4.22   0
   7  -6  13    1.63    3.18   0
  -8  -6 -13    3.81    4.69   0
   8  -6  13   -0.65    3.49   0
  -8   6 -13    1.82    3.40   0
   8   6  13    2.85    4.98   0
  -9  -6 -13   14.81    4.51   0
   9  -6  13    2.21    3.85   0
   9   6  13   13.84    5.16   0
  -9   6 -13    7.86    3.43   0
  -9   7  13    5.16    4.62   0
  -9  -7  13    0.38    4.17   0
   9  -7 -13    2.17    4.48   0
  -9  -7  13   -0.32    4.27   0
   9  -7 -13   -1.10    4.60   0
   8  -7 -13   -8.85    5.14   0
  -8   7  13    6.12    5.80   0
  -8  -7  13   34.21    4.32   0
  -8  -7  13   37.72    3.83   0
   7  -7 -13   54.99    5.06   0
  -7  -7  13   62.38    4.32   0
   7  -7 -13   53.52    4.69   0
  -7   7  13   56.48    5.02   0
  -7  -7  13    7.45    4.34   0
  -6  -7  13   37.14    4.03   0
   6  -7 -13   36.23    4.93   0
  -6   7  13   11.00    4.83   0
  -6  -7  13   35.19    3.97   0
  -5   7  13   54.63    4.27   0
   5  -7 -13   49.05    4.63   0
  -5  -7  13   54.72    3.71   0
  -4   7  13   50.53    4.65   0
   4  -7 -13   56.28    4.50   0
  -4  -7  13   56.90    3.86   0
   4  -7 -13   66.61    5.11   0
  -3   7  13   -0.64    3.71   0
  -3  -7  13    0.91    5.60   0
  -3  -7  13   -0.24    3.07   0
   3  -7 -13   -1.48    3.87   0
   3  -7 -13    0.87    3.69   0
  -2  -7  13   -0.83    3.25   0
  -2  -7  13    8.73    5.18   0
  -2   7  13    4.36    4.17   0
   2  -7 -13    2.33    3.34   0
   2  -7 -13    0.89    4.04   0
   1  -7 -13    2.46    3.61   0
  -1  -7  13    0.09    3.07   0
   1  -7 -13    1.43    3.82   0
   0  -7 -13  181.76    6.37   0
   0   7  13  183.65    6.32   0
   0  -7  13  164.77    4.40   0
   0   7 -13  165.56    4.49   0
   0  -7 -13  176.47    5.28   0
  -1  -7 -13   36.30    4.88   0
   1  -7  13   31.88    3.45   0
  -1  -7 -13   35.08    4.49   0
   1   7  13   42.12    5.06   0
  -1   7 -13   40.48    3.37   0
  -1  -7 -13   38.70    4.06   0
  -2  -7 -13    1.35    4.51   0
  -2   7 -13    5.08    3.18   0
   2  -7  13   -1.40    3.19   0
   2   7  13    4.54    4.58   0
  -2  -7 -13    5.46    4.14   0
   3  -7  13    3.32    3.22   0
  -3  -7 -13    1.81    4.16   0
  -3   7 -13   -2.50    3.25   0
   3   7  13   -0.93    4.27   0
  -4  -7 -13   30.67    4.49   0
   4  -7  13   33.29    3.51   0
  -4   7 -13   31.21    3.41   0
   4   7  13   36.19    5.18   0
  -5  -7 -13   -0.31    4.58   0
  -5   7 -13    2.08    2.93   0
  -5  -7 -13    0.64    4.25   0
   5   7  13   -1.88    4.29   0
   5  -7  13    0.98    3.00   0
  -6   7 -13    7.50    3.20   0
  -6  -7 -13    3.96    4.78   0
  -6  -7 -13    6.38    5.13   0
   6   7  13    6.13    4.82   0
   6  -7  13    4.77    3.37   0
  -7  -7 -13   -3.04    4.53   0
  -7  -7 -13    2.51    4.81   0
   7   7  13   -0.86    5.21   0
   7  -7  13    1.37    3.34   0
  -7   7 -13    4.38    3.53   0
  -8  -7 -13    5.17    5.53   0
  -8  -7 -13   10.48    4.93   0
   8  -7  13    5.25    3.60   0
  -8   7 -13   13.36    3.99   0
   8   7  13    3.80    5.66   0
  -8  -8  13   -3.21    4.34   0
   8  -8 -13   -2.94    4.99   0
  -8   8  13   -1.34    5.06   0
  -7  -8  13    5.52    4.06   0
  -7  -8  13   10.06    4.10   0
  -7   8  13    4.13    5.46   0
   7  -8 -13   13.74    5.26   0
   7  -8 -13   11.11    4.54   0
  -6   8  13   74.97    5.84   0
   6  -8 -13   87.91    5.76   0
   6  -8 -13   67.63    4.71   0
  -6  -8  13   78.86    4.71   0
  -6  -8  13   77.98    4.52   0
  -5   8  13  107.64    5.78   0
  -5  -8  13   99.47    4.62   0
   5  -8 -13   40.46    5.56   0
   5  -8 -13  103.10    5.84   0
  -4   8  13    2.56    4.39   0
  -4  -8  13   -0.50    3.32   0
   4  -8 -13    2.09    4.17   0
   4  -8 -13    3.28    3.86   0
   3  -8 -13    7.26    3.82   0
  -3  -8  13    2.41    3.55   0
   3  -8 -13    3.46    4.37   0
  -3  -8  13    4.32    5.81   0
  -3   8  13    8.04    4.18   0
   2  -8 -13    0.14    3.63   0
  -2  -8  13    1.63    5.15   0
   2  -8 -13    0.02    4.17   0
  -2   8  13   -1.94    4.40   0
  -2  -8  13    0.44    3.28   0
   1  -8 -13   13.69    4.16   0
  -1  -8  13   11.60    5.14   0
  -1  -8  13   21.25    3.42   0
   1  -8 -13   17.76    4.52   0
   0  -8 -13   -0.66    4.30   0
   0  -8  13    0.27    3.18   0
   0   8 -13   -0.26    3.26   0
   0  -8 -13   -2.18    3.79   0
  -1   8 -13   16.20    3.50   0
  -1  -8 -13   18.95    4.63   0
   1  -8  13   16.09    3.19   0
  -1  -8 -13   22.65    4.22   0
  -1  -8 -13   14.22    4.92   0
  -2  -8 -13   79.51    5.42   0
   2  -8  13   70.87    3.99   0
  -2   8 -13   67.06    3.89   0
   2   8  13   69.73    6.23   0
  -2  -8 -13   75.26    5.65   0
  -3   8 -13   13.19    3.40   0
   3  -8  13   16.02    3.24   0
   3   8  13   14.90    5.22   0
  -3  -8 -13   12.20    4.71   0
   4  -8  13    9.87    3.75   0
  -4  -8 -13   13.56    4.64   0
   4   8  13    2.70    4.69   0
  -4   8 -13    8.66    3.83   0
  -5  -8 -13    0.43    4.88   0
  -5   8 -13    3.72    3.68   0
   5   8  13   -3.69    4.63   0
  -5  -8 -13    3.77    4.63   0
   5  -8  13    2.59    3.18   0
  -6  -8 -13    7.71    5.11   0
  -6  -8 -13    4.18    5.11   0
  -6   8 -13    0.08    3.85   0
   6   8  13    8.56    5.12   0
   6  -8  13    6.85    3.48   0
  -7   8 -13    3.93    3.88   0
  -7  -8 -13    4.40    5.70   0
  -7  -8 -13    0.48    5.37   0
   7   8  13   -6.52    6.34   0
   7  -8  13   -2.13    3.94   0
  -6  -9  13   -1.35    4.40   0
   6  -9 -13    1.76    4.43   0
   6  -9 -13   -0.99    4.87   0
  -6  -9  13    0.49    3.87   0
  -5   9  13    3.91    4.80   0
  -5  -9  13    5.01    4.15   0
   5  -9 -13    0.88    4.76   0
   5  -9 -13    1.04    4.94   0
  -5  -9  13   -0.74    4.18   0
  -4  -9  13    0.10    3.95   0
   4  -9 -13    2.18    4.67   0
   4  -9 -13    5.30    4.67   0
  -4   9  13    0.88    4.93   0
  -3   9  13    0.15    4.97   0
  -3  -9  13    8.51    6.11   0
   3  -9 -13    5.49    4.74   0
   3  -9 -13    5.58    4.28   0
  -3  -9  13    7.19    3.96   0
   2  -9 -13    3.69    4.30   0
  -2  -9  13    0.19    4.88   0
   2  -9 -13   -1.23    4.82   0
  -2  -9  13    0.29    3.86   0
  -1  -9  13   51.91    5.65   0
  -1  -9  13   55.29    4.35   0
   1  -9 -13   55.16    4.80   0
   1  -9 -13   46.48    5.47   0
   0  -9 -13   13.28    4.57   0
   0  -9  13    5.46    3.97   0
   0  -9  13    2.77    4.93   0
   0  -9 -13    9.29    4.15   0
  -1  -9 -13   52.01    5.41   0
   1  -9  13   71.24    4.49   0
   1  -9  13   10.59    6.45   0
  -1   9 -13   67.07    4.46   0
  -1  -9 -13    0.62    6.11   0
  -2   9 -13   10.52    3.99   0
   2  -9  13    9.04    4.00   0
  -2  -9 -13   14.50    5.60   0
   3  -9  13   -0.49    3.85   0
  -3   9 -13    2.72    3.79   0
  -3  -9 -13   -2.01    5.13   0
  -4  -9 -13   42.17    5.50   0
   4  -9  13   49.65    4.34   0
  -4   9 -13   51.87    4.27   0
   4   9  13   43.89    5.65   0
  -5  -9 -13    0.76    4.70   0
  -5  -9 -13    1.62    4.96   0
   5   9  13   -0.71    5.98   0
  -5   9 -13    2.37    4.18   0
   5  -9  13    3.14    4.13   0
   2 -10 -13   11.49    4.49   0
  -2 -10  13    5.95    6.07   0
   2 -10 -13    0.59    5.31   0
  -2 -10  13    8.34    4.37   0
  -1 -10  13    3.44    5.57   0
  -1 -10  13    6.58    4.16   0
   1 -10 -13   -0.86    4.35   0
   1 -10 -13    3.82    4.89   0
   0 -10 -13    4.56    5.36   0
   0 -10  13    2.60    4.05   0
   0 -10  13    4.25    5.48   0
   0 -10 -13    6.59    4.57   0
  -1 -10 -13   -0.20    5.14   0
   1 -10  13   -1.40    4.12   0
  -1  10 -13   -4.05    4.14   0
  -1 -10 -13    2.84    5.06   0
   1 -10  13   -0.77    5.12   0
  -2 -10 -13    3.16    5.10   0
   2 -10  13   -0.88    5.97   0
  -2  10 -13   -1.37    4.28   0
 -12   0  14   81.44    5.06   0
  12   0 -14   95.12    5.10   0
 -10   0  14   58.78    4.37   0
  10   0 -14   47.33    4.39   0
  -8   0  14  326.15    5.87   0
   8   0 -14  320.73    6.04   0
  -6   0  14   42.63    3.77   0
   6   0 -14   42.79    3.91   0
  -4   0  14    8.78    3.38   0
   4   0 -14    5.53    3.53   0
  -4   0  14    7.30    5.32   0
  -2   0  14  796.83    9.77   0
  -2   0  14  822.15   11.08   0
  -2   0  14  828.50   11.31   0
   0   0  14    4.80    4.04   0
   2   0  14 1168.69   12.08   0
  -4   0 -14   46.15    3.83   0
   4   0  14   46.60    3.80   0
   6   0  14  519.63    6.93   0
  -6   0 -14  568.26    6.94   0
   8   0  14  294.18    5.93   0
  -8   0 -14  312.33    5.82   0
  10   0  14    9.31    3.84   0
 -10   0 -14   10.25    3.92   0
  12   0  14    2.02    4.16   0
 -12   0 -14    0.46    4.29   0
 -12   1  14    0.36    4.35   0
 -12  -1  14   -1.48    4.25   0
  12  -1 -14   -2.40    5.23   0
  12   1 -14   -0.64    5.48   0
  12  -1 -14   -1.30    4.19   0
  11   1 -14    0.96    5.16   0
 -11  -1  14   -3.02    4.04   0
  11  -1 -14   -3.38    5.11   0
 -11   1  14    2.48    3.86   0
  11  -1 -14    0.71    4.14   0
 -10  -1  14   40.46    4.11   0
  10  -1 -14   39.37    4.32   0
 -10   1  14   40.78    4.35   0
  10   1 -14   28.29    5.90   0
  10  -1 -14   34.39    4.53   0
  -9   1  14   18.76    3.75   0
  -9  -1  14   21.72    3.61   0
   9  -1 -14   15.12    4.53   0
   9   1 -14   10.93    4.97   0
   9  -1 -14   13.95    3.78   0
  -8  -1  14    0.49    3.57   0
  -8   1  14    1.47    4.01   0
   8  -1 -14    1.81    3.81   0
   8   1 -14    1.35    5.02   0
   8  -1 -14    2.87    3.67   0
  -7  -1  14  118.72    4.68   0
  -7   1  14  119.58    4.43   0
   7  -1 -14  119.98    5.22   0
   7   1 -14  109.70    6.67   0
   7  -1 -14  109.37    4.52   0
  -6  -1  14   30.86    3.65   0
  -6   1  14   34.68    3.77   0
   6  -1 -14   35.97    4.42   0
   6   1 -14   38.48    4.62   0
   6  -1 -14   35.54    4.00   0
  -5  -1  14  174.65    4.93   0
  -5   1  14  179.91    5.22   0
   5  -1 -14  187.81    5.51   0
   5  -1 -14  180.51    6.03   0
  -4  -1  14    5.07    3.37   0
  -4   1  14    5.16    3.66   0
  -4  -1  14    6.17    4.72   0
  -4   1  14   10.53    4.84   0
   4  -1 -14    8.28    3.92   0
   4  -1 -14    6.89    3.46   0
  -3   1  14   52.69    4.58   0
  -3   1  14   53.47    4.58   0
  -3  -1  14   52.97    4.95   0
   3  -1 -14   50.89    4.11   0
  -3  -1  14   52.29    4.46   0
  -2   1  14   88.60    5.66   0
  -2   1  14   82.94    5.16   0
  -2  -1  14   90.31    4.54   0
  -2  -1  14   88.79    4.76   0
  -1   1  14    7.37    5.05   0
  -1   1  14    4.64    3.72   0
  -1   1  14    7.17    5.30   0
  -1  -1  14    6.53    3.87   0
   0   1  14 1041.23   18.89   0
   0   1 -14 1041.16   11.17   0
   0  -1  14 1014.90   11.22   0
   0   1  14 1004.57    9.66   0
  -1  -1 -14  318.40    9.72   0
   1   1  14  317.85    9.62   0
   1  -1  14  305.94    6.40   0
  -1   1 -14  318.45    6.56   0
   2  -1  14   95.21    4.30   0
   2   1  14   98.55    5.93   0
  -2   1 -14   96.48    4.41   0
   3   1  14  503.04    8.83   0
  -3   1 -14  527.34    7.31   0
   3  -1  14  496.60    7.51   0
  -4   1 -14  298.76    5.71   0
   4   1  14  285.04    6.46   0
   4  -1  14  285.92    5.72   0
  -4  -1 -14  310.90    6.19   0
  -5   1 -14  347.18    6.24   0
   5   1  14  343.97    6.32   0
   5  -1  14  340.99    5.86   0
  -5  -1 -14  349.10    6.72   0
  -6   1 -14   33.63    3.82   0
   6   1  14   39.04    3.75   0
   6  -1  14   33.72    3.77   0
  -6  -1 -14   37.31    3.72   0
  -7   1 -14    8.09    3.37   0
   7   1  14    9.57    3.53   0
   7  -1  14   10.16    3.46   0
  -7  -1 -14   13.17    3.54   0
  -8   1 -14    4.58    3.56   0
   8   1  14   -0.43    3.70   0
   8  -1  14    2.05    3.70   0
  -8  -1 -14    0.54    3.48   0
  -9   1 -14    1.29    3.63   0
  -9  -1 -14    0.86    3.67   0
   9   1  14    1.92    3.63   0
   9  -1  14    1.44    3.74   0
 -10   1 -14    0.33    3.76   0
  10   1  14   -2.00    3.91   0
  10  -1  14    2.99    3.55   0
 -10  -1 -14   -2.08    3.84   0
 -11   1 -14   -0.01    4.11   0
  11   1  14    1.69    4.00   0
  11  -1  14   -0.13    4.00   0
 -11  -1 -14   -0.03    3.90   0
 -12   1 -14    2.01    4.52   0
  12   1  14   -0.26    4.21   0
  12  -1  14   -3.95    4.48   0
 -12  -1 -14    7.51    4.35   0
  12  -2 -14    3.82    4.28   0
 -12  -2  14    6.75    3.97   0
  12  -2 -14   10.98    4.64   0
 -12   2  14    1.70    4.33   0
  12   2 -14    3.20    8.16   0
  11  -2 -14    9.29    4.15   0
 -11   2  14    7.97    4.02   0
 -11  -2  14    5.32    3.56   0
  11  -2 -14    5.04    5.41   0
  11   2 -14    8.42    7.51   0
  10  -2 -14   83.61    4.94   0
 -10  -2  14   80.01    4.17   0
  10  -2 -14   82.24    5.61   0
 -10   2  14   67.70    4.82   0
  10   2 -14   81.80    7.82   0
   9  -2 -14    1.72    4.09   0
  -9  -2  14    6.95    3.23   0
  -9   2  14    2.46    3.54   0
   9  -2 -14    8.57    4.12   0
   9   2 -14    5.46    6.44   0
   8  -2 -14  176.34    5.70   0
  -8  -2  14  165.37    4.72   0
   8  -2 -14  172.43    5.57   0
  -8   2  14  180.84    5.27   0
   7  -2 -14   77.62    4.23   0
  -7  -2  14   74.35    3.84   0
  -7   2  14   75.92    4.23   0
   7  -2 -14   77.33    5.29   0
   6  -2 -14  218.65    5.55   0
  -6   2  14  217.69    5.32   0
  -6  -2  14  216.65    4.99   0
   6  -2 -14  235.70    5.92   0
   5  -2 -14    5.04    3.82   0
   5  -2 -14    4.89    4.10   0
  -5   2  14    6.24    3.62   0
  -5  -2  14    6.05    2.93   0
   4  -2 -14   12.71    3.91   0
  -4   2  14   12.15    4.58   0
  -4   2  14   10.27    3.74   0
   4  -2 -14   11.63    3.89   0
  -4  -2  14   11.07    6.06   0
  -4  -2  14   11.37    3.26   0
  -3   2  14    0.72    3.77   0
  -3   2  14    0.59    3.87   0
  -3  -2  14   -0.45    3.27   0
   3  -2 -14    2.70    3.24   0
  -3  -2  14    0.22    4.47   0
   3  -2 -14    0.63    4.39   0
  -2  -2  14   76.07    4.14   0
  -2   2  14   79.50    6.54   0
   2  -2 -14   82.83    4.19   0
  -2   2  14   76.36    4.40   0
   1   2 -14  328.24    6.36   0
  -1  -2  14  325.18    6.55   0
  -1   2  14  303.33    5.89   0
   0   2 -14  184.24    5.17   0
   0   2  14  168.78    4.76   0
   0  -2  14  162.03    4.95   0
   1  -2  14   78.69    4.10   0
  -1   2 -14   78.10    4.19   0
  -1  -2 -14   81.34   11.39   0
   1   2  14   67.51    3.83   0
  -2   2 -14   74.27    4.45   0
  -2  -2 -14   77.06    6.02   0
   2   2  14   72.49    6.11   0
   2  -2  14   73.44    3.87   0
   3   2  14   -0.85    3.71   0
   3  -2  14    0.60    2.93   0
  -3   2 -14    2.07    3.04   0
   4   2  14  358.37    7.30   0
  -4   2 -14  373.46    5.91   0
   4  -2  14  372.16    5.92   0
   5   2  14   13.51    3.75   0
  -5   2 -14   15.93    3.31   0
   5  -2  14   14.36    3.19   0
  -5  -2 -14   18.26    3.73   0
   6   2  14   15.90    3.62   0
  -6   2 -14   10.04    3.48   0
   6  -2  14   11.96    3.41   0
  -6  -2 -14   13.49    3.45   0
   7   2  14    0.36    3.31   0
  -7   2 -14   -1.31    3.54   0
   7  -2  14    2.18    3.48   0
  -7  -2 -14    0.64    3.93   0
   8   2  14    5.97    3.64   0
  -8   2 -14    3.46    3.51   0
   8  -2  14    4.08    3.61   0
  -8  -2 -14    0.30    3.64   0
  -9   2 -14    5.68    3.72   0
   9  -2  14    5.48    3.45   0
  -9  -2 -14    5.86    3.92   0
   9   2  14    3.79    4.02   0
  10   2  14    3.82    4.05   0
 -10   2 -14    6.77    3.94   0
  10  -2  14    7.18    4.07   0
 -10  -2 -14    8.88    4.05   0
  11   2  14    2.19    4.65   0
 -11   2 -14    7.31    3.81   0
  11  -2  14    9.25    3.95   0
 -11  -2 -14    8.98    4.37   0
  12  -3 -14   -1.69    4.39   0
 -12  -3  14   -3.78    4.31   0
 -12   3  14   -2.63    4.11   0
  11  -3 -14   18.13    4.85   0
 -11  -3  14   20.56    3.58   0
  11  -3 -14   19.68    4.49   0
 -11   3  14   25.24    4.71   0
  10  -3 -14    1.90    4.02   0
 -10  -3  14    3.95    3.56   0
  10  -3 -14    3.59    4.27   0
 -10   3  14    0.64    3.96   0
   9  -3 -14    0.83    4.34   0
  -9  -3  14    0.54    3.19   0
   9  -3 -14   -1.18    4.28   0
  -9   3  14    3.01    3.75   0
   8  -3 -14  182.09    5.26   0
  -8  -3  14  175.19    4.78   0
  -8   3  14  187.70    5.59   0
   8  -3 -14  208.56    5.58   0
  -7  -3  14   84.99    3.95   0
   7  -3 -14   94.24    4.60   0
   7  -3 -14   90.59    5.35   0
  -7   3  14   87.96    4.64   0
   6  -3 -14    3.37    3.44   0
  -6  -3  14    4.23    2.91   0
   6  -3 -14    6.29    4.43   0
  -6   3  14    6.45    3.12   0
   5  -3 -14   43.34    4.29   0
   5  -3 -14   50.43    4.57   0
  -5   3  14   47.20    3.64   0
  -5  -3  14   47.38    3.46   0
  -4  -3  14    4.82    8.23   0
   4  -3 -14    4.98    3.78   0
  -4  -3  14    3.70    2.94   0
   4  -3 -14    7.24    3.23   0
  -4   3  14    2.75    3.51   0
  -4  -3  14    2.08    3.02   0
  -3   3  14  349.41    8.59   0
  -3   3  14  349.58    6.19   0
   3  -3 -14  362.28    8.46   0
   3  -3 -14  370.81    6.12   0
  -3  -3  14  359.46    9.62   0
  -3  -3  14  338.22    5.78   0
   2  -3 -14    9.66    5.13   0
   2  -3 -14    9.01    3.00   0
  -2   3  14    9.25    5.00   0
  -2  -3  14   11.41    3.34   0
  -2   3  14    7.59    3.58   0
   1   3 -14    1.38    3.07   0
  -1  -3  14    0.99    3.04   0
  -1   3  14    3.59    3.44   0
   1  -3 -14    2.10    3.13   0
   0   3  14  175.82    4.62   0
   0   3 -14  161.84    4.72   0
   0  -3  14  159.41    4.49   0
  -1   3 -14   30.65    3.34   0
   1  -3  14   31.11    3.34   0
   1   3  14   28.95    3.43   0
  -2   3 -14  156.79    4.41   0
   2  -3  14  151.22    4.31   0
  -2  -3 -14  157.03    7.73   0
   2   3  14  152.48    4.53   0
   3  -3  14  713.21    7.33   0
  -3  -3 -14  761.08   11.19   0
  -3   3 -14  717.99    7.30   0
   3   3  14  715.56    7.65   0
  -4   3 -14   70.74    3.57   0
   4  -3  14   64.77    3.42   0
   4   3  14   67.36    4.92   0
  -5   3 -14   96.14    3.80   0
  -5  -3 -14  120.44    4.60   0
   5  -3  14  111.06    3.99   0
   5   3  14  108.49    5.19   0
   6   3  14   15.34    4.03   0
  -6   3 -14   14.11    3.35   0
   6  -3  14   16.38    3.24   0
  -6  -3 -14   18.47    3.34   0
   7   3  14  181.98    5.17   0
  -7   3 -14  182.20    4.84   0
   7  -3  14  171.88    4.78   0
  -7  -3 -14  199.23    5.14   0
  -8   3 -14    8.78    3.56   0
   8  -3  14    7.10    3.18   0
  -8  -3 -14   11.55    3.68   0
   8   3  14   14.25    3.85   0
  -9   3 -14   15.25    3.54   0
   9  -3  14    8.04    3.39   0
  -9  -3 -14   13.08    4.34   0
   9   3  14    9.90    4.03   0
 -10   3 -14    5.30    3.88   0
  10  -3  14   -2.47    3.77   0
 -10  -3 -14   -1.48    3.98   0
  10   3  14    3.06    4.17   0
 -11   3 -14    1.37    3.89   0
  11  -3  14    0.90    3.90   0
 -11  -3 -14    5.45    4.26   0
  11   3  14    3.67    4.33   0
  11  -4 -14   -1.30    4.15   0
 -11  -4  14    0.74    3.99   0
  11  -4 -14    4.82    4.67   0
 -11   4  14    5.33    4.20   0
  10  -4 -14   18.54    4.24   0
 -10  -4  14   28.89    4.28   0
  10  -4 -14   24.24    4.85   0
 -10   4  14   24.32    4.08   0
   9  -4 -14   -3.39    3.71   0
  -9  -4  14    5.87    3.31   0
   9  -4 -14    1.88    4.48   0
  -9   4  14   -2.76    3.58   0
  -8  -4  14   25.74    3.38   0
   8  -4 -14   22.73    3.82   0
   8  -4 -14   31.52    4.59   0
  -8   4  14   28.67    3.86   0
  -7  -4  14   53.83    3.63   0
   7  -4 -14   53.05    4.63   0
  -7   4  14   60.29    4.42   0
   7  -4 -14   55.82    4.74   0
  -6  -4  14   50.31    3.38   0
  -6   4  14   44.21    4.07   0
   6  -4 -14   49.46    4.18   0
   6  -4 -14   56.13    4.75   0
  -6  -4  14   59.09    3.60   0
  -5   4  14   79.05    4.93   0
   5  -4 -14   74.53    4.21   0
   5  -4 -14   79.33    4.41   0
  -5  -4  14   76.00    3.82   0
  -5  -4  14   69.30    3.81   0
  -4   4  14  498.33    8.50   0
   4  -4 -14  490.33    8.51   0
   4  -4 -14  543.31    7.13   0
  -4  -4  14  511.90    6.38   0
  -3   4  14   -0.95    4.17   0
  -3  -4  14    1.33    2.97   0
   3  -4 -14    1.20    4.00   0
   3  -4 -14    3.76    3.24   0
  -3   4  14    1.20    3.60   0
  -2   4  14   79.32    4.32   0
   2  -4 -14   89.00    6.02   0
  -2  -4  14   82.61    3.78   0
  -2   4  14   84.39    6.37   0
   2  -4 -14   91.93    3.84   0
  -1   4  14  123.50    4.41   0
  -1  -4  14  138.16    4.11   0
   1  -4 -14  134.79    9.42   0
   1   4 -14  124.93    4.04   0
   1  -4 -14  132.52    4.18   0
   0  -4 -14  701.31   23.76   0
   0  -4  14  655.50    7.00   0
   0   4  14  630.64    7.47   0
   0   4 -14  650.39    7.07   0
   0  -4 -14  683.57   22.69   0
   0  -4 -14  666.27    7.24   0
  -1  -4 -14  139.65    9.38   0
  -1  -4 -14  137.37    9.15   0
   1  -4  14  130.35    4.08   0
   1   4  14  132.05    4.42   0
  -1   4 -14  132.46    4.12   0
   2  -4  14  101.04    3.84   0
  -2  -4 -14  101.54    6.60   0
  -2  -4 -14  107.19    6.40   0
  -2   4 -14  104.55    3.87   0
   2   4  14  107.03    4.12   0
  -3   4 -14   24.71    3.21   0
   3  -4  14   23.83    3.05   0
  -3  -4 -14   25.54    4.44   0
   3   4  14   21.81    3.82   0
   4   4  14   74.86    4.59   0
  -4   4 -14   76.58    3.59   0
   4  -4  14   70.03    3.79   0
  -5   4 -14   61.95    3.51   0
   5  -4  14   58.57    3.33   0
   5   4  14   59.00    4.21   0
  -6  -4 -14  386.75    6.92   0
  -6   4 -14  339.33    5.53   0
   6  -4  14  325.01    5.66   0
   6   4  14  346.34    6.99   0
  -7   4 -14   14.73    3.36   0
  -7  -4 -14   12.04    4.30   0
   7  -4  14   15.20    3.17   0
   8   4  14   47.91    4.68   0
  -8   4 -14   54.68    3.71   0
  -8  -4 -14   54.00    4.54   0
   8  -4  14    8.55    3.66   0
  -9   4 -14   43.88    3.98   0
   9  -4  14   45.62    4.15   0
  -9  -4 -14   48.78    4.33   0
   9   4  14   43.11    4.96   0
 -10   4 -14    1.52    3.82   0
  10  -4  14    2.85    3.85   0
 -10  -4 -14    2.06    4.34   0
  10   4  14    0.24    3.95   0
  11   4  14    7.99    5.07   0
  11  -4  14    5.38    4.43   0
 -11   4 -14   17.66    4.43   0
 -11  -4 -14   25.00    5.41   0
 -10   5  14   -3.73    3.98   0
  10  -5 -14    3.25    4.47   0
 -10  -5  14   -3.17    3.41   0
  10  -5 -14   -1.95    4.76   0
  -9   5  14   10.33    4.99   0
  -9  -5  14   55.04    4.09   0
   9  -5 -14   64.69    4.39   0
   9  -5 -14   63.62    4.86   0
  -8  -5  14   23.03    3.63   0
  -8   5  14    2.02    4.44   0
   8  -5 -14   27.53    4.62   0
  -8  -5  14   20.10    3.49   0
   8  -5 -14   21.54    4.38   0
  -7  -5  14    5.73    3.35   0
  -7   5  14    8.15    3.69   0
   7  -5 -14    7.47    3.99   0
  -7  -5  14    5.14    3.18   0
   7  -5 -14    7.58    3.70   0
   6  -5 -14  207.76    5.53   0
  -6   5  14  210.01    5.80   0
  -6  -5  14  210.42    4.80   0
   6  -5 -14  205.05    5.46   0
  -6  -5  14  207.01    4.87   0
   5  -5 -14  110.54    4.62   0
   5  -5 -14   93.33    4.75   0
  -5   5  14   97.08    4.82   0
  -5  -5  14   97.29    3.66   0
  -5  -5  14  101.39    3.87   0
  -4   5  14   35.44    4.69   0
  -4  -5  14   38.86    3.39   0
   4  -5 -14   33.69    4.42   0
   4  -5 -14   37.20    4.23   0
  -3   5  14    1.85    4.68   0
   3  -5 -14   -0.12    4.39   0
   3  -5 -14   -1.00    3.51   0
  -3  -5  14    1.05    3.21   0
  -2   5  14  727.33   12.18   0
  -2  -5  14  733.95    7.38   0
   2  -5 -14  757.31    7.72   0
   2  -5 -14  745.08   12.07   0
  -2   5  14  698.03    7.99   0
  -1  -5  14  359.28    5.62   0
   1   5 -14  352.12    5.55   0
  -1   5  14  344.89    6.31   0
   1  -5 -14  369.29   10.01   0
   1  -5 -14  382.48    5.89   0
   0   5 -14  218.00    4.63   0
   0  -5 -14  240.67    8.85   0
   0   5  14  218.59    5.28   0
   0  -5  14  237.83    4.89   0
   0  -5 -14  220.53    4.93   0
   0  -5 -14  236.88    9.66   0
  -1   5 -14  220.80    4.61   0
  -1  -5 -14  239.56    9.08   0
  -1  -5 -14  232.95    8.31   0
   1  -5  14  229.74    4.77   0
   1   5  14  218.36    5.83   0
  -2   5 -14   22.29    3.36   0
  -2  -5 -14   32.22    4.93   0
   2  -5  14   28.30    3.36   0
  -2  -5 -14   27.43    4.77   0
   2   5  14   34.50    4.44   0
   3  -5  14   -1.09    2.78   0
  -3  -5 -14    3.63    4.76   0
  -3   5 -14   -0.46    2.96   0
  -3  -5 -14    0.53    4.33   0
   3   5  14    1.27    4.55   0
   4  -5  14  105.37    3.76   0
  -4   5 -14  101.62    3.77   0
  -4  -5 -14  109.86    5.80   0
   4   5  14   92.14    5.34   0
   5  -5  14  179.72    4.50   0
   5   5  14  175.21    5.48   0
  -5   5 -14  179.55    4.68   0
  -6  -5 -14   94.61    5.00   0
   6  -5  14   77.86    3.79   0
  -6   5 -14   81.70    3.80   0
   6   5  14   92.49    5.11   0
  -7   5 -14    7.83    3.29   0
  -7  -5 -14   13.84    4.28   0
   7  -5  14    6.61    2.99   0
   7   5  14   15.91    4.64   0
  -8  -5 -14    9.09    4.44   0
   8  -5  14    7.01    3.37   0
  -8   5 -14   10.16    3.27   0
   8   5  14    5.31    4.04   0
   9   5  14    7.76    4.87   0
  -9  -5 -14    7.27    4.08   0
  -9   5 -14   10.54    3.86   0
   9  -5  14    9.96    3.54   0
  10  -5  14   -3.42    3.97   0
 -10   5 -14    3.10    3.86   0
 -10  -5 -14   -3.90    4.34   0
  10   5  14   -3.47    4.47   0
 -10  -6  14    2.63    4.03   0
 -10  -6  14   -0.52    3.89   0
  10  -6 -14    2.70    4.30   0
 -10   6  14    2.11    4.44   0
  10  -6 -14    5.54    4.90   0
  -9  -6  14   12.07    3.94   0
   9  -6 -14    1.47    4.56   0
   9  -6 -14   14.61    4.66   0
  -9   6  14   -2.04    4.38   0
  -9  -6  14   11.27    3.65   0
  -8  -6  14   42.20    4.03   0
   8  -6 -14   24.39    4.77   0
  -8   6  14   29.86    4.36   0
   8  -6 -14   23.17    4.49   0
  -8  -6  14   28.41    3.85   0
  -7  -6  14   71.25    4.09   0
  -7  -6  14   76.12    4.22   0
   7  -6 -14   83.01    5.23   0
  -7   6  14   81.60    4.80   0
   7  -6 -14   81.00    4.44   0
   6  -6 -14    2.10    3.98   0
   6  -6 -14   -4.14    3.55   0
  -6   6  14    0.27    3.89   0
  -6  -6  14    0.01    3.40   0
  -6  -6  14   -1.98    3.35   0
  -5  -6  14   21.46    3.49   0
   5  -6 -14   22.28    4.18   0
  -5   6  14   21.50    3.96   0
  -5  -6  14   10.85    3.55   0
   5  -6 -14   24.94    4.10   0
  -4   6  14    2.63    3.81   0
   4  -6 -14    5.69    3.97   0
   4  -6 -14    9.63    3.75   0
  -4  -6  14    3.82    2.96   0
   3  -6 -14  480.04    9.15   0
  -3  -6  14  458.79   12.33   0
  -3   6  14  476.07    9.13   0
  -3  -6  14  461.38    5.94   0
   3  -6 -14  506.69    6.68   0
  -2   6  14  299.09    8.29   0
  -2  -6  14  294.73    4.85   0
   2  -6 -14  306.22    8.30   0
   2  -6 -14  317.54    5.59   0
   1   6 -14  212.00    4.44   0
  -1   6  14  190.19    5.76   0
   1  -6 -14  205.95    4.96   0
   1  -6 -14  215.22    7.42   0
  -1  -6  14  207.99    4.45   0
   0  -6 -14   10.95    4.81   0
   0   6 -14   10.89    2.91   0
   0   6  14    8.61    4.60   0
   0  -6  14    3.19    3.01   0
   0  -6 -14   13.04    3.26   0
  -1  -6 -14    2.73    4.96   0
  -1   6 -14    2.62    2.81   0
  -1  -6 -14    2.05    4.37   0
   1  -6  14   -1.14    2.84   0
   1   6  14    6.55    4.59   0
  -2  -6 -14  184.85    7.66   0
   2  -6  14  183.98    4.26   0
   2   6  14  172.70    5.53   0
  -2   6 -14  161.13    3.93   0
  -2  -6 -14  173.33    6.72   0
   3  -6  14    6.65    2.92   0
  -3  -6 -14    8.00    4.40   0
  -3  -6 -14    5.83    4.24   0
  -3   6 -14    6.70    2.95   0
   3   6  14    8.15    4.31   0
   4  -6  14    2.45    2.97   0
  -4   6 -14    3.09    3.38   0
  -4  -6 -14    4.18    3.99   0
   4   6  14    5.53    3.97   0
  -5  -6 -14   31.85    4.08   0
  -5   6 -14   29.77    3.26   0
   5   6  14   27.95    4.14   0
   5  -6  14   24.16    3.39   0
   6  -6  14   74.47    3.87   0
  -6  -6 -14   85.61    5.28   0
   6   6  14   78.86    5.48   0
  -6   6 -14   72.45    3.79   0
  -7  -6 -14    3.55    5.20   0
   7   6  14   -0.86    4.53   0
   7  -6  14    0.99    3.24   0
  -7   6 -14    2.85    3.25   0
   8   6  14    3.86    4.90   0
  -8  -6 -14   10.89    4.62   0
   8  -6  14    4.76    3.82   0
  -8   6 -14    6.80    3.74   0
  -9  -6 -14   35.15    4.92   0
   9  -6  14   10.12    4.25   0
  -9   6 -14   34.21    4.25   0
   9   6  14   37.80    5.93   0
  -9  -7  14   16.21    4.49   0
  -9  -7  14   36.94    4.63   0
   9  -7 -14    4.13    4.90   0
  -9   7  14    4.03    5.60   0
  -8  -7  14    5.87    3.82   0
   8  -7 -14    5.17    4.98   0
  -8   7  14    0.51    4.81   0
  -8  -7  14    9.84    3.80   0
  -7  -7  14    4.51    3.67   0
   7  -7 -14   16.16    4.44   0
  -7  -7  14   20.51    3.74   0
  -7   7  14    7.66    5.31   0
  -6  -7  14    1.18    3.48   0
   6  -7 -14    0.71    3.90   0
  -6  -7  14    2.71    3.34   0
   6  -7 -14   -5.24    3.99   0
  -6   7  14    0.35    4.39   0
  -5   7  14    2.06    4.46   0
   5  -7 -14    5.16    4.64   0
   5  -7 -14    2.64    4.01   0
  -5  -7  14    3.58    3.36   0
  -4   7  14   -0.42    4.48   0
   4  -7 -14   -2.86    4.29   0
  -4  -7  14   -2.55    3.34   0
  -3  -7  14  103.81    4.18   0
  -3   7  14  104.74    5.88   0
  -3  -7  14   98.08    7.90   0
   3  -7 -14  106.04    5.55   0
   3  -7 -14  103.57    4.52   0
  -2  -7  14  254.41    5.11   0
  -2  -7  14  254.10    8.86   0
   2  -7 -14  282.48    7.65   0
  -2   7  14  276.13    7.58   0
   2  -7 -14  258.44    5.56   0
  -1  -7  14    2.95    3.02   0
   1  -7 -14    4.34    3.88   0
   1  -7 -14    5.07    4.25   0
   0  -7 -14    9.81    4.50   0
   0  -7  14   11.14    3.22   0
   0   7 -14   -0.23    3.21   0
   0  -7 -14    6.85    3.81   0
   0   7  14   10.07    4.81   0
   1   7  14  119.65    5.83   0
  -1  -7 -14  116.13    5.96   0
   1  -7  14  109.04    3.98   0
  -1   7 -14  107.75    4.09   0
  -1  -7 -14  134.56    6.86   0
  -2  -7 -14   88.68    6.14   0
  -2   7 -14   79.51    3.89   0
   2  -7  14   79.33    3.76   0
   2   7  14   82.23    5.14   0
  -2  -7 -14   90.80    5.71   0
  -3  -7 -14    5.31    4.95   0
   3  -7  14    5.24    3.25   0
  -3  -7 -14    8.65    4.57   0
   3   7  14    4.74    4.45   0
  -3   7 -14    5.46    3.40   0
   4  -7  14   14.47    3.62   0
  -4   7 -14   17.35    3.43   0
   4   7  14   13.23    4.46   0
  -4  -7 -14   13.15    4.69   0
   5   7  14   36.37    4.56   0
  -5  -7 -14   35.21    5.13   0
  -5   7 -14   26.66    3.63   0
   5  -7  14   30.60    3.31   0
  -6   7 -14   20.52    3.64   0
  -6  -7 -14   23.99    4.88   0
   6   7  14   15.25    4.35   0
   6  -7  14   15.71    3.63   0
  -6  -7 -14   20.51    4.37   0
  -7   7 -14   10.14    3.46   0
  -7  -7 -14    0.50    5.48   0
  -7  -7 -14    2.14    5.28   0
   7   7  14    4.26    4.68   0
   7  -7  14    9.19    3.50   0
  -8  -7 -14   81.73    5.75   0
   8  -7  14   60.18    4.37   0
   8   7  14   54.36    6.34   0
  -8  -7 -14   67.13    6.32   0
  -8   7 -14   67.45    4.26   0
  -7  -8  14    4.18    3.81   0
  -7  -8  14    3.24    4.17   0
  -7   8  14   -5.78    4.99   0
   7  -8 -14    7.61    5.22   0
   7  -8 -14    6.01    4.57   0
  -6   8  14    0.10    5.20   0
   6  -8 -14    2.17    4.65   0
   6  -8 -14   -0.77    4.07   0
  -6  -8  14   -0.70    3.47   0
  -6  -8  14    0.59    3.90   0
   5  -8 -14   49.88    5.03   0
   5  -8 -14   41.60    4.85   0
  -5  -8  14   41.09    4.12   0
  -5   8  14   44.92    5.36   0
  -4   8  14    2.01    4.62   0
  -4  -8  14    2.66    3.89   0
   4  -8 -14    2.20    4.50   0
   4  -8 -14    5.67    4.31   0
  -3  -8  14    2.06    3.45   0
  -3   8  14    1.43    4.31   0
  -3  -8  14    5.91    5.78   0
   3  -8 -14    0.43    3.78   0
   3  -8 -14    0.76    4.26   0
  -2  -8  14   11.77    5.42   0
   2  -8 -14    9.74    4.53   0
   2  -8 -14   10.61    3.63   0
  -2  -8  14    6.04    3.40   0
  -1  -8  14   -1.02    4.95   0
  -1  -8  14   -2.10    3.28   0
   1  -8 -14    0.50    3.88   0
   1  -8 -14   -1.97    4.39   0
   0  -8 -14   73.64    5.57   0
   0   8 -14   67.26    3.99   0
   0  -8  14   69.52    3.66   0
   0  -8 -14   86.55    4.54   0
  -1   8 -14    2.25    3.43   0
  -1  -8 -14    7.68    4.55   0
   1  -8  14    9.16    3.38   0
   1   8  14    8.33    5.03   0
  -1  -8 -14    3.05    4.90   0
  -2  -8 -14   75.63    6.42   0
   2  -8  14   87.64    4.09   0
   2   8  14   71.29    5.80   0
  -2   8 -14   80.16    3.92   0
  -2  -8 -14   74.98    5.91   0
  -3   8 -14   45.38    4.08   0
  -3  -8 -14   66.22    5.75   0
   3  -8  14   57.69    4.02   0
   3   8  14   54.60    5.40   0
  -3  -8 -14   58.81    5.39   0
  -4  -8 -14    0.22    4.90   0
   4   8  14    3.29    4.54   0
   4  -8  14   -0.15    3.63   0
  -4   8 -14    0.58    3.57   0
   5  -8  14   -2.08    3.66   0
   5   8  14    0.54    4.71   0
  -5   8 -14    1.19    3.32   0
  -5  -8 -14    5.60    4.77   0
  -6  -8 -14    0.87    4.90   0
   6   8  14    0.50    4.81   0
  -6  -8 -14    1.94    5.07   0
  -6   8 -14    4.74    3.95   0
   6  -8  14    3.04    3.41   0
  -7   8 -14   10.29    4.13   0
  -7  -8 -14    3.48    5.00   0
  -7  -8 -14    1.76    4.95   0
   7   8  14    9.30    5.67   0
   7  -8  14    4.05    3.77   0
  -5   9  14   -0.62    5.05   0
  -5  -9  14    2.23    4.13   0
   5  -9 -14   -0.07    5.14   0
   5  -9 -14    2.86    4.72   0
  -5  -9  14   -1.64    4.15   0
  -4   9  14   -2.39    5.14   0
  -4  -9  14    2.47    3.48   0
   4  -9 -14    0.93    5.02   0
   4  -9 -14    4.69    4.47   0
  -3   9  14    3.09    5.17   0
   3  -9 -14   -1.71    5.12   0
   3  -9 -14    6.77    3.86   0
  -3  -9  14    3.66    6.24   0
  -3  -9  14    4.86    4.12   0
  -2  -9  14    2.21    5.18   0
   2  -9 -14    6.43    5.10   0
  -2  -9  14    6.48    3.99   0
   2  -9 -14    7.71    4.32   0
  -1  -9  14   15.03    4.33   0
   1  -9 -14    2.49    4.48   0
   1  -9 -14   12.23    4.51   0
  -1  -9  14   13.50    5.86   0
   0  -9 -14   54.25    5.57   0
   0  -9  14    1.93    6.40   0
   0  -9  14   63.10    4.72   0
   0  -9 -14   61.71    5.04   0
  -1  -9 -14    1.24    5.01   0
   1  -9  14    0.53    4.09   0
  -1   9 -14   -0.86    3.63   0
  -1  -9 -14    1.38    4.99   0
  -2  -9 -14  166.13    7.53   0
  -2   9 -14  152.54    5.30   0
   2  -9  14  156.40    5.29   0
  -2  -9 -14   88.04    7.41   0
  -3  -9 -14    0.99    5.29   0
   3  -9  14   -1.10    3.75   0
  -3   9 -14    4.17    3.91   0
  -3  -9 -14   -0.55    4.94   0
   4  -9  14    8.26    3.92   0
  -4   9 -14    8.19    3.81   0
   4   9  14   -2.87    5.25   0
  -4  -9 -14    0.37    4.72   0
  -5  -9 -14    4.18    5.13   0
   5   9  14    4.79    5.46   0
  -5   9 -14    1.38    4.11   0
   5  -9  14    2.41    4.14   0
   1 -10 -14    6.52    4.49   0
  -1 -10  14    6.32    5.82   0
  -1 -10  14    8.27    4.40   0
   1 -10 -14    4.75    5.40   0
   0 -10 -14   -0.09    5.47   0
   0 -10  14    3.53    4.34   0
   0 -10  14    1.31    6.09   0
   0 -10 -14    1.98    4.47   0
   1 -10  14    1.93    5.17   0
  -1 -10 -14   -2.06    5.46   0
   1 -10  14    2.94    4.30   0
  -1 -10 -14    0.27    5.63   0
 -11   0  15    4.59    4.30   0
  11   0 -15    2.02    4.23   0
  -9   0  15    3.27    3.70   0
   9   0 -15    5.88    3.85   0
  -7   0  15  133.96    4.63   0
   7   0 -15  130.81    4.82   0
  -5   0  15    1.05    3.89   0
   5   0 -15    0.48    3.22   0
  -3   0  15   52.76    4.14   0
  -3   0  15   42.12    4.27   0
  -1   0  15  281.91    7.42   0
  -1   0  15  286.60    6.45   0
   1   0  15  270.82    7.15   0
  -3   0 -15  640.81    8.89   0
   3   0  15  626.83    8.54   0
  -5   0 -15  116.83    4.43   0
   5   0  15  107.28    4.95   0
   7   0  15  194.16    5.55   0
  -7   0 -15  199.80    5.08   0
   9   0  15    2.76    4.04   0
  -9   0 -15    4.15    4.09   0
  11   0  15    3.14    4.08   0
 -11   0 -15    2.90    4.19   0
 -12  -1  15    4.35    4.31   0
  12   1 -15   -0.10    5.66   0
 -12   1  15   -1.05    4.29   0
  12  -1 -15   -0.21    4.31   0
  12  -1 -15    1.69    5.57   0
  11  -1 -15    8.65    4.66   0
 -11  -1  15    8.44    3.88   0
 -11   1  15    4.87    4.12   0
  11   1 -15    8.31    4.82   0
  11  -1 -15    4.70    4.15   0
 -10  -1  15   10.81    3.99   0
  10   1 -15    7.46    5.20   0
 -10   1  15    8.84    4.23   0
  10  -1 -15    9.19    4.24   0
  10  -1 -15    2.34    4.53   0
  -9  -1  15    0.53    3.62   0
  -9   1  15   -0.15    3.51   0
   9  -1 -15   -1.11    4.20   0
   9   1 -15   -1.74    4.55   0
   9  -1 -15    1.21    3.72   0
  -8  -1  15    5.33    3.71   0
  -8   1  15    1.86    3.74   0
   8  -1 -15    0.82    3.64   0
   8   1 -15    2.41    4.09   0
   8  -1 -15    1.50    3.73   0
  -7  -1  15   -0.33    3.41   0
  -7   1  15    1.15    3.79   0
   7  -1 -15   -1.15    4.51   0
   7   1 -15    1.54    4.56   0
   7  -1 -15   -1.41    3.47   0
  -6  -1  15  361.26    6.12   0
   6  -1 -15  362.98    7.48   0
  -6   1  15  355.57    6.70   0
   6   1 -15  359.06    8.31   0
   6  -1 -15  343.74    7.17   0
  -5  -1  15   49.02    4.31   0
  -5   1  15   54.37    3.71   0
   5  -1 -15   49.75    4.48   0
   5  -1 -15   51.99    3.91   0
  -4   1  15  219.54    6.35   0
  -4  -1  15  228.95    5.49   0
  -4  -1  15  210.30    7.02   0
  -4   1  15  235.89    6.20   0
   4  -1 -15  240.14    5.87   0
  -3   1  15   15.40    3.93   0
  -3   1  15   11.95    4.03   0
  -3  -1  15   12.90    4.22   0
  -3  -1  15   10.47    3.82   0
   3  -1 -15   13.89    3.65   0
  -3  -1  15   15.31    3.73   0
  -2   1  15  685.80   11.96   0
  -2  -1  15  665.08    8.67   0
  -2  -1  15  670.37    9.18   0
  -2   1  15  655.25    8.22   0
  -1   1  15  429.46   11.61   0
  -1   1  15  408.86   11.08   0
  -1  -1  15  401.92    7.47   0
  -1   1  15  402.39    6.69   0
   0   1  15   31.58    5.90   0
   0   1 -15   34.13    3.71   0
   0  -1  15   32.14    3.50   0
   0   1  15   33.51    3.82   0
   1  -1  15   71.92    4.47   0
  -1  -1 -15   75.90    6.18   0
  -1   1 -15   67.08    4.00   0
   1   1  15   75.17    6.08   0
   2  -1  15  583.55    8.01   0
  -2  -1 -15  613.11   10.53   0
   2   1  15  623.65   10.80   0
  -2   1 -15  588.37    8.39   0
   3   1  15  407.34    8.00   0
  -3   1 -15  407.68    6.80   0
   3  -1  15  420.52    6.79   0
  -4  -1 -15   59.46    4.42   0
   4   1  15   56.33    3.83   0
  -4   1 -15   59.57    4.30   0
   4  -1  15   52.08    3.81   0
  -5   1 -15   49.35    4.16   0
   5   1  15   47.29    4.13   0
   5  -1  15   50.53    3.71   0
  -5  -1 -15   48.18    4.45   0
  -6   1 -15   76.07    4.05   0
   6   1  15   78.22    4.17   0
   6  -1  15   76.81    4.22   0
  -6  -1 -15   72.22    4.06   0
  -7   1 -15   41.02    3.87   0
   7   1  15   40.66    4.00   0
   7  -1  15   38.39    3.85   0
  -7  -1 -15   42.93    3.99   0
  -8   1 -15  136.44    5.11   0
   8   1  15  126.10    5.10   0
   8  -1  15  140.73    4.78   0
  -8  -1 -15  139.48    4.65   0
  -9   1 -15   -1.70    3.72   0
   9   1  15    2.67    3.68   0
   9  -1  15    1.20    3.69   0
  -9  -1 -15   -0.09    3.57   0
 -10   1 -15   36.35    4.40   0
  10   1  15   35.81    4.70   0
  10  -1  15   24.47    4.06   0
 -10  -1 -15   43.28    4.16   0
 -11   1 -15    1.23    4.17   0
  11   1  15   -1.59    4.18   0
  11  -1  15   -2.67    4.13   0
 -11  -1 -15   -0.58    4.17   0
 -12  -2  15    6.84    4.29   0
  12  -2 -15   -1.12    5.41   0
 -12   2  15    4.39    4.44   0
  12  -2 -15   -0.93    4.44   0
  11  -2 -15    0.30    4.18   0
 -11   2  15    6.82    4.78   0
 -11  -2  15   -0.77    3.85   0
  11  -2 -15    2.40    4.39   0
  10  -2 -15   20.10    4.43   0
 -10  -2  15   13.75    3.72   0
  10  -2 -15   13.62    4.15   0
 -10   2  15    7.27    4.13   0
   9  -2 -15    0.47    3.86   0
  -9  -2  15    0.68    3.47   0
  -9   2  15   -2.07    3.71   0
   9  -2 -15   -2.20    4.51   0
   8  -2 -15   12.80    3.93   0
  -8  -2  15   14.10    3.87   0
  -8   2  15   13.24    3.80   0
   8  -2 -15   14.77    4.00   0
   7  -2 -15   41.56    4.46   0
  -7  -2  15   40.17    3.84   0
   7  -2 -15   41.08    4.95   0
  -7   2  15   37.03    3.67   0
   6  -2 -15   25.50    3.74   0
  -6  -2  15   25.63    4.04   0
  -6   2  15   21.83    3.96   0
   6  -2 -15   24.97    4.19   0
   5  -2 -15    0.96    3.29   0
  -5  -2  15    0.64    3.18   0
  -5   2  15   -0.73    2.97   0
   5  -2 -15   -1.73    4.46   0
  -4   2  15   61.28    4.43   0
  -4  -2  15   53.89    5.92   0
   4  -2 -15   66.13    4.17   0
  -4  -2  15   55.53    3.80   0
  -4   2  15   59.00    4.90   0
   4  -2 -15   59.69    4.60   0
  -3  -2  15  102.25    4.36   0
  -3   2  15  104.57    5.73   0
  -3   2  15   98.55    4.83   0
  -3  -2  15   99.87    5.47   0
   3  -2 -15  113.51    4.45   0
   3  -2 -15  105.61    6.06   0
  -2  -2  15  250.29    5.59   0
  -2   2  15  261.17    5.61   0
  -2   2  15  264.82    9.59   0
   2  -2 -15  270.81    5.63   0
  -1  -2  15   16.91    3.48   0
  -1   2  15   16.03    3.62   0
   0   2 -15   32.41    3.70   0
   0   2  15   29.05    3.51   0
   0  -2  15   33.63    3.69   0
  -1  -2 -15   40.57   11.35   0
   1   2  15   37.89    3.43   0
   1  -2  15   38.24    3.65   0
  -1   2 -15   36.50    3.75   0
  -2   2 -15    4.87    3.32   0
   2   2  15    7.98    5.10   0
   2  -2  15    6.67    3.24   0
  -2  -2 -15    7.13    4.45   0
   3   2  15   94.10    5.38   0
  -3   2 -15  114.17    4.32   0
  -3  -2 -15   99.07    5.17   0
   3  -2  15  105.90    4.34   0
  -4   2 -15   21.96    3.23   0
   4   2  15   15.54    3.91   0
   4  -2  15   14.13    3.25   0
   5   2  15  162.37    5.46   0
  -5   2 -15  193.16    4.87   0
   5  -2  15  177.59    5.07   0
  -5  -2 -15  188.17    5.11   0
   6   2  15  215.32    5.98   0
  -6   2 -15  212.89    5.41   0
   6  -2  15  216.15    5.09   0
  -6  -2 -15  231.44    5.61   0
   7   2  15  284.95    6.02   0
  -7   2 -15  291.89    5.56   0
   7  -2  15  265.70    5.49   0
  -7  -2 -15  303.24    5.81   0
   8   2  15    3.55    4.05   0
  -8   2 -15    1.67    3.52   0
   8  -2  15    3.60    3.53   0
  -8  -2 -15    6.07    4.01   0
   9   2  15   19.52    4.11   0
  -9   2 -15   29.87    3.87   0
   9  -2  15   27.42    3.88   0
  -9  -2 -15   30.29    4.16   0
  10   2  15    6.47    4.01   0
 -10   2 -15    8.09    4.10   0
  10  -2  15    7.35    4.09   0
 -10  -2 -15    9.84    3.88   0
  11   2  15    7.92    4.84   0
 -11   2 -15   29.47    4.44   0
  11  -2  15   17.95    4.33   0
 -11  -2 -15   28.95    4.65   0
  11  -3 -15    4.47    4.53   0
 -11  -3  15    8.79    4.07   0
  11  -3 -15    7.39    4.47   0
 -11   3  15    0.89    4.48   0
  10  -3 -15   21.28    4.12   0
 -10  -3  15   19.60    3.89   0
  10  -3 -15   18.46    4.40   0
 -10   3  15   25.54    4.52   0
   9  -3 -15   41.07    4.34   0
  -9  -3  15   37.24    3.56   0
   9  -3 -15   39.93    5.23   0
  -9   3  15   38.42    4.61   0
   8  -3 -15   66.48    4.22   0
  -8  -3  15   69.36    3.69   0
  -8   3  15   65.81    4.09   0
   8  -3 -15   67.72    5.05   0
   7  -3 -15   55.37    3.86   0
  -7  -3  15   58.79    4.01   0
  -7   3  15   60.19    3.90   0
   7  -3 -15   55.37    4.60   0
  -6  -3  15  105.00    4.17   0
   6  -3 -15   95.09    4.87   0
  -6   3  15   98.95    4.71   0
   6  -3 -15  104.88    5.04   0
   5  -3 -15   35.03    3.57   0
   5  -3 -15   33.30    4.52   0
  -5  -3  15   35.06    3.48   0
  -5   3  15   35.92    4.16   0
  -5  -3  15   30.32    3.73   0
   4  -3 -15   12.45    3.70   0
  -4   3  15   13.69    4.47   0
  -4  -3  15   12.39    6.89   0
  -4   3  15   12.85    3.80   0
   4  -3 -15   12.79    3.67   0
  -4  -3  15   12.94    3.33   0
  -4  -3  15   15.19    3.25   0
  -3   3  15    0.64    4.11   0
   3  -3 -15    1.40    4.20   0
  -3  -3  15    2.63    2.99   0
  -3   3  15    5.06    3.95   0
   3  -3 -15    4.35    3.19   0
  -3  -3  15   -0.18    4.30   0
  -2   3  15    5.37    3.62   0
  -2   3  15    9.08    5.89   0
  -2  -3  15    5.75    3.07   0
   2  -3 -15    4.28    3.33   0
   2  -3 -15   10.03    6.53   0
   1   3 -15   -3.01    3.04   0
  -1  -3  15    0.60    3.06   0
  -1   3  15   -1.26    3.23   0
   1  -3 -15    0.45    2.95   0
   0   3 -15   34.78    3.51   0
   0   3  15   26.94    3.52   0
   0  -3  15   30.77    3.52   0
   1  -3  15  454.06    6.64   0
  -1   3 -15  438.09    6.39   0
   1   3  15  415.76    6.17   0
  -2   3 -15    6.03    3.22   0
   2  -3  15    6.46    3.14   0
   2   3  15    5.95    3.25   0
  -2  -3 -15    6.11    5.17   0
   3  -3  15   27.74    3.12   0
  -3  -3 -15   32.39    4.44   0
   3   3  15   28.31    3.23   0
  -3   3 -15   33.45    3.25   0
  -4   3 -15   41.65    3.55   0
   4  -3  15   37.31    3.32   0
   4   3  15   37.11    4.52   0
   5  -3  15  456.65    6.19   0
  -5   3 -15  445.63    6.16   0
   5   3  15  416.76    7.96   0
   6   3  15   66.91    4.72   0
  -6   3 -15   72.39    3.93   0
  -6  -3 -15   71.71    4.09   0
   6  -3  15   65.86    3.71   0
   7   3  15  115.73    4.88   0
  -7   3 -15  128.42    4.24   0
   7  -3  15  132.39    4.39   0
  -7  -3 -15  137.76    4.84   0
   8   3  15   -2.98    3.88   0
  -8   3 -15   -0.96    3.17   0
   8  -3  15   -0.68    3.31   0
  -8  -3 -15    2.98    3.85   0
   9   3  15    5.48    4.53   0
  -9   3 -15    0.20    3.36   0
   9  -3  15    3.44    3.33   0
  -9  -3 -15    0.92    4.13   0
 -10   3 -15    9.14    4.11   0
  10  -3  15    4.85    4.18   0
 -10  -3 -15   25.42    4.13   0
  10   3  15   28.64    4.76   0
 -11   3 -15    4.17    4.15   0
  11  -3  15    3.17    4.17   0
 -11  -3 -15    4.07    4.39   0
  11   3  15   10.16    4.67   0
  11  -4 -15    1.17    4.33   0
 -11  -4  15    1.86    3.99   0
  11  -4 -15   -2.47    4.40   0
 -11   4  15   -3.57    4.36   0
  10  -4 -15    1.17    3.85   0
 -10  -4  15    1.49    3.89   0
  10  -4 -15    1.41    4.49   0
 -10   4  15   -0.02    4.19   0
   9  -4 -15    0.98    3.68   0
  -9  -4  15   -1.87    3.76   0
   9  -4 -15    3.86    4.35   0
  -9   4  15   -0.83    4.22   0
  -8  -4  15    4.06    2.97   0
   8  -4 -15    3.29    3.73   0
   8  -4 -15    1.26    4.12   0
  -8   4  15    2.48    3.70   0
  -7  -4  15   -2.89    3.16   0
   7  -4 -15   -0.49    3.41   0
   7  -4 -15   -2.35    4.12   0
  -7   4  15   -0.33    3.45   0
  -6  -4  15    2.93    3.30   0
  -6   4  15    4.06    3.97   0
   6  -4 -15   13.25    3.67   0
   6  -4 -15    6.57    4.34   0
  -6  -4  15   11.74    3.17   0
  -5   4  15   75.77    4.90   0
   5  -4 -15   72.00    4.85   0
  -5  -4  15   82.86    3.92   0
   5  -4 -15   82.43    4.48   0
  -5  -4  15   84.88    3.88   0
   4  -4 -15  197.19    6.78   0
  -4   4  15  200.98    6.59   0
  -4  -4  15  191.12    4.62   0
   4  -4 -15  205.15    5.11   0
  -3  -4  15  136.79    4.03   0
   3  -4 -15  145.97    6.38   0
  -3   4  15  137.40    6.30   0
   3  -4 -15  148.76    4.75   0
  -3   4  15  139.88    5.24   0
   2  -4 -15   32.85    5.69   0
  -2  -4  15   33.96    3.13   0
  -2   4  15   18.54    3.81   0
  -2   4  15   28.79    5.88   0
   2  -4 -15   27.82    3.25   0
   1   4 -15   20.35    3.26   0
  -1  -4  15   15.54    3.13   0
  -1   4  15   18.20    3.57   0
   1  -4 -15   18.74    3.07   0
   0   4 -15   74.31    3.73   0
   0   4  15   78.39    4.00   0
   0  -4  15   79.75    3.59   0
  -1  -4 -15   -0.20    7.66   0
   1  -4  15    2.45    2.92   0
  -1  -4 -15    0.95    7.45   0
   1   4  15    3.01    3.42   0
  -1   4 -15    3.19    2.96   0
  -2  -4 -15   29.49    5.56   0
   2  -4  15   34.23    3.30   0
  -2   4 -15   34.14    3.30   0
  -2  -4 -15   32.42    5.35   0
   2   4  15   25.72    3.56   0
   3  -4  15    6.35    2.95   0
  -3   4 -15    5.56    2.81   0
  -3  -4 -15    6.26    4.22   0
   3   4  15    8.16    3.87   0
   4   4  15   63.01    4.36   0
  -4  -4 -15   67.36    5.32   0
  -4   4 -15   56.92    3.39   0
   4  -4  15   59.31    3.69   0
  -5   4 -15   49.31    3.85   0
   5  -4  15   43.27    3.51   0
   5   4  15   50.99    4.28   0
   6  -4  15   -0.13    3.49   0
  -6  -4 -15    3.28    3.59   0
   6   4  15    2.82    3.87   0
  -6   4 -15    3.09    3.23   0
  -7   4 -15   11.02    3.28   0
  -7  -4 -15   14.08    3.71   0
   7  -4  15    6.63    3.33   0
  -8  -4 -15    7.21    3.99   0
  -8   4 -15    3.71    3.31   0
   8  -4  15    4.93    2.98   0
   8   4  15    3.68    4.24   0
  -9   4 -15   37.10    4.06   0
   9  -4  15   38.14    4.03   0
  -9  -4 -15   46.89    4.20   0
   9   4  15    6.43    4.91   0
 -10   4 -15   13.46    3.87   0
  10  -4  15    2.51    3.95   0
 -10  -4 -15    7.34    4.17   0
  10   4  15    5.25    4.73   0
 -11  -4 -15   -0.14    5.27   0
 -10   5  15   -1.96    5.03   0
  10  -5 -15    7.12    4.61   0
 -10  -5  15   10.12    4.05   0
  -9   5  15    3.50    4.55   0
  -9  -5  15    2.58    3.86   0
   9  -5 -15    2.01    4.00   0
   9  -5 -15    3.11    4.60   0
  -8  -5  15    4.72    3.06   0
  -8   5  15    1.31    3.81   0
   8  -5 -15    2.01    4.55   0
   8  -5 -15    0.01    4.07   0
  -8  -5  15   -3.28    3.39   0
  -7  -5  15    6.55    3.32   0
  -7  -5  15    2.26    3.29   0
  -7   5  15    5.11    3.41   0
   7  -5 -15    5.57    3.58   0
   7  -5 -15    4.11    3.76   0
   6  -5 -15    3.77    3.40   0
  -6   5  15    0.77    3.67   0
  -6  -5  15    5.07    3.27   0
   6  -5 -15    6.81    3.88   0
  -6  -5  15   -0.68    3.29   0
   5  -5 -15   38.90    4.37   0
  -5   5  15   34.99    4.20   0
  -5  -5  15   35.81    3.60   0
  -5  -5  15   31.72    3.46   0
   5  -5 -15   34.55    4.21   0
  -4  -5  15   22.62    3.29   0
   4  -5 -15   31.11    4.41   0
  -4   5  15   29.46    4.66   0
   4  -5 -15   25.43    3.97   0
  -3   5  15   49.71    5.43   0
   3  -5 -15   49.96    5.11   0
  -3  -5  15   45.99    3.46   0
   3  -5 -15   50.23    3.96   0
  -2   5  15   15.25    4.37   0
  -2  -5  15   26.05    3.42   0
   2  -5 -15   27.31    4.74   0
  -2   5  15   24.92    5.38   0
   2  -5 -15   26.96    3.61   0
  -1  -5  15  134.99    4.24   0
   1   5 -15  130.29    4.21   0
  -1   5  15  129.25    5.23   0
   1  -5 -15  131.18    7.70   0
   1  -5 -15  132.67    4.38   0
   0   5 -15  117.14    4.03   0
   0  -5 -15  120.97    8.77   0
   0   5  15  118.92    4.50   0
   0  -5  15  120.01    4.11   0
   0  -5 -15  118.99    7.91   0
   0  -5 -15  117.34    4.02   0
  -1   5 -15    1.42    3.07   0
  -1  -5 -15    3.75    5.11   0
  -1  -5 -15    1.52    5.03   0
   1  -5  15    5.35    3.15   0
   1   5  15    5.30    3.82   0
  -2  -5 -15   16.93    4.97   0
  -2  -5 -15   21.09    5.17   0
   2  -5  15   21.17    2.95   0
   2   5  15   18.56    4.38   0
  -2   5 -15   24.87    3.19   0
   3  -5  15    4.84    2.88   0
  -3  -5 -15    6.00    4.36   0
  -3   5 -15    7.66    3.03   0
  -3  -5 -15    3.99    5.09   0
   3   5  15    6.46    4.03   0
   4  -5  15  141.42    4.16   0
  -4   5 -15  154.48    4.28   0
  -4  -5 -15  149.71    6.21   0
  -4  -5 -15  149.03    6.24   0
   4   5  15  147.27    5.00   0
   5   5  15    4.32    3.84   0
   5  -5  15    1.44    3.05   0
  -5   5 -15   -2.86    2.79   0
   6   5  15    1.46    3.87   0
  -6  -5 -15    0.83    3.99   0
   6  -5  15    0.52    3.20   0
  -6   5 -15   -1.11    3.05   0
  -7  -5 -15   16.26    4.19   0
   7  -5  15   21.15    3.31   0
  -7   5 -15   20.02    3.43   0
   7   5  15   17.26    4.08   0
  -8  -5 -15   10.25    4.70   0
   8  -5  15    4.38    3.61   0
  -8   5 -15    3.22    3.32   0
   8   5  15    5.12    4.45   0
  -9  -5 -15    3.67    4.79   0
  -9   5 -15   20.17    4.05   0
   9  -5  15   14.89    3.97   0
   9   5  15   11.42    4.98   0
  10   5  15   -0.41    4.60   0
  10  -5  15   -0.83    3.91   0
 -10  -5 -15    4.68    4.44   0
 -10   5 -15   -4.19    3.96   0
 -10  -6  15   -0.36    4.01   0
  10  -6 -15   -0.80    4.96   0
 -10  -6  15    3.30    4.17   0
  -9  -6  15   10.77    4.08   0
  -9  -6  15   31.96    3.98   0
   9  -6 -15    0.27    4.50   0
  -9   6  15   -5.03    4.80   0
   9  -6 -15   30.03    4.85   0
  -8  -6  15   -2.20    3.65   0
   8  -6 -15    3.31    4.39   0
  -8   6  15    2.96    4.74   0
  -8  -6  15    3.16    3.82   0
   8  -6 -15    2.89    4.06   0
  -7  -6  15   31.35    3.92   0
   7  -6 -15   39.66    4.78   0
  -7   6  15   39.15    4.74   0
   7  -6 -15   31.42    4.18   0
  -7  -6  15   40.92    3.88   0
   6  -6 -15    9.17    4.55   0
  -6  -6  15   10.58    3.36   0
  -6   6  15   13.75    4.47   0
   6  -6 -15   14.54    3.60   0
  -6  -6  15   11.39    3.16   0
  -5  -6  15   15.53    3.63   0
   5  -6 -15   11.06    4.05   0
   5  -6 -15   -1.12    3.87   0
  -5   6  15   15.33    3.96   0
  -5  -6  15   18.54    3.37   0
  -4   6  15   27.74    4.25   0
   4  -6 -15   29.97    4.21   0
  -4  -6  15   27.67    3.45   0
  -3  -6  15    0.15    7.00   0
  -3  -6  15    3.71    3.02   0
   3  -6 -15    1.25    4.42   0
   3  -6 -15    1.31    3.35   0
  -3   6  15   -0.50    4.52   0
  -2  -6  15    3.49    2.99   0
   2  -6 -15    1.35    4.72   0
  -2   6  15   -0.72    5.06   0
   2  -6 -15    1.32    3.46   0
   1   6 -15   11.56    2.92   0
   1  -6 -15   13.40    4.91   0
  -1   6  15   12.46    4.24   0
   1  -6 -15   12.15    3.34   0
  -1  -6  15    9.51    2.94   0
   0  -6 -15  114.77    6.90   0
   0   6 -15  107.99    3.74   0
   0   6  15  111.27    5.12   0
   0  -6 -15  106.54    4.40   0
   0  -6  15  107.07    4.03   0
   0  -6 -15  112.95    7.31   0
  -1  -6 -15  157.84    8.03   0
  -1  -6 -15  146.29    7.13   0
  -1   6 -15  153.63    4.04   0
   1  -6  15  141.99    4.09   0
   1   6  15  135.90    5.62   0
  -2   6 -15   14.21    3.07   0
  -2  -6 -15   14.58    4.94   0
   2  -6  15   12.55    3.00   0
   2   6  15   15.38    4.25   0
  -2  -6 -15   12.38    4.80   0
   3  -6  15   16.94    3.31   0
  -3  -6 -15   16.27    4.36   0
  -3  -6 -15   15.60    4.58   0
  -3   6 -15    9.51    3.24   0
   3   6  15   12.54    4.67   0
   4  -6  15   84.38    3.88   0
  -4  -6 -15   93.59    5.56   0
  -4   6 -15   89.44    4.01   0
  -4  -6 -15   96.27    5.39   0
   4   6  15   84.68    4.79   0
  -5   6 -15   22.03    3.49   0
   5   6  15   27.00    4.74   0
  -5  -6 -15   26.12    4.79   0
   5  -6  15   24.28    3.47   0
  -6   6 -15   22.11    3.54   0
   6   6  15   22.73    4.28   0
   6  -6  15   19.92    3.58   0
  -7  -6 -15   -2.06    4.19   0
   7   6  15   -2.58    4.04   0
   7  -6  15    2.38    3.51   0
  -7   6 -15    0.34    3.47   0
  -8  -6 -15   51.33    5.94   0
   8  -6  15   10.23    4.13   0
   8   6  15   37.71    5.23   0
  -8   6 -15   41.44    4.09   0
  -9  -6 -15    5.47    4.63   0
   9  -6  15    1.72    3.97   0
   9   6  15    2.68    5.05   0
  -9   6 -15    1.71    3.88   0
  -8  -7  15    1.25    3.71   0
   8  -7 -15   -1.22    4.64   0
  -8   7  15   -1.91    5.18   0
  -8  -7  15   -0.35    3.63   0
  -7  -7  15    0.19    3.59   0
   7  -7 -15    0.40    5.17   0
  -7  -7  15    5.93    3.31   0
  -7   7  15    2.37    4.89   0
  -6  -7  15   10.70    3.66   0
   6  -7 -15   26.26    4.63   0
   6  -7 -15   26.20    4.12   0
  -6  -7  15   28.34    3.65   0
  -6   7  15   24.88    4.92   0
  -5   7  15    3.08    4.25   0
   5  -7 -15   10.23    4.56   0
   5  -7 -15    6.81    4.20   0
  -5  -7  15    8.48    3.56   0
   4  -7 -15   24.40    4.62   0
  -4   7  15   24.30    4.82   0
  -4  -7  15   18.52    3.68   0
  -3  -7  15   10.45    3.18   0
   3  -7 -15    6.65    4.68   0
  -3   7  15    6.25    4.54   0
  -3  -7  15    8.90    6.52   0
   3  -7 -15    6.62    3.54   0
  -2  -7  15    0.84    3.66   0
   2  -7 -15    3.77    4.28   0
   2  -7 -15    8.25    3.46   0
  -1  -7  15   13.97    3.34   0
   1  -7 -15   10.12    3.72   0
   1  -7 -15   11.85    4.81   0
   0  -7 -15  156.50    6.89   0
   0   7  15  158.45    5.66   0
   0  -7  15  149.33    4.62   0
   0   7 -15  142.85    4.37   0
   0  -7 -15  147.74    4.85   0
  -1  -7 -15    2.07    5.04   0
  -1  -7 -15    0.46    4.49   0
   1  -7  15    1.27    3.08   0
  -1   7 -15   -0.14    3.12   0
   1   7  15   -4.90    4.87   0
  -2  -7 -15    3.14    5.15   0
  -2   7 -15    0.55    3.40   0
   2  -7  15    2.35    3.32   0
   2   7  15    5.34    4.57   0
  -2  -7 -15    4.13    4.72   0
  -3  -7 -15   44.85    5.37   0
   3  -7  15   42.63    3.60   0
  -3  -7 -15   49.21    5.38   0
   3   7  15   40.45    4.76   0
  -3   7 -15   52.76    3.71   0
   4  -7  15    8.17    3.35   0
  -4  -7 -15    4.43    4.91   0
  -4  -7 -15    5.64    4.52   0
  -4   7 -15    9.11    3.09   0
   4   7  15    2.24    4.51   0
  -5  -7 -15   22.77    4.80   0
  -5   7 -15   15.94    3.53   0
   5   7  15   15.32    4.45   0
   5  -7  15   16.60    3.42   0
  -6   7 -15    4.42    3.53   0
   6   7  15    4.88    4.19   0
   6  -7  15   -0.37    3.38   0
  -6  -7 -15    0.28    4.90   0
  -7   7 -15   -1.79    3.48   0
  -7  -7 -15    1.92    5.15   0
   7   7  15   -0.78    5.01   0
   7  -7  15    0.33    3.51   0
  -7  -7 -15    1.33    5.04   0
  -8   7 -15   -3.89    3.87   0
  -8  -7 -15   -2.21    5.34   0
   8  -7  15    0.35    3.77   0
   8   7  15   -4.28    4.86   0
  -8  -7 -15   -2.38    5.26   0
  -7  -8  15    4.77    4.50   0
  -7   8  15   -2.74    5.43   0
   7  -8 -15   17.60    5.08   0
   7  -8 -15   22.25    4.81   0
  -7  -8  15   35.92    4.53   0
  -6  -8  15    0.91    3.71   0
  -6   8  15    2.77    5.19   0
   6  -8 -15    2.52    4.76   0
   6  -8 -15   -3.01    3.65   0
  -6  -8  15    5.93    3.93   0
   5  -8 -15    2.78    4.30   0
  -5   8  15    0.96    5.29   0
   5  -8 -15   -0.74    4.63   0
  -5  -8  15   -2.49    3.78   0
  -4  -8  15   84.90    4.39   0
  -4   8  15   84.29    5.85   0
   4  -8 -15   91.59    5.69   0
   4  -8 -15  100.71    5.34   0
  -3  -8  15    2.94    3.51   0
   3  -8 -15    0.30    4.45   0
  -3  -8  15    6.10    5.98   0
   3  -8 -15    8.99    3.56   0
  -3   8  15    2.40    5.04   0
  -2  -8  15    1.45    5.83   0
   2  -8 -15   -0.16    4.56   0
   2  -8 -15    8.26    3.70   0
  -2  -8  15   -0.22    3.54   0
  -1  -8  15    1.95    5.57   0
   1  -8 -15   -3.08    3.94   0
  -1  -8  15    5.95    3.42   0
   1  -8 -15    3.31    4.47   0
   0  -8 -15    1.21    4.82   0
   0   8 -15    3.01    3.19   0
   0  -8  15    1.81    3.44   0
   0  -8 -15    0.02    3.81   0
  -1  -8 -15   38.46    6.03   0
  -1  -8 -15   35.23    5.47   0
  -1   8 -15   44.60    3.91   0
   1  -8  15   42.37    3.88   0
   1   8  15   33.40    5.29   0
  -2  -8 -15   70.92    6.70   0
   2  -8  15   66.36    3.91   0
  -2  -8 -15   66.09    5.88   0
   2   8  15   78.86    5.51   0
  -2   8 -15   66.44    4.25   0
   3  -8  15    1.55    3.51   0
  -3  -8 -15    2.53    4.98   0
  -3   8 -15    0.19    3.60   0
   3   8  15    1.78    5.26   0
  -3  -8 -15   -1.39    4.51   0
   4  -8  15    1.21    3.56   0
  -4  -8 -15    3.44    4.62   0
  -4  -8 -15    4.17    5.19   0
   4   8  15    2.88    4.53   0
  -4   8 -15    0.34    3.56   0
  -5  -8 -15   23.54    5.83   0
   5   8  15   24.60    4.74   0
  -5   8 -15   28.12    3.95   0
   5  -8  15   22.40    3.91   0
  -6   8 -15   19.19    4.01   0
   6   8  15   14.81    4.78   0
   6  -8  15   17.28    3.64   0
  -6  -8 -15   -0.04    5.45   0
  -7  -8 -15    2.26    6.08   0
  -7  -8 -15   -3.59    5.44   0
   7  -8  15    3.63    4.24   0
  -5  -9  15   16.58    3.82   0
  -5   9  15    5.22    5.59   0
   5  -9 -15   12.91    5.39   0
   5  -9 -15   14.54    5.54   0
  -4  -9  15   18.48    4.12   0
  -4   9  15   -1.00    5.61   0
   4  -9 -15   -0.67    5.50   0
   4  -9 -15   19.74    4.77   0
   3  -9 -15   73.14    6.02   0
  -3  -9  15   60.84    7.99   0
   3  -9 -15   71.96    5.00   0
  -3  -9  15   69.78    4.63   0
   2  -9 -15    0.76    4.44   0
  -2  -9  15    1.71    3.76   0
   2  -9 -15    1.41    4.18   0
  -2  -9  15    3.25    4.84   0
  -1  -9  15    0.52    5.65   0
  -1  -9  15    7.23    4.09   0
   1  -9 -15    6.67    4.25   0
   1  -9 -15    1.27    4.63   0
   0  -9 -15   -0.98    4.24   0
   0  -9  15   -1.21    3.74   0
   0  -9  15   -1.97    5.66   0
   0  -9 -15    2.17    4.16   0
  -1   9 -15    6.34    3.87   0
  -1  -9 -15    2.61    4.51   0
   1  -9  15    6.67    3.95   0
  -1  -9 -15    0.30    4.71   0
  -2   9 -15   -1.28    3.48   0
  -2  -9 -15    6.64    5.57   0
   2  -9  15    2.37    3.84   0
  -2  -9 -15    4.07    4.69   0
   3  -9  15   -0.43    3.83   0
  -3  -9 -15    6.09    5.68   0
  -3   9 -15   16.55    3.60   0
   3   9  15    9.65    5.18   0
  -3  -9 -15    6.25    5.11   0
   4  -9  15    0.15    4.13   0
  -4   9 -15    2.97    4.07   0
  -4  -9 -15    1.45    5.73   0
   4   9  15    1.87    5.42   0
  -4  -9 -15    0.22    5.72   0
  -5  -9 -15    3.85    5.50   0
   5  -9  15    9.05    4.35   0
  12   0 -16   49.59    6.45   0
 -12   0  16   61.53    4.78   0
 -10   0  16   65.35    4.46   0
  10   0 -16   61.87    4.52   0
  -8   0  16    0.72    3.54   0
  -6   0  16  254.19    5.48   0
  -4   0  16  107.49    4.86   0
  -4   0  16  110.75    5.20   0
  -2   0  16   24.97    3.71   0
  -2   0  16   27.93    3.73   0
  -2   0  16   25.16    4.39   0
   0   0  16  964.28   12.17   0
   2   0  16  216.62    6.25   0
  -4   0 -16  383.34    6.47   0
   4   0  16  383.40    6.62   0
  -6   0 -16   26.14    4.03   0
   6   0  16   30.33    3.69   0
  -8   0 -16   49.37    4.48   0
   8   0  16   51.17    4.14   0
 -10   0 -16    8.94    3.96   0
  10   0  16    7.53    4.17   0
  12   1 -16   -0.38    6.03   0
 -12  -1  16   -4.40    4.09   0
 -12   1  16   -2.08    4.34   0
  12  -1 -16   -1.67    5.17   0
  12  -1 -16    1.59    4.26   0
 -11  -1  16  187.30    5.65   0
  11   1 -16  184.48    7.80   0
 -11   1  16  178.97    5.80   0
  11  -1 -16  167.79    6.61   0
  11  -1 -16  163.89    5.66   0
 -10  -1  16   36.43    4.14   0
 -10   1  16   36.61    4.41   0
  10  -1 -16   33.43    4.62   0
  10   1 -16   30.59    5.72   0
  10  -1 -16   35.40    4.45   0
  -9  -1  16  132.00    4.82   0
  -9   1  16  116.43    5.04   0
   9  -1 -16  105.66    5.42   0
   9   1 -16  116.40    6.63   0
   9  -1 -16  112.04    4.88   0
  -8  -1  16    9.27    3.48   0
   8  -1 -16   10.55    4.28   0
  -8   1  16   10.00    3.71   0
   8   1 -16    9.55    4.23   0
   8  -1 -16    5.22    3.87   0
  -7  -1  16  242.10    5.58   0
  -7   1  16  245.84    5.54   0
   7  -1 -16  253.65    6.65   0
   7   1 -16  240.87    7.44   0
   7  -1 -16  236.52    6.03   0
  -6  -1  16    6.37    3.45   0
  -6   1  16    3.90    3.28   0
   6  -1 -16    3.79    3.90   0
   6  -1 -16    1.88    3.59   0
  -5  -1  16   13.51    3.56   0
  -5   1  16   11.02    3.79   0
   5  -1 -16   10.43    3.73   0
   5  -1 -16   10.18    3.37   0
  -4  -1  16  165.10    5.06   0
  -4   1  16  166.46    5.69   0
  -4  -1  16  145.77    5.70   0
  -4   1  16  167.93    6.41   0
   4  -1 -16  172.77    5.31   0
  -3  -1  16  167.03    5.66   0
  -3   1  16  171.39    5.99   0
  -3   1  16  157.98    5.22   0
  -3  -1  16  163.04    5.97   0
   3  -1 -16  180.67    5.15   0
  -3  -1  16  174.62    5.40   0
  -2   1  16  525.63   10.74   0
  -2  -1  16  513.99    7.76   0
  -2   1  16  502.26    7.42   0
  -2  -1  16  507.40    7.97   0
  -2   1  16  520.43   10.62   0
  -1   1  16   51.11    5.94   0
  -1   1  16   53.85    5.77   0
  -1  -1  16   53.74    4.52   0
  -1   1  16   48.79    3.76   0
   0   1  16  172.02    8.41   0
   0  -1  16  169.71    5.28   0
   0   1 -16  175.63    5.51   0
   0   1  16  170.30    4.84   0
  -1   1 -16  452.36    7.43   0
   1  -1  16  451.89    7.60   0
   1   1  16  467.19   10.89   0
  -1  -1 -16  454.61   10.99   0
   2  -1  16   50.90    3.89   0
   2   1  16   50.65    4.74   0
  -2  -1 -16   49.69    4.99   0
  -2   1 -16   51.20    4.34   0
   3   1  16    5.54    3.69   0
  -3   1 -16    8.10    3.42   0
   3  -1  16    5.25    3.45   0
  -4  -1 -16   24.35    3.32   0
   4   1  16   21.64    3.99   0
   4  -1  16   19.81    3.93   0
  -4   1 -16   24.86    3.55   0
  -5   1 -16   24.03    3.58   0
   5   1  16   23.72    3.42   0
   5  -1  16   26.75    3.92   0
  -5  -1 -16   27.18    4.03   0
  -6   1 -16    1.48    3.39   0
   6   1  16    3.36    3.79   0
   6  -1  16    3.50    3.44   0
  -6  -1 -16    4.61    3.37   0
  -7   1 -16   50.95    3.81   0
   7   1  16   45.96    4.26   0
   7  -1  16   46.57    4.13   0
  -7  -1 -16   53.18    4.45   0
  -8   1 -16   11.78    3.78   0
   8   1  16   13.59    3.69   0
   8  -1  16   11.29    3.76   0
  -8  -1 -16   16.52    3.65   0
  -9   1 -16   14.47    3.89   0
   9   1  16   12.11    4.08   0
   9  -1  16   12.35    3.91   0
  -9  -1 -16   11.86    4.10   0
 -10   1 -16    8.83    4.07   0
  10   1  16   14.41    4.44   0
  10  -1  16   13.33    3.97   0
 -10  -1 -16   16.93    4.45   0
 -11   1 -16   18.37    4.29   0
  11   1  16   15.70    4.58   0
  11  -1  16   19.01    4.33   0
 -11  -1 -16   21.46    4.99   0
 -12  -2  16   64.51    5.07   0
  12  -2 -16   83.26    5.67   0
 -12   2  16   60.30    5.04   0
  12  -2 -16   -0.38    5.07   0
 -11  -2  16    3.52    4.02   0
 -11   2  16    3.31    4.45   0
  11  -2 -16   -0.65    4.98   0
  11  -2 -16    2.29    5.06   0
  10  -2 -16    1.67    4.06   0
 -10  -2  16    2.17    3.90   0
  10  -2 -16   -2.04    4.50   0
 -10   2  16    2.69    4.42   0
   9  -2 -16    5.57    4.60   0
  -9  -2  16   10.13    3.83   0
  -9   2  16    9.83    4.29   0
   9  -2 -16   10.16    4.21   0
   8  -2 -16   87.09    4.51   0
  -8  -2  16   88.35    4.18   0
  -8   2  16   90.05    4.39   0
   8  -2 -16   90.59    5.44   0
   7  -2 -16   24.90    3.68   0
  -7  -2  16   23.62    3.91   0
  -7   2  16   21.05    3.97   0
   7  -2 -16   27.73    4.92   0
   6  -2 -16   97.64    5.18   0
  -6  -2  16  100.87    4.38   0
  -6   2  16   98.85    4.27   0
   6  -2 -16  106.03    4.84   0
  -5  -2  16    4.74    3.40   0
  -5   2  16    4.13    3.60   0
   5  -2 -16    5.73    4.39   0
   5  -2 -16    4.74    4.11   0
  -4  -2  16   46.76    3.77   0
  -4   2  16   34.26    4.76   0
  -4   2  16   43.98    4.06   0
  -4  -2  16   41.47    4.26   0
  -4  -2  16   39.01    5.71   0
   4  -2 -16   36.87    3.91   0
   4  -2 -16   39.95    4.52   0
  -3   2  16  144.14    6.20   0
  -3   2  16  139.75    5.02   0
  -3  -2  16  135.03    5.82   0
   3  -2 -16  138.74    4.77   0
  -3  -2  16  133.84    4.68   0
  -2   2  16   34.64    5.66   0
  -2   2  16   27.16    3.74   0
   2  -2 -16   35.47    3.54   0
  -2  -2  16   28.78    3.66   0
  -1  -2  16   44.40    3.74   0
  -1   2  16   47.92    3.76   0
   0   2 -16   88.19    4.26   0
   0  -2  16   84.08    4.18   0
   0   2  16   74.40    3.88   0
   1  -2  16    1.04    3.70   0
  -1   2 -16    2.21    3.12   0
   1   2  16   -0.30    3.03   0
   2   2  16 1103.12   17.21   0
  -2   2 -16 1078.48    9.84   0
   2  -2  16 1097.01    9.71   0
  -2  -2 -16 1130.10   16.72   0
  -3  -2 -16  477.40    9.03   0
   3   2  16  464.88    9.26   0
  -3   2 -16  467.05    7.09   0
   3  -2  16  456.81    6.67   0
   4   2  16  155.98    5.57   0
  -4   2 -16  158.95    4.58   0
   4  -2  16  151.54    4.52   0
   5   2  16    2.10    3.68   0
  -5   2 -16    3.59    3.57   0
  -5  -2 -16    1.07    3.78   0
   5  -2  16    1.65    3.43   0
   6   2  16   63.08    4.64   0
  -6   2 -16   71.91    4.00   0
   6  -2  16   69.33    4.17   0
  -6  -2 -16   78.23    4.19   0
   7   2  16   31.86    4.29   0
  -7   2 -16   33.30    3.99   0
   7  -2  16   29.50    3.81   0
  -7  -2 -16   41.55    4.16   0
   8   2  16   88.92    4.51   0
  -8   2 -16   94.89    4.41   0
   8  -2  16   79.15    4.25   0
  -8  -2 -16   97.84    4.84   0
   9   2  16   13.99    3.87   0
  -9   2 -16   13.08    3.93   0
   9  -2  16    7.05    3.81   0
  -9  -2 -16   11.79    3.81   0
  10   2  16    6.37    4.16   0
 -10  -2 -16    3.90    4.03   0
 -10   2 -16    2.70    4.07   0
  10  -2  16    4.10    4.01   0
  11   2  16    5.91    4.95   0
 -11   2 -16   15.59    4.16   0
  11  -2  16   14.69    4.22   0
 -11  -2 -16    3.41    4.44   0
  11  -3 -16   70.93    5.48   0
 -11  -3  16   79.40    4.64   0
  11  -3 -16   89.51    5.73   0
 -11   3  16   85.70    4.98   0
  10  -3 -16    0.87    4.03   0
 -10  -3  16   17.74    4.13   0
  10  -3 -16   14.71    4.75   0
 -10   3  16   17.20    4.37   0
   9  -3 -16  108.34    5.38   0
   9  -3 -16  128.73    5.38   0
  -9  -3  16  123.73    4.27   0
  -9   3  16  122.77    5.28   0
   8  -3 -16    8.37    4.12   0
  -8  -3  16    6.68    3.47   0
   8  -3 -16   14.62    4.14   0
  -8   3  16    7.29    3.65   0
   7  -3 -16   70.62    4.57   0
  -7  -3  16   60.06    4.00   0
   7  -3 -16   66.18    4.57   0
  -7   3  16   63.53    3.98   0
  -6  -3  16  297.35    5.43   0
   6  -3 -16  313.97    6.80   0
   6  -3 -16  311.24    6.23   0
  -6   3  16  301.12    6.77   0
   5  -3 -16   18.64    4.12   0
   5  -3 -16   22.59    4.27   0
  -5   3  16   16.68    3.97   0
  -5  -3  16   24.24    3.83   0
  -5  -3  16   18.79    3.71   0
   4  -3 -16   36.91    4.38   0
  -4  -3  16   36.79    3.75   0
  -4   3  16   36.32    4.70   0
  -4  -3  16   32.75    6.42   0
   4  -3 -16   32.78    3.90   0
  -4   3  16   34.42    4.13   0
  -4  -3  16   35.05    3.61   0
   3  -3 -16   28.90    5.11   0
  -3   3  16   26.41    4.67   0
  -3  -3  16   24.41    3.71   0
  -3   3  16   25.41    4.20   0
   3  -3 -16   25.42    3.50   0
  -3  -3  16   31.42    4.76   0
  -2   3  16   69.98    4.20   0
  -2  -3  16   73.22    3.86   0
  -2   3  16   69.77    8.33   0
   2  -3 -16   69.34    3.88   0
  -1  -3  16  185.24    4.74   0
   1   3 -16  188.46    5.13   0
  -1   3  16  180.24    4.69   0
   0   3 -16  239.36    5.13   0
   0   3  16  242.69    4.98   0
   0  -3  16  249.03    5.46   0
   1  -3  16   47.39    3.59   0
   1   3  16   45.71    3.40   0
  -1   3 -16   44.24    3.71   0
  -2  -3 -16  353.08   11.82   0
   2  -3  16  347.69    5.92   0
  -2   3 -16  348.15    5.88   0
   2   3  16  336.01    5.69   0
   3  -3  16   16.16    3.10   0
  -3  -3 -16   15.83    4.39   0
   3   3  16   18.80    3.26   0
  -3   3 -16   12.26    3.09   0
  -4   3 -16  179.73    4.87   0
   4  -3  16  199.36    5.04   0
   4   3  16  180.89    6.55   0
  -5   3 -16    2.29    3.71   0
   5  -3  16    1.84    3.40   0
   5   3  16    3.24    4.29   0
   6   3  16  266.74    6.25   0
  -6   3 -16  293.44    5.73   0
   6  -3  16  279.22    5.65   0
  -6  -3 -16  292.01    6.03   0
   7   3  16   32.78    4.39   0
  -7   3 -16   32.83    3.72   0
   7  -3  16   28.36    3.80   0
  -7  -3 -16   38.17    4.42   0
   8   3  16    3.11    3.79   0
  -8   3 -16    2.01    3.56   0
   8  -3  16    1.46    3.60   0
  -8  -3 -16    4.06    4.19   0
   9   3  16   -1.48    4.44   0
  -9   3 -16   -0.58    3.81   0
   9  -3  16    0.08    3.73   0
  -9  -3 -16    0.21    4.17   0
 -10   3 -16   30.73    4.12   0
  10  -3  16   29.72    4.03   0
 -10  -3 -16   36.79    4.13   0
  10   3  16   27.14    4.41   0
 -11   3 -16    4.72    4.33   0
  11  -3  16    8.69    4.33   0
 -11  -3 -16    7.58    5.12   0
  11   3  16    5.64    4.82   0
  11  -4 -16    0.56    4.63   0
 -11  -4  16    5.54    4.23   0
  11  -4 -16    6.85    4.70   0
 -11   4  16    2.16    4.78   0
  10  -4 -16    7.48    3.91   0
 -10  -4  16    7.04    3.98   0
  10  -4 -16    7.84    4.73   0
 -10   4  16    5.29    4.48   0
   9  -4 -16   23.54    4.02   0
  -9  -4  16   25.70    3.70   0
   9  -4 -16   19.85    4.43   0
  -9   4  16   24.94    4.39   0
  -8  -4  16    5.14    3.23   0
   8  -4 -16    1.81    4.12   0
   8  -4 -16    1.39    4.16   0
  -8   4  16   -0.65    3.76   0
  -7  -4  16   86.80    4.22   0
   7  -4 -16   85.31    4.41   0
   7  -4 -16   88.06    4.93   0
  -7  -4  16   81.55    3.88   0
  -7   4  16   88.94    4.33   0
  -6  -4  16   22.06    3.57   0
  -6   4  16   27.11    4.14   0
   6  -4 -16   25.50    4.02   0
  -6  -4  16   28.58    3.68   0
   6  -4 -16   11.53    4.51   0
  -5   4  16    4.88    4.02   0
   5  -4 -16    4.58    4.22   0
  -5  -4  16    6.47    3.31   0
   5  -4 -16    8.20    3.97   0
  -5  -4  16    2.36    3.11   0
  -4  -4  16    4.32    3.26   0
   4  -4 -16    5.62    4.70   0
  -4   4  16    3.74    4.67   0
  -4  -4  16    3.68    7.80   0
   4  -4 -16    4.47    3.47   0
   3  -4 -16    8.21    4.35   0
  -3   4  16    2.60    4.39   0
  -3   4  16    6.92    4.35   0
   3  -4 -16    7.41    3.57   0
  -3  -4  16    2.91    3.09   0
   2  -4 -16   15.28    6.30   0
  -2   4  16   14.05    6.36   0
  -2  -4  16   12.79    2.98   0
  -2   4  16    9.54    3.68   0
   2  -4 -16   15.79    2.99   0
  -1  -4  16   24.53    3.17   0
   1   4 -16   26.00    3.23   0
  -1   4  16   28.95    3.50   0
   1  -4 -16   22.08    2.99   0
   0   4  16   -1.79    3.12   0
   0  -4  16    6.18    2.95   0
   0   4 -16   -2.72    2.98   0
   1  -4  16   78.67    3.68   0
   1   4  16   74.26    4.00   0
  -1   4 -16   70.36    3.74   0
   2  -4  16   -0.57    3.31   0
  -2   4 -16    1.95    2.94   0
  -2  -4 -16    1.47    5.32   0
   2   4  16    3.36    3.27   0
  -2  -4 -16    1.97    5.47   0
   3   4  16  106.85    4.61   0
   3  -4  16  103.76    3.89   0
  -3   4 -16   98.75    3.90   0
  -3  -4 -16  103.85    5.86   0
  -4  -4 -16  408.51    8.78   0
   4   4  16  391.11    6.58   0
  -4   4 -16  379.50    5.70   0
   4  -4  16  366.82    5.85   0
  -5   4 -16   75.83    3.94   0
   5  -4  16   81.83    3.92   0
   5   4  16   83.78    4.48   0
  -6  -4 -16    7.05    3.77   0
  -6   4 -16    7.36    3.53   0
   6  -4  16    5.61    3.13   0
   6   4  16    5.74    3.83   0
  -7   4 -16   13.02    3.30   0
  -7  -4 -16   16.34    3.63   0
   7  -4  16   10.18    3.28   0
   7   4  16   10.71    3.85   0
  -8   4 -16    3.94    3.33   0
   8  -4  16    3.59    3.35   0
  -8  -4 -16    0.02    4.78   0
   8   4  16    1.04    4.04   0
  -9   4 -16    4.76    4.11   0
   9  -4  16   -1.59    3.84   0
  -9  -4 -16   10.56    4.60   0
   9   4  16    3.71    4.27   0
  10  -4  16   -1.67    3.73   0
 -10   4 -16    1.60    3.52   0
 -10  -4 -16    5.05    4.14   0
  10   4  16   -0.30    4.78   0
 -10   5  16   -0.85    5.06   0
  10  -5 -16   51.93    5.31   0
 -10  -5  16   46.20    4.26   0
  -9  -5  16   38.18    4.49   0
  -9   5  16   -9.09    5.39   0
   9  -5 -16   -0.67    4.65   0
  -9  -5  16   35.28    4.57   0
   9  -5 -16   42.44    4.70   0
  -8  -5  16    8.39    3.41   0
  -8  -5  16    2.25    3.33   0
   8  -5 -16    5.48    3.95   0
  -8   5  16    1.73    4.00   0
   8  -5 -16    8.41    4.18   0
  -7  -5  16    7.45    3.19   0
   7  -5 -16    9.06    3.83   0
  -7   5  16    6.91    4.00   0
   7  -5 -16    8.95    4.05   0
  -7  -5  16    6.47    3.27   0
  -6  -5  16    1.14    3.33   0
   6  -5 -16    6.15    3.92   0
  -6   5  16    4.24    3.78   0
   6  -5 -16    1.11    3.73   0
  -6  -5  16    8.85    3.36   0
   5  -5 -16   28.57    4.10   0
  -5   5  16   23.39    4.11   0
  -5  -5  16   29.64    3.46   0
   5  -5 -16   33.73    4.06   0
  -5  -5  16   32.22    3.44   0
  -4  -5  16  104.39    3.86   0
   4  -5 -16  101.72    5.62   0
  -4   5  16  101.07    5.63   0
   4  -5 -16  111.18    4.48   0
  -3   5  16   35.96    5.18   0
   3  -5 -16   43.05    5.40   0
  -3   5  16   41.39    4.33   0
  -3  -5  16   37.13    3.49   0
   3  -5 -16   34.37    3.68   0
  -2  -5  16   92.45    3.91   0
   2  -5 -16   89.34    6.64   0
  -2   5  16   85.68    7.10   0
  -2   5  16   87.36    4.73   0
   2  -5 -16   94.90    4.04   0
  -1   5  16  106.87    4.89   0
  -1  -5  16   89.64    3.85   0
   1   5 -16   93.66    3.96   0
   1  -5 -16  100.10    8.69   0
   1  -5 -16  101.38    4.15   0
   0   5 -16  145.08    4.26   0
   0  -5 -16  163.41   13.47   0
   0   5  16  147.57    4.93   0
   0  -5 -16  162.14   12.87   0
   0  -5  16  152.81    4.22   0
  -1  -5 -16    3.41    5.79   0
  -1   5 -16    3.52    3.05   0
  -1  -5 -16    5.35    6.07   0
   1  -5  16    5.95    2.81   0
   1   5  16    3.40    3.84   0
  -2  -5 -16    0.20    5.17   0
   2  -5  16   -1.89    2.93   0
  -2  -5 -16   -0.54    5.06   0
   2   5  16   -2.45    3.99   0
  -2   5 -16   -2.69    3.33   0
   3  -5  16  232.77    4.76   0
  -3  -5 -16  221.58    7.97   0
  -3   5 -16  221.54    4.77   0
  -3  -5 -16  234.69    8.10   0
   3   5  16  222.46    5.70   0
   4  -5  16   20.23    3.00   0
  -4   5 -16   14.23    3.28   0
  -4  -5 -16   18.49    4.71   0
   4   5  16   17.93    4.06   0
  -4  -5 -16   16.94    4.56   0
  -5   5 -16   51.32    3.83   0
   5   5  16   55.32    4.25   0
   5  -5  16   46.59    3.45   0
   6  -5  16   40.91    3.42   0
   6   5  16   38.73    4.09   0
  -6   5 -16   40.93    3.52   0
   7   5  16    7.58    4.13   0
  -7  -5 -16    9.30    3.79   0
   7  -5  16    6.31    3.41   0
  -7   5 -16    8.75    3.47   0
  -8  -5 -16   19.86    4.97   0
   8  -5  16   13.56    3.74   0
  -8   5 -16   17.98    3.65   0
   8   5  16   16.33    4.16   0
   9   5  16    2.85    4.28   0
   9  -5  16    8.24    3.94   0
  -9  -5 -16    5.94    5.31   0
  -9   5 -16    4.39    3.84   0
  10  -5  16    0.82    4.33   0
 -10   5 -16   14.60    4.32   0
  10   5  16    3.67    4.78   0
 -10  -5 -16   13.65    4.80   0
  -9  -6  16   -2.50    3.77   0
   9  -6 -16    0.47    4.18   0
  -9   6  16    1.27    4.92   0
   9  -6 -16    7.31    4.30   0
  -9  -6  16   -1.60    3.88   0
  -8  -6  16    1.49    3.70   0
   8  -6 -16    2.59    5.07   0
  -8  -6  16    3.88    3.71   0
  -8   6  16    1.80    5.48   0
  -7  -6  16   38.80    3.99   0
   7  -6 -16   38.51    5.11   0
  -7   6  16   30.27    4.77   0
   7  -6 -16   27.97    4.00   0
  -7  -6  16   31.39    3.94   0
   6  -6 -16    3.34    4.65   0
  -6  -6  16    4.35    3.38   0
  -6   6  16    3.23    4.83   0
  -6  -6  16   10.07    3.19   0
  -5  -6  16    7.19    3.14   0
  -5   6  16    0.94    4.08   0
   5  -6 -16    3.23    4.12   0
  -5  -6  16    6.15    3.43   0
   5  -6 -16    4.36    3.91   0
  -4   6  16   41.74    5.24   0
   4  -6 -16   38.83    4.69   0
  -4  -6  16   40.46    3.70   0
  -3   6  16  369.53    9.02   0
  -3  -6  16  347.14    5.39   0
   3  -6 -16  381.58    9.11   0
   3  -6 -16  386.66    6.06   0
  -2  -6  16   23.64    3.34   0
   2  -6 -16   31.10    5.26   0
  -2   6  16   34.38    4.02   0
   2  -6 -16   26.46    3.37   0
  -2   6  16   30.77    5.79   0
  -1   6  16   53.02    4.70   0
   1  -6 -16   60.57    6.17   0
   1  -6 -16   50.46    3.85   0
  -1  -6  16   47.12    3.48   0
   0  -6 -16   64.47    7.33   0
   0   6 -16   63.91    3.69   0
   0   6  16   56.04    4.79   0
   0  -6  16   58.91    3.61   0
   0  -6 -16   62.54    6.45   0
   0  -6 -16   63.72    4.05   0
  -1  -6 -16  270.02   10.17   0
  -1  -6 -16  270.15    9.40   0
  -1   6 -16  257.80    4.76   0
   1  -6  16  262.27    4.91   0
   1   6  16  263.85    6.34   0
  -2  -6 -16    9.52    5.34   0
   2  -6  16    4.52    3.23   0
   2   6  16   10.51    4.56   0
  -2  -6 -16    8.60    5.46   0
  -2   6 -16    9.06    3.33   0
   3  -6  16    0.64    3.08   0
  -3  -6 -16    2.67    4.40   0
  -3  -6 -16    0.86    4.67   0
  -3   6 -16   -2.14    3.25   0
   3   6  16    5.19    4.16   0
   4  -6  16  122.33    4.20   0
  -4  -6 -16  128.96    6.59   0
  -4  -6 -16  127.92    6.32   0
  -4   6 -16  118.74    4.06   0
   4   6  16  120.99    5.07   0
  -5   6 -16  112.60    4.11   0
  -5  -6 -16  117.77    6.12   0
   5   6  16  116.53    5.24   0
   5  -6  16  107.18    4.16   0
  -6   6 -16   40.18    3.63   0
  -6  -6 -16   40.06    5.01   0
   6  -6  16   35.74    3.60   0
   6   6  16   34.50    4.79   0
  -7  -6 -16    7.05    4.52   0
   7  -6  16    9.68    3.67   0
   7   6  16    5.45    4.54   0
  -7   6 -16    3.48    3.51   0
  -8  -6 -16    6.56    5.34   0
   8  -6  16    2.27    3.86   0
   8   6  16    1.03    4.20   0
  -8   6 -16    5.66    3.84   0
  -9  -6 -16    2.68    5.35   0
   9  -6  16    2.60    4.05   0
   9   6  16    3.62    4.92   0
  -9   6 -16    2.28    4.07   0
  -8  -7  16    2.92    3.47   0
   8  -7 -16    2.89    4.99   0
  -8  -7  16    1.38    3.75   0
  -8   7  16   -1.96    4.97   0
  -7  -7  16    8.05    3.69   0
   7  -7 -16    7.82    4.35   0
  -7  -7  16   19.63    3.50   0
   7  -7 -16   10.48    4.65   0
  -7   7  16    8.44    5.39   0
  -6   7  16    4.51    5.07   0
  -6  -7  16   24.32    3.76   0
   6  -7 -16    3.10    4.85   0
  -6  -7  16   14.95    3.37   0
  -5   7  16    4.60    4.72   0
   5  -7 -16    4.65    4.31   0
  -5  -7  16    3.56    3.67   0
   4  -7 -16    1.52    4.32   0
  -4  -7  16   -3.89    3.37   0
   4  -7 -16   -3.63    4.26   0
  -4   7  16   -0.93    4.50   0
  -3  -7  16   24.07    3.49   0
   3  -7 -16   27.56    4.80   0
  -3  -7  16   23.60    6.47   0
   3  -7 -16   22.49    3.92   0
  -3   7  16   27.23    4.71   0
  -2  -7  16   20.45    3.41   0
   2  -7 -16   21.92    4.87   0
   2  -7 -16   29.10    3.70   0
   1  -7 -16   86.90    6.48   0
  -1   7  16   74.97    5.03   0
  -1  -7  16   74.55    3.72   0
   1  -7 -16   89.49    4.24   0
   0   7 -16   17.36    3.13   0
   0   7  16   11.54    4.61   0
   0  -7  16   15.12    3.38   0
   0  -7 -16   16.73    3.77   0
   0  -7 -16   18.01    5.67   0
   0  -7 -16   17.49    5.88   0
  -1  -7 -16   -0.71    5.96   0
  -1  -7 -16   -0.00    4.96   0
   1  -7  16    4.25    3.21   0
   1   7  16    2.87    4.93   0
  -1   7 -16    0.60    3.24   0
  -2  -7 -16   87.05    6.46   0
  -2   7 -16   68.98    3.83   0
   2  -7  16   72.01    4.07   0
   2   7  16   78.13    5.33   0
  -2  -7 -16   80.70    6.11   0
  -3  -7 -16    1.97    4.67   0
   3  -7  16    2.36    3.28   0
  -3  -7 -16    6.65    4.45   0
   3   7  16    5.61    4.61   0
  -3   7 -16    0.41    3.59   0
   4  -7  16   26.41    3.45   0
  -4  -7 -16   22.35    5.48   0
  -4   7 -16   23.78    3.57   0
   4   7  16   18.94    4.65   0
  -4  -7 -16   18.13    5.16   0
  -5  -7 -16    7.80    4.47   0
  -5  -7 -16    6.49    4.60   0
  -5   7 -16    3.01    3.19   0
   5   7  16    2.09    4.77   0
   5  -7  16    5.41    3.02   0
  -6   7 -16    3.83    3.19   0
   6   7  16    2.42    4.68   0
  -6  -7 -16    7.03    4.80   0
   6  -7  16    4.97    3.69   0
  -7   7 -16   12.93    3.75   0
  -7  -7 -16   15.40    5.19   0
   7   7  16   15.82    4.45   0
   7  -7  16    3.49    3.74   0
  -7  -7 -16   11.46    5.08   0
  -8  -7 -16    3.06    5.12   0
  -8   7 -16   12.69    4.29   0
  -8  -7 -16   15.47    5.25   0
   8  -7  16    9.33    4.23   0
   8   7  16    4.43    6.16   0
  -7  -8  16   -1.27    4.33   0
  -7   8  16   -1.76    5.40   0
   7  -8 -16    0.55    4.93   0
   7  -8 -16   -4.21    4.67   0
  -7  -8  16    5.22    4.25   0
   6  -8 -16    4.54    4.70   0
  -6   8  16   -0.51    5.32   0
  -6  -8  16    7.54    3.82   0
   6  -8 -16   11.88    4.20   0
  -6  -8  16    2.64    3.80   0
  -5   8  16   -3.29    5.68   0
   5  -8 -16   22.88    5.17   0
  -5  -8  16   19.21    3.84   0
   5  -8 -16   29.67    4.64   0
   4  -8 -16   64.95    5.18   0
  -4  -8  16   50.85    4.07   0
   4  -8 -16   55.81    5.50   0
  -4   8  16   48.90    5.51   0
  -3  -8  16    1.10    3.50   0
   3  -8 -16    1.57    4.33   0
  -3  -8  16    1.42    6.06   0
  -3   8  16    2.02    4.91   0
   3  -8 -16   -0.45    3.83   0
   2  -8 -16    1.53    5.03   0
  -2  -8  16    2.88    5.96   0
   2  -8 -16    2.77    3.34   0
  -2  -8  16    1.07    3.46   0
  -1  -8  16    2.77    3.40   0
   1  -8 -16    3.25    5.09   0
   1  -8 -16    4.55    3.83   0
   0   8 -16    8.12    3.47   0
   0  -8  16    5.62    3.58   0
   0  -8 -16    4.52    3.59   0
   0  -8 -16    2.42    5.75   0
   0  -8 -16   12.77    5.19   0
  -1  -8 -16    1.78    5.72   0
  -1  -8 -16    4.49    4.97   0
  -1   8 -16    6.96    3.47   0
   1  -8  16    2.93    3.47   0
   1   8  16    7.99    4.78   0
  -2  -8 -16   -1.07    5.68   0
   2  -8  16   -0.73    3.20   0
  -2  -8 -16    0.88    5.35   0
   2   8  16    3.42    4.84   0
  -2   8 -16    2.80    3.07   0
   3  -8  16    3.86    3.50   0
  -3   8 -16   -0.81    3.44   0
  -3  -8 -16    2.53    5.28   0
   3   8  16    2.75    5.28   0
  -3  -8 -16    0.08    4.45   0
   4  -8  16    0.39    3.42   0
  -4  -8 -16   -2.87    4.44   0
  -4  -8 -16    0.98    4.72   0
   4   8  16    0.49    4.83   0
  -4   8 -16   -0.11    3.43   0
  -5  -8 -16   -2.80    5.36   0
  -5  -8 -16    1.13    4.99   0
   5   8  16    0.95    4.58   0
  -5   8 -16    1.35    3.40   0
   5  -8  16    0.62    3.42   0
  -6   8 -16   52.73    4.42   0
   6   8  16   33.06    5.37   0
   6  -8  16   54.88    4.28   0
  -6  -8 -16   32.38    6.16   0
  -5  -9  16    0.21    4.13   0
   5  -9 -16   -0.48    4.77   0
  -5   9  16   -0.30    4.93   0
  -4  -9  16    9.05    3.63   0
   4  -9 -16    7.76    5.21   0
   4  -9 -16   10.26    4.76   0
  -4   9  16   -1.77    5.53   0
   3  -9 -16    1.49    4.81   0
  -3  -9  16   -0.85    6.84   0
   3  -9 -16    0.14    4.40   0
  -3  -9  16    0.27    3.53   0
  -2  -9  16   13.39    5.84   0
   2  -9 -16   13.22    5.12   0
  -2  -9  16   16.21    4.16   0
   2  -9 -16    2.88    4.56   0
  -1  -9  16   20.00    6.26   0
  -1  -9  16   19.09    3.88   0
   1  -9 -16   14.97    5.26   0
   1  -9 -16   16.92    4.35   0
   0  -9  16    7.20    3.46   0
   0  -9  16   -0.06    6.00   0
   0  -9 -16    5.69    4.43   0
   0  -9 -16   13.47    5.28   0
   0  -9 -16    1.80    5.64   0
  -1  -9 -16   35.58    6.31   0
  -1  -9 -16   19.14    5.68   0
  -1   9 -16   40.85    4.16   0
   1  -9  16   33.09    4.19   0
  -2  -9 -16   20.47    6.13   0
  -2   9 -16   11.65    4.06   0
   2  -9  16    5.98    3.98   0
  -2  -9 -16    8.10    5.31   0
   3  -9  16   -1.12    3.90   0
  -3  -9 -16   -0.39    5.72   0
   3   9  16    4.47    5.05   0
  -3  -9 -16   -0.59    4.82   0
  -3   9 -16   -0.21    3.85   0
   4  -9  16   -1.78    4.08   0
  -4   9 -16   -5.70    4.02   0
  -4  -9 -16    0.33    5.64   0
   4   9  16    2.46    5.47   0
  -4  -9 -16   -0.24    5.15   0
 -11   0  17   -1.38    4.16   0
  11   0 -17   -3.67    5.00   0
  -9   0  17   47.74    4.81   0
  -7   0  17  279.27    5.72   0
  -5   0  17  932.26   10.06   0
  -5   0  17  873.98   10.68   0
   5   0 -17  934.49   10.68   0
  -3   0  17  150.18    5.11   0
  -3   0  17  142.75    5.11   0
  -3   0  17  135.12    5.02   0
  -1   0  17  131.97    5.69   0
  -1   0  17  128.65    4.67   0
   1   0  17   39.52    4.23   0
  -3   0 -17  122.71    5.12   0
   3   0  17  122.60    5.09   0
  -5   0 -17   10.48    4.17   0
   5   0  17    9.14    3.42   0
  -7   0 -17   88.98    4.47   0
   7   0  17   85.94    4.46   0
  -9   0 -17   27.40    4.27   0
   9   0  17   23.83    4.20   0
 -11   0 -17   23.80    4.66   0
  11   0  17   26.58    4.46   0
 -12  -1  17   -1.32    4.34   0
 -12   1  17    5.72    4.44   0
  12   1 -17   10.80    6.00   0
  12  -1 -17    6.42    4.51   0
 -11  -1  17    0.41    4.15   0
 -11   1  17   -0.26    4.35   0
  11  -1 -17    8.46    5.15   0
  11   1 -17   -0.25    5.19   0
  11  -1 -17   -1.01    4.42   0
 -10  -1  17   38.46    4.07   0
 -10   1  17   36.70    4.31   0
  10  -1 -17   39.78    4.74   0
  10   1 -17   34.47    5.79   0
  10  -1 -17   32.42    4.37   0
  -9  -1  17    1.13    3.66   0
  -9   1  17    1.72    3.78   0
   9  -1 -17    5.27    4.23   0
   9   1 -17    4.12    4.84   0
   9  -1 -17    1.06    4.39   0
  -8  -1  17  117.07    4.51   0
  -8   1  17  106.44    5.09   0
   8  -1 -17  103.02    5.10   0
   8   1 -17  109.40    5.94   0
   8  -1 -17   99.21    4.80   0
  -7  -1  17  102.48    4.42   0
  -7   1  17   85.96    4.72   0
   7  -1 -17  100.72    5.35   0
   7  -1 -17   98.72    4.45   0
  -6  -1  17   23.37    3.82   0
  -6   1  17   27.68    4.13   0
   6  -1 -17   23.73    4.04   0
   6  -1 -17   25.24    3.81   0
  -5  -1  17   74.19    4.62   0
  -5   1  17   76.80    4.02   0
  -5  -1  17   67.98    5.88   0
   5  -1 -17   69.99    4.54   0
  -4  -1  17    6.48    4.00   0
  -4   1  17    6.08    3.18   0
  -4   1  17    2.34    4.46   0
  -4  -1  17    2.17    4.35   0
   4  -1 -17    4.35    3.68   0
  -3   1  17    5.45    3.72   0
  -3  -1  17    4.52    3.59   0
  -3   1  17    3.64    3.95   0
  -3  -1  17    3.14    4.03   0
  -3  -1  17    8.12    4.08   0
  -2  -1  17  446.51    7.71   0
  -2   1  17  457.84   10.05   0
  -2   1  17  444.94    6.88   0
  -2  -1  17  457.08    7.38   0
  -2   1  17  450.64    9.91   0
  -1   1  17  488.64   11.70   0
  -1  -1  17  483.90    7.67   0
  -1   1  17  483.78    6.79   0
  -1   1  17  478.58   11.26   0
   0   1  17  357.30   10.51   0
   0   1 -17  359.16    7.27   0
   0  -1  17  364.00    7.05   0
   0   1  17  359.20    5.97   0
   1  -1  17   17.34    3.56   0
   1   1  17   17.58    4.53   0
  -1   1 -17   20.51    3.61   0
  -1  -1 -17   21.26    4.92   0
   2  -1  17  113.47    4.43   0
  -2   1 -17  109.55    4.46   0
   2   1  17  112.17    5.93   0
  -2  -1 -17  115.98    5.62   0
   3   1  17    0.14    3.00   0
   3  -1  17    1.70    3.38   0
  -3   1 -17    6.21    3.42   0
   4   1  17  167.57    5.56   0
  -4   1 -17  197.15    5.01   0
   4  -1  17  182.73    5.34   0
  -5  -1 -17  395.51    6.99   0
   5   1  17  363.66    6.70   0
  -5   1 -17  389.65    6.19   0
   5  -1  17  392.06    6.17   0
  -6   1 -17   86.32    4.08   0
   6   1  17   79.37    4.39   0
   6  -1  17   89.32    4.09   0
  -6  -1 -17   88.98    4.87   0
  -7   1 -17   78.71    4.69   0
   7   1  17   75.61    4.57   0
   7  -1  17   74.86    4.15   0
  -7  -1 -17   79.62    4.37   0
  -8   1 -17   60.82    4.18   0
   8   1  17   49.38    4.18   0
   8  -1  17   56.28    4.07   0
  -8  -1 -17   67.40    4.09   0
  -9   1 -17  186.30    5.45   0
   9   1  17  164.04    6.06   0
   9  -1  17  149.82    5.34   0
  -9  -1 -17  178.28    5.51   0
  10   1  17    4.20    3.96   0
 -10   1 -17    9.47    4.16   0
  10  -1  17    4.26    3.95   0
 -10  -1 -17    5.44    4.04   0
  11   1  17   -0.25    4.45   0
 -11   1 -17   -0.09    4.27   0
  11  -1  17    5.61    4.19   0
 -11  -1 -17    1.71    4.34   0
 -11  -2  17    0.30    3.90   0
  11  -2 -17    1.38    4.72   0
 -11   2  17   -2.06    4.60   0
  11  -2 -17    0.80    4.60   0
 -10  -2  17   18.80    4.09   0
 -10   2  17    8.81    3.98   0
  10  -2 -17   19.21    4.43   0
  10  -2 -17   17.13    4.21   0
  -9  -2  17   -0.53    3.80   0
  -9   2  17   -1.37    3.67   0
   9  -2 -17   -1.26    4.08   0
   9  -2 -17    0.72    4.33   0
  -8  -2  17    4.80    3.73   0
  -8   2  17    4.16    4.08   0
   8  -2 -17    5.72    3.93   0
   8  -2 -17    4.56    3.68   0
  -7  -2  17  143.80    4.64   0
  -7   2  17  150.92    4.76   0
   7  -2 -17  142.40    5.44   0
   7  -2 -17  139.22    5.27   0
  -6  -2  17   -0.21    3.50   0
  -6   2  17    1.97    3.80   0
   6  -2 -17   -0.09    3.81   0
   6  -2 -17   -0.19    4.03   0
  -5   2  17  112.41    4.90   0
  -5  -2  17  110.59    4.63   0
   5  -2 -17  120.63    4.77   0
   5  -2 -17  112.66    5.27   0
  -4  -2  17    5.53    3.41   0
   4  -2 -17    5.25    3.60   0
  -4   2  17    1.06    3.67   0
  -4   2  17   -0.66    4.51   0
  -4  -2  17    2.54    4.84   0
  -4  -2  17    2.56    3.37   0
  -3   2  17    0.11    3.52   0
  -3   2  17    4.10    3.85   0
  -3  -2  17    3.31    3.62   0
  -3  -2  17   -0.14    3.60   0
   3  -2 -17   -0.75    3.22   0
  -2   2  17    7.03    5.31   0
  -2   2  17    7.39    3.39   0
  -2  -2  17   12.46    4.07   0
  -2   2  17    6.69    6.06   0
  -1  -2  17  105.28    4.57   0
  -1   2  17   98.71    4.17   0
   0   2  17   33.58    3.29   0
   0  -2  17   36.97    3.86   0
   0   2 -17   39.26    3.99   0
   1  -2  17  168.90    4.89   0
  -1   2 -17  169.80    5.07   0
   1   2  17  157.52    4.33   0
   2   2  17   32.98    5.68   0
   2  -2  17   34.06    4.13   0
  -2   2 -17   32.28    4.27   0
  -2  -2 -17   37.48    5.76   0
   3   2  17   60.73    5.12   0
  -3  -2 -17   63.35    4.87   0
  -3   2 -17   58.93    3.88   0
   3  -2  17   61.62    3.94   0
   4   2  17  563.60    9.24   0
  -4   2 -17  576.55    7.25   0
   4  -2  17  601.70    7.23   0
   5   2  17    2.25    3.27   0
  -5   2 -17    6.00    3.51   0
   5  -2  17    6.77    3.47   0
  -5  -2 -17    3.84    3.16   0
   6   2  17   12.90    3.45   0
  -6   2 -17   12.26    3.69   0
   6  -2  17   10.88    3.57   0
  -6  -2 -17   17.76    3.30   0
   7   2  17   27.95    4.33   0
  -7   2 -17   34.84    4.00   0
   7  -2  17   30.87    3.81   0
  -7  -2 -17   29.62    3.78   0
   8   2  17    0.65    3.83   0
  -8   2 -17    0.74    3.56   0
   8  -2  17    1.16    3.54   0
  -8  -2 -17   -1.98    3.49   0
   9   2  17   12.65    4.05   0
  -9   2 -17   15.11    3.75   0
   9  -2  17   15.25    3.76   0
  -9  -2 -17   20.72    3.92   0
  10   2  17    4.19    4.43   0
 -10   2 -17    2.62    4.07   0
  10  -2  17   -0.81    4.19   0
 -10  -2 -17   10.74    4.14   0
  11   2  17   -0.05    4.93   0
 -11   2 -17    2.40    4.16   0
  11  -2  17    5.53    4.08   0
 -11  -2 -17    8.52    4.30   0
  11  -3 -17    5.44    4.34   0
 -11  -3  17   11.21    3.62   0
  11  -3 -17    9.24    4.74   0
 -11   3  17   10.95    4.99   0
  10  -3 -17    5.37    4.08   0
 -10  -3  17    6.88    3.84   0
  10  -3 -17    7.01    4.14   0
 -10   3  17    8.79    3.90   0
   9  -3 -17    7.34    4.41   0
  -9  -3  17    4.86    3.52   0
   9  -3 -17   13.32    4.61   0
  -9   3  17    9.78    4.40   0
   8  -3 -17   57.87    4.40   0
  -8  -3  17   58.19    4.07   0
   8  -3 -17   63.27    4.77   0
  -8   3  17   57.67    4.73   0
   7  -3 -17  117.90    5.03   0
  -7  -3  17  108.14    4.43   0
   7  -3 -17  123.80    5.05   0
  -7   3  17  109.82    4.88   0
  -6  -3  17   -1.41    3.37   0
   6  -3 -17   -1.00    4.07   0
  -6   3  17    2.25    3.68   0
   6  -3 -17    1.64    4.42   0
   5  -3 -17    2.98    3.96   0
  -5  -3  17    3.77    3.66   0
   5  -3 -17    0.27    4.18   0
  -5   3  17    5.28    3.74   0
  -5  -3  17    5.02    3.49   0
   4  -3 -17    3.64    4.30   0
  -4  -3  17    3.36    3.88   0
  -4  -3  17    5.56    5.49   0
   4  -3 -17    3.38    3.77   0
  -4   3  17    3.38    4.62   0
  -4   3  17    2.01    3.85   0
  -4  -3  17    5.07    3.53   0
  -3   3  17    1.72    4.35   0
  -3  -3  17    4.11    3.36   0
  -3   3  17    1.75    3.98   0
   3  -3 -17    6.42    3.18   0
  -3  -3  17    1.30    4.48   0
   3  -3 -17    0.90    4.94   0
  -2   3  17   28.08    9.02   0
  -2  -3  17   29.69    3.51   0
  -2   3  17   24.18    3.79   0
   2  -3 -17   31.16    3.58   0
  -1  -3  17   21.84    3.41   0
   1   3 -17   19.58    3.39   0
  -1   3  17   18.74    3.41   0
   0   3  17   66.35    3.75   0
   0  -3  17   73.68    3.84   0
   0   3 -17   69.44    3.91   0
   1   3  17   72.51    3.56   0
   1  -3  17   68.69    3.77   0
  -1   3 -17   76.95    3.93   0
   2  -3  17    6.63    3.15   0
  -2  -3 -17    2.92    6.02   0
  -2   3 -17    9.87    3.18   0
   2   3  17    5.71    3.21   0
   3  -3  17    0.17    3.08   0
  -3   3 -17    1.79    3.20   0
   3   3  17    0.60    3.11   0
  -3  -3 -17    1.18    4.27   0
  -4  -3 -17   -0.75    4.08   0
  -4   3 -17    1.04    3.49   0
   4  -3  17   -1.48    3.41   0
   4   3  17    0.12    4.83   0
  -5   3 -17   -1.19    3.34   0
   5  -3  17    1.59    3.37   0
   5   3  17   -0.62    4.30   0
   6   3  17   16.26    3.71   0
   6  -3  17   22.67    3.81   0
  -6   3 -17   22.88    3.73   0
  -6  -3 -17   15.28    3.74   0
   7   3  17  104.17    5.46   0
  -7   3 -17  114.08    4.43   0
   7  -3  17  105.69    4.56   0
  -7  -3 -17  126.86    5.13   0
   8   3  17   30.10    4.43   0
  -8   3 -17   25.11    3.87   0
   8  -3  17   32.63    3.79   0
  -8  -3 -17   33.21    4.20   0
   9   3  17    6.14    4.55   0
  -9   3 -17    7.85    4.01   0
   9  -3  17   11.99    3.97   0
  -9  -3 -17   12.98    3.92   0
 -10   3 -17    8.76    4.03   0
  10  -3  17    7.79    3.97   0
 -10  -3 -17   10.45    4.26   0
  10   3  17   11.31    4.50   0
  11  -3  17    5.72    4.44   0
 -11  -3 -17    7.41    5.33   0
  11   3  17    2.04    4.73   0
  11  -4 -17   -3.54    5.17   0
 -11  -4  17    4.09    4.26   0
  11  -4 -17   -0.46    4.79   0
 -11   4  17   -0.40    4.73   0
  10  -4 -17    4.99    4.04   0
 -10  -4  17    8.80    3.66   0
  10  -4 -17    5.47    4.79   0
 -10   4  17    0.37    4.79   0
   9  -4 -17    7.72    3.93   0
  -9  -4  17    7.66    3.88   0
   9  -4 -17   13.43    4.24   0
  -9   4  17   18.07    4.59   0
   8  -4 -17   11.76    3.91   0
  -8  -4  17   10.01    3.29   0
   8  -4 -17    6.87    4.45   0
  -8   4  17    4.02    3.91   0
  -7  -4  17  111.70    4.54   0
   7  -4 -17  114.07    5.12   0
   7  -4 -17  121.67    5.11   0
  -7  -4  17  104.71    4.27   0
  -7   4  17  115.30    4.90   0
  -6  -4  17   53.73    4.00   0
  -6  -4  17   65.24    4.03   0
  -6   4  17   55.16    4.72   0
   6  -4 -17   54.23    4.49   0
   6  -4 -17   59.19    4.57   0
  -5  -4  17    6.24    3.50   0
   5  -4 -17    0.32    4.24   0
  -5   4  17    0.64    3.93   0
   5  -4 -17   -0.60    4.21   0
  -5  -4  17    1.99    3.28   0
   4  -4 -17    5.88    4.79   0
  -4   4  17    4.98    4.72   0
  -4  -4  17    4.30    3.29   0
  -4  -4  17    5.58    6.71   0
   4  -4 -17   11.63    3.74   0
   3  -4 -17   99.10    6.79   0
  -3   4  17   99.07    4.79   0
   3  -4 -17  104.07    4.40   0
  -3   4  17   91.88    6.49   0
  -3  -4  17  101.24    4.03   0
  -2  -4  17   37.21    3.53   0
  -2   4  17   37.95    9.71   0
  -2   4  17   35.10    3.93   0
   2  -4 -17   44.94    3.72   0
  -1  -4  17   35.03    3.46   0
   1   4 -17   37.00    3.57   0
  -1   4  17   30.02    3.88   0
   1  -4 -17   37.57    3.41   0
   0   4 -17   32.25    3.38   0
   0   4  17   27.90    3.46   0
   0  -4  17   26.94    3.44   0
  -1   4 -17  453.89    6.19   0
   1  -4  17  486.80    6.30   0
   1   4  17  439.69    6.36   0
   2  -4  17   12.58    3.08   0
  -2  -4 -17   10.90    6.37   0
  -2   4 -17   13.40    3.16   0
  -2  -4 -17   12.10    6.16   0
   2   4  17   10.22    3.76   0
   3  -4  17   -2.06    3.45   0
  -3   4 -17   -1.77    3.15   0
  -3  -4 -17   -1.02    4.44   0
   3   4  17   -1.43    3.43   0
  -4   4 -17    8.50    3.66   0
   4   4  17    7.57    3.87   0
  -4  -4 -17   10.28    4.66   0
   4  -4  17    9.68    3.29   0
  -5   4 -17  101.43    4.29   0
   5  -4  17   90.67    3.97   0
   5   4  17   99.42    4.75   0
   6  -4  17   23.82    3.56   0
  -6   4 -17   20.56    3.52   0
   6   4  17   28.58    3.96   0
  -7   4 -17  106.37    4.37   0
   7  -4  17   99.01    4.19   0
  -7  -4 -17  104.85    4.95   0
   7   4  17  101.48    4.81   0
  -8   4 -17    1.92    3.36   0
   8  -4  17    1.05    3.44   0
  -8  -4 -17    0.22    3.95   0
   8   4  17    3.22    4.15   0
   9  -4  17   17.30    4.02   0
  -9   4 -17   13.28    3.99   0
  -9  -4 -17   14.20    5.21   0
   9   4  17   -0.39    5.02   0
  10  -4  17    3.31    3.92   0
 -10   4 -17    3.91    4.08   0
 -10  -4 -17   -1.75    4.79   0
  10   4  17    0.17    4.45   0
  10  -5 -17   37.16    5.23   0
 -10   5  17   -0.52    4.83   0
 -10  -5  17   32.42    4.44   0
 -10  -5  17   24.38    4.30   0
   9  -5 -17    2.51    4.65   0
  -9  -5  17   -3.31    3.92   0
  -9   5  17   -2.19    4.77   0
   9  -5 -17    0.98    4.28   0
  -9  -5  17    2.48    3.99   0
  -8  -5  17    2.14    3.57   0
   8  -5 -17    5.04    4.51   0
  -8   5  17    0.93    4.28   0
  -8  -5  17    7.58    3.66   0
   8  -5 -17   13.08    4.14   0
  -7  -5  17    2.90    3.39   0
   7  -5 -17   -0.10    4.36   0
  -7   5  17   -0.79    4.35   0
  -7  -5  17    0.24    3.32   0
   7  -5 -17   -2.14    4.11   0
   6  -5 -17    6.87    3.84   0
  -6   5  17    0.25    3.99   0
   6  -5 -17    4.22    3.82   0
  -6  -5  17    0.98    3.18   0
  -6  -5  17    6.83    3.26   0
   5  -5 -17   48.11    4.74   0
  -5  -5  17   46.37    3.61   0
  -5   5  17   46.93    4.65   0
   5  -5 -17   52.30    3.91   0
  -5  -5  17   46.56    3.52   0
  -4  -5  17   15.52    3.89   0
   4  -5 -17   13.55    4.71   0
   4  -5 -17   18.90    3.89   0
  -4   5  17   16.09    5.09   0
   3  -5 -17   31.48    3.69   0
   3  -5 -17   32.71    5.28   0
  -3   5  17   37.15    5.40   0
  -3   5  17   18.94    4.10   0
  -3  -5  17   29.93    3.46   0
  -2  -5  17  118.30    4.25   0
   2  -5 -17  117.01    8.55   0
  -2   5  17  116.16    4.69   0
   2  -5 -17  127.06    4.34   0
   1   5 -17   32.27    3.50   0
  -1   5  17   25.05    4.08   0
   1  -5 -17   28.36    3.27   0
  -1  -5  17   23.06    3.36   0
   0   5 -17   52.04    3.69   0
   0  -5  17   51.12    3.46   0
   0   5  17   55.23    4.13   0
  -1   5 -17   28.36    3.10   0
   1  -5  17   26.04    3.32   0
   1   5  17   25.79    3.93   0
   2  -5  17    7.31    3.16   0
  -2  -5 -17   11.36    5.82   0
   2   5  17   11.90    3.87   0
  -2   5 -17    6.25    3.10   0
  -2  -5 -17   11.22    6.11   0
  -3  -5 -17    6.98    4.94   0
   3  -5  17    9.10    3.21   0
  -3   5 -17    5.18    3.24   0
  -3  -5 -17    8.63    4.80   0
   3   5  17    3.76    4.17   0
   4  -5  17    6.50    3.40   0
  -4   5 -17   23.29    3.50   0
  -4  -5 -17   28.16    4.52   0
  -4  -5 -17   32.32    4.77   0
   4   5  17   28.75    4.26   0
  -5   5 -17   76.57    4.01   0
  -5  -5 -17   87.20    5.29   0
   5  -5  17   71.23    3.96   0
   5   5  17   76.13    5.08   0
   6   5  17    3.86    3.95   0
   6  -5  17    1.44    3.28   0
  -6   5 -17    1.80    3.31   0
  -7  -5 -17   14.67    4.48   0
   7  -5  17   13.85    3.44   0
  -7   5 -17   17.47    3.43   0
   7   5  17   14.34    3.98   0
  -8  -5 -17   76.96    5.75   0
   8  -5  17   53.58    4.39   0
  -8   5 -17   69.53    4.45   0
   8   5  17   67.06    4.79   0
   9   5  17   35.10    4.84   0
   9  -5  17   37.32    4.25   0
  -9  -5 -17   51.29    5.35   0
  -9   5 -17   33.33    3.64   0
  -9  -6  17    6.18    4.02   0
  -9  -6  17    0.34    4.00   0
   9  -6 -17    4.54    4.77   0
  -9   6  17   -0.66    5.22   0
  -8  -6  17   13.89    4.02   0
  -8  -6  17   14.40    4.01   0
   8  -6 -17   14.78    5.09   0
  -8   6  17    1.98    4.68   0
  -7  -6  17   -1.03    3.72   0
   7  -6 -17   -2.46    4.40   0
  -7  -6  17    8.93    3.78   0
   7  -6 -17   -2.93    3.89   0
  -7   6  17   -1.66    4.43   0
   6  -6 -17   17.27    4.60   0
  -6  -6  17   16.20    3.56   0
  -6   6  17   16.94    4.32   0
  -6  -6  17   16.70    3.55   0
  -5  -6  17   70.89    3.86   0
   5  -6 -17   81.50    5.59   0
  -5  -6  17   75.66    3.65   0
  -5   6  17    0.12    5.69   0
   4  -6 -17    1.60    4.83   0
  -4   6  17    1.61    4.78   0
  -4  -6  17   -0.38    2.89   0
   4  -6 -17    3.52    3.70   0
   3  -6 -17    0.83    4.40   0
  -3   6  17    0.65    5.02   0
  -3  -6  17    3.97    3.36   0
  -2  -6  17  293.81    5.29   0
   2  -6 -17  315.27   10.12   0
  -2   6  17  278.63    5.76   0
   2  -6 -17  315.00    5.70   0
   1  -6 -17   67.99    7.47   0
  -1   6  17   68.87    4.41   0
   1  -6 -17   62.63    3.66   0
  -1  -6  17   65.18    3.86   0
   0  -6 -17   19.67    7.49   0
   0   6 -17   13.64    3.32   0
   0   6  17   12.99    4.23   0
   0  -6  17   14.91    3.10   0
   0  -6 -17   19.62    7.09   0
  -1  -6 -17  126.20    8.77   0
  -1  -6 -17  132.72    9.07   0
   1  -6  17  114.49    4.09   0
  -1   6 -17  122.33    4.14   0
   1   6  17  110.21    5.11   0
  -2   6 -17  186.58    4.38   0
   2  -6  17  198.64    4.59   0
  -2  -6 -17  205.55    9.11   0
  -2  -6 -17  198.33    8.78   0
   2   6  17  181.10    5.77   0
   3  -6  17   -0.23    3.03   0
  -3  -6 -17   -0.62    4.86   0
  -3  -6 -17    0.73    4.76   0
   3   6  17   -0.08    4.20   0
  -3   6 -17   -0.76    3.43   0
   4  -6  17   44.48    3.36   0
  -4  -6 -17   51.38    5.33   0
  -4   6 -17   42.49    3.70   0
  -4  -6 -17   53.80    5.54   0
   4   6  17   46.24    4.43   0
  -5   6 -17    3.63    3.22   0
  -5  -6 -17    5.67    4.56   0
  -5  -6 -17    3.37    4.50   0
   5   6  17    9.41    4.72   0
   5  -6  17    4.37    3.12   0
  -6   6 -17   -2.74    3.35   0
  -6  -6 -17    0.35    4.26   0
   6   6  17    1.53    3.95   0
   6  -6  17    1.56    3.16   0
   7  -6  17   11.62    4.03   0
   7   6  17    9.94    4.78   0
  -7   6 -17   15.51    4.32   0
   8  -6  17   41.37    4.33   0
  -8  -6 -17   63.47    5.93   0
   8   6  17   44.15    5.00   0
  -8   6 -17   57.15    4.35   0
   9  -6  17   -4.71    3.96   0
  -9  -6 -17    1.55    5.12   0
   9   6  17    3.44    4.75   0
  -9   6 -17   -0.16    4.03   0
  -8  -7  17   56.32    4.34   0
   8  -7 -17    2.37    5.75   0
  -8  -7  17   64.49    4.74   0
  -8   7  17   75.42    5.77   0
  -7  -7  17    2.49    3.90   0
  -7  -7  17    0.77    3.87   0
   7  -7 -17    1.71    4.62   0
  -7   7  17   -0.05    4.76   0
  -6   7  17    3.19    4.95   0
   6  -7 -17    7.27    4.75   0
  -6  -7  17    8.92    3.79   0
  -6  -7  17    2.80    3.73   0
   5  -7 -17   31.45    4.81   0
  -5   7  17   27.92    4.98   0
  -5  -7  17   30.90    3.59   0
  -4   7  17   90.26    6.29   0
   4  -7 -17   98.05    6.02   0
  -4  -7  17   84.29    4.43   0
   4  -7 -17  121.75    5.38   0
  -3  -7  17   -0.11    3.59   0
   3  -7 -17    2.09    4.77   0
  -3  -7  17    2.34    6.51   0
  -3   7  17    1.69    5.22   0
   3  -7 -17    0.29    3.79   0
   2  -7 -17   -0.37    4.85   0
   2  -7 -17    1.68    3.40   0
  -2  -7  17   -0.67    3.30   0
  -1   7  17   10.42    4.44   0
   1  -7 -17   11.68    5.59   0
  -1  -7  17    4.93    3.44   0
   1  -7 -17   11.77    3.58   0
   0  -7 -17   10.40    6.60   0
   0   7 -17    8.69    3.39   0
   0   7  17    3.67    4.20   0
   0  -7  17    6.84    3.07   0
   0  -7 -17    6.76    5.79   0
  -1   7 -17   42.79    3.61   0
  -1  -7 -17   41.74    6.28   0
  -1  -7 -17   49.74    6.81   0
   1  -7  17   36.12    3.64   0
   1   7  17   33.22    4.77   0
   2   7  17   14.76    5.01   0
  -2  -7 -17   17.86    5.64   0
   2  -7  17   17.00    3.33   0
  -2   7 -17   16.57    3.42   0
  -2  -7 -17   16.28    5.63   0
   3  -7  17   44.89    3.45   0
  -3  -7 -17   53.75    6.11   0
   3   7  17   38.14    5.09   0
  -3  -7 -17   49.09    5.63   0
  -3   7 -17   52.46    3.73   0
   4  -7  17   22.62    3.57   0
  -4  -7 -17   23.17    5.55   0
  -4  -7 -17   20.59    5.29   0
   4   7  17   16.85    5.35   0
  -4   7 -17   21.36    3.71   0
  -5  -7 -17   13.08    4.85   0
  -5  -7 -17   15.78    4.96   0
  -5   7 -17   21.38    3.81   0
   5   7  17   15.59    4.45   0
   5  -7  17   21.61    3.85   0
  -6   7 -17    6.62    3.72   0
  -6  -7 -17    3.33    5.18   0
   6   7  17    5.37    4.10   0
   6  -7  17   -0.77    3.75   0
  -7   7 -17   12.47    3.84   0
  -7  -7 -17   14.88    5.41   0
   7   7  17    8.16    4.68   0
   7  -7  17    4.02    3.73   0
  -8  -7 -17   -1.56    5.28   0
  -7  -8  17    0.96    4.02   0
   7  -8 -17    0.57    4.99   0
   6  -8 -17    4.88    5.30   0
  -6   8  17    4.99    5.44   0
  -6  -8  17   31.50    3.70   0
   6  -8 -17   24.31    4.13   0
  -6  -8  17   24.99    4.20   0
   5  -8 -17   33.70    5.72   0
  -5  -8  17   29.40    3.81   0
   5  -8 -17    5.07    4.67   0
  -5   8  17   30.26    5.44   0
  -4  -8  17   -3.45    3.49   0
   4  -8 -17    1.08    4.51   0
   4  -8 -17    0.39    4.63   0
  -4   8  17    0.93    4.79   0
  -3  -8  17    4.97    3.39   0
   3  -8 -17   10.86    4.99   0
   3  -8 -17    8.24    4.35   0
  -3  -8  17    8.14    6.62   0
  -2  -8  17   27.53    6.32   0
   2  -8 -17   26.36    5.85   0
   2  -8 -17   24.64    4.05   0
  -2  -8  17   25.57    3.67   0
  -1  -8  17   44.10    3.64   0
   1  -8 -17   50.59    6.27   0
   1  -8 -17   47.75    4.14   0
   0  -8 -17    6.09    6.59   0
   0   8 -17    6.14    3.48   0
   0  -8  17    3.16    3.89   0
   0  -8 -17    3.07    5.69   0
  -1  -8 -17   -0.50    5.87   0
  -1  -8 -17    1.66    5.52   0
  -1   8 -17   -2.84    3.64   0
   1  -8  17    1.46    3.55   0
   1   8  17    4.02    5.05   0
  -2  -8 -17    0.56    5.72   0
   2  -8  17    1.44    3.48   0
  -2  -8 -17    0.88    5.27   0
   2   8  17    2.75    5.03   0
  -2   8 -17    9.39    3.50   0
   3  -8  17   -0.44    3.56   0
  -3  -8 -17   -1.67    5.15   0
  -3   8 -17   -1.09    3.51   0
   3   8  17   -0.24    4.72   0
  -3  -8 -17   -0.21    4.70   0
  -4  -8 -17    3.12    4.57   0
   4  -8  17    2.13    3.48   0
  -4  -8 -17    6.60    4.76   0
   4   8  17    6.57    5.58   0
  -4   8 -17    4.78    3.47   0
  -5  -8 -17    2.04    5.49   0
  -5  -8 -17    0.54    4.76   0
  -5   8 -17    1.96    3.87   0
   5   8  17   -3.26    4.83   0
   5  -8  17    3.08    3.54   0
  -6  -8 -17   -3.19    5.83   0
  -6   8 -17   17.65    4.25   0
   6   8  17    3.44    5.55   0
  -6  -8 -17    7.62    5.77   0
   6  -8  17   10.26    3.64   0
  -4  -9  17    4.79    4.18   0
   4  -9 -17    4.18    5.31   0
   4  -9 -17   -1.63    4.84   0
  -4   9  17   -2.37    5.11   0
   3  -9 -17    7.60    5.32   0
  -3  -9  17    3.26    7.79   0
   3  -9 -17    5.13    4.33   0
  -3  -9  17    2.21    3.93   0
   2  -9 -17   11.76    5.96   0
  -2  -9  17    8.34    5.82   0
  -2  -9  17   12.91    3.89   0
   2  -9 -17   15.98    4.47   0
  -1  -9  17    2.89    5.93   0
  -1  -9  17    2.89    3.65   0
   1  -9 -17    0.98    5.81   0
   1  -9 -17    5.39    4.42   0
   0  -9  17   -1.10    3.74   0
   0  -9 -17    2.78    5.48   0
   0  -9 -17    1.40    6.51   0
  -1  -9 -17   65.54    7.70   0
  -1  -9 -17  107.07    8.75   0
  -1   9 -17  101.05    4.68   0
   1  -9  17  103.96    4.78   0
  -2  -9 -17   12.58    7.03   0
  -2   9 -17   21.08    4.02   0
   2  -9  17   21.49    3.92   0
  -2  -9 -17   10.38    6.58   0
   3  -9  17   -0.77    4.08   0
  -3  -9 -17    5.86    5.77   0
  -3  -9 -17    0.98    5.25   0
   3   9  17    2.67    4.97   0
  -3   9 -17    3.28    4.12   0
   4  -9  17    3.06    4.26   0
  -4  -9 -17    6.05    6.13   0
   4   9  17   12.69    5.64   0
  -4  -9 -17    5.99    5.39   0
 -12   0  18   62.85    4.92   0
  12   0 -18   69.29    6.57   0
 -10   0  18  100.22    4.94   0
  -8   0  18   76.11    4.27   0
  -6   0  18   16.98    3.51   0
   6   0 -18   26.14    4.46   0
  -4   0  18   16.09    3.71   0
  -4   0  18   14.48    3.96   0
  -2   0  18  138.03    5.55   0
  -2   0  18  134.02    5.32   0
  -2   0  18  135.40    5.16   0
   0   0  18  951.12   11.72   0
   2   0  18   46.59    4.23   0
  -4   0 -18  137.05    5.07   0
   4   0  18  127.50    5.10   0
  -6   0 -18  294.64    6.18   0
   6   0  18  283.13    6.32   0
  -8   0 -18    6.35    4.14   0
   8   0  18    0.75    4.11   0
 -10   0 -18   -2.11    4.25   0
  10   0  18   -0.10    4.62   0
 -11  -1  18   66.65    4.77   0
 -11   1  18    1.05    5.28   0
  11  -1 -18   49.39    6.08   0
  11   1 -18   56.92    6.48   0
  11  -1 -18   45.67    5.13   0
 -10  -1  18    9.33    4.59   0
 -10   1  18   43.43    4.50   0
  10  -1 -18   47.37    5.24   0
  10   1 -18   50.28    5.97   0
  10  -1 -18   42.91    4.58   0
  -9  -1  18   15.70    4.12   0
  -9   1  18   18.21    3.99   0
   9  -1 -18   15.81    4.30   0
   9   1 -18   16.17    4.60   0
   9  -1 -18   18.94    4.36   0
  -8  -1  18    4.82    3.70   0
  -8   1  18    3.72    3.52   0
   8  -1 -18    7.68    4.16   0
   8  -1 -18    4.89    3.92   0
  -7  -1  18  292.83    5.85   0
  -7   1  18  322.26    6.00   0
   7  -1 -18  315.28    6.98   0
  -6  -1  18    5.30    3.96   0
  -6   1  18    6.18    3.47   0
   6  -1 -18   17.15    4.32   0
  -5   1  18  185.55    6.35   0
  -5  -1  18  201.00    5.08   0
  -5   1  18  195.11    5.83   0
  -5  -1  18  188.43    7.04   0
   5  -1 -18  201.50    5.99   0
  -4  -1  18  202.69    5.25   0
  -4  -1  18  190.45    5.32   0
  -4   1  18  196.00    5.93   0
  -4   1  18  183.49    6.35   0
  -4  -1  18  177.48    6.41   0
   4  -1 -18  205.13    5.40   0
  -3  -1  18   47.14    4.06   0
  -3   1  18   38.41    4.49   0
  -3   1  18   36.13    4.39   0
  -3  -1  18   37.13    3.93   0
  -3  -1  18   36.33    4.65   0
  -2   1  18    2.87    4.36   0
  -2   1  18    0.92    4.24   0
  -2   1  18    1.71    3.43   0
  -2  -1  18   -1.58    3.22   0
  -2  -1  18    0.86    3.70   0
  -1   1  18    5.90    5.08   0
  -1  -1  18    6.19    3.36   0
  -1   1  18    9.30    3.20   0
  -1   1  18    7.82    4.91   0
   0   1  18  115.31    6.70   0
   0   1 -18  122.54    5.38   0
   0  -1  18  114.11    5.15   0
   0   1  18  109.75    4.19   0
  -1  -1 -18   22.32    4.94   0
   1  -1  18   23.33    3.87   0
   1   1  18   24.25    4.72   0
  -1   1 -18   23.20    4.20   0
   2  -1  18   86.06    4.73   0
  -2   1 -18   89.28    4.21   0
   2   1  18   87.82    5.22   0
  -2  -1 -18   91.93    5.22   0
   3   1  18   33.23    4.14   0
  -3   1 -18   28.86    4.42   0
   3  -1  18   31.23    3.69   0
   4   1  18  149.77    5.52   0
  -4   1 -18  157.21    5.26   0
   4  -1  18  157.65    5.19   0
  -5  -1 -18  124.55    5.13   0
   5   1  18  127.79    5.45   0
  -5   1 -18  124.62    4.49   0
   5  -1  18  122.46    4.30   0
  -6  -1 -18   16.45    3.37   0
   6   1  18   15.56    3.41   0
  -6   1 -18   22.03    3.67   0
   6  -1  18   18.48    3.69   0
   7   1  18  117.13    4.92   0
  -7   1 -18  124.80    4.84   0
   7  -1  18  109.08    4.52   0
  -7  -1 -18  124.01    4.71   0
   8   1  18    6.07    3.70   0
  -8   1 -18    5.99    3.84   0
   8  -1  18    9.41    4.13   0
  -8  -1 -18    6.90    3.71   0
   9   1  18   16.03    4.16   0
  -9   1 -18   16.31    4.43   0
   9  -1  18   22.16    4.11   0
  -9  -1 -18   20.01    3.85   0
  10   1  18    6.77    4.33   0
 -10   1 -18   15.88    4.15   0
  10  -1  18   10.69    4.10   0
 -10  -1 -18   25.25    4.32   0
 -11  -1 -18    9.87    4.37   0
  11   1  18    6.66    4.39   0
 -11   1 -18   13.29    4.43   0
  11  -1  18   10.15    4.29   0
 -11  -2  18    7.69    4.40   0
  11  -2 -18   26.63    5.44   0
 -11   2  18    1.48    4.49   0
  11  -2 -18   22.35    4.61   0
 -10  -2  18   30.01    4.10   0
 -10   2  18    9.09    4.26   0
  10  -2 -18   36.31    4.36   0
  10  -2 -18   34.38    4.66   0
  -9  -2  18    2.37    3.75   0
  -9   2  18    2.51    3.78   0
   9  -2 -18    2.73    4.98   0
   9  -2 -18    1.99    4.33   0
  -8  -2  18   29.27    4.02   0
  -8   2  18   29.31    4.19   0
   8  -2 -18   30.67    4.07   0
   8  -2 -18   24.13    4.44   0
  -7  -2  18   26.91    3.68   0
  -7   2  18   27.39    3.65   0
   7  -2 -18   33.85    4.38   0
   7  -2 -18   29.92    3.73   0
  -6  -2  18  137.63    4.64   0
  -6   2  18  134.56    5.51   0
   6  -2 -18  145.75    5.80   0
   6  -2 -18  139.14    5.17   0
  -5  -2  18  162.05    4.95   0
  -5  -2  18  148.73    7.88   0
   5  -2 -18  162.17    5.09   0
   5  -2 -18  161.14    5.48   0
  -5   2  18  151.07    5.67   0
  -4   2  18    7.78    3.95   0
  -4   2  18    3.10    4.65   0
  -4  -2  18    6.14    4.91   0
  -4  -2  18    5.59    3.59   0
   4  -2 -18    7.39    3.75   0
  -4  -2  18    7.88    3.42   0
  -3  -2  18  310.20    6.38   0
  -3   2  18  307.49    8.54   0
  -3   2  18  289.10    5.83   0
  -3  -2  18  290.60    7.16   0
   3  -2 -18  318.30    5.83   0
  -2   2  18  203.83   10.00   0
  -2   2  18  209.55    9.90   0
  -2   2  18  190.12    4.90   0
  -2  -2  18  221.33    5.47   0
  -1  -2  18    4.66    3.55   0
  -1   2  18    3.51    3.26   0
   0   2 -18  693.32    8.36   0
   0  -2  18  695.08    8.18   0
   0   2  18  697.46    7.36   0
   1  -2  18   27.71    3.71   0
   1   2  18   28.10    3.06   0
  -1   2 -18   26.05    4.50   0
   2   2  18  134.67    7.89   0
   2  -2  18  137.49    4.65   0
  -2   2 -18  133.36    4.63   0
  -2  -2 -18  138.65    7.57   0
   2   2  18  130.52    4.02   0
   3   2  18   53.60    4.80   0
  -3  -2 -18   56.61    5.09   0
  -3   2 -18   62.19    3.87   0
   3  -2  18   52.37    3.79   0
   4   2  18   36.12    4.53   0
  -4   2 -18   32.59    4.20   0
   4  -2  18   40.05    3.52   0
   5   2  18  140.33    5.79   0
  -5   2 -18  161.65    4.93   0
   5  -2  18  161.36    4.66   0
   6   2  18   36.44    4.17   0
  -6   2 -18   34.77    3.77   0
   6  -2  18   30.89    3.71   0
  -6  -2 -18   35.32    3.53   0
   7   2  18   -0.65    3.96   0
  -7   2 -18   -0.32    3.58   0
   7  -2  18   -0.37    3.48   0
  -7  -2 -18   -0.35    4.14   0
   8   2  18    0.77    3.80   0
  -8   2 -18    1.66    3.80   0
   8  -2  18    2.11    3.73   0
  -8  -2 -18   -1.84    3.66   0
   9   2  18   11.90    4.45   0
  -9   2 -18   16.64    4.33   0
   9  -2  18    8.29    3.74   0
  -9  -2 -18   20.77    4.48   0
  10   2  18   -2.29    4.33   0
 -10   2 -18    2.45    4.08   0
  10  -2  18    1.81    3.99   0
 -10  -2 -18    2.34    3.79   0
  11   2  18    0.94    4.74   0
 -11   2 -18    1.08    4.20   0
  11  -2  18   -2.93    4.09   0
 -11  -2 -18    0.96    4.62   0
 -11  -3  18   91.97    5.06   0
  11  -3 -18   74.80    5.33   0
 -11   3  18   84.48    6.05   0
  11  -3 -18    8.15    5.56   0
  10  -3 -18    2.14    4.02   0
 -10  -3  18    4.04    3.91   0
  10  -3 -18    4.62    4.07   0
 -10   3  18    7.19    3.90   0
   9  -3 -18    9.23    4.01   0
  -9  -3  18    7.14    3.99   0
  -9   3  18    7.25    3.97   0
   9  -3 -18    5.45    3.98   0
   8  -3 -18    0.01    4.26   0
  -8  -3  18    4.84    3.59   0
   8  -3 -18   -0.04    4.07   0
  -8   3  18   -0.58    4.06   0
   7  -3 -18   -0.07    3.65   0
  -7  -3  18    1.73    3.48   0
   7  -3 -18   -3.88    4.49   0
  -7   3  18   -0.73    3.67   0
   6  -3 -18   35.84    3.86   0
  -6  -3  18   38.52    3.86   0
  -6  -3  18   32.74    4.42   0
   6  -3 -18   37.35    4.22   0
  -6   3  18   35.43    4.01   0
   5  -3 -18   12.25    4.37   0
  -5  -3  18   15.25    3.84   0
   5  -3 -18   20.38    4.05   0
  -5   3  18   13.46    4.11   0
  -5  -3  18   14.19    3.70   0
  -4   3  18   90.08    5.81   0
  -4  -3  18   93.52    6.78   0
  -4  -3  18   97.05    4.51   0
   4  -3 -18  110.84    4.72   0
  -4   3  18   96.01    5.46   0
  -4  -3  18   87.87    4.53   0
   4  -3 -18  107.43    6.00   0
  -3  -3  18    3.71    3.85   0
  -3   3  18    2.41    4.70   0
  -3   3  18   -1.51    3.87   0
   3  -3 -18    2.00    3.37   0
  -3  -3  18    2.83    3.94   0
  -2  -3  18   32.64    3.74   0
  -2   3  18   26.15    3.90   0
   2  -3 -18   36.84    3.35   0
  -1  -3  18  597.59    7.21   0
  -1   3  18  555.12    6.82   0
   0   3 -18  130.77    4.52   0
   0   3  18  131.20    4.20   0
   0  -3  18  143.38    4.46   0
   1  -3  18   47.59    4.10   0
   1   3  18   53.11    3.42   0
  -1   3 -18   51.13    3.85   0
   2  -3  18   33.30    3.45   0
  -2   3 -18   28.64    3.59   0
  -2  -3 -18   34.25    7.91   0
   2   3  18   34.70    3.46   0
  -3  -3 -18   65.14    5.37   0
   3  -3  18   64.42    4.50   0
  -3   3 -18   63.58    4.18   0
   3   3  18   63.57    3.72   0
  -4   3 -18  119.49    4.37   0
  -4  -3 -18  107.49    5.64   0
   4   3  18   94.92    4.14   0
   4  -3  18  106.92    4.36   0
   4   3  18  101.53    6.48   0
  -5   3 -18  154.67    4.85   0
   5  -3  18  168.36    4.92   0
   5   3  18  159.55    6.45   0
   6   3  18   22.07    3.74   0
  -6   3 -18   21.85    3.71   0
   6  -3  18   27.60    3.80   0
  -6  -3 -18   25.94    4.01   0
   7   3  18    0.20    4.13   0
  -7   3 -18   -7.82    3.61   0
   7  -3  18   -4.15    3.70   0
  -7  -3 -18    0.25    3.32   0
   8   3  18   -3.22    4.44   0
  -8   3 -18   -0.86    3.61   0
   8  -3  18    1.30    3.59   0
  -8  -3 -18    0.73    3.80   0
   9   3  18   -1.24    4.63   0
  -9   3 -18    3.24    3.95   0
   9  -3  18    3.04    3.80   0
  -9  -3 -18    6.40    3.99   0
 -10   3 -18    5.69    4.07   0
  10  -3  18    1.80    4.08   0
 -10  -3 -18    5.62    4.17   0
  10   3  18    7.66    4.48   0
  10  -4 -18    2.49    4.14   0
 -10  -4  18   14.52    3.97   0
 -10   4  18    3.98    4.93   0
   9  -4 -18   28.31    5.12   0
  -9  -4  18   28.65    4.15   0
   9  -4 -18   21.85    4.69   0
  -9   4  18   29.67    5.06   0
   8  -4 -18   14.95    4.42   0
  -8  -4  18    3.00    3.35   0
  -8  -4  18   15.39    3.16   0
   8  -4 -18    4.28    4.27   0
  -8   4  18   13.75    3.91   0
  -7  -4  18   12.61    3.46   0
   7  -4 -18    3.45    4.35   0
   7  -4 -18   10.70    4.25   0
  -7  -4  18    5.60    3.57   0
  -7   4  18    7.81    4.01   0
  -6  -4  18    7.42    3.57   0
  -6   4  18    3.50    3.90   0
   6  -4 -18    8.51    3.86   0
  -6  -4  18    2.73    3.34   0
   6  -4 -18   12.63    3.68   0
   5  -4 -18   74.44    5.32   0
  -5   4  18   66.35    5.20   0
   5  -4 -18   78.63    4.50   0
  -5  -4  18   75.46    3.97   0
  -5  -4  18   66.67    3.94   0
   4  -4 -18  157.24    7.28   0
  -4  -4  18  143.18    4.72   0
  -4   4  18  134.64    6.60   0
  -4   4  18  141.88    5.44   0
  -4  -4  18  138.26    8.71   0
   4  -4 -18  153.70    4.86   0
   3  -4 -18   20.91    5.53   0
  -3   4  18   14.07    4.21   0
  -3  -4  18   19.17    3.63   0
   3  -4 -18   25.29    3.66   0
  -3   4  18   18.56    5.46   0
  -2  -4  18  639.83    7.37   0
  -2   4  18  616.41    7.27   0
  -1  -4  18   53.45    4.11   0
   1   4 -18   51.16    4.03   0
  -1   4  18   51.23    3.88   0
   0   4 -18   68.62    4.31   0
   0   4  18   61.26    4.02   0
   0  -4  18   62.07    4.06   0
  -1   4 -18    0.91    3.46   0
   1  -4  18    2.77    3.38   0
   1   4  18    1.13    3.50   0
   2  -4  18    5.09    3.39   0
  -2   4 -18    0.94    3.38   0
   2   4  18    1.50    3.24   0
  -3  -4 -18  123.25    7.51   0
   3  -4  18  125.07    4.29   0
  -3   4 -18  124.72    4.41   0
   3   4  18  112.89    4.38   0
  -3  -4 -18  125.20    7.10   0
  -4   4 -18   39.26    3.89   0
  -4  -4 -18   37.30    4.94   0
   4   4  18   30.68    4.19   0
   4  -4  18   38.21    3.96   0
  -5  -4 -18   30.15    4.30   0
   5  -4  18   30.95    3.88   0
   5   4  18   29.94    3.80   0
  -5   4 -18   19.78    3.85   0
   6  -4  18   83.03    4.21   0
  -6   4 -18   82.36    4.14   0
   6   4  18   75.69    4.67   0
   7  -4  18   27.30    3.51   0
  -7   4 -18   24.05    3.58   0
  -7  -4 -18   38.48    4.52   0
   7   4  18   34.75    4.68   0
   8  -4  18    1.63    3.42   0
  -8   4 -18    1.83    3.70   0
  -8  -4 -18    4.98    4.71   0
   8   4  18    0.35    4.62   0
   9  -4  18   68.55    4.51   0
  -9   4 -18   75.68    4.41   0
  -9  -4 -18   73.24    5.26   0
   9   4  18    7.95    6.12   0
  10  -4  18    5.90    3.91   0
 -10   4 -18    8.27    4.28   0
 -10  -4 -18   12.36    5.18   0
  10   4  18    0.13    4.80   0
  10  -5 -18    0.03    5.67   0
 -10   5  18   -0.64    4.50   0
 -10  -5  18    0.96    4.37   0
 -10  -5  18    5.05    4.30   0
  -9  -5  18    8.78    3.94   0
   9  -5 -18    3.70    5.11   0
  -9  -5  18    8.78    3.83   0
  -9   5  18   -3.44    5.29   0
   9  -5 -18    8.38    4.57   0
  -8  -5  18    0.09    3.36   0
  -8  -5  18    6.58    3.61   0
   8  -5 -18    6.42    4.19   0
  -8   5  18    3.28    4.55   0
   8  -5 -18   -1.62    4.26   0
  -7  -5  18    1.63    3.16   0
   7  -5 -18    1.50    4.56   0
  -7   5  18    3.74    3.84   0
  -7  -5  18    5.83    3.67   0
   7  -5 -18   -2.37    4.06   0
   6  -5 -18   19.89    4.33   0
  -6   5  18   19.92    4.73   0
   6  -5 -18   26.14    4.03   0
  -6  -5  18   20.34    3.68   0
  -6  -5  18   20.45    3.58   0
   5  -5 -18   44.42    4.68   0
  -5  -5  18   43.10    3.86   0
  -5   5  18   49.03    4.90   0
  -5  -5  18   42.72    3.70   0
   4  -5 -18   13.07    4.67   0
  -4  -5  18   10.76    8.54   0
   4  -5 -18   14.87    3.77   0
  -4  -5  18   11.59    3.20   0
  -4   5  18   13.16    4.68   0
   3  -5 -18   34.01    5.64   0
  -3  -5  18   34.24    3.59   0
  -3   5  18   28.05    5.97   0
  -3   5  18   29.43    4.19   0
   3  -5 -18   34.84    3.53   0
   2  -5 -18  497.37   20.81   0
  -2  -5  18  466.22    6.22   0
   2  -5 -18  494.02    6.33   0
  -2   5  18  447.28    6.60   0
  -1   5  18   65.30    4.22   0
   1  -5 -18   61.83    3.63   0
  -1  -5  18   64.65    3.86   0
   0   5 -18   58.04    3.79   0
   0   5  18   69.43    4.15   0
   0  -5  18   62.30    3.75   0
  -1   5 -18   58.77    3.72   0
   1  -5  18   51.69    3.66   0
   1   5  18   49.47    4.09   0
   2  -5  18   20.07    3.70   0
  -2  -5 -18   22.40    7.45   0
   2   5  18   21.06    3.83   0
  -2  -5 -18   23.92    7.29   0
  -2   5 -18   24.96    3.52   0
   3  -5  18  408.59    6.14   0
  -3   5 -18  428.14    6.30   0
  -3  -5 -18  415.38   11.27   0
   3   5  18  434.45    6.91   0
  -3  -5 -18  424.02   11.32   0
   4  -5  18   81.13    4.09   0
  -4   5 -18   81.51    4.07   0
  -4  -5 -18   85.88    5.94   0
   4   5  18   92.58    4.70   0
  -4  -5 -18   84.42    6.17   0
  -5   5 -18   86.27    4.02   0
  -5  -5 -18  102.93    5.73   0
   5   5  18   97.31    4.92   0
   5  -5  18   99.60    4.10   0
   6  -5  18   23.71    3.33   0
   6   5  18   29.49    4.41   0
  -6   5 -18   31.72    3.48   0
   7  -5  18   55.31    3.95   0
   7   5  18   68.82    4.76   0
  -7   5 -18   74.64    3.84   0
  -8  -5 -18   76.09    5.96   0
  -8   5 -18   76.12    4.50   0
   8  -5  18   42.25    4.62   0
   8   5  18   75.20    4.87   0
   9  -5  18   14.14    3.94   0
  -9  -5 -18    1.30    5.51   0
  -9   5 -18    6.65    4.13   0
   9   5  18    3.71    4.51   0
  -9  -6  18    4.63    4.37   0
   9  -6 -18   18.29    5.37   0
  -9   6  18   -2.79    4.93   0
  -9  -6  18   10.73    4.27   0
  -8  -6  18   -0.36    3.98   0
   8  -6 -18   -0.54    4.95   0
  -8   6  18   -1.57    5.19   0
  -8  -6  18    2.56    4.10   0
  -7  -6  18    2.08    3.50   0
   7  -6 -18    9.28    4.53   0
  -7   6  18    1.23    4.61   0
  -7  -6  18    5.99    3.55   0
   6  -6 -18    5.29    4.18   0
  -6  -6  18    8.90    3.55   0
  -6   6  18    4.73    4.63   0
   6  -6 -18   18.11    3.95   0
  -6  -6  18   12.85    3.46   0
   5  -6 -18   21.24    4.76   0
  -5  -6  18   15.57    3.19   0
  -5  -6  18   13.48    3.35   0
  -5   6  18   22.36    4.73   0
   4  -6 -18   20.38    4.91   0
  -4   6  18   16.77    5.00   0
  -4  -6  18   19.04    3.68   0
   4  -6 -18   22.65    4.06   0
   3  -6 -18   39.99    6.16   0
  -3  -6  18   35.72    3.50   0
  -3   6  18   40.23    6.27   0
  -2  -6  18   18.75    3.68   0
   2  -6 -18   21.04    6.51   0
  -2   6  18   20.08    4.25   0
   2  -6 -18   26.08    3.71   0
  -1   6  18    6.54    3.94   0
  -1  -6  18    2.99    3.19   0
   1  -6 -18    2.86    3.33   0
   0   6  18  196.11    5.53   0
   0   6 -18  190.53    4.53   0
   0  -6  18  210.47    4.71   0
   1  -6  18   78.50    3.86   0
   1   6  18   72.26    4.74   0
  -1   6 -18   73.52    3.80   0
  -2   6 -18  117.98    4.21   0
   2  -6  18  123.52    4.54   0
  -2  -6 -18  123.07    9.06   0
  -2  -6 -18  116.56    8.97   0
   2   6  18  127.06    5.02   0
   3  -6  18   42.22    3.55   0
  -3  -6 -18   36.25    6.23   0
  -3  -6 -18   36.89    5.85   0
   3   6  18   29.65    4.43   0
  -3   6 -18   31.34    3.38   0
   4  -6  18   20.64    3.12   0
  -4  -6 -18   22.42    5.08   0
  -4   6 -18   21.01    3.33   0
  -4  -6 -18   22.83    5.00   0
   4   6  18   23.30    4.63   0
  -5  -6 -18   26.99    5.07   0
  -5   6 -18   17.76    3.79   0
  -5  -6 -18   27.89    5.05   0
   5   6  18   25.38    4.72   0
   5  -6  18   22.79    3.56   0
  -6   6 -18    2.18    3.46   0
  -6  -6 -18   -2.01    4.39   0
  -6  -6 -18    2.67    4.61   0
   6   6  18    2.33    4.25   0
   6  -6  18    2.60    3.59   0
  -7   6 -18   47.07    4.29   0
   7  -6  18   42.78    4.20   0
   7   6  18   48.24    4.52   0
  -8  -6 -18   27.10    4.90   0
   8  -6  18    8.38    4.20   0
   8   6  18   10.33    4.88   0
  -8   6 -18   28.64    4.08   0
  -8  -7  18    4.08    4.26   0
   8  -7 -18    6.32    5.11   0
  -8  -7  18    6.37    3.83   0
  -8   7  18    0.85    5.46   0
  -7  -7  18    2.36    3.93   0
  -7  -7  18   -1.77    3.80   0
   7  -7 -18    0.06    4.80   0
  -7   7  18   -0.62    4.91   0
  -6   7  18    6.19    5.02   0
   6  -7 -18   13.94    5.22   0
   6  -7 -18   11.72    4.28   0
  -6  -7  18    7.02    4.04   0
  -6  -7  18   18.55    3.90   0
   5  -7 -18   34.89    5.40   0
  -5   7  18   39.77    5.53   0
  -5  -7  18   31.87    3.73   0
   5  -7 -18   49.47    4.69   0
  -4   7  18    4.31    5.22   0
   4  -7 -18    9.85    5.10   0
  -4  -7  18    6.24    3.63   0
   4  -7 -18   12.16    4.18   0
  -3  -7  18   28.67    3.62   0
   3  -7 -18   33.55    5.69   0
  -3  -7  18   26.94    7.25   0
  -3   7  18   33.42    6.04   0
   3  -7 -18   42.37    3.73   0
   2  -7 -18    9.85    5.90   0
   2  -7 -18    8.15    3.40   0
  -2  -7  18   12.24    3.12   0
  -1  -7  18   21.68    3.25   0
  -1   7  18   15.39    4.47   0
   1  -7 -18   19.91    6.63   0
   1  -7 -18   19.66    3.69   0
   1  -7 -18   21.64    7.55   0
   0   7 -18   69.45    3.65   0
   0  -7 -18   70.45    9.06   0
   0   7  18   57.31    4.92   0
   0  -7  18   67.53    3.78   0
   0  -7 -18   67.80    8.16   0
  -1   7 -18   -0.05    3.19   0
  -1  -7 -18    0.81    6.30   0
   1  -7  18    0.12    2.91   0
   1   7  18   -3.74    4.54   0
  -1  -7 -18    1.51    6.17   0
   2  -7  18   11.85    3.42   0
  -2  -7 -18    8.19    6.08   0
  -2  -7 -18   10.52    5.85   0
  -2   7 -18   14.31    3.39   0
   2   7  18   14.52    4.78   0
  -3   7 -18   36.10    3.57   0
   3  -7  18   37.17    3.56   0
  -3  -7 -18   41.88    6.41   0
   3   7  18   31.28    5.61   0
  -3  -7 -18   40.36    6.39   0
   4  -7  18   24.78    3.70   0
  -4  -7 -18   19.58    5.53   0
  -4  -7 -18   17.96    5.57   0
   4   7  18   18.64    4.52   0
  -4   7 -18   17.79    3.68   0
  -5  -7 -18    5.25    4.85   0
  -5   7 -18    6.27    3.62   0
   5   7  18    6.04    4.64   0
  -5  -7 -18    8.74    4.94   0
   5  -7  18    9.14    3.43   0
  -6   7 -18    5.22    3.73   0
  -6  -7 -18    4.00    4.87   0
  -6  -7 -18    3.92    5.23   0
   6   7  18    5.53    4.36   0
   6  -7  18    1.84    3.82   0
  -7   7 -18   22.43    3.88   0
  -7  -7 -18   16.10    5.48   0
   7   7  18   17.86    4.83   0
   7  -7  18    4.78    4.08   0
   6  -8 -18   -0.31    5.38   0
  -6   8  18    1.52    5.40   0
   6  -8 -18    1.32    4.55   0
  -6  -8  18    2.94    3.92   0
  -6  -8  18    4.61    3.93   0
  -5   8  18   -0.66    4.86   0
   5  -8 -18    1.65    5.06   0
  -5  -8  18    1.17    3.29   0
   5  -8 -18    0.84    4.16   0
  -4  -8  18   -1.63    3.64   0
   4  -8 -18    0.77    4.73   0
  -4   8  18    0.52    5.03   0
   4  -8 -18    0.37    4.69   0
  -3  -8  18   13.00    3.68   0
   3  -8 -18   15.47    5.43   0
  -3  -8  18   18.08    7.33   0
   3  -8 -18   20.35    4.54   0
   2  -8 -18    0.72    5.64   0
  -2  -8  18    0.66    5.56   0
   2  -8 -18    1.27    4.16   0
  -2  -8  18    0.35    3.11   0
   1  -8 -18    6.17    6.06   0
  -1  -8  18    4.61    3.46   0
   1  -8 -18    8.20    3.88   0
   1  -8 -18    0.88    6.54   0
   0  -8 -18    3.41    6.60   0
   0   8 -18    6.25    3.15   0
   0   8  18   -1.07    4.91   0
   0  -8  18    0.21    3.54   0
   0  -8 -18    0.87    6.15   0
  -1  -8 -18   16.43    6.79   0
   1  -8  18   15.03    3.46   0
   1   8  18   17.92    5.02   0
  -1   8 -18    7.26    3.49   0
  -1  -8 -18   17.97    6.41   0
  -2  -8 -18    8.82    6.24   0
  -2  -8 -18    3.73    5.92   0
   2  -8  18    7.36    3.50   0
   2   8  18    7.46    4.61   0
  -2   8 -18   10.55    3.72   0
   3  -8  18   -0.49    3.50   0
  -3   8 -18    6.85    3.48   0
  -3  -8 -18    4.48    5.85   0
  -3  -8 -18    1.83    5.56   0
   3   8  18    8.61    4.83   0
  -4   8 -18   56.77    3.75   0
   4  -8  18   53.49    3.80   0
  -4  -8 -18   46.29    6.42   0
   4   8  18   54.07    5.69   0
  -4  -8 -18   30.26    6.08   0
  -5  -8 -18    0.43    5.24   0
  -5  -8 -18    1.43    5.55   0
   5   8  18   -2.19    5.38   0
  -5   8 -18    0.76    3.69   0
   5  -8  18    1.19    4.01   0
  -6  -8 -18    0.10    5.77   0
  -6   8 -18    6.09    4.19   0
   6   8  18   -1.82    5.11   0
  -6  -8 -18    3.08    5.43   0
   6  -8  18    2.73    3.70   0
  -4  -9  18    2.90    4.22   0
   4  -9 -18    2.70    5.32   0
   4  -9 -18   10.72    4.88   0
   3  -9 -18    0.65    5.57   0
  -3  -9  18    0.72    7.93   0
   3  -9 -18    2.25    3.91   0
  -3  -9  18    4.05    3.64   0
  -2  -9  18   -0.43    5.85   0
   2  -9 -18   -1.19    6.27   0
   2  -9 -18    1.07    3.77   0
  -2  -9  18    0.33    3.37   0
  -1  -9  18    3.15    5.52   0
   1  -9 -18    0.09    5.86   0
  -1  -9  18    2.85    3.66   0
   1  -9 -18   -0.58    4.21   0
   1  -9 -18   -3.38    6.99   0
   0  -9 -18    7.21    7.97   0
   0  -9  18   14.32    3.64   0
   0  -9 -18   13.46    7.09   0
  -1  -9 -18   20.90    8.03   0
   1  -9  18   28.87    4.00   0
  -1   9 -18   17.52    3.99   0
  -1  -9 -18   19.84    7.01   0
  -2  -9 -18   16.83    6.91   0
  -2  -9 -18   17.10    7.39   0
   2  -9  18   24.27    4.20   0
  -2   9 -18   17.45    4.12   0
   2   9  18    9.21    6.00   0
   3  -9  18    2.61    3.94   0
  -3  -9 -18   -0.20    6.07   0
  -3  -9 -18    0.02    6.30   0
   3   9  18   -4.83    5.16   0
  -3   9 -18    4.76    3.99   0
 -11   0  19    4.78    4.28   0
  11   0 -19   -1.01    5.24   0
  -9   0  19    6.97    4.06   0
  -7   0  19   -0.67    4.29   0
  -5   0  19   -0.27    3.38   0
  -5   0  19   -0.92    4.33   0
  -3   0  19   42.38    4.28   0
  -3   0  19   42.79    4.41   0
  -3   0  19   38.64    4.18   0
  -1   0  19  531.06    7.38   0
  -1   0  19  515.52    8.97   0
   1   0  19    9.06    3.57   0
   3   0  19  446.60    7.35   0
  -3   0 -19  447.13    7.62   0
  -5   0 -19   80.44    4.83   0
   5   0  19   74.30    4.97   0
  -7   0 -19    6.73    3.45   0
   7   0  19    8.14    4.15   0
  -9   0 -19    3.55    4.46   0
   9   0  19    7.14    3.92   0
 -11   0 -19    7.19    4.27   0
  11   0  19   -1.62    4.38   0
 -11  -1  19   -0.05    4.42   0
 -11   1  19   -2.58    4.52   0
 -10  -1  19    5.24    3.75   0
 -10   1  19   10.05    3.99   0
  10  -1 -19    7.69    5.16   0
  10  -1 -19    7.19    4.14   0
  -9  -1  19   27.12    4.42   0
   9  -1 -19   30.26    4.85   0
  -9   1  19   25.43    4.48   0
  -8  -1  19    9.49    3.59   0
  -8   1  19   12.50    3.66   0
   8  -1 -19    7.21    3.87   0
  -7  -1  19  145.17    4.76   0
  -7   1  19  136.79    4.75   0
   7  -1 -19  139.00    5.68   0
  -6  -1  19   16.67    3.69   0
  -6   1  19   17.16    3.72   0
   6  -1 -19   19.38    4.69   0
  -5  -1  19    2.39    3.29   0
  -5   1  19   -1.05    3.81   0
  -5  -1  19    0.59    5.57   0
  -5   1  19    0.62    5.49   0
   5  -1 -19    1.70    4.18   0
  -4  -1  19  293.58    6.05   0
  -4   1  19  284.99    6.36   0
  -4  -1  19  276.66    7.01   0
  -4   1  19  264.15    6.92   0
  -4  -1  19  276.64    6.30   0
  -3   1  19   19.40    3.90   0
  -3   1  19   19.05    4.74   0
  -3   1  19   15.18    4.06   0
  -3  -1  19   16.64    4.10   0
  -3  -1  19   18.61    4.05   0
  -3  -1  19   15.37    3.97   0
  -2  -1  19   12.90    3.25   0
  -2   1  19   14.90    3.96   0
  -2   1  19   12.59    3.62   0
  -2  -1  19    9.70    4.12   0
  -2   1  19   14.17    3.94   0
  -1   1  19   53.77    6.15   0
  -1  -1  19   55.65    3.95   0
  -1   1  19   58.21    5.75   0
  -1   1  19   51.50    3.85   0
   0   1  19  162.95    7.75   0
   0   1 -19  157.16    5.07   0
   0  -1  19  159.05    4.98   0
   0   1  19  160.41    4.42   0
   1  -1  19    7.66    3.78   0
  -1  -1 -19    5.87    4.67   0
   1   1  19    6.15    4.49   0
  -1   1 -19    3.88    3.93   0
   2  -1  19   19.88    3.26   0
  -2  -1 -19   23.86    4.04   0
  -2   1 -19   20.25    3.29   0
   2   1  19   22.35    4.41   0
   3   1  19   51.14    4.46   0
   3  -1  19   48.38    4.25   0
  -3   1 -19   51.99    3.90   0
   4   1  19    0.78    3.59   0
  -4   1 -19    1.93    3.76   0
   4  -1  19    1.02    3.75   0
  -5  -1 -19  168.68    5.65   0
   5   1  19  156.91    5.52   0
  -5   1 -19  181.20    5.04   0
   5  -1  19  172.25    5.05   0
  -6  -1 -19  339.74    6.15   0
   6   1  19  317.20    6.67   0
  -6   1 -19  330.61    6.22   0
   6  -1  19  319.54    6.34   0
  -7  -1 -19   -0.57    4.02   0
   7   1  19   -1.59    3.61   0
  -7   1 -19   -0.35    3.86   0
   7  -1  19   -1.97    3.59   0
  -8  -1 -19   13.75    4.39   0
   8   1  19   15.11    4.43   0
  -8   1 -19   12.55    3.95   0
   8  -1  19   13.31    4.09   0
  -9  -1 -19   -0.22    3.73   0
   9   1  19    0.59    4.28   0
  -9   1 -19    0.80    3.79   0
   9  -1  19    7.57    4.26   0
 -10  -1 -19   -1.34    3.97   0
  10   1  19   -3.96    4.11   0
 -10   1 -19    6.08    4.01   0
  10  -1  19   -1.41    4.54   0
 -11  -1 -19    3.31    5.05   0
  11   1  19    0.51    4.44   0
 -11   1 -19   -1.98    4.20   0
  11  -1  19   -1.32    4.22   0
 -11  -2  19    3.72    4.27   0
 -11   2  19   -0.42    4.61   0
  11  -2 -19   13.48    5.03   0
  11  -2 -19    5.59    4.49   0
 -10  -2  19    5.01    4.11   0
 -10   2  19    1.00    3.89   0
  10  -2 -19    4.16    4.11   0
  -9  -2  19  199.00    5.37   0
  -9   2  19  196.73    5.64   0
   9  -2 -19  196.34    5.93   0
   9  -2 -19  187.56    6.12   0
  -8  -2  19   12.78    3.57   0
  -8   2  19    9.15    3.62   0
   8  -2 -19   12.17    4.45   0
   8  -2 -19    9.76    3.82   0
  -7  -2  19    1.45    3.46   0
  -7   2  19    0.23    3.69   0
   7  -2 -19   -1.76    4.46   0
   7  -2 -19   -3.52    3.49   0
  -6  -2  19  220.68    5.33   0
  -6   2  19  207.38    5.92   0
   6  -2 -19  225.57    5.73   0
   6  -2 -19  219.34    5.82   0
  -5  -2  19    1.83    3.58   0
  -5   2  19    4.44    4.92   0
  -5   2  19    5.61    3.76   0
  -5  -2  19    3.03    6.06   0
  -5  -2  19    1.80    4.17   0
   5  -2 -19    3.14    3.78   0
  -4  -2  19   50.68    3.97   0
  -4   2  19   48.33    4.73   0
  -4   2  19   49.05    5.01   0
   4  -2 -19   57.33    4.33   0
  -4  -2  19   44.05    5.26   0
  -4  -2  19   57.19    3.94   0
  -3   2  19   97.82    5.87   0
  -3  -2  19   99.61    4.91   0
  -3   2  19  103.84    4.67   0
  -3  -2  19   97.86    5.19   0
  -2  -2  19    9.66    3.68   0
  -2   2  19   12.17    5.76   0
  -2   2  19   11.68    3.51   0
  -2   2  19   13.71    6.36   0
  -1  -2  19   54.62    4.02   0
  -1   2  19   51.65    3.64   0
   0   2 -19    0.73    3.60   0
   0  -2  19    0.51    3.48   0
   0   2  19   -0.75    3.28   0
   1  -2  19  133.47    5.03   0
   1   2  19  136.45    3.97   0
   1   2  19    0.03    2.16   0
  -1   2 -19  138.86    4.76   0
  -2  -2 -19   27.85    6.02   0
   2   2  19   23.59    5.58   0
   2  -2  19   25.23    3.92   0
  -2   2 -19   25.73    3.62   0
   2   2  19   22.92    2.99   0
  -3   2 -19    9.71    3.26   0
   3   2  19    6.58    4.39   0
  -3  -2 -19    7.32    4.08   0
   3  -2  19    7.90    3.79   0
  -4  -2 -19   64.42    5.11   0
   4   2  19   60.51    5.32   0
  -4   2 -19   58.45    3.97   0
   4  -2  19   60.07    3.92   0
   5   2  19   68.22    4.92   0
  -5   2 -19   70.41    4.09   0
   5  -2  19   62.19    3.90   0
   6   2  19    7.93    3.64   0
  -6   2 -19    1.88    3.67   0
   6  -2  19    7.58    3.45   0
  -6  -2 -19    4.70    3.21   0
   7   2  19   94.63    4.64   0
  -7   2 -19  107.81    4.88   0
   7  -2  19   87.36    4.34   0
  -7  -2 -19  101.13    4.93   0
   8   2  19   26.15    4.36   0
  -8   2 -19   34.80    4.22   0
   8  -2  19   25.87    4.10   0
  -8  -2 -19   30.52    4.90   0
   9   2  19   -1.25    4.25   0
  -9   2 -19   -2.15    3.92   0
   9  -2  19    0.04    3.90   0
  -9  -2 -19    0.06    4.13   0
  10   2  19   -0.64    4.52   0
 -10   2 -19    3.58    4.08   0
  10  -2  19    4.60    4.14   0
 -10  -2 -19   -1.93    3.86   0
  11   2  19    8.09    5.55   0
  11  -2  19   13.76    4.51   0
 -11  -3  19   40.12    4.98   0
  11  -3 -19   51.15    4.96   0
 -11   3  19   12.38    5.70   0
  11  -3 -19   -6.12    5.25   0
 -10  -3  19    1.09    4.01   0
 -10   3  19   -2.20    4.00   0
  10  -3 -19    3.71    3.97   0
  -9  -3  19    0.92    3.79   0
   9  -3 -19    1.89    3.93   0
  -9   3  19    1.85    3.77   0
   9  -3 -19   -0.91    3.88   0
  -8  -3  19   10.13    3.83   0
   8  -3 -19   17.61    4.28   0
  -8   3  19    9.29    4.64   0
   8  -3 -19   11.67    4.08   0
  -7  -3  19   36.62    3.83   0
   7  -3 -19   34.51    4.10   0
  -7   3  19   35.82    4.16   0
   7  -3 -19   38.47    3.70   0
  -6  -3  19   58.68    3.98   0
  -6   3  19   52.10    4.42   0
   6  -3 -19   55.45    4.38   0
  -6  -3  19   50.00    4.10   0
   6  -3 -19   51.01    4.85   0
  -5  -3  19   35.67    3.95   0
  -5  -3  19   38.42    8.16   0
   5  -3 -19   47.26    4.26   0
  -5   3  19   41.97    4.53   0
   5  -3 -19   39.63    5.13   0
  -5  -3  19   36.75    3.91   0
  -4  -3  19   -1.63    3.77   0
  -4   3  19    5.83    5.21   0
  -4  -3  19    1.60    5.13   0
   4  -3 -19    0.31    3.76   0
  -4   3  19   -0.35    3.82   0
  -4  -3  19    0.09    3.69   0
  -3   3  19  281.14    9.87   0
  -3   3  19  271.03    5.76   0
   3  -3 -19  318.54    5.73   0
  -3  -3  19  285.77    7.52   0
  -3  -3  19  285.26    5.82   0
  -2  -3  19  152.29    4.75   0
  -2   3  19  152.83    4.71   0
  -1  -3  19   41.85    3.86   0
  -1   3  19   39.60    3.89   0
   0   3 -19  252.29    5.49   0
   0  -3  19  260.47    5.31   0
   0   3  19  251.79    4.94   0
  -1   3 -19    3.23    3.35   0
   1  -3  19    3.75    3.41   0
   1   3  19    4.65    3.11   0
   2  -3  19  118.21    4.41   0
  -2   3 -19  135.85    5.04   0
   2   3  19  133.16    4.40   0
   3  -3  19    4.50    3.59   0
  -3   3 -19    5.73    3.45   0
  -3  -3 -19    2.04    4.65   0
   3   3  19    3.96    3.19   0
   4   3  19   62.03    3.87   0
   4  -3  19   56.32    3.92   0
  -4   3 -19   51.77    3.90   0
   4   3  19   50.27    5.71   0
  -4  -3 -19   63.63    5.11   0
  -5   3 -19  100.96    4.32   0
   5  -3  19  105.90    4.25   0
   5   3  19   99.71    5.78   0
   6   3  19    1.59    3.73   0
  -6   3 -19    7.73    3.63   0
   6  -3  19    6.89    3.69   0
   7   3  19    0.07    4.53   0
  -7   3 -19   -2.79    3.72   0
   7  -3  19   -0.03    3.63   0
  -7  -3 -19   -1.10    3.71   0
   8   3  19    1.29    4.11   0
  -8   3 -19    6.00    3.52   0
   8  -3  19    3.62    3.59   0
  -8  -3 -19    5.33    4.43   0
   9   3  19   -2.06    5.13   0
   9  -3  19    0.01    4.02   0
  -9   3 -19    0.74    4.04   0
  -9  -3 -19    3.53    4.07   0
 -10  -3 -19   10.30    4.39   0
  10  -3  19   16.10    4.31   0
 -10   3 -19   17.03    4.26   0
  10   3  19   16.80    5.10   0
  10  -4 -19    1.21    4.14   0
 -10  -4  19    1.68    3.97   0
 -10   4  19    1.56    4.58   0
   9  -4 -19   14.49    4.29   0
  -9  -4  19   18.15    3.99   0
   9  -4 -19   12.51    4.50   0
  -9   4  19    1.83    5.08   0
   8  -4 -19    1.21    4.22   0
  -8  -4  19   -1.77    3.75   0
   8  -4 -19    5.88    4.33   0
  -8  -4  19    3.16    3.60   0
  -8   4  19    4.88    3.76   0
   7  -4 -19   10.96    4.66   0
  -7  -4  19   15.25    3.62   0
  -7  -4  19   15.63    3.81   0
   7  -4 -19   13.58    4.30   0
  -7   4  19   11.50    4.56   0
  -6  -4  19    4.55    3.68   0
   6  -4 -19   -1.92    3.71   0
  -6   4  19    0.82    3.57   0
  -6  -4  19   -1.02    3.66   0
   6  -4 -19    0.00    4.23   0
   5  -4 -19    4.22    4.32   0
  -5   4  19    0.89    4.40   0
  -5  -4  19    0.37    3.92   0
   5  -4 -19    2.45    4.11   0
  -5  -4  19    2.50    3.71   0
   4  -4 -19   53.24    6.03   0
  -4  -4  19   50.41    4.12   0
  -4   4  19   46.22    5.61   0
  -4   4  19   44.13    4.67   0
  -4  -4  19   49.16    6.70   0
   4  -4 -19   56.31    4.51   0
  -3   4  19  192.39    9.58   0
  -3   4  19  191.97    5.35   0
  -3  -4  19  208.37    4.93   0
   3  -4 -19  204.91    4.99   0
  -2  -4  19  103.75    4.42   0
  -2   4  19  108.91    4.67   0
  -1   4  19   29.54    3.88   0
  -1  -4  19   43.13    3.97   0
   0   4 -19  222.05    5.17   0
   0   4  19  199.60    5.27   0
   0  -4  19  215.46    5.38   0
  -1   4 -19   30.75    3.78   0
   1  -4  19   34.24    3.72   0
   1   4  19   25.45    3.56   0
   2  -4  19   -0.21    3.51   0
  -2   4 -19   -1.63    3.46   0
   2   4  19    2.33    3.20   0
  -3  -4 -19   63.34    6.63   0
   3  -4  19   67.29    3.89   0
  -3   4 -19   52.61    4.05   0
   3   4  19   54.28    3.93   0
  -3  -4 -19   63.21    6.94   0
  -4   4 -19   30.40    3.93   0
   4   4  19   27.87    4.08   0
  -4  -4 -19   28.08    4.86   0
   4  -4  19   27.26    3.97   0
  -5  -4 -19   30.25    4.71   0
   5  -4  19   33.14    3.85   0
   5   4  19   35.43    4.09   0
  -5   4 -19   27.89    3.93   0
   6  -4  19    0.08    3.16   0
  -6   4 -19    0.68    3.56   0
   6   4  19   -2.73    3.79   0
   7  -4  19    2.55    3.75   0
  -7   4 -19    5.77    3.78   0
  -7  -4 -19    4.81    4.15   0
   7   4  19    6.19    4.35   0
   8  -4  19    2.03    3.97   0
  -8   4 -19   -3.66    3.85   0
  -8  -4 -19    1.24    4.50   0
  -9   4 -19   10.18    4.08   0
   9  -4  19    2.31    4.01   0
  -9  -4 -19    9.95    5.14   0
   9   4  19   -0.90    4.80   0
  10  -4  19   -1.03    4.49   0
 -10   4 -19   13.48    4.50   0
 -10  -4 -19   18.17    5.33   0
  10   4  19    0.04    4.85   0
  10  -5 -19    8.42    5.57   0
 -10  -5  19   17.77    4.49   0
 -10   5  19   -2.74    5.33   0
 -10  -5  19    2.81    4.55   0
   9  -5 -19   -1.50    4.73   0
  -9  -5  19   -0.55    3.94   0
  -9   5  19    0.39    4.60   0
  -9  -5  19    3.32    4.13   0
   9  -5 -19    0.90    4.43   0
  -8  -5  19   -0.50    3.92   0
   8  -5 -19    1.37    4.49   0
  -8   5  19    3.67    4.54   0
   8  -5 -19    3.39    4.27   0
  -8  -5  19   -0.10    4.03   0
  -7  -5  19    2.22    3.10   0
   7  -5 -19    0.46    4.61   0
  -7  -5  19   -0.00    3.42   0
  -7   5  19   -2.33    4.58   0
   7  -5 -19    0.32    4.06   0
   6  -5 -19    1.91    4.53   0
  -6   5  19    0.83    4.49   0
  -6  -5  19    2.26    3.48   0
   6  -5 -19    2.19    3.78   0
  -6  -5  19   -1.10    3.40   0
   5  -5 -19   -0.77    4.66   0
  -5  -5  19    0.29    3.33   0
  -5   5  19    0.52    4.31   0
  -5  -5  19    0.36    3.34   0
   4  -5 -19    9.87    5.04   0
  -4  -5  19    4.42    3.61   0
   4  -5 -19    9.07    3.63   0
  -4  -5  19    7.27    7.35   0
  -4   5  19    7.40    5.03   0
   3  -5 -19    4.02    6.43   0
  -3   5  19    3.04    6.20   0
  -3  -5  19    0.82    3.62   0
  -3   5  19    4.81    4.13   0
   3  -5 -19    6.67    3.59   0
  -2  -5  19   30.70    3.50   0
  -2   5  19   27.46    3.98   0
  -1   5  19   54.63    3.91   0
  -1  -5  19   61.12    3.91   0
   0   5 -19  358.26    5.88   0
   0   5  19  328.05    5.66   0
   0  -5  19  366.36    5.94   0
  -1   5 -19   66.97    3.98   0
   1  -5  19   74.07    3.95   0
   1   5  19   70.08    4.08   0
   2  -5  19   90.24    4.11   0
   2   5  19   85.34    4.39   0
  -2   5 -19   90.32    4.14   0
   3  -5  19    1.45    3.20   0
  -3   5 -19    4.18    3.50   0
  -3  -5 -19    5.87    5.68   0
   3   5  19    3.41    3.67   0
  -3  -5 -19    8.34    5.77   0
   4  -5  19  106.18    4.33   0
  -4   5 -19  114.51    4.29   0
  -4  -5 -19  125.93    6.59   0
  -4  -5 -19  123.56    7.05   0
   4   5  19  115.35    5.02   0
  -5   5 -19    7.14    3.30   0
  -5  -5 -19    3.03    4.67   0
   5   5  19    2.56    4.09   0
   5  -5  19    1.96    3.36   0
  -6  -5 -19    2.26    4.28   0
   6  -5  19    4.69    3.19   0
   6   5  19    1.07    4.37   0
  -6   5 -19    3.80    3.28   0
   7  -5  19   -2.19    3.51   0
   7   5  19   -0.67    4.49   0
  -7   5 -19   -0.69    3.74   0
   8  -5  19   10.90    3.98   0
  -8  -5 -19   17.33    4.89   0
  -8   5 -19   19.16    3.96   0
   8   5  19   13.15    4.54   0
   9  -5  19    3.23    4.13   0
  -9  -5 -19   -0.55    5.26   0
  -9   5 -19    7.09    3.67   0
   9   5  19    1.25    4.88   0
  -9  -6  19   -3.54    4.19   0
   9  -6 -19    1.42    5.02   0
  -9  -6  19    2.51    4.19   0
  -9   6  19   -1.75    5.43   0
  -8  -6  19   -2.51    3.52   0
   8  -6 -19    0.76    4.30   0
  -8   6  19   -0.95    4.22   0
   8  -6 -19   -3.67    4.42   0
  -8  -6  19   -1.09    3.85   0
  -7  -6  19   58.80    4.63   0
   7  -6 -19    8.25    5.31   0
  -7  -6  19   48.36    4.40   0
  -7   6  19   45.09    5.64   0
  -6  -6  19    3.87    3.68   0
   6  -6 -19    1.35    4.29   0
  -6   6  19    5.63    4.59   0
   6  -6 -19    5.00    3.78   0
  -6  -6  19    5.21    3.77   0
  -5   6  19    1.35    5.21   0
   5  -6 -19   -0.09    4.39   0
  -5  -6  19   -0.57    3.40   0
  -5  -6  19    2.99    3.42   0
   4  -6 -19    1.59    5.09   0
  -4  -6  19   12.01    3.04   0
  -4   6  19    4.72    5.29   0
   4  -6 -19    5.09    3.79   0
   3  -6 -19   66.53    7.51   0
  -3   6  19   60.22    7.83   0
  -3  -6  19   59.05    3.82   0
   3  -6 -19   66.43    4.23   0
  -2  -6  19   24.51    3.33   0
  -2   6  19   19.61    4.04   0
   2  -6 -19   26.07    3.51   0
  -1   6  19   92.90    4.95   0
  -1  -6  19  100.80    4.16   0
   1  -6 -19  103.92    4.25   0
   0   6  19  185.20    5.16   0
   0  -6  19  186.31    4.63   0
   0   6 -19   49.31    4.97   0
   1  -6  19    8.56    3.35   0
   1   6  19    3.24    3.91   0
  -1   6 -19   -0.26    3.16   0
  -2   6 -19   13.29    3.35   0
  -2  -6 -19   15.73    9.21   0
   2  -6  19   19.30    3.37   0
   2   6  19   18.78    4.31   0
  -2  -6 -19   14.73    9.23   0
   3  -6  19   25.07    3.44   0
  -3  -6 -19   24.82    6.38   0
   3   6  19   24.02    4.30   0
  -3   6 -19   25.15    3.50   0
  -3  -6 -19   20.25    6.69   0
   4  -6  19   43.71    3.61   0
  -4   6 -19   41.98    3.63   0
  -4  -6 -19   43.06    5.83   0
   4   6  19   43.45    4.98   0
  -4  -6 -19   43.12    5.89   0
  -5   6 -19    2.33    3.54   0
  -5  -6 -19    0.02    4.78   0
   5   6  19   -4.41    4.38   0
   5  -6  19   -0.29    3.57   0
  -5  -6 -19   -1.08    4.96   0
  -6   6 -19    8.09    3.80   0
  -6  -6 -19    5.21    4.46   0
   6   6  19    1.92    4.13   0
   6  -6  19    7.34    3.65   0
  -6  -6 -19    3.47    4.54   0
  -7   6 -19    4.99    3.85   0
   7   6  19    0.34    4.25   0
   7  -6  19    4.27    3.86   0
  -8  -6 -19    3.09    4.73   0
   8  -6  19   -0.06    4.03   0
   8   6  19    0.94    4.91   0
  -8   6 -19    2.58    4.26   0
  -8  -7  19    1.77    4.22   0
   8  -7 -19   -1.51    5.26   0
  -8  -7  19   -5.14    4.31   0
  -8   7  19   -0.68    5.13   0
  -7  -7  19    3.42    3.83   0
  -7  -7  19   -0.72    3.83   0
   7  -7 -19   -0.77    4.65   0
   7  -7 -19    2.20    4.27   0
  -7   7  19    1.07    4.89   0
  -6   7  19    3.67    5.52   0
   6  -7 -19   15.10    4.96   0
  -6  -7  19   17.21    4.04   0
  -6  -7  19   15.81    4.04   0
   5  -7 -19   10.22    4.55   0
  -5  -7  19   14.51    3.90   0
  -5   7  19    1.87    5.36   0
   4  -7 -19   32.24    6.08   0
  -4  -7  19   34.49    3.61   0
  -4   7  19   28.16    5.95   0
   4  -7 -19   38.56    4.72   0
  -3  -7  19    0.94    3.22   0
   3  -7 -19    1.93    5.53   0
  -3  -7  19    2.63    6.46   0
   3  -7 -19    3.37    4.02   0
   2  -7 -19    1.48    6.49   0
   2  -7 -19    3.38    3.20   0
  -2  -7  19    3.26    3.30   0
  -1   7  19   17.55    4.02   0
  -1  -7  19    9.61    3.44   0
   1  -7 -19   19.24    3.54   0
   0   7  19    5.95    4.02   0
   0  -7  19    5.59    3.01   0
   0   7 -19    8.12    3.42   0
  -1   7 -19    6.52    3.49   0
   1  -7  19    8.14    3.41   0
   1   7  19   10.37    4.45   0
  -2  -7 -19   47.30    8.26   0
   2  -7  19   51.01    3.53   0
  -2  -7 -19   54.12    8.07   0
  -2   7 -19   50.64    3.82   0
   2   7  19   45.22    4.57   0
  -3   7 -19    2.36    3.10   0
   3  -7  19    0.38    3.30   0
  -3  -7 -19    0.75    5.67   0
   3   7  19    0.36    4.25   0
  -3  -7 -19    0.64    5.85   0
   4  -7  19    6.07    3.32   0
  -4  -7 -19    8.96    5.41   0
  -4  -7 -19   10.91    5.36   0
   4   7  19   16.60    4.38   0
  -4   7 -19   15.26    3.46   0
  -5  -7 -19    0.36    4.86   0
  -5   7 -19    0.09    3.73   0
   5   7  19    2.71    4.65   0
  -5  -7 -19   -0.40    4.46   0
   5  -7  19    1.24    4.03   0
  -6   7 -19    6.36    3.80   0
  -6  -7 -19    4.00    4.95   0
  -6  -7 -19    7.72    4.84   0
   6   7  19    3.28    4.54   0
   6  -7  19    5.59    3.79   0
  -7  -7 -19    3.31    5.42   0
  -7   7 -19    5.50    3.98   0
  -7  -7 -19    4.78    4.96   0
   7   7  19    1.99    5.64   0
   7  -7  19   -0.63    4.00   0
   6  -8 -19    0.04    5.65   0
  -6  -8  19   -0.68    4.21   0
  -6   8  19    5.31    5.56   0
   6  -8 -19    5.71    4.47   0
  -6  -8  19    0.34    4.20   0
   5  -8 -19    1.74    5.22   0
  -5  -8  19    2.79    3.80   0
  -5   8  19    0.94    5.40   0
   5  -8 -19    6.62    4.27   0
  -4  -8  19   47.65    4.20   0
  -4   8  19   11.59    6.82   0
   4  -8 -19   39.15    6.44   0
   4  -8 -19   44.53    4.79   0
   3  -8 -19   28.53    6.46   0
  -3  -8  19   26.90    7.95   0
   3  -8 -19   35.38    4.71   0
  -3  -8  19   36.56    3.88   0
  -2  -8  19    0.99    6.12   0
   2  -8 -19    1.12    6.33   0
  -2  -8  19    2.99    3.59   0
   2  -8 -19    4.38    4.15   0
   1  -8 -19   26.94    8.63   0
   1  -8 -19   24.36    7.99   0
  -1  -8  19   28.92    3.64   0
   1  -8 -19   29.11    4.32   0
   0  -8 -19    0.17    7.76   0
   0   8 -19   -4.61    3.74   0
   0   8  19    1.12    5.05   0
   0  -8  19    0.77    3.58   0
   0  -8 -19    1.06    7.26   0
  -1  -8 -19    3.00    7.79   0
   1  -8  19    4.22    3.63   0
   1   8  19    3.97    4.92   0
  -1   8 -19   -0.99    3.24   0
  -1  -8 -19    2.22    7.51   0
  -2  -8 -19   50.87    8.12   0
   2  -8  19   59.10    3.84   0
  -2  -8 -19   53.05    8.48   0
   2   8  19   58.60    5.34   0
  -2   8 -19   62.24    4.25   0
   3  -8  19    1.21    4.10   0
  -3   8 -19    2.82    3.95   0
  -3  -8 -19   15.79    6.64   0
  -3  -8 -19   23.02    7.16   0
   3   8  19   18.88    5.78   0
  -4   8 -19   12.27    3.88   0
   4  -8  19    6.54    3.67   0
  -4  -8 -19   18.56    6.31   0
   4   8  19    8.37    5.38   0
  -4  -8 -19   12.51    6.29   0
  -5  -8 -19    0.26    5.25   0
  -5  -8 -19   -1.46    4.83   0
   5   8  19    0.42    4.90   0
  -5   8 -19   -3.21    4.02   0
   5  -8  19   -3.86    3.70   0
   3  -9 -19   12.03    7.22   0
  -3  -9  19   22.60    7.98   0
   3  -9 -19   27.84    4.84   0
  -3  -9  19   21.52    4.15   0
   2  -9 -19    2.24    7.31   0
  -2  -9  19    3.11    5.85   0
  -2  -9  19    6.26    3.83   0
   2  -9 -19    6.31    4.33   0
   1  -9 -19    4.90    8.63   0
  -1  -9  19    4.05    6.43   0
   1  -9 -19    8.48    7.44   0
  -1  -9  19    4.20    3.85   0
   1  -9 -19    8.50    4.49   0
   0  -9 -19    1.52    8.40   0
   0  -9  19   -0.07    3.82   0
   0  -9 -19    0.59    7.47   0
  -1  -9 -19   -0.59    7.22   0
   1  -9  19    1.34    3.68   0
  -1   9 -19   -0.39    3.76   0
  -1  -9 -19    0.46    7.37   0
  -2  -9 -19    2.11    6.87   0
   2  -9  19    0.82    3.84   0
  -2  -9 -19   -1.15    7.56   0
  -2   9 -19    1.94    3.83   0
   2   9  19    3.53    5.14   0
   3  -9  19    1.68    4.17   0
   3   9  19    9.16    5.08   0
 -10   0  20   10.45    4.48   0
  -8   0  20   20.11    3.81   0
  -6   0  20  100.21    4.38   0
  -4   0  20  143.72    5.23   0
  -4   0  20  138.35    5.43   0
  -2   0  20   72.03    4.22   0
  -2   0  20   70.54    4.32   0
  -2   0  20   65.15    4.80   0
   0   0  20   24.16    3.76   0
   2   0  20   19.78    3.66   0
   4   0  20   46.09    4.36   0
  -4   0 -20   50.49    3.71   0
  -6   0 -20   28.12    3.47   0
   6   0  20   23.69    4.12   0
  -8   0 -20   47.96    4.86   0
   8   0  20   57.43    4.81   0
 -10   0 -20    1.04    4.26   0
  10   0  20    2.04    4.88   0
 -11  -1  20   45.17    4.76   0
 -11   1  20   -6.15    4.52   0
  10  -1 -20   -1.32    4.84   0
 -10  -1  20    1.67    3.97   0
 -10   1  20    5.70    4.03   0
  -9  -1  20   45.44    4.44   0
  -9   1  20   35.81    4.59   0
   9  -1 -20   38.33    4.80   0
  -8  -1  20    3.26    3.57   0
  -8   1  20    4.02    3.62   0
   8  -1 -20    2.56    3.76   0
  -7  -1  20  141.09    5.02   0
  -7   1  20  141.30    4.89   0
   7  -1 -20  128.82    4.88   0
  -6  -1  20   52.98    4.12   0
  -6   1  20   52.03    4.44   0
   6  -1 -20   58.43    4.17   0
  -5  -1  20   95.95    4.31   0
  -5   1  20   94.21    4.47   0
  -5   1  20   93.36    6.04   0
  -5  -1  20   88.29    5.49   0
   5  -1 -20  100.70    4.54   0
  -4  -1  20   15.27    3.54   0
  -4   1  20   15.69    4.01   0
  -4   1  20   10.41    4.93   0
  -4  -1  20   18.48    4.81   0
  -4  -1  20   20.45    3.66   0
  -3  -1  20    3.38    4.21   0
  -3   1  20    6.79    3.74   0
  -3  -1  20    7.98    3.26   0
  -3   1  20    5.78    3.99   0
  -3   1  20    8.30    3.92   0
  -3  -1  20    9.16    3.82   0
  -2   1  20   70.97    5.61   0
  -2   1  20   69.32    5.42   0
  -2  -1  20   67.21    3.92   0
  -2   1  20   60.89    4.41   0
  -2  -1  20   64.12    4.28   0
  -1  -1  20  619.64    8.54   0
  -1   1  20  621.16   12.87   0
  -1   1  20  623.23   12.06   0
  -1   1  20  596.88    7.15   0
   0   1  20   26.69    5.39   0
   0  -1  20   24.05    3.78   0
   0   1 -20   29.57    3.66   0
   0   1  20   28.22    3.17   0
  -1  -1 -20  114.99    6.46   0
  -1   1 -20  113.92    4.53   0
   1  -1  20  121.29    4.92   0
   1   1  20  117.12    6.23   0
   2  -1  20   -0.10    3.46   0
  -2  -1 -20   -0.11    3.62   0
  -2   1 -20   -0.79    3.09   0
   2   1  20   -0.65    4.22   0
   3   1  20  223.28    6.83   0
   3  -1  20  238.09    5.89   0
  -3   1 -20  235.81    5.62   0
   4   1  20   52.79    4.51   0
   4  -1  20   57.03    4.50   0
  -4   1 -20   54.69    3.83   0
  -5  -1 -20   -0.67    3.97   0
   5   1  20    1.67    3.36   0
  -5   1 -20    2.23    3.37   0
   5  -1  20    1.13    3.58   0
  -6  -1 -20   -5.03    3.97   0
   6   1  20   -0.26    3.78   0
  -6   1 -20    2.23    3.62   0
   6  -1  20   -1.04    3.62   0
  -7  -1 -20   61.45    4.05   0
   7   1  20   48.64    4.53   0
  -7   1 -20   43.50    3.97   0
   7  -1  20   45.59    3.99   0
  -8  -1 -20   41.11    4.61   0
   8   1  20   44.01    4.79   0
  -8   1 -20   42.75    4.25   0
   8  -1  20   38.92    4.69   0
  -9  -1 -20    9.85    3.83   0
   9   1  20   10.63    4.48   0
  -9   1 -20    9.29    3.98   0
   9  -1  20    4.51    4.33   0
 -10  -1 -20   -1.53    4.07   0
  10   1  20    0.67    4.09   0
 -10   1 -20    3.02    4.19   0
  10  -1  20   -2.04    4.67   0
 -11  -2  20    0.88    4.19   0
 -11   2  20   -0.99    4.65   0
  11  -2 -20    1.97    5.00   0
 -10  -2  20   21.50    4.21   0
 -10   2  20   -2.84    4.06   0
  10  -2 -20   20.34    4.04   0
  -9  -2  20    2.28    3.85   0
  -9   2  20    3.75    3.90   0
   9  -2 -20   -2.70    4.95   0
   9  -2 -20    1.15    4.09   0
  -8  -2  20    7.66    3.89   0
  -8   2  20    6.24    3.62   0
   8  -2 -20    3.79    4.25   0
   8  -2 -20    6.12    4.40   0
  -7  -2  20   25.94    3.78   0
  -7   2  20   31.14    4.08   0
   7  -2 -20   29.33    3.98   0
   7  -2 -20   28.47    4.27   0
  -6  -2  20  140.17    4.81   0
  -6   2  20  149.37    4.97   0
   6  -2 -20  147.03    5.83   0
  -5  -2  20   39.67    3.76   0
  -5  -2  20   34.15    3.96   0
  -5   2  20   27.90    4.95   0
  -5   2  20   31.66    3.89   0
  -5  -2  20   33.22    6.01   0
   5  -2 -20   30.74    4.01   0
  -4   2  20   48.65    4.82   0
  -4   2  20   47.45    4.95   0
  -4  -2  20   45.95    5.44   0
   4  -2 -20   51.95    4.88   0
  -4  -2  20   43.52    3.89   0
  -4  -2  20   45.87    3.98   0
  -3  -2  20   48.56    3.93   0
  -3   2  20   51.98    5.26   0
  -3   2  20   54.28    4.99   0
  -3  -2  20   47.40    4.62   0
  -3   2  20   50.79    5.71   0
  -2   2  20   67.45    7.62   0
  -2  -2  20   62.89    4.16   0
  -2   2  20   68.27    7.51   0
  -2   2  20   69.29    4.16   0
  -1  -2  20   62.54    4.13   0
  -1   2  20   63.66    3.83   0
   0   2 -20  182.00    5.14   0
   0  -2  20  178.11    5.45   0
   0   2  20  179.57    4.60   0
  -1   2 -20    2.74    3.46   0
   1  -2  20    6.38    4.14   0
   1   2  20    5.56    2.77   0
   2  -2  20    2.22    3.34   0
   2   2  20    0.82    4.92   0
  -2  -2 -20   -1.16    5.04   0
  -2   2 -20   -2.44    3.85   0
   2   2  20    0.30    3.02   0
  -3   2 -20    5.21    3.82   0
   3   2  20    7.02    4.40   0
  -3  -2 -20    4.81    4.15   0
   3  -2  20    4.21    3.27   0
   4   2  20  495.73    9.82   0
  -4  -2 -20  524.59    9.40   0
   4  -2  20  530.23    7.33   0
  -4   2 -20  525.56    6.97   0
   5   2  20  165.82    6.32   0
  -5   2 -20  193.75    5.18   0
   5  -2  20  180.92    5.17   0
  -6  -2 -20   61.98    3.91   0
   6   2  20   52.13    4.49   0
  -6   2 -20   67.96    4.16   0
   6  -2  20   62.44    4.10   0
   7   2  20    7.99    3.61   0
  -7   2 -20    8.76    3.67   0
   7  -2  20    4.33    3.57   0
  -7  -2 -20    7.35    3.67   0
   8   2  20    4.73    3.95   0
  -8   2 -20    1.12    4.09   0
   8  -2  20   -4.30    4.51   0
  -8  -2 -20    0.74    3.82   0
   9   2  20   23.97    4.81   0
  -9   2 -20   24.56    4.21   0
   9  -2  20   13.95    3.97   0
  -9  -2 -20   29.93    4.76   0
  10   2  20   -3.63    4.80   0
  10  -2  20    0.29    4.22   0
 -10   2 -20   -1.19    4.34   0
 -10  -2 -20   -1.59    4.14   0
 -11  -3  20    8.97    4.71   0
 -11   3  20    2.55    5.13   0
  11  -3 -20   10.00    5.40   0
 -10  -3  20    0.92    4.20   0
 -10   3  20    2.26    4.04   0
  10  -3 -20    3.74    4.18   0
  -9  -3  20   26.90    4.24   0
  -9   3  20   42.29    4.48   0
   9  -3 -20   38.96    5.18   0
  -8  -3  20    1.12    3.81   0
  -8   3  20   -1.75    4.42   0
   8  -3 -20   -2.93    4.61   0
   8  -3 -20    0.04    4.58   0
  -7  -3  20   -0.28    3.74   0
  -7   3  20    0.85    4.15   0
   7  -3 -20   -0.18    3.89   0
  -7  -3  20    2.66    3.81   0
   7  -3 -20    1.38    3.59   0
  -6  -3  20   20.54    3.95   0
  -6  -3  20   20.40    3.74   0
  -6   3  20   18.91    4.18   0
   6  -3 -20   18.17    4.57   0
   6  -3 -20   13.07    4.19   0
  -5  -3  20    4.77    3.61   0
  -5  -3  20    1.30    6.35   0
  -5   3  20    0.30    4.21   0
   5  -3 -20   -1.06    4.44   0
   5  -3 -20    2.48    4.49   0
  -5  -3  20   -1.56    3.68   0
  -4  -3  20  172.77    5.08   0
  -4  -3  20  173.99    7.43   0
  -4   3  20  184.49    5.91   0
   4  -3 -20  200.39    5.31   0
  -4  -3  20  181.00    5.06   0
  -4   3  20  177.90    7.44   0
  -3   3  20  176.20    8.90   0
  -3   3  20  157.63    5.04   0
  -3  -3  20  171.10    5.23   0
  -3  -3  20  181.58    6.59   0
   3  -3 -20  200.46    5.00   0
  -2  -3  20  187.62    5.06   0
  -2   3  20  198.81    5.16   0
  -1   3  20   36.47    4.15   0
  -1  -3  20   43.16    3.83   0
   0   3 -20    8.15    4.06   0
   0  -3  20    9.81    3.42   0
   0   3  20    6.80    3.27   0
  -1   3 -20   54.56    3.98   0
   1  -3  20   51.98    3.84   0
   1   3  20   56.17    3.53   0
   2  -3  20   -1.18    3.44   0
  -2   3 -20   -1.38    3.53   0
   2   3  20   -0.65    3.12   0
   3  -3  20  174.69    4.76   0
  -3   3 -20  177.58    4.83   0
  -3  -3 -20  168.62    8.13   0
   3   3  20  152.64    4.46   0
  -4   3 -20   -0.16    3.57   0
  -4  -3 -20    0.46    4.47   0
   4   3  20   -0.58    3.24   0
   4  -3  20   -1.06    3.95   0
   4   3  20   -0.48    4.98   0
   5  -3  20   37.18    3.85   0
  -5   3 -20   36.41    4.21   0
  -5  -3 -20   38.92    4.72   0
   5   3  20   41.56    4.96   0
   6   3  20   56.89    4.97   0
   6  -3  20   53.58    4.04   0
  -6   3 -20   59.45    4.11   0
   7   3  20    6.07    4.63   0
   7  -3  20   14.76    3.88   0
  -7   3 -20   15.34    3.93   0
  -7  -3 -20   19.55    4.26   0
   8   3  20   28.24    4.84   0
   8  -3  20   32.67    4.02   0
  -8   3 -20   32.30    4.05   0
  -8  -3 -20   27.44    4.89   0
   9   3  20   -0.87    4.94   0
   9  -3  20    1.76    4.00   0
  -9   3 -20    0.80    3.98   0
  -9  -3 -20    1.00    5.00   0
  10  -3  20    1.68    4.14   0
 -10   3 -20    6.03    4.08   0
 -10  -3 -20    3.09    4.43   0
  10   3  20    0.93    5.18   0
  10  -4 -20    0.62    4.47   0
 -10  -4  20   25.74    4.59   0
 -10   4  20   -0.24    5.12   0
   9  -4 -20   22.53    5.85   0
  -9  -4  20   50.78    3.95   0
  -9  -4  20   52.70    4.41   0
   9  -4 -20   49.83    4.98   0
  -9   4  20   46.85    5.94   0
  -8  -4  20    3.99    3.96   0
   8  -4 -20    3.70    4.50   0
  -8  -4  20    0.44    3.85   0
   8  -4 -20    3.89    4.14   0
  -8   4  20   -0.32    4.43   0
   7  -4 -20   13.07    4.56   0
  -7  -4  20    7.32    3.73   0
  -7  -4  20    0.68    3.81   0
   7  -4 -20    6.58    4.15   0
  -7   4  20    9.67    4.45   0
  -6  -4  20   -1.05    3.83   0
   6  -4 -20   -2.91    4.26   0
  -6   4  20    1.92    4.31   0
  -6  -4  20   -2.74    3.84   0
   6  -4 -20   -0.96    4.22   0
  -5   4  20  280.93    7.98   0
  -5  -4  20  292.35    5.77   0
  -5  -4  20  272.78    5.87   0
   5  -4 -20  290.46    8.09   0
  -4  -4  20  170.67    4.90   0
  -4   4  20  153.09    7.48   0
  -4   4  20  149.78    5.49   0
  -4  -4  20  160.55    7.64   0
   4  -4 -20  174.81    4.94   0
   4  -4 -20  170.51    8.10   0
  -3   4  20  167.69   11.03   0
  -3   4  20  178.11    5.25   0
  -3  -4  20  184.43    5.04   0
   3  -4 -20  195.73    4.99   0
  -2  -4  20   31.60    3.81   0
  -2   4  20   20.49    3.93   0
   2  -4 -20   25.81    3.54   0
  -1   4  20   22.62    3.67   0
  -1  -4  20   32.48    3.88   0
   0   4 -20    7.44    3.65   0
   0  -4  20   10.66    3.63   0
   0   4  20    9.62    3.37   0
  -1   4 -20   33.45    3.85   0
   1  -4  20   38.60    3.84   0
   1   4  20   27.81    3.70   0
   2  -4  20    8.42    3.57   0
  -2   4 -20   13.42    3.54   0
   2   4  20    9.69    3.42   0
   3  -4  20   38.16    4.01   0
  -3  -4 -20   37.66    6.53   0
  -3   4 -20   44.28    3.89   0
  -3  -4 -20   35.47    6.79   0
   3   4  20   31.94    3.75   0
  -4   4 -20  287.60    5.58   0
   4   4  20  271.06    5.90   0
  -4  -4 -20  297.39    8.82   0
   4  -4  20  290.11    5.54   0
  -5   4 -20    1.15    3.57   0
   5  -4  20    4.07    3.58   0
   5   4  20    0.90    3.81   0
  -5  -4 -20    3.69    4.37   0
   6  -4  20   70.39    4.34   0
  -6   4 -20   74.48    4.32   0
   6   4  20   64.71    4.70   0
   7  -4  20   22.18    3.89   0
  -7   4 -20   20.17    3.85   0
   7   4  20   18.97    4.41   0
   8  -4  20   35.02    4.34   0
  -8   4 -20   51.92    4.40   0
  -8  -4 -20   44.01    4.61   0
   8   4  20   40.68    4.88   0
   9  -4  20    4.62    4.03   0
  -9   4 -20    4.69    4.00   0
  -9  -4 -20    3.88    5.20   0
   9   4  20   -3.73    4.81   0
   9  -5 -20   -0.64    5.69   0
  -9  -5  20   -3.21    4.04   0
  -9   5  20   -2.24    4.92   0
   9  -5 -20    3.00    4.44   0
  -9  -5  20   -1.29    3.50   0
   8  -5 -20    1.96    5.12   0
  -8  -5  20   15.95    4.08   0
  -8   5  20    3.86    4.85   0
  -8  -5  20   11.21    3.92   0
   8  -5 -20   11.90    4.40   0
  -7  -5  20    5.49    3.31   0
   7  -5 -20   11.56    4.44   0
  -7   5  20    4.78    4.54   0
   7  -5 -20    5.66    4.18   0
  -7  -5  20    8.47    3.58   0
   6  -5 -20    3.42    4.47   0
  -6   5  20    2.64    4.45   0
  -6  -5  20    7.43    3.62   0
   6  -5 -20    5.31    3.77   0
  -6  -5  20    5.06    3.31   0
   5  -5 -20    3.30    4.72   0
  -5  -5  20    4.60    3.55   0
  -5   5  20    4.12    4.80   0
  -5  -5  20    6.78    3.54   0
   4  -5 -20   55.50    6.54   0
  -4   5  20   47.28    6.23   0
  -4  -5  20   42.40    3.82   0
  -4  -5  20   48.47    7.88   0
   4  -5 -20   59.59    4.16   0
  -3  -5  20    5.09    3.53   0
  -3   5  20   -6.21    3.56   0
  -3   5  20    0.26    8.46   0
  -2  -5  20   37.32    4.01   0
  -2   5  20   35.13    3.55   0
  -1   5  20   79.92    4.12   0
  -1  -5  20   76.34    4.03   0
   0   5 -20    8.42    3.51   0
   0   5  20    5.80    3.68   0
   0  -5  20    8.07    3.47   0
   1  -5  20    4.89    3.38   0
  -1   5 -20    0.67    3.40   0
   1   5  20    0.97    3.65   0
   2  -5  20    1.08    3.25   0
   2   5  20    4.72    3.87   0
  -2   5 -20    1.90    3.41   0
  -3  -5 -20  269.24   12.62   0
   3  -5  20  262.33    5.33   0
  -3  -5 -20  253.93   12.61   0
  -3   5 -20  272.40    5.33   0
   3   5  20  253.34    5.70   0
   4  -5  20   15.77    3.39   0
  -4  -5 -20   22.70    6.07   0
  -4   5 -20   23.35    3.60   0
   4   5  20   18.74    4.28   0
  -4  -5 -20   22.98    5.56   0
  -5   5 -20   16.68    3.44   0
  -5  -5 -20   13.39    4.87   0
   5   5  20   17.45    4.49   0
   5  -5  20   10.90    3.43   0
  -6   5 -20    9.99    3.67   0
  -6  -5 -20    3.16    4.95   0
   6  -5  20    7.67    3.47   0
   6   5  20    6.36    4.35   0
   7  -5  20    2.89    3.76   0
   7   5  20    1.23    4.33   0
  -7   5 -20    6.13    3.74   0
   8  -5  20    4.96    3.87   0
  -8  -5 -20    8.31    4.73   0
   8   5  20    6.75    4.63   0
  -8   5 -20   12.91    4.01   0
   9  -5  20    5.17    4.25   0
  -9  -5 -20    2.93    5.09   0
  -9   5 -20    9.24    4.26   0
   9   5  20    9.34    5.38   0
  -9  -6  20   -2.83    4.33   0
  -9  -6  20    5.65    4.36   0
  -8  -6  20    4.29    4.05   0
   8  -6 -20    5.29    4.81   0
  -8   6  20    1.29    4.85   0
  -8  -6  20    7.13    3.98   0
   8  -6 -20    6.92    4.45   0
  -7  -6  20   21.82    4.48   0
   7  -6 -20   24.82    5.33   0
  -7  -6  20   24.54    4.23   0
  -7   6  20   24.05    5.79   0
   7  -6 -20    8.51    4.38   0
  -6  -6  20   -3.55    3.79   0
   6  -6 -20    1.14    4.53   0
  -6   6  20   -0.63    4.48   0
   6  -6 -20   -0.94    4.07   0
  -6  -6  20   -0.35    3.68   0
  -5   6  20    1.35    5.37   0
   5  -6 -20    3.23    5.03   0
   5  -6 -20    1.25    3.97   0
  -5  -6  20    0.92    3.50   0
  -5  -6  20    4.39    3.54   0
   4  -6 -20   18.66    5.83   0
  -4  -6  20   15.17    3.20   0
  -4  -6  20   12.52   12.05   0
  -4  -6  20   16.61   10.57   0
   4  -6 -20   19.14    3.90   0
  -4   6  20   18.80    5.85   0
   3  -6 -20   42.34    8.78   0
  -3  -6  20   42.29    3.65   0
   3  -6 -20   38.85    4.05   0
  -2  -6  20    9.55    3.53   0
  -2   6  20    6.47    4.20   0
   2  -6 -20   14.95    3.16   0
  -1   6  20    3.01    3.92   0
  -1  -6  20   -3.54    3.41   0
   0   6 -20    0.06    3.00   0
   0   6  20   -1.02    3.94   0
   0  -6  20    1.86    3.46   0
   1  -6  20   77.77    3.99   0
   1   6  20   74.48    4.55   0
  -1   6 -20   88.59    3.99   0
  -2   6 -20    6.59    3.35   0
   2  -6  20    3.22    3.34   0
   2   6  20    9.45    4.01   0
   3  -6  20    5.25    3.33   0
   3   6  20   -0.18    4.22   0
  -3  -6 -20    0.75    6.64   0
  -3  -6 -20    0.07    6.82   0
  -3   6 -20    2.08    3.26   0
   4  -6  20   21.16    3.48   0
  -4   6 -20   29.15    3.55   0
  -4  -6 -20   22.03    5.91   0
  -4  -6 -20   24.81    5.97   0
   4   6  20   14.08    4.43   0
  -5   6 -20    0.95    3.59   0
  -5  -6 -20   -1.03    4.99   0
  -5  -6 -20   -0.05    4.79   0
   5   6  20   -3.61    4.20   0
   5  -6  20    0.56    3.46   0
  -6   6 -20   76.63    4.42   0
  -6  -6 -20   44.71    5.95   0
  -6  -6 -20   79.18    5.63   0
   6   6  20   72.55    5.63   0
   6  -6  20   74.09    4.48   0
  -7   6 -20   26.14    4.15   0
  -7  -6 -20   26.99    5.56   0
   7  -6  20   25.23    4.23   0
   7   6  20   20.12    4.81   0
  -8   6 -20   14.15    4.33   0
   8  -6  20    3.67    4.23   0
   8   6  20    2.61    5.04   0
  -7  -7  20   36.27    4.45   0
   7  -7 -20    1.42    5.49   0
  -7   7  20   30.00    5.86   0
  -7  -7  20    4.85    4.47   0
   6  -7 -20   14.81    4.64   0
  -6   7  20    0.12    5.29   0
  -6  -7  20    3.01    4.16   0
  -6  -7  20   19.28    4.17   0
   5  -7 -20   75.39    6.31   0
  -5  -7  20   84.87    5.00   0
  -5   7  20   65.51    6.50   0
   4  -7 -20   26.23    6.29   0
  -4   7  20   28.73    6.64   0
  -4  -7  20   22.29    3.81   0
   4  -7 -20   30.28    4.65   0
  -3  -7  20   45.38    3.82   0
   3  -7 -20   30.29    8.10   0
   3  -7 -20   47.99    4.53   0
   2  -7 -20   18.65    3.69   0
  -2  -7  20   19.47    3.53   0
  -1   7  20   -3.22    4.30   0
  -1  -7  20    6.50    3.42   0
   0  -7  20   -0.42    3.43   0
   0   7  20   -2.68    3.97   0
   0   7 -20   -1.17    3.09   0
  -1   7 -20    4.71    3.07   0
   1  -7  20    0.87    3.31   0
   1   7  20    6.28    4.49   0
   2  -7  20   13.14    3.48   0
  -2   7 -20   12.48    3.45   0
   2   7  20   15.62    4.68   0
  -3   7 -20   14.63    3.62   0
   3  -7  20    4.99    3.64   0
  -3  -7 -20    6.26    7.39   0
  -3  -7 -20   12.48    7.24   0
   3   7  20   11.11    4.69   0
   4  -7  20    4.05    3.94   0
  -4  -7 -20    3.41    5.85   0
  -4  -7 -20    3.86    5.71   0
   4   7  20    5.54    4.56   0
  -4   7 -20    4.27    3.92   0
  -5  -7 -20   13.97    5.78   0
  -5   7 -20   29.38    4.16   0
  -5  -7 -20   17.41    5.80   0
   5   7  20   32.28    5.07   0
   5  -7  20   28.41    4.23   0
  -6  -7 -20    4.89    4.94   0
  -6   7 -20    8.16    3.88   0
  -6  -7 -20    7.14    5.34   0
   6   7  20    3.04    4.53   0
   6  -7  20    5.54    3.86   0
  -7   7 -20   16.42    4.24   0
  -7  -7 -20   15.86    5.75   0
   7   7  20   13.16    5.20   0
   7  -7  20    9.90    4.22   0
  -7  -7 -20   10.68    5.80   0
   6  -8 -20    2.05    4.43   0
  -6   8  20    2.33    5.89   0
   5  -8 -20   75.23    7.66   0
  -5  -8  20   76.64    4.81   0
  -5   8  20   40.19    8.00   0
   5  -8 -20   96.64    5.26   0
  -4  -8  20   15.43    3.69   0
   4  -8 -20   15.55    6.66   0
   4  -8 -20   24.32    4.41   0
   3  -8 -20    1.12    6.86   0
  -3  -8  20    0.17    7.62   0
   3  -8 -20    1.34    4.26   0
  -3  -8  20   -0.70    3.71   0
   2  -8 -20    1.38    8.74   0
  -2  -8  20    2.70    3.44   0
   2  -8 -20    2.56    3.71   0
   2  -8 -20    0.07    9.89   0
  -1  -8  20    3.94    3.79   0
   0   8 -20   12.50    3.48   0
   0  -8  20   17.10    3.80   0
   0   8  20   10.64    4.95   0
   1  -8  20    1.14    3.69   0
   1   8  20    2.19    5.00   0
  -1   8 -20   -0.35    3.70   0
  -2   8 -20   -4.94    3.46   0
   2  -8  20   -3.25    3.78   0
  -2  -8 -20    0.13    8.65   0
   2   8  20   -6.25    5.44   0
  -2  -8 -20    0.31    8.37   0
   3  -8  20    8.12    4.40   0
  -3  -8 -20   24.37    8.87   0
  -3  -8 -20   28.09    8.34   0
  -3   8 -20   54.11    3.84   0
   3   8  20   43.85    5.54   0
   4  -8  20   -2.21    3.89   0
   4   8  20    1.37    5.03   0
  -4   8 -20    0.43    3.86   0
  -4  -8 -20    0.57    6.41   0
  -4  -8 -20   -0.72    6.14   0
  -5  -8 -20    3.30    6.24   0
  -5  -8 -20    3.25    5.78   0
   5   8  20   -2.28    5.02   0
  -5   8 -20    4.83    4.07   0
   5  -8  20    7.73    4.06   0
  -3  -9  20    6.85    7.78   0
   3  -9 -20   -1.12    4.85   0
   2  -9 -20    0.86    8.15   0
  -2  -9  20    0.24    6.08   0
  -2  -9  20    4.06    3.60   0
   2  -9 -20    7.85    4.53   0
   2  -9 -20    0.98    9.44   0
   1  -9 -20    8.06   10.68   0
   1  -9 -20    4.33    9.55   0
  -1  -9  20    7.12    6.36   0
  -1  -9  20    8.87    3.70   0
   0  -9  20   11.65    4.10   0
   1  -9  20    2.73    4.24   0
  -1   9 -20   18.13    4.22   0
  -1  -9 -20    8.67   10.68   0
  -1  -9 -20    5.79    9.94   0
   2  -9  20    1.61    3.93   0
   2   9  20    0.87    5.00   0
  -2  -9 -20    1.31    7.76   0
 -11   0  21   -0.74    4.80   0
  11   0 -21   -0.32    5.52   0
  -9   0  21    3.40    3.84   0
  -7   0  21   37.50    3.98   0
  -5   0  21  620.80    8.79   0
  -5   0  21  644.66    8.81   0
  -3   0  21   34.38    4.27   0
  -3   0  21   30.72    4.24   0
  -3   0  21   35.76    4.58   0
  -1   0  21   40.21    4.16   0
  -1   0  21   40.61    3.69   0
   1   0  21  159.81    5.69   0
   3   0  21    2.17    3.80   0
  -5   0 -21  315.43    6.42   0
   5   0  21  312.16    6.50   0
  -7   0 -21   80.23    4.75   0
   7   0  21   79.02    4.82   0
  -9   0 -21   34.89    4.59   0
   9   0  21   30.60    4.15   0
 -11  -1  21    2.19    4.47   0
 -11   1  21   -2.04    4.36   0
  11  -1 -21    4.26    5.40   0
 -10  -1  21   38.16    4.72   0
 -10   1  21   47.27    4.33   0
  10  -1 -21   52.27    5.27   0
  -9  -1  21    0.50    4.01   0
  -9   1  21    5.10    4.25   0
   9  -1 -21    0.38    4.10   0
  -8  -1  21    3.01    3.84   0
  -8   1  21   -2.68    4.23   0
   8  -1 -21    0.72    4.50   0
  -7  -1  21   13.47    3.76   0
  -7   1  21    4.42    4.01   0
   7  -1 -21    7.04    3.73   0
  -6  -1  21  197.25    5.28   0
  -6   1  21  185.00    5.63   0
   6  -1 -21  184.01    5.60   0
  -5  -1  21  230.27    5.42   0
  -5  -1  21  228.11    6.08   0
  -5   1  21  233.02    6.30   0
  -5   1  21  229.13    6.37   0
  -5  -1  21  222.75    7.34   0
  -4  -1  21   28.28    3.74   0
  -4  -1  21   30.45    3.82   0
  -4   1  21   24.05    4.36   0
  -4   1  21   24.68    4.83   0
  -4  -1  21   21.30    5.04   0
  -3  -1  21    4.98    3.27   0
  -3   1  21    3.96    3.98   0
  -3  -1  21    3.99    3.43   0
  -3   1  21    2.89    3.95   0
  -3   1  21    1.51    3.91   0
  -3  -1  21    4.66    3.20   0
  -2   1  21   13.51    4.55   0
  -2   1  21   10.47    4.03   0
  -2  -1  21    9.83    3.22   0
  -2   1  21    2.87    3.62   0
  -2  -1  21   13.10    3.70   0
  -1   1  21   77.87    6.39   0
  -1   1  21   76.88    5.92   0
  -1   1  21   74.23    4.06   0
  -1  -1  21   81.70    4.79   0
   0   1  21  164.71    7.52   0
   0  -1  21  153.28    5.30   0
   0   1 -21  159.02    5.66   0
   0   1  21  152.59    4.20   0
   1  -1  21   95.06    4.51   0
  -1   1 -21  104.33    4.43   0
  -1  -1 -21   96.27    6.28   0
   1   1  21   97.34    5.98   0
  -2   1 -21   19.46    3.39   0
  -2  -1 -21   22.77    4.60   0
   2   1  21   22.07    4.58   0
   2  -1  21   22.26    3.36   0
  -3   1 -21   73.42    4.09   0
   3   1  21   67.82    5.25   0
  -3  -1 -21   69.77    5.06   0
   3  -1  21   64.71    3.92   0
   4   1  21  115.27    5.39   0
   4  -1  21  125.72    5.14   0
  -4   1 -21  122.23    4.59   0
   5   1  21    6.56    3.34   0
  -5  -1 -21    9.51    3.92   0
   5  -1  21    3.64    3.49   0
  -5   1 -21    2.92    3.78   0
  -6  -1 -21   63.35    4.28   0
   6   1  21   57.72    4.49   0
  -6   1 -21   71.82    4.16   0
   6  -1  21   57.12    4.13   0
  -7  -1 -21    0.45    4.30   0
   7   1  21    3.30    4.06   0
  -7   1 -21    4.80    3.51   0
   7  -1  21   -3.78    3.56   0
  -8  -1 -21   -0.66    3.91   0
   8   1  21   -0.66    4.59   0
  -8   1 -21   -1.67    3.76   0
   8  -1  21   -0.18    4.30   0
  -9  -1 -21   11.87    4.01   0
   9   1  21   12.30    4.35   0
  -9   1 -21    6.17    4.08   0
   9  -1  21   12.59    4.54   0
 -10  -1 -21    6.17    4.89   0
  10   1  21   -3.12    4.48   0
 -10   1 -21    4.08    4.45   0
  10  -1  21    4.41    4.86   0
 -11  -2  21   -5.36    4.26   0
 -11   2  21   -0.24    4.67   0
  11  -2 -21    0.71    4.80   0
 -10  -2  21    2.72    4.22   0
 -10   2  21   -1.71    3.97   0
  10  -2 -21    2.71    4.50   0
  10  -2 -21   -1.28    4.13   0
  -9   2  21    1.14    3.75   0
  -9  -2  21   -0.85    3.89   0
   9  -2 -21   -2.55    3.92   0
   9  -2 -21    0.53    3.86   0
  -8  -2  21   32.38    4.18   0
  -8   2  21   28.04    4.36   0
   8  -2 -21   31.93    4.86   0
  -7  -2  21   -0.75    3.54   0
  -7   2  21   -0.09    3.83   0
   7  -2 -21    2.79    4.27   0
  -6  -2  21   50.84    4.12   0
  -6  -2  21   41.61    4.70   0
  -6   2  21   49.78    4.00   0
   6  -2 -21   52.66    4.38   0
  -5  -2  21  210.56    5.23   0
  -5   2  21  192.93    6.16   0
  -5  -2  21  186.71    8.11   0
  -5  -2  21  193.88    5.42   0
  -5   2  21  205.23    6.46   0
   5  -2 -21  228.98    5.59   0
  -4   2  21  197.01    6.99   0
  -4   2  21  180.58    5.78   0
  -4  -2  21  186.55    5.16   0
  -4  -2  21  180.68    6.63   0
  -4  -2  21  212.74    5.31   0
  -3   2  21   75.22    5.92   0
  -3   2  21   73.70    5.67   0
  -3   2  21   75.14    4.87   0
  -3  -2  21   76.40    4.96   0
  -3  -2  21   76.91    4.19   0
  -2   2  21   76.23    8.08   0
  -2  -2  21   80.37    4.74   0
  -2   2  21   75.01    8.05   0
  -2   2  21   72.11    4.49   0
  -1   2  21    1.66    3.19   0
  -1  -2  21    1.00    3.51   0
   0   2 -21   43.61    4.09   0
   0  -2  21   51.87    4.66   0
   0   2  21   44.68    3.54   0
  -1   2 -21   19.98    3.73   0
   1  -2  21   18.98    4.01   0
   1   2  21   23.74    3.26   0
   2  -2  21   31.98    4.00   0
   2   2  21   28.51    5.95   0
  -2   2 -21   31.98    3.67   0
  -2  -2 -21   30.15    5.94   0
   2   2  21   26.90    3.28   0
   3   2  21    1.55    4.47   0
  -3   2 -21    0.31    3.81   0
  -3  -2 -21    1.58    4.32   0
   3  -2  21   -0.49    3.26   0
   4   2  21   27.31    4.81   0
  -4  -2 -21   29.45    4.65   0
   4  -2  21   32.21    3.77   0
  -4   2 -21   26.01    3.75   0
   5   2  21   -2.22    4.28   0
   5  -2  21    5.70    4.11   0
  -5   2 -21    4.92    3.63   0
  -6  -2 -21    4.38    3.25   0
   6   2  21    2.34    3.99   0
   6  -2  21    6.66    3.45   0
  -6   2 -21    5.08    3.50   0
  -7  -2 -21   19.19    3.98   0
   7   2  21   15.02    4.02   0
   7  -2  21   17.93    3.73   0
  -7   2 -21   24.22    3.82   0
  -8  -2 -21    6.02    4.48   0
   8   2  21   11.97    4.16   0
   8  -2  21   13.01    4.07   0
  -8   2 -21   10.55    4.46   0
  -9  -2 -21    0.87    4.01   0
   9   2  21    6.08    4.67   0
   9  -2  21    6.83    3.94   0
  -9   2 -21    5.26    3.96   0
 -10  -2 -21    3.07    4.21   0
  10   2  21    1.81    4.85   0
  10  -2  21    4.87    4.27   0
 -10   2 -21   -1.65    4.19   0
 -10  -3  21   -0.87    4.33   0
  10  -3 -21    0.08    4.34   0
 -10   3  21    3.88    4.11   0
  10  -3 -21    1.91    4.39   0
  -9  -3  21    5.12    4.34   0
  -9   3  21    7.15    4.68   0
   9  -3 -21    8.66    4.81   0
  -8  -3  21   27.09    3.97   0
  -8   3  21   22.86    4.52   0
   8  -3 -21   29.00    4.27   0
   8  -3 -21   31.19    4.39   0
  -7  -3  21  125.85    4.80   0
  -7   3  21  112.45    5.65   0
   7  -3 -21  116.40    5.43   0
   7  -3 -21  127.35    5.55   0
  -7  -3  21  128.25    4.92   0
  -6  -3  21   -2.09    3.63   0
  -6  -3  21    4.20    3.77   0
  -6   3  21    3.43    4.09   0
   6  -3 -21   -0.69    3.87   0
   6  -3 -21    0.55    4.25   0
  -5   3  21   90.58    5.17   0
  -5  -3  21   82.04    7.25   0
  -5   3  21   81.85    5.40   0
   5  -3 -21   89.10    4.64   0
  -5  -3  21   89.73    4.66   0
  -5  -3  21   85.49    4.34   0
  -4  -3  21   98.79    4.50   0
  -4   3  21   92.75    5.43   0
  -4  -3  21   92.57    6.06   0
   4  -3 -21  105.88    4.81   0
  -4  -3  21   99.77    4.43   0
  -4   3  21   89.06    6.48   0
  -3   3  21    1.86    6.12   0
  -3   3  21    1.80    5.73   0
  -3   3  21    1.48    4.16   0
  -3  -3  21    3.94    3.54   0
  -3  -3  21    2.70    4.15   0
  -2  -3  21    0.76    3.65   0
  -2   3  21   -0.02    3.54   0
  -1   3  21  190.94    4.96   0
  -1  -3  21  206.81    5.12   0
   0   3 -21  158.17    5.39   0
   0  -3  21  166.71    4.90   0
   0   3  21  147.11    4.48   0
  -1   3 -21    1.78    3.94   0
   1  -3  21    3.56    3.39   0
   1   3  21    4.58    3.12   0
   2  -3  21   23.65    3.65   0
  -2   3 -21   25.54    3.69   0
   2   3  21   32.74    3.37   0
   3  -3  21   83.32    4.16   0
  -3   3 -21   85.18    4.62   0
  -3  -3 -21   87.34    7.09   0
   3   3  21   87.39    3.87   0
  -4   3 -21   15.84    3.66   0
  -4  -3 -21   16.62    4.91   0
   4  -3  21   18.08    3.62   0
   4   3  21   19.43    3.42   0
   4   3  21   16.59    5.29   0
  -5  -3 -21    1.24    4.18   0
   5  -3  21    6.12    3.51   0
  -5   3 -21    1.44    3.48   0
   5   3  21    0.07    4.34   0
   6   3  21    6.31    4.81   0
   6  -3  21   15.30    3.72   0
  -6   3 -21   18.16    3.82   0
   7   3  21   33.97    5.03   0
   7  -3  21   37.19    4.23   0
  -7   3 -21   39.46    4.17   0
  -7  -3 -21   38.18    4.57   0
   8   3  21    2.62    4.52   0
   8  -3  21   25.44    4.09   0
  -8   3 -21   24.19    4.14   0
  -8  -3 -21   31.89    4.44   0
   9  -3  21    0.20    4.07   0
  -9   3 -21    3.27    4.07   0
  -9  -3 -21    2.57    4.46   0
   9   3  21    1.40    4.72   0
  10  -3  21   21.78    4.32   0
 -10   3 -21   17.69    4.29   0
 -10  -3 -21   20.18    5.45   0
  10   3  21   17.96    5.07   0
 -10  -4  21    0.63    4.30   0
 -10  -4  21    5.69    4.45   0
 -10   4  21   -1.69    4.57   0
  10  -4 -21   -2.07    5.11   0
  -9  -4  21   -1.63    3.99   0
   9  -4 -21   -0.21    4.48   0
  -9  -4  21    1.61    4.13   0
  -9   4  21    1.46    4.66   0
   9  -4 -21    5.11    5.25   0
  -8  -4  21   -0.42    3.92   0
  -8  -4  21    3.65    4.19   0
   8  -4 -21    4.76    4.12   0
  -8   4  21    3.74    4.75   0
   8  -4 -21    0.98    5.04   0
  -7   4  21    1.80    4.11   0
  -7  -4  21    3.07    3.71   0
  -7  -4  21   -0.17    3.81   0
   7  -4 -21    1.93    4.15   0
   7  -4 -21   -0.51    4.05   0
  -6  -4  21    0.09    3.95   0
  -6   4  21   -0.35    4.38   0
   6  -4 -21   -0.23    4.08   0
  -6  -4  21   -2.13    3.90   0
   6  -4 -21    1.42    4.51   0
  -5   4  21    1.22    4.91   0
  -5  -4  21   -0.40    3.77   0
   5  -4 -21    3.97    5.42   0
  -5  -4  21    4.93    3.79   0
  -4   4  21    5.36    5.60   0
  -4   4  21    2.39    4.40   0
  -4  -4  21    3.81    5.62   0
  -4  -4  21    5.51    3.56   0
  -3  -4  21   27.16    3.98   0
  -3   4  21   29.50    4.03   0
   3  -4 -21   33.35    3.80   0
  -2  -4  21    8.94    3.61   0
  -2   4  21    7.53    3.70   0
  -1   4  21   10.85    3.52   0
  -1  -4  21   17.28    3.67   0
   0   4 -21   49.24    3.89   0
   0  -4  21   52.96    3.89   0
   0   4  21   42.82    3.57   0
   1  -4  21  142.84    4.69   0
  -1   4 -21  152.74    4.73   0
   1   4  21  145.08    4.32   0
   2  -4  21  116.55    4.43   0
   2   4  21  110.29    4.29   0
  -2   4 -21  114.69    4.71   0
   3  -4  21    1.38    3.43   0
  -3   4 -21    3.63    3.44   0
  -3  -4 -21    0.86    7.27   0
   3   4  21    1.44    3.55   0
  -3  -4 -21    0.42    7.90   0
  -4  -4 -21  135.83    7.24   0
  -4   4 -21  140.12    4.85   0
   4   4  21  131.14    4.70   0
   4  -4  21  120.64    4.63   0
  -5   4 -21   19.33    3.78   0
   5  -4  21   17.58    3.78   0
   5   4  21   19.70    4.16   0
  -5  -4 -21   21.49    4.81   0
   6  -4  21    2.78    3.79   0
   6   4  21    7.12    4.13   0
  -6  -4 -21    4.28    4.34   0
  -6   4 -21    5.81    3.88   0
   7  -4  21    2.50    3.58   0
  -7   4 -21    3.88    3.75   0
   7   4  21    0.49    3.98   0
   8  -4  21    3.77    4.10   0
  -8   4 -21   13.62    4.08   0
  -8  -4 -21    2.71    4.72   0
   8   4  21    3.54    4.46   0
   9  -4  21   18.66    4.23   0
  -9   4 -21   23.14    4.26   0
  -9  -4 -21   10.15    5.45   0
   9   4  21   18.40    4.71   0
   9  -5 -21    0.77    4.96   0
  -9  -5  21    7.56    4.52   0
  -9   5  21   -1.22    4.97   0
  -9  -5  21    0.52    3.95   0
   8  -5 -21   78.61    6.01   0
  -8  -5  21   78.07    4.77   0
  -8  -5  21   79.80    4.60   0
  -8   5  21   74.25    6.13   0
   8  -5 -21    5.98    5.11   0
  -7  -5  21    0.16    3.47   0
   7  -5 -21    2.37    4.71   0
  -7   5  21    2.90    4.41   0
   7  -5 -21    0.11    4.23   0
  -7  -5  21   -0.68    3.96   0
   6  -5 -21   -1.50    4.95   0
  -6  -5  21   -0.87    3.73   0
  -6   5  21   -0.33    4.52   0
   6  -5 -21    5.22    4.22   0
  -6  -5  21    1.76    3.53   0
   5  -5 -21    3.27    4.86   0
  -5  -5  21    4.06    3.78   0
  -5   5  21    3.16    4.74   0
   5  -5 -21    7.03    3.82   0
  -5  -5  21   -0.42    3.56   0
  -4   5  21   16.88    6.43   0
  -4  -5  21   17.70    3.69   0
  -4  -5  21   14.73    6.55   0
   4  -5 -21   17.99    3.87   0
   4  -5 -21   19.61    6.67   0
  -3  -5  21    2.40    3.61   0
  -3   5  21    1.55    3.87   0
  -2  -5  21   48.54    4.17   0
  -2   5  21   49.23    4.17   0
   2  -5 -21   57.06    3.73   0
  -1   5  21   22.47    3.61   0
  -1  -5  21   33.91    3.46   0
   0  -5  21  107.06    4.52   0
   0   5  21   97.29    4.42   0
   0   5 -21   97.39    4.46   0
   1  -5  21   33.69    3.52   0
   1   5  21   30.17    3.53   0
  -1   5 -21   28.56    3.82   0
  -2   5 -21   66.72    4.13   0
   2  -5  21   71.92    4.19   0
   2   5  21   59.85    4.36   0
   3  -5  21   -2.17    3.62   0
  -3   5 -21    4.49    3.54   0
   3   5  21    1.48    3.66   0
   4  -5  21   19.92    3.76   0
  -4   5 -21   17.07    3.76   0
   4   5  21   16.56    4.17   0
  -4  -5 -21   15.34    5.91   0
  -4  -5 -21   15.74    5.74   0
  -5   5 -21    3.50    3.57   0
   5   5  21    2.48    4.23   0
  -5  -5 -21    1.04    4.77   0
   5  -5  21    3.37    3.66   0
  -6   5 -21    9.34    3.95   0
   6  -5  21   10.97    3.91   0
  -6  -5 -21   11.39    4.71   0
   6   5  21    7.11    4.34   0
   7  -5  21   25.80    4.15   0
  -7  -5 -21   25.45    4.80   0
   7   5  21    7.92    4.39   0
  -7   5 -21   25.66    3.97   0
   8  -5  21   30.45    4.45   0
   8   5  21   27.72    4.81   0
  -8   5 -21   26.99    4.18   0
  -9  -5 -21    0.71    5.32   0
  -8  -6  21    2.01    4.09   0
   8  -6 -21    1.99    4.96   0
  -8   6  21    1.63    5.33   0
  -8  -6  21    2.40    4.03   0
  -7  -6  21   17.89    4.23   0
   7  -6 -21   12.35    5.11   0
  -7  -6  21   18.22    4.17   0
  -7   6  21    2.84    5.47   0
   7  -6 -21   13.80    4.28   0
   6  -6 -21   39.02    5.30   0
   6  -6 -21   41.84    4.68   0
  -6   6  21   35.39    5.77   0
  -6  -6  21    8.17    4.42   0
  -6  -6  21   37.52    4.23   0
   5  -6 -21    2.98    5.57   0
  -5   6  21    2.34    5.61   0
  -5  -6  21    3.34    3.49   0
   5  -6 -21    2.56    3.95   0
  -5  -6  21    1.12    3.56   0
   4  -6 -21    9.83    6.48   0
  -4   6  21    8.18    6.21   0
  -4  -6  21    9.21    3.36   0
  -4  -6  21    6.61    8.43   0
   4  -6 -21    9.30    3.45   0
  -3  -6  21   50.12    3.80   0
  -3   6  21   12.46    4.69   0
   3  -6 -21   52.87    3.94   0
  -2   6  21   28.35    4.01   0
   2  -6 -21   29.09    3.73   0
  -2  -6  21   28.70    3.62   0
  -1   6  21   -1.79    3.97   0
  -1  -6  21   -0.30    3.46   0
   0   6 -21   45.33    3.76   0
   0  -6  21   52.34    3.77   0
   0   6  21   57.66    4.37   0
  -1   6 -21   70.97    4.04   0
   1  -6  21   66.95    3.94   0
   1   6  21   54.81    4.32   0
   2  -6  21    1.33    3.26   0
  -2   6 -21    2.87    3.26   0
   2   6  21    1.57    3.85   0
   3  -6  21    2.10    3.32   0
   3   6  21    5.77    4.25   0
  -3   6 -21    5.04    3.25   0
   4  -6  21   -0.25    3.36   0
  -4  -6 -21   -0.21    5.96   0
  -4   6 -21   -3.10    3.38   0
   4   6  21   -2.12    4.03   0
  -4  -6 -21    0.09    5.63   0
  -5   6 -21   -1.68    3.81   0
  -5  -6 -21    0.09    5.48   0
   5   6  21    4.86    4.53   0
  -5  -6 -21    3.86    5.39   0
   5  -6  21   -2.30    3.76   0
  -6  -6 -21    6.02    5.24   0
  -6   6 -21   11.39    3.97   0
  -6  -6 -21    9.37    4.82   0
   6   6  21    9.29    4.78   0
   6  -6  21    4.64    3.86   0
  -7   6 -21    2.59    3.88   0
   7  -6  21   -1.12    3.46   0
  -7  -6 -21    0.85    5.08   0
   7   6  21    1.30    4.63   0
   8  -6  21    2.31    4.39   0
  -7  -7  21    6.51    4.30   0
  -7   7  21    0.57    5.90   0
   7  -7 -21   12.14    5.94   0
  -7  -7  21    6.99    4.29   0
   6  -7 -21   31.92    5.79   0
  -6   7  21   29.86    6.23   0
  -6  -7  21   43.80    4.38   0
   6  -7 -21   40.58    4.62   0
  -6  -7  21   44.65    3.92   0
  -5   7  21   24.87    6.53   0
   5  -7 -21   26.08    6.17   0
  -5  -7  21   30.07    4.45   0
   5  -7 -21   28.34    4.83   0
   4  -7 -21   30.88    7.05   0
  -4  -7  21   31.46    4.27   0
  -4   7  21   10.74    7.78   0
   4  -7 -21   31.19    4.16   0
  -3  -7  21    1.23    3.56   0
   3  -7 -21    1.48    3.61   0
  -2   7  21   -7.18    4.26   0
  -2  -7  21   12.36    3.39   0
   2  -7 -21   13.17    3.85   0
  -1   7  21    4.60    4.20   0
  -1  -7  21    1.57    3.29   0
   0   7 -21   13.14    3.48   0
   0  -7  21    8.22    3.23   0
   0   7  21    9.47    4.53   0
   1  -7  21   -2.08    3.51   0
  -1   7 -21    2.07    3.50   0
   1   7  21   -1.35    4.36   0
   2  -7  21   18.57    3.69   0
  -2   7 -21   23.89    3.73   0
   2   7  21   11.37    4.65   0
   3  -7  21    1.78    3.89   0
  -3   7 -21    7.62    3.95   0
   3   7  21    9.21    4.57   0
   4  -7  21   -1.71    3.83   0
   4   7  21    0.77    4.43   0
  -4  -7 -21    0.81    6.30   0
  -4   7 -21   -2.66    3.82   0
  -4  -7 -21   -0.67    6.90   0
  -5  -7 -21    1.86    5.91   0
  -5   7 -21    3.56    3.77   0
  -5  -7 -21    0.21    5.76   0
   5   7  21    5.95    5.33   0
   5  -7  21    5.30    3.76   0
  -6  -7 -21    1.49    5.43   0
  -6   7 -21    9.16    4.17   0
  -6  -7 -21   -0.86    5.13   0
   6   7  21    4.48    4.62   0
   6  -7  21    6.06    4.02   0
   5  -8 -21    4.30    6.67   0
  -5  -8  21   10.32    3.82   0
  -5   8  21    2.37    7.48   0
   5  -8 -21   11.94    4.91   0
  -4  -8  21   -0.09    3.85   0
   4  -8 -21   -0.29    7.24   0
   4  -8 -21   -8.27    4.91   0
   3  -8 -21   15.12   10.11   0
  -3  -8  21   18.95    8.28   0
   3  -8 -21   28.11    4.46   0
  -3  -8  21   14.55    3.97   0
  -2  -8  21   -1.77    3.86   0
   2  -8 -21    1.15    4.05   0
  -1  -8  21    0.17    3.93   0
   0  -8  21   -2.02    3.84   0
   0   8  21    0.43    4.57   0
   1  -8  21    5.39    3.81   0
   1   8  21   -2.38    4.96   0
  -1   8 -21    4.60    3.40   0
  -2   8 -21   16.21    3.90   0
   2  -8  21    8.66    4.03   0
   2   8  21   10.27    5.05   0
   3  -8  21   -6.01    3.88   0
  -3  -8 -21    2.57    9.45   0
  -3   8 -21    4.24    3.88   0
   3   8  21    0.69    5.05   0
  -3  -8 -21    1.50    9.63   0
   4  -8  21   13.45    4.27   0
  -4   8 -21   23.24    4.21   0
  -4  -8 -21   10.24    8.28   0
   4   8  21   20.01    5.26   0
  -4  -8 -21   14.47    8.45   0
  -1  -9  21   -2.24    4.22   0
   0  -9  21    8.95    3.79   0
   1  -9  21    1.35    4.27   0
 -10   0  22   43.18    5.29   0
  -8   0  22   35.62    4.11   0
  -6   0  22  117.11    5.02   0
  -4   0  22    1.73    3.90   0
  -4   0  22   -3.12    4.63   0
  -4   0  22    0.88    4.34   0
  -2   0  22  107.97    5.22   0
  -2   0  22  114.78    5.02   0
  -2   0  22  108.06    5.13   0
   0   0  22  293.34    7.27   0
   2   0  22    3.66    3.49   0
   4   0  22   44.74    4.37   0
  -4   0 -22   55.00    4.51   0
   6   0  22  170.49    5.64   0
  -6   0 -22  175.72    5.13   0
  -8   0 -22    1.60    4.24   0
   8   0  22    7.44    4.32   0
  10   0  22   -1.62    4.87   0
 -10   0 -22    6.86    4.71   0
 -11  -1  22    9.12    4.58   0
 -11   1  22   -4.23    4.92   0
 -10  -1  22    1.42    4.40   0
 -10   1  22    0.35    3.88   0
  10  -1 -22    1.17    5.37   0
  -9  -1  22   28.49    4.15   0
  -9   1  22   27.72    4.51   0
   9  -1 -22   36.50    5.44   0
  -8  -1  22   41.19    4.18   0
  -8   1  22    2.85    4.88   0
   8  -1 -22   36.28    4.25   0
  -7  -1  22  321.96    6.13   0
  -7   1  22  304.70    6.96   0
   7  -1 -22  304.63    6.95   0
  -6  -1  22    1.55    3.54   0
  -6   1  22    2.01    3.58   0
  -5  -1  22   -1.87    3.24   0
  -5  -1  22   -0.88    3.54   0
  -5   1  22   -0.94    3.78   0
  -5   1  22    0.21    4.27   0
  -5  -1  22    2.18    5.01   0
  -4  -1  22   20.17    3.73   0
  -4   1  22   16.17    4.49   0
  -4   1  22   17.06    4.90   0
  -4   1  22   18.14    4.31   0
  -4  -1  22   17.19    3.98   0
  -4  -1  22   19.15    4.25   0
  -3  -1  22   49.53    4.47   0
  -3   1  22   48.47    4.87   0
  -3   1  22   46.78    5.02   0
  -3   1  22   44.85    4.41   0
  -3  -1  22   40.31    3.89   0
  -3  -1  22   51.64    3.90   0
  -2   1  22    3.15    4.35   0
  -2   1  22    2.12    4.18   0
  -2  -1  22    0.77    3.79   0
  -2   1  22    2.14    3.94   0
  -2  -1  22    3.49    4.03   0
  -1   1  22    6.27    4.88   0
  -1   1  22    6.09    4.79   0
  -1   1  22    7.66    3.60   0
  -1  -1  22    8.68    3.98   0
   0   1 -22   32.75    4.13   0
   0  -1  22   33.65    3.56   0
   0   1  22   27.17    3.39   0
   0   1  22   35.69    5.39   0
   1  -1  22    0.83    3.47   0
  -1   1 -22    1.21    3.96   0
   1   1  22    1.97    4.17   0
  -1  -1 -22    1.14    4.38   0
   2   1  22   64.47    5.14   0
  -2   1 -22   67.16    4.45   0
  -2  -1 -22   63.56    5.25   0
   2  -1  22   60.78    4.50   0
  -3   1 -22   19.13    3.99   0
   3   1  22   16.17    5.00   0
   3  -1  22   18.34    3.87   0
  -3  -1 -22   19.44    4.57   0
   4   1  22   27.34    4.47   0
   4  -1  22   25.74    3.62   0
  -4   1 -22   30.19    3.64   0
   5   1  22  151.37    5.53   0
   5  -1  22  162.78    5.30   0
  -5   1 -22  164.51    5.38   0
   6   1  22    2.16    3.79   0
  -6  -1 -22    4.25    3.18   0
   6  -1  22    4.00    3.55   0
  -6   1 -22    7.14    3.45   0
  -7  -1 -22    0.19    3.65   0
   7   1  22   -2.15    3.70   0
  -7   1 -22    0.15    3.75   0
   7  -1  22    1.15    3.63   0
  -8  -1 -22   58.27    4.27   0
   8   1  22   49.48    4.44   0
   8  -1  22   45.51    4.36   0
  -8   1 -22   52.61    4.18   0
  -9  -1 -22    7.62    4.08   0
   9   1  22    6.77    4.72   0
   9  -1  22    7.93    4.78   0
  -9   1 -22   15.08    4.90   0
  10   1  22    1.78    4.35   0
 -10  -1 -22    3.81    4.65   0
  10  -1  22    1.63    4.18   0
 -10   1 -22    3.74    4.32   0
 -10  -2  22    6.59    4.57   0
 -10   2  22   -3.59    4.24   0
  10  -2 -22   20.37    5.43   0
  -9  -2  22   49.14    4.93   0
  -9   2  22   44.93    4.62   0
   9  -2 -22   45.11    5.26   0
  -8  -2  22    6.40    4.34   0
  -8   2  22   29.85    4.14   0
   8  -2 -22   28.22    4.26   0
  -7  -2  22   10.45    3.62   0
  -7   2  22    2.32    4.26   0
   7  -2 -22   10.06    4.08   0
  -6  -2  22    3.60    3.63   0
  -6   2  22    6.12    3.51   0
   6  -2 -22    4.82    4.00   0
  -6  -2  22    4.64    4.22   0
  -5  -2  22  269.84    5.82   0
  -5  -2  22  270.46    6.02   0
  -5   2  22  251.27    6.99   0
  -5   2  22  254.63    6.61   0
  -5  -2  22  253.65    7.95   0
   5  -2 -22  278.02    6.10   0
  -4   2  22  110.24    6.02   0
  -4  -2  22  106.04    4.65   0
  -4   2  22  109.58    5.97   0
  -4  -2  22  107.20    5.98   0
  -4  -2  22  121.49    4.62   0
  -3   2  22    0.08    4.65   0
  -3   2  22    1.73    5.35   0
  -3   2  22    3.59    4.38   0
  -3  -2  22   -0.70    3.42   0
  -3  -2  22    0.56    3.38   0
  -2  -2  22   30.26    3.74   0
  -2   2  22   31.38    7.27   0
  -2   2  22   38.34    4.63   0
  -2   2  22   30.69    7.08   0
  -2  -2  22   29.20    4.35   0
  -1   2  22    2.48    3.46   0
  -1  -2  22    0.05    3.45   0
   0  -2  22   40.13    3.83   0
   0   2  22   38.52    3.57   0
   0   2 -22   39.68    4.00   0
   1  -2  22   77.09    4.11   0
  -1   2 -22   70.86    4.17   0
   1   2  22   72.99    3.95   0
   2  -2  22  213.21    5.19   0
   2   2  22  208.61   10.06   0
  -2  -2 -22  208.94    9.73   0
  -2   2 -22  213.47    5.69   0
   2   2  22  202.99    4.75   0
   3   2  22  203.14    8.11   0
  -3   2 -22  207.14    5.31   0
  -3  -2 -22  204.14    7.63   0
   3  -2  22  200.99    5.69   0
  -4   2 -22    4.53    3.58   0
   4   2  22   11.03    4.94   0
  -4  -2 -22   11.50    4.78   0
   4  -2  22    9.66    3.45   0
   5   2  22    7.95    5.25   0
   5  -2  22   80.59    4.92   0
  -5   2 -22   74.81    4.32   0
   6   2  22    0.56    3.65   0
   6  -2  22   -1.42    3.60   0
  -6   2 -22    0.48    3.51   0
  -7  -2 -22    5.71    4.37   0
   7   2  22    4.24    4.27   0
   7  -2  22    5.38    3.76   0
  -7   2 -22    1.50    4.24   0
  -8  -2 -22    2.57    4.44   0
   8   2  22   -0.34    3.99   0
   8  -2  22    0.35    3.81   0
  -8   2 -22    1.35    3.79   0
  -9  -2 -22   -1.03    4.09   0
   9   2  22   -0.02    4.41   0
   9  -2  22    1.29    4.19   0
  -9   2 -22    2.07    4.61   0
  10   2  22   -0.82    4.68   0
 -10  -2 -22    1.50    4.44   0
  10  -2  22   -2.18    4.28   0
 -10   2 -22    0.46    4.34   0
 -10  -3  22    5.02    4.33   0
  10  -3 -22    6.05    4.39   0
 -10   3  22   -0.49    4.81   0
  10  -3 -22    1.33    4.29   0
  -9  -3  22   29.81    4.40   0
  -9   3  22   46.82    6.08   0
   9  -3 -22   41.95    4.39   0
   9  -3 -22   39.60    5.50   0
  -8  -3  22    5.62    3.71   0
  -8  -3  22    3.75    4.35   0
  -8   3  22    1.56    4.47   0
   8  -3 -22    2.07    3.96   0
   8  -3 -22   -2.16    4.70   0
  -7  -3  22    4.57    3.69   0
  -7  -3  22    3.16    4.06   0
  -7   3  22    2.66    4.10   0
   7  -3 -22    3.01    4.18   0
  -6  -3  22   35.09    4.01   0
  -6  -3  22   33.06    4.06   0
  -6   3  22   34.90    4.64   0
   6  -3 -22   41.07    4.28   0
  -5   3  22  100.51    5.36   0
  -5  -3  22  106.47    7.47   0
  -5  -3  22  103.42    4.62   0
  -5   3  22  102.87    5.77   0
   5  -3 -22  115.62    4.75   0
  -5  -3  22  104.53    4.56   0
  -4  -3  22  201.76    5.36   0
  -4   3  22  205.93    5.90   0
  -4  -3  22  199.01    7.52   0
   4  -3 -22  222.85    5.49   0
  -4  -3  22  196.63    5.49   0
  -4   3  22  207.13    8.29   0
  -3   3  22    3.51    6.46   0
  -3   3  22    2.82    6.73   0
  -3   3  22    3.57    4.00   0
  -3  -3  22    5.36    3.99   0
  -3  -3  22    2.06    4.35   0
  -2  -3  22    4.27    3.96   0
  -2   3  22   -4.32    3.79   0
  -1   3  22    0.16    3.61   0
  -1  -3  22    1.83    3.41   0
   0  -3  22   92.88    4.71   0
   0   3  22   91.06    3.98   0
   0   3 -22   92.19    4.67   0
   1  -3  22   42.07    4.29   0
  -1   3 -22   39.18    3.87   0
   1   3  22   43.76    3.46   0
   2  -3  22   89.55    4.66   0
  -2   3 -22   84.71    4.71   0
   2   3  22   85.15    3.63   0
   3  -3  22    7.25    3.64   0
  -3   3 -22   11.82    3.62   0
   3   3  22    9.35    3.23   0
  -3  -3 -22    8.75    5.50   0
  -4   3 -22   55.54    3.96   0
  -4  -3 -22   54.79    5.39   0
   4   3  22   47.84    3.54   0
   4  -3  22   45.73    3.95   0
   4   3  22   47.98    6.36   0
  -5  -3 -22    0.34    4.14   0
   5  -3  22    1.18    3.50   0
  -5   3 -22   -3.06    3.50   0
   5   3  22   -0.37    4.62   0
   6   3  22    8.17    4.86   0
   6  -3  22   12.75    4.05   0
  -6   3 -22   15.07    3.86   0
   7   3  22   -0.32    4.50   0
   7  -3  22    0.61    3.89   0
  -7   3 -22    3.30    3.83   0
  -8  -3 -22   -3.75    4.46   0
   8   3  22   -0.88    4.55   0
   8  -3  22    2.49    3.83   0
  -8   3 -22   -3.77    3.89   0
  -9  -3 -22   25.14    5.32   0
   9  -3  22    9.79    4.50   0
  -9   3 -22   13.61    4.48   0
   9   3  22    4.88    5.17   0
 -10  -4  22   -4.07    4.60   0
 -10   4  22   -0.23    4.32   0
  10  -4 -22    4.61    5.03   0
 -10  -4  22   -0.93    4.46   0
  -9  -4  22    0.05    4.26   0
  -9  -4  22   11.98    4.33   0
   9  -4 -22   18.76    4.70   0
   9  -4 -22   15.90    5.13   0
  -9   4  22    8.34    5.12   0
  -8  -4  22    1.66    4.05   0
  -8  -4  22   -2.37    3.96   0
   8  -4 -22    1.30    4.82   0
  -8   4  22    0.95    3.96   0
  -7   4  22    0.32    4.29   0
  -7  -4  22    1.22    3.76   0
  -7  -4  22    1.96    3.95   0
   7  -4 -22   -0.80    4.15   0
   7  -4 -22   -3.24    4.72   0
  -6  -4  22   10.39    3.89   0
  -6   4  22    6.65    4.90   0
  -6  -4  22    8.04    3.91   0
   6  -4 -22    5.35    4.23   0
   6  -4 -22    1.46    4.75   0
  -5  -4  22  302.43    6.00   0
  -5   4  22  267.13    8.62   0
  -5  -4  22  267.77   13.28   0
  -5  -4  22  284.57    5.96   0
  -4   4  22    7.27    4.77   0
  -4   4  22   12.49    6.02   0
  -4  -4  22   14.20    5.24   0
  -4  -4  22    8.77    4.00   0
  -3  -4  22    7.60    3.57   0
  -3   4  22    9.89    4.18   0
   3  -4 -22   12.46    3.69   0
  -3  -4  22   12.63    4.27   0
  -2  -4  22  185.32    5.40   0
  -2   4  22  157.88    4.66   0
  -1   4  22  171.68    4.51   0
  -1  -4  22  192.06    5.06   0
   0  -4  22    6.30    3.68   0
   0   4  22   -0.79    3.04   0
   0   4 -22    1.57    3.60   0
   1  -4  22   50.80    3.86   0
  -1   4 -22   56.71    3.97   0
   1   4  22   55.53    3.72   0
   2  -4  22  329.32    5.95   0
   2   4  22  300.59    5.59   0
  -2   4 -22  313.45    5.78   0
   3  -4  22  274.44    5.52   0
  -3   4 -22  273.48    5.65   0
   3   4  22  247.58    5.37   0
  -4  -4 -22   12.38    5.94   0
  -4   4 -22   19.18    3.81   0
   4   4  22   18.89    3.63   0
   4  -4  22   12.36    3.76   0
  -5  -4 -22    1.68    4.51   0
  -5   4 -22    2.05    3.77   0
   5  -4  22    0.42    3.69   0
   5   4  22    0.48    3.70   0
   6  -4  22    6.75    3.67   0
   6   4  22   10.93    4.01   0
  -6   4 -22   12.49    3.79   0
  -6  -4 -22    9.90    4.52   0
   7  -4  22    5.21    3.89   0
  -7   4 -22    2.20    3.89   0
   7   4  22    1.14    4.11   0
   8  -4  22    0.61    3.93   0
  -8   4 -22    0.36    4.02   0
   8   4  22   -0.45    4.26   0
  -8  -4 -22   -0.01    4.59   0
   9  -4  22    3.06    4.16   0
  -9   4 -22   -1.26    4.08   0
   9   4  22    1.99    4.53   0
  -9  -4 -22   -0.61    4.69   0
   9  -5 -22   -1.34    5.09   0
  -9  -5  22    2.65    4.81   0
  -9   5  22    2.47    5.58   0
  -9  -5  22   12.97    4.33   0
   8  -5 -22   -1.40    5.40   0
  -8  -5  22    7.00    4.19   0
  -8   5  22    3.05    5.30   0
  -8  -5  22    2.81    4.07   0
   7  -5 -22   45.39    5.68   0
  -7  -5  22   49.43    4.46   0
  -7   5  22   46.03    5.38   0
  -7  -5  22   45.44    4.39   0
   7  -5 -22   49.39    4.87   0
  -6  -5  22    4.27    3.89   0
  -6   5  22   -0.58    5.10   0
   6  -5 -22    2.55    4.09   0
  -6  -5  22    4.80    3.88   0
   6  -5 -22    1.61    4.64   0
  -5   5  22   33.44    5.90   0
   5  -5 -22   37.98    3.91   0
  -5  -5  22   43.16    4.06   0
  -5  -5  22   41.01    4.20   0
   5  -5 -22   37.21    6.30   0
  -4   5  22    5.37    4.13   0
  -4  -5  22    1.63    3.71   0
  -4   5  22    5.63    6.86   0
  -4  -5  22    3.93    6.28   0
   4  -5 -22    5.68    3.74   0
  -3  -5  22   42.97    3.96   0
  -3   5  22   40.18    4.37   0
   3  -5 -22   36.68    4.03   0
  -2  -5  22    1.82    3.76   0
  -2   5  22    0.24    3.68   0
  -1   5  22    6.06    3.70   0
  -1  -5  22   12.17    3.82   0
   0   5 -22  329.36    6.13   0
   0   5  22  308.80    5.78   0
   0  -5  22  316.07    5.81   0
   1  -5  22    3.54    3.47   0
   1   5  22   -4.05    3.67   0
  -1   5 -22    2.64    3.55   0
  -2   5 -22    0.59    3.45   0
   2  -5  22   -0.80    3.63   0
   2   5  22    1.57    3.42   0
   3  -5  22   24.03    3.80   0
   3   5  22   17.73    3.76   0
  -3   5 -22   13.78    3.91   0
  -4  -5 -22    0.66    5.88   0
  -4  -5 -22   -0.37    6.23   0
  -4   5 -22   -0.66    3.64   0
   4   5  22    1.05    3.98   0
   4  -5  22    0.92    3.67   0
  -5   5 -22  116.89    4.67   0
  -5  -5 -22  115.46    7.46   0
   5   5  22   99.28    4.87   0
   5  -5  22  104.28    4.59   0
  -5  -5 -22  111.33    7.22   0
  -6   5 -22   21.54    4.00   0
   6  -5  22   22.59    3.98   0
   6   5  22   15.50    4.38   0
  -6  -5 -22   17.40    4.76   0
  -7   5 -22   -2.78    3.91   0
   7  -5  22    4.96    4.04   0
   7   5  22    2.28    4.38   0
  -7  -5 -22    1.18    4.88   0
   8  -5  22   13.42    4.49   0
   8   5  22    8.01    4.77   0
  -8   5 -22   22.64    4.40   0
   8  -6 -22    1.51    5.10   0
  -8  -6  22    3.77    4.35   0
  -8  -6  22    4.39    4.24   0
  -8   6  22   -3.78    5.46   0
  -7  -6  22   73.81    4.36   0
   7  -6 -22   64.86    6.04   0
  -7  -6  22   88.46    4.79   0
  -7   6  22    0.46    6.30   0
   7  -6 -22   85.37    5.06   0
   6  -6 -22   39.73    5.73   0
  -6  -6  22   33.80    4.35   0
  -6   6  22    1.09    5.56   0
  -6  -6  22    8.21    4.07   0
   5  -6 -22   20.96    6.35   0
  -5   6  22   21.21    6.43   0
  -5  -6  22   25.49    3.77   0
  -5  -6  22   22.67    3.81   0
  -4  -6  22   31.43    3.67   0
  -4  -6  22   24.01    8.62   0
   4  -6 -22   31.56    4.07   0
  -4   6  22   27.05    9.01   0
  -3  -6  22    5.53    3.26   0
  -3   6  22   -4.06    4.13   0
   3  -6 -22    1.69    3.58   0
  -2  -6  22   23.71    3.57   0
  -2   6  22    7.12    4.30   0
  -1   6  22    4.78    3.96   0
  -1  -6  22   -1.52    3.41   0
   0  -6  22    5.83    3.46   0
   0   6 -22    4.63    3.45   0
   0   6  22    2.23    3.68   0
  -1   6 -22    7.81    3.65   0
   1  -6  22    3.34    3.70   0
   1   6  22    5.24    3.76   0
   2  -6  22    0.12    3.37   0
  -2   6 -22   -2.54    3.44   0
   2   6  22   -4.13    3.71   0
  -3   6 -22   18.25    3.49   0
   3  -6  22    3.42    3.43   0
   3   6  22   16.64    3.73   0
   4  -6  22   49.13    4.04   0
  -4  -6 -22   51.85    8.89   0
  -4  -6 -22   49.73    8.85   0
   4   6  22   51.98    4.59   0
  -4   6 -22   53.75    3.95   0
  -5  -6 -22    3.16    6.07   0
  -5   6 -22   12.92    3.81   0
   5   6  22    1.78    4.33   0
  -5  -6 -22    6.27    5.85   0
   5  -6  22    9.97    3.88   0
  -6   6 -22   -2.15    3.94   0
  -6  -6 -22    3.74    5.17   0
   6   6  22    2.04    4.66   0
  -6  -6 -22    1.58    4.94   0
   6  -6  22    1.59    3.88   0
  -7  -6 -22    1.19    5.21   0
  -7   6 -22   -1.68    4.06   0
   7  -6  22    0.96    4.17   0
   7   6  22    2.55    4.68   0
  -7  -6 -22    0.72    5.06   0
  -7  -7  22   -1.73    4.33   0
   7  -7 -22    0.64    5.72   0
  -7   7  22    2.24    5.85   0
  -7  -7  22    5.42    4.39   0
   6  -7 -22   29.40    6.65   0
  -6   7  22    5.76    6.84   0
  -6  -7  22   37.12    4.08   0
   6  -7 -22   29.21    4.60   0
  -6  -7  22   26.93    4.43   0
   5  -7 -22    0.20    6.83   0
  -5   7  22    0.73    6.51   0
  -5  -7  22   -1.23    3.85   0
   5  -7 -22   -0.85    4.44   0
   4  -7 -22    0.88    8.46   0
  -4  -7  22   -2.36    3.92   0
   4  -7 -22   -4.54    4.17   0
  -3  -7  22    2.83    4.03   0
   3  -7 -22   20.61    4.02   0
  -2   7  22    1.10    4.55   0
  -2  -7  22    1.09    3.61   0
   2  -7 -22    9.33    3.79   0
  -1   7  22   -1.08    4.63   0
  -1  -7  22    4.24    3.51   0
   0   7 -22   12.58    3.89   0
   0  -7  22    4.04    3.58   0
   0   7  22    8.56    4.41   0
   1  -7  22   48.17    3.64   0
   1   7  22   33.87    4.79   0
  -1   7 -22   45.97    4.06   0
   2  -7  22   27.00    4.04   0
   2   7  22   29.03    5.00   0
  -2   7 -22   23.45    4.01   0
   3  -7  22    5.06    3.96   0
  -3   7 -22    0.69    3.83   0
   3   7  22    1.32    4.66   0
   4  -7  22   -2.80    3.86   0
   4   7  22    2.04    4.56   0
  -4  -7 -22    2.77    8.39   0
  -4  -7 -22    3.66    8.60   0
  -4   7 -22    2.07    3.87   0
  -5  -7 -22   -1.18    6.88   0
   5   7  22   -0.69    4.74   0
  -5   7 -22    8.59    4.00   0
  -5  -7 -22    1.09    6.67   0
   5  -7  22    2.31    3.48   0
  -6   7 -22    4.33    4.31   0
   6   7  22    1.68    5.42   0
  -6  -7 -22    6.31    6.25   0
   6  -7  22    3.27    3.81   0
  -6  -7 -22    1.63    5.98   0
   5  -8 -22    1.73    7.40   0
  -5  -8  22    8.55    3.74   0
   5  -8 -22    2.82    4.85   0
  -4  -8  22    2.99    4.05   0
   4  -8 -22    0.62    9.32   0
   4  -8 -22   -4.95    4.32   0
  -3  -8  22    9.58    8.52   0
   3  -8 -22   15.66    4.40   0
  -3  -8  22   20.97    3.98   0
  -2  -8  22    4.59    3.88   0
   2  -8 -22    2.02    4.05   0
  -1  -8  22   17.33    3.99   0
  -1   8  22   10.34    5.04   0
   0  -8  22    2.53    3.81   0
   0   8  22    2.28    4.71   0
  -1   8 -22    5.08    3.98   0
   1  -8  22    1.41    3.87   0
   1   8  22    4.47    4.92   0
   2  -8  22    0.06    3.46   0
  -2   8 -22    2.82    3.85   0
   2   8  22    1.17    4.98   0
   3  -8  22    0.03    4.05   0
   3   8  22   -5.89    4.90   0
  -3   8 -22   -5.17    3.86   0
   4  -8  22   -0.73    4.26   0
  -4   8 -22    6.28    3.80   0
  -4  -8 -22    4.72    9.36   0
   4   8  22    3.83    5.00   0
  -4  -8 -22    5.58    9.32   0
  -9   0  23   -0.30    3.93   0
  -7   0  23    1.55    3.54   0
  -5   0  23  116.68    5.09   0
  -5   0  23  114.06    4.97   0
  -5   0  23  108.30    4.72   0
  -3   0  23  109.13    5.27   0
  -3   0  23  104.17    4.62   0
  -3   0  23  107.22    5.25   0
  -1   0  23   12.63    4.14   0
  -1   0  23   11.09    3.76   0
   1   0  23  587.78    9.61   0
   3   0  23   40.31    3.79   0
   5   0  23    5.32    3.60   0
  -5   0 -23    5.44    3.50   0
   7   0  23   12.13    3.97   0
  -7   0 -23   14.44    3.91   0
   9   0  23    6.21    3.89   0
  -9   0 -23    3.86    3.76   0
 -10  -1  23    3.45    4.50   0
 -10   1  23    8.50    4.21   0
  -9  -1  23   -1.52    3.92   0
  -9   1  23    1.78    4.33   0
   9  -1 -23    2.51    4.28   0
  -8  -1  23   13.67    3.75   0
  -8   1  23    0.27    4.58   0
   8  -1 -23   13.80    4.65   0
  -7  -1  23   63.37    4.24   0
  -7   1  23   56.31    4.73   0
  -6  -1  23   26.43    3.99   0
  -6   1  23   33.02    4.09   0
  -6  -1  23   31.79    4.07   0
  -5  -1  23   27.43    3.62   0
  -5   1  23   25.79    4.22   0
  -5  -1  23   21.42    5.02   0
  -5   1  23   28.78    5.53   0
  -5  -1  23   22.63    3.88   0
  -4  -1  23    5.83    4.12   0
  -4   1  23    5.64    4.25   0
  -4   1  23    2.89    4.27   0
  -4  -1  23    8.65    4.07   0
  -4  -1  23    8.70    4.66   0
  -4   1  23    4.59    4.55   0
  -3   1  23    8.61    4.60   0
  -3   1  23    8.20    4.83   0
  -3   1  23   11.24    4.26   0
  -3  -1  23    8.92    3.94   0
  -3  -1  23   10.50    4.01   0
  -3  -1  23    6.62    4.23   0
  -2   1  23   23.57    4.77   0
  -2   1  23   21.98    5.08   0
  -2  -1  23   22.89    4.17   0
  -2   1  23   18.00    4.15   0
  -2  -1  23   24.18    3.80   0
  -1   1  23    6.66    4.69   0
  -1   1  23    8.13    4.62   0
  -1  -1  23    6.78    3.77   0
  -1   1  23   13.10    3.77   0
   0  -1  23   10.34    4.04   0
   0   1 -23   11.51    3.49   0
   0   1  23   11.97    3.37   0
   0   1  23   10.90    4.90   0
   1  -1  23   65.32    4.54   0
   1   1  23   63.02    5.45   0
  -1   1 -23   57.46    4.58   0
   1   1  23   62.97    3.64   0
   2   1  23  122.52    6.28   0
  -2   1 -23  112.45    4.97   0
  -2  -1 -23  115.49    6.26   0
   2  -1  23  117.79    4.97   0
  -3  -1 -23  178.12    6.68   0
  -3   1 -23  179.72    5.67   0
   3   1  23  188.35    6.82   0
   3  -1  23  181.70    5.16   0
   4   1  23   56.88    5.09   0
   4  -1  23   57.18    3.93   0
  -4   1 -23   59.40    4.26   0
   5   1  23   35.01    4.47   0
   5  -1  23   38.82    4.32   0
  -5   1 -23   39.51    4.27   0
   6   1  23   22.77    4.20   0
  -6  -1 -23   17.75    3.89   0
   6  -1  23   20.78    3.64   0
  -6   1 -23   23.16    4.13   0
   7   1  23   32.49    4.10   0
  -7  -1 -23   37.71    4.99   0
   7  -1  23   34.40    4.05   0
  -7   1 -23   36.91    4.05   0
   8   1  23    1.65    4.04   0
  -8  -1 -23   -1.44    4.73   0
   8  -1  23    0.52    4.20   0
  -8   1 -23    3.97    3.81   0
   9   1  23    2.82    4.71   0
  -9  -1 -23    2.03    4.48   0
   9  -1  23    0.81    4.17   0
  -9   1 -23    1.84    4.24   0
  10   1  23    6.42    5.22   0
 -10  -1 -23   30.68    5.08   0
  10  -1  23   24.76    5.05   0
 -10   1 -23   19.67    4.55   0
 -10  -2  23   20.73    4.49   0
 -10   2  23   -6.56    4.33   0
  10  -2 -23   19.07    4.63   0
  -9  -2  23    3.21    5.07   0
  -9   2  23   34.06    4.86   0
   9  -2 -23   42.70    4.63   0
  -8  -2  23    0.50    4.00   0
  -8   2  23    0.74    4.67   0
   8  -2 -23    1.39    4.12   0
  -7  -2  23   22.37    3.97   0
  -7   2  23   19.09    4.59   0
  -7  -2  23   19.90    4.48   0
   7  -2 -23   14.97    4.34   0
  -6  -2  23   63.15    4.20   0
  -6  -2  23   52.29    4.49   0
  -6   2  23   58.97    4.69   0
   6  -2 -23   70.20    4.89   0
  -5  -2  23   22.77    4.07   0
  -5   2  23   21.36    4.05   0
  -5   2  23   19.53    4.70   0
  -5  -2  23   20.92    5.22   0
  -5  -2  23   21.26    3.87   0
  -4  -2  23  108.55    4.71   0
  -4   2  23   97.81    5.97   0
  -4   2  23   98.47    6.79   0
  -4   2  23   96.45    5.05   0
  -4  -2  23  106.58    5.63   0
  -4  -2  23  113.81    5.11   0
  -3   2  23    1.21    5.30   0
  -3   2  23    1.05    4.98   0
  -3  -2  23   -3.38    3.66   0
  -3   2  23    0.94    4.05   0
  -3  -2  23    1.71    4.00   0
  -2  -2  23  108.02    4.54   0
  -2   2  23  109.55    9.66   0
  -2   2  23  102.97    4.68   0
  -2   2  23  106.08   10.09   0
  -2  -2  23  112.60    4.97   0
  -1   2  23  634.64    7.20   0
  -1  -2  23  667.36    8.51   0
   0  -2  23    5.06    3.52   0
   0   2 -23    6.67    4.40   0
   0   2  23   -0.99    3.20   0
   1  -2  23    9.75    3.43   0
  -1   2 -23    8.91    4.38   0
   1   2  23    5.12    3.09   0
  -2  -2 -23    1.87    5.86   0
   2  -2  23    6.88    3.23   0
   2   2  23    1.89    5.74   0
  -2   2 -23    1.29    3.36   0
   2   2  23    3.99    3.01   0
  -3  -2 -23  124.08    7.29   0
   3   2  23  115.79    7.30   0
  -3   2 -23  130.36    4.75   0
   3  -2  23  119.15    4.47   0
  -4   2 -23  379.37    6.93   0
   4   2  23  349.76    9.19   0
  -4  -2 -23  381.81    8.76   0
   4  -2  23  360.63    6.80   0
   5   2  23    0.55    3.76   0
  -5  -2 -23    2.87    3.94   0
   5  -2  23    5.05    3.60   0
  -5   2 -23    1.01    4.07   0
   6   2  23    0.24    3.97   0
   6  -2  23    0.44    3.64   0
  -6   2 -23    1.52    4.15   0
   7   2  23   37.87    5.03   0
  -7  -2 -23   36.44    4.58   0
   7  -2  23   36.39    4.20   0
  -7   2 -23   36.25    4.11   0
   8   2  23   -0.33    5.05   0
  -8  -2 -23    4.08    5.26   0
   8  -2  23    5.05    3.77   0
  -8   2 -23    3.33    3.81   0
   9   2  23    1.17    4.62   0
  -9  -2 -23    0.33    4.69   0
   9  -2  23    6.24    4.34   0
  -9   2 -23    2.93    4.29   0
 -10  -3  23    1.85    4.36   0
  10  -3 -23   14.90    4.62   0
 -10   3  23   -2.77    5.63   0
  -9  -3  23   -0.43    4.15   0
  -9  -3  23    2.62    4.18   0
  -9   3  23    0.35    5.05   0
   9  -3 -23   -1.75    4.16   0
  -8  -3  23    4.32    3.93   0
  -8   3  23    0.24    4.53   0
   8  -3 -23    4.90    3.99   0
  -8  -3  23    7.11    4.08   0
  -7  -3  23   -0.45    3.71   0
  -7  -3  23   -2.44    4.02   0
  -7   3  23    0.65    4.16   0
   7  -3 -23    3.69    4.08   0
  -6  -3  23    8.62    4.01   0
  -6  -3  23   10.75    3.76   0
  -6   3  23   11.30    4.59   0
   6  -3 -23    3.41    4.01   0
  -5  -3  23    9.56    5.46   0
  -5  -3  23    8.72    3.78   0
  -5   3  23    9.96    4.69   0
  -5   3  23    8.12    4.46   0
   5  -3 -23   11.58    3.96   0
  -5  -3  23   14.79    3.81   0
  -4   3  23    7.05    4.33   0
  -4  -3  23    8.42    4.90   0
  -4  -3  23   10.14    3.73   0
  -4  -3  23    7.61    3.83   0
  -4   3  23   10.81    5.25   0
  -3  -3  23   13.32    3.80   0
  -3   3  23    9.02    4.47   0
  -3  -3  23   12.69    4.45   0
  -2  -3  23   66.66    4.12   0
  -2   3  23   66.27    4.27   0
  -1   3  23   57.16    4.00   0
  -1  -3  23   51.90    4.71   0
   0   3 -23   93.15    4.78   0
   0  -3  23   88.68    4.91   0
   0   3  23   78.75    3.76   0
   1  -3  23   85.92    4.73   0
  -1   3 -23   78.72    4.36   0
   1   3  23   78.47    3.74   0
   2  -3  23  114.96    4.56   0
   2   3  23   99.78    3.87   0
  -2   3 -23  105.11    4.63   0
   3  -3  23    9.19    3.61   0
  -3  -3 -23   12.46    6.84   0
  -3   3 -23    9.72    4.19   0
   3   3  23    4.12    3.34   0
  -4   3 -23    2.44    3.52   0
  -4  -3 -23    0.02    4.67   0
   4  -3  23   -0.36    3.37   0
   4   3  23   -0.54    3.22   0
   4   3  23    0.52    5.24   0
  -5   3 -23   53.62    4.04   0
  -5  -3 -23   57.30    5.54   0
   5  -3  23   51.04    3.91   0
   5   3  23   48.64    3.71   0
   5   3  23   48.32    5.90   0
  -6  -3 -23   17.11    4.54   0
   6  -3  23   15.70    4.09   0
  -6   3 -23   22.16    4.12   0
   6   3  23   11.73    4.57   0
   7   3  23    5.01    4.90   0
   7  -3  23    8.06    3.89   0
  -7   3 -23    3.75    3.91   0
   8   3  23    3.08    4.87   0
  -8  -3 -23   -0.94    4.89   0
   8  -3  23    4.18    4.03   0
  -8   3 -23    2.29    3.97   0
  -9  -3 -23   -0.97    5.06   0
   9  -3  23   -0.57    4.26   0
  -9   3 -23    1.08    4.25   0
   9   3  23    4.54    5.43   0
  -9  -4  23    2.14    4.27   0
  -9  -4  23    0.73    4.14   0
   9  -4 -23    2.44    4.45   0
   9  -4 -23   -0.72    4.43   0
  -9   4  23    0.70    4.88   0
  -8  -4  23    2.78    4.15   0
  -8  -4  23    0.82    4.21   0
   8  -4 -23   -0.85    5.03   0
  -8   4  23    1.01    4.93   0
  -7   4  23   24.66    5.09   0
  -7  -4  23   50.42    4.21   0
   7  -4 -23   53.55    4.56   0
   7  -4 -23   44.47    5.37   0
  -7  -4  23   49.54    4.19   0
  -6  -4  23    6.90    3.97   0
  -6   4  23    7.73    4.96   0
  -6  -4  23    9.02    3.97   0
   6  -4 -23    8.37    4.12   0
  -5  -4  23   45.59    4.48   0
  -5   4  23   43.23    6.13   0
  -5  -4  23   37.86    8.25   0
  -5  -4  23   46.00    4.26   0
  -4   4  23   38.82    4.65   0
  -4  -4  23   48.06    4.17   0
  -4   4  23   42.04    7.90   0
  -4  -4  23   43.62    5.78   0
  -3  -4  23    7.40    3.93   0
  -3   4  23    9.42    4.20   0
  -3  -4  23    7.06    4.24   0
  -2  -4  23    0.30    3.57   0
  -2   4  23   -1.71    3.62   0
  -1   4  23   90.49    4.30   0
  -1  -4  23   98.09    4.44   0
   0   4 -23   55.36    4.57   0
   0  -4  23   64.40    4.18   0
   0   4  23   46.26    3.63   0
   1  -4  23   20.29    3.71   0
  -1   4 -23   22.91    3.91   0
   1   4  23   25.96    3.40   0
  -2   4 -23  146.00    4.74   0
   2  -4  23  146.19    4.89   0
   2   4  23  143.80    4.61   0
   3  -4  23   50.52    3.92   0
  -3   4 -23   38.49    3.85   0
   3   4  23   37.85    3.69   0
  -4   4 -23    2.89    3.63   0
  -4  -4 -23    0.67    5.80   0
   4   4  23    5.34    3.52   0
   4  -4  23    4.66    3.79   0
  -5  -4 -23   -0.17    4.97   0
  -5   4 -23   -0.03    3.91   0
   5  -4  23    3.73    3.95   0
   5   4  23    4.64    3.79   0
  -6   4 -23   44.38    4.10   0
  -6  -4 -23   35.38    5.21   0
   6  -4  23   45.15    4.06   0
   6   4  23   43.90    4.37   0
  -7  -4 -23   11.64    5.00   0
   7  -4  23    4.17    4.09   0
   7   4  23    5.53    3.78   0
  -7   4 -23   11.10    3.81   0
   8  -4  23   -1.90    4.12   0
  -8   4 -23   -2.50    4.10   0
   8   4  23    2.22    4.62   0
   9  -4  23    8.68    4.27   0
  -9   4 -23   11.71    4.31   0
   9   4  23    3.48    4.52   0
  -9  -4 -23    6.26    5.57   0
  -9  -5  23    3.19    5.43   0
  -9  -5  23   51.69    4.91   0
  -9   5  23   10.61    6.03   0
   9  -5 -23   -4.74    6.12   0
  -8  -5  23   17.63    3.90   0
  -8   5  23    1.23    5.19   0
  -8  -5  23   19.92    4.26   0
   8  -5 -23   15.52    5.15   0
  -7  -5  23    4.05    3.70   0
  -7   5  23    0.50    4.63   0
  -7  -5  23    9.36    4.08   0
   7  -5 -23    4.09    4.39   0
   7  -5 -23    5.22    4.73   0
  -6  -5  23   59.65    4.28   0
  -6   5  23   22.74    6.13   0
   6  -5 -23   52.20    4.76   0
   6  -5 -23   52.19    6.42   0
  -6  -5  23   50.62    4.51   0
  -5  -5  23    4.95    3.94   0
  -5   5  23    3.92    5.61   0
   5  -5 -23   11.04    3.76   0
  -5  -5  23    6.33    3.90   0
  -4   5  23    3.59    4.40   0
  -4  -5  23   21.50    3.95   0
  -4  -5  23   16.66    6.19   0
   4  -5 -23   22.71    3.74   0
  -3  -5  23   26.48    3.93   0
  -3   5  23   20.35    4.37   0
   3  -5 -23   31.00    3.73   0
  -2   5  23    2.85    3.69   0
  -2  -5  23    6.51    3.71   0
  -1   5  23    2.44    3.74   0
  -1  -5  23    1.97    3.28   0
   0   5 -23   15.65    3.84   0
   0  -5  23   18.22    3.98   0
   0   5  23    5.52    3.56   0
  -1   5 -23   -1.12    4.01   0
   1  -5  23    2.94    3.69   0
   1   5  23    0.20    3.45   0
   2  -5  23   10.57    3.67   0
  -2   5 -23   10.13    3.65   0
   2   5  23    3.20    3.65   0
   3  -5  23    1.83    3.72   0
   3   5  23    1.80    3.71   0
  -3   5 -23    8.39    3.61   0
  -4  -5 -23    1.87    7.57   0
  -4   5 -23    3.79    3.76   0
   4   5  23   -1.24    3.98   0
  -4  -5 -23    2.69    7.60   0
   4  -5  23   -0.19    3.78   0
  -5  -5 -23    7.63    5.75   0
  -5   5 -23    5.11    4.02   0
   5   5  23    7.72    4.06   0
   5  -5  23    3.16    3.80   0
  -5  -5 -23    3.24    5.93   0
  -6   5 -23   13.92    4.21   0
   6  -5  23   15.54    4.19   0
   6   5  23   22.29    4.43   0
  -6  -5 -23   19.75    5.25   0
  -7   5 -23    0.36    4.09   0
   7  -5  23   -0.99    3.91   0
   7   5  23    0.92    4.61   0
  -7  -5 -23    0.67    4.95   0
   8  -5  23    2.31    4.30   0
   8   5  23   -0.69    4.53   0
  -8  -5 -23    2.86    5.19   0
  -8   5 -23    0.63    4.32   0
   8  -6 -23   -4.21    5.90   0
  -8  -6  23    9.09    4.23   0
  -8  -6  23   24.85    4.59   0
  -8   6  23    0.30    5.96   0
   7  -6 -23    8.23    5.39   0
  -7  -6  23   16.95    4.18   0
  -7  -6  23    4.66    4.25   0
  -7   6  23    2.43    5.07   0
  -6   6  23   29.07    6.40   0
  -6  -6  23   32.18    4.13   0
  -6  -6  23    6.44    3.91   0
   6  -6 -23   30.33    6.06   0
  -5  -6  23    8.00    3.95   0
  -5   6  23    5.04    6.85   0
  -5  -6  23    6.38    4.00   0
   5  -6 -23    2.22    6.98   0
  -4  -6  23   15.38    3.72   0
  -4  -6  23   15.05    7.96   0
   4  -6 -23   17.06    3.98   0
  -3  -6  23    1.34    3.62   0
  -3   6  23    2.47    4.63   0
   3  -6 -23   -0.94    3.82   0
  -2   6  23   12.25    4.63   0
  -2  -6  23   38.07    3.79   0
  -1   6  23  104.80    4.93   0
  -1  -6  23  103.51    4.31   0
   0   6  23    8.09    3.91   0
   0   6 -23    4.45    3.69   0
   0  -6  23   -0.50    3.73   0
  -1   6 -23   13.66    3.71   0
   1  -6  23   19.09    3.70   0
   1   6  23   14.30    3.96   0
   2  -6  23   49.33    4.21   0
   2   6  23   55.78    3.99   0
  -2   6 -23   53.85    4.20   0
  -3   6 -23    8.37    3.87   0
   3  -6  23    7.09    4.03   0
   3   6  23   11.58    3.84   0
   4  -6  23    2.54    3.97   0
   4   6  23    4.72    4.42   0
  -4   6 -23    9.64    3.91   0
  -5   6 -23    5.74    3.83   0
   5   6  23    4.84    4.46   0
   5  -6  23    3.35    3.93   0
  -5  -6 -23    1.02    6.73   0
  -5  -6 -23    1.49    6.50   0
  -6  -6 -23   22.98    6.65   0
  -6   6 -23   54.99    4.64   0
   6   6  23   35.78    5.03   0
   6  -6  23   49.50    4.66   0
  -6  -6 -23   42.43    6.87   0
  -7   6 -23    3.41    4.20   0
   7  -6  23    1.74    4.21   0
   7   6  23    0.80    4.41   0
  -7  -6 -23   -0.77    5.38   0
  -7  -6 -23   -0.82    5.11   0
   6  -7 -23   -1.13    6.59   0
  -6  -7  23   -3.99    4.33   0
  -6   7  23    0.75    7.14   0
   6  -7 -23   -3.18    4.07   0
  -6  -7  23    0.82    4.10   0
  -5   7  23    0.90    7.73   0
  -5  -7  23    1.92    4.01   0
   5  -7 -23    2.34    4.18   0
  -5  -7  23   -4.32    4.00   0
   5  -7 -23    1.83    7.88   0
  -4  -7  23   -1.61    4.11   0
   4  -7 -23    1.66    4.37   0
   3  -7 -23    6.08    3.52   0
  -3  -7  23    6.33    3.93   0
  -2   7  23   98.48    5.36   0
  -2  -7  23  101.71    4.72   0
  -1   7  23    2.14    4.29   0
  -1  -7  23    2.96    3.84   0
   0   7 -23    0.19    3.77   0
   0  -7  23    1.78    3.86   0
   0   7  23    5.93    4.60   0
   1  -7  23    3.54    3.73   0
   1   7  23    6.78    4.51   0
  -1   7 -23    2.02    3.97   0
   2  -7  23    1.85    3.81   0
   2   7  23    3.21    4.45   0
  -2   7 -23   -2.80    3.80   0
   3  -7  23    4.91    3.71   0
  -3   7 -23    1.66    4.03   0
   3   7  23    7.59    4.87   0
   4  -7  23   -1.39    3.49   0
  -4   7 -23    0.02    3.82   0
   4   7  23   -1.86    4.55   0
  -5  -7 -23    1.30    7.13   0
   5   7  23    3.23    4.75   0
  -5   7 -23    5.99    4.17   0
   5  -7  23    3.01    3.83   0
  -5  -7 -23    3.33    7.48   0
  -6  -7 -23   -1.19    6.59   0
  -4  -8  23   18.37    4.42   0
   4  -8 -23   18.29    5.03   0
  -3  -8  23    2.10    7.95   0
   3  -8 -23    3.21    4.50   0
  -3  -8  23   -2.65    4.14   0
  -2  -8  23    7.84    3.48   0
  -1   8  23   -0.19    4.72   0
  -1  -8  23    7.09    3.89   0
   0  -8  23   -1.34    3.96   0
   0   8  23   -3.94    4.23   0
   1  -8  23   46.50    4.21   0
   1   8  23   17.93    5.37   0
  -1   8 -23   37.28    3.74   0
   2  -8  23   13.98    4.17   0
  -2   8 -23   21.58    4.30   0
   2   8  23   13.12    5.09   0
   3  -8  23    0.95    4.24   0
   3   8  23    3.08    4.78   0
  -3   8 -23   -2.96    4.23   0
 -10   0  24   25.69    5.39   0
  -8   0  24  325.81    6.73   0
  -6   0  24   62.42    4.16   0
  -6   0  24   62.01    5.09   0
  -4   0  24  153.43    5.78   0
  -4   0  24  142.86    5.63   0
  -4   0  24  152.78    5.69   0
  -2   0  24   24.12    4.63   0
  -2   0  24   20.27    3.79   0
  -2   0  24   21.18    4.39   0
   0   0  24  137.22    6.00   0
   0   0  24  139.51    4.65   0
   2   0  24  168.02    6.07   0
   4   0  24    3.22    3.67   0
  -4   0 -24    2.56    3.77   0
   6   0  24   15.42    4.05   0
  -6   0 -24   16.69    4.21   0
   8   0  24   20.12    4.19   0
  -8   0 -24   25.54    4.03   0
 -10  -1  24    3.39    4.34   0
 -10   1  24   10.66    4.54   0
  -9  -1  24  198.19    5.79   0
  -9   1  24  188.87    6.70   0
   9  -1 -24  183.23    7.31   0
  -8  -1  24   14.37    3.79   0
  -8   1  24    1.64    4.60   0
  -7  -1  24    6.33    4.33   0
  -7   1  24    0.64    3.97   0
  -6  -1  24   81.18    4.37   0
  -6   1  24   76.75    4.90   0
  -6  -1  24   75.31    5.92   0
  -6  -1  24   83.81    4.52   0
  -5  -1  24   24.41    4.26   0
  -5  -1  24   23.85    4.30   0
  -5   1  24   31.59    4.31   0
  -5   1  24   26.62    4.57   0
  -5  -1  24   32.03    5.03   0
  -4  -1  24    2.21    3.91   0
  -4   1  24    3.28    4.34   0
  -4  -1  24    0.38    3.52   0
  -4   1  24    2.35    4.17   0
  -4   1  24    3.89    4.17   0
  -4  -1  24    1.64    3.42   0
  -3   1  24  193.57    7.01   0
  -3  -1  24  182.56    5.45   0
  -3   1  24  186.06    5.33   0
  -3  -1  24  190.59    5.39   0
  -3   1  24  193.43    7.44   0
  -3  -1  24  191.50    5.38   0
  -2  -1  24  314.34    6.95   0
  -2   1  24  319.21    9.17   0
  -2   1  24  307.11    6.04   0
  -2  -1  24  309.88    6.44   0
  -2   1  24  304.84    8.88   0
  -1   1  24   27.49    5.58   0
  -1   1  24   24.38    5.39   0
  -1  -1  24   29.31    3.60   0
  -1   1  24   27.66    4.03   0
  -1  -1  24   30.95    3.75   0
   0  -1  24   28.76    4.15   0
   0   1  24   30.72    3.64   0
   0   1  24   29.25    5.48   0
   1  -1  24  214.28    6.03   0
   1   1  24  241.96    8.45   0
  -1   1 -24  237.99    5.91   0
   1   1  24  215.89    4.94   0
  -2  -1 -24    4.97    4.17   0
   2   1  24    3.58    4.79   0
  -2   1 -24    5.50    3.89   0
   2  -1  24    7.35    3.28   0
  -3  -1 -24    9.83    4.77   0
  -3   1 -24   10.58    4.01   0
   3   1  24   10.83    4.43   0
   3  -1  24    7.29    3.81   0
  -4   1 -24  108.73    5.05   0
   4   1  24  102.38    5.58   0
   4  -1  24  104.93    4.77   0
   5   1  24   35.19    4.48   0
   5  -1  24   39.68    3.88   0
  -5   1 -24   41.77    3.92   0
   6   1  24   -1.01    3.33   0
  -6  -1 -24    1.72    4.13   0
   6  -1  24    0.81    4.05   0
  -6   1 -24   -4.96    4.11   0
   7   1  24    2.84    4.29   0
  -7  -1 -24   -1.10    3.78   0
   7  -1  24    3.81    4.04   0
  -7   1 -24    4.63    3.60   0
   8   1  24    0.79    3.94   0
  -8  -1 -24    0.45    3.84   0
   8  -1  24   -2.27    3.75   0
  -8   1 -24    0.91    4.20   0
   9   1  24   13.81    4.19   0
  -9  -1 -24    4.86    4.72   0
   9  -1  24   15.42    4.38   0
  -9   1 -24   18.67    4.32   0
 -10   2  24   -1.59    4.62   0
 -10  -2  24   35.86    4.84   0
  -9  -2  24    1.94    4.29   0
  -9   2  24    2.72    4.41   0
   9  -2 -24    1.55    4.20   0
  -8  -2  24    4.31    3.86   0
  -8   2  24   -2.91    4.60   0
  -7  -2  24    3.58    3.89   0
  -7   2  24   -0.61    4.41   0
  -7  -2  24    3.76    4.50   0
  -6  -2  24   47.14    4.20   0
  -6  -2  24   50.11    4.24   0
  -6   2  24   45.21    4.95   0
  -5  -2  24    3.12    4.16   0
  -5   2  24   11.90    4.40   0
  -5   2  24   10.62    4.10   0
  -5  -2  24    7.24    4.73   0
  -5  -2  24   10.02    3.83   0
  -4  -2  24  192.67    5.38   0
  -4   2  24  191.61    7.62   0
  -4   2  24  202.04    7.64   0
  -4   2  24  182.12    5.61   0
  -4  -2  24  189.43    6.51   0
  -4  -2  24  208.61    5.50   0
  -3   2  24    1.89    4.95   0
  -3  -2  24    4.79    3.87   0
  -3   2  24    1.42    5.49   0
  -3   2  24    5.35    4.00   0
  -3  -2  24    1.58    3.96   0
  -2  -2  24   35.95    4.52   0
  -2   2  24   34.58    8.67   0
  -2   2  24   33.26    4.30   0
  -2   2  24   31.97    9.22   0
  -2  -2  24   31.64    3.84   0
  -1   2  24   82.64    4.30   0
  -1  -2  24   97.45    4.67   0
   0   2 -24   57.17    4.71   0
   0  -2  24   67.96    4.19   0
   0   2  24   61.45    3.85   0
   1  -2  24  179.38    5.03   0
  -1   2 -24  187.88    5.21   0
   1   2  24  170.61    4.52   0
   2  -2  24    4.29    3.26   0
   2   2  24    4.13    6.43   0
  -2  -2 -24    3.44    5.94   0
   2   2  24    5.78    2.83   0
  -2   2 -24    4.71    3.28   0
   3   2  24   75.70    6.43   0
  -3  -2 -24   82.44    6.16   0
  -3   2 -24   75.90    4.64   0
   3  -2  24   79.29    4.58   0
   4   2  24   43.93    5.15   0
  -4   2 -24   49.87    4.54   0
  -4  -2 -24   47.43    5.20   0
   4  -2  24   48.19    4.02   0
   5   2  24    0.85    4.46   0
  -5  -2 -24    0.10    4.31   0
   5  -2  24    2.06    3.41   0
  -5   2 -24   -1.04    3.47   0
   6   2  24   76.31    5.50   0
   6  -2  24   86.38    4.57   0
  -6   2 -24   82.58    4.45   0
   7   2  24    0.13    4.41   0
  -7  -2 -24   -0.73    4.44   0
   7  -2  24    2.50    3.58   0
  -7   2 -24    1.36    3.67   0
   8   2  24   21.74    5.61   0
  -8  -2 -24   30.22    4.58   0
   8  -2  24   26.62    4.42   0
  -8   2 -24   22.15    4.84   0
   9   2  24   -2.89    5.43   0
  -9  -2 -24   -1.06    5.16   0
   9  -2  24   -1.39    4.32   0
  -9   2 -24    0.81    4.25   0
 -10  -3  24    6.91    4.25   0
 -10  -3  24    2.79    4.28   0
 -10   3  24   -2.45    5.06   0
  -9  -3  24    2.40    4.47   0
  -9   3  24    0.81    4.68   0
   9  -3 -24   20.46    4.33   0
  -9  -3  24   13.98    4.54   0
  -8  -3  24   19.03    4.06   0
  -8  -3  24   20.59    4.33   0
  -8   3  24   13.03    5.03   0
  -7  -3  24   26.14    4.37   0
  -7  -3  24   30.81    4.47   0
  -7   3  24   26.90    4.81   0
   7  -3 -24   36.53    4.46   0
  -6  -3  24   -0.24    3.72   0
  -6  -3  24   -0.90    3.76   0
  -6   3  24    1.41    4.44   0
   6  -3 -24   -0.39    4.07   0
  -5  -3  24   32.80    3.92   0
  -5   3  24   24.98    4.81   0
  -5  -3  24   25.36    5.98   0
  -5   3  24   23.09    5.09   0
   5  -3 -24   22.73    4.12   0
  -5  -3  24   29.68    3.82   0
  -4   3  24   23.67    5.90   0
  -4   3  24   24.75    4.58   0
  -4  -3  24   26.32    4.65   0
  -4  -3  24   23.15    4.40   0
  -4  -3  24   26.10    3.89   0
  -4   3  24   22.70    6.29   0
  -3  -3  24    1.25    4.22   0
  -3   3  24    1.04    4.34   0
  -3  -3  24    0.21    3.79   0
  -2  -3  24   49.68    4.74   0
  -2   3  24   44.86    4.09   0
  -1   3  24   14.47    3.56   0
  -1  -3  24   16.98    3.74   0
   0  -3  24   64.44    4.71   0
   0   3 -24   66.22    4.72   0
   0   3  24   58.26    3.75   0
   1  -3  24   41.74    4.51   0
  -1   3 -24   34.81    3.98   0
   1   3  24   38.62    3.43   0
   2  -3  24  188.28    5.35   0
   2   3  24  191.09    4.55   0
  -2   3 -24  207.48    5.40   0
   3  -3  24   55.34    4.06   0
  -3   3 -24   59.62    4.19   0
   3   3  24   51.03    3.52   0
  -4   3 -24    0.86    3.93   0
  -4  -3 -24    4.76    5.37   0
   4  -3  24    6.16    3.58   0
   4   3  24    8.28    3.14   0
   4   3  24    5.44    5.82   0
  -5   3 -24   48.92    4.22   0
  -5  -3 -24   50.35    5.30   0
   5  -3  24   46.57    4.13   0
   5   3  24   45.32    3.90   0
   5   3  24   40.37    5.65   0
  -6  -3 -24   89.99    5.68   0
   6  -3  24   80.73    4.81   0
  -6   3 -24   91.31    4.81   0
   6   3  24   70.37    6.24   0
   7   3  24    0.59    5.11   0
   7  -3  24    3.98    3.77   0
  -7   3 -24    2.05    3.85   0
  -8  -3 -24    1.69    4.64   0
   8  -3  24    3.95    4.16   0
  -8   3 -24    2.77    4.29   0
   8   3  24    2.70    4.98   0
  -9  -3 -24    5.47    4.69   0
   9  -3  24    3.84    4.30   0
  -9   3 -24   -1.24    4.30   0
   9   3  24    1.53    5.08   0
  -9  -4  24    0.92    4.12   0
  -9  -4  24    0.80    4.27   0
   9  -4 -24   -0.51    4.34   0
   9  -4 -24    2.78    4.89   0
  -9   4  24    1.47    4.32   0
  -8   4  24    1.69    4.81   0
  -8  -4  24   -1.35    4.19   0
  -8  -4  24    1.01    4.28   0
  -7  -4  24   33.85    4.28   0
  -7   4  24   -5.12    5.00   0
  -7  -4  24   35.47    4.17   0
   7  -4 -24   41.05    4.75   0
  -6  -4  24    3.23    3.67   0
  -6   4  24    1.22    4.85   0
  -6  -4  24   -1.76    3.85   0
   6  -4 -24   -0.59    3.90   0
  -5   4  24    1.68    5.55   0
  -5  -4  24    0.82    6.88   0
  -5  -4  24    2.85    4.02   0
  -5  -4  24   -3.15    4.06   0
  -4   4  24    2.34    8.35   0
  -4   4  24    0.97    4.21   0
  -4  -4  24    0.47    3.84   0
  -4  -4  24    0.84    4.98   0
   4  -4 -24    4.62    3.93   0
  -4   4  24    1.95    8.81   0
  -3  -4  24   23.85    3.77   0
  -3   4  24   24.31    4.42   0
  -3  -4  24   22.37    4.46   0
  -2  -4  24    2.12    3.58   0
  -2   4  24    3.20    3.62   0
  -1   4  24  188.76    4.95   0
  -1  -4  24  219.22    5.34   0
   0  -4  24   82.16    4.28   0
   0   4 -24   81.35    4.47   0
   0   4  24   66.76    3.76   0
   1  -4  24   52.61    4.17   0
   1   4  24   36.88    3.57   0
  -1   4 -24   52.21    4.05   0
  -2   4 -24   66.68    4.18   0
   2  -4  24   72.84    4.19   0
   2   4  24   51.04    3.92   0
   3  -4  24    0.09    3.96   0
  -3   4 -24   -0.48    4.08   0
   3   4  24    3.49    3.47   0
  -4   4 -24   10.26    3.98   0
  -4  -4 -24    5.93    6.77   0
   4   4  24    7.12    3.40   0
   4  -4  24    7.67    3.88   0
  -5   4 -24    6.76    4.02   0
  -5  -4 -24    1.80    5.47   0
   5  -4  24    5.46    3.98   0
   5   4  24    5.22    3.41   0
  -6   4 -24    7.73    3.97   0
  -6  -4 -24    1.68    4.88   0
   6  -4  24   10.59    4.40   0
   6   4  24    8.78    3.77   0
  -7  -4 -24    7.12    4.74   0
   7  -4  24    0.04    3.99   0
   7   4  24    3.61    4.24   0
  -7   4 -24    6.23    4.01   0
   8  -4  24   27.25    4.44   0
  -8   4 -24   11.44    4.53   0
   8   4  24   23.63    4.83   0
  -8  -5  24   15.72    4.23   0
  -8   5  24   -1.22    5.62   0
  -8  -5  24    9.52    4.36   0
   8  -5 -24   14.67    5.85   0
  -7  -5  24   37.45    4.42   0
  -7  -5  24   30.32    4.42   0
  -7   5  24    4.75    5.28   0
   7  -5 -24   43.20    4.70   0
   7  -5 -24   27.52    5.43   0
  -6  -5  24    9.77    4.18   0
  -6   5  24    2.78    5.85   0
  -6  -5  24    8.71    3.85   0
  -5   5  24   10.79    6.15   0
  -5  -5  24   10.26    3.80   0
   5  -5 -24    9.32    3.93   0
  -5  -5  24    5.63    4.00   0
  -4  -5  24    1.06    3.53   0
  -4   5  24   -1.99    4.10   0
  -4  -5  24   -0.68    5.63   0
  -3  -5  24    2.10    3.61   0
  -3   5  24    3.14    3.95   0
  -2   5  24    9.97    3.90   0
  -2  -5  24   10.60    3.86   0
  -1   5  24    9.85    3.74   0
  -1  -5  24   14.00    3.78   0
   0  -5  24    2.76    3.70   0
   0   5 -24    4.89    3.65   0
   0   5  24    1.94    3.58   0
  -1   5 -24   17.77    3.91   0
   1  -5  24   22.79    4.14   0
   1   5  24   20.77    3.78   0
   2  -5  24   18.80    3.80   0
  -2   5 -24    5.04    3.66   0
   2   5  24    2.54    3.57   0
   3  -5  24   56.17    4.23   0
   3   5  24   63.28    4.09   0
  -3   5 -24   48.28    4.20   0
  -4   5 -24   -1.05    3.84   0
   4   5  24   -0.69    3.47   0
   4  -5  24   -2.57    3.58   0
  -5  -5 -24   -0.14    5.80   0
  -5   5 -24   -0.65    3.72   0
   5   5  24   -6.68    4.41   0
   5  -5  24    4.42    3.71   0
  -5  -5 -24   -2.13    6.18   0
  -6  -5 -24   -0.96    5.18   0
  -6   5 -24   -0.48    3.98   0
   6  -5  24   -1.43    4.02   0
   6   5  24    3.12    4.34   0
  -7  -5 -24    9.47    5.30   0
  -7   5 -24   11.73    4.31   0
   7  -5  24    8.77    4.12   0
   7   5  24    0.90    4.84   0
   8  -5  24   21.42    4.67   0
   8   5  24   10.59    4.87   0
  -7  -6  24    7.51    4.38   0
  -7   6  24    0.15    5.47   0
   7  -6 -24    2.17    5.53   0
  -7  -6  24    2.61    4.37   0
  -6   6  24   -0.79    6.44   0
  -6  -6  24    2.38    4.11   0
   6  -6 -24    0.35    4.20   0
   6  -6 -24   -1.26    6.74   0
  -6  -6  24   -1.95    4.27   0
  -5   6  24    5.10    8.25   0
  -5  -6  24    7.46    3.62   0
   5  -6 -24   16.09    4.46   0
  -5  -6  24    8.14    3.58   0
  -4  -6  24   48.41    4.08   0
  -4  -6  24   44.81    8.57   0
   4  -6 -24   56.63    4.80   0
  -3  -6  24   -0.47    3.97   0
  -3   6  24   -1.00    4.33   0
  -2   6  24   13.63    4.30   0
  -2  -6  24    9.13    3.77   0
  -1   6  24   16.11    4.00   0
  -1  -6  24   19.80    3.88   0
   0   6 -24   -1.80    3.71   0
   0  -6  24   -2.62    3.67   0
   0   6  24   -0.62    3.93   0
   1  -6  24    4.16    3.77   0
  -1   6 -24    4.71    3.71   0
   1   6  24    1.20    3.46   0
   2  -6  24   28.67    4.26   0
  -2   6 -24   35.56    4.00   0
   2   6  24   19.13    4.02   0
   3  -6  24    5.44    4.01   0
  -3   6 -24    6.53    4.05   0
   3   6  24    5.36    4.27   0
   4  -6  24   16.95    4.16   0
   4   6  24    7.57    4.57   0
  -4   6 -24   22.96    4.05   0
  -5  -6 -24    0.56    7.81   0
  -5   6 -24   -2.06    4.02   0
  -5  -6 -24   -0.54    7.49   0
   5   6  24    0.08    4.53   0
   5  -6  24    2.03    3.91   0
  -6  -6 -24    1.76    6.40   0
  -6   6 -24    3.05    4.16   0
   6   6  24    1.72    4.62   0
   6  -6  24   -0.22    4.15   0
  -6  -6 -24    2.68    6.56   0
  -6   7  24    7.19    8.06   0
  -6  -7  24   27.34    4.62   0
   6  -7 -24   26.89    4.98   0
  -6  -7  24   12.03    4.70   0
   6  -7 -24   16.06    8.51   0
  -5  -7  24    9.29    3.96   0
   5  -7 -24    3.97    4.70   0
  -5  -7  24    1.57    4.01   0
  -4  -7  24   36.73    4.03   0
   4  -7 -24   41.32    4.69   0
   3  -7 -24   -2.75    3.87   0
  -3  -7  24   -1.57    4.00   0
  -2   7  24    1.75    4.34   0
  -2  -7  24    3.39    3.86   0
  -1   7  24   -7.09    4.78   0
  -1  -7  24    3.51    3.47   0
   0  -7  24    1.47    4.04   0
   0   7  24    1.47    4.58   0
   1  -7  24    3.06    3.52   0
   1   7  24    2.32    4.44   0
  -1   7 -24    4.14    3.84   0
  -2   7 -24   -4.63    3.84   0
   2  -7  24    1.22    3.79   0
   2   7  24    3.89    4.43   0
   3  -7  24   47.25    4.38   0
  -3   7 -24   43.82    4.53   0
   3   7  24   50.68    5.01   0
   4  -7  24    3.51    3.86   0
  -4   7 -24    3.77    3.86   0
   4   7  24    4.46    4.73   0
   5   7  24   63.30    5.40   0
  -5   7 -24   72.64    4.59   0
   5  -7  24   59.56    4.96   0
  -3  -8  24    3.88    8.45   0
  -3  -8  24    6.94    4.47   0
   3  -8 -24    0.79    4.60   0
  -2  -8  24   40.33    4.51   0
  -1   8  24   -0.95    4.96   0
  -1  -8  24   -2.79    3.69   0
   0  -8  24   18.90    4.20   0
   0   8  24    7.21    4.99   0
   1  -8  24    5.58    4.33   0
   1   8  24    3.46    5.12   0
  -1   8 -24   10.81    4.25   0
   2  -8  24    0.01    4.14   0
  -2   8 -24    6.99    4.14   0
   2   8  24    3.22    5.05   0
  -3   8 -24    0.43    3.73   0
  -9   0  25    0.36    4.05   0
  -7   0  25  141.33    5.87   0
  -5   0  25   14.88    3.41   0
  -5   0  25   13.97    4.08   0
  -5   0  25   14.10    4.04   0
  -3   0  25  150.94    6.17   0
  -3   0  25  145.87    6.03   0
  -3   0  25  149.78    5.00   0
  -1   0  25   47.80    4.93   0
  -1   0  25   38.92    4.40   0
  -1   0 -25   13.19    4.61   0
   1   0  25   17.89    4.44   0
   3   0  25   12.02    3.69   0
   5   0  25   68.21    4.51   0
  -5   0 -25   71.78    4.44   0
   7   0  25    2.67    4.33   0
  -7   0 -25    1.24    4.25   0
   9   0  25    7.66    4.74   0
  -9   0 -25   11.54    4.25   0
 -10  -1  25    3.12    4.32   0
 -10   1  25   -1.19    4.92   0
  -9  -1  25   -1.00    4.00   0
  -9   1  25    3.64    4.83   0
  -8  -1  25   -1.26    3.79   0
  -8   1  25    2.54    4.04   0
  -7  -1  25   -1.56    4.25   0
  -7   1  25   -1.87    3.67   0
  -7  -1  25    0.00    3.81   0
  -6  -1  25   24.02    4.68   0
  -6  -1  25   26.57    4.40   0
  -6   1  25   26.30    4.06   0
  -6   1  25   22.71    5.04   0
  -6  -1  25   27.49    5.49   0
  -5  -1  25  132.57    5.40   0
  -5   1  25  130.11    5.99   0
  -5   1  25  139.80    5.55   0
  -5   1  25  132.92    5.47   0
  -5  -1  25  123.22    5.75   0
  -5  -1  25  123.34    5.36   0
  -4  -1  25   53.65    3.86   0
  -4  -1  25   50.73    3.82   0
  -4   1  25   52.22    5.18   0
  -4   1  25   52.36    5.12   0
  -4   1  25   58.84    5.21   0
  -4  -1  25   46.53    4.51   0
  -3   1  25    1.21    4.74   0
  -3   1  25    4.34    4.51   0
  -3  -1  25   -1.49    3.30   0
  -3   1  25    1.45    4.11   0
  -3  -1  25   -1.48    4.08   0
  -3  -1  25    1.71    3.99   0
  -2  -1  25  147.61    5.65   0
  -2   1  25  140.70    7.44   0
  -2   1  25  142.00    4.81   0
  -2   1  25  141.53    6.94   0
  -2  -1  25  143.29    4.81   0
  -1   1  25   59.08    6.09   0
  -1   1  25   57.38    5.66   0
  -1  -1  25   52.56    4.42   0
  -1   1  25   45.63    4.30   0
  -1  -1  25   52.54    4.19   0
   0  -1  25  205.30    5.92   0
   0   1  25  193.56    4.89   0
   0   1  25  210.76    8.52   0
   1  -1  25   66.69    4.70   0
  -1   1 -25   63.21    4.69   0
   1   1  25   71.40    6.41   0
   1   1  25   63.74    3.62   0
  -2   1 -25  215.36    5.98   0
   2   1  25  224.03    8.02   0
  -2  -1 -25  224.52    7.91   0
   2  -1  25  219.87    5.88   0
  -3  -1 -25   84.81    5.47   0
   3   1  25   84.50    5.78   0
  -3   1 -25   85.28    4.48   0
   3  -1  25   82.20    4.16   0
  -4   1 -25   38.64    4.28   0
   4   1  25   39.57    4.70   0
   4  -1  25   42.15    3.73   0
  -4  -1 -25   39.35    4.59   0
   5   1  25    9.50    3.87   0
   5  -1  25    9.58    4.08   0
  -5   1 -25    3.96    3.72   0
   6   1  25   -2.07    4.66   0
   6  -1  25    5.21    3.86   0
  -6  -1 -25    1.25    4.34   0
  -6   1 -25    7.73    4.58   0
   7   1  25    8.32    4.99   0
  -7  -1 -25    9.78    4.46   0
   7  -1  25   16.21    4.31   0
  -7   1 -25   10.01    3.81   0
   8   1  25    6.26    5.26   0
  -8  -1 -25    5.82    4.85   0
   8  -1  25    2.09    3.77   0
  -8   1 -25   11.63    4.25   0
   9   1  25    5.33    4.16   0
  -9  -1 -25    1.52    4.51   0
   9  -1  25   -1.83    4.60   0
  -9   1 -25    9.99    4.53   0
 -10  -2  25   -1.35    4.34   0
 -10   2  25    7.60    5.16   0
  -9  -2  25   -0.94    4.37   0
  -9   2  25   -1.54    5.47   0
  -8  -2  25    3.42    3.93   0
  -8   2  25    4.25    4.56   0
  -8  -2  25   11.30    3.97   0
  -7  -2  25    4.60    3.94   0
  -7  -2  25   11.18    3.81   0
  -7   2  25    3.44    4.53   0
  -6  -2  25    2.82    3.79   0
  -6  -2  25    4.73    4.02   0
  -6  -2  25    4.07    5.41   0
  -6   2  25    3.90    4.51   0
  -5  -2  25   57.24    4.18   0
  -5  -2  25   54.36    4.23   0
  -5   2  25   45.14    4.80   0
  -5   2  25   56.87    5.58   0
  -5  -2  25   54.33    5.49   0
  -4   2  25    0.12    4.66   0
  -4   2  25   -5.25    4.13   0
  -4  -2  25   -0.00    4.33   0
  -4   2  25   -0.58    4.79   0
  -4  -2  25   -0.56    4.15   0
  -4  -2  25   -0.96    3.64   0
  -3   2  25   77.41    7.05   0
  -3  -2  25   78.02    4.72   0
  -3   2  25   76.00    7.12   0
  -3   2  25   79.87    4.52   0
  -3  -2  25   75.89    4.26   0
  -2  -2  25   25.07    3.83   0
  -2   2  25   35.88    4.11   0
  -2  -2  25   30.87    3.80   0
  -1   2  25   11.03    3.74   0
  -1  -2  25   12.69    4.00   0
   0  -2  25    6.01    4.11   0
   0   2 -25    2.82    3.45   0
   0   2  25    2.38    3.28   0
  -1   2 -25   12.21    4.19   0
   1  -2  25   20.55    3.92   0
   1   2  25   12.55    3.09   0
   2  -2  25  173.98    5.33   0
  -2   2 -25  161.76    5.52   0
   2   2  25  167.34   11.68   0
   2   2  25  157.50    4.33   0
   3   2  25   13.92    5.81   0
  -3   2 -25   22.60    4.24   0
   3   2  25   19.09    3.31   0
   3  -2  25   17.02    4.12   0
   4   2  25   -0.56    4.80   0
  -4   2 -25    5.84    3.50   0
   4  -2  25    1.08    3.96   0
  -4  -2 -25    0.56    4.72   0
  -5   2 -25    2.36    3.68   0
   5   2  25   -1.77    4.44   0
  -5  -2 -25    1.37    4.17   0
   5  -2  25   -1.02    4.08   0
   6   2  25   20.82    4.53   0
   6  -2  25   25.62    4.00   0
  -6   2 -25   16.42    4.03   0
   7   2  25    1.83    4.38   0
   7  -2  25   -0.52    3.83   0
  -7   2 -25   -0.53    3.64   0
   8   2  25   24.66    5.06   0
  -8  -2 -25    0.27    5.52   0
   8  -2  25   21.81    4.43   0
  -8   2 -25   26.98    4.48   0
   9   2  25   -1.37    5.41   0
  -9  -2 -25    7.19    5.12   0
   9  -2  25    4.87    4.12   0
  -9   2 -25   10.95    4.74   0
  -9  -3  25    0.62    4.29   0
  -9  -3  25    3.42    4.40   0
  -9   3  25   -0.43    4.95   0
   9  -3 -25   -1.43    4.50   0
  -8  -3  25   28.03    4.72   0
  -8  -3  25    8.36    4.39   0
  -8   3  25   24.21    5.01   0
  -7  -3  25    4.37    3.95   0
  -7  -3  25    7.34    4.11   0
  -7   3  25    5.50    4.84   0
   7  -3 -25    4.25    4.28   0
  -6  -3  25    0.27    3.79   0
  -6  -3  25    2.23    4.57   0
  -6   3  25    1.07    4.48   0
   6  -3 -25    1.40    4.33   0
  -5  -3  25   81.68    4.43   0
  -5   3  25   75.74    5.30   0
  -5  -3  25   81.81    6.33   0
  -5   3  25   83.09    6.56   0
  -5  -3  25   83.30    4.47   0
  -4   3  25    1.63    6.02   0
  -4   3  25   -1.88    4.43   0
  -4  -3  25   -0.35    3.48   0
  -4  -3  25    1.12    4.62   0
  -4   3  25   -1.20    6.78   0
  -4  -3  25   -2.16    4.01   0
  -3  -3  25   22.02    3.89   0
  -3   3  25   20.86    3.78   0
  -3  -3  25   20.78    4.11   0
  -2  -3  25   46.98    4.16   0
  -2   3  25   54.48    4.28   0
  -1   3  25   -1.20    3.22   0
  -1  -3  25    1.18    3.80   0
   0   3 -25   33.78    4.59   0
   0  -3  25   38.79    4.00   0
   0   3  25   30.58    3.69   0
  -1   3 -25    7.09    4.33   0
   1  -3  25    2.31    3.88   0
   1   3  25   -0.98    3.07   0
   2  -3  25   21.40    3.91   0
  -2   3 -25   21.66    4.38   0
   2   3  25   23.41    3.07   0
  -3   3 -25  106.80    4.84   0
   3   3  25   93.48    4.08   0
   3  -3  25   99.69    4.45   0
  -4   3 -25    7.46    3.59   0
   4  -3  25   12.20    4.12   0
   4   3  25    8.15    3.47   0
  -4  -3 -25    6.82    5.51   0
  -5   3 -25    6.45    4.36   0
  -5  -3 -25    6.52    4.68   0
   5  -3  25    9.84    3.83   0
   5   3  25    3.83    3.39   0
   5   3  25    1.61    5.03   0
  -6   3 -25    9.59    4.00   0
  -6  -3 -25    4.40    4.63   0
   6  -3  25    5.74    4.49   0
   6   3  25    4.29    4.95   0
   7  -3  25    8.10    4.00   0
  -7   3 -25    2.89    4.56   0
   7   3  25    1.71    5.01   0
   8  -3  25   -0.39    4.74   0
  -8   3 -25    3.58    4.27   0
   8   3  25   -0.38    5.43   0
  -9  -3 -25   -0.84    4.47   0
   9  -3  25    2.72    4.15   0
  -9   3 -25   -0.22    4.15   0
  -9   4  25   -0.67    5.08   0
  -9  -4  25    3.87    4.18   0
  -9  -4  25    1.14    4.19   0
   9  -4 -25    0.21    4.49   0
  -8   4  25    6.02    5.17   0
  -8  -4  25   -1.74    4.76   0
  -8  -4  25   -3.51    4.24   0
  -7  -4  25   23.99    4.35   0
  -7   4  25    5.80    5.34   0
  -7  -4  25   21.61    4.27   0
   7  -4 -25   26.37    4.62   0
  -6  -4  25   26.54    4.22   0
  -6   4  25    3.16    5.84   0
  -6  -4  25   23.37    4.16   0
   6  -4 -25   24.41    4.38   0
  -5   4  25   22.22    6.27   0
  -5   4  25   22.55    4.95   0
  -5  -4  25   19.50    6.76   0
  -5  -4  25   26.47    4.26   0
   5  -4 -25   28.60    4.37   0
  -5  -4  25   26.08    4.42   0
  -4  -4  25   -0.94    3.96   0
  -4   4  25   -6.49    4.46   0
  -4  -4  25   -0.20    4.79   0
  -3  -4  25  197.50    5.26   0
  -3   4  25  182.69    5.46   0
  -3  -4  25  188.76    6.95   0
  -2   4  25   34.09    3.55   0
  -2  -4  25   44.17    3.98   0
  -1   4  25   -0.38    3.53   0
  -1  -4  25   -1.99    4.17   0
   0   4 -25    6.24    4.20   0
   0  -4  25    0.03    3.63   0
   0   4  25    1.80    3.48   0
  -1   4 -25   83.64    4.31   0
   1  -4  25   86.73    4.29   0
   1   4  25   75.50    4.17   0
   2  -4  25   21.07    3.92   0
  -2   4 -25   26.85    3.81   0
   2   4  25   25.87    3.45   0
   3  -4  25   10.43    3.55   0
   3   4  25   11.11    3.48   0
  -3   4 -25   10.25    3.89   0
  -4  -4 -25   21.31    9.43   0
  -4   4 -25   23.38    4.17   0
  -4  -4 -25   20.19    9.54   0
   4   4  25   21.28    3.58   0
   4  -4  25   28.62    4.14   0
  -5   4 -25   -0.30    4.37   0
  -5  -4 -25    1.47    5.42   0
   5  -4  25    1.71    3.92   0
   5   4  25    4.59    3.84   0
  -6   4 -25    0.97    4.04   0
  -6  -4 -25    0.38    4.78   0
   6  -4  25    3.57    3.90   0
   6   4  25    2.45    4.30   0
  -7   4 -25   -1.42    4.20   0
  -7  -4 -25    1.32    4.94   0
   7  -4  25    1.21    4.09   0
   7   4  25    2.88    3.77   0
   8  -4  25    6.14    4.29   0
   8   4  25    2.33    4.54   0
  -8   4 -25    1.89    4.24   0
  -8  -5  25   18.13    4.28   0
  -8   5  25    4.12    5.88   0
  -8  -5  25   20.19    4.46   0
   8  -5 -25   18.63    4.67   0
  -7  -5  25    3.66    4.21   0
  -7  -5  25    1.35    4.09   0
  -7   5  25   -0.61    5.27   0
  -6   5  25    8.16    5.83   0
  -6  -5  25    2.63    3.71   0
  -6  -5  25   16.86    4.35   0
  -5   5  25   25.13    8.49   0
  -5  -5  25   24.59    4.09   0
  -5  -5  25    0.23    4.13   0
  -4  -5  25   24.27    4.08   0
  -4   5  25   23.49    4.25   0
  -4  -5  25   26.61    6.12   0
  -3  -5  25   -0.87    4.11   0
  -3   5  25    1.17    3.73   0
  -2   5  25   59.02    4.21   0
  -2  -5  25   61.49    4.52   0
  -1   5  25   15.60    3.64   0
  -1  -5  25   15.48    4.02   0
   0   5 -25   -0.11    4.00   0
   0  -5  25    0.53    3.92   0
   0   5  25    3.18    3.41   0
  -1   5 -25   49.13    4.29   0
   1  -5  25   41.34    4.07   0
   1   5  25   43.00    3.98   0
   2  -5  25   -1.48    3.83   0
  -2   5 -25   -1.07    3.60   0
   2   5  25   -1.21    3.37   0
  -3   5 -25   14.64    3.86   0
   3  -5  25   12.26    3.78   0
   3   5  25    5.90    3.74   0
  -4   5 -25   -2.15    3.65   0
   4   5  25   -4.83    3.61   0
   4  -5  25    0.99    3.92   0
  -5  -5 -25    0.47    6.99   0
  -5  -5 -25    2.22    6.93   0
  -5   5 -25    5.16    3.99   0
   5   5  25    3.59    4.21   0
   5  -5  25   -1.86    3.98   0
  -6  -5 -25   34.12    6.88   0
  -6   5 -25   28.58    4.47   0
   6  -5  25   40.92    4.41   0
   6   5  25   29.17    4.66   0
  -7  -5 -25    1.55    5.03   0
  -7   5 -25    2.20    4.08   0
   7  -5  25   -2.29    4.06   0
   7   5  25    1.47    4.49   0
  -7  -6  25    1.96    4.47   0
   7  -6 -25    2.95    4.68   0
  -7  -6  25   -1.81    4.43   0
  -7   6  25    2.58    6.45   0
  -6   6  25    3.27    6.88   0
  -6  -6  25    1.56    4.39   0
  -6  -6  25    3.66    4.28   0
  -5  -6  25    5.26    4.26   0
   5  -6 -25    5.81    4.42   0
  -5  -6  25    8.60    4.18   0
  -4  -6  25    7.12    4.23   0
  -4  -6  25    5.84    6.85   0
   4  -6 -25    9.28    4.42   0
  -3  -6  25   64.85    4.54   0
  -3   6  25   53.44    5.00   0
  -2   6  25    7.50    3.74   0
  -2  -6  25    1.53    3.95   0
  -1   6  25   15.55    3.68   0
  -1  -6  25   16.69    3.86   0
   0   6 -25   11.25    3.93   0
   0  -6  25    6.88    3.80   0
   0   6  25    7.38    4.02   0
   1  -6  25    0.09    3.80   0
  -1   6 -25   -0.15    3.66   0
   1   6  25   -4.17    3.73   0
   2  -6  25    5.22    3.95   0
   2   6  25    1.93    4.16   0
  -2   6 -25    3.09    3.77   0
   3  -6  25    0.82    4.08   0
  -3   6 -25    0.77    3.91   0
   3   6  25   -0.32    4.11   0
   4   6  25    0.61    4.42   0
  -4   6 -25    4.91    4.03   0
   4  -6  25   -3.44    3.97   0
  -5   6 -25    5.54    4.06   0
   5   6  25    3.40    4.64   0
   5  -6  25    2.80    4.12   0
  -6  -6 -25    7.52    7.71   0
  -6  -6 -25    8.06    7.78   0
  -6   6 -25   21.48    4.46   0
   6   6  25    8.23    4.77   0
   6  -6  25   18.29    4.31   0
  -5  -7  25   25.86    4.73   0
   5  -7 -25   32.88    4.45   0
  -5  -7  25   17.97    4.54   0
  -4  -7  25    6.35    4.03   0
   4  -7 -25   10.21    4.39   0
  -3  -7  25    3.55    3.50   0
  -2   7  25   70.34    5.18   0
  -2  -7  25   84.64    4.56   0
  -1   7  25    1.40    4.45   0
  -1  -7  25   -0.61    3.77   0
   0  -7  25    2.24    3.87   0
   0   7  25   -0.47    4.45   0
  -1   7 -25   16.57    3.92   0
   1  -7  25    3.81    3.95   0
   1   7  25   11.70    4.64   0
  -2   7 -25   26.09    3.64   0
   2  -7  25   18.22    3.91   0
   2   7  25   26.05    4.53   0
   3  -7  25    3.13    3.94   0
  -3   7 -25    2.65    3.92   0
   3   7  25   -2.38    4.58   0
   4  -7  25    4.37    3.70   0
  -4   7 -25    3.39    4.26   0
   4   7  25    1.74    4.55   0
  -3  -8  25   -0.31    8.70   0
  -2  -8  25    1.06    4.34   0
  -1   8  25   -3.07    5.33   0
  -1  -8  25    6.22    4.15   0
   0  -8  25    1.57    4.22   0
   0   8  25    3.06    4.95   0
   1  -8  25    0.84    4.12   0
  -1   8 -25    1.01    4.30   0
   1   8  25    2.48    5.08   0
   2  -8  25    2.92    4.36   0
 -10   0  26   -4.11    5.14   0
  -8   0  26   56.52    5.47   0
  -6   0  26    3.58    3.84   0
  -6   0  26    3.38    4.00   0
  -6   0  26    1.20    4.29   0
  -4   0  26   34.47    4.32   0
  -4   0  26   38.14    4.51   0
  -4   0  26   32.52    4.17   0
  -2   0  26   71.29    5.01   0
  -2   0  26   88.50    5.61   0
  -2   0  26   80.08    5.50   0
   0   0  26  351.39    8.16   0
   0   0  26  390.79    6.26   0
  -2   0 -26   33.70    4.63   0
   2   0  26   30.99    4.52   0
   4   0  26  145.27    5.49   0
   6   0  26   11.56    4.23   0
  -6   0 -26   11.02    4.27   0
   8   0  26    1.15    4.72   0
  -8   0 -26   -3.59    4.05   0
 -10  -1  26    1.97    4.66   0
 -10   1  26   -0.79    5.19   0
  -9  -1  26   -1.06    4.34   0
  -9   1  26   -1.29    4.34   0
  -8  -1  26   14.34    3.93   0
  -8   1  26   -3.39    4.68   0
  -7  -1  26   49.24    4.43   0
  -7   1  26   45.81    4.86   0
  -7  -1  26   38.82    4.90   0
  -6  -1  26    2.83    4.24   0
  -6   1  26    4.52    3.61   0
  -6  -1  26   10.30    4.73   0
  -6   1  26    1.52    4.62   0
  -6  -1  26   15.77    5.54   0
  -5  -1  26  455.51    7.24   0
  -5   1  26  462.76    8.84   0
  -5   1  26  419.88    8.67   0
  -5  -1  26  433.88    7.46   0
  -5   1  26  441.04    7.88   0
  -5  -1  26  419.26    7.74   0
  -4  -1  26    2.41    3.95   0
  -4   1  26    3.27    4.35   0
  -4   1  26   12.02    4.32   0
  -4   1  26   11.88    4.29   0
  -4  -1  26   12.92    4.36   0
  -4  -1  26    9.00    4.08   0
  -3   1  26    0.03    4.58   0
  -3   1  26    0.14    4.72   0
  -3  -1  26    5.59    3.77   0
  -3   1  26    4.36    4.06   0
  -3  -1  26   -1.39    3.91   0
  -3  -1  26    3.07    3.27   0
  -2   1  26   14.20    5.49   0
  -2   1  26   14.84    4.89   0
  -2   1  26   14.33    3.77   0
  -2  -1  26   15.74    3.77   0
  -2  -1  26   11.97    4.16   0
  -1   1  26   24.79    5.46   0
  -1   1  26   23.71    5.36   0
  -1  -1  26   23.66    4.18   0
  -1   1  26   21.05    3.91   0
  -1  -1  26   20.25    3.84   0
   0  -1  26    1.45    3.77   0
   0   1  26   -0.50    3.84   0
   0   1  26    1.73    4.88   0
   1  -1  26   55.20    4.52   0
  -1   1 -26   50.75    4.59   0
   1   1  26   52.75    5.71   0
   1   1  26   54.76    3.90   0
  -2  -1 -26   31.67    5.33   0
  -2   1 -26   32.67    4.09   0
   2   1  26   29.90    5.30   0
   2  -1  26   30.67    4.00   0
   3   1  26   -1.11    4.43   0
  -3   1 -26   -1.04    2.99   0
  -3  -1 -26    0.37    4.75   0
   3  -1  26    0.05    3.47   0
  -4  -1 -26   -1.35    4.26   0
  -4   1 -26    0.88    3.34   0
   4   1  26   -0.37    4.36   0
   4  -1  26   -0.11    3.64   0
   5   1  26   -1.81    4.40   0
   5  -1  26    0.28    4.06   0
  -5   1 -26   -2.53    3.74   0
   6   1  26    2.94    4.33   0
   6  -1  26   -0.33    3.84   0
  -6   1 -26    2.11    4.27   0
   7   1  26   -0.37    4.07   0
   7  -1  26   -0.95    3.61   0
  -7  -1 -26    1.91    4.40   0
  -7   1 -26    0.32    3.56   0
   8   1  26    2.67    4.95   0
   8  -1  26    0.50    4.37   0
  -8  -1 -26    4.56    5.00   0
  -8   1 -26   -7.01    4.35   0
   9   1  26   10.30    5.75   0
   9  -1  26    3.00    5.23   0
  -9  -1 -26    4.51    4.64   0
  -9   1 -26   12.00    5.16   0
  -9  -2  26   38.45    4.68   0
  -9  -2  26   -4.11    4.59   0
  -9   2  26    1.42    5.77   0
  -8  -2  26   16.88    4.51   0
  -8  -2  26    7.55    4.08   0
  -8   2  26    8.34    4.24   0
  -7  -2  26    5.26    4.23   0
  -7  -2  26    6.52    3.83   0
  -7   2  26    6.22    4.66   0
  -6  -2  26   -0.51    3.89   0
  -6  -2  26   -1.32    5.58   0
  -6   2  26    2.74    4.48   0
  -6  -2  26    5.02    3.95   0
  -5  -2  26    1.30    3.66   0
  -5  -2  26    2.82    3.81   0
  -5   2  26    1.97    5.10   0
  -5  -2  26   -0.66    4.46   0
  -5   2  26    2.25    4.28   0
  -5   2  26    0.55    4.20   0
  -4   2  26    1.24    5.39   0
  -4   2  26    3.55    4.76   0
  -4   2  26    3.81    4.76   0
  -4  -2  26    1.54    4.39   0
  -4  -2  26    3.90    4.24   0
  -4  -2  26    4.50    3.73   0
  -3   2  26  115.69    8.21   0
  -3  -2  26  125.76    4.82   0
  -3   2  26  120.23    8.43   0
  -3   2  26  116.77    4.91   0
  -3  -2  26  113.94    5.03   0
  -2   2  26    5.67    4.02   0
  -2  -2  26    9.49    3.51   0
  -2  -2  26   10.07    3.47   0
  -1  -2  26   50.24    4.01   0
  -1   2  26   53.36    4.37   0
   0  -2  26    3.87    3.32   0
   0   2  26    5.07    3.18   0
   1  -2  26   71.22    4.38   0
  -1   2 -26   63.56    4.03   0
   1   2  26   57.22    3.83   0
   2  -2  26    3.51    3.90   0
   2   2  26    4.13    8.56   0
  -2   2 -26    5.74    3.47   0
   2   2  26    5.33    3.31   0
   3   2  26  165.93    8.84   0
  -3   2 -26  187.46    5.39   0
   3  -2  26  178.09    5.21   0
   3   2  26  166.30    4.48   0
  -4  -2 -26    7.41    4.55   0
   4   2  26    8.23    4.98   0
  -4   2 -26    7.20    3.72   0
   4  -2  26    9.69    3.62   0
  -5   2 -26   -1.54    3.84   0
   5   2  26    1.43    4.89   0
   5  -2  26    1.19    3.76   0
  -5  -2 -26   -0.90    4.33   0
   6   2  26    6.40    4.47   0
  -6  -2 -26    0.92    4.44   0
   6  -2  26    8.47    3.84   0
  -6   2 -26    7.09    3.82   0
   7   2  26   -1.85    4.56   0
   7  -2  26    0.54    3.77   0
  -7   2 -26    3.86    3.91   0
   8   2  26    1.65    5.36   0
  -8  -2 -26   -0.86    4.81   0
   8  -2  26    0.97    4.58   0
  -8   2 -26   -0.10    4.15   0
  -9  -2 -26   34.07    5.16   0
   9  -2  26   21.67    4.69   0
  -9   2 -26   25.09    4.73   0
  -9  -3  26   -2.39    4.53   0
  -9  -3  26    5.97    4.55   0
  -9   3  26   -2.01    5.00   0
  -8  -3  26   53.90    5.48   0
  -8  -3  26   54.31    5.39   0
  -8   3  26   30.14    5.94   0
  -7  -3  26   -2.72    4.00   0
  -7   3  26   -0.78    4.44   0
   7  -3 -26    1.82    4.22   0
  -7  -3  26    1.03    4.39   0
  -6  -3  26    8.31    3.99   0
  -6  -3  26    4.85    4.00   0
  -6   3  26    8.23    4.94   0
  -5  -3  26    4.87    4.55   0
  -5   3  26   18.78    4.96   0
  -5  -3  26    4.34    4.87   0
  -5   3  26    2.01    5.72   0
  -5   3  26    1.54    5.46   0
  -5  -3  26    0.89    3.90   0
  -4   3  26   12.05    7.28   0
  -4   3  26   18.66    4.63   0
  -4  -3  26   16.05    3.81   0
  -4  -3  26   12.63    4.86   0
  -4  -3  26    4.32    3.84   0
  -4   3  26   10.27    7.28   0
  -3  -3  26   10.99    3.66   0
  -3   3  26    6.79    4.24   0
  -3  -3  26    8.87    4.24   0
  -2   3  26   31.96    4.04   0
  -2  -3  26   29.22    3.82   0
  -1   3  26    5.67    3.21   0
  -1  -3  26    1.97    4.01   0
   0  -3  26   65.64    4.30   0
   0   3 -26   61.38    4.21   0
   0   3  26   52.69    3.93   0
  -1   3 -26  160.17    5.54   0
   1  -3  26  162.27    5.05   0
   1   3  26  141.02    4.75   0
   2  -3  26    8.41    4.08   0
  -2   3 -26    8.88    3.60   0
   2   3  26    7.61    3.35   0
  -3   3 -26    2.40    3.61   0
   3   3  26   -2.35    3.72   0
   3  -3  26    3.23    3.94   0
  -4  -3 -26    0.28    6.10   0
  -4   3 -26   -0.75    4.17   0
   4  -3  26   -1.90    3.65   0
   4   3  26    5.68    3.33   0
  -5   3 -26    4.95    3.89   0
  -5  -3 -26   13.15    5.48   0
   5  -3  26   11.99    3.93   0
   5   3  26   13.06    3.47   0
   5   3  26    4.61    6.01   0
  -6   3 -26    4.26    3.86   0
  -6  -3 -26    2.76    4.77   0
   6  -3  26    6.46    3.86   0
   6   3  26    3.30    3.55   0
   6   3  26    1.76    5.36   0
  -7  -3 -26   23.13    5.52   0
   7  -3  26   26.24    4.51   0
  -7   3 -26   28.13    4.55   0
   7   3  26   19.30    5.89   0
   8  -3  26    5.25    4.35   0
  -8   3 -26   15.37    4.47   0
   8   3  26    6.10    5.18   0
  -8   4  26   -2.17    5.33   0
  -8  -4  26   -3.36    4.36   0
  -8  -4  26    4.47    4.55   0
  -7  -4  26    2.27    4.01   0
  -7   4  26   -0.64    4.63   0
  -7  -4  26   -3.84    4.13   0
   7  -4 -26   -1.80    4.37   0
  -6  -4  26   53.19    4.88   0
  -6  -4  26   60.66    4.82   0
  -6   4  26   44.32    6.96   0
   6  -4 -26   60.08    4.82   0
  -5   4  26    9.35    7.41   0
  -5   4  26   12.77    6.56   0
  -5   4  26    0.92    4.67   0
  -5  -4  26   16.39    6.59   0
  -5  -4  26   16.16    4.49   0
  -5  -4  26   16.21    4.29   0
  -4  -4  26   14.41    4.17   0
  -4   4  26   12.11    4.53   0
  -4  -4  26   11.58    4.73   0
  -3  -4  26   48.03    4.32   0
  -3   4  26   48.41    4.28   0
  -3  -4  26   44.92    5.03   0
  -2   4  26    5.36    3.79   0
  -2  -4  26    2.05    3.62   0
  -1   4  26    7.21    3.32   0
  -1  -4  26    9.37    4.00   0
   0   4 -26   96.92    4.65   0
   0  -4  26  104.32    4.51   0
   0   4  26   88.12    4.33   0
  -1   4 -26   20.14    3.78   0
   1  -4  26   16.24    3.72   0
   1   4  26   21.08    3.75   0
   2  -4  26   81.60    4.41   0
  -2   4 -26   75.17    4.40   0
   2   4  26   76.20    4.16   0
   3  -4  26    1.39    3.75   0
   3   4  26    5.77    3.64   0
  -3   4 -26    2.80    4.10   0
  -4   4 -26    4.64    4.00   0
   4   4  26    7.24    3.54   0
   4  -4  26   13.79    4.00   0
  -5   4 -26   51.00    4.49   0
  -5  -4 -26   47.81    7.23   0
   5  -4  26   59.85    4.24   0
   5   4  26   51.50    4.11   0
  -6   4 -26   -0.89    4.22   0
  -6  -4 -26   -0.10    4.84   0
   6  -4  26    1.55    4.06   0
   6   4  26   -0.76    3.55   0
  -7   4 -26    1.13    4.34   0
  -7  -4 -26    2.35    4.73   0
   7  -4  26   -0.76    4.15   0
   7   4  26   -3.15    4.26   0
  -8  -4 -26   20.67    5.59   0
   8  -4  26   15.65    4.29   0
   8   4  26   11.04    4.72   0
  -8   4 -26   27.10    4.40   0
  -8  -5  26   -2.28    4.31   0
  -8  -5  26    2.73    4.32   0
  -8   5  26    1.67    5.77   0
   8  -5 -26    1.83    4.44   0
  -7  -5  26    7.56    4.87   0
  -7  -5  26   59.75    4.92   0
  -7   5  26    8.50    6.81   0
  -6   5  26    1.09    6.58   0
  -6  -5  26   -5.35    4.25   0
  -6  -5  26    4.08    4.25   0
  -5  -5  26   25.47    3.77   0
  -5  -5  26   25.12   10.23   0
  -5  -5  26   -6.14    4.37   0
  -4  -5  26    7.11    4.05   0
  -4   5  26    3.68    4.23   0
  -4  -5  26    5.49    5.53   0
  -3  -5  26   18.35    3.98   0
  -3   5  26   15.69    4.25   0
  -3  -5  26   14.33    4.96   0
  -2   5  26    9.86    3.86   0
  -2  -5  26    6.03    4.02   0
  -1   5  26   -2.43    3.55   0
  -1  -5  26    2.85    4.06   0
   0  -5  26    5.89    4.07   0
   0   5 -26   11.40    4.03   0
   0   5  26    2.46    3.35   0
   1  -5  26   82.41    4.65   0
  -1   5 -26   89.45    4.58   0
   1   5  26   72.02    4.31   0
   2  -5  26    1.47    3.90   0
  -2   5 -26   -0.55    3.91   0
   2   5  26    0.50    3.72   0
   3  -5  26   46.39    4.20   0
  -3   5 -26   51.01    4.20   0
   3   5  26   38.10    3.83   0
   4   5  26   -4.67    4.13   0
  -4   5 -26    3.04    3.86   0
   4  -5  26    2.86    3.77   0
  -5  -5 -26    2.97    9.43   0
  -5   5 -26    7.65    4.11   0
   5   5  26    3.67    4.29   0
  -5  -5 -26    4.38    9.17   0
   5  -5  26   11.11    4.01   0
  -6  -5 -26   -0.68    6.62   0
  -6   5 -26    2.34    4.18   0
   6  -5  26   -1.04    4.21   0
   6   5  26   -0.16    4.41   0
  -7  -5 -26    6.52    5.77   0
  -7   5 -26    6.08    4.24   0
   7  -5  26    9.27    4.26   0
   7   5  26    5.06    4.50   0
  -6  -6  26   19.99    4.20   0
  -6   6  26   18.23    8.96   0
  -6  -6  26    8.73    4.38   0
  -5  -6  26   -0.11    4.28   0
   5  -6 -26    0.69    4.63   0
  -5  -6  26    0.91    4.29   0
  -4  -6  26   -2.99    4.28   0
  -4  -6  26    0.14    7.51   0
  -3   6  26    9.92    4.60   0
  -3  -6  26   20.70    4.39   0
  -2   6  26    5.67    4.06   0
  -2  -6  26    8.51    3.58   0
  -1   6  26   -6.88    3.90   0
  -1  -6  26    0.25    3.80   0
   0  -6  26   -3.83    3.77   0
   0   6  26   -0.76    4.23   0
   1  -6  26   40.05    4.27   0
   1   6  26   27.40    4.49   0
  -1   6 -26   37.73    4.39   0
   2  -6  26   34.70    4.27   0
   2   6  26   30.22    4.51   0
  -2   6 -26   31.96    4.39   0
   3  -6  26   -1.46    4.10   0
  -3   6 -26   -1.20    4.08   0
   3   6  26    2.66    4.12   0
  -4   6 -26    3.88    4.06   0
   4   6  26   -0.68    4.37   0
   4  -6  26    5.62    4.21   0
   5   6  26    2.75    4.36   0
  -5   6 -26    6.72    4.04   0
   5  -6  26   -3.20    4.02   0
  -6  -6 -26    0.58    8.02   0
  -6  -6 -26    2.51    8.29   0
   6  -6  26    8.29    4.56   0
  -5  -7  26    1.25    4.43   0
   5  -7 -26    4.29    4.72   0
  -5  -7  26    3.51    4.38   0
  -4  -7  26   -2.14    4.35   0
   4  -7 -26   -1.92    4.01   0
  -3  -7  26    5.36    4.39   0
  -2   7  26    0.26    4.18   0
  -2  -7  26   -0.10    3.68   0
  -1   7  26    0.19    4.42   0
  -1  -7  26   -2.64    4.11   0
   0  -7  26    4.80    4.05   0
   0   7  26    8.16    4.69   0
   1  -7  26   40.01    4.46   0
   1   7  26   38.58    4.92   0
  -1   7 -26   37.20    4.62   0
   2  -7  26    1.49    4.38   0
  -2   7 -26   13.07    4.33   0
   2   7  26    4.62    4.64   0
   3  -7  26   -2.73    4.16   0
  -3   7 -26   -2.19    4.23   0
   3   7  26   -1.32    4.75   0
  -4   7 -26    6.91    4.49   0
   4   7  26    3.03    4.80   0
   4  -7  26    1.22    4.55   0
  -9   0  27    6.44    5.02   0
  -7   0  27   -0.07    4.06   0
  -7   0  27    0.71    4.09   0
  -5   0  27  211.12    6.45   0
  -5   0  27  209.49    6.12   0
  -5   0  27  196.03    6.26   0
  -3   0  27    0.75    3.78   0
  -3   0  27    1.23    4.34   0
  -3   0  27    1.67    3.80   0
  -1   0  27  207.61    6.89   0
  -1   0  27  210.59    5.34   0
   1   0  27  410.86    8.66   0
   3   0  27   10.87    3.99   0
   5   0  27    5.69    4.24   0
  -5   0 -27    8.06    4.06   0
   7   0  27    2.71    4.43   0
  -7   0 -27    3.20    4.31   0
   9   0  27   29.89    5.35   0
  -9   0 -27   14.05    4.83   0
  -9  -1  27   -1.15    4.79   0
  -9   1  27   -4.47    4.73   0
  -8  -1  27   18.90    4.75   0
  -8   1  27    1.72    5.51   0
  -8  -1  27   17.04    4.24   0
  -7  -1  27   -3.63    4.41   0
  -7  -1  27    4.24    3.65   0
  -7   1  27   -0.08    4.78   0
  -6  -1  27    9.51    4.91   0
  -6  -1  27    3.19    3.98   0
  -6   1  27    4.25    4.49   0
  -6   1  27    5.67    5.46   0
  -6  -1  27    8.74    5.26   0
  -6   1  27    4.56    4.44   0
  -5  -1  27    1.51    4.03   0
  -5  -1  27   -0.21    3.75   0
  -5   1  27    0.24    4.56   0
  -5   1  27    1.31    4.42   0
  -5  -1  27   -4.09    4.30   0
  -5   1  27    0.81    4.72   0
  -4  -1  27   13.21    3.48   0
  -4   1  27   15.13    5.10   0
  -4   1  27    9.66    4.10   0
  -4  -1  27    8.65    4.25   0
  -4  -1  27   11.33    3.83   0
  -4   1  27    2.38    5.21   0
  -3   1  27   14.91    4.86   0
  -3   1  27   13.66    5.26   0
  -3  -1  27   13.02    3.99   0
  -3   1  27   12.78    3.88   0
  -3  -1  27   12.83    3.74   0
  -3  -1  27   16.09    3.85   0
  -2   1  27  108.28    7.29   0
  -2   1  27   99.62    6.71   0
  -2   1  27   94.33    4.88   0
  -2  -1  27  109.78    4.73   0
  -2  -1  27  111.77    5.13   0
  -1   1  27  100.05    7.38   0
  -1   1  27  101.65    7.29   0
  -1  -1  27   89.48    4.83   0
  -1   1  27   83.34    4.34   0
  -1  -1  27   93.15    5.02   0
   0  -1  27   16.91    4.00   0
   0   1  27   15.84    5.75   0
   0   1  27   21.31    4.17   0
   0   1  27   20.53    6.18   0
   1  -1  27    2.15    3.72   0
   1   1  27    2.41    5.28   0
   1   1  27    0.65    3.50   0
  -2   1 -27   57.12    4.28   0
   2   1  27   60.73    6.21   0
  -2  -1 -27   58.74    5.96   0
   2  -1  27   60.62    4.46   0
   3   1  27   24.88    4.86   0
  -3   1 -27   19.17    3.62   0
   3  -1  27   19.01    3.92   0
  -3  -1 -27   18.19    5.28   0
  -4  -1 -27   16.16    4.46   0
  -4   1 -27   13.26    3.52   0
   4   1  27   14.27    5.00   0
   4  -1  27   16.79    4.12   0
  -5   1 -27    9.69    4.42   0
   5   1  27    6.75    4.21   0
   5  -1  27    9.23    3.89   0
   6   1  27    6.13    4.34   0
   6  -1  27    7.72    4.74   0
  -6   1 -27   -0.25    4.34   0
   7   1  27   -0.57    4.51   0
   7  -1  27   -1.50    4.45   0
  -7  -1 -27    3.71    4.41   0
  -7   1 -27    0.98    3.92   0
   8   1  27   36.67    5.61   0
   8  -1  27   32.94    4.40   0
  -8  -1 -27   31.30    5.07   0
  -8   1 -27   41.58    4.85   0
  -9  -1 -27   -1.70    4.30   0
  -9  -2  27   16.52    4.40   0
  -9  -2  27   -2.28    4.46   0
  -9   2  27    0.51    5.44   0
  -8  -2  27    1.61    4.40   0
  -8   2  27    4.74    5.09   0
  -8  -2  27   -1.96    4.01   0
  -7  -2  27    3.31    4.00   0
  -7  -2  27   -0.87    3.79   0
  -7   2  27    4.40    4.34   0
  -6  -2  27   35.12    4.08   0
  -6   2  27   33.35    4.93   0
  -6  -2  27   38.17    4.21   0
  -6  -2  27   36.96    6.07   0
  -6   2  27    4.24    5.24   0
  -5  -2  27    1.02    4.40   0
  -5  -2  27    4.91    4.40   0
  -5   2  27    1.13    4.79   0
  -5   2  27    5.96    4.64   0
  -5   2  27    2.03    4.84   0
  -5  -2  27   -1.69    5.07   0
  -4   2  27   -0.20    5.53   0
  -4   2  27    1.12    4.15   0
  -4  -2  27    1.61    4.22   0
  -4  -2  27    2.44    4.18   0
  -4   2  27    1.67    5.86   0
  -4  -2  27   -0.32    3.68   0
  -3  -2  27   48.58    4.02   0
  -3   2  27   44.38    7.84   0
  -3   2  27   44.30    4.52   0
  -3  -2  27   46.62    3.95   0
  -3   2  27   47.51    7.46   0
  -3  -2  27   54.90    4.51   0
  -2   2  27   38.92    4.33   0
  -2  -2  27   37.57    3.85   0
  -2  -2  27   40.11    4.32   0
  -1  -2  27   25.22    4.04   0
  -1   2  27   23.12    4.07   0
   0  -2  27   59.08    3.93   0
   0   2  27   61.30    4.10   0
   1  -2  27   21.69    3.95   0
  -1   2 -27   17.71    3.98   0
   1   2  27   16.19    3.40   0
   2  -2  27    9.37    3.92   0
  -2   2 -27    6.91    3.60   0
   2   2  27   11.65    3.04   0
   3   2  27   15.32    6.42   0
  -3  -2 -27   18.39    6.32   0
  -3   2 -27   18.19    3.84   0
   3  -2  27   15.86    3.71   0
   3   2  27   20.09    3.48   0
   4   2  27    1.46    5.12   0
  -4  -2 -27   -0.46    4.82   0
  -4   2 -27    3.76    3.55   0
   4  -2  27    5.33    4.04   0
   5   2  27    4.54    4.96   0
  -5   2 -27    5.24    3.95   0
   5  -2  27    8.39    4.38   0
  -5  -2 -27    3.17    4.79   0
  -6   2 -27   19.25    4.38   0
   6   2  27   17.91    5.01   0
   6  -2  27   13.94    3.90   0
  -6  -2 -27    6.69    4.68   0
   7   2  27    2.82    5.36   0
   7  -2  27    3.09    3.69   0
  -7   2 -27   -0.43    3.62   0
   8   2  27   -0.80    4.94   0
  -8  -2 -27    4.23    4.06   0
   8  -2  27    1.91    4.58   0
  -8   2 -27    4.64    4.39   0
  -9  -3  27    2.09    4.30   0
  -9  -3  27   -0.30    4.25   0
  -9   3  27    0.85    5.04   0
  -8  -3  27    2.75    4.46   0
  -8  -3  27    7.23    4.39   0
  -8   3  27   -0.12    5.02   0
  -7  -3  27    1.31    4.13   0
  -7  -3  27    2.23    4.12   0
  -7   3  27   -1.86    4.46   0
  -6  -3  27    3.76    3.93   0
  -6  -3  27    3.78    3.87   0
  -6   3  27    0.18    4.93   0
  -5   3  27    0.19    5.52   0
  -5   3  27   -1.74    4.92   0
  -5  -3  27    1.87    5.56   0
  -5  -3  27   -0.68    3.95   0
  -5   3  27   -0.62    5.55   0
  -5  -3  27    0.36    3.71   0
  -4   3  27  148.77   12.10   0
  -4   3  27  153.06   12.20   0
  -4  -3  27  165.75    5.74   0
  -4   3  27  160.31    6.06   0
  -4  -3  27  153.24    6.80   0
  -4  -3  27  -18.33    6.31   0
  -3  -3  27   30.79    3.91   0
  -3   3  27   30.78    4.55   0
  -3  -3  27   36.31    4.52   0
  -2   3  27   -1.81    3.77   0
  -2  -3  27    2.47    3.85   0
  -2  -3  27   -1.02    3.55   0
  -1  -3  27   42.60    3.95   0
  -1   3  27   28.93    3.91   0
   0  -3  27    6.99    3.63   0
   0   3  27   -1.36    3.33   0
   1  -3  27  118.83    5.10   0
  -1   3 -27  126.79    4.83   0
   1   3  27  115.77    4.44   0
   2  -3  27    3.35    3.91   0
  -2   3 -27    4.42    4.04   0
   2   3  27   -3.02    3.35   0
   3   3  27    1.26    3.40   0
  -3   3 -27    1.95    4.24   0
   3  -3  27    1.25    3.60   0
  -4   3 -27   16.31    3.82   0
  -4  -3 -27   17.14    6.90   0
   4  -3  27   20.15    3.86   0
   4   3  27    8.16    3.60   0
  -5   3 -27   36.37    4.51   0
   5  -3  27   22.34    4.30   0
  -5  -3 -27   22.12    6.09   0
   5   3  27   15.10    3.84   0
   5   3  27   23.31    6.78   0
  -6   3 -27    2.97    3.93   0
  -6  -3 -27    3.18    4.93   0
   6  -3  27    5.18    3.91   0
   6   3  27    3.19    3.97   0
   6   3  27    0.86    5.26   0
  -7   3 -27   18.22    4.80   0
  -7  -3 -27   16.69    5.04   0
   7  -3  27   12.03    4.46   0
   7   3  27   14.22    5.50   0
   8  -3  27   24.55    4.37   0
  -8   3 -27   11.00    4.54   0
   8   3  27    5.13    6.02   0
  -8   4  27   -0.44    5.16   0
  -8  -4  27   -0.99    4.34   0
  -8  -4  27    0.24    4.41   0
  -7  -4  27   23.53    4.83   0
  -7   4  27   44.99    6.00   0
  -7  -4  27   40.44    5.33   0
  -6  -4  27    8.27    4.17   0
  -6   4  27   10.42    5.85   0
  -6  -4  27    6.54    4.55   0
  -5   4  27    2.36    8.66   0
  -5   4  27    1.59    4.43   0
  -5  -4  27    1.52    6.31   0
  -5   4  27    3.59    8.14   0
  -5  -4  27   10.26    4.25   0
  -5  -4  27    2.26    4.07   0
  -4  -4  27    5.77    4.21   0
  -4   4  27   -4.08    4.61   0
  -4  -4  27    1.77    5.24   0
  -3  -4  27    5.63    4.00   0
  -3   4  27    9.99    3.94   0
  -3  -4  27    2.33    4.31   0
  -2   4  27    4.64    3.71   0
  -2  -4  27    7.46    3.93   0
  -1  -4  27   18.81    3.93   0
  -1   4  27   11.07    3.78   0
   0  -4  27    7.29    3.83   0
   0   4 -27    8.91    3.77   0
   0   4  27    1.52    3.72   0
   1  -4  27    1.94    3.68   0
  -1   4 -27    2.30    3.88   0
   1   4  27    1.45    3.49   0
   2  -4  27   13.02    3.89   0
  -2   4 -27   14.32    4.53   0
   2   4  27   24.32    3.84   0
  -3   4 -27   27.29    4.31   0
   3  -4  27   23.10    3.95   0
   3   4  27   21.90    3.80   0
  -4   4 -27    4.58    4.41   0
   4   4  27    0.74    3.80   0
   4  -4  27    3.75    4.37   0
  -5   4 -27    1.26    4.44   0
   5  -4  27    1.71    3.87   0
   5   4  27   -2.42    4.10   0
  -5  -4 -27    0.05    6.51   0
  -6   4 -27    0.99    4.31   0
  -6  -4 -27    1.89    5.78   0
   6  -4  27    5.57    4.33   0
   6   4  27   -1.53    4.18   0
  -7   4 -27   14.93    4.38   0
  -7  -4 -27    3.64    5.29   0
   7  -4  27   15.72    4.42   0
   7   4  27    7.49    4.28   0
  -7  -5  27    0.84    3.75   0
  -7   5  27   -1.31    6.53   0
  -7  -5  27    2.44    4.39   0
  -6  -5  27   14.25    4.55   0
   6  -5 -27    7.37    4.40   0
  -6   5  27   12.63    8.26   0
  -6  -5  27    1.07    4.56   0
  -5  -5  27    3.31    4.06   0
  -5  -5  27    0.46    8.97   0
  -5  -5  27    0.61    4.04   0
  -4  -5  27    4.65    4.20   0
  -4   5  27    5.84    4.20   0
  -4  -5  27    0.93    5.56   0
  -3  -5  27   -0.89    3.79   0
  -3   5  27    7.66    4.10   0
  -3  -5  27    0.67    5.08   0
  -2   5  27    1.96    3.62   0
  -2  -5  27    1.75    3.99   0
  -1   5  27   27.80    4.10   0
  -1  -5  27   29.25    4.34   0
   0  -5  27    6.11    4.08   0
   0   5  27    4.94    3.70   0
   1  -5  27   39.02    4.35   0
  -1   5 -27   39.40    4.26   0
   1   5  27   40.57    4.16   0
   2  -5  27    5.55    4.02   0
   2   5  27    1.34    3.99   0
  -2   5 -27   11.45    3.91   0
   3  -5  27   27.99    4.69   0
  -3   5 -27   30.99    4.62   0
   3   5  27   11.87    3.92   0
   4   5  27    0.95    4.00   0
  -4   5 -27   -0.40    3.91   0
   4  -5  27    0.06    3.93   0
  -5   5 -27    2.71    4.08   0
   5   5  27    3.57    4.33   0
   5  -5  27   -0.03    4.11   0
  -6   5 -27    1.46    4.19   0
  -6  -5 -27   -0.81    7.28   0
   6  -5  27    3.90    4.14   0
   6   5  27   -0.88    4.40   0
  -6  -5 -27    1.52    7.85   0
  -6  -6  27    6.13    4.37   0
   6  -6 -27    8.44    4.95   0
  -6  -6  27    7.03    4.44   0
  -5  -6  27   14.15    4.36   0
   5  -6 -27   10.45    4.36   0
  -5  -6  27   -0.59    4.42   0
  -4  -6  27   23.65    4.32   0
  -4  -6  27   20.68    7.81   0
  -3   6  27   -2.07    4.53   0
  -3  -6  27    0.34    5.13   0
  -3  -6  27    0.82    4.28   0
  -2   6  27    3.11    4.21   0
  -2  -6  27    1.29    3.63   0
  -1   6  27   -3.50    4.03   0
  -1  -6  27    7.48    4.03   0
   0  -6  27    4.65    4.19   0
   0   6  27   14.55    4.17   0
  -1   6 -27    5.46    4.13   0
   1  -6  27    5.23    4.13   0
   1   6  27    0.06    4.66   0
  -2   6 -27   12.60    4.01   0
   2  -6  27   11.32    4.24   0
   2   6  27   13.62    4.50   0
   3  -6  27    3.42    4.14   0
  -3   6 -27    0.65    4.04   0
   3   6  27    4.21    4.31   0
  -4   6 -27   -0.29    4.17   0
   4   6  27   10.53    4.75   0
   4  -6  27    5.46    4.21   0
   5   6  27    3.92    4.82   0
  -5   6 -27   20.40    4.27   0
   5  -6  27   13.49    4.33   0
  -4  -7  27   21.66    4.67   0
  -4  -7  27   18.28   11.53   0
  -3  -7  27    3.72    4.41   0
  -2   7  27   -0.80    4.47   0
  -2  -7  27    2.20    4.34   0
  -1   7  27   13.34    4.75   0
  -1  -7  27    4.05    4.14   0
   0  -7  27   35.28    4.28   0
   0   7  27   13.28    4.62   0
   1  -7  27   21.13    3.82   0
   1   7  27    8.10    4.53   0
  -1   7 -27   20.60    4.27   0
   2  -7  27   -3.74    4.35   0
  -2   7 -27    4.03    4.26   0
   2   7  27    1.85    4.08   0
   3  -7  27    1.98    4.41   0
   3   7  27   -2.80    4.92   0
  -3   7 -27    7.34    4.46   0
  -8   0  28    2.50    4.59   0
  -8   0  28   -3.14    4.48   0
  -6   0  28   47.43    5.09   0
  -6   0  28   55.54    4.49   0
  -6   0  28   51.74    5.08   0
  -4   0  28   99.81    5.51   0
  -4   0  28  108.89    5.47   0
  -4   0  28   99.38    5.45   0
  -2   0  28   57.15    5.06   0
  -2   0  28   57.98    5.01   0
  -2   0  28   56.34    4.26   0
   0   0  28   21.31    4.64   0
   0   0  28   22.98    3.88   0
  -2   0 -28   62.88    5.20   0
   2   0  28   73.80    5.26   0
   4   0  28   19.27    4.47   0
   6   0  28    4.56    4.46   0
  -6   0 -28    0.36    3.84   0
   8   0  28    4.73    5.05   0
  -8   0 -28    0.38    4.76   0
  -9  -1  28   49.47    5.42   0
  -9  -1  28   59.90    5.12   0
  -9   1  28   -8.80    6.32   0
  -8  -1  28   46.63    4.47   0
  -8  -1  28   40.35    4.52   0
  -8   1  28   -4.85    5.75   0
  -7  -1  28   47.50    4.99   0
  -7   1  28    5.47    5.31   0
  -7  -1  28   41.12    5.15   0
  -7   1  28   39.14    5.37   0
  -6  -1  28   -0.09    4.22   0
  -6   1  28   -0.55    4.19   0
  -6   1  28    4.92    4.88   0
  -6  -1  28   -0.94    5.06   0
  -6  -1  28    1.74    3.99   0
  -6   1  28    2.77    4.53   0
  -5  -1  28   76.72    4.96   0
  -5  -1  28   83.37    5.17   0
  -5   1  28   73.93    5.51   0
  -5   1  28   65.66    6.07   0
  -5   1  28   75.06    5.08   0
  -5  -1  28   73.82    5.80   0
  -4  -1  28    1.31    4.15   0
  -4   1  28    2.11    4.49   0
  -4  -1  28   -0.19    3.53   0
  -4   1  28   -0.64    4.01   0
  -4   1  28    0.85    4.62   0
  -4  -1  28    3.94    4.67   0
  -3   1  28   37.38    5.24   0
  -3  -1  28   27.40    4.28   0
  -3   1  28   35.43    5.46   0
  -3   1  28   30.18    4.19   0
  -3  -1  28   32.75    4.16   0
  -3  -1  28   30.60    4.40   0
  -2   1  28    0.70    5.12   0
  -2   1  28    0.36    4.81   0
  -2   1  28    1.61    3.76   0
  -2  -1  28    0.83    3.61   0
  -2  -1  28    1.74    4.01   0
  -1   1  28    6.38    5.40   0
  -1   1  28    5.30    5.56   0
  -1  -1  28    6.38    3.88   0
  -1   1  28    9.44    3.86   0
  -1  -1  28    7.96    4.32   0
   0  -1  28   37.72    4.22   0
   0   1  28   34.68    6.25   0
   0   1  28   32.29    3.98   0
   0   1  28   36.05    6.22   0
   1  -1  28   91.25    4.88   0
   1   1  28   91.02    7.09   0
   1   1  28   80.01    3.94   0
   2   1  28    1.92    5.03   0
  -2  -1 -28    3.20    5.20   0
  -2   1 -28   -1.34    3.70   0
   2  -1  28   -1.33    3.89   0
   2   1  28   -2.38    3.33   0
  -3  -1 -28   38.80    5.28   0
   3   1  28   35.74    4.97   0
   3  -1  28   37.35    4.18   0
  -3   1 -28   35.99    3.99   0
   4   1  28   11.44    5.04   0
  -4   1 -28    6.45    3.41   0
  -4  -1 -28   10.41    4.85   0
   4  -1  28    9.49    3.64   0
  -5  -1 -28    0.26    4.32   0
  -5   1 -28    0.16    4.39   0
   5   1  28    1.32    4.42   0
   5  -1  28    0.77    4.30   0
   6   1  28   17.58    4.64   0
   6  -1  28   14.32    4.19   0
  -6   1 -28   22.76    4.66   0
   7   1  28    3.52    5.27   0
   7  -1  28    4.41    4.54   0
  -7  -1 -28   31.63    5.29   0
  -7   1 -28   24.78    4.42   0
   8   1  28   -1.11    4.91   0
   8  -1  28    0.31    4.21   0
  -8  -1 -28   -3.35    5.32   0
  -8   1 -28   -1.58    4.68   0
  -9  -2  28    1.79    4.54   0
  -9  -2  28    3.01    4.44   0
  -9   2  28   -2.95    5.31   0
  -8  -2  28    2.46    4.08   0
  -8  -2  28   -2.07    4.56   0
  -8   2  28    1.99    4.35   0
  -7  -2  28    1.63    3.82   0
  -7   2  28    1.37    4.88   0
  -7  -2  28    2.26    4.39   0
  -6  -2  28   11.02    4.46   0
  -6   2  28   -1.31    5.43   0
  -6  -2  28    3.25    4.63   0
  -6   2  28   11.29    4.75   0
  -6  -2  28   13.73    5.67   0
  -6   2  28    9.33    4.70   0
  -5  -2  28    1.64    3.84   0
  -5   2  28   -0.61    4.94   0
  -5   2  28    7.13    4.61   0
  -5   2  28    2.30    4.95   0
  -5  -2  28   -0.21    4.61   0
  -5  -2  28    0.62    4.89   0
  -4   2  28   12.80    5.70   0
  -4  -2  28   11.00    3.88   0
  -4   2  28    9.34    5.80   0
  -4   2  28    9.31    4.25   0
  -4  -2  28    8.32    4.57   0
  -4  -2  28    9.44    3.79   0
  -3  -2  28    0.41    3.63   0
  -3   2  28    2.29    4.12   0
  -3   2  28    2.62    7.03   0
  -3   2  28    2.26    7.51   0
  -3  -2  28   -0.18    4.19   0
  -3  -2  28    2.54    3.70   0
  -2   2  28    0.55    4.04   0
  -2  -2  28    3.98    4.03   0
  -2  -2  28    0.29    4.12   0
  -1  -2  28   57.38    4.54   0
  -1   2  28   50.31    4.29   0
   0  -2  28    3.97    4.07   0
   0   2  28    4.73    3.76   0
   1  -2  28   -3.75    4.03   0
   1   2  28    0.31    3.32   0
  -1   2 -28    0.45    3.46   0
   2  -2  28    1.30    3.98   0
  -2   2 -28    4.08    4.23   0
   2   2  28    0.60    3.33   0
   3   2  28    5.33    6.56   0
  -3  -2 -28    5.32    5.92   0
   3  -2  28    2.15    4.29   0
   3   2  28    7.13    3.31   0
  -3   2 -28    3.49    3.99   0
   4   2  28   -1.86    5.44   0
  -4   2 -28   -1.12    4.23   0
  -4  -2 -28    2.30    5.13   0
   4  -2  28   -3.20    3.93   0
  -5  -2 -28   47.70    5.97   0
   5   2  28   46.07    6.18   0
  -5   2 -28   56.80    4.85   0
   5  -2  28   60.92    4.40   0
  -6   2 -28   -0.23    4.30   0
   6   2  28    0.44    4.54   0
   6  -2  28    3.98    4.27   0
  -6  -2 -28    1.22    4.75   0
   7   2  28   73.33    6.67   0
   7  -2  28   83.36    5.26   0
  -7   2 -28   92.52    5.16   0
   8   2  28    0.33    5.56   0
   8  -2  28    6.02    4.60   0
  -8   2 -28    5.39    5.16   0
  -8  -3  28   24.20    4.64   0
  -8  -3  28   45.42    4.67   0
  -8   3  28   -3.70    5.74   0
  -7  -3  28   12.37    4.52   0
  -7  -3  28   34.04    4.54   0
  -7   3  28   17.38    4.89   0
  -6  -3  28    6.44    3.92   0
  -6  -3  28    7.13    4.19   0
  -6  -3  28    1.27    6.34   0
  -6   3  28    3.02    6.12   0
  -6   3  28    5.57    5.49   0
  -5   3  28   -1.18    6.49   0
  -5   3  28    5.55    4.78   0
  -5  -3  28    0.36    5.22   0
  -5  -3  28    2.12    3.73   0
  -5   3  28    1.10    5.83   0
  -5  -3  28    4.41    3.70   0
  -4  -3  28   -1.76    3.94   0
  -4   3  28   -1.00    4.46   0
  -4  -3  28    1.82    4.49   0
  -4  -3  28   -2.33    3.71   0
  -3  -3  28   74.11    4.64   0
  -3   3  28   70.73    4.78   0
  -3  -3  28   70.28    4.74   0
  -2   3  28   22.62    3.93   0
  -2  -3  28   22.01    3.92   0
  -2  -3  28   22.69    4.67   0
  -1  -3  28    6.26    3.78   0
  -1   3  28    1.53    3.49   0
   0  -3  28   79.98    4.46   0
   0   3  28   72.96    4.16   0
   1  -3  28    0.30    4.06   0
  -1   3 -28    1.66    3.65   0
   1   3  28    2.48    3.46   0
   2  -3  28   15.37    4.36   0
  -2   3 -28   16.76    3.86   0
   2   3  28   18.68    3.59   0
  -3   3 -28   16.19    4.14   0
   3   3  28   23.49    3.34   0
   3  -3  28   25.27    3.93   0
  -4   3 -28    1.23    3.59   0
   4  -3  28    5.07    3.71   0
   4   3  28   -1.11    3.63   0
  -5  -3 -28    2.90    5.81   0
  -5   3 -28    0.31    3.78   0
   5  -3  28    7.01    3.79   0
   5   3  28    1.75    3.89   0
  -6   3 -28    1.55    4.55   0
   6  -3  28    1.30    3.97   0
  -6  -3 -28   -0.46    4.73   0
   6   3  28   -1.32    4.01   0
   6   3  28    0.35    5.59   0
  -7   3 -28    4.31    4.05   0
   7  -3  28    6.17    4.11   0
  -7  -3 -28    3.95    5.08   0
   7   3  28    4.09    3.81   0
   7   3  28    0.93    5.47   0
  -8   4  28    1.34    5.40   0
  -8  -4  28    0.39    4.30   0
  -8  -4  28    7.91    4.42   0
   8  -4 -28    4.60    4.83   0
  -7  -4  28    7.60    4.50   0
  -7  -4  28    2.89    4.51   0
  -7   4  28   -0.32    6.00   0
  -6  -4  28    2.28    4.01   0
  -6   4  28    1.01    6.86   0
  -6   4  28   -2.23    7.50   0
  -6  -4  28    2.44    4.40   0
  -5   4  28    8.87    4.88   0
  -5  -4  28   19.78    4.26   0
  -5  -4  28    8.51    6.16   0
  -5  -4  28    0.48    4.09   0
  -4  -4  28   21.37    4.31   0
  -4   4  28   15.52    4.48   0
  -4  -4  28   15.35    5.03   0
  -4  -4  28    8.85    4.23   0
  -3  -4  28   -3.27    3.85   0
  -3   4  28   -4.03    4.01   0
  -3  -4  28    0.07    4.16   0
  -2   4  28   40.99    4.06   0
  -2  -4  28   54.40    4.34   0
  -1  -4  28   10.65    4.04   0
  -1   4  28    6.60    3.91   0
   0  -4  28   11.35    3.91   0
   0   4  28    3.66    3.53   0
   1  -4  28    1.76    4.36   0
   1   4  28    4.92    3.34   0
  -1   4 -28   -0.40    4.41   0
   2  -4  28    1.90    3.86   0
  -2   4 -28    3.30    3.77   0
   2   4  28   -1.16    3.41   0
   3  -4  28   13.46    3.84   0
  -3   4 -28   23.26    4.60   0
   3   4  28   27.46    3.74   0
  -4   4 -28    2.78    3.80   0
   4   4  28    0.74    3.44   0
   4  -4  28    3.52    3.78   0
  -5  -4 -28    2.80    8.74   0
  -5   4 -28    5.10    4.37   0
   5  -4  28    6.09    4.40   0
   5   4  28    5.16    3.94   0
  -6   4 -28   11.54    4.46   0
   6  -4  28    3.59    4.45   0
  -6  -4 -28    7.83    6.43   0
   6   4  28    4.76    3.88   0
  -7   4 -28    2.46    4.16   0
  -7  -4 -28    2.24    5.37   0
   7  -4  28   -0.37    4.11   0
   7   4  28    0.81    4.60   0
  -7  -5  28    3.26    4.24   0
  -7   5  28    2.11    7.09   0
  -7  -5  28    3.38    4.29   0
   7  -5 -28    1.75    4.41   0
  -6  -5  28    0.06    4.50   0
  -6   5  28    6.58    9.27   0
  -6  -5  28    6.90    5.02   0
  -6   5  28    1.18    9.71   0
  -5  -5  28   19.48    4.24   0
  -5  -5  28   13.47    9.15   0
  -5  -5  28    2.15    4.40   0
  -4  -5  28   18.88    4.06   0
  -4   5  28    8.11    4.79   0
  -4  -5  28   22.73    6.08   0
  -3   5  28   17.95    4.06   0
  -3  -5  28    7.79    5.06   0
  -3  -5  28    6.10    4.27   0
  -2   5  28    2.78    4.07   0
  -2  -5  28   -1.41    3.97   0
  -1  -5  28   16.31    4.45   0
  -1   5  28    4.83    4.08   0
   0  -5  28    2.75    3.85   0
   0   5  28    0.16    3.80   0
   1  -5  28    0.17    3.91   0
   1   5  28   -2.42    3.96   0
  -1   5 -28   -1.52    3.83   0
   2  -5  28   11.50    4.16   0
   2   5  28    6.09    4.05   0
  -2   5 -28   10.63    4.10   0
   3  -5  28   37.34    4.34   0
  -3   5 -28   31.72    4.68   0
   3   5  28   -1.09    4.47   0
   4   5  28    0.61    4.17   0
   4  -5  28    3.73    4.09   0
  -4   5 -28    0.14    4.00   0
  -5   5 -28    7.58    4.72   0
   5   5  28    7.30    4.38   0
   5  -5  28    5.61    4.27   0
  -6   5 -28    7.12    4.14   0
  -6  -5 -28    2.20    8.37   0
   6  -5  28    9.64    4.22   0
   6   5  28   12.85    4.89   0
  -6  -5 -28    4.59    8.19   0
  -5  -6  28    2.33    4.27   0
  -5  -6  28   -3.06    4.35   0
  -4  -6  28    9.30    4.30   0
  -4  -6  28    6.50    7.43   0
  -3   6  28    3.35    4.51   0
  -3  -6  28   12.72    5.65   0
  -3  -6  28   20.96    4.40   0
  -2   6  28    7.28    4.65   0
  -2  -6  28    8.82    4.27   0
  -1   6  28   -1.02    3.94   0
  -1  -6  28   -0.14    4.11   0
   0  -6  28   54.10    4.67   0
   0   6  28   54.00    4.63   0
   1  -6  28   21.00    4.35   0
   1   6  28   21.04    4.49   0
  -1   6 -28   21.94    4.35   0
   2  -6  28   14.61    4.25   0
  -2   6 -28   15.52    4.41   0
   2   6  28   11.30    4.43   0
   3  -6  28    0.55    4.10   0
  -3   6 -28   -0.46    4.13   0
   3   6  28    3.52    4.14   0
  -4   6 -28    0.24    4.08   0
   4   6  28    2.81    4.68   0
   4  -6  28   -1.70    4.25   0
  -3   7  28   -4.02    5.22   0
  -3  -7  28   14.33    4.77   0
  -3  -7  28   17.13    6.68   0
  -2   7  28   -0.81    4.98   0
  -2  -7  28   43.90    4.44   0
  -1  -7  28   15.08    4.11   0
  -1   7  28    2.59    4.84   0
   0  -7  28   11.37    4.23   0
   0   7  28    7.52    4.67   0
   1  -7  28    2.47    4.11   0
  -1   7 -28    2.30    4.17   0
   1   7  28    5.74    4.84   0
   2  -7  28   -3.06    4.52   0
   2   7  28    2.84    4.64   0
  -2   7 -28    0.68    4.57   0
  -9   0  29    1.10    4.48   0
  -7   0  29    6.41    4.94   0
  -7   0  29    6.72    4.34   0
  -5   0  29   12.14    4.75   0
  -5   0  29   11.74    4.50   0
  -5   0  29   11.49    4.66   0
  -3   0  29  300.20    7.84   0
  -3   0  29  284.37    7.85   0
  -3   0  29  291.61    6.07   0
  -1   0  29  118.75    6.18   0
  -1   0  29  119.23    4.78   0
  -1   0  29  124.21    6.22   0
   1   0  29    9.99    4.56   0
  -3   0 -29    4.63    4.65   0
   3   0  29    2.27    4.72   0
   5   0  29    3.39    4.69   0
   7   0  29    0.31    4.39   0
  -7   0 -29    6.85    4.99   0
  -9  -1  29    4.76    5.16   0
  -9  -1  29   12.42    4.73   0
  -9   1  29   -0.75    4.98   0
  -8  -1  29    2.50    4.11   0
  -8   1  29   -0.25    5.18   0
  -8  -1  29    6.49    4.09   0
  -7  -1  29    3.99    4.89   0
  -7  -1  29    2.00    4.61   0
  -7   1  29   -2.70    5.11   0
  -7   1  29   -0.69    5.07   0
  -6   1  29    0.18    4.46   0
  -6  -1  29    0.61    3.99   0
  -6   1  29    0.04    4.45   0
  -6  -1  29   -2.46    4.25   0
  -6   1  29   -2.98    5.05   0
  -6  -1  29    3.07    5.08   0
  -5   1  29    2.95    4.89   0
  -5  -1  29    4.87    4.21   0
  -5   1  29    4.32    4.84   0
  -5   1  29   10.60    4.91   0
  -5  -1  29    0.80    4.79   0
  -5  -1  29    0.57    4.64   0
  -4  -1  29    9.41    4.21   0
  -4   1  29    9.73    4.93   0
  -4   1  29    2.33    5.00   0
  -4  -1  29   12.38    4.33   0
  -4   1  29    7.65    4.70   0
  -4  -1  29    8.25    4.34   0
  -3  -1  29   78.59    4.36   0
  -3   1  29   70.60    6.14   0
  -3   1  29   77.47    4.59   0
  -3  -1  29   68.40    5.00   0
  -3   1  29   79.93    6.40   0
  -3  -1  29   76.15    4.98   0
  -2   1  29    2.80    5.76   0
  -2   1  29    2.37    5.38   0
  -2   1  29    1.14    3.81   0
  -2  -1  29    3.86    4.15   0
  -2  -1  29    1.80    4.12   0
  -2  -1  29    5.92    4.14   0
  -1   1  29   63.21    7.12   0
  -1   1  29   61.87    7.01   0
  -1  -1  29   61.94    4.54   0
  -1   1  29   53.61    4.60   0
  -1  -1  29   64.83    4.17   0
   0  -1  29    1.42    4.05   0
   0   1  29    4.37    5.85   0
   0   1  29    0.82    3.78   0
   0   1  29    4.12    6.22   0
   1  -1  29   88.92    4.99   0
   1   1  29   91.43    7.60   0
   1   1  29   91.85    4.21   0
   2   1  29   22.21    5.62   0
   2  -1  29   23.99    4.07   0
   2   1  29   23.55    3.32   0
  -3   1 -29    6.08    4.35   0
   3   1  29    4.91    5.21   0
  -3  -1 -29    6.62    4.95   0
   3  -1  29    7.07    3.80   0
   4   1  29   -0.49    5.56   0
  -4   1 -29   16.77    4.41   0
  -4  -1 -29   21.11    5.37   0
   4  -1  29   26.10    4.55   0
  -5  -1 -29   11.32    4.71   0
  -5   1 -29   16.23    5.11   0
   5   1  29    8.40    4.66   0
   5  -1  29   11.29    4.72   0
  -6   1 -29    3.81    4.18   0
   6   1  29    3.61    4.92   0
   6  -1  29    1.60    4.74   0
   7   1  29   -1.28    5.57   0
   7  -1  29   23.38    4.98   0
  -7  -1 -29   11.16    5.09   0
  -7   1 -29   14.11    4.41   0
   8   1  29    8.16    5.17   0
   8  -1  29    6.38    5.20   0
  -8  -1 -29   -3.20    4.63   0
  -8   1 -29    9.27    5.05   0
  -8  -2  29    4.24    4.48   0
  -8  -2  29    1.33    4.38   0
  -8   2  29   -0.63    5.34   0
  -7  -2  29    1.50    4.51   0
  -7   2  29    2.14    4.66   0
  -7  -2  29   -0.04    4.48   0
  -7   2  29    3.48    5.28   0
  -6  -2  29    4.41    4.00   0
  -6  -2  29   21.34    4.62   0
  -6   2  29   16.89    5.18   0
  -6   2  29    5.23    5.37   0
  -6  -2  29   18.01    5.57   0
  -6   2  29   17.80    5.34   0
  -5  -2  29    1.07    4.29   0
  -5   2  29   -0.45    5.55   0
  -5   2  29    5.46    4.37   0
  -5   2  29    1.45    5.15   0
  -5  -2  29    0.11    4.65   0
  -5  -2  29   -2.57    4.41   0
  -4   2  29    1.84    5.91   0
  -4  -2  29   -0.89    4.16   0
  -4   2  29    4.26    4.63   0
  -4   2  29    2.95    5.90   0
  -4  -2  29    4.55    3.70   0
  -4  -2  29   -0.85    4.63   0
  -3  -2  29   28.29    4.56   0
  -3   2  29   34.57    9.17   0
  -3   2  29   30.26    4.51   0
  -3   2  29   30.70    9.10   0
  -3  -2  29   38.81    4.18   0
  -3  -2  29    0.51    4.38   0
  -2   2  29    6.51    4.11   0
  -2  -2  29    3.61    3.75   0
  -2  -2  29    4.32    4.48   0
  -1  -2  29  149.28    5.09   0
  -1   2  29  140.75    5.01   0
  -1  -2  29  147.70    5.02   0
   0  -2  29    3.20    3.29   0
   0   2  29    2.83    3.55   0
   1  -2  29    3.34    4.03   0
  -1   2 -29    1.44    4.05   0
   1   2  29    0.78    3.13   0
  -2   2 -29    6.18    3.66   0
   2   2  29    3.31    3.33   0
   2  -2  29    2.70    4.08   0
   3   2  29    6.03    7.04   0
  -3   2 -29    8.97    4.85   0
  -3  -2 -29    5.43    6.49   0
   3  -2  29    7.80    4.36   0
   3   2  29    6.28    3.46   0
   4   2  29    2.91    5.86   0
  -4   2 -29    2.11    4.21   0
   4  -2  29    2.99    3.75   0
  -4  -2 -29    2.31    5.27   0
   4   2  29    5.07    3.67   0
   5   2  29    4.32    5.11   0
  -5  -2 -29   -0.29    4.90   0
  -5   2 -29    1.94    4.76   0
   5  -2  29   -0.71    4.38   0
   6   2  29    2.59    4.58   0
  -6   2 -29    4.16    4.49   0
   6  -2  29    5.21    4.09   0
  -6  -2 -29    2.13    4.41   0
  -7   2 -29    5.12    4.18   0
   7   2  29    3.42    5.34   0
   7  -2  29    0.80    4.22   0
  -8  -3  29   -1.50    4.85   0
  -8  -3  29   -5.06    4.88   0
  -8   3  29   -1.14    5.24   0
  -7  -3  29    0.49    4.69   0
  -7  -3  29    2.80    4.41   0
  -7   3  29    0.53    4.57   0
  -6  -3  29   -0.33    3.95   0
  -6   3  29    1.26    6.13   0
  -6  -3  29    2.03    6.37   0
  -6   3  29   -1.38    5.61   0
  -6  -3  29    1.18    4.14   0
  -5  -3  29    6.76    4.35   0
  -5   3  29   -0.74    6.47   0
  -5   3  29    4.93    4.66   0
  -5  -3  29   -0.57    5.09   0
  -5  -3  29    0.54    4.40   0
  -5   3  29    1.32    6.77   0
  -4  -3  29   -0.49    4.37   0
  -4   3  29    1.70    4.31   0
  -4  -3  29    1.43    4.56   0
  -4  -3  29   -0.85    3.78   0
  -3  -3  29   15.85    4.66   0
  -3   3  29   18.80    4.44   0
  -3  -3  29   13.24    4.49   0
  -2   3  29    2.50    3.97   0
  -2  -3  29    3.23    3.81   0
  -2  -3  29    3.26    4.43   0
  -1  -3  29    1.68    4.34   0
  -1   3  29    0.59    3.54   0
   0  -3  29   43.85    4.78   0
   0   3  29    8.17    3.65   0
  -1   3 -29    4.16    4.44   0
   1  -3  29    4.66    4.28   0
   1   3  29    2.01    3.43   0
   2  -3  29    3.60    3.72   0
  -2   3 -29    9.23    3.83   0
   2   3  29    5.86    3.39   0
  -3   3 -29   28.05    4.56   0
   3   3  29   18.49    3.78   0
   3  -3  29   30.61    4.00   0
  -4   3 -29   -0.72    4.22   0
   4  -3  29    0.36    3.58   0
   4   3  29    3.66    3.98   0
  -5  -3 -29   -0.94    6.28   0
  -5   3 -29    0.99    3.69   0
   5  -3  29    1.86    3.59   0
   5   3  29    1.07    4.26   0
  -6   3 -29   14.99    4.17   0
   6  -3  29   10.00    4.12   0
  -6  -3 -29   12.74    5.67   0
   6   3  29    7.46    3.83   0
   6   3  29    2.32    6.43   0
  -7   3 -29   -4.40    4.34   0
   7  -3  29   -1.03    4.35   0
  -7  -3 -29   -0.64    4.87   0
   7   3  29    2.64    4.47   0
   7   3  29    0.59    5.79   0
  -7  -4  29   -0.30    4.50   0
  -7  -4  29    3.15    4.39   0
  -7   4  29    0.01    6.61   0
  -6  -4  29   -0.13    4.65   0
  -6   4  29    5.21    8.36   0
  -6   4  29   12.73    8.27   0
  -6  -4  29    7.18    4.73   0
  -5  -4  29   -3.30    4.30   0
  -5   4  29   -2.80    4.73   0
  -5  -4  29    2.42    5.93   0
  -5  -4  29   -0.26    4.23   0
  -4  -4  29    6.95    4.30   0
  -4   4  29    4.97    4.84   0
  -4  -4  29    5.70    5.24   0
  -4  -4  29    1.24    4.64   0
  -3  -4  29   63.17    4.86   0
  -3   4  29   66.14    4.83   0
  -3  -4  29   62.15    5.14   0
  -2   4  29   -0.62    3.75   0
  -2  -4  29    3.75    3.82   0
  -1  -4  29    2.98    3.77   0
  -1   4  29    3.92    4.10   0
   0  -4  29    3.93    3.75   0
   0   4  29    3.06    3.82   0
  -1   4 -29   24.21    4.31   0
   1  -4  29   23.68    4.42   0
   1   4  29   27.43    3.81   0
   2  -4  29    8.54    3.73   0
   2   4  29   -0.59    4.02   0
  -2   4 -29    7.72    3.71   0
  -3   4 -29    3.81    3.89   0
   3   4  29    1.28    3.36   0
   3  -4  29    3.35    3.79   0
   4   4  29   11.15    4.28   0
  -4   4 -29    8.14    4.06   0
   4  -4  29    5.80    4.01   0
  -5   4 -29   -0.95    4.36   0
   5  -4  29    1.65    4.23   0
   5   4  29    0.69    4.04   0
  -6   4 -29    0.08    4.19   0
   6  -4  29    4.21    4.25   0
   6   4  29    2.57    4.35   0
  -6  -4 -29    0.21    7.01   0
  -6  -5  29    2.15    4.49   0
  -6  -5  29   -4.22    4.45   0
  -5  -5  29    0.34    4.43   0
  -5  -5  29    3.41    8.19   0
  -5  -5  29   -0.42    4.31   0
  -4  -5  29   37.55    5.05   0
  -4   5  29   -2.99    4.84   0
  -4  -5  29   31.53    6.25   0
  -3   5  29   -0.37    4.32   0
  -3  -5  29    1.22    4.62   0
  -3  -5  29   -0.76    3.92   0
  -2   5  29    0.32    4.30   0
  -2  -5  29    2.36    4.16   0
  -1  -5  29   19.65    4.38   0
  -1   5  29   20.06    4.32   0
   0  -5  29    7.89    3.95   0
   0   5  29    3.37    3.76   0
  -1   5 -29   23.67    4.26   0
   1  -5  29   21.07    4.23   0
   1   5  29   19.28    4.01   0
  -2   5 -29   -1.54    3.98   0
   2  -5  29    0.66    4.10   0
   2   5  29   -0.70    4.04   0
   3  -5  29   -1.71    4.29   0
  -3   5 -29    1.70    4.31   0
   3   5  29   -3.04    4.40   0
  -4   5 -29    6.75    4.78   0
   4   5  29    6.67    3.96   0
   4  -5  29    6.33    4.48   0
   5   5  29    2.98    4.56   0
  -5   5 -29   -1.99    4.30   0
   5  -5  29   -0.61    4.29   0
  -5  -6  29    1.39    4.32   0
  -5  -6  29    0.20    4.43   0
  -4  -6  29    6.62    4.36   0
  -4   6  29    4.78    4.87   0
  -4  -6  29    5.50    7.43   0
  -3   6  29   -0.30    4.42   0
  -3  -6  29    0.06    4.31   0
  -3  -6  29    0.10    5.28   0
  -2   6  29    1.59    4.36   0
  -2  -6  29   -1.31    4.33   0
  -1  -6  29    3.97    4.23   0
  -1   6  29    3.31    3.70   0
   0  -6  29   33.67    4.73   0
   0   6  29   21.57    4.34   0
   1  -6  29   23.18    4.99   0
  -1   6 -29   19.38    4.58   0
   1   6  29    2.03    4.34   0
   2  -6  29    1.12    4.36   0
  -2   6 -29   -1.28    4.24   0
   2   6  29    0.84    4.22   0
   3  -6  29    1.35    4.25   0
   3   6  29   -0.84    4.44   0
  -3   6 -29   -1.37    4.15   0
  -4   6 -29    3.19    4.23   0
   4   6  29    1.37    4.58   0
   4  -6  29    0.03    4.11   0
  -2   7  29   -1.23    4.20   0
  -2  -7  29   -0.86    4.50   0
  -1  -7  29   -0.22    4.32   0
  -1   7  29   -2.15    4.83   0
   0  -7  29    6.01    4.26   0
   0   7  29    2.19    4.81   0
   1  -7  29    4.77    4.42   0
   1   7  29    2.46    4.93   0
  -8   0  30  -17.10    5.77   0
  -8   0  30  -20.50    5.95   0
  -6   0  30   33.03    4.46   0
  -6   0  30   -4.41    5.53   0
  -6   0  30   32.69    5.55   0
  -4   0  30    2.71    4.17   0
  -4   0  30    2.76    4.52   0
  -4   0  30   11.08    4.87   0
  -2   0  30   66.49    5.85   0
  -2   0  30   60.90    5.67   0
  -2   0  30   68.31    4.46   0
   0   0  30   -0.06    4.32   0
   0   0  30   -3.26    3.97   0
  -2   0 -30   14.59    4.66   0
   2   0  30   11.39    4.69   0
   4   0  30    0.54    4.64   0
  -6   0 -30   21.87    5.13   0
   6   0  30   33.68    5.48   0
  -8  -1  30   -2.46    5.35   0
  -8  -1  30   18.88    4.85   0
  -8   1  30   -2.19    5.15   0
  -8   1  30    2.14    4.74   0
  -7  -1  30   -2.05    4.33   0
  -7   1  30   -1.61    4.33   0
  -7   1  30    0.97    5.07   0
  -7  -1  30    2.19    4.60   0
  -6  -1  30   -2.04    4.85   0
  -6  -1  30   -1.63    5.21   0
  -6   1  30   -1.19    4.85   0
  -6   1  30    6.67    5.26   0
  -6  -1  30    0.05    5.22   0
  -6   1  30    0.16    5.06   0
  -5  -1  30   14.91    4.66   0
  -5   1  30    0.05    5.24   0
  -5   1  30   20.56    4.48   0
  -5  -1  30   10.68    5.05   0
  -5  -1  30   15.29    4.86   0
  -5   1  30   15.84    5.16   0
  -4  -1  30   -1.16    3.71   0
  -4   1  30   -2.87    5.16   0
  -4   1  30    1.58    5.00   0
  -4  -1  30   -1.99    4.61   0
  -4   1  30   -2.42    4.72   0
  -4  -1  30    2.61    4.59   0
  -3  -1  30    1.32    4.28   0
  -3   1  30    0.05    5.35   0
  -3   1  30   -4.50    4.09   0
  -3  -1  30    0.44    4.09   0
  -3   1  30    1.92    5.27   0
  -3  -1  30   -3.22    4.20   0
  -2   1  30  158.30    8.61   0
  -2   1  30  149.24    8.34   0
  -2  -1  30  163.31    6.00   0
  -2   1  30  149.98    5.36   0
  -2  -1  30  154.51    5.33   0
  -2  -1  30  154.35    5.88   0
  -1   1  30   15.78    6.64   0
  -1  -1  30   20.84    4.41   0
  -1   1  30   17.13    4.01   0
  -1  -1  30   18.85    3.82   0
  -1   1  30   16.18    6.75   0
   0   1  30   36.98    7.24   0
   0  -1  30   36.81    4.53   0
   0   1  30   35.92    6.88   0
   0   1  30   44.79    4.20   0
   0  -1  30   33.82    3.86   0
   1  -1  30    3.66    4.33   0
   1   1  30    1.77    5.98   0
   1   1  30    4.15    3.48   0
   2   1  30   32.63    6.20   0
   2  -1  30   37.10    4.48   0
   2   1  30   38.78    3.44   0
  -3   1 -30    1.91    4.15   0
   3   1  30   -0.28    5.11   0
   3  -1  30   -0.25    3.88   0
  -3  -1 -30   -0.02    4.79   0
   4   1  30   34.75    5.89   0
   4  -1  30   42.54    5.10   0
  -4   1 -30   48.53    5.30   0
  -4  -1 -30   15.19    5.63   0
   5   1  30   -0.23    4.83   0
  -5  -1 -30   -0.27    4.59   0
  -5   1 -30   -1.53    4.49   0
   5  -1  30    1.54    3.99   0
  -6   1 -30    7.64    4.71   0
   6   1  30    4.72    5.41   0
   6  -1  30    5.86    5.25   0
  -7   1 -30    2.21    4.63   0
   7   1  30   -0.29    4.80   0
   7  -1  30   -2.02    4.42   0
  -8  -2  30    5.12    4.83   0
  -8   2  30    0.02    5.37   0
  -8  -2  30    6.51    4.31   0
  -7   2  30   -2.44    5.42   0
  -7  -2  30   -1.58    4.29   0
  -7  -2  30   -0.06    4.89   0
  -7   2  30   19.40    5.55   0
  -6  -2  30    3.79    5.09   0
  -6  -2  30    0.60    4.62   0
  -6   2  30    5.57    4.66   0
  -6  -2  30    2.14    5.51   0
  -6   2  30    2.49    5.14   0
  -6   2  30    0.32    5.41   0
  -5  -2  30    5.38    3.99   0
  -5   2  30    7.20    4.66   0
  -5   2  30    0.02    5.63   0
  -5  -2  30    5.73    4.74   0
  -5  -2  30   -0.25    4.63   0
  -5   2  30    1.11    5.84   0
  -4   2  30   26.29    6.81   0
  -4  -2  30   30.50    4.23   0
  -4   2  30   26.76    4.77   0
  -4   2  30   22.21    6.82   0
  -4  -2  30   30.53    4.91   0
  -4  -2  30   35.88    4.29   0
  -3  -2  30   44.13    4.93   0
  -3   2  30   35.50    4.59   0
  -3  -2  30   41.85    4.73   0
  -3  -2  30  -10.59    5.10   0
  -2   2  30   11.35    4.34   0
  -2  -2  30   11.75    4.27   0
  -2  -2  30   11.89    4.39   0
  -1  -2  30   16.42    4.28   0
  -1   2  30   15.26    4.37   0
  -1  -2  30   19.77    4.19   0
   0  -2  30   -1.86    3.71   0
   0   2  30    6.18    3.54   0
   1  -2  30   -0.72    3.26   0
  -1   2 -30   -1.57    3.40   0
   1   2  30   -0.05    3.21   0
  -2   2 -30    1.26    3.77   0
   2   2  30   -0.46    3.03   0
   2  -2  30   -2.00    4.06   0
   3   2  30    1.63    8.15   0
  -3   2 -30    1.11    4.38   0
   3  -2  30    1.67    4.34   0
   3   2  30   -1.61    3.19   0
   4   2  30   10.17    6.65   0
  -4  -2 -30    2.40    6.09   0
   4  -2  30    8.74    4.61   0
  -4   2 -30    3.49    5.02   0
   4   2  30    3.10    3.83   0
   5   2  30   10.28    5.54   0
  -5  -2 -30   12.49    5.26   0
  -5   2 -30   15.57    4.70   0
   5  -2  30   18.62    4.75   0
  -6  -2 -30   21.86    5.33   0
   6   2  30   18.94    5.60   0
  -6   2 -30   20.13    4.23   0
   6  -2  30   18.17    4.72   0
   7   2  30   -2.54    5.52   0
  -7   2 -30    1.89    4.21   0
   7  -2  30   -0.85    4.63   0
  -7  -2 -30    0.60    5.25   0
  -8  -3  30   16.57    4.96   0
  -7  -3  30   -2.07    4.42   0
  -7  -3  30    9.17    4.59   0
  -7   3  30    0.87    5.53   0
  -7   3  30   -2.51    5.97   0
  -6  -3  30   -2.18    3.78   0
  -6  -3  30   -2.87    5.78   0
  -6   3  30    1.04    6.35   0
  -6  -3  30    1.12    3.81   0
  -6   3  30   -0.04    5.98   0
  -5  -3  30    1.68    3.81   0
  -5   3  30    0.24    7.65   0
  -5  -3  30    0.40    3.87   0
  -5   3  30   -1.49    4.82   0
  -5  -3  30    1.05    5.39   0
  -4  -3  30   -2.40    4.41   0
  -4   3  30    0.53    4.47   0
  -4  -3  30   -0.11    4.70   0
  -4  -3  30    5.10    4.45   0
  -3   3  30   16.53    4.26   0
  -3  -3  30   14.37    4.85   0
  -3  -3  30   12.86    3.98   0
  -2   3  30    5.59    4.15   0
  -2  -3  30    4.50    4.16   0
  -2  -3  30    8.71    4.49   0
  -1  -3  30   23.63    4.28   0
  -1   3  30    7.10    3.81   0
   0  -3  30   45.19    4.88   0
   0   3  30    3.14    4.14   0
   1  -3  30   27.97    4.71   0
  -1   3 -30   32.39    4.36   0
   1   3  30   28.02    3.66   0
   2  -3  30   24.66    4.00   0
  -2   3 -30   19.68    4.14   0
   2   3  30   22.69    3.63   0
  -3   3 -30    1.65    3.53   0
   3   3  30   -0.79    3.59   0
   3  -3  30   -1.94    4.07   0
   4  -3  30    3.39    3.68   0
   4   3  30    5.40    3.79   0
  -4   3 -30   -1.53    3.70   0
  -5   3 -30   23.08    4.50   0
  -5  -3 -30    8.80    7.79   0
   5  -3  30   16.60    4.48   0
   5   3  30   15.03    4.45   0
  -6  -3 -30   18.97    6.91   0
  -6   3 -30   20.19    5.17   0
   6  -3  30   15.54    4.51   0
   6   3  30   12.53    4.28   0
   6   3  30   17.54    6.97   0
  -7  -3 -30    3.52    5.79   0
  -7  -4  30   -0.16    4.47   0
  -7   4  30    1.08    7.12   0
  -7  -4  30    1.04    4.51   0
  -7   4  30   -0.49    7.50   0
  -6  -4  30    4.45    4.75   0
  -6   4  30   11.96   10.19   0
  -6   4  30   31.06   10.14   0
  -6  -4  30   42.43    5.37   0
  -5  -4  30   -0.17    4.92   0
  -5   4  30    2.40    4.78   0
  -5  -4  30   -1.11    5.95   0
  -5  -4  30    4.05    4.37   0
  -4  -4  30   12.94    4.22   0
  -4   4  30    9.27    4.84   0
  -4  -4  30   14.94    4.88   0
  -4  -4  30    2.51    4.17   0
  -3   4  30   -1.57    3.98   0
  -3  -4  30   -1.63    4.46   0
  -3  -4  30    1.63    3.85   0
  -2   4  30   15.72    3.95   0
  -2  -4  30   19.20    4.14   0
  -2  -4  30   24.18    4.82   0
  -1  -4  30    1.83    4.23   0
  -1   4  30   -4.05    3.96   0
   0  -4  30   17.02    4.34   0
   0   4  30    5.56    3.95   0
   1  -4  30    0.64    4.21   0
  -1   4 -30    3.23    3.86   0
   1   4  30    0.98    3.75   0
   2  -4  30   18.95    4.50   0
  -2   4 -30   14.70    4.40   0
   2   4  30   19.56    3.82   0
  -3   4 -30   -0.88    4.04   0
   3   4  30    1.55    3.92   0
   3  -4  30    1.34    4.26   0
  -4   4 -30    8.43    4.12   0
   4   4  30    6.79    4.42   0
   4  -4  30    4.85    4.52   0
  -5   4 -30   -1.49    4.12   0
   5  -4  30    5.00    4.05   0
   5   4  30   -0.93    3.53   0
  -6  -4 -30    0.29    7.80   0
  -6   4 -30   -1.02    4.38   0
   6  -4  30    3.64    4.35   0
   6   4  30   -1.09    4.47   0
  -6  -5  30   28.42    4.80   0
  -6  -5  30    9.28    4.82   0
  -5  -5  30   -0.08    4.39   0
  -5  -5  30    0.51    7.79   0
  -5  -5  30    1.01    4.42   0
  -4  -5  30    7.70    4.53   0
  -4   5  30    4.28    4.08   0
  -4  -5  30    0.28    5.75   0
  -3   5  30   17.87    4.88   0
  -3  -5  30   17.70    5.16   0
  -3  -5  30   17.40    4.61   0
  -2   5  30    2.38    4.56   0
  -2  -5  30   10.70    4.16   0
  -1  -5  30    6.99    4.85   0
  -1   5  30    3.09    4.07   0
   0  -5  30   43.05    4.68   0
   0   5  30   39.70    3.91   0
   1  -5  30   36.29    5.17   0
   1   5  30   34.77    4.08   0
  -1   5 -30   40.18    4.67   0
   2  -5  30    4.41    4.44   0
  -2   5 -30    0.94    4.37   0
   2   5  30    2.64    4.17   0
   3  -5  30   12.38    4.78   0
  -3   5 -30   24.16    4.52   0
   3   5  30   10.83    4.39   0
  -4   5 -30    0.49    4.27   0
   4   5  30   -5.22    4.02   0
   4  -5  30    4.96    4.35   0
   5   5  30    3.05    4.70   0
   5  -5  30    3.25    4.17   0
  -5   5 -30    2.95    4.22   0
  -4  -6  30   37.49    4.59   0
  -4   6  30  -13.02    5.28   0
  -4  -6  30   21.50    7.73   0
  -3   6  30    8.39    5.15   0
  -3  -6  30   32.15    4.81   0
  -3  -6  30   36.56    6.16   0
  -2   6  30    6.67    4.76   0
  -2  -6  30   35.13    4.75   0
  -1  -6  30   -2.05    4.72   0
  -1   6  30    1.48    4.34   0
   0  -6  30   12.57    4.43   0
   0   6  30    4.62    4.12   0
   1  -6  30    4.89    4.51   0
  -1   6 -30    7.32    4.44   0
   1   6  30    4.57    4.57   0
   2  -6  30   -1.40    4.35   0
  -2   6 -30    1.15    4.25   0
   2   6  30   -0.18    4.50   0
   3  -6  30   15.99    4.36   0
   3   6  30   11.94    4.98   0
  -3   6 -30   17.07    4.24   0
  -7   0  31   -2.18    4.93   0
  -7   0  31    2.61    5.12   0
  -5   0  31    2.62    4.43   0
  -5   0  31    0.05    4.47   0
  -5   0  31   -1.29    4.88   0
  -3   0  31    2.10    4.92   0
  -3   0  31   11.24    4.09   0
  -3   0  31   13.39    5.03   0
  -1   0  31    0.94    4.22   0
  -1   0  31    3.67    4.06   0
  -1   0  31    1.62    4.83   0
   1   0  31   27.57    5.19   0
   1   0  31   29.95    4.28   0
   3   0  31  154.27    7.26   0
  -3   0 -31  155.11    7.12   0
   5   0  31    3.30    4.68   0
  -7   0 -31   23.55    5.01   0
   7   0  31   11.89    5.01   0
  -8   1  31    2.32    5.00   0
  -8  -1  31   -0.06    4.47   0
  -8   1  31    1.72    5.41   0
  -8  -1  31    3.16    4.97   0
  -7  -1  31   -5.23    5.35   0
  -7  -1  31   26.08    5.36   0
  -7   1  31   -6.66    5.38   0
  -7   1  31    9.79    5.42   0
  -6  -1  31    4.51    5.74   0
  -6  -1  31   -1.35    4.68   0
  -6   1  31   -0.43    4.73   0
  -6   1  31    1.50    5.22   0
  -6   1  31    1.55    4.73   0
  -6  -1  31    3.35    4.81   0
  -5  -1  31    0.69    4.89   0
  -5   1  31   -3.86    5.00   0
  -5   1  31    4.61    4.35   0
  -5  -1  31    0.50    4.31   0
  -5  -1  31    1.79    4.44   0
  -5   1  31   -0.37    5.18   0
  -4  -1  31   14.02    4.55   0
  -4   1  31   12.74    5.57   0
  -4  -1  31   11.44    4.92   0
  -4   1  31   14.23    5.48   0
  -4   1  31   13.84    4.71   0
  -4  -1  31   17.03    4.43   0
  -3  -1  31    4.96    4.57   0
  -3   1  31    6.13    5.78   0
  -3   1  31    3.90    5.32   0
  -3   1  31    6.19    4.71   0
  -3  -1  31    4.56    5.06   0
  -3  -1  31    4.01    4.90   0
  -2   1  31   23.53    6.13   0
  -2   1  31   21.46    6.45   0
  -2  -1  31   25.33    4.65   0
  -2   1  31   24.02    4.47   0
  -2  -1  31   22.52    4.10   0
  -2  -1  31   -1.23    4.51   0
  -1   1  31    5.64    6.63   0
  -1  -1  31    6.76    4.37   0
  -1   1  31   -0.44    4.33   0
  -1  -1  31    1.67    3.96   0
  -1   1  31    3.93    6.18   0
   0   1  31   24.16    7.14   0
   0  -1  31   26.32    4.62   0
   0   1  31   23.17    7.15   0
   0   1  31   25.80    4.17   0
   0  -1  31   20.67    4.04   0
   1   1  31    0.76    6.13   0
   1   1  31    1.06    3.39   0
   1  -1  31    0.40    3.94   0
   2   1  31    0.65    5.68   0
   2  -1  31    2.77    4.35   0
   2   1  31    0.71    3.40   0
   3   1  31    2.42    5.56   0
  -3  -1 -31    1.12    5.22   0
   3  -1  31    0.53    3.65   0
  -4  -1 -31   18.00    5.35   0
   4   1  31    6.30    5.50   0
   4  -1  31   18.61    4.69   0
  -4   1 -31   27.38    4.86   0
   5   1  31    5.22    5.25   0
  -5   1 -31   22.26    4.80   0
  -5  -1 -31   16.00    5.09   0
   5  -1  31    0.24    5.11   0
  -6  -1 -31   40.03    5.83   0
   6   1  31   24.83    5.62   0
  -6   1 -31   48.65    5.11   0
   6  -1  31   46.48    5.14   0
  -7   1 -31    4.11    4.87   0
   7   1  31   -0.94    5.01   0
   7  -1  31    1.96    5.45   0
  -8  -2  31    0.44    4.38   0
  -8  -2  31   -1.00    4.50   0
  -8   2  31    1.34    5.45   0
  -7  -2  31   -4.31    4.51   0
  -7  -2  31    1.33    4.90   0
  -7   2  31    4.16    5.74   0
  -7   2  31    0.00    5.27   0
  -6  -2  31   -3.26    4.07   0
  -6   2  31    1.52    5.32   0
  -6   2  31    3.95    4.44   0
  -6  -2  31    1.85    5.48   0
  -6   2  31   -0.91    4.92   0
  -6  -2  31   -1.86    4.74   0
  -5  -2  31    7.88    4.68   0
  -5   2  31   14.00    6.09   0
  -5  -2  31   21.04    4.80   0
  -5   2  31    3.29    5.22   0
  -5  -2  31   16.24    5.10   0
  -5   2  31   15.89    6.20   0
  -4  -2  31   -1.11    4.08   0
  -4  -2  31   -3.47    4.22   0
  -4   2  31   -0.61    4.31   0
  -4  -2  31   -0.74    5.08   0
  -4   2  31    1.19    6.92   0
  -4   2  31    1.62    7.03   0
  -3   2  31    3.52    4.42   0
  -3  -2  31    3.98    4.60   0
  -3  -2  31   -3.08    4.97   0
  -3  -2  31    1.12    4.85   0
  -2  -2  31    3.78    4.63   0
  -2   2  31    5.08    4.18   0
  -2  -2  31   12.62    4.28   0
  -1  -2  31    8.16    3.91   0
  -1   2  31    3.28    4.12   0
  -1  -2  31    8.17    3.98   0
   0  -2  31   -1.13    3.96   0
   0   2  31   -1.28    3.68   0
   1  -2  31   26.04    4.56   0
   1   2  31   43.85    3.64   0
  -2   2 -31    4.36    5.11   0
   2   2  31    8.21    3.44   0
   2  -2  31    2.82    4.71   0
  -3   2 -31    1.87    4.11   0
   3  -2  31    4.32    4.14   0
   3   2  31    2.25    3.71   0
   4   2  31   24.47    7.52   0
   4  -2  31   27.25    4.79   0
  -4  -2 -31   25.87    7.05   0
   4   2  31   23.42    3.78   0
  -4   2 -31   24.44    4.74   0
   5   2  31    1.78    6.19   0
  -5   2 -31    0.35    4.83   0
  -5  -2 -31    0.72    5.90   0
   5  -2  31    6.17    4.36   0
   5   2  31    0.34    3.45   0
   6   2  31   -0.63    5.61   0
  -6  -2 -31    4.72    4.95   0
  -6   2 -31   10.66    4.18   0
   6  -2  31   11.96    4.65   0
  -7   2 -31    0.56    5.02   0
   7  -2  31    2.03    4.49   0
  -7  -3  31   -1.17    5.17   0
  -7   3  31    0.82    6.54   0
  -7   3  31   -1.46    5.79   0
  -7  -3  31    4.84    4.92   0
  -6  -3  31   -2.53    4.01   0
  -6   3  31    1.05    7.13   0
  -6  -3  31    2.40    6.20   0
  -6  -3  31    2.26    4.86   0
  -6   3  31    2.72    6.61   0
  -5  -3  31    4.68    4.01   0
  -5   3  31    2.88    9.88   0
  -5  -3  31    0.51    4.09   0
  -5   3  31    2.23    4.82   0
  -5  -3  31    2.10    5.52   0
  -4  -3  31   19.89    3.99   0
  -4   3  31   15.46    4.41   0
  -4  -3  31    3.08    5.32   0
  -4  -3  31    8.54    4.19   0
  -3   3  31   18.01    4.41   0
  -3  -3  31   13.25    5.15   0
  -3  -3  31   17.21    4.53   0
  -2   3  31  104.41    4.96   0
  -2  -3  31  123.71    5.11   0
  -2  -3  31  109.73    5.84   0
  -1  -3  31    1.12    4.29   0
  -1   3  31   -0.32    3.70   0
   0  -3  31    4.38    3.78   0
   0   3  31   -1.95    3.68   0
   1  -3  31   39.15    4.51   0
  -1   3 -31   35.37    4.18   0
   1   3  31   26.80    3.54   0
   2  -3  31    0.03    3.71   0
  -2   3 -31    3.89    3.79   0
   2   3  31    0.14    3.84   0
  -3   3 -31   17.55    4.55   0
   3   3  31   20.00    3.83   0
   3  -3  31   13.08    4.51   0
  -4   3 -31    0.22    4.52   0
   4  -3  31   -1.04    4.87   0
   4   3  31    3.77    3.85   0
  -5   3 -31    4.14    4.03   0
   5  -3  31    2.37    3.85   0
   5   3  31   -1.82    4.04   0
  -6   3 -31   -4.12    4.89   0
   6  -3  31   -0.56    4.75   0
   6   3  31   -1.86    4.34   0
  -6  -4  31    1.76    4.50   0
  -6  -4  31    7.91    4.59   0
  -5  -4  31   14.06    4.40   0
  -5   4  31   19.19    5.15   0
  -5  -4  31   12.85    6.36   0
  -5  -4  31    8.61    4.47   0
  -4  -4  31    2.78    4.52   0
  -4   4  31   -1.28    4.57   0
  -4  -4  31   -1.14    4.89   0
  -4  -4  31   -3.88    4.07   0
  -3   4  31   -3.10    4.45   0
  -3  -4  31   -1.44    4.71   0
  -3  -4  31    1.95    4.54   0
  -2   4  31    3.54    4.27   0
  -2  -4  31    4.20    3.89   0
  -2  -4  31    3.49    4.52   0
  -1  -4  31   68.54    5.05   0
  -1   4  31   64.52    4.63   0
   0  -4  31    0.17    4.46   0
   0   4  31    0.65    3.98   0
   1  -4  31    5.33    4.34   0
  -1   4 -31    0.79    3.82   0
   1   4  31    3.79    3.91   0
   2  -4  31    2.01    4.23   0
  -2   4 -31    4.46    4.17   0
   2   4  31    0.14    3.64   0
  -3   4 -31    5.03    3.99   0
   3   4  31    0.72    3.65   0
   3  -4  31    6.54    4.19   0
  -4   4 -31    1.76    4.16   0
   4   4  31    2.25    4.16   0
   4  -4  31    4.59    4.21   0
   5  -4  31    3.32    4.33   0
  -5   4 -31    4.69    4.33   0
   5   4  31   -4.62    4.48   0
  -5  -5  31   -3.57    4.44   0
  -5  -5  31   -0.80    7.97   0
  -5  -5  31   -0.92    4.43   0
  -4  -5  31   13.06    4.62   0
  -4   5  31    0.77    4.35   0
  -4  -5  31   10.22    5.78   0
  -4  -5  31   -6.14    4.62   0
  -3   5  31   -0.42    4.43   0
  -3  -5  31    0.41    4.48   0
  -3  -5  31    1.88    5.15   0
  -2   5  31    4.43    4.43   0
  -2  -5  31   22.38    5.13   0
  -1  -5  31   -1.89    4.45   0
  -1   5  31   -1.65    4.21   0
   0  -5  31    5.85    4.60   0
   0   5  31    7.45    4.36   0
   1  -5  31   23.96    5.07   0
   1   5  31    7.37    4.01   0
  -1   5 -31   24.34    5.21   0
   2  -5  31    0.37    4.33   0
  -2   5 -31   -4.13    4.36   0
   2   5  31    0.23    4.01   0
   3  -5  31    7.33    4.47   0
   3   5  31   -4.52    3.95   0
  -3   5 -31   10.03    4.36   0
  -4   5 -31   -0.41    4.30   0
   4   5  31    3.09    4.42   0
   4  -5  31   -0.74    4.28   0
  -3   6  31    4.17    4.85   0
  -3  -6  31   -1.12    4.25   0
  -3  -6  31   -1.95    5.68   0
  -2   6  31    6.64    4.73   0
  -2  -6  31    3.56    4.39   0
  -1  -6  31    0.57    4.85   0
  -1   6  31   -2.79    4.58   0
   0  -6  31   21.69    4.52   0
   0   6  31   17.06    4.57   0
   1  -6  31   -0.57    4.34   0
   1   6  31   -3.55    4.42   0
  -1   6 -31   -1.53    4.23   0
   2  -6  31    0.92    4.24   0
   2   6  31   -0.31    4.52   0
  -2   6 -31   -2.55    4.13   0
  -6   0  32    1.68    5.06   0
  -6   0  32    4.13    6.35   0
  -6   0  32   -1.92    5.51   0
  -4   0  32   14.74    4.99   0
  -4   0  32    4.55    5.21   0
  -4   0  32   34.24    4.45   0
  -2   0  32    0.94    4.64   0
  -2   0  32    1.30    4.76   0
  -2   0  32    5.33    3.90   0
   0   0  32   -0.57    3.98   0
   0   0  32    0.28    4.84   0
   2   0  32    6.76    4.68   0
  -4   0 -32   15.55    4.88   0
   4   0  32   18.34    5.02   0
   6   0  32   25.77    5.37   0
  -7  -1  32    1.41    5.65   0
  -7  -1  32   -1.10    5.35   0
  -7   1  32   -3.49    5.57   0
  -7   1  32    9.77    5.85   0
  -6  -1  32   -3.64    5.22   0
  -6   1  32   -4.04    5.03   0
  -6   1  32    7.72    4.80   0
  -6  -1  32    4.55    5.60   0
  -6  -1  32    6.98    5.33   0
  -6   1  32    4.12    5.22   0
  -5  -1  32    1.09    4.88   0
  -5   1  32   -1.43    5.05   0
  -5   1  32   -0.11    5.29   0
  -5  -1  32    1.29    4.77   0
  -5   1  32    0.38    4.36   0
  -5  -1  32   -0.29    4.65   0
  -4  -1  32    3.53    4.77   0
  -4  -1  32    0.30    4.14   0
  -4   1  32    1.01    5.35   0
  -4   1  32    3.53    4.21   0
  -4  -1  32    6.19    4.83   0
  -4   1  32    0.35    5.43   0
  -3  -1  32    3.92    4.50   0
  -3   1  32    2.92    5.82   0
  -3   1  32    0.88    5.85   0
  -3   1  32    2.44    4.33   0
  -3  -1  32    3.82    3.91   0
  -3  -1  32    3.12    4.89   0
  -2   1  32   -1.07    6.03   0
  -2   1  32   -0.32    6.08   0
  -2  -1  32    0.17    4.22   0
  -2   1  32   -2.27    4.30   0
  -2  -1  32    0.01    4.36   0
  -2  -1  32    2.11    4.30   0
  -1   1  32    0.43    7.12   0
  -1  -1  32    0.57    4.34   0
  -1   1  32   -0.21    3.94   0
  -1  -1  32   -0.37    3.79   0
  -1   1  32   -1.09    6.52   0
   0   1  32    0.06    6.85   0
   0  -1  32    0.46    4.05   0
   0   1  32   -0.14    7.07   0
   0   1  32    0.22    3.94   0
   0  -1  32    1.38    4.13   0
   1   1  32    0.76    6.68   0
   1   1  32    1.20    3.77   0
   1  -1  32   -0.89    4.32   0
   2   1  32    0.28    5.85   0
   2  -1  32   -0.46    4.25   0
   2   1  32   -1.10    3.56   0
   3   1  32    4.11    6.01   0
   3  -1  32   -0.06    4.07   0
  -3  -1 -32    7.49    5.65   0
   3   1  32   11.25    3.68   0
  -4   1 -32   -1.19    4.59   0
   4   1  32   -1.85    4.94   0
  -4  -1 -32    1.99    4.88   0
   4  -1  32   -2.80    4.37   0
   5   1  32    4.15    5.29   0
   5  -1  32   15.76    5.12   0
  -5   1 -32   12.51    4.96   0
  -5  -1 -32   16.64    4.79   0
   6   1  32    0.34    5.41   0
  -6  -1 -32    4.05    5.25   0
  -6   1 -32    7.68    5.18   0
   6  -1  32    3.31    4.90   0
  -7  -2  32    2.54    4.76   0
  -7  -2  32    3.25    4.50   0
  -7   2  32    1.17    5.68   0
  -7   2  32    1.01    5.65   0
  -6  -2  32    3.79    4.88   0
  -6   2  32    1.30    5.54   0
  -6  -2  32    0.24    5.46   0
  -6   2  32   -3.60    5.75   0
  -6  -2  32    6.69    5.14   0
  -6   2  32   -1.06    5.94   0
  -5  -2  32    3.18    4.98   0
  -5   2  32    2.77    6.67   0
  -5  -2  32    3.18    5.06   0
  -5   2  32    1.41    4.82   0
  -5  -2  32    0.84    5.08   0
  -5   2  32    0.17    6.74   0
  -4  -2  32    4.08    4.84   0
  -4  -2  32   -1.27    4.47   0
  -4   2  32    1.37    4.26   0
  -4   2  32    0.06    7.65   0
  -4  -2  32   -0.54    4.15   0
  -4   2  32    1.52    7.67   0
  -3   2  32    4.73    4.43   0
  -3  -2  32    7.49    4.31   0
  -3  -2  32   12.61    4.92   0
  -3  -2  32   13.88    5.32   0
  -2  -2  32    8.40    4.68   0
  -2   2  32    6.22    4.24   0
  -2  -2  32   12.49    3.99   0
  -1  -2  32   23.75    4.64   0
  -1   2  32    6.91    4.11   0
  -1  -2  32   19.41    4.05   0
   0  -2  32   54.03    4.56   0
   0   2  32   49.60    4.34   0
   1  -2  32   -0.59    4.77   0
   1   2  32    5.67    3.69   0
   2   2  32    2.25    3.86   0
   2  -2  32    1.18    4.78   0
  -2   2 -32   -1.69    4.67   0
  -3   2 -32   -0.37    4.30   0
   3  -2  32    2.21    4.25   0
   3   2  32   -2.00    3.72   0
   4   2  32   11.99    8.40   0
  -4   2 -32    8.19    5.21   0
   4  -2  32   11.71    5.40   0
  -4  -2 -32   13.73    7.87   0
   4   2  32   15.66    3.92   0
   5   2  32   -0.97    6.39   0
   5  -2  32   -0.16    4.45   0
  -5   2 -32    2.70    4.93   0
   5   2  32    0.19    3.20   0
  -5  -2 -32    2.14    6.19   0
   6   2  32   -1.91    5.97   0
  -6  -2 -32    2.01    5.41   0
  -6   2 -32    7.90    4.50   0
   6  -2  32    1.69    4.40   0
  -7   3  32   17.99    8.31   0
  -6  -3  32    1.01    4.32   0
  -6   3  32   -0.24    7.46   0
  -6  -3  32    1.69    6.24   0
  -6  -3  32   -1.82    4.47   0
  -6   3  32    0.57    7.64   0
  -5  -3  32   -4.95    4.70   0
  -5  -3  32    5.54    4.80   0
  -5   3  32    4.95    5.15   0
  -5  -3  32   14.26    5.55   0
  -4  -3  32   -0.52    4.67   0
  -4   3  32    1.26    4.57   0
  -4  -3  32   -0.81    4.91   0
  -4  -3  32   -1.58    4.07   0
  -3   3  32   22.10    4.64   0
  -3  -3  32   17.65    4.84   0
  -3  -3  32   15.52    4.81   0
  -3  -3  32   -5.30    4.35   0
  -2  -3  32   13.97    4.75   0
  -2   3  32    8.56    4.34   0
  -2  -3  32   14.03    4.61   0
  -1  -3  32   26.35    4.94   0
  -1   3  32    2.65    3.83   0
   0  -3  32   15.34    4.69   0
   0   3  32    8.89    4.24   0
   1  -3  32    0.93    3.97   0
   1   3  32    6.43    3.95   0
   2  -3  32    5.94    4.13   0
  -2   3 -32    3.90    4.59   0
   2   3  32    8.66    3.83   0
  -3   3 -32    6.03    4.17   0
   3   3  32    8.50    3.67   0
   3  -3  32   12.07    4.86   0
  -4   3 -32   -0.72    3.92   0
   4  -3  32    1.28    4.47   0
   4   3  32   -0.41    3.47   0
   5  -3  32    4.38    4.57   0
  -5   3 -32    6.99    4.67   0
   5   3  32   21.21    4.19   0
  -6  -4  32   -0.92    4.69   0
  -6  -4  32    0.84    4.76   0
  -5  -4  32   -1.20    5.15   0
  -5   4  32    4.98    4.82   0
  -5  -4  32    0.50    5.90   0
  -5  -4  32   -1.94    4.44   0
  -4  -4  32    3.14    4.45   0
  -4   4  32    2.07    4.78   0
  -4  -4  32    1.21    5.02   0
  -4  -4  32   -5.53    4.82   0
  -3   4  32    7.27    4.56   0
  -3  -4  32   12.67    5.14   0
  -3  -4  32   24.80    4.17   0
  -2   4  32    0.02    4.17   0
  -2  -4  32   -2.84    3.85   0
  -2  -4  32    3.33    4.87   0
  -1  -4  32   -0.48    3.79   0
  -1   4  32    1.05    4.32   0
   0  -4  32    1.45    3.77   0
   0   4  32    2.01    4.34   0
   1  -4  32    4.80    4.29   0
   1   4  32   -0.94    4.06   0
  -1   4 -32    7.81    3.75   0
   2  -4  32   18.77    4.21   0
  -2   4 -32    3.73    4.25   0
   2   4  32    4.79    3.55   0
  -3   4 -32   15.04    4.34   0
   3   4  32    5.37    4.09   0
   3  -4  32   14.81    4.71   0
  -4   4 -32    3.41    5.15   0
   4   4  32   -4.46    4.37   0
   4  -4  32    3.96    4.74   0
   5  -4  32    6.09    4.53   0
  -4  -5  32   -2.44    4.42   0
  -4   5  32    0.78    5.19   0
  -4  -5  32    2.14    5.57   0
  -4  -5  32    0.46    4.46   0
  -3   5  32   -3.23    4.64   0
  -3  -5  32    2.18    4.31   0
  -3  -5  32    2.93    5.32   0
  -2   5  32   -1.98    4.24   0
  -2  -5  32    0.67    4.19   0
  -2  -5  32    1.22    5.11   0
  -1  -5  32    5.37    4.23   0
  -1   5  32    4.27    4.24   0
   0  -5  32   26.49    4.52   0
   0   5  32   29.65    4.37   0
   1  -5  32    1.37    4.21   0
   1   5  32   -0.06    3.42   0
   2  -5  32    8.44    4.17   0
   2   5  32    1.84    4.39   0
  -2   5 -32   -4.25    4.11   0
  -3   5 -32    0.00    4.57   0
   3   5  32    5.39    4.39   0
   3  -5  32    4.64    4.23   0
  -1   6  32    3.49    4.66   0
   0  -6  32   -0.23    4.37   0
  -7   0  33    0.61    4.72   0
  -7   0  33   -2.22    5.05   0
  -5   0  33   -3.61    5.43   0
  -5   0  33    1.86    5.18   0
  -5   0  33    0.69    4.74   0
  -3   0  33   -1.83    4.94   0
  -3   0  33    1.94    4.91   0
  -3   0  33   -1.58    4.60   0
  -1   0  33    2.12    4.92   0
  -1   0  33    0.40    4.53   0
  -1   0  33    0.55    5.23   0
   1   0  33    1.67    4.97   0
   1   0  33    1.70    3.78   0
   3   0  33   -0.51    4.64   0
  -3   0 -33   -0.16    4.41   0
   5   0  33   25.92    5.30   0
  -7  -1  33    3.34    5.58   0
  -7   1  33   -1.27    5.51   0
  -7  -1  33   -0.08    4.47   0
  -7   1  33    1.72    5.36   0
  -6  -1  33   -2.27    5.61   0
  -6   1  33   -2.43    5.55   0
  -6   1  33   31.13    5.69   0
  -6  -1  33   33.25    6.24   0
  -6  -1  33   33.59    5.16   0
  -6   1  33   38.14    5.87   0
  -5  -1  33    0.65    4.60   0
  -5   1  33    2.18    5.20   0
  -5  -1  33    1.44    5.34   0
  -5   1  33   -0.51    5.32   0
  -5   1  33   -1.87    4.39   0
  -5  -1  33    0.06    5.42   0
  -4  -1  33    9.98    4.85   0
  -4  -1  33   -1.10    4.95   0
  -4   1  33    0.44    5.72   0
  -4   1  33    5.99    4.26   0
  -4  -1  33    4.46    5.35   0
  -4   1  33    5.15    5.81   0
  -3  -1  33   -1.46    4.51   0
  -3   1  33    0.68    6.19   0
  -3   1  33    2.30    6.06   0
  -3   1  33    2.94    4.14   0
  -3  -1  33    0.64    4.80   0
  -3  -1  33    5.24    4.85   0
  -2   1  33    2.71    6.67   0
  -2   1  33    5.43    7.32   0
  -2  -1  33    4.09    4.26   0
  -2   1  33   -2.54    4.38   0
  -2  -1  33    5.40    3.98   0
  -2  -1  33    0.50    4.52   0
  -1   1  33    0.37    7.54   0
  -1  -1  33    0.98    4.30   0
  -1   1  33   -0.73    7.06   0
  -1   1  33   -1.53    3.97   0
  -1  -1  33   -0.69    3.85   0
   0  -1  33   -0.60    4.05   0
   0   1  33    0.07    7.90   0
   0   1  33    0.39    8.02   0
   0   1  33    9.39    3.78   0
   0  -1  33    2.91    4.00   0
   1   1  33   11.31    7.71   0
   1   1  33    7.73    4.18   0
   1  -1  33    3.98    4.76   0
   1   1  33   13.22    7.74   0
   2   1  33    0.61    6.34   0
   2  -1  33    1.80    4.58   0
   2   1  33   -1.71    3.90   0
   3   1  33    1.39    5.66   0
   3  -1  33    0.36    4.33   0
   3   1  33    1.43    4.02   0
   4   1  33    0.69    5.91   0
   4  -1  33   -0.43    4.69   0
  -4  -1 -33    3.03    5.77   0
   5   1  33    1.70    4.91   0
   5  -1  33   -0.25    5.29   0
  -5   1 -33   -0.64    4.77   0
  -5  -1 -33    3.20    5.07   0
   6   1  33    1.63    5.97   0
   6  -1  33   -0.21    5.33   0
  -6  -1 -33    1.30    5.26   0
  -6   1 -33    1.43    5.21   0
  -7  -2  33   -0.18    5.53   0
  -7   2  33    0.87    6.30   0
  -6  -2  33    0.16    5.37   0
  -6   2  33    1.77    6.06   0
  -6  -2  33    4.00    6.19   0
  -6  -2  33   -2.37    5.34   0
  -6   2  33   -1.54    6.40   0
  -6   2  33    0.44    6.57   0
  -5   2  33    7.38    7.03   0
  -5  -2  33    1.94    4.66   0
  -5  -2  33    1.26    4.99   0
  -5   2  33    8.65    5.50   0
  -5  -2  33    5.00    4.77   0
  -5   2  33    4.19    7.19   0
  -4  -2  33   -0.99    5.71   0
  -4  -2  33   10.43    4.97   0
  -4   2  33    6.04    9.71   0
  -4   2  33    3.59    4.92   0
  -4  -2  33    7.46    5.12   0
  -4   2  33    4.12   10.14   0
  -3   2  33   10.02    4.51   0
  -3  -2  33   12.94    4.99   0
  -3  -2  33    9.77    5.02   0
  -3  -2  33   -0.82    4.87   0
  -2  -2  33    0.17    4.15   0
  -2   2  33   -1.87    4.12   0
  -2  -2  33    2.59    4.10   0
  -1  -2  33   55.27    5.09   0
  -1   2  33   57.50    4.67   0
  -1  -2  33   47.78    4.54   0
   0  -2  33    4.53    4.48   0
   0   2  33    3.60    4.18   0
   1  -2  33   26.81    4.60   0
   1   2  33   29.56    4.22   0
  -2   2 -33   13.68    4.44   0
   2   2  33   -1.27    4.26   0
   2  -2  33   10.78    4.72   0
   3  -2  33   29.23    5.52   0
   3   2  33   37.07    4.33   0
  -3   2 -33   39.51    5.77   0
   4   2  33    0.23    8.78   0
  -4   2 -33    4.35    4.54   0
   4  -2  33   -2.65    4.57   0
   4   2  33    8.21    3.88   0
   5   2  33    2.10    7.59   0
  -5  -2 -33    3.30    7.12   0
   5  -2  33    3.93    5.19   0
  -5   2 -33    3.15    4.66   0
   5   2  33    3.35    4.01   0
  -6  -3  33   -1.28    4.85   0
  -6   3  33    0.13    7.80   0
  -6   3  33    0.54    8.43   0
  -6  -3  33   -1.96    4.64   0
  -6  -3  33   -1.72    6.08   0
  -5  -3  33    0.72    4.17   0
  -5  -3  33    1.92    4.75   0
  -5   3  33    1.77    5.04   0
  -5  -3  33    1.28    5.65   0
  -4  -3  33    9.19    4.99   0
  -4   3  33    9.85    4.99   0
  -4  -3  33   10.17    5.56   0
  -4  -3  33    7.56    4.93   0
  -3   3  33    0.41    4.57   0
  -3  -3  33    2.20    4.77   0
  -3  -3  33    3.16    4.19   0
  -3  -3  33    5.23    4.27   0
  -2  -3  33    2.04    4.14   0
  -2   3  33   -2.66    4.34   0
  -2  -3  33   -2.55    5.01   0
  -1  -3  33    2.07    4.44   0
  -1   3  33   -3.81    4.05   0
  -1  -3  33    3.44    4.62   0
   0  -3  33   -0.51    4.60   0
   0   3  33    1.33    4.06   0
   1  -3  33   12.79    4.35   0
   1   3  33    5.81    4.21   0
   2   3  33    5.48    4.05   0
  -2   3 -33   10.13    4.17   0
   2  -3  33    7.82    4.52   0
   3   3  33   -1.90    3.41   0
   3  -3  33   -2.33    4.55   0
  -3   3 -33   -0.86    3.99   0
  -4   3 -33   28.31    4.33   0
   4  -3  33   24.12    4.27   0
   4   3  33    2.82    4.04   0
   5  -3  33    0.15    4.94   0
   5   3  33   -2.18    4.17   0
  -5   3 -33    2.87    5.39   0
  -5  -4  33    3.10    5.16   0
  -5  -4  33    0.79    4.96   0
  -5   4  33    2.79    4.90   0
  -5  -4  33   -1.41    5.42   0
  -4  -4  33    3.46    5.21   0
  -4   4  33   -1.41    4.78   0
  -4  -4  33   -0.64    5.41   0
  -4  -4  33   -0.54    5.18   0
  -3   4  33   40.54    4.94   0
  -3  -4  33   42.18    5.35   0
  -3  -4  33   37.35    5.53   0
  -2   4  33   15.63    4.34   0
  -2  -4  33   12.71    4.64   0
  -2  -4  33   12.83    4.56   0
  -1  -4  33   11.65    4.22   0
  -1   4  33   16.36    4.53   0
   0  -4  33   -2.17    4.12   0
   0   4  33    0.13    4.13   0
   1  -4  33   -2.50    4.06   0
   1   4  33    0.77    3.97   0
   2  -4  33   -0.98    4.63   0
   2   4  33    0.67    3.76   0
  -2   4 -33   -1.45    4.25   0
  -3   4 -33    4.07    4.38   0
   3   4  33    4.20    4.20   0
   3  -4  33    1.01    4.28   0
  -4   4 -33    1.80    4.62   0
   4   4  33    5.62    4.33   0
   4  -4  33   13.02    4.66   0
  -3   5  33    0.62    4.84   0
  -3  -5  33    6.00    4.49   0
  -3  -5  33   -2.07    5.45   0
  -2   5  33    4.32    4.74   0
  -2  -5  33    1.71    4.56   0
  -2  -5  33   -0.90    5.00   0
  -1  -5  33    0.89    4.34   0
  -1   5  33    1.96    4.38   0
   0  -5  33    6.14    4.48   0
   0   5  33   -1.11    4.46   0
   1  -5  33   -0.43    4.45   0
   1   5  33   -2.20    4.31   0
   2  -5  33    6.10    4.56   0
  -2   5 -33   -0.37    4.43   0
   2   5  33   -2.90    4.56   0
  -6   0  34    1.20    5.78   0
  -6   0  34   16.72    6.16   0
  -6   0  34    3.55    6.06   0
  -4   0  34    1.88    4.76   0
  -4   0  34   15.92    5.05   0
  -4   0  34   14.33    5.17   0
  -2   0  34    2.85    5.29   0
  -2   0  34   -1.54    5.06   0
  -2   0  34   -2.23    4.56   0
   0   0  34    8.88    3.98   0
   0   0  34    2.31    5.33   0
   2   0  34    0.54    5.03   0
   2   0  34    1.91    4.09   0
   4   0  34   14.06    5.36   0
  -4   0 -34   19.02    5.23   0
  -6  -1  34   -2.50    4.37   0
  -6   1  34   -0.58    5.64   0
  -6   1  34    3.41    5.64   0
  -6   1  34    0.03    6.04   0
  -6  -1  34    1.73    5.11   0
  -6  -1  34    9.35    6.05   0
  -5   1  34   -0.80    5.80   0
  -5  -1  34    1.04    4.64   0
  -5  -1  34   -3.26    5.00   0
  -5   1  34    0.67    5.53   0
  -5   1  34   -0.81    4.74   0
  -5  -1  34    0.71    5.56   0
  -4  -1  34    1.34    5.27   0
  -4   1  34    2.10    5.95   0
  -4   1  34    0.50    4.47   0
  -4  -1  34    3.07    4.77   0
  -4   1  34   -0.47    5.92   0
  -4  -1  34    0.27    5.39   0
  -3  -1  34   -0.23    5.23   0
  -3   1  34    2.37    7.07   0
  -3   1  34    2.54    6.55   0
  -3   1  34   -0.33    4.55   0
  -3  -1  34   -0.95    5.06   0
  -3  -1  34    2.70    4.26   0
  -2   1  34    0.05    7.37   0
  -2  -1  34   -0.55    4.90   0
  -2   1  34   -1.10    4.37   0
  -2  -1  34   -1.34    3.98   0
  -2  -1  34   -0.80    4.80   0
  -2   1  34    1.23    7.56   0
  -1  -1  34    4.72    4.78   0
  -1   1  34   11.48    8.91   0
  -1   1  34   12.13    9.03   0
  -1   1  34   10.23    4.19   0
  -1  -1  34    6.75    4.60   0
   0  -1  34    1.32    4.57   0
   0   1  34    5.98    9.56   0
   0   1  34    6.24    9.12   0
   0   1  34    6.10    4.28   0
   0  -1  34    5.47    4.05   0
   1   1  34    1.92    8.52   0
   1   1  34    1.95    8.14   0
   1   1  34    0.61    3.92   0
   1  -1  34    1.55    4.52   0
   1  -1  34   -4.58    3.88   0
   2   1  34    0.06    7.38   0
   2  -1  34   -0.75    4.82   0
   2   1  34    2.36    4.04   0
   3   1  34    0.73    6.79   0
   3  -1  34   -1.68    5.11   0
   3   1  34   -0.85    3.88   0
   4   1  34    1.30    6.12   0
  -4  -1 -34    1.68    5.93   0
   4  -1  34    0.94    4.80   0
   4   1  34   -0.16    3.60   0
  -5  -1 -34    1.78    5.47   0
   5   1  34    1.44    5.72   0
   5  -1  34    2.43    5.36   0
  -5   1 -34   15.51    5.40   0
  -6  -2  34   -2.45    4.97   0
  -6   2  34   -0.48    7.21   0
  -6  -2  34   -1.08    5.23   0
  -6   2  34    3.56    5.41   0
  -6  -2  34   -1.53    5.91   0
  -6   2  34   -0.20    6.62   0
  -5  -2  34    0.59    4.68   0
  -5  -2  34   -2.60    5.31   0
  -5   2  34    8.24    5.14   0
  -5  -2  34   -0.15    5.17   0
  -5   2  34    0.81    7.47   0
  -5   2  34   -0.89    7.08   0
  -4  -2  34   -2.84    4.97   0
  -4  -2  34    0.18    5.43   0
  -4   2  34    3.21    4.80   0
  -4  -2  34    1.54    5.06   0
  -3   2  34    4.40    4.54   0
  -3  -2  34    7.32    4.55   0
  -3  -2  34   -0.29    5.26   0
  -3  -2  34    1.83    5.06   0
  -2  -2  34    2.32    4.69   0
  -2   2  34   -0.58    4.37   0
  -2  -2  34    2.79    4.15   0
  -2  -2  34    0.72    4.20   0
  -1  -2  34    6.85    4.16   0
  -1   2  34   14.79    4.47   0
  -1  -2  34    2.28    4.01   0
   0  -2  34   -1.71    4.47   0
   0   2  34    2.83    3.94   0
   0  -2  34    2.35    3.99   0
   1  -2  34    4.00    4.62   0
   1   2  34    1.31    3.62   0
  -2   2 -34    2.79    4.84   0
   2   2  34    1.84    4.04   0
   2  -2  34   -1.73    4.28   0
  -3   2 -34   12.38    5.37   0
   3  -2  34    8.39    5.04   0
   3   2  34   -1.64    3.63   0
  -4   2 -34   -3.40    4.62   0
   4  -2  34    1.18    4.51   0
   4   2  34    1.49    3.99   0
   5   2  34   -0.38    7.41   0
  -5   2 -34    1.55    4.76   0
  -5  -2 -34   -1.58    7.51   0
   5  -2  34    3.17    4.88   0
   5   2  34    2.73    4.01   0
  -5  -3  34   -0.56    4.44   0
  -5  -3  34   -4.17    4.71   0
  -5   3  34   -5.98    5.17   0
  -5  -3  34    1.94    5.70   0
  -4   3  34   19.19    4.83   0
  -4  -3  34   26.98    5.26   0
  -4  -3  34   17.91    4.56   0
  -4  -3  34    8.27    5.07   0
  -3   3  34    7.06    4.73   0
  -3  -3  34   11.66    5.07   0
  -3  -3  34    9.63    4.73   0
  -3  -3  34   -2.10    4.42   0
  -2  -3  34   29.54    5.34   0
  -2   3  34   30.80    4.18   0
  -2  -3  34   30.76    5.05   0
  -1  -3  34    1.36    4.96   0
  -1   3  34   -2.16    4.21   0
  -1  -3  34    3.13    4.02   0
   0  -3  34   -0.19    4.37   0
   0   3  34   -5.16    4.07   0
   1  -3  34   -0.12    4.85   0
   1   3  34   -4.29    4.01   0
  -2   3 -34    1.32    4.74   0
   2   3  34   -2.64    3.94   0
   2  -3  34    0.17    5.20   0
  -3   3 -34    2.24    4.51   0
   3   3  34    0.60    4.00   0
   3  -3  34    2.48    5.01   0
  -4   3 -34    1.03    5.17   0
   4  -3  34    6.37    4.50   0
   4   3  34    0.13    4.15   0
  -4   4  34    0.42    4.94   0
  -4  -4  34    0.57    5.95   0
  -4  -4  34    6.08    4.74   0
  -4  -4  34   -3.49    4.61   0
  -3   4  34   61.80    4.90   0
  -3  -4  34   68.76    5.21   0
  -3  -4  34   57.71    5.76   0
  -2  -4  34    5.65    4.31   0
  -2   4  34    2.35    4.46   0
  -2  -4  34    0.89    4.99   0
  -1  -4  34   18.10    4.60   0
  -1   4  34   12.59    4.30   0
   0  -4  34    0.76    4.46   0
   0   4  34   11.25    4.20   0
   1  -4  34    0.52    4.33   0
   1   4  34    3.63    3.75   0
   2  -4  34    3.68    4.81   0
   2   4  34    0.10    3.77   0
  -2   4 -34    7.91    4.78   0
  -3   4 -34   10.28    4.73   0
   3   4  34    0.82    4.21   0
   3  -4  34    6.84    4.53   0
  -2  -5  34    5.25    5.34   0
  -1  -5  34    7.18    4.78   0
  -1   5  34    6.22    4.09   0
   0  -5  34    1.17    5.37   0
   0   5  34    2.28    4.49   0
  -5   0  35    1.70    5.53   0
  -5   0  35    6.58    5.52   0
  -5   0  35   15.71    4.62   0
  -3   0  35   -1.24    5.05   0
  -3   0  35   -1.26    5.05   0
  -3   0  35   -2.39    4.46   0
  -1   0  35   13.28    5.87   0
  -1   0  35    9.01    6.00   0
  -1   0  35   18.54    4.47   0
   1   0  35   -0.66    5.17   0
   1   0  35   -4.29    4.13   0
   3   0  35    4.92    4.87   0
  -3   0 -35    4.73    4.84   0
   5   0  35   38.69    6.90   0
  -6  -1  35    5.29    6.05   0
  -6   1  35    0.32    5.74   0
  -6   1  35    6.79    6.04   0
  -6  -1  35    2.65    6.42   0
  -5  -1  35    0.59    4.97   0
  -5  -1  35    2.79    4.73   0
  -5   1  35    0.03    5.98   0
  -5   1  35    0.15    4.70   0
  -5  -1  35    1.34    6.14   0
  -5   1  35   -1.00    6.49   0
  -4  -1  35   -2.19    5.34   0
  -4   1  35    5.60    6.37   0
  -4   1  35   -0.81    6.64   0
  -4   1  35    5.82    4.67   0
  -4  -1  35   10.54    5.25   0
  -4  -1  35    6.45    5.01   0
  -3  -1  35    0.63    5.22   0
  -3   1  35    1.19    7.16   0
  -3   1  35    0.46    6.92   0
  -3  -1  35   -1.78    4.73   0
  -3   1  35   -1.74    5.19   0
  -3  -1  35   -0.05    4.82   0
  -2  -1  35    0.05    4.83   0
  -2   1  35    0.51    8.25   0
  -2   1  35   -1.54    4.55   0
  -2  -1  35    0.15    3.77   0
  -2   1  35    1.05    8.54   0
  -2  -1  35    1.86    5.44   0
  -1  -1  35    0.69    4.78   0
  -1   1  35   -0.27    4.13   0
  -1  -1  35    1.47    4.25   0
  -1  -1  35    0.88    4.51   0
   0  -1  35    7.96    4.93   0
   0   1  35    7.11    4.29   0
   0  -1  35   -2.36    4.42   0
   1   1  35    0.20    9.68   0
   1   1  35   -0.93   10.57   0
   1   1  35   -0.41    4.05   0
   1  -1  35   -1.69    5.06   0
   1  -1  35   -3.26    4.04   0
   2   1  35    1.39    7.72   0
   2  -1  35    1.92    4.95   0
   2   1  35    0.49    3.55   0
   3   1  35   40.42    8.52   0
   3  -1  35   46.32    5.73   0
   3   1  35   37.61    4.33   0
   4   1  35    0.06    7.08   0
   4  -1  35    1.46    5.25   0
  -4  -1 -35    2.16    6.50   0
   4   1  35    6.42    4.27   0
  -5   1 -35    0.76    5.24   0
  -5  -1 -35    1.00    5.61   0
  -5  -2  35   -3.54    5.45   0
  -5  -2  35    7.34    5.57   0
  -5   2  35   15.89    5.51   0
  -5  -2  35   13.15    5.96   0
  -5   2  35    9.49    9.12   0
  -5   2  35    7.91    9.39   0
  -4  -2  35    1.55    5.26   0
  -4   2  35    3.98    5.04   0
  -4  -2  35   15.40    5.35   0
  -4  -2  35   -1.48    5.42   0
  -3   2  35   -1.74    4.75   0
  -3  -2  35   -1.27    4.72   0
  -3  -2  35    3.33    4.89   0
  -3  -2  35    5.38    5.59   0
  -2  -2  35    2.67    4.90   0
  -2   2  35    7.18    4.51   0
  -2  -2  35    7.67    4.57   0
  -2  -2  35    4.09    4.79   0
  -1  -2  35    0.61    4.92   0
  -1   2  35    4.11    4.24   0
  -1  -2  35    8.05    3.99   0
   0  -2  35    3.72    4.80   0
   0   2  35   -0.70    4.08   0
   0  -2  35    0.88    4.76   0
   1   2  35    2.04    4.11   0
   1  -2  35    1.77    5.06   0
   2   2  35    0.60    3.81   0
   2  -2  35    0.59    4.72   0
  -3   2 -35   -3.28    5.26   0
   3  -2  35    1.74    5.21   0
   3   2  35    3.63    3.97   0
  -4   2 -35   -0.47    4.47   0
   4  -2  35    2.16    4.79   0
   4   2  35    1.72    4.17   0
  -4   3  35    4.31    4.70   0
  -4  -3  35    1.02    5.20   0
  -4  -3  35   -1.76    4.54   0
  -4  -3  35    1.43    5.01   0
  -3   3  35    5.43    4.47   0
  -3  -3  35    3.12    5.15   0
  -3  -3  35    2.32    5.09   0
  -3  -3  35    0.50    4.53   0
  -2  -3  35    1.63    4.85   0
  -2   3  35   -0.53    4.41   0
  -2  -3  35   -1.61    4.78   0
  -1  -3  35    1.95    4.79   0
  -1   3  35    3.60    4.64   0
  -1  -3  35    2.10    4.21   0
   0  -3  35    7.88    5.19   0
   0   3  35    6.44    4.20   0
   1  -3  35    5.54    5.61   0
   1   3  35   -0.22    3.59   0
   2   3  35   40.77    4.56   0
  -2   3 -35   49.75    5.68   0
   2  -3  35   52.31    5.70   0
  -3   3 -35    8.73    4.66   0
   3   3  35    3.94    4.30   0
   3  -3  35    6.63    5.51   0
  -3   4  35   -4.10    5.11   0
  -3  -4  35   -0.09    4.49   0
  -3  -4  35    0.93    5.15   0
  -3  -4  35   -3.72    4.47   0
  -2  -4  35    5.52    5.27   0
  -2   4  35    5.08    4.31   0
  -2  -4  35   21.00    5.66   0
  -1  -4  35    1.72    4.36   0
  -1   4  35    2.67    3.97   0
  -1  -4  35    1.28    5.01   0
   0  -4  35   13.44    4.96   0
   0   4  35    8.58    4.50   0
   1  -4  35    3.53    4.46   0
   1   4  35    0.89    4.41   0
   2  -4  35    5.65    5.18   0
  -4   0  36   -0.90    4.94   0
  -4   0  36    0.14    4.40   0
  -4   0  36    0.29    4.87   0
  -2   0  36   -1.25    6.20   0
  -2   0  36   15.22    5.80   0
  -2   0  36    3.37    5.08   0
   0   0  36    1.24    6.09   0
   0   0  36    4.87    4.51   0
   0   0  36   -0.57    6.23   0
   2   0  36   -1.38    5.79   0
   2   0  36    0.08    4.23   0
   4   0  36    1.61    5.44   0
  -4   0 -36   -1.41    5.11   0
  -5  -1  36    1.74    5.17   0
  -5  -1  36   -0.81    5.05   0
  -5   1  36    0.16    6.52   0
  -5   1  36    0.69    5.65   0
  -5  -1  36    4.52    5.42   0
  -5   1  36    1.54    6.39   0
  -4  -1  36    2.71    5.52   0
  -4   1  36    0.01    7.40   0
  -4   1  36    3.30    7.52   0
  -4   1  36   11.65    5.47   0
  -4  -1  36   10.08    5.41   0
  -4  -1  36    5.06    5.33   0
  -3  -1  36    0.14    4.72   0
  -3   1  36   -0.26    8.01   0
  -3   1  36   -1.52    8.28   0
  -3  -1  36    0.10    5.19   0
  -3   1  36    0.93    4.54   0
  -3  -1  36    3.30    4.11   0
  -2  -1  36    4.55    5.26   0
  -2  -1  36    1.58    5.12   0
  -2   1  36    3.62   10.56   0
  -2   1  36    4.92    4.54   0
  -2  -1  36    3.84    4.69   0
  -2   1  36    3.91   10.81   0
  -1  -1  36    2.82    4.80   0
  -1   1  36   -1.22    4.35   0
  -1  -1  36    7.40    4.37   0
  -1  -1  36    0.58    4.94   0
   0   1  36    2.49    4.25   0
   0  -1  36    2.86    4.55   0
   0  -1  36    0.63    4.81   0
   1   1  36    2.99    3.57   0
   1  -1  36   -0.74    4.88   0
   1  -1  36   -0.46    4.31   0
   2   1  36    2.78    9.04   0
   2  -1  36    1.54    5.22   0
   2   1  36   -2.04    3.62   0
   2   1  36    1.81    9.10   0
   3   1  36    5.85    7.77   0
  -3   1 -36    7.79    5.45   0
   3  -1  36    0.07    5.60   0
   3   1  36    2.66    4.20   0
   4  -1  36    1.61    5.47   0
   4   1  36    7.40    3.75   0
  -4  -2  36    1.16    5.11   0
  -4   2  36   12.28    4.92   0
  -4  -2  36   13.05    5.36   0
  -4  -2  36   13.90    4.79   0
  -3  -2  36   -1.54    4.50   0
  -3   2  36    0.99    4.68   0
  -3  -2  36   -2.02    5.20   0
  -3  -2  36    1.49    5.30   0
  -2  -2  36    2.24    5.13   0
  -2   2  36    3.57    4.60   0
  -2  -2  36   -0.43    4.69   0
  -2  -2  36    1.26    5.19   0
  -1  -2  36    3.29    5.02   0
  -1   2  36   14.74    4.38   0
  -1  -2  36    0.07    4.30   0
   0  -2  36    2.62    4.73   0
   0   2  36    3.75    4.40   0
   0  -2  36    7.69    4.32   0
   1   2  36    3.26    4.01   0
   1  -2  36    3.30    4.73   0
   2   2  36   -2.06    3.69   0
   2  -2  36   -0.30    4.96   0
  -3   2 -36    3.32    5.07   0
   3  -2  36   -0.69    5.50   0
   3   2  36    2.92    4.27   0
  -3   3  36   -1.26    4.48   0
  -3  -3  36    5.70    4.73   0
  -3  -3  36   -0.45    5.53   0
  -3  -3  36   -0.24    4.50   0
  -2  -3  36    6.10    5.39   0
  -2   3  36    2.63    4.61   0
  -2  -3  36   10.23    4.85   0
  -1  -3  36   -0.87    5.12   0
  -1   3  36    1.48    4.56   0
  -1  -3  36    0.02    4.25   0
   0  -3  36    3.84    5.13   0
   0   3  36    1.44    4.22   0
   1  -3  36    3.27    5.04   0
   1   3  36   -3.86    4.38   0
   2   3  36   -1.47    4.26   0
   2  -3  36    4.31    4.49   0
  -3   0  37    0.45    6.21   0
  -3   0  37   -0.40    5.75   0
  -3   0  37   -1.10    4.92   0
  -1   0  37   -0.76    6.33   0
  -1   0  37    5.49    4.49   0
  -1   0  37    1.46    6.23   0
   1   0  37   -0.08    6.48   0
   1   0  37   -1.47    4.29   0
  -4  -1  37   -8.79    6.07   0
  -4   1  37   27.85    8.29   0
  -4   1  37    8.77    9.02   0
  -4   1  37   33.79    5.45   0
  -4  -1  37   41.85    5.51   0
  -4  -1  37   -6.41    5.84   0
  -3   1  37    1.36    9.25   0
  -3  -1  37    3.75    5.00   0
  -3  -1  37   -0.07    5.58   0
  -3   1  37   -0.05    8.91   0
  -3   1  37    5.90    5.04   0
  -3  -1  37    1.12    4.58   0
  -2  -1  37    0.82    5.51   0
  -2  -1  37   -3.00    5.21   0
  -2   1  37    7.85    4.64   0
  -2  -1  37    3.58    4.90   0
  -1  -1  37    0.48    5.02   0
  -1   1  37   -1.32    4.49   0
  -1  -1  37    3.25    4.29   0
  -1  -1  37   -0.62    5.29   0
   0   1  37   -2.66    4.32   0
   0  -1  37   -3.73    4.47   0
   0  -1  37    0.16    5.30   0
   1  -1  37   -3.21    5.18   0
   1   1  37    0.17    3.82   0
   1  -1  37   -0.48    4.45   0
   2  -1  37   -3.34    5.45   0
   2   1  37    4.12    4.49   0
   2  -1  37    1.45    4.25   0
  -3  -2  37   -0.92    5.51   0
  -3  -2  37   -1.30    4.97   0
  -3   2  37    3.30    4.64   0
  -3  -2  37    9.42    5.77   0
  -2  -2  37    4.57    5.79   0
  -2   2  37   12.50    4.81   0
  -2  -2  37   24.34    5.31   0
  -2  -2  37   -4.58    5.42   0
  -1  -2  37    1.67    5.16   0
  -1   2  37   13.40    4.52   0
  -1  -2  37   14.16    4.87   0
   0  -2  37    0.33    5.14   0
   0   2  37   -3.91    4.84   0
   0  -2  37   17.26    5.11   0
   1   2  37    2.64    4.48   0
   1  -2  37    1.12    4.34   0
   1  -2  37   -0.72    5.32   0
   2   2  37    9.22    4.49   0
   2  -2  37   -2.23    5.17   0
  -1   3  37    4.46    4.88   0
  -1  -3  37   23.17    5.42   0
   0  -3  37   19.67    5.07   0
  -2   0  38    7.07    7.17   0
  -2   0  38   17.10    7.63   0
  -2   0  38   14.41    4.90   0
   0   0  38    0.29    7.62   0
   0   0  38   -0.35    6.93   0
   0   0  38   -1.90    4.29   0
  -2  -1  38    0.72    5.59   0
  -2   1  38    0.51    4.55   0
  -2  -1  38    3.58    4.91   0
  -1  -1  38    1.20    5.11   0
  -1   1  38   -0.36    4.29   0
  -1  -1  38   -2.46    4.51   0
  -1  -1  38    1.42    5.41   0
   0   1  38   -0.80    4.34   0
   0  -1  38   -1.08    4.25   0
   0  -1  38   -1.29    5.15   0
   1   1  38    4.97    4.78   0
   1  -1  38    5.76    4.27   0
  -1  -2  38    0.99    5.72   0
;
_shelx_hkl_checksum              78262
loop_
_space_group_symop_operation_xyz
'x, y, z'
'-x+1/2, y+1/2, -z+1/2'
'-x, -y, -z'
'x-1/2, -y-1/2, z-1/2'
loop_
_atom_site_label
_atom_site_type_symbol
_atom_site_fract_x
_atom_site_fract_y
_atom_site_fract_z
_atom_site_U_iso_or_equiv
_atom_site_adp_type
_atom_site_occupancy
_atom_site_site_symmetry_order
_atom_site_calc_flag
_atom_site_refinement_flags_posn
_atom_site_refinement_flags_adp
_atom_site_refinement_flags_occupancy
_atom_site_disorder_assembly
_atom_site_disorder_group
N1 N 1.02266(16) 0.5455(2) 0.67264(6) 0.0348(4) Uani 1 1 d . . . . .
N2 N 0.77077(15) 0.52746(19) 0.61734(5) 0.0296(4) Uani 1 1 d . . . . .
N3 N 0.86742(15) 0.35326(18) 0.57649(5) 0.0291(3) Uani 1 1 d . . . . .
C1 C 1.0593(2) 0.7150(3) 0.60664(8) 0.0461(5) Uani 1 1 d . . . . .
H1A H 1.0204 0.6372 0.5855 0.069 Uiso 1 1 calc R U . . .
H1B H 1.1264 0.7762 0.5920 0.069 Uiso 1 1 calc R U . . .
H1C H 0.9919 0.7880 0.6165 0.069 Uiso 1 1 calc R U . . .
C2 C 1.2337(2) 0.5268(3) 0.63102(10) 0.0511(6) Uani 1 1 d . . . . .
H2A H 1.2711 0.4640 0.6562 0.077 Uiso 1 1 calc R U . . .
H2B H 1.3005 0.5975 0.6197 0.077 Uiso 1 1 calc R U . . .
H2C H 1.2020 0.4547 0.6071 0.077 Uiso 1 1 calc R U . . .
C3 C 1.1202(2) 0.6278(3) 0.64699(8) 0.0409(5) Uani 1 1 d . . . . .
H3 H 1.1595 0.7118 0.6672 0.049 Uiso 1 1 calc R U . . .
C4 C 1.0488(2) 0.5309(3) 0.72181(7) 0.0394(5) Uani 1 1 d . . . . .
C5 C 1.1871(2) 0.4863(3) 0.73754(9) 0.0551(7) Uani 1 1 d . . . . .
H5A H 1.2117 0.3860 0.7233 0.083 Uiso 1 1 calc R U . . .
H5B H 1.1916 0.4728 0.7702 0.083 Uiso 1 1 calc R U . . .
H5C H 1.2468 0.5714 0.7293 0.083 Uiso 1 1 calc R U . . .
C6 C 1.0126(3) 0.6880(3) 0.74425(9) 0.0571(7) Uani 1 1 d . . . . .
H6A H 1.0721 0.7725 0.7354 0.086 Uiso 1 1 calc R U . . .
H6B H 1.0193 0.6750 0.7769 0.086 Uiso 1 1 calc R U . . .
H6C H 0.9233 0.7172 0.7348 0.086 Uiso 1 1 calc R U . . .
C7 C 0.9532(2) 0.3984(3) 0.73383(8) 0.0432(5) Uani 1 1 d . . . . .
H7A H 0.9869 0.3397 0.7607 0.052 Uiso 1 1 calc R U . . .
H7B H 0.8680 0.4455 0.7404 0.052 Uiso 1 1 calc R U . . .
C8 C 0.9379(2) 0.2848(2) 0.69393(7) 0.0366(5) Uani 1 1 d . . . . .
C9 C 0.8006(2) 0.2151(3) 0.68929(9) 0.0451(5) Uani 1 1 d . . . . .
H9A H 0.7911 0.1525 0.6616 0.068 Uiso 1 1 calc R U . . .
H9B H 0.7369 0.3023 0.6883 0.068 Uiso 1 1 calc R U . . .
H9C H 0.7857 0.1460 0.7150 0.068 Uiso 1 1 calc R U . . .
C10 C 1.0323(2) 0.1440(3) 0.69667(8) 0.0427(5) Uani 1 1 d . . . . .
H10A H 1.0182 0.0820 0.7238 0.064 Uiso 1 1 calc R U . . .
H10B H 1.1218 0.1841 0.6976 0.064 Uiso 1 1 calc R U . . .
H10C H 1.0174 0.0756 0.6703 0.064 Uiso 1 1 calc R U . . .
C11 C 0.97578(18) 0.3956(2) 0.65326(7) 0.0308(4) Uani 1 1 d . . . . .
H11 H 1.0504 0.3437 0.6387 0.037 Uiso 1 1 calc R U . . .
C12 C 0.87016(17) 0.4235(2) 0.61727(6) 0.0273(4) Uani 1 1 d . . . . .
C13 C 0.70640(18) 0.5271(2) 0.57540(7) 0.0324(4) Uani 1 1 d . . . . .
C14 C 0.76585(18) 0.4188(2) 0.54989(7) 0.0322(4) Uani 1 1 d . . . . .
C15 C 0.72697(19) 0.6126(2) 0.65791(7) 0.0335(4) Uani 1 1 d . . . . .
H15 H 0.7855 0.5777 0.6838 0.040 Uiso 1 1 calc R U . . .
C16 C 0.5895(2) 0.5644(3) 0.66862(9) 0.0438(5) Uani 1 1 d . . . . .
H16A H 0.5269 0.6304 0.6511 0.066 Uiso 1 1 calc R U . . .
H16B H 0.5775 0.5802 0.7007 0.066 Uiso 1 1 calc R U . . .
H16C H 0.5756 0.4516 0.6610 0.066 Uiso 1 1 calc R U . . .
C17 C 0.7400(2) 0.7931(3) 0.65436(9) 0.0471(6) Uani 1 1 d . . . . .
H17A H 0.8314 0.8211 0.6508 0.071 Uiso 1 1 calc R U . . .
H17B H 0.7097 0.8431 0.6816 0.071 Uiso 1 1 calc R U . . .
H17C H 0.6874 0.8315 0.6283 0.071 Uiso 1 1 calc R U . . .
C18 C 0.5924(2) 0.6293(3) 0.56220(9) 0.0507(6) Uani 1 1 d . . . . .
H18A H 0.5797 0.6302 0.5295 0.076 Uiso 1 1 calc R U . . .
H18B H 0.6081 0.7386 0.5730 0.076 Uiso 1 1 calc R U . . .
H18C H 0.5145 0.5865 0.5755 0.076 Uiso 1 1 calc R U . . .
C19 C 0.7292(2) 0.3700(3) 0.50308(7) 0.0414(5) Uani 1 1 d . . . . .
H19A H 0.6745 0.2741 0.5035 0.062 Uiso 1 1 calc R U . . .
H19B H 0.8079 0.3468 0.4871 0.062 Uiso 1 1 calc R U . . .
H19C H 0.6809 0.4568 0.4878 0.062 Uiso 1 1 calc R U . . .
C20 C 0.9580(2) 0.2256(2) 0.56265(7) 0.0352(4) Uani 1 1 d . . . . .
H20 H 1.0151 0.1994 0.5897 0.042 Uiso 1 1 calc R U . . .
C21 C 1.0469(2) 0.2836(3) 0.52718(9) 0.0508(6) Uani 1 1 d . . . . .
H21A H 0.9972 0.2948 0.4985 0.076 Uiso 1 1 calc R U . . .
H21B H 1.1173 0.2062 0.5239 0.076 Uiso 1 1 calc R U . . .
H21C H 1.0839 0.3874 0.5361 0.076 Uiso 1 1 calc R U . . .
C22 C 0.8851(3) 0.0738(3) 0.54992(9) 0.0480(6) Uani 1 1 d . . . . .
H22A H 0.8251 0.0473 0.5733 0.072 Uiso 1 1 calc R U . . .
H22B H 0.9471 -0.0138 0.5469 0.072 Uiso 1 1 calc R U . . .
H22C H 0.8358 0.0899 0.5214 0.072 Uiso 1 1 calc R U . . .
S1 S 0.33679(19) 0.0140(2) 0.60028(8) 0.0429(4) Uani 0.600(5) 1 d D . P A 1
O1 O 0.2501(7) 0.1128(9) 0.6211(2) 0.091(3) Uani 0.600(5) 1 d D U P A 1
O2 O 0.4016(13) -0.0958(12) 0.6286(5) 0.093(3) Uani 0.600(5) 1 d D U P A 1
O3 O 0.2863(5) -0.0407(6) 0.55796(15) 0.109(2) Uani 0.600(5) 1 d D U P A 1
S1A S 0.3545(4) 0.0549(4) 0.61450(15) 0.0558(9) Uani 0.400(5) 1 d D . P A 2
O1A O 0.2279(8) 0.0833(16) 0.5996(5) 0.121(5) Uani 0.400(5) 1 d D U P A 2
O2A O 0.3919(15) -0.1099(14) 0.6170(7) 0.098(5) Uani 0.400(5) 1 d D U P A 2
O3A O 0.3996(12) 0.1591(10) 0.6488(2) 0.139(4) Uani 0.400(5) 1 d D U P A 2
F1 F 0.4215(2) 0.2680(3) 0.55879(8) 0.0967(7) Uani 1 1 d . . . . .
C23 C 0.4637(6) 0.1481(7) 0.5837(2) 0.0438(13) Uani 0.600(5) 1 d . . P A 1
F2 F 0.5493(10) 0.0714(13) 0.5586(3) 0.108(3) Uani 0.600(5) 1 d . U P A 1
F3 F 0.5256(6) 0.2091(6) 0.61890(18) 0.132(2) Uani 0.600(5) 1 d . U P A 1
C23A C 0.4370(13) 0.1106(14) 0.5674(4) 0.067(3) Uani 0.400(5) 1 d . . P A 2
F2A F 0.5685(11) 0.1008(19) 0.5797(5) 0.126(6) Uani 0.400(5) 1 d . U P A 2
F3A F 0.4059(15) 0.0419(14) 0.5320(3) 0.204(6) Uani 0.400(5) 1 d . U P A 2
loop_
_atom_site_aniso_label
_atom_site_aniso_U_11
_atom_site_aniso_U_22
_atom_site_aniso_U_33
_atom_site_aniso_U_23
_atom_site_aniso_U_13
_atom_site_aniso_U_12
N1 0.0322(9) 0.0334(9) 0.0385(10) -0.0024(7) -0.0020(7) -0.0024(7)
N2 0.0255(8) 0.0287(8) 0.0342(9) -0.0031(7) -0.0004(6) 0.0043(6)
N3 0.0281(8) 0.0279(8) 0.0308(8) -0.0021(6) -0.0023(6) 0.0034(6)
C1 0.0417(12) 0.0470(13) 0.0499(14) 0.0099(11) 0.0060(10) -0.0041(10)
C2 0.0329(11) 0.0486(13) 0.0729(17) 0.0022(12) 0.0140(11) -0.0018(10)
C3 0.0314(10) 0.0394(11) 0.0519(13) 0.0002(10) 0.0026(9) -0.0012(8)
C4 0.0424(11) 0.0378(11) 0.0370(11) -0.0058(9) -0.0062(9) -0.0011(9)
C5 0.0455(13) 0.0654(16) 0.0524(15) -0.0008(13) -0.0193(11) -0.0040(12)
C6 0.0654(16) 0.0523(15) 0.0531(15) -0.0198(12) -0.0034(12) -0.0028(12)
C7 0.0488(12) 0.0438(12) 0.0369(12) 0.0005(10) 0.0004(9) 0.0025(10)
C8 0.0351(10) 0.0303(10) 0.0440(12) 0.0012(9) -0.0012(9) 0.0005(8)
C9 0.0396(11) 0.0362(11) 0.0595(15) 0.0074(10) 0.0018(10) -0.0055(9)
C10 0.0491(13) 0.0351(11) 0.0434(12) 0.0057(9) -0.0026(10) 0.0097(9)
C11 0.0278(9) 0.0317(9) 0.0323(10) -0.0042(8) -0.0031(7) 0.0053(7)
C12 0.0264(9) 0.0246(8) 0.0307(10) -0.0017(7) -0.0008(7) 0.0016(7)
C13 0.0271(9) 0.0333(10) 0.0362(11) 0.0007(8) -0.0048(8) 0.0028(7)
C14 0.0299(9) 0.0328(9) 0.0333(10) 0.0028(8) -0.0053(8) -0.0002(8)
C15 0.0296(9) 0.0328(10) 0.0383(11) -0.0053(8) 0.0026(8) 0.0056(8)
C16 0.0350(11) 0.0432(12) 0.0537(14) -0.0063(10) 0.0092(10) 0.0039(9)
C17 0.0445(12) 0.0334(11) 0.0639(16) -0.0108(10) 0.0066(11) 0.0024(9)
C18 0.0424(12) 0.0550(14) 0.0532(14) -0.0027(11) -0.0127(11) 0.0182(11)
C19 0.0395(11) 0.0487(12) 0.0352(11) -0.0017(10) -0.0073(9) 0.0025(9)
C20 0.0355(10) 0.0349(10) 0.0349(11) -0.0058(8) 0.0005(8) 0.0095(8)
C21 0.0442(12) 0.0531(14) 0.0563(15) -0.0075(12) 0.0141(11) 0.0033(11)
C22 0.0583(14) 0.0336(11) 0.0523(14) -0.0062(10) 0.0033(11) 0.0053(10)
S1 0.0358(7) 0.0353(8) 0.0584(11) -0.0043(6) 0.0109(6) -0.0007(5)
O1 0.089(5) 0.066(3) 0.124(5) 0.015(3) 0.073(4) 0.038(4)
O2 0.076(5) 0.081(6) 0.120(5) 0.063(4) 0.000(3) 0.010(4)
O3 0.122(4) 0.129(4) 0.076(3) -0.036(3) 0.001(3) -0.075(3)
S1A 0.0584(15) 0.0432(17) 0.067(2) 0.0173(13) 0.0135(14) 0.0083(12)
O1A 0.024(3) 0.108(9) 0.230(15) 0.091(9) 0.005(6) 0.011(4)
O2A 0.048(5) 0.025(3) 0.222(17) 0.035(6) 0.030(7) 0.012(3)
O3A 0.252(12) 0.115(6) 0.047(4) -0.017(4) -0.021(5) 0.002(7)
F1 0.0880(14) 0.0817(13) 0.1221(17) 0.0556(13) 0.0215(12) 0.0017(11)
C23 0.036(2) 0.032(3) 0.063(4) -0.004(2) 0.000(2) -0.0043(18)
F2 0.091(6) 0.088(3) 0.151(7) 0.004(4) 0.078(5) 0.006(3)
F3 0.143(4) 0.122(4) 0.126(4) 0.002(3) -0.055(3) -0.084(3)
C23A 0.072(8) 0.058(6) 0.074(8) -0.014(5) 0.014(5) 0.013(5)
F2A 0.036(3) 0.140(12) 0.205(15) 0.089(10) 0.039(7) 0.018(5)
F3A 0.312(16) 0.221(10) 0.082(5) -0.059(6) 0.064(7) 0.012(10)
loop_
_atom_type_symbol
_atom_type_description
_atom_type_scat_dispersion_real
_atom_type_scat_dispersion_imag
_atom_type_scat_source
C C 0.0033 0.0016 'International Tables Vol C Tables 4.2.6.8 and 6.1.1.4'
H H 0.0000 0.0000 'International Tables Vol C Tables 4.2.6.8 and 6.1.1.4'
N N 0.0061 0.0033 'International Tables Vol C Tables 4.2.6.8 and 6.1.1.4'
O O 0.0106 0.0060 'International Tables Vol C Tables 4.2.6.8 and 6.1.1.4'
F F 0.0171 0.0103 'International Tables Vol C Tables 4.2.6.8 and 6.1.1.4'
S S 0.1246 0.1234 'International Tables Vol C Tables 4.2.6.8 and 6.1.1.4'
loop_
_geom_angle_atom_site_label_1
_geom_angle_atom_site_label_2
_geom_angle_atom_site_label_3
_geom_angle
C11 N1 C3 114.83(17)
C11 N1 C4 111.30(16)
C3 N1 C4 117.40(17)
C12 N2 C13 109.12(16)
C12 N2 C15 124.76(16)
C13 N2 C15 125.66(15)
C12 N3 C14 108.94(16)
C12 N3 C20 125.17(16)
C14 N3 C20 125.89(16)
C3 C1 H1A 109.5
C3 C1 H1B 109.5
H1A C1 H1B 109.5
C3 C1 H1C 109.5
H1A C1 H1C 109.5
H1B C1 H1C 109.5
C3 C2 H2A 109.5
C3 C2 H2B 109.5
H2A C2 H2B 109.5
C3 C2 H2C 109.5
H2A C2 H2C 109.5
H2B C2 H2C 109.5
N1 C3 C1 111.98(17)
N1 C3 C2 117.11(18)
C1 C3 C2 108.0(2)
N1 C3 H3 106.4
C1 C3 H3 106.4
C2 C3 H3 106.4
N1 C4 C5 116.6(2)
N1 C4 C6 109.01(19)
C5 C4 C6 108.6(2)
N1 C4 C7 101.71(16)
C5 C4 C7 110.6(2)
C6 C4 C7 110.2(2)
C4 C5 H5A 109.5
C4 C5 H5B 109.5
H5A C5 H5B 109.5
C4 C5 H5C 109.5
H5A C5 H5C 109.5
H5B C5 H5C 109.5
C4 C6 H6A 109.5
C4 C6 H6B 109.5
H6A C6 H6B 109.5
C4 C6 H6C 109.5
H6A C6 H6C 109.5
H6B C6 H6C 109.5
C8 C7 C4 108.04(18)
C8 C7 H7A 110.1
C4 C7 H7A 110.1
C8 C7 H7B 110.1
C4 C7 H7B 110.1
H7A C7 H7B 108.4
C7 C8 C10 113.41(18)
C7 C8 C9 111.57(19)
C10 C8 C9 107.13(18)
C7 C8 C11 102.32(16)
C10 C8 C11 108.15(17)
C9 C8 C11 114.35(17)
C8 C9 H9A 109.5
C8 C9 H9B 109.5
H9A C9 H9B 109.5
C8 C9 H9C 109.5
H9A C9 H9C 109.5
H9B C9 H9C 109.5
C8 C10 H10A 109.5
C8 C10 H10B 109.5
H10A C10 H10B 109.5
C8 C10 H10C 109.5
H10A C10 H10C 109.5
H10B C10 H10C 109.5
N1 C11 C12 111.34(15)
N1 C11 C8 106.71(16)
C12 C11 C8 116.03(16)
N1 C11 H11 107.5
C12 C11 H11 107.5
C8 C11 H11 107.5
N2 C12 N3 107.49(16)
N2 C12 C11 128.42(17)
N3 C12 C11 123.87(16)
C14 C13 N2 107.53(16)
C14 C13 C18 127.52(19)
N2 C13 C18 124.96(19)
C13 C14 N3 106.88(17)
C13 C14 C19 127.85(18)
N3 C14 C19 125.21(18)
N2 C15 C17 112.69(18)
N2 C15 C16 111.41(17)
C17 C15 C16 111.37(17)
N2 C15 H15 107.0
C17 C15 H15 107.0
C16 C15 H15 107.0
C15 C16 H16A 109.5
C15 C16 H16B 109.5
H16A C16 H16B 109.5
C15 C16 H16C 109.5
H16A C16 H16C 109.5
H16B C16 H16C 109.5
C15 C17 H17A 109.5
C15 C17 H17B 109.5
H17A C17 H17B 109.5
C15 C17 H17C 109.5
H17A C17 H17C 109.5
H17B C17 H17C 109.5
C13 C18 H18A 109.5
C13 C18 H18B 109.5
H18A C18 H18B 109.5
C13 C18 H18C 109.5
H18A C18 H18C 109.5
H18B C18 H18C 109.5
C14 C19 H19A 109.5
C14 C19 H19B 109.5
H19A C19 H19B 109.5
C14 C19 H19C 109.5
H19A C19 H19C 109.5
H19B C19 H19C 109.5
N3 C20 C21 111.87(18)
N3 C20 C22 111.18(18)
C21 C20 C22 113.74(19)
N3 C20 H20 106.5
C21 C20 H20 106.5
C22 C20 H20 106.5
C20 C21 H21A 109.5
C20 C21 H21B 109.5
H21A C21 H21B 109.5
C20 C21 H21C 109.5
H21A C21 H21C 109.5
H21B C21 H21C 109.5
C20 C22 H22A 109.5
C20 C22 H22B 109.5
H22A C22 H22B 109.5
C20 C22 H22C 109.5
H22A C22 H22C 109.5
H22B C22 H22C 109.5
O1 S1 O2 114.8(7)
O1 S1 O3 112.1(4)
O2 S1 O3 118.1(7)
O1 S1 C23 104.0(5)
O2 S1 C23 104.1(6)
O3 S1 C23 101.3(3)
O1A S1A O3A 113.7(8)
O1A S1A O2A 115.5(10)
O3A S1A O2A 118.7(10)
O1A S1A C23A 100.6(8)
O3A S1A C23A 105.5(7)
O2A S1A C23A 99.2(9)
F3 C23 F1 107.1(5)
F3 C23 F2 109.1(7)
F1 C23 F2 104.8(7)
F3 C23 S1 110.7(5)
F1 C23 S1 113.9(4)
F2 C23 S1 110.9(6)
F3A C23A F1 105.5(11)
F3A C23A F2A 114.1(12)
F1 C23A F2A 102.3(11)
F3A C23A S1A 116.8(11)
F1 C23A S1A 110.9(7)
F2A C23A S1A 106.2(10)
loop_
_geom_bond_atom_site_label_1
_geom_bond_atom_site_label_2
_geom_bond_distance
N1 C11 1.454(2)
N1 C3 1.464(3)
N1 C4 1.485(3)
N2 C12 1.343(2)
N2 C13 1.389(3)
N2 C15 1.494(3)
N3 C12 1.351(2)
N3 C14 1.395(2)
N3 C20 1.490(2)
C1 C3 1.518(3)
C1 H1A 0.9800
C1 H1B 0.9800
C1 H1C 0.9800
C2 C3 1.537(3)
C2 H2A 0.9800
C2 H2B 0.9800
C2 H2C 0.9800
C3 H3 1.0000
C4 C5 1.524(3)
C4 C6 1.530(3)
C4 C7 1.537(3)
C5 H5A 0.9800
C5 H5B 0.9800
C5 H5C 0.9800
C6 H6A 0.9800
C6 H6B 0.9800
C6 H6C 0.9800
C7 C8 1.527(3)
C7 H7A 0.9900
C7 H7B 0.9900
C8 C10 1.527(3)
C8 C9 1.530(3)
C8 C11 1.592(3)
C9 H9A 0.9800
C9 H9B 0.9800
C9 H9C 0.9800
C10 H10A 0.9800
C10 H10B 0.9800
C10 H10C 0.9800
C11 C12 1.510(3)
C11 H11 1.0000
C13 C14 1.350(3)
C13 C18 1.490(3)
C14 C19 1.488(3)
C15 C17 1.520(3)
C15 C16 1.521(3)
C15 H15 1.0000
C16 H16A 0.9800
C16 H16B 0.9800
C16 H16C 0.9800
C17 H17A 0.9800
C17 H17B 0.9800
C17 H17C 0.9800
C18 H18A 0.9800
C18 H18B 0.9800
C18 H18C 0.9800
C19 H19A 0.9800
C19 H19B 0.9800
C19 H19C 0.9800
C20 C21 1.514(3)
C20 C22 1.514(3)
C20 H20 1.0000
C21 H21A 0.9800
C21 H21B 0.9800
C21 H21C 0.9800
C22 H22A 0.9800
C22 H22B 0.9800
C22 H22C 0.9800
S1 O1 1.386(5)
S1 O2 1.397(8)
S1 O3 1.419(4)
S1 C23 1.810(6)
S1A O1A 1.378(9)
S1A O3A 1.407(8)
S1A O2A 1.433(9)
S1A C23A 1.742(13)
F1 C23 1.311(7)
F1 C23A 1.349(12)
C23 F3 1.306(7)
C23 F2 1.347(10)
C23A F3A 1.232(14)
C23A F2A 1.389(19)
