#------------------------------------------------------------------------------
#$Date: 2017-09-28 16:14:00 +0300 (Thu, 28 Sep 2017) $
#$Revision: 201441 $
#$URL: file:///home/coder/svn-repositories/cod/cif/1/54/74/1547439.cif $
#------------------------------------------------------------------------------
#
# This file is available in the Crystallography Open Database (COD),
# http://www.crystallography.net/
#
# All data on this site have been placed in the public domain by the
# contributors.
#
data_1547439
loop_
_publ_author_name
'Anuradha R. Pallipurath'
'Jonathan M. Skelton'
'Mark R. Warren'
'Naghmeh Kamali'
'Patrick McArdle'
'Andrea Erxleben'
_publ_section_title
;
 Sulfamerazine: Understanding the Influence of Slip Planes in the
 Polymorphic Phase Transformation through X-Ray Crystallographic Studies
 and ab Initio Lattice Dynamics
;
_journal_name_full               'Molecular Pharmaceutics'
_journal_page_first              3735
_journal_page_last               3748
_journal_paper_doi               10.1021/acs.molpharmaceut.5b00504
_journal_volume                  12
_journal_year                    2015
_chemical_formula_moiety         'C11 H12 N4 O2 S'
_chemical_formula_sum            'C11 H12 N4 O2 S'
_chemical_formula_weight         264.31
_chemical_name_common            Sulfamerazine
_chemical_name_systematic        4-amino-N-(4-methylpyrimidin-2-yl)
_space_group_crystal_system      orthorhombic
_space_group_IT_number           61
_space_group_name_Hall           '-P 2ac 2ab'
_space_group_name_H-M_alt        'P b c a'
_symmetry_space_group_name_Hall  '-P 2ac 2ab'
_symmetry_space_group_name_H-M   'P b c a'
_atom_sites_solution_hydrogens   mixed
_cell_angle_alpha                90
_cell_angle_beta                 90
_cell_angle_gamma                90
_cell_formula_units_Z            8
_cell_length_a                   9.0972(2)
_cell_length_b                   11.5751(2)
_cell_length_c                   22.8531(3)
_cell_measurement_reflns_used    8097
_cell_measurement_temperature    180
_cell_measurement_theta_max      29.4760
_cell_measurement_theta_min      2.7640
_cell_volume                     2406.45(7)
_computing_cell_refinement
;
CrysAlisPro, Agilent Technologies,
Version 1.171.37.34 (release 22-05-2014 CrysAlis171 .NET)
(compiled May 22 2014,16:03:01)
;
_computing_data_collection
;
CrysAlisPro, Agilent Technologies,
Version 1.171.37.34 (release 22-05-2014 CrysAlis171 .NET)
(compiled May 22 2014,16:03:01)
;
_computing_data_reduction
;
CrysAlisPro, Agilent Technologies,
Version 1.171.37.34 (release 22-05-2014 CrysAlis171 .NET)
(compiled May 22 2014,16:03:01)
;
_computing_molecular_graphics    OSCAIL
_computing_structure_refinement  'SHELXL-2014/7 (Sheldrick, 2014)'
_computing_structure_solution    SHELXT
_diffrn_ambient_temperature      180
_diffrn_measured_fraction_theta_full 0.989
_diffrn_measured_fraction_theta_max 0.972
_diffrn_measurement_device       'CrystalLogic Kappa (3 circle)'
_diffrn_measurement_device_type  'Rigaku Saturn724+ (2x2 bin mode)'
_diffrn_measurement_method
;
omega rotation with 1 degree frames
;
_diffrn_measurement_specimen_support 'MiTeGen loop'
_diffrn_radiation_monochromator  'double crystal Silicon 111'
_diffrn_radiation_source         'Diamond Light Source Beamline I19'
_diffrn_radiation_type           Synchrotron
_diffrn_radiation_wavelength     0.68890
_diffrn_reflns_av_R_equivalents  0.0688
_diffrn_reflns_av_unetI/netI     0.0430
_diffrn_reflns_Laue_measured_fraction_full 0.989
_diffrn_reflns_Laue_measured_fraction_max 0.972
_diffrn_reflns_limit_h_max       10
_diffrn_reflns_limit_h_min       -12
_diffrn_reflns_limit_k_max       13
_diffrn_reflns_limit_k_min       -16
_diffrn_reflns_limit_l_max       32
_diffrn_reflns_limit_l_min       -31
_diffrn_reflns_number            21374
_diffrn_reflns_point_group_measured_fraction_full 0.989
_diffrn_reflns_point_group_measured_fraction_max 0.972
_diffrn_reflns_theta_full        24.415
_diffrn_reflns_theta_max         29.476
_diffrn_reflns_theta_min         1.727
_exptl_absorpt_coefficient_mu    0.269
_exptl_absorpt_correction_T_max  1.00000
_exptl_absorpt_correction_T_min  0.95712
_exptl_absorpt_correction_type   multi-scan
_exptl_absorpt_process_details
;
CrysAlisPro, Agilent Technologies,
Version 1.171.36.28 (release 01-02-2013 CrysAlis171 .NET)
Empirical absorption correction using spherical harmonics,
implemented in SCALE3 ABSPACK scaling algorithm.
;
_exptl_crystal_colour            Colourless
_exptl_crystal_density_diffrn    1.459
_exptl_crystal_description       Parallelepiped
_exptl_crystal_F_000             1104
_exptl_crystal_size_max          0.50
_exptl_crystal_size_mid          0.40
_exptl_crystal_size_min          0.20
_refine_diff_density_max         0.402
_refine_diff_density_min         -0.413
_refine_diff_density_rms         0.064
_refine_ls_extinction_coef       .
_refine_ls_extinction_method     none
_refine_ls_goodness_of_fit_ref   0.992
_refine_ls_hydrogen_treatment    mixed
_refine_ls_matrix_type           full
_refine_ls_number_parameters     176
_refine_ls_number_reflns         3566
_refine_ls_number_restraints     0
_refine_ls_restrained_S_all      0.992
_refine_ls_R_factor_all          0.0653
_refine_ls_R_factor_gt           0.0458
_refine_ls_shift/su_max          0.000
_refine_ls_shift/su_mean         0.000
_refine_ls_structure_factor_coef Fsqd
_refine_ls_weighting_details
'w=1/[\s^2^(Fo^2^)+(0.0463P)^2^+1.4827P] where P=(Fo^2^+2Fc^2^)/3'
_refine_ls_weighting_scheme      calc
_refine_ls_wR_factor_gt          0.1047
_refine_ls_wR_factor_ref         0.1175
_reflns_Friedel_coverage         0.000
_reflns_Friedel_fraction_full    .
_reflns_Friedel_fraction_max     .
_reflns_number_gt                2723
_reflns_number_total             3566
_reflns_threshold_expression     'I > 2\s(I)'
_cod_data_source_file            Exp_Form-II2FSynchrotron_Form-II_180K.cif
_cod_data_source_block           180k_smz-f2_a
_cod_database_code               1547439
_shelx_space_group_comment
;
The symmetry employed for this shelxl refinement is uniquely defined
by the following loop, which should always be used as a source of
symmetry information in preference to the above space-group names.
They are only intended as comments.
;
_shelx_estimated_absorpt_t_min   0.877
_shelx_estimated_absorpt_t_max   0.948
_shelx_res_file
;

    180k_smz-f2_a.res created by SHELXL-2014/7

TITL 180k_smz-f2_a.res in Pbca
REM Old TITL 044_180K_SulfamerazineF2_ in Pbca
REM SHELXT solution in Pbca
REM R1 0.107,  Rweak 0.261,  Alpha 0.021,  Orientation as input
REM Formula found by SHELXT:  C12 N3 O2 S
CELL  0.68890   9.0972  11.5751  22.8531   90.000   90.000   90.000
ZERR    8.000   0.0002   0.0002   0.0003    0.000    0.000    0.000
REM SG 61 8 8 Pbca P21/b21/c21/a PGmmm Orthorhombic
LATT 1
REM SG  ASUN  1  .5 .5 .5
REM SG  ORGN  at Inv.cen.
SYMM 0.5-X,-Y,0.5+Z
SYMM -X,0.5+Y,0.5-Z
SYMM 0.5+X,0.5-Y,-Z
SFAC C H N O S
UNIT 88 96  32  16  8
FMAP 2
PLAN -32
BOND $H
L.S. 12
SIZE    0.50  0.40  0.20
ACTA
CONF
REM Instructions for potential hydrogen bonds
EQIV $1 -x+1/2, y+1/2, z
HTAB C6 O1_$1
EQIV $2 -x+1, -y+1, -z+1
HTAB C8 O2_$2
EQIV $3 x+1, y, z
HTAB C9 O2_$3
HTAB N2 N4_$2
EQIV $4 x+1/2, y, -z+1/2
HTAB N1 O2_$4
EQIV $5 -x+1, y+1/2, -z+1/2
HTAB N1 O1_$5
HTAB N1 N3_$5
LIST 4
WGHT    0.046300    1.482700
FVAR       0.55510
S1    5    0.331665    0.345962    0.389685    11.00000    0.02404    0.02431 =
         0.02115   -0.00167   -0.00034   -0.00280
O2    4    0.196505    0.397014    0.409663    11.00000    0.02175    0.04006 =
         0.02511   -0.00204    0.00035   -0.00137
O1    4    0.341650    0.222934    0.386507    11.00000    0.04081    0.02377 =
         0.02822   -0.00055   -0.00117   -0.00517
N4    3    0.666890    0.426090    0.485404    11.00000    0.02463    0.02916 =
         0.02426   -0.00236   -0.00265    0.00092
N3    3    0.655878    0.284782    0.408799    11.00000    0.02749    0.02634 =
         0.02700   -0.00113    0.00242    0.00328
N2    3    0.451350    0.395116    0.437246    11.00000    0.02337    0.02800 =
         0.02518   -0.00790   -0.00197    0.00414
N1    3    0.454308    0.532514    0.154472    11.00000    0.04699    0.03184 =
         0.02933    0.00434    0.01115    0.00291
C1    1    0.374535    0.403601    0.321495    11.00000    0.02640    0.02530 =
         0.02211   -0.00171   -0.00009   -0.00174
C2    1    0.447655    0.336528    0.280127    11.00000    0.03757    0.02743 =
         0.02824   -0.00028    0.00549    0.00688
AFIX  43
H2    2    0.476909    0.261783    0.289465    11.00000   -1.30000
AFIX   0
C3    1    0.476699    0.380800    0.225376    11.00000    0.04221    0.02837 =
         0.02886   -0.00240    0.00994    0.00571
AFIX  43
H3    2    0.527038    0.335870    0.198235    11.00000   -1.30000
AFIX   0
C4    1    0.431477    0.492724    0.209903    11.00000    0.03015    0.02864 =
         0.02567   -0.00041    0.00340   -0.00479
C5    1    0.358047    0.559280    0.252291    11.00000    0.03606    0.02155 =
         0.03118   -0.00015    0.00386   -0.00015
AFIX  43
H5    2    0.327475    0.633748    0.243055    11.00000   -1.30000
AFIX   0
C6    1    0.330728    0.515484    0.307478    11.00000    0.02892    0.02280 =
         0.02798   -0.00368    0.00368   -0.00111
AFIX  43
H6    2    0.283092    0.560727    0.335251    11.00000   -1.30000
AFIX   0
C7    1    0.598038    0.365921    0.443091    11.00000    0.02430    0.02458 =
         0.02125    0.00215   -0.00002   -0.00021
C8    1    0.808572    0.400580    0.493016    11.00000    0.02234    0.03980 =
         0.02730    0.00153   -0.00331    0.00004
AFIX  43
H8    2    0.861119    0.440028    0.521640    11.00000   -1.30000
AFIX   0
C9    1    0.880079    0.318331    0.460262    11.00000    0.02043    0.04134 =
         0.03036    0.00643    0.00118    0.00515
AFIX  43
H9    2    0.979094    0.302154    0.466208    11.00000   -1.30000
AFIX   0
C10   1    0.799470    0.260559    0.418176    11.00000    0.02935    0.02833 =
         0.02969    0.00636    0.00605    0.00644
C11   1    0.867040    0.167322    0.381352    11.00000    0.03776    0.04044 =
         0.04520   -0.00417    0.00922    0.01322
AFIX 137
H11A  2    0.820009    0.094943    0.389729    11.00000   -1.30000
H11B  2    0.970021    0.161594    0.390054    11.00000   -1.30000
H11C  2    0.854328    0.185769    0.340711    11.00000   -1.30000
AFIX   0
H1N2  2    0.415720    0.444192    0.458596    11.00000    0.03550
H1N1  2    0.514862    0.492818    0.133845    11.00000    0.04112
H2N1  2    0.447365    0.603453    0.146827    11.00000    0.05355
HKLF 4

REM  180k_smz-f2_a.res in Pbca
REM R1 =  0.0458 for    2723 Fo > 4sig(Fo)  and  0.0653 for all    3566 data
REM    176 parameters refined using      0 restraints

END

WGHT      0.0488      0.8762

REM Highest difference peak  0.402,  deepest hole -0.413,  1-sigma level  0.064
Q1    1   0.3581  0.3783  0.3517  11.00000  0.05    0.40
Q2    1   0.3844  0.3605  0.3012  11.00000  0.05    0.34
Q3    1   0.6355  0.3865  0.4692  11.00000  0.05    0.30
Q4    1   0.4307  0.3622  0.2513  11.00000  0.05    0.28
Q5    1   0.4792  0.4467  0.2244  11.00000  0.05    0.27
Q6    1   0.8328  0.2207  0.3967  11.00000  0.05    0.25
Q7    1   0.6398  0.3342  0.4220  11.00000  0.05    0.25
Q8    1   0.3363  0.5353  0.2812  11.00000  0.05    0.25
Q9    1   0.3386  0.4420  0.3127  11.00000  0.05    0.25
Q10   1   0.8328  0.3665  0.4725  11.00000  0.05    0.24
Q11   1   0.5970  0.2512  0.3895  11.00000  0.05    0.24
Q12   1   0.3807  0.5249  0.2328  11.00000  0.05    0.24
Q13   1   0.6191  0.4421  0.5128  11.00000  0.05    0.23
Q14   1   0.8410  0.2840  0.4413  11.00000  0.05    0.22
Q15   1   0.1819  0.3640  0.4523  11.00000  0.05    0.21
Q16   1   0.4289  0.4992  0.1888  11.00000  0.05    0.21
Q17   1   0.1024  0.3080  0.3908  11.00000  0.05    0.21
Q18   1   0.7409  0.2894  0.4089  11.00000  0.05    0.21
Q19   1   0.3473  0.1619  0.3360  11.00000  0.05    0.20
Q20   1   0.2059  0.3462  0.3922  11.00000  0.05    0.20
Q21   1   0.3819  0.4638  0.1067  11.00000  0.05    0.20
Q22   1   0.1556  0.3930  0.4121  11.00000  0.05    0.20
Q23   1   0.2227  0.1446  0.4382  11.00000  0.05    0.19
Q24   1   0.8545  0.4604  0.5398  11.00000  0.05    0.19
Q25   1   0.6371  0.3028  0.2019  11.00000  0.05    0.19
Q26   1   0.1647  0.4814  0.4496  11.00000  0.05    0.19
Q27   1   0.3410  0.2715  0.3709  11.00000  0.05    0.18
Q28   1   0.6476  0.4445  0.2920  11.00000  0.05    0.18
Q29   1   0.7282  0.4021  0.4859  11.00000  0.05    0.18
Q30   1   0.3806  0.1958  0.3602  11.00000  0.05    0.18
Q31   1   0.5500  0.3040  0.3080  11.00000  0.05    0.18
Q32   1   0.3000  0.7196  0.2751  11.00000  0.05    0.18
;
_shelx_res_checksum              17188
_shelx_hkl_file
;
   0   0   2  876.94   15.57
   0   0   3   -0.87    1.48
   0   0   3    1.56    0.80
   0   0   4 2967.92   40.96
   0   0   4 2966.61   40.12
   0   0   5   -1.43    1.47
   0   0   5   -2.55    1.61
   0   0   6 7762.93   80.14
   0   0   6 7976.77   79.93
   0   0   7    0.85    1.60
   0   0   7   -0.27    0.98
   0   0   8 1170.50   35.57
   0   0   8 1209.42   36.28
   0   0   9    2.70    3.63
   0   0   9    0.37    1.87
   0   0  10 6118.17   90.43
   0   0  11   -2.71    2.37
   0   0  11    0.96    2.88
   0   0  12   -1.83    4.26
   0   0  12   -1.12    3.41
   0   0  13   -1.86    2.91
   0   0  13   -1.18    4.21
   0   0  14  868.82   41.34
   0   0  14  794.67   38.29
   0   0  15   -0.58    3.72
   0   0  15    1.45    5.29
   0   0  16   15.27    6.00
   0   0  16   18.15    7.10
   0   0  17    8.09    5.62
   0   0  17   -0.37    2.31
   0   0  18 1502.43   59.62
   0   0  18 1535.89   61.98
   0   0  19   -3.26    4.62
   0   0  19    8.67    7.60
   0   0  20  208.86   23.24
   0   0  20  182.31   22.23
   0   0  21   -3.11    5.03
   0   0  21   -3.76    5.52
   0   0  22  306.60   30.41
   0   0  22  270.32   27.94
   0   0  23    2.89    6.36
   0   0  23    3.52    5.02
   0   0  24  114.14   20.38
   0   0  24   98.17   16.85
   0   0  25   -1.95    7.51
   0   0  25    3.12    3.38
   0   0  26   90.23   17.96
   0   0  26   60.50   13.77
   0   0  27   -6.00    7.23
   0   0  27    3.55    3.35
   0   0  28   75.40   17.25
   0   0  28   91.71   18.05
   0   0  29   -1.61    6.90
   0   0  29   -7.83    8.25
   0   0  30  280.63   33.92
   0   0  30  424.34   38.87
   0   0  31    5.03    3.79
   0   0  31    3.01    5.22
   0   0  32   15.61   12.19
   0   0  32   -4.89    5.03
   0  -1   0    0.01    0.28
   0  -1   0    0.64    0.82
   0  -1   1   -0.34    0.82
   0   1   1    0.07    0.72
   0  -1   1    0.51    0.94
   0  -1  -1    0.40    0.46
   0  -1   2   -0.42    0.66
   0   1   2   -0.33    0.62
   0   1   2    0.15    0.65
   0  -1   2    0.48    0.78
   0  -1   3   -0.01    0.71
   0   1   3    0.81    0.84
   0   1   3    0.02    0.59
   0  -1   3    0.38    0.76
   0  -1   4    0.79    0.95
   0  -1   4   -0.60    0.99
   0   1   4   -1.45    1.78
   0  -1   4   -0.64    0.56
   0   1   4    0.93    1.14
   0  -1   5    1.03    0.97
   0   1   5    1.66    1.39
   0   1   5    1.30    2.31
   0  -1   5    1.50    2.11
   0  -1   5   -0.27    1.72
   0  -1   6   -1.25    1.94
   0   1   6   -0.56    1.13
   0   1   6   -1.10    1.38
   0  -1   6    0.27    1.13
   0  -1   7   -0.68    1.86
   0  -1   7   -1.63    1.86
   0   1   7    1.77    3.05
   0   1   7    1.86    2.14
   0   1   8   -0.33    2.50
   0   1   8    1.17    1.01
   0  -1   8   -0.35    1.78
   0  -1   8    2.29    3.15
   0  -1   9   -0.92    2.73
   0  -1   9    3.25    3.94
   0   1   9   -1.20    1.14
   0   1   9   -0.06    2.68
   0  -1  10    3.67    3.39
   0  -1  10    1.58    2.57
   0   1  10   -0.02    2.15
   0   1  10    1.74    3.00
   0  -1  11    0.75    2.54
   0  -1  11   -0.51    1.43
   0   1  11   -1.59    2.90
   0   1  11    0.76    3.99
   0   1  12   -0.80    2.91
   0   1  12    4.37    1.39
   0  -1  12    2.36    2.75
   0  -1  12    0.94    1.40
   0  -1  13    8.67    5.33
   0   1  13   -0.07    1.84
   0   1  13    0.96    2.48
   0  -1  13    0.76    3.45
   0   1  14   -1.28    4.31
   0   1  14   -0.03    2.45
   0  -1  14    0.31    2.93
   0  -1  14   -2.62    4.12
   0   1  15    0.43    3.56
   0   1  15   -0.94    3.81
   0  -1  15   -3.97    3.67
   0  -1  15   -1.02    3.72
   0   1  16    0.37    5.42
   0  -1  16    3.14    4.20
   0   1  16   -0.81    2.47
   0  -1  16    2.37    2.43
   0  -1  17    3.50    4.38
   0  -1  17    3.56    4.82
   0   1  17   -0.29    2.70
   0   1  17   -1.53    3.41
   0  -1  18   -4.54    7.69
   0  -1  18    4.87    5.88
   0   1  18    2.24    4.40
   0   1  18    1.14    4.75
   0  -1  19   -4.02    2.89
   0  -1  19    1.10    2.53
   0   1  19    0.19    5.58
   0   1  19    1.19    3.50
   0  -1  20   -5.04    5.84
   0   1  20   -0.18    3.91
   0   1  20    2.11    2.88
   0  -1  20    1.32    4.80
   0  -1  21    1.78    3.89
   0  -1  21   -8.52    4.48
   0   1  21    0.33    8.35
   0   1  21    2.32    6.35
   0  -1  22    7.37    7.08
   0   1  22   -2.76    5.49
   0   1  22   -2.69    3.67
   0  -1  22    0.45    3.87
   0  -1  23   -3.12    3.18
   0  -1  23    1.48    5.00
   0   1  23   -1.88    3.26
   0   1  23   -4.00    5.92
   0  -1  24    0.18    2.00
   0  -1  24   -1.31    4.94
   0   1  24   -0.50    3.02
   0  -1  25   -1.47    4.51
   0   1  25    6.47    8.46
   0   1  25   -0.32    4.23
   0  -1  25    5.84    7.85
   0  -1  26   -2.09    2.83
   0   1  26    4.26   10.63
   0   1  26    3.12    4.56
   0  -1  26   -0.08    5.52
   0   1  27   -2.49    6.50
   0   1  27   -3.54    5.06
   0  -1  27    1.29    3.32
   0  -1  27   -5.36    5.55
   0   1  28    3.78    5.08
   0  -1  28    1.99    6.19
   0  -1  28   -3.65    5.45
   0   1  28    0.42    5.22
   0  -1  29    6.99    7.15
   0   1  29  -10.00    8.83
   0  -1  29   -3.97    8.53
   0   1  29   -2.57    3.19
   0  -1  30    1.73    6.78
   0   1  30    2.78    6.89
   0  -1  30    3.01    2.84
   0   1  30   -6.48    5.20
   0  -1  31    6.45    6.68
   0  -1  31   15.93   13.10
   0   1  31   -0.67    5.66
   0   1  31    0.22    5.86
   0   1  32    5.70    3.35
   0  -1  32    1.00    6.14
   0  -1  32   -0.86    6.26
   0   1  32   -1.68    3.32
   0  -2   0    7.10    2.22
   0  -2   0    5.78    1.85
   0  -2   1 8159.27   67.50
   0  -2   1 8246.59   69.56
   0  -2  -1 8255.62   68.61
   0  -2   2 4255.75   52.61
   0  -2  -2 4397.20   51.60
   0  -2   2 4393.04   52.44
   0  -2   3 9686.66   83.15
   0   2   3 9727.52   68.44
   0   2   3 9999.00   79.47
   0  -2   3 9731.14   80.03
   0  -2  -3 9708.59   83.18
   0  -2   4 7602.85   78.05
   0   2   4 7993.28   68.48
   0   2   4 7768.33   75.41
   0  -2  -4 7887.01   77.54
   0  -2   4 7801.44   74.39
   0  -2   5 8609.90   81.88
   0   2   5 8361.04   83.43
   0   2   5 8432.46   77.63
   0  -2   6 8784.87   92.37
   0  -2   6 8492.44   88.93
   0   2   6 8359.06   89.50
   0   2   6 8173.95   84.49
   0  -2   6 8619.31   87.76
   0  -2   7   94.00   10.07
   0   2   7  106.79   10.70
   0   2   7   93.76    9.92
   0  -2   7   90.70    9.88
   0  -2   7  105.93   10.66
   0   2   8  508.63   24.26
   0   2   8  600.36   25.91
   0  -2   8  555.59   25.49
   0  -2   8  616.47   27.07
   0  -2   8  570.75   26.71
   0   2   9 1960.73   49.92
   0  -2   9 1902.01   50.61
   0  -2   9 1906.89   49.28
   0   2  10 1005.92   37.32
   0   2  10  896.88   35.43
   0  -2  10  966.81   36.57
   0  -2  10 1020.07   38.53
   0  -2  11 1362.80   45.43
   0  -2  11 1321.81   46.03
   0   2  11 1291.65   44.70
   0   2  11 1289.67   44.48
   0  -2  12  547.70   30.01
   0   2  12  609.91   32.17
   0   2  12  559.45   30.71
   0  -2  12  532.53   30.72
   0  -2  13  142.59   16.03
   0   2  13  143.33   16.06
   0   2  13  143.23   16.32
   0  -2  13  154.97   16.98
   0   2  14  919.16   42.78
   0   2  14  794.95   38.58
   0  -2  14  911.17   41.02
   0  -2  14  814.39   41.05
   0  -2  15   31.78    9.31
   0   2  15   31.05    8.26
   0  -2  15   36.70    8.31
   0   2  15   37.00    8.19
   0  -2  16   89.44   14.60
   0  -2  16  120.83   16.11
   0   2  16   72.61   13.92
   0   2  16  109.04   15.46
   0   2  17  576.49   36.82
   0   2  17  546.52   35.37
   0  -2  17  607.91   37.35
   0  -2  17  554.78   37.20
   0   2  18  343.90   29.01
   0   2  18  382.84   30.35
   0  -2  18  332.97   29.40
   0  -2  18  307.41   27.10
   0   2  19  855.59   48.05
   0   2  19  771.17   43.59
   0  -2  19  831.24   45.59
   0  -2  19  701.32   43.21
   0   2  20  126.07   18.65
   0   2  20  129.06   18.42
   0  -2  20  100.34   17.01
   0  -2  20  138.24   19.43
   0  -2  21   73.77   15.88
   0   2  21   60.45   12.11
   0  -2  21   77.70   13.93
   0   2  21   65.54   12.68
   0   2  22    4.86    4.37
   0   2  22    2.04    7.32
   0  -2  22    8.55    7.06
   0  -2  22    8.56    7.70
   0   2  23  582.91   43.39
   0  -2  23  594.88   43.03
   0  -2  23  606.31   43.18
   0   2  23  669.09   44.47
   0   2  24   26.21    8.86
   0  -2  24   21.29   12.29
   0  -2  24    7.30    3.61
   0   2  24    6.48    5.03
   0   2  25   21.79    8.23
   0  -2  25    8.87    4.47
   0   2  25    5.42    5.62
   0  -2  25   13.91    7.22
   0  -2  26  144.56   22.55
   0   2  26  132.00   19.70
   0   2  26  167.25   23.92
   0  -2  26  148.49   23.93
   0   2  27   15.73    8.45
   0  -2  27   -0.10    4.43
   0  -2  27   13.16    7.67
   0  -2  28   13.92    4.92
   0   2  28   20.29   10.02
   0   2  28   14.29    8.43
   0  -2  28   12.92    8.35
   0  -2  29  109.53   19.19
   0   2  29  109.76   19.79
   0   2  29   91.84   18.55
   0  -2  29   96.54   20.06
   0   2  30   -0.25    7.05
   0  -2  30    2.33    6.69
   0   2  30    7.47    6.42
   0  -2  30   17.80    5.94
   0  -2  31   18.06   12.85
   0  -2  31   -1.62    8.70
   0   2  31    3.30    8.84
   0   2  31   19.14    9.11
   0  -2  32   59.19   17.51
   0  -2  32   72.28   15.61
   0   2  32   46.59   10.79
   0   2  32   58.53   16.42
   0  -3   0    0.75    1.39
   0  -3   0    0.48    1.57
   0  -3   1   -0.79    0.87
   0   3   1   -0.68    1.38
   0  -3   1    3.58    2.42
   0  -3  -1    2.03    2.71
   0   3   2    0.76    0.87
   0  -3  -2    0.87    1.45
   0  -3   2    0.05    2.11
   0  -3   2    1.17    1.55
   0   3   2   -1.84    1.21
   0  -3  -3   -0.87    2.06
   0   3   3   -0.73    1.34
   0  -3   3   -1.21    2.25
   0   3   3   -1.47    1.97
   0  -3   3    0.53    2.63
   0  -3   4   -1.42    2.18
   0   3   4   -1.67    2.97
   0  -3  -4    1.12    2.56
   0  -3   4   -0.47    1.57
   0   3   4    1.77    2.00
   0  -3  -5    1.32    1.73
   0   3   5   -3.19    2.69
   0   3   5   -0.89    2.14
   0  -3   5   -1.50    2.71
   0  -3   5   -1.52    1.09
   0   3   6   -0.18    2.10
   0  -3   6    1.98    1.07
   0   3   6   -0.09    0.98
   0  -3  -6   -0.97    1.39
   0  -3   6   -0.47    2.41
   0  -3   7    1.25    2.11
   0   3   7    2.67    2.96
   0  -3   7   -0.34    1.84
   0   3   7   -1.25    2.26
   0   3   8    1.89    2.48
   0  -3   8   -0.32    2.46
   0  -3   8   -0.54    1.74
   0   3   8    1.52    2.54
   0  -3   8   -0.29    1.68
   0   3   9    1.87    3.96
   0  -3   9   -0.88    1.91
   0   3   9    3.94    3.57
   0  -3   9   -1.11    1.95
   0  -3   9    0.93    2.99
   0   3  10   -0.96    2.16
   0   3  10   -0.54    2.76
   0  -3  10    0.30    1.53
   0  -3  10   -0.86    3.27
   0  -3  10    1.36    3.82
   0  -3  11    2.33    4.52
   0  -3  11    1.19    1.37
   0  -3  11    3.97    2.80
   0   3  11    1.65    3.13
   0   3  11   -0.76    2.63
   0  -3  12    2.53    5.73
   0  -3  12    3.52    3.35
   0   3  12   -0.63    1.97
   0   3  12   -1.97    4.69
   0  -3  12    1.05    2.61
   0  -3  13   -0.94    4.07
   0   3  13   -3.70    4.73
   0  -3  13   -1.11    2.38
   0   3  13    0.36    5.41
   0  -3  14    1.76    5.99
   0   3  14    1.28    2.79
   0   3  14    0.29    2.93
   0  -3  14   -0.57    2.69
   0   3  15    1.37    3.06
   0   3  15   -1.00    2.39
   0  -3  15    2.83    2.86
   0  -3  15    1.50    3.30
   0   3  16   -2.43    5.53
   0  -3  16    0.02    2.89
   0  -3  16    2.48    5.64
   0   3  16    1.49    5.32
   0  -3  17    1.28    3.07
   0   3  17   -2.73    3.16
   0  -3  17   -2.08    3.38
   0   3  17    0.42    7.20
   0  -3  18    5.12    6.32
   0   3  18   -0.69    2.33
   0   3  18   -0.50    1.93
   0  -3  18    0.55    4.32
   0  -3  19   -0.65    2.75
   0   3  19    3.12    3.87
   0  -3  19   -1.55    2.30
   0   3  19    4.83    2.46
   0  -3  20   -0.77    3.06
   0   3  20    2.19    5.40
   0  -3  20   -0.90    4.78
   0   3  20   -0.34    5.50
   0   3  21    6.76    5.62
   0  -3  21   -1.84    2.91
   0  -3  21   -0.38    4.31
   0   3  21   -1.93    5.89
   0  -3  22    1.71    2.76
   0   3  22    2.11    4.01
   0  -3  22    3.99    6.35
   0   3  22   -0.24    4.66
   0  -3  23    1.42    8.15
   0   3  23    4.08    3.95
   0   3  23    6.15    5.74
   0  -3  23   -1.39    5.05
   0   3  24    7.08    9.34
   0   3  24   -0.12    3.24
   0  -3  24    4.85    4.27
   0  -3  24    5.53    9.54
   0   3  25    7.37    5.05
   0   3  25    2.70    6.99
   0  -3  25   -2.49    2.86
   0  -3  25    1.87    4.36
   0  -3  26   -0.43    4.80
   0   3  26   -2.96    8.34
   0  -3  26    3.00    5.59
   0   3  26    3.06    4.06
   0   3  27    1.99    7.81
   0  -3  27    5.76    8.73
   0  -3  27    3.13    6.52
   0   3  27   -0.42    3.32
   0  -3  28   -8.30    6.77
   0  -3  28   -2.87    4.48
   0   3  28   -0.17    3.80
   0   3  28   -0.80    6.08
   0  -3  29   -2.52    4.21
   0   3  29    7.17    5.13
   0  -3  29   -3.11    6.96
   0   3  29   -3.44    5.94
   0  -3  30   -4.92    6.32
   0  -3  30    1.85    4.20
   0   3  30   -7.82    7.26
   0   3  30   -2.42    5.82
   0  -3  31   -4.86    5.99
   0   3  31   -1.99    5.65
   0  -3  31    9.37    8.28
   0   3  31    6.06    7.08
   0  -3  32   -0.94    4.59
   0   3  32   -4.58    5.66
   0  -3  32   -9.19   10.03
   0   3  32   14.64    9.12
   0  -4   0 4411.11   70.19
   0  -4   0 4207.67   66.87
   0  -4   1 1521.72   41.20
   0  -4  -1 1529.41   41.89
   0  -4  -1 1602.40   41.01
   0   4   1 1576.18   32.14
   0  -4   1 1621.66   43.18
   0   4   2 1820.82   34.38
   0  -4   2 1722.70   44.99
   0  -4   2 1683.23   43.96
   0  -4  -2 1772.09   45.18
   0  -4   3  179.61   14.87
   0   4   3  139.32    9.53
   0  -4  -3  139.57   12.83
   0  -4   3  136.19   13.07
   0   4   3  143.75   12.42
   0   4   4  211.82   15.59
   0  -4  -4  225.33   16.67
   0  -4   4  203.46   16.17
   0  -4   4  195.96   15.33
   0   4   4  230.48   13.34
   0  -4   5  272.14   19.14
   0  -4   5  254.36   17.50
   0   4   5  248.73   14.39
   0   4   5  262.56   17.95
   0  -4  -5  247.44   17.81
   0  -4   6  804.93   31.65
   0  -4  -6  783.84   32.76
   0  -4   6  769.55   32.53
   0   4   6  784.78   31.82
   0   4   6  810.11   27.95
   0   4   7  336.47   19.33
   0   4   7  335.22   21.13
   0  -4  -7  345.60   22.58
   0  -4   7  370.82   23.34
   0  -4   7  347.46   21.23
   0  -4   8  316.51   20.96
   0  -4  -8  286.31   21.15
   0  -4   8  293.24   21.07
   0   4   8  279.42   18.46
   0   4   8  322.04   21.50
   0  -4  -9   30.05    6.65
   0   4   9   33.32    6.47
   0   4   9   22.66    6.01
   0  -4   9   28.56    6.88
   0  -4   9   24.39    6.34
   0  -4   9   35.01    7.13
   0   4  10    1.55    3.33
   0  -4  10    1.21    2.28
   0  -4 -10   -1.23    3.25
   0  -4  10   -2.70    2.97
   0   4  10    1.97    3.44
   0  -4  10    1.21    3.91
   0  -4  11  123.03   15.53
   0   4  11  118.68   13.91
   0  -4  11   97.86   13.40
   0  -4  11   82.25   12.01
   0   4  11   93.53   13.11
   0  -4  12    2.52    2.26
   0  -4  12   -0.43    4.16
   0  -4  12   -0.89    2.43
   0   4  12    2.86    4.18
   0   4  12    2.54    4.92
   0  -4  13    0.68    2.92
   0   4  13    3.42    3.40
   0  -4  13    4.03    1.65
   0   4  13    5.19    3.36
   0  -4  13    2.44    3.45
   0   4  14  180.18   19.72
   0  -4  14  138.66   17.11
   0   4  14  206.07   20.69
   0  -4  14  172.65   18.89
   0   4  15   82.44   13.45
   0  -4  15  114.79   15.35
   0  -4  15  123.14   16.61
   0   4  15  121.76   16.27
   0  -4  16  238.74   23.74
   0   4  16  210.19   21.89
   0   4  16  177.28   19.82
   0  -4  16  213.67   21.60
   0   4  17  665.54   39.98
   0  -4  17  580.41   38.55
   0  -4  17  650.47   39.11
   0   4  18 1803.97   67.92
   0  -4  18 1742.29   65.41
   0  -4  18 1645.86   65.25
   0   4  18 1694.39   64.75
   0  -4  19  498.56   37.05
   0   4  19  488.13   36.09
   0   4  19  476.75   35.31
   0  -4  19  414.42   32.77
   0  -4  20   18.82    7.94
   0   4  20    9.12    7.38
   0   4  20   18.62    8.03
   0  -4  20    8.12    5.10
   0  -4  21   59.78   13.82
   0   4  21   72.46   13.96
   0  -4  21   64.31   14.80
   0   4  21   45.46   13.37
   0  -4  22   -0.09    3.24
   0  -4  22    4.62    7.87
   0   4  22   -1.59    6.20
   0   4  22    3.71    5.23
   0  -4  23   83.17   17.50
   0   4  23  127.36   21.02
   0   4  23  113.58   19.17
   0  -4  23  136.53   20.32
   0  -4  24  331.74   33.17
   0  -4  24  390.40   35.99
   0   4  24  369.08   34.56
   0   4  24  373.98   34.20
   0  -4  25  160.44   24.49
   0   4  25  164.29   23.85
   0  -4  25  187.41   25.22
   0   4  25  168.04   22.83
   0   4  26   19.29   11.37
   0  -4  26   10.06    6.51
   0  -4  26   12.13    5.79
   0   4  26    7.17    6.36
   0  -4  27    6.88    7.76
   0   4  27    7.19    9.48
   0  -4  27   15.23   10.23
   0   4  27    6.08    7.46
   0   4  28   53.82   13.09
   0  -4  28   57.55   16.51
   0   4  28   38.56   10.84
   0  -4  28   70.47   17.11
   0  -4  29   46.70   14.28
   0  -4  29   48.66   13.91
   0   4  29   28.15   11.26
   0   4  29   31.76   10.87
   0  -4  30   -0.43    4.11
   0   4  30    7.78    8.09
   0  -4  30   -8.28    9.84
   0   4  30    2.20    7.55
   0   4  31    3.35    6.16
   0   4  31    6.02    7.83
   0  -4  31    2.79    7.47
   0  -4  31    5.20   10.32
   0  -5   0    1.08    1.50
   0  -5   0    1.08    1.46
   0  -5  -1    2.87    3.07
   0  -5   1    1.62    3.55
   0  -5   1    2.40    4.28
   0  -5  -1    2.34    2.88
   0   5   2    0.53    1.40
   0  -5   2    2.40    2.85
   0  -5  -2   -0.42    1.72
   0  -5   2   -2.41    2.48
   0  -5  -2   -1.58    1.42
   0  -5   3    0.91    2.82
   0   5   3    0.23    1.44
   0  -5   3    2.28    4.32
   0  -5  -3   -0.56    2.43
   0   5   4    0.59    1.55
   0  -5   4    0.90    2.95
   0  -5   4    0.47    1.60
   0   5   4   -1.67    2.51
   0  -5  -4   -1.70    1.23
   0  -5   5    2.41    2.27
   0   5   5   -0.18    2.31
   0  -5   5    1.99    1.75
   0   5   5   -1.98    2.95
   0  -5  -5   -1.62    3.22
   0  -5   6    1.36    3.17
   0   5   6   -1.08    2.92
   0  -5  -6   -0.92    4.47
   0   5   6    1.89    2.25
   0  -5   6   -0.69    1.98
   0   5   7    0.08    1.58
   0  -5   7   -1.83    1.77
   0  -5  -7   -1.17    2.36
   0   5   7    1.81    2.65
   0  -5   7   -1.02    2.32
   0   5   8    0.27    2.23
   0  -5  -8    1.34    2.75
   0  -5   8    2.00    4.51
   0  -5   8    1.95    2.52
   0   5   8    0.95    3.72
   0  -5   9   -0.16    2.69
   0  -5   9    5.88    4.92
   0   5   9    1.32    2.73
   0   5   9   -1.02    3.76
   0  -5  -9   -2.61    4.04
   0  -5  10    0.88    2.78
   0   5  10   -1.24    2.03
   0   5  10    1.60    2.78
   0  -5  10    0.25    2.75
   0  -5 -10    0.64    3.19
   0  -5  10   -0.88    1.87
   0  -5  11    3.34    4.22
   0   5  11    3.28    4.33
   0   5  11    2.20    4.59
   0  -5 -11   -4.24    4.40
   0  -5  11    0.83    4.43
   0  -5  11   -2.07    2.05
   0  -5  12   -1.49    2.05
   0   5  12    4.39    3.71
   0  -5 -12    1.46    2.09
   0   5  12    0.85    2.26
   0  -5  12   -1.18    4.05
   0  -5  12   -2.26    3.26
   0   5  13   -0.86    3.88
   0  -5  13    3.21    5.68
   0  -5 -13   -2.04    3.61
   0  -5  13   -2.10    3.25
   0  -5  13   -3.64    6.49
   0   5  13   -4.97    5.14
   0   5  14    3.19    6.00
   0   5  14    3.95    5.28
   0  -5  14    5.24    3.94
   0  -5  14   -2.64    1.99
   0  -5 -14   -3.66    4.97
   0  -5  14    1.29    2.06
   0   5  15   -3.87    1.97
   0  -5  15   -0.39    3.71
   0  -5  15    0.02    4.11
   0  -5  15    4.82    6.87
   0  -5 -15    1.49    3.92
   0   5  15    1.72    3.11
   0   5  16   -1.42    1.90
   0  -5  16    2.07    2.78
   0  -5  16    0.23    4.49
   0  -5  16   -2.62    5.83
   0   5  16    0.61    4.58
   0   5  17    4.34    7.33
   0   5  17    3.58    5.76
   0  -5  17    2.08    3.01
   0  -5  17    4.55    4.71
   0  -5  18    1.43    3.65
   0   5  18   -0.47    5.70
   0  -5  18    4.31    4.77
   0   5  18    6.52    6.31
   0  -5  19    0.67    5.34
   0  -5  19    3.97    6.70
   0   5  19    1.68    5.18
   0   5  19   -1.85    2.91
   0   5  20   14.58    7.89
   0  -5  20   -0.23    3.75
   0  -5  20   -1.24    6.54
   0   5  20   -2.75    4.34
   0   5  21   -3.11    6.71
   0   5  21    5.21    2.28
   0  -5  21   -2.60    5.28
   0  -5  21   -4.18    4.55
   0  -5  22    0.70    5.31
   0   5  22   -4.09    6.21
   0  -5  22    8.16   10.23
   0   5  22   -4.11    3.91
   0   5  23   -0.99    2.83
   0   5  23    0.81    6.07
   0  -5  23   -5.31    7.46
   0  -5  23   -0.23    3.92
   0  -5  24   -0.89    7.91
   0   5  24   -1.88    6.71
   0  -5  24    2.38    4.82
   0   5  24   -2.07    5.05
   0  -5  25    1.44    5.22
   0   5  25    3.26    5.97
   0   5  25   -3.07    6.42
   0  -5  25    0.59    6.03
   0   5  26    1.76    6.66
   0  -5  26   -3.35    7.00
   0   5  26   -1.59    5.35
   0  -5  26    0.93    5.19
   0  -5  27    5.39    6.64
   0  -5  27    0.66    4.95
   0   5  27    8.40    8.34
   0   5  27    2.51    7.98
   0  -5  28   -3.42    8.43
   0  -5  28    0.20    5.79
   0   5  28   -1.83    4.83
   0   5  28   -7.65    6.76
   0   5  29   -7.92   10.67
   0  -5  29   -1.39    7.24
   0  -5  29    4.01    9.19
   0   5  29   -1.77    4.99
   0   5  30   -3.01    5.19
   0   5  30   13.98    9.17
   0  -5  30   -1.25   11.57
   0  -5  30   -2.27    6.91
   0   5  31   -1.37    6.45
   0  -5  31    9.21    4.12
   0  -5  31    5.67    7.85
   0   5  31    7.55    7.27
   0  -6   0   16.80    6.70
   0  -6   0   17.27    5.64
   0  -6   1 3974.18   82.50
   0  -6   1 3965.49   81.35
   0  -6  -1 3986.05   79.68
   0   6   2 1477.31   38.15
   0  -6   2 1464.32   50.27
   0  -6  -2 1539.93   51.41
   0  -6  -2 1435.98   47.81
   0  -6   2 1404.44   48.54
   0  -6   3  278.01   22.15
   0   6   3  277.79   16.55
   0  -6   3  271.58   21.47
   0  -6  -3  262.37   21.26
   0   6   4  700.13   26.87
   0  -6  -4  675.40   34.23
   0  -6   4  687.18   34.98
   0  -6   4  689.10   34.91
   0   6   5   26.44    7.92
   0  -6   5   24.46    7.56
   0  -6  -5   18.18    5.67
   0   6   5   32.90    6.04
   0  -6   5   31.85    8.00
   0  -6   6    6.38    4.32
   0  -6  -6    8.34    2.29
   0   6   6   -0.82    1.86
   0   6   6    6.78    4.76
   0  -6   6    7.18    5.29
   0   6   7  346.52   21.09
   0   6   7  307.49   23.65
   0  -6   7  318.02   23.85
   0  -6  -7  317.05   24.58
   0  -6   7  387.98   27.66
   0   6   8   83.80   12.92
   0  -6   8   76.81   12.65
   0  -6  -8   85.57   13.46
   0   6   8   81.59   10.91
   0  -6   8   88.94   12.76
   0  -6   9   56.86   10.36
   0   6   9   39.76    8.10
   0  -6   9   21.52    7.57
   0  -6  -9   45.79    9.87
   0   6   9   26.90    6.83
   0   6  10   43.13    8.61
   0  -6  10   54.97   10.93
   0   6  10   66.97   11.98
   0  -6 -10   56.64   11.19
   0  -6  10   68.45   12.17
   0  -6  11   -1.97    3.24
   0  -6  11    2.38    2.30
   0   6  11    1.89    4.60
   0  -6 -11    4.56    4.65
   0  -6  11    3.73    3.54
   0   6  11    3.62    3.89
   0  -6 -12 3885.76   94.20
   0  -6  12 3910.60   93.67
   0   6  12 4102.83   94.29
   0  -6  12 3866.27   89.77
   0   6  12 4011.04   85.26
   0  -6 -13    5.89    5.81
   0  -6  13   -1.34    4.60
   0  -6  13    1.18    3.99
   0  -6  13    8.44    7.29
   0   6  13    2.89    3.31
   0   6  13   -0.78    3.13
   0   6  14  365.69   27.89
   0  -6  14  364.15   29.61
   0  -6 -14  370.83   29.99
   0   6  14  341.70   28.26
   0  -6  14  331.45   27.86
   0  -6  14  364.80   29.32
   0   6  15  569.01   36.07
   0  -6  15  621.90   39.98
   0   6  15  529.53   36.32
   0  -6  15  560.39   36.25
   0  -6  15  578.41   37.64
   0  -6 -15  613.55   39.10
   0  -6  16   37.82   11.24
   0   6  16   68.54   13.29
   0  -6 -16   63.35   12.93
   0  -6  16   80.03   14.89
   0   6  16   75.03   13.36
   0  -6  16   59.69   11.99
   0  -6  17   73.19   13.93
   0   6  17   82.77   15.91
   0  -6 -17   85.75   16.01
   0   6  17   96.60   16.05
   0  -6  17   80.49   14.57
   0  -6  17  110.05   17.98
   0   6  18  618.97   41.47
   0   6  18  587.42   39.79
   0  -6 -18  582.31   40.53
   0  -6  18  696.62   43.05
   0  -6  18  622.83   41.88
   0  -6 -19  372.05   32.52
   0  -6  19  388.55   32.25
   0   6  19  355.76   31.55
   0  -6  19  344.38   31.87
   0   6  19  361.39   32.07
   0  -6  20  109.78   17.39
   0   6  20   67.51   13.55
   0  -6  20   75.85   16.02
   0  -6 -20   67.06   13.87
   0   6  20   80.03   15.08
   0  -6  21  463.13   38.74
   0  -6 -21  566.98   42.07
   0   6  21  426.45   35.59
   0   6  21  509.29   39.42
   0  -6  21  469.36   37.77
   0   6  22  383.71   34.44
   0  -6 -22  338.45   33.17
   0  -6  22  305.48   32.92
   0  -6  22  359.14   32.58
   0   6  22  360.08   33.58
   0  -6 -23   15.37    9.78
   0  -6  23   24.12    8.18
   0  -6  23   15.09    5.68
   0   6  23   17.42    7.03
   0   6  23    6.97    4.38
   0  -6  24   54.79   14.11
   0   6  24   82.05   16.41
   0   6  24   68.09   15.40
   0  -6  24   65.31   15.74
   0  -6 -24   68.02   14.76
   0  -6  25  157.27   25.10
   0   6  25  187.66   25.11
   0  -6 -25  121.41   21.03
   0   6  25  175.73   24.88
   0  -6  25  167.43   24.14
   0   6  26  239.48   30.78
   0  -6  26  269.30   31.28
   0   6  26  274.01   31.02
   0  -6 -26  207.72   27.03
   0  -6  26  237.38   30.47
   0  -6  27   -6.29   10.33
   0  -6 -27   -2.72    7.85
   0   6  27   10.00    4.04
   0  -6  27    5.93    9.37
   0   6  27   -0.71    5.22
   0   6  28  113.16   20.15
   0   6  28  155.73   24.45
   0  -6 -28   96.51   18.76
   0  -6  28  108.47   20.73
   0  -6  28  144.20   24.31
   0  -6  29   16.31    5.40
   0  -6 -29    8.07    5.79
   0   6  29    9.96   10.15
   0  -6  29   11.95    8.83
   0   6  29   18.13    9.00
   0  -6 -30    0.15    6.34
   0   6  30  -12.86    8.74
   0  -6  30    4.63    7.72
   0   6  30   -2.26    3.31
   0  -6  30   -1.72    8.17
   0  -7   0    5.62    2.56
   0  -7   0   -0.14    1.79
   0  -7  -1    1.52    4.72
   0  -7   1   -3.41    4.01
   0  -7   1   -0.34    4.52
   0  -7  -1    2.29    2.55
   0  -7   2    2.07    2.87
   0  -7  -2    3.31    2.22
   0  -7   2   -0.45    1.49
   0  -7  -2   -0.66    4.27
   0  -7  -3   -0.54    4.18
   0  -7  -3    1.82    4.88
   0  -7   3    0.29    3.58
   0   7   3    5.39    3.44
   0  -7   3    4.52    3.69
   0   7   4    0.42    1.12
   0  -7  -4    4.19    3.55
   0  -7   4   -0.50    3.77
   0  -7   4    7.04    5.69
   0  -7   5    2.11    2.26
   0   7   5    1.25    2.12
   0  -7   5   -0.74    3.31
   0  -7  -5   -1.09    4.31
   0   7   6    2.30    3.15
   0  -7   6    0.94    3.35
   0  -7   6    3.49    5.07
   0   7   6    2.16    3.54
   0  -7  -6   -0.82    5.28
   0   7   7   -0.12    4.24
   0  -7   7   -1.21    2.08
   0   7   7    1.20    2.51
   0  -7  -7    1.48    2.99
   0  -7   7    1.81    2.36
   0  -7  -8    0.21    2.71
   0   7   8   -2.65    2.75
   0  -7   8   -0.68    3.26
   0  -7   8    4.01    4.87
   0   7   8    4.66    4.65
   0   7   9    1.54    3.14
   0  -7  -9   -0.76    2.29
   0   7   9   -0.13    5.52
   0  -7   9   -3.87    4.30
   0  -7   9    3.38    4.74
   0   7  10   -0.35    3.24
   0   7  10   -0.25    1.61
   0  -7 -10    6.72    5.02
   0  -7  10    2.77    3.36
   0  -7  10   -2.18    5.09
   0   7  11    3.13    4.15
   0   7  11    2.10    5.08
   0  -7  11    1.74    3.10
   0  -7 -11   -1.24    1.87
   0  -7  11   -1.81    5.45
   0  -7  12    1.12    3.86
   0   7  12   -3.00    3.36
   0  -7  12   -3.69    4.23
   0   7  12    0.16    4.07
   0  -7 -12   -0.37    4.02
   0  -7  12    1.40    2.15
   0  -7  13    8.93    6.45
   0  -7  13   -2.73    4.29
   0  -7 -13    2.04    5.14
   0  -7  13   -0.63    4.58
   0   7  13   -1.95    6.02
   0   7  13   -1.49    4.23
   0  -7 -14   -0.79    1.94
   0  -7  14    1.45    2.45
   0  -7  14    0.89    5.72
   0   7  14   -1.70    1.95
   0   7  14    4.48    3.33
   0  -7  14   -2.17    3.98
   0  -7  15   -2.74    3.35
   0  -7 -15   -1.69    4.83
   0   7  15   -4.47    4.92
   0   7  15    0.41    3.77
   0  -7  15    4.93    4.78
   0  -7  15   10.37    7.74
   0  -7 -16    4.58    4.53
   0  -7  16   -4.53    4.59
   0   7  16    0.20    2.51
   0  -7  16    0.02    5.05
   0  -7  16   -1.72    2.08
   0   7  16   -3.94    8.24
   0  -7 -17    4.41    6.77
   0   7  17   -1.80    3.90
   0  -7  17   -1.94    2.58
   0  -7  17    4.46    4.95
   0   7  17    0.41    4.15
   0  -7  17   -3.53    4.08
   0   7  18   -3.48    5.41
   0  -7  18   -0.37    4.14
   0  -7 -18    3.25    6.40
   0  -7  18   -2.50    3.44
   0   7  18    5.32    5.50
   0  -7  18    1.38    2.93
   0  -7  19   -4.42    4.35
   0   7  19    6.79    5.85
   0  -7  19   -0.74    4.38
   0  -7  19    0.60    2.92
   0  -7 -19   -1.19    5.89
   0   7  19    2.33    3.97
   0  -7 -20    1.23    4.27
   0   7  20    7.29    8.34
   0   7  20   -2.87    3.93
   0  -7  20   -0.05    2.70
   0  -7  20    3.58    7.12
   0   7  21   -0.57    4.26
   0  -7  21    4.79    6.71
   0   7  21    4.91    2.58
   0  -7 -21    5.31    2.69
   0  -7  21    0.67    2.58
   0  -7  22   -0.39    7.03
   0  -7  22   -2.46    4.16
   0   7  22    3.12    5.15
   0   7  22    3.79    5.61
   0  -7 -22    6.19    7.90
   0  -7  23   -0.13    6.92
   0   7  23   -2.34    4.85
   0   7  23   -6.10    8.46
   0  -7 -23    1.90    6.02
   0  -7  23    3.30    4.67
   0  -7  24    2.93    3.35
   0   7  24   -4.61    7.96
   0   7  24   -6.10    5.88
   0  -7 -24    1.00    4.02
   0  -7  24    4.36    5.82
   0  -7  25   -4.28    5.52
   0   7  25   -4.50    4.43
   0   7  25    9.46    8.04
   0  -7 -25    0.75    3.87
   0  -7  25    5.82    3.22
   0  -7  26    3.97    7.77
   0  -7  26   -2.96    2.76
   0   7  26    0.03    5.22
   0  -7 -26    0.47    4.57
   0   7  26   -4.69    8.00
   0  -7  27    6.70    5.67
   0   7  27    5.54    7.00
   0  -7 -27    1.44    3.07
   0  -7  27    3.32    8.79
   0   7  27   -3.70    7.99
   0   7  28    2.41    5.61
   0  -7 -28   -3.93    3.88
   0  -7  28   -6.13    5.21
   0   7  28   -6.12    8.56
   0  -7  28   -4.82    5.08
   0  -7 -29   -0.27    7.28
   0  -7  29    5.74    8.05
   0  -7  29   -6.33    3.34
   0   7  29   14.42   11.24
   0   7  29   -8.71    8.83
   0  -8   0  442.47   31.14
   0  -8   0  450.80   32.21
   0  -8   1   24.13    7.86
   0  -8   1   31.53    8.11
   0  -8  -1   20.42    6.12
   0  -8  -1   20.59    6.71
   0  -8  -2   30.40    8.43
   0  -8   2   55.31   11.52
   0  -8  -2   39.66    8.94
   0  -8   2   32.75    8.89
   0  -8   3    0.24    2.54
   0  -8   3   10.06    4.22
   0  -8  -3    3.83    2.10
   0  -8  -3    4.33    4.31
   0  -8  -4  200.15   20.72
   0  -8   4  252.14   24.17
   0   8   4  224.51   17.72
   0  -8   4  233.94   23.02
   0  -8  -4  168.12   19.32
   0  -8  -5   54.01   11.43
   0  -8  -5   76.37   12.78
   0   8   5   73.81   10.56
   0  -8   5   96.53   14.14
   0  -8   5   88.01   16.33
   0  -8  -6  295.73   26.60
   0   8   6  263.71   19.86
   0  -8   6  220.22   23.34
   0  -8   6  288.07   26.05
   0  -8   7 1340.21   54.68
   0  -8   7 1265.16   55.75
   0   8   7 1273.19   44.07
   0  -8  -7 1373.03   56.98
   0   8   8  532.83   28.89
   0  -8  -8  509.26   35.19
   0  -8   8  584.74   36.36
   0  -8   8  625.89   39.26
   0   8   8  616.23   36.74
   0  -8   9  212.69   21.71
   0   8   9  194.79   17.73
   0  -8   9  189.24   22.13
   0   8   9  224.31   23.15
   0  -8  -9  209.85   22.94
   0   8  10  184.69   18.59
   0  -8  10  200.84   22.78
   0  -8 -10  197.35   22.63
   0   8  10  179.85   20.74
   0   8  11 1611.39   63.71
   0  -8  11 1723.64   62.92
   0  -8 -11 1688.28   65.68
   0  -8  11 1548.10   63.96
   0   8  11 1641.24   57.06
   0  -8  12   33.44    8.67
   0   8  12   29.71    7.46
   0  -8  12   18.69    8.00
   0  -8 -12   18.42    6.94
   0   8  12   31.94   10.15
   0  -8  12   30.13    8.74
   0  -8 -13  229.78   24.97
   0  -8  13  207.32   23.07
   0  -8  13  179.07   22.89
   0   8  13  190.77   22.49
   0   8  13  204.06   20.97
   0  -8  13  227.89   24.85
   0  -8 -14  300.83   28.90
   0  -8  14  267.21   27.31
   0   8  14  256.60   26.40
   0   8  14  275.51   24.89
   0  -8  14  275.28   27.76
   0  -8  14  211.23   23.92
   0   8  15  868.07   49.26
   0  -8  15  975.16   50.94
   0  -8  15  936.59   50.74
   0  -8 -15  933.87   51.78
   0  -8  15  930.87   51.59
   0   8  15 1026.00   49.74
   0   8  16   -1.17    3.45
   0   8  16   -1.26    5.70
   0  -8  16    6.22    7.22
   0  -8  16   -2.68    6.11
   0  -8 -16    1.60    5.37
   0  -8  16   12.72    6.28
   0   8  17  847.69   49.67
   0  -8  17  872.08   50.22
   0  -8 -17  792.42   49.23
   0   8  17  826.46   46.98
   0  -8  17  796.82   48.10
   0  -8  18  102.64   17.63
   0  -8  18   67.58   14.33
   0   8  18   56.30   12.87
   0   8  18   69.76   13.86
   0  -8  18   54.57   12.76
   0  -8 -18   59.56   14.99
   0   8  19  260.61   27.57
   0  -8  19  254.63   28.96
   0  -8  19  257.85   28.17
   0   8  19  242.03   27.84
   0  -8  19  310.08   31.06
   0  -8 -19  238.69   26.81
   0   8  20    2.51    4.52
   0  -8 -20   -1.71    4.60
   0  -8  20   -3.34    6.76
   0   8  20   -1.30    3.39
   0  -8  20   -2.84    7.02
   0  -8  20    2.17    3.61
   0  -8  21  284.16   31.70
   0  -8  21  218.50   26.76
   0   8  21  265.35   29.38
   0   8  21  287.74   30.99
   0  -8  21  218.29   26.43
   0  -8 -21  275.27   30.67
   0   8  22    6.26    4.40
   0  -8 -22    6.91    5.77
   0   8  22   10.45    6.43
   0  -8  22   11.83    8.06
   0  -8  22    9.11    4.95
   0   8  23  136.53   21.89
   0   8  23  153.08   23.79
   0  -8 -23  132.84   22.34
   0  -8  23  175.00   26.02
   0  -8  23  178.28   24.75
   0   8  24   26.30    9.13
   0  -8 -24   40.04   14.73
   0  -8  24   40.42   10.94
   0   8  24   32.64   10.26
   0  -8  24   43.92   13.10
   0   8  25  323.79   34.30
   0  -8  25  362.70   36.63
   0   8  25  369.13   37.11
   0  -8 -25  392.13   38.03
   0  -8  25  311.13   34.25
   0  -8 -26    0.23    3.65
   0  -8  26   -5.67    4.70
   0   8  26    5.52    4.56
   0  -8  26    5.94    5.34
   0   8  26   14.69    9.64
   0  -8 -27   73.43   15.59
   0  -8  27   14.20    7.17
   0   8  27   58.75   14.06
   0   8  27   62.27   17.78
   0  -8  27   70.24   17.33
   0   8  28   13.01    6.20
   0  -8  28   14.49   10.37
   0  -8  28    1.34    5.19
   0   8  28   16.44    8.45
   0  -8 -28    1.37    7.78
   0  -9   0   -0.91    6.19
   0  -9   0   -1.16    2.16
   0  -9  -1    1.46    5.50
   0  -9  -1    1.92    5.54
   0  -9   1    1.82    3.34
   0  -9   1   -0.61    4.69
   0  -9   2    0.40    4.13
   0  -9  -2    1.08    3.35
   0  -9   2   -0.50    3.49
   0  -9  -2    0.97    3.20
   0  -9   3    1.92    4.66
   0  -9  -3    3.16    4.56
   0  -9  -3   -0.84    2.93
   0  -9   3   -5.53    2.42
   0  -9  -4    1.87    4.56
   0  -9   4   -1.64    4.01
   0  -9  -4    1.95    5.85
   0  -9   4   -2.29    4.76
   0  -9   5    3.12    6.44
   0   9   5    2.89    3.36
   0  -9  -5    7.46    3.98
   0  -9   5    1.87    7.01
   0  -9  -5    1.49    2.91
   0  -9   6   -1.87    7.25
   0   9   6    4.60    3.58
   0  -9  -6   -3.42    2.67
   0  -9  -6    1.24    3.45
   0  -9   6    9.81    5.10
   0   9   7    2.10    4.33
   0  -9  -7    3.53    3.49
   0  -9   7    0.35    5.66
   0  -9   7    3.33    4.38
   0   9   8   -0.36    1.63
   0  -9   8   -2.45    7.19
   0  -9  -8   -4.01    3.56
   0  -9   8    1.66    5.76
   0  -9   9   -1.59    4.04
   0   9   9    1.48    3.79
   0  -9  -9   -0.36    5.90
   0  -9   9    7.92    5.79
   0   9  10   -0.07    4.30
   0  -9  10    4.50    5.65
   0   9  10    3.55    3.55
   0  -9  10   -3.04    3.48
   0  -9 -10    1.15    3.71
   0  -9 -11    1.07    4.39
   0  -9  11    1.77    4.46
   0   9  11   -3.66    3.52
   0  -9  11    2.52    2.44
   0   9  11    0.18    2.89
   0  -9  12   -0.51    2.42
   0  -9  12    4.42    3.41
   0  -9 -12   -1.55    6.08
   0   9  12    3.66    5.38
   0  -9  12    3.03    3.35
   0   9  12   -0.18    6.28
   0   9  13   -2.08    6.23
   0  -9  13   -3.12    2.75
   0  -9  13   -0.53    5.36
   0  -9  13    0.11    4.51
   0   9  13   -0.69    2.00
   0  -9 -13    0.26    4.23
   0  -9  14    0.17    5.85
   0  -9  14    3.75    6.01
   0   9  14   -2.25    4.16
   0   9  14    1.33    3.29
   0  -9  14    6.17    8.07
   0  -9 -14   -2.96    5.52
   0   9  15   -0.99    3.41
   0  -9  15   -0.92    6.54
   0  -9  15    0.43    4.54
   0  -9 -15   -3.43    5.96
   0   9  15   -6.41    5.18
   0  -9  15    5.37    5.71
   0   9  16    2.47    3.36
   0  -9 -16    3.02    6.76
   0  -9  16   -2.16    2.24
   0  -9  16    3.03    4.99
   0   9  16   -3.12    6.35
   0  -9  16    3.26    6.28
   0  -9 -17   -2.97    5.31
   0  -9  17    1.02    2.27
   0  -9  17    2.33    7.58
   0   9  17   -2.07    4.07
   0  -9  17    3.64    3.35
   0   9  17   -3.09    4.47
   0  -9  18    6.20    7.75
   0   9  18   10.00    7.72
   0  -9  18   -2.95    4.10
   0   9  18    2.37    3.08
   0  -9 -18    4.11    4.97
   0  -9  18    9.14    6.07
   0  -9 -19   -1.27    4.53
   0   9  19    9.79    6.18
   0  -9  19   -0.38    5.21
   0   9  19    2.10    4.62
   0  -9  19    0.49    4.06
   0  -9  19   -0.67    4.75
   0  -9  20   -4.25    7.35
   0  -9 -20   -0.13    5.46
   0  -9  20   -3.21    5.44
   0   9  20    1.38    8.52
   0   9  20   -5.45    5.82
   0  -9  20   -1.02    6.36
   0   9  21   -2.00    4.19
   0  -9  21   -8.22    9.15
   0  -9 -21    0.77    6.53
   0   9  21    1.30    2.66
   0  -9  21   -1.90    6.49
   0  -9  21   -0.81    3.98
   0  -9 -22   -2.00    3.21
   0   9  22    1.56    5.83
   0  -9  22    8.50    7.29
   0  -9  22   -2.35    6.61
   0  -9  22   -4.11    2.99
   0   9  23    1.93    3.19
   0  -9  23   -7.55    6.98
   0  -9  23   -3.74    6.60
   0  -9 -23   10.23    6.47
   0   9  24   -2.54    6.16
   0  -9  24    5.05    7.42
   0  -9  24   -0.71    4.56
   0  -9 -24    2.00    4.80
   0   9  25    8.53   11.06
   0  -9  25   -3.50    6.52
   0  -9 -25    5.36    7.21
   0  -9  25   -0.09    5.61
   0  -9 -26   -1.79    7.77
   0   9  26   -1.18    6.69
   0  -9  26    3.34    9.22
   0  -9  26   -1.96    4.89
   0  -9 -27   -2.31    6.35
   0   9  27   -0.11    3.48
   0  -9  27    2.26    8.91
   0  -9  27   -9.63   12.22
   0 -10   0   27.87    7.09
   0 -10   0   21.84    8.19
   0 -10  -1    7.81    7.23
   0 -10   1   12.36    8.86
   0 -10  -1   10.55    6.94
   0 -10   1   11.85    7.53
   0 -10  -2   16.47    8.88
   0 -10   2    3.33    4.15
   0 -10  -2   21.39    7.52
   0 -10   2   26.57    9.30
   0 -10  -3   -1.43    2.81
   0 -10  -3    5.29    6.87
   0 -10   3   -4.82    6.96
   0 -10   3    2.95    7.58
   0 -10   4  286.49   28.45
   0 -10  -4  334.45   29.32
   0 -10   4  359.02   32.77
   0 -10  -4  303.86   29.42
   0 -10  -5  194.54   23.59
   0 -10  -5  295.91   28.47
   0 -10   5  230.51   25.48
   0 -10   5  301.88   29.23
   0 -10  -6  215.47   24.89
   0 -10  -6  275.21   26.81
   0 -10   6  241.89   26.19
   0 -10   6  300.47   29.26
   0  10   6  263.74   22.28
   0  10   7  107.49   14.28
   0 -10   7  108.69   17.89
   0 -10  -7   90.76   15.93
   0 -10  -7   82.52   15.44
   0 -10   7  110.44   17.83
   0 -10  -8  908.79   49.66
   0 -10  -8  837.96   49.68
   0  10   8  835.46   40.93
   0 -10   8  797.41   48.35
   0 -10   8  729.79   45.32
   0 -10  -9   97.89   16.45
   0 -10   9   57.32   11.92
   0 -10   9  101.59   17.07
   0 -10  10    4.61    4.60
   0 -10 -10    0.95    3.99
   0 -10  10    5.90    6.71
   0 -10 -11  450.87   37.47
   0 -10  11  396.07   33.39
   0 -10  11  351.83   32.78
   0 -10 -12   76.70   16.68
   0 -10  12  109.08   17.24
   0  10  12   92.29   16.97
   0 -10  12   86.44   16.99
   0 -10  12   97.93   18.12
   0  10  13   57.22   13.77
   0 -10  13   73.86   14.62
   0 -10  13   52.22   15.31
   0 -10 -13   63.20   15.41
   0 -10  13   50.06   11.69
   0 -10  14  322.09   31.68
   0 -10 -14  348.15   33.41
   0 -10  14  321.23   30.19
   0  10  14  349.31   32.70
   0 -10  14  309.25   30.86
   0 -10 -15    7.63    2.61
   0  10  15    6.48    3.28
   0 -10  15   12.22    7.00
   0 -10  15   11.21    5.54
   0 -10  15   24.24   10.69
   0 -10  16   -0.61    3.22
   0 -10 -16    1.15    7.58
   0 -10  16    5.98    6.96
   0 -10  16   -2.60    2.65
   0  10  16   -0.88    3.45
   0 -10  17   11.90    6.78
   0 -10 -17   13.52    9.36
   0  10  17   -5.12    3.86
   0 -10  17   19.32    7.01
   0 -10  17    5.15    6.30
   0 -10 -18  159.91   23.46
   0 -10  18  170.21   23.98
   0  10  18  222.91   27.52
   0 -10  18  164.95   24.87
   0 -10  18  141.04   21.70
   0 -10  19   20.89    8.85
   0  10  19   22.46    9.61
   0 -10  19    9.21    8.03
   0 -10 -19   17.96    7.49
   0 -10  19    0.49    4.23
   0 -10  20    9.54    7.97
   0 -10  20    5.46    7.20
   0  10  20   14.00    8.79
   0 -10 -20   26.70   10.35
   0 -10  20   -2.35    7.60
   0 -10  21  102.67   19.01
   0 -10 -21   80.16   17.71
   0 -10  21   69.73   17.02
   0  10  21   86.55   17.87
   0 -10  21   72.40   17.33
   0  10  22  442.86   39.14
   0 -10 -22  452.47   41.15
   0 -10  22  430.26   39.07
   0 -10  22  446.63   41.44
   0 -10  23    0.64    3.82
   0 -10  23   -0.57    3.39
   0  10  23    8.58    6.46
   0 -10 -23   -4.36    8.12
   0 -10  23    9.20    8.21
   0 -10  24   39.81   12.10
   0  10  24   10.49    8.65
   0 -10 -24   19.04    6.72
   0 -10  24   19.17   10.33
   0 -10  25  128.50   22.30
   0  10  25  145.54   24.66
   0 -10 -25  139.93   23.49
   0 -10  25  137.94   24.18
   0 -10 -26   98.88   21.25
   0  10  26   77.22   18.03
   0 -11   0   -3.23    5.01
   0 -11   0   -0.55    4.57
   0 -11  -1   -1.40    2.28
   0 -11   1    7.55    3.29
   0 -11   1    3.00    4.90
   0 -11  -1    5.38    4.12
   0 -11   2    1.29    5.00
   0 -11  -2   -0.50    5.04
   0 -11  -2   -1.60    2.96
   0 -11   2   -3.48    5.37
   0 -11   3   -2.27    2.93
   0 -11   3    0.26    6.81
   0 -11  -3    2.65    3.24
   0 -11  -3    1.77    5.30
   0 -11   4    1.02    5.67
   0 -11   4   -3.95    2.52
   0 -11  -4    3.53    4.89
   0 -11  -4    0.11    3.31
   0 -11  -5   15.41    8.46
   0 -11   5    7.77    6.98
   0 -11  -5    1.40    6.00
   0 -11   5   -0.99    2.75
   0 -11   6    3.04    2.22
   0 -11   6   -6.63    6.11
   0 -11  -6    0.52    6.59
   0 -11  -6    2.62    5.56
   0 -11  -7    4.09    6.97
   0 -11   7   -7.38    2.68
   0 -11   7   -1.34    3.62
   0 -11  -7   -1.32    3.10
   0 -11  -8   -2.16    5.78
   0 -11   8    3.80    5.00
   0 -11   8   10.05    5.48
   0 -11  -8    1.73    2.39
   0 -11   9    2.18    3.92
   0 -11   9    7.92    6.90
   0 -11  -9   -1.47    5.00
   0 -11  -9   -4.86    2.40
   0 -11 -10   -0.38    3.07
   0 -11  10    3.23    4.55
   0 -11  10    2.76    5.67
   0 -11 -10    0.61    6.60
   0 -11 -11   -5.25    6.38
   0 -11  11    2.57    3.25
   0 -11  11   -5.88    3.42
   0 -11  12   -5.13    7.83
   0 -11  12   -0.57    6.31
   0 -11 -12   -3.08    4.17
   0 -11 -13   -1.17    3.55
   0 -11  13   -1.73    4.40
   0 -11  13   -3.43    3.90
   0 -11  14    3.62    2.58
   0 -11 -14    2.72    2.81
   0 -11  14    5.73    7.08
   0 -11 -15    3.56    6.15
   0 -11  15    2.00    3.57
   0  11  15    4.73    3.99
   0 -11  15   -1.10    3.06
   0  11  16   -0.18    6.06
   0 -11  16   10.62    8.02
   0 -11  16   -4.11    4.04
   0 -11  16   -2.30    4.62
   0 -11 -16    0.23    7.19
   0  11  17    7.62    5.15
   0 -11  17   -7.62    8.91
   0 -11 -17    2.12    5.15
   0 -11  17    4.52    7.55
   0 -11  17    4.70    6.74
   0 -11  18    4.24    3.47
   0 -11  18    2.03    3.98
   0 -11 -18   -2.79    5.19
   0  11  18   -6.22    4.33
   0 -11  19   -5.98    5.63
   0 -11  19   -6.00    4.12
   0  11  19    5.23    7.85
   0 -11 -19   -2.30    4.99
   0 -11 -20   -3.49    9.26
   0  11  20   -3.10    5.99
   0 -11  20    5.76    7.29
   0 -11  20   -3.24    4.44
   0 -11 -21    8.42    6.65
   0 -11  21    5.36    7.90
   0 -11  21    5.13    4.34
   0  11  21   -5.67    5.20
   0 -11 -22   -7.48    5.91
   0 -11  22   -4.16    4.18
   0 -11  22   -0.21    3.89
   0  11  22   -5.66    8.49
   0 -11  23   -7.77   11.92
   0  11  23   -4.80    3.27
   0 -11 -23    7.43    6.64
   0 -11  23   -7.82    8.27
   0 -11  23   -9.19    8.28
   0 -11  24   -0.46    3.34
   0  11  24   -2.40    5.11
   0 -11 -24    0.30    4.44
   0 -12   0  225.78   27.14
   0 -12   0  224.05   28.05
   0 -12   1   15.08    7.68
   0 -12  -1    1.02    3.92
   0 -12   1    5.47    3.91
   0 -12  -1    2.54    4.26
   0 -12  -2   -6.41    4.88
   0 -12   2    7.54    4.22
   0 -12  -2   -2.12    3.18
   0 -12   2    3.10    4.03
   0 -12  -3  127.61   21.04
   0 -12  -3  160.03   23.25
   0 -12   3  177.24   25.00
   0 -12   3  126.29   20.73
   0 -12  -4    1.81    4.98
   0 -12   4    3.25    7.71
   0 -12   4   16.34    7.96
   0 -12  -4    5.69    2.54
   0 -12  -5  167.85   24.07
   0 -12  -5  120.17   20.43
   0 -12   5  169.97   24.22
   0 -12   5  172.03   24.89
   0 -12   6    7.23    6.18
   0 -12  -6    4.87    5.91
   0 -12  -6   21.54    8.77
   0 -12   6   23.51    9.79
   0 -12   7   41.21   12.07
   0 -12   7   18.14    8.23
   0 -12  -7   44.25   13.58
   0 -12  -7   33.74   12.89
   0 -12  -8   45.39   12.58
   0 -12   8   22.41   11.37
   0 -12   8   61.66   14.56
   0 -12  -8   24.60    9.82
   0 -12  -9    1.67    5.35
   0 -12  -9   20.90    7.14
   0 -12   9   17.65    8.85
   0 -12   9   20.75    9.51
   0 -12  10  436.61   38.47
   0 -12 -10  409.09   37.12
   0 -12  10  449.20   37.93
   0 -12 -10  438.18   38.10
   0 -12  11  146.57   23.19
   0 -12  11  129.55   21.20
   0 -12 -11  163.39   22.74
   0 -12 -11  168.04   25.42
   0 -12 -12   66.78   17.11
   0 -12  12   50.53   13.09
   0 -12 -12   54.26   13.77
   0 -12  12   61.12   14.92
   0 -12  13    3.16    5.83
   0 -12 -13    7.59    2.70
   0 -12  13    0.77    4.21
   0 -12  14   29.89   10.55
   0 -12 -14   39.05   11.38
   0 -12  14   33.99   13.33
   0 -12  15   -1.57    3.10
   0 -12  15   -6.38    8.87
   0 -12 -15    2.35    8.29
   0 -12 -16    4.34    4.54
   0 -12  16   -5.61    6.16
   0 -12  17   -0.31    6.28
   0 -12  17   36.04   11.64
   0 -12 -17   17.90    8.97
   0 -12  18    9.58    3.36
   0 -12 -18   14.42    4.62
   0 -12  19  -12.46    8.94
   0 -12  19    4.25    3.52
   0 -12 -19    1.40    3.72
   0  12  19   -0.34    5.59
   0  12  20   11.89    8.41
   0 -12  20    9.82    6.19
   0 -12  20   13.26    6.81
   0 -12 -21   52.91   14.13
   0 -12  21   62.64   18.01
   0 -12  21   61.51   16.07
   0  12  21   41.25   11.46
   0 -12  22   16.67    8.65
   0  12  22   31.98   13.51
   0 -12  22   27.49    5.99
   0 -12 -22   48.59   14.01
   0 -13   0   -2.77    4.45
   0 -13   0   -4.38    7.38
   0 -13   1    5.83    9.46
   0 -13  -1    4.52    7.49
   0 -13  -1   -2.80    6.00
   0 -13   1   -3.51    7.69
   0 -13   2   -6.48    4.63
   0 -13   2    2.09    2.99
   0 -13  -2   -5.15    6.25
   0 -13  -2    0.68    3.28
   0 -13   3   -0.96    5.86
   0 -13  -3    1.89    5.84
   0 -13   3    4.61    6.83
   0 -13  -3   -5.42    3.15
   0 -13  -4   -0.69    5.24
   0 -13  -4    3.32    3.53
   0 -13   4    2.90    7.79
   0 -13   4   -3.94    4.63
   0 -13  -5    2.67    4.20
   0 -13   5    7.23    3.54
   0 -13  -5    6.56    7.64
   0 -13   5   -2.00    2.74
   0 -13   6   -1.15    4.73
   0 -13  -6   13.15    8.12
   0 -13   6    1.04    3.05
   0 -13  -6    5.20    8.43
   0 -13  -7   16.18   10.23
   0 -13   7    4.66    4.32
   0 -13   7    0.08    3.81
   0 -13  -7    3.01    7.81
   0 -13   8    2.35    4.47
   0 -13  -8   -2.86    2.81
   0 -13  -8   -4.00    4.05
   0 -13   8    1.08    5.49
   0 -13   9    4.71    9.12
   0 -13  -9   -9.18    6.63
   0 -13  -9    4.86    6.92
   0 -13   9    5.58    4.60
   0 -13  10   -0.22    3.30
   0 -13 -10    0.71    3.03
   0 -13  10    2.39    4.50
   0 -13 -10   -2.41    6.34
   0 -13  11   -1.92    3.95
   0 -13 -11   -4.39    7.48
   0 -13 -11   -0.36    4.73
   0 -13  11   -6.55    6.82
   0 -13 -12    1.71    3.45
   0 -13 -12    3.68    8.04
   0 -13  12   -6.40    5.84
   0 -13  12    3.17    4.64
   0 -13  13    1.06    4.32
   0 -13 -13    2.83    4.72
   0 -13  13    2.98    2.85
   0 -13 -13   -4.66    3.72
   0 -13 -14   -0.74    4.97
   0 -13  14   -0.22    4.86
   0 -13  14    7.05    8.37
   0 -13 -14    3.98    5.03
   0 -13 -15    1.00    4.62
   0 -13 -15   -6.32    6.12
   0 -13  15    2.04    5.22
   0 -13  15   -1.75    3.88
   0 -13  16   -1.12    3.69
   0 -13 -16    6.94    8.28
   0 -13  16   -3.97    6.22
   0 -13  17    7.22    6.85
   0 -13 -17   -0.03    3.84
   0 -13  17   -9.42    4.41
   0 -13  18   -0.89    3.28
   0 -13 -18   -6.94    7.12
   0 -13  18   -7.27    6.69
   0 -13 -19    3.73    6.80
   0 -13  19    7.57    6.10
   0 -13  19    3.37    5.94
   0 -13 -20    6.02    9.28
   0 -13  20   -0.74    5.21
   0 -13  20  -11.01    7.68
   0 -14   0   55.32   15.50
   0 -14   0   13.72    6.82
   0 -14  -1   63.23   16.03
   0 -14  -1   95.93   19.60
   0 -14   1   71.78   17.88
   0 -14   1   83.68   17.73
   0 -14   2   -7.09    6.81
   0 -14  -2  -10.62    9.29
   0 -14   2   -7.01    2.96
   0 -14  -2    5.08    8.04
   0 -14   3    6.39    4.91
   0 -14  -3   12.51    7.26
   0 -14   3   13.38    6.74
   0 -14  -3   24.61   13.57
   0 -14   4    6.80    6.69
   0 -14  -4   24.51    7.53
   0 -14  -4   15.45    6.33
   0 -14   5   -0.41    4.99
   0 -14  -5    6.43    6.46
   0 -14   5    6.71   10.09
   0 -14  -5    4.00    3.57
   0 -14   6   46.44   13.75
   0 -14   6   27.81    8.96
   0 -14  -6   50.85   15.24
   0 -14  -6   45.14   12.94
   0 -14   7  138.11   22.26
   0 -14  -7  167.41   24.57
   0 -14   7  155.62   24.29
   0 -14  -7  150.21   23.53
   0 -14  -8  109.02   22.18
   0 -14   8  114.92   20.76
   0 -14   8  123.07   20.87
   0 -14  -8  111.05   20.71
   0 -14  -9    7.12    5.13
   0 -14   9   11.37    5.91
   0 -14   9    4.52    7.12
   0 -14  -9   -1.35    4.03
   0 -14  10  127.83   22.04
   0 -14 -10  155.37   26.15
   0 -14  10  152.25   22.61
   0 -14 -10  150.85   23.93
   0 -14 -11    2.18    5.44
   0 -14  11   14.42   11.04
   0 -14 -11    7.03    5.96
   0 -14  11   19.97    8.31
   0 -14 -12   44.02   12.83
   0 -14  12   73.56   16.94
   0 -14  12   56.90   14.26
   0 -14 -12   69.34   16.38
   0 -14 -13   95.21   19.49
   0 -14 -13  129.62   21.71
   0 -14  13  118.90   21.53
   0 -14  13  112.21   20.48
   0 -14 -14   95.83   20.20
   0 -14  14   95.42   17.46
   0 -14  14   67.14   16.13
   0 -14 -14   99.86   20.30
   0 -14  15    1.12    7.55
   0 -14 -15   -1.36    4.76
   0 -14 -15    3.42    4.78
   0 -14  15   -9.30    6.63
   0 -14 -16   10.48    9.08
   0 -14  16   16.46    6.81
   0 -14 -16   29.45   10.12
   0 -14  16   18.99    9.18
   0 -14 -17   10.92    7.90
   0 -14  17    8.71    3.87
   0 -14 -17    3.20    4.20
   0 -14  17    5.40    6.20
   0 -15   0    1.77    7.24
   0 -15   0   -3.22    8.55
   0 -15  -1    1.20    5.35
   0 -15   1   -0.74    5.29
   0 -15   1    4.75    3.89
   0 -15   2    1.35    7.17
   0 -15   2   -2.01    3.81
   0 -15  -2   -0.65    4.12
   0 -15  -2   16.14    9.51
   0 -15  -3   -6.01    3.06
   0 -15   3    5.68    7.76
   0 -15  -3    3.48    4.89
   0 -15   3  -11.88    8.98
   0 -15  -4   -0.92    4.21
   0 -15  -4    0.59    5.10
   0 -15   4   -2.75    6.49
   0 -15   4   -1.83    7.83
   0 -15   5   -2.81    6.09
   0 -15  -5   -0.22    4.76
   0 -15  -5    3.88    3.53
   0 -15   5    2.04    3.70
   0 -15  -6   -2.85    3.39
   0 -15   6  -10.70    9.01
   0 -15   6   12.20    8.90
   0 -15  -6    3.16    3.79
   0 -15  -7    9.72    8.54
   0 -15   7    2.34    3.21
   0 -15  -7   10.50   12.33
   0 -15   7   -5.94    5.13
   0 -15   8   12.87    8.29
   0 -15   8    2.48    4.84
   0 -15  -8    5.18    7.39
   0 -15  -8   -8.86    9.51
   0 -15  -9   -0.41    7.27
   0 -15   9   -1.18    6.41
   0 -15   9    6.97    6.52
   0 -15  -9   -0.24    4.68
   0 -15  10   -7.86    4.71
   0 -15  10   -1.63    5.87
   0 -15 -10   -1.56    4.34
   0 -15 -10   -3.53    4.55
   0 -15  11   -1.47    6.32
   0 -15 -11    7.78    7.93
   0 -15 -11    8.86   12.12
   0 -15  11  -14.34   10.20
   0 -15 -12    3.06    5.65
   0 -15  12    4.43    3.36
   0 -15  12    8.41    8.99
   0 -15 -12  -10.76    6.30
   0 -15 -13   11.19    9.48
   0 -15  13   -7.19    8.02
   0 -15 -13   -6.41    7.57
   0 -15  13   -9.11    6.19
   0 -16   0  178.74   28.24
   0 -16   0  239.30   32.71
   0 -16  -1   11.74    9.56
   0 -16   1    6.58    3.80
   0 -16   1    1.23    8.54
   0 -16  -1   12.24    9.90
   0 -16  -2   12.45    8.58
   0 -16   2   13.58    8.16
   0 -16  -2   10.77   10.31
   0 -16   2   11.26    9.99
   0 -16  -3    1.93    7.77
   0 -16  -3   -3.07    7.09
   0 -16   3   19.85   11.11
   0 -16  -4  380.52   40.06
   0 -16  -4  431.63   42.02
   0 -16   4  366.86   40.78
   0 -16   4  461.05   42.79
   0 -16  -5   17.59    6.79
   0 -16   5    0.73    4.18
   0 -16   5   12.70    5.59
   0 -16  -5   12.43    9.53
   0 -16  -6   16.96   11.16
   0 -16   6   -3.02    4.70
   0 -16   6    0.52    6.37
   0 -16  -6    9.21    7.41
   0 -16  -7   17.48    7.34
   0 -16   7   11.06    6.90
   0 -16  -7   16.98   10.42
   0 -16   7   35.12   14.57
   0 -16   8   33.11   15.29
   0 -16   8   57.69   14.76
   0 -16  -8   41.06   13.68
   0 -16  -8   37.27   14.80
  -1   0   0    1.45    1.30
  -1   0   1   -0.31    0.60
   1   0   1   -0.05    0.42
  -1   0   2 2758.32   26.28
   1   0   2 2690.15   30.71
   1   0   3    1.95    1.30
  -1   0   3   -0.25    0.66
  -1   0   3   -0.63    1.11
   1   0   4 1733.08   33.07
  -1   0   4 1689.73   28.89
   1   0   5   -0.21    1.50
  -1   0   5    0.90    2.13
  -1   0   5    1.27    1.07
   1   0   6 3109.09   51.60
  -1   0   6 3024.77   52.95
  -1   0   6 3178.05   49.10
   1   0   7    0.20    1.58
   1   0   7    0.32    2.07
  -1   0   7    1.01    2.85
  -1   0   7    2.56    2.60
  -1   0   8 3279.98   58.02
  -1   0   8 3161.06   61.60
   1   0   8 3270.97   61.20
   1   0   8 3262.90   61.03
  -1   0   9    2.66    2.41
  -1   0   9    2.82    2.88
   1   0   9   -0.79    1.66
   1   0   9   -1.67    1.30
   1   0  10    8.16    3.04
  -1   0  10    7.82    4.44
  -1   0  10   13.95    5.19
   1   0  10    3.70    1.62
  -1   0  11    2.03    2.40
   1   0  11   -0.59    2.70
  -1   0  11    1.49    3.09
   1   0  11   -0.71    3.84
  -1   0  12 1781.89   52.64
  -1   0  12 1712.75   54.92
   1   0  12 1899.39   56.29
   1   0  12 1838.34   54.70
   1   0  13   -2.83    3.08
  -1   0  13    0.15    1.54
  -1   0  13   -2.68    3.63
   1   0  13   -2.22    4.60
  -1   0  14  843.53   39.04
  -1   0  14  885.35   42.41
   1   0  14  763.19   38.38
   1   0  14  863.96   40.33
   1   0  15   -2.86    3.17
  -1   0  15    2.08    4.27
   1   0  15   -0.38    1.71
  -1   0  15    3.37    2.15
   1   0  16 2280.48   70.57
  -1   0  16 2361.39   70.26
  -1   0  16 2274.00   71.83
   1   0  16 2282.62   70.82
   1   0  17   -3.00    3.40
   1   0  17   -2.70    3.93
  -1   0  17   -0.97    5.73
  -1   0  17   -0.12    2.94
   1   0  18    2.78    4.05
  -1   0  18    0.29    3.05
  -1   0  18    0.28    2.78
   1   0  18    6.89    6.96
  -1   0  19   -0.46    6.46
   1   0  19    4.73    4.28
   1   0  19   -0.88    3.67
  -1   0  19   -1.34    5.77
  -1   0  20  127.63   18.56
  -1   0  20  132.13   19.59
   1   0  20  129.57   18.49
   1   0  20  139.90   19.59
   1   0  21    3.21    6.32
   1   0  21    1.38    3.67
  -1   0  21   -2.35    6.27
  -1   0  21   -4.62    3.81
  -1   0  22   66.60   16.63
  -1   0  22   79.64   14.97
   1   0  22   67.60   14.13
   1   0  22   80.70   16.31
  -1   0  23   -3.08    6.68
   1   0  23    4.93    6.19
  -1   0  23    1.02    6.48
   1   0  23    4.33    5.87
  -1   0  24  378.28   33.79
   1   0  24  387.89   34.60
   1   0  24  443.78   37.48
   1   0  25    2.37    7.25
  -1   0  25   -0.49    4.54
  -1   0  25    2.14    8.45
   1   0  25   -2.99    5.57
   1   0  26  631.11   46.78
  -1   0  26  527.12   40.58
   1   0  26  549.26   42.49
  -1   0  26  489.18   42.41
   1   0  27    2.23    6.52
  -1   0  27    1.49    3.14
   1   0  27   -2.14    4.56
  -1   0  27    5.11    5.46
   1   0  28   -0.14    5.65
  -1   0  28   -7.62    4.14
   1   0  28   -0.11    4.63
  -1   0  29    0.55    6.20
   1   0  29    0.16    4.92
   1   0  29   -3.79    7.16
  -1   0  29   -2.87    4.04
   1   0  30   40.03   12.23
  -1   0  30   64.46   17.27
   1   0  30   37.16   14.40
  -1   0  30   50.44   14.11
  -1   0  31    2.17    4.34
  -1   0  31   11.74    8.82
   1   0  31   10.00   10.04
   1   0  31   -0.14    6.82
  -1   0  32   15.94    8.47
   1   0  32    8.71    4.47
   1   0  32   12.64    7.44
  -1   0  32    4.36    4.42
   1  -1   0   -0.15    0.52
  -1  -1   0   -0.62    0.53
  -1   1   0    1.15    1.20
   1  -1   0    0.21    0.77
  -1  -1   1  947.42   19.19
   1   1   1  853.82   13.84
   1  -1  -1  882.38   16.30
   1  -1   1  948.17   15.41
  -1   1   1  941.16   20.68
  -1  -1  -1  843.87   16.80
   1   1   2 3152.38   33.60
   1  -1   2 2845.26   38.39
  -1  -1   2 2857.52   32.59
  -1   1   2 2900.40   36.04
  -1  -1   2 2909.58   37.30
  -1  -1  -2 2836.71   32.70
  -1   1   2 2837.64   38.78
   1  -1   2 3124.22   31.63
  -1   1   3  559.76   18.28
  -1   1   3  503.84   15.96
  -1  -1   3  524.10   13.39
   1  -1   3  525.27   17.53
   1   1   3  586.78   16.65
  -1  -1   3  491.18   15.71
   1  -1   3  566.42   15.17
  -1  -1   3  558.27   17.84
  -1  -1   4  168.69   10.40
  -1  -1   4  168.28   10.50
   1   1   4  186.56    9.86
  -1  -1   4  159.84    8.81
   1  -1   4  164.02    9.20
  -1   1   4  163.50   10.10
   1   1   4  180.88   10.45
   1  -1   4  181.78   11.20
  -1   1   4  163.11   11.10
   1  -1   5  662.66   22.82
   1   1   5  654.42   21.97
  -1  -1   5  618.54   22.08
   1  -1   5  556.63   20.45
  -1  -1   5  705.56   24.39
  -1   1   5  660.68   22.18
   1   1   5  604.21   20.34
  -1  -1   5  684.01   20.29
  -1   1   5  657.34   23.38
   1  -1   6  145.06   11.57
  -1   1   6  131.58   11.04
  -1  -1   6  160.44   12.78
  -1   1   6  138.02   10.96
   1   1   6  144.36   10.60
   1   1   6  159.25   11.71
  -1  -1   6  164.57   12.41
  -1  -1   6  135.34   10.07
  -1  -1   7  376.91   20.01
   1   1   7  339.67   18.63
  -1   1   7  375.28   18.91
  -1   1   7  329.04   19.29
  -1  -1   7  356.88   17.90
   1   1   7  365.63   18.63
   1  -1   7  346.29   19.28
  -1  -1   8  398.46   20.28
   1   1   8  378.05   19.71
  -1   1   8  399.06   20.78
  -1  -1   8  396.73   21.77
  -1   1   8  450.51   23.66
   1  -1   8  441.36   22.96
   1   1   8  438.21   22.46
   1  -1   9  116.00   12.41
   1  -1   9  113.60   12.39
   1   1   9  107.95   11.67
  -1   1   9  100.66   10.92
  -1  -1   9   98.77   11.34
  -1  -1   9   97.36   11.02
   1   1   9   65.23    8.77
  -1   1   9   67.09    9.72
  -1   1  10   27.44    6.18
   1   1  10   39.37    7.47
   1   1  10   30.53    7.28
  -1  -1  10   17.80    4.90
  -1  -1  10   30.64    7.62
   1  -1  10   39.51    8.19
   1  -1  10   33.34    6.88
  -1   1  10   20.54    5.32
   1  -1  11  304.85   22.14
  -1  -1  11  250.34   20.24
  -1  -1  11  325.81   21.52
  -1   1  11  297.57   20.91
   1   1  11  283.53   21.15
   1  -1  11  286.37   20.96
  -1   1  11  288.89   21.58
   1   1  11  307.94   21.25
  -1   1  12   24.56    7.04
  -1  -1  12   32.11    7.83
  -1  -1  12   30.86    7.93
   1  -1  12   21.97    6.43
  -1   1  12   24.64    5.47
   1   1  12   27.98    5.77
   1   1  12   41.01    8.61
   1  -1  12   28.97    7.04
   1   1  13  696.47   35.52
  -1   1  13  650.33   34.68
   1   1  13  698.91   35.72
   1  -1  13  733.47   36.21
  -1  -1  13  680.45   34.09
  -1  -1  13  684.50   36.32
   1  -1  13  696.13   35.89
  -1   1  13  687.81   33.87
  -1   1  14   58.56   11.01
   1  -1  14   48.89    9.17
  -1  -1  14   62.63   10.65
  -1  -1  14   58.74   10.37
   1  -1  14   62.08   10.73
  -1   1  14   71.35   10.65
   1   1  14   35.66    8.44
   1   1  14   79.13   12.31
   1   1  15   85.11   13.25
  -1  -1  15   62.09   10.59
  -1  -1  15  105.78   15.45
  -1   1  15   88.11   14.17
   1  -1  15  100.26   14.08
   1  -1  15   97.18   14.29
   1   1  15   92.76   12.71
  -1   1  15   87.12   13.02
   1  -1  16  131.76   17.13
   1  -1  16  190.61   20.00
  -1   1  16  188.37   19.67
  -1  -1  16  172.94   18.59
  -1   1  16  186.78   20.34
   1   1  16  180.86   19.69
  -1  -1  16  140.07   18.11
   1   1  16  212.19   20.98
  -1   1  17  980.15   46.41
  -1   1  17 1053.45   50.02
   1   1  17 1002.96   48.12
   1   1  17  936.94   46.13
  -1  -1  17 1079.67   51.18
   1  -1  17  978.92   48.90
   1  -1  17 1051.84   49.25
   1  -1  18   12.65    4.50
  -1   1  18    9.31    3.49
  -1  -1  18    4.45    2.13
  -1   1  18    0.02    6.39
   1   1  18   12.60    6.77
   1   1  18   10.55    6.23
  -1  -1  18   12.43    7.02
   1  -1  18   13.26    7.08
   1   1  19   10.00    7.62
  -1   1  19    9.47    5.66
  -1   1  19   18.05    7.23
   1  -1  19   10.65    4.94
   1  -1  19   20.12    8.37
   1   1  19   16.32    5.45
  -1  -1  19   14.23    6.79
  -1  -1  19   10.71    6.67
   1  -1  20  563.33   38.83
  -1   1  20  519.47   38.97
  -1   1  20  599.69   39.19
   1   1  20  605.72   40.69
   1  -1  20  568.06   39.98
  -1  -1  20  609.64   41.69
   1   1  20  640.14   41.40
  -1  -1  20  599.58   38.97
  -1  -1  21    0.95    6.17
  -1   1  21    7.85    7.36
   1   1  21    3.65    3.13
   1  -1  21    4.95    4.31
   1   1  21    4.72    4.87
   1  -1  21    5.61    5.13
  -1  -1  21   18.74    9.89
  -1   1  21    7.67    4.64
   1  -1  22  116.88   20.57
   1   1  22  153.63   20.96
   1   1  22  153.32   21.58
  -1   1  22  130.44   19.68
  -1  -1  22  132.31   20.40
  -1   1  22  103.97   17.81
   1  -1  22  134.71   18.58
  -1  -1  22  133.27   19.13
   1  -1  23  130.76   21.01
   1   1  23  111.42   17.43
  -1  -1  23   97.73   17.95
  -1   1  23  116.18   18.09
   1   1  23  121.27   19.49
  -1   1  23  113.92   19.77
   1  -1  23  151.74   21.50
  -1  -1  23  135.18   20.50
   1   1  24   -3.80    5.02
  -1   1  24   -4.17    3.25
   1   1  24    3.33    4.62
   1  -1  24   -1.61    4.78
  -1  -1  24    0.97    4.17
  -1  -1  24   -0.95    6.21
  -1   1  24    7.15    7.17
   1  -1  24   -0.98    4.36
  -1   1  25  109.37   19.20
  -1  -1  25  132.04   21.15
   1  -1  25   96.65   17.66
  -1  -1  25  121.70   20.33
   1   1  25   87.85   15.81
   1  -1  25  118.37   20.42
   1   1  25  105.02   21.11
  -1   1  25  124.05   18.98
   1   1  26   98.85   17.56
  -1   1  26  131.58   22.31
  -1  -1  26  115.41   21.04
  -1  -1  26   99.56   17.57
  -1   1  26  124.15   20.69
   1  -1  26  100.50   18.58
   1  -1  26   91.14   17.34
   1   1  26  122.85   21.02
   1  -1  27   -0.21    5.72
   1   1  27   -5.89    4.09
  -1   1  27    7.18    7.10
   1   1  27    7.13    7.02
  -1  -1  27   -1.33    6.39
  -1   1  27    5.40    8.63
  -1  -1  27   -0.71    4.42
   1  -1  27   10.74   10.04
  -1   1  28   13.04    9.12
   1  -1  28   -2.90    2.83
   1   1  28    3.54    5.88
   1   1  28   -4.17    2.39
  -1  -1  28    0.45    5.71
  -1   1  28    0.87    6.65
   1  -1  28   -1.44    7.80
  -1  -1  28    9.32    6.90
  -1  -1  29    1.91    5.65
  -1   1  29    4.94    4.83
   1  -1  29   -4.29    3.50
   1   1  29   -7.59    6.53
  -1   1  29    0.80    6.56
   1  -1  29   -0.85    6.76
   1   1  29   -4.34    5.27
  -1  -1  29   -4.25    3.29
   1   1  30   -0.08    5.49
  -1   1  30   -3.24    4.80
   1  -1  30    5.88    8.39
  -1  -1  30    0.25    4.32
  -1   1  30    4.24    7.83
   1  -1  30    7.01    5.95
  -1  -1  30   -1.30    6.68
   1   1  30    3.16    6.95
   1   1  31   -0.91    4.56
  -1   1  31   10.47    9.61
  -1  -1  31    5.82    5.10
  -1   1  31    7.68    8.72
   1   1  31   -0.18    8.98
  -1  -1  31    6.61    7.91
   1  -1  31    7.07    4.64
   1  -1  31    7.88    9.68
  -1   1  32   34.30   12.49
   1   1  32   55.18   16.79
   1   1  32   36.66   11.44
   1  -1  32   27.21   14.55
  -1   1  32   38.96   11.52
   1  -1  32   33.83   11.75
  -1  -1  32   28.06    8.02
  -1  -1  32   34.91   10.60
   1  -2   0   -0.44    1.16
  -1  -2   0   -0.23    0.75
   1  -2   0    0.16    1.20
  -1   2   0    0.07    1.64
   1  -2   1  103.25    8.91
  -1  -2  -1  121.78    8.84
   1  -2   1  135.40    8.64
   1  -2  -1  127.60    9.38
  -1  -2   1  126.46    7.05
   1  -2  -1  132.89    8.51
  -1  -2   1  124.99    9.02
  -1   2   1  124.66    8.86
   1   2   1  120.62    7.16
  -1  -2   2  484.19   13.19
  -1  -2   2  412.06   13.57
  -1  -2   2  397.44   16.81
  -1   2   2  438.90   17.18
  -1  -2  -2  463.62   17.23
  -1   2   2  383.45   15.60
   1   2   2  428.64   14.62
   1  -2  -2  403.19   15.73
   1  -2   2  448.23   16.07
   1  -2   2  419.31   18.39
   1  -2  -3 8777.37   77.40
   1  -2   3 8535.02   73.70
  -1  -2   3 8693.59   81.60
  -1  -2  -3 8537.56   76.53
  -1   2   3 8542.73   78.95
   1  -2   3 8454.46   83.08
   1   2   3 8838.75   71.97
  -1  -2   3 8356.34   64.14
  -1   2   3 8575.98   79.09
   1  -2   4  361.89   17.50
   1   2   4  346.83   15.74
  -1  -2  -4  343.49   16.12
   1   2   4  391.96   13.56
  -1   2   4  382.47   17.46
  -1   2   4  342.50   16.62
  -1  -2   4  321.19   14.39
   1  -2   4  356.41   15.82
  -1  -2   4  358.05   13.99
  -1  -2   4  352.79   17.28
  -1  -2   5 7464.66   83.65
   1  -2   5 7321.92   81.06
   1   2   5 7594.31   78.83
  -1  -2  -5 7014.32   77.45
  -1  -2   5 7199.48   70.60
   1  -2   5 7268.66   76.37
  -1   2   5 7205.95   79.90
   1   2   5 7326.61   67.50
  -1   2   6 1022.94   32.35
   1  -2   6 1069.52   32.93
   1   2   6 1163.40   29.56
   1  -2   6 1076.96   31.04
  -1  -2   6 1069.13   29.05
  -1   2   6 1001.23   31.45
  -1  -2   6 1031.82   32.89
   1   2   6 1064.38   31.48
  -1  -2   6 1143.65   33.38
  -1  -2   7  338.17   17.83
  -1   2   7  396.83   21.02
   1  -2   7  371.50   19.49
   1   2   7  389.85   20.11
  -1  -2   7  331.75   18.85
   1  -2   7  404.41   21.24
  -1  -2   7  361.82   20.43
   1   2   7  317.64   16.96
  -1   2   7  359.13   19.68
  -1  -2   8   91.98   10.91
  -1   2   8   82.11   10.07
   1   2   8   94.47   10.22
   1   2   8   83.25    9.26
  -1  -2   8   84.81    9.19
  -1   2   8   92.97   10.60
  -1  -2   8   95.70   11.26
   1  -2   8   96.81   11.49
   1  -2   9  617.90   28.85
  -1   2   9  542.92   27.11
   1  -2   9  570.53   27.18
  -1   2   9  556.99   27.47
  -1  -2   9  535.02   25.13
  -1  -2   9  543.42   27.12
   1   2   9  548.02   25.43
  -1  -2   9  539.52   28.03
   1   2   9  535.69   26.38
   1  -2  10 2739.73   63.59
  -1  -2  10 2715.82   59.49
  -1   2  10 2676.72   62.52
  -1  -2  10 2790.19   63.91
   1   2  10 2705.59   62.44
  -1   2  10 2822.03   63.97
   1   2  10 2769.01   60.87
  -1   2  11  178.17   17.20
   1   2  11  220.24   18.20
  -1  -2  11  168.52   16.10
  -1  -2  11  177.72   16.16
   1  -2  11  204.75   17.94
   1   2  11  194.97   17.67
  -1   2  11  147.77   15.25
   1  -2  11  179.57   17.76
   1   2  12   35.96    7.94
   1   2  12   42.31    8.54
   1  -2  12   44.83    9.53
  -1  -2  12   41.45    8.40
  -1  -2  12   34.27    7.72
  -1   2  12   42.56    8.57
  -1   2  12   54.30    9.38
   1  -2  12   38.74    7.89
  -1  -2  13  735.65   35.47
  -1  -2  13  723.49   36.89
   1  -2  13  804.71   39.08
   1   2  13  694.93   35.85
   1  -2  13  679.79   35.87
   1   2  13  632.60   33.56
  -1   2  13  712.39   35.83
  -1   2  13  717.23   36.56
  -1  -2  14   64.70   11.03
  -1  -2  14   87.83   13.23
   1  -2  14   66.84   11.61
   1  -2  14   87.69   13.48
  -1   2  14   83.62   12.38
   1   2  14   61.18   11.64
  -1   2  14   75.09   12.46
   1   2  14   88.07   13.06
  -1  -2  15  570.13   33.81
   1  -2  15  577.47   34.18
  -1   2  15  531.25   32.53
  -1  -2  15  651.91   37.23
   1  -2  15  586.52   35.21
   1   2  15  562.78   33.79
  -1   2  15  636.15   36.93
   1   2  15  576.80   34.33
   1  -2  16  188.05   20.18
  -1   2  16  159.81   18.03
  -1   2  16  168.14   20.20
  -1  -2  16  170.72   19.41
   1   2  16  180.28   20.32
   1  -2  16  191.77   20.08
  -1  -2  16  215.97   22.32
   1   2  16  185.67   20.55
   1   2  17   95.40   15.49
   1  -2  17   83.24   12.99
  -1  -2  17   89.91   16.08
   1   2  17  110.74   16.91
   1  -2  17   73.29   12.81
  -1   2  17  102.18   15.33
  -1  -2  17   73.97   12.23
  -1   2  17  102.18   16.72
  -1   2  18   15.56    7.21
  -1  -2  18   14.67    6.46
   1   2  18   12.74    5.12
   1  -2  18   12.99    6.53
   1   2  18   35.66   11.84
  -1  -2  18   13.56    6.43
   1  -2  18   12.17    6.28
  -1   2  18   10.04    5.93
  -1   2  19   73.76   15.68
  -1  -2  19   98.63   16.96
   1  -2  19   74.23   12.99
  -1   2  19   86.77   15.06
   1   2  19   97.38   15.47
  -1  -2  19  107.02   16.14
   1   2  19   99.95   16.66
   1  -2  19   62.80   12.21
  -1   2  20 1256.87   56.82
   1   2  20 1345.18   59.34
   1   2  20 1125.61   56.37
   1  -2  20 1287.38   59.05
   1  -2  20 1289.49   59.73
  -1   2  20 1281.44   59.78
  -1  -2  20 1353.32   59.19
  -1  -2  20 1310.54   61.01
  -1  -2  21   86.76   15.27
  -1   2  21   90.84   16.70
   1   2  21   97.68   16.37
  -1  -2  21   96.62   16.46
  -1   2  21   57.50   12.19
   1  -2  21   86.31   16.81
   1   2  21   91.91   17.11
   1  -2  21   75.31   15.08
   1   2  22   64.43   12.82
   1   2  22   64.81   14.85
  -1   2  22   48.71   12.18
  -1  -2  22   68.89   15.71
  -1   2  22   68.46   14.99
  -1  -2  22   70.27   15.60
   1  -2  22   56.28   13.04
   1  -2  22   49.58   12.50
  -1   2  23  123.45   20.24
   1  -2  23  101.75   18.60
  -1  -2  23  112.72   19.31
  -1  -2  23  112.78   18.34
  -1   2  23  126.31   18.86
   1   2  23   98.30   17.15
   1  -2  23  116.18   19.14
   1   2  23  115.93   18.30
   1   2  24   30.73    9.59
   1  -2  24   47.16   12.27
  -1   2  24   49.78   14.18
  -1  -2  24   55.86   14.61
   1   2  24   48.29   11.71
   1  -2  24   30.78   11.04
  -1   2  24   55.77   12.66
  -1  -2  24   42.86   10.92
   1   2  25    4.56    5.87
  -1  -2  25    1.43    2.60
  -1  -2  25    8.55    5.40
  -1   2  25    6.63    5.41
   1  -2  25   10.24    8.15
   1   2  25    0.44    4.19
  -1   2  25   12.95    8.00
   1  -2  25    4.76    7.91
   1  -2  26  126.45   20.78
  -1   2  26   68.72   14.87
  -1  -2  26   65.32   16.01
  -1  -2  26   63.15   16.25
   1   2  26   87.07   17.02
   1  -2  26   69.25   15.73
  -1   2  26  105.55   19.92
   1   2  26   51.76   13.34
  -1   2  27  163.90   22.97
   1   2  27  147.47   22.06
  -1  -2  27  200.76   28.02
   1   2  27  138.75   22.30
   1  -2  27  141.25   23.07
   1  -2  27  172.47   24.54
  -1  -2  27  154.39   23.17
  -1   2  27  197.41   27.19
   1  -2  28   13.66    6.00
  -1   2  28    9.32    2.71
   1   2  28   23.54    9.25
   1   2  28   -2.63    4.08
   1  -2  28   21.85   11.89
  -1  -2  28    7.04    5.50
  -1  -2  28    5.20    3.35
  -1   2  28   14.57    9.91
   1  -2  29    6.67    5.09
  -1   2  29    3.10    4.80
   1   2  29    0.18    5.64
  -1   2  29    1.90    4.71
  -1  -2  29   12.34    7.86
   1   2  29    0.79    5.60
   1  -2  29    1.25    7.54
  -1  -2  29   12.01    6.68
  -1  -2  30   65.26   14.93
   1  -2  30  106.95   19.84
   1  -2  30   88.08   21.72
   1   2  30   91.67   19.31
  -1   2  30  103.52   19.91
   1   2  30   73.95   15.64
  -1  -2  30   75.06   15.70
  -1   2  30   87.98   19.77
  -1   2  31   42.68   13.49
   1   2  31   44.08   10.46
   1   2  31   51.04   12.25
  -1  -2  31   55.49   13.27
  -1   2  31   51.42   14.64
   1  -2  31   53.15   16.19
   1  -2  31   41.72   11.90
  -1  -2  31   79.35   19.24
  -1   2  32   -7.19    8.14
   1   2  32   -6.24    8.27
  -1   2  32  -12.32   11.25
   1  -2  32   -0.73    6.17
  -1  -2  32   12.72    8.11
   1  -2  32    6.58    8.89
  -1  -2  32    6.82    9.30
   1   2  32    6.93    9.39
  -1   3   0   -2.04    1.53
  -1  -3   0    0.58    1.04
   1  -3   0    0.21    0.98
  -1  -3   0   -0.88    2.66
   1  -3   0    1.13    1.23
   1  -3   1 1845.97   42.52
  -1  -3   1 1775.37   40.73
  -1  -3   1 1955.36   36.02
   1  -3   1 1890.65   39.64
  -1   3   1 1935.05   38.76
   1   3   1 2052.03   36.64
   1  -3  -1 1750.17   38.17
   1  -3  -1 1856.92   41.56
  -1  -3  -1 1941.09   41.69
   1  -3   2  399.24   18.36
  -1   3   2  391.76   17.32
   1  -3   2  382.02   20.03
  -1  -3   2  373.68   16.38
   1  -3  -2  351.65   17.57
  -1  -3   2  397.27   12.92
  -1  -3   2  406.32   19.79
   1   3   2  414.39   17.16
  -1  -3  -2  391.56   18.89
  -1  -3   3 2664.90   45.14
  -1  -3   3 2587.63   38.48
   1  -3  -3 2779.95   50.31
  -1   3   3 2758.89   47.32
   1   3   3 2722.77   45.79
   1   3   3 2718.88   30.37
  -1  -3  -3 2800.54   51.78
  -1  -3   3 2798.78   53.23
  -1   3   3 2665.27   50.45
   1  -3   3 2817.60   55.38
   1  -3   3 2742.85   49.85
   1  -3   4  317.04   17.53
   1   3   4  318.38   12.22
  -1  -3  -4  292.61   17.17
  -1   3   4  302.25   17.64
   1   3   4  321.67   16.70
  -1  -3   4  317.72   15.64
  -1   3   4  336.52   17.57
  -1  -3   4  298.92   17.68
  -1  -3   4  314.58   14.86
   1  -3   4  316.11   18.88
   1  -3  -4  316.92   17.58
   1   3   5  755.08   21.74
   1  -3   5  758.57   31.28
  -1  -3   5  728.44   24.61
  -1  -3  -5  850.24   30.12
   1  -3   5  827.71   29.26
  -1   3   5  848.58   28.69
   1  -3  -5  788.91   29.13
  -1   3   5  811.40   29.57
   1   3   5  876.73   28.82
  -1  -3   5  842.71   31.70
  -1  -3   5  795.17   25.51
   1  -3  -6  548.92   25.02
  -1   3   6  529.85   23.71
  -1  -3   6  605.48   23.40
  -1  -3  -6  549.73   25.09
   1   3   6  574.67   24.39
  -1  -3   6  555.32   23.24
  -1  -3   6  572.68   26.70
   1  -3   6  546.00   24.37
   1  -3   6  544.13   25.38
  -1   3   6  525.91   24.68
  -1  -3   7   66.81    8.35
   1   3   7   78.67    9.74
   1  -3   7   65.38    8.97
   1  -3   7   72.06    9.51
  -1   3   7   63.72    9.35
  -1   3   7   73.02    9.44
   1   3   7   56.01    7.13
  -1  -3  -7   59.77    8.78
  -1  -3   7   73.58    8.97
  -1  -3   7   66.69    9.68
   1  -3   8 2939.13   60.79
   1  -3   8 2976.19   63.21
  -1  -3  -8 2815.02   60.79
  -1  -3   8 3019.28   61.86
   1   3   8 2909.82   55.47
  -1  -3   8 2855.31   63.21
  -1   3   8 2893.29   61.82
  -1  -3   8 2985.02   57.46
   1   3   8 2896.31   61.92
  -1   3   8 2935.57   61.86
   1  -3   9  260.53   19.51
  -1  -3   9  215.43   18.28
  -1  -3   9  251.33   19.06
   1  -3   9  266.50   18.99
   1   3   9  262.53   19.30
  -1   3   9  251.19   19.05
  -1   3   9  251.52   19.12
  -1  -3   9  224.79   16.71
   1   3   9  234.59   17.14
  -1   3  10  602.58   30.74
  -1  -3  10  657.48   32.26
   1   3  10  687.76   30.49
   1  -3  10  672.17   31.66
   1   3  10  667.00   31.79
  -1   3  10  651.79   31.55
   1  -3  10  606.30   32.13
  -1  -3  10  622.37   29.64
  -1  -3  10  622.83   31.66
  -1  -3  11   84.84   11.31
  -1   3  11   61.42   10.34
  -1   3  11   71.63   10.82
   1  -3  11  100.73   14.12
  -1  -3  11   66.07   10.89
   1   3  11   87.85   11.63
   1   3  11   67.66   10.43
  -1  -3  11   77.77   11.31
   1  -3  11   45.25   10.31
  -1  -3  12  156.93   17.71
  -1   3  12  146.93   16.12
   1   3  12  156.69   16.21
   1   3  12  159.02   16.41
  -1  -3  12  164.53   17.11
  -1  -3  12  155.47   15.76
  -1   3  12  144.57   16.24
   1  -3  12  141.20   15.78
   1  -3  12  154.77   17.86
  -1   3  13    2.73    3.13
   1  -3  13    9.34    3.45
  -1   3  13    5.96    3.28
  -1  -3  13    1.47    2.19
  -1  -3  13    6.38    4.75
   1  -3  13    9.44    4.40
   1   3  13    3.38    2.99
   1   3  13    8.91    3.30
   1  -3  14  102.53   14.56
   1  -3  14  101.21   14.87
   1   3  14  113.77   14.80
   1   3  14   90.92   13.33
  -1   3  14   90.52   13.35
  -1  -3  14  109.75   14.22
  -1   3  14  110.36   14.51
  -1  -3  14  106.06   15.14
  -1   3  15    0.79    2.37
  -1   3  15    6.57    4.04
   1   3  15    3.62    1.98
   1   3  15   -0.45    3.80
  -1  -3  15    2.88    4.04
   1  -3  15    3.19    5.30
   1  -3  15    1.95    1.69
  -1  -3  15    3.98    4.66
   1  -3  16    1.04    5.94
   1   3  16   -1.97    4.95
  -1  -3  16   -4.33    4.89
  -1   3  16    1.74    3.21
   1   3  16   -0.38    3.25
  -1   3  16    4.61    6.04
  -1  -3  16    9.97    5.95
   1  -3  16    6.94    5.88
   1  -3  17   54.74   11.43
  -1  -3  17   60.03   13.81
  -1   3  17   64.49   11.85
  -1  -3  17   56.63   12.71
   1  -3  17   53.24   12.95
   1   3  17   66.06   12.88
  -1   3  17   61.11   12.45
   1   3  17   62.45   11.91
   1   3  18   60.14   12.54
  -1  -3  18   71.49   13.85
   1   3  18   73.23   13.03
  -1  -3  18   78.12   14.68
  -1   3  18   73.08   13.77
   1  -3  18   69.45   14.72
   1  -3  18   68.12   12.93
  -1   3  18   76.20   14.06
   1   3  19  732.36   44.05
   1   3  19  689.14   41.40
  -1   3  19  734.95   44.36
   1  -3  19  646.31   42.44
  -1  -3  19  799.30   44.68
  -1   3  19  659.51   41.48
   1  -3  19  689.68   42.74
  -1  -3  19  681.40   43.76
   1  -3  20  126.29   19.55
  -1  -3  20   92.82   17.01
   1   3  20  118.41   18.05
   1   3  20  117.68   18.23
   1  -3  20   76.28   14.04
  -1   3  20   96.19   15.90
  -1  -3  20   91.93   15.92
  -1   3  20  106.47   17.91
   1   3  21  205.58   23.31
  -1   3  21  203.62   24.26
  -1  -3  21  190.30   24.30
  -1  -3  21  186.17   22.23
   1   3  21  211.83   25.11
  -1   3  21  196.67   23.23
   1  -3  21  181.99   23.35
   1  -3  21  197.66   23.77
   1  -3  22   25.92   10.09
   1   3  22   25.99   11.46
   1  -3  22   36.07   11.50
  -1   3  22   30.62   10.73
  -1  -3  22   48.00   14.93
   1   3  22   36.47    9.54
  -1  -3  22   31.62    8.83
  -1   3  22   56.90   14.38
  -1   3  23   78.69   15.03
  -1  -3  23   65.43   14.22
   1  -3  23   67.46   15.65
   1   3  23   98.30   17.91
  -1  -3  23   69.28   14.00
  -1   3  23   89.46   17.48
   1  -3  23   85.52   18.18
   1   3  23   92.19   15.97
   1   3  24    7.63    8.86
   1   3  24    1.96    8.05
  -1   3  24   -2.69    5.92
   1  -3  24   -2.53    4.01
  -1   3  24    6.52    8.06
  -1  -3  24   -1.86    3.02
   1  -3  24    1.02    6.08
  -1  -3  24    5.57    4.45
   1   3  25   35.98   11.41
  -1  -3  25   61.68   14.28
   1   3  25   75.66   17.35
  -1  -3  25   42.50   13.51
  -1   3  25   42.00   11.68
   1  -3  25   76.34   16.30
  -1   3  25   58.95   13.27
   1  -3  25   63.70   13.69
  -1   3  26   27.66    9.57
  -1  -3  26    8.62    7.64
   1   3  26   20.29    9.93
  -1   3  26   23.15    7.82
  -1  -3  26   32.99   12.00
   1  -3  26   20.39   10.02
   1  -3  26   28.80   11.67
   1   3  26   13.52    5.70
  -1  -3  27   -1.44    7.35
  -1   3  27   13.32   10.10
   1   3  27    3.29    4.74
   1  -3  27    1.30    6.07
  -1  -3  27    2.44    4.11
   1   3  27   -1.68    4.43
  -1   3  27    5.72    5.91
   1  -3  27    0.11    2.50
   1  -3  28    7.79    7.09
   1   3  28   13.12    8.77
  -1   3  28    0.90    4.92
  -1  -3  28   11.22    8.05
  -1  -3  28    8.04    8.12
  -1   3  28   10.12    7.89
   1   3  28   -2.77    3.95
   1  -3  28   16.03    8.98
   1   3  29   -5.44    4.23
  -1   3  29   -2.26    7.80
   1  -3  29   -8.05    8.43
   1  -3  29    1.14    3.69
   1   3  29   -1.96    5.75
  -1  -3  29    7.50   10.29
  -1  -3  29   -1.42    5.16
  -1   3  29    2.89    7.78
   1   3  30    1.89    2.77
  -1   3  30    1.67    7.50
  -1  -3  30    5.32    6.49
   1   3  30    1.79    6.55
  -1   3  30   10.12    7.29
  -1  -3  30    7.68    8.89
   1  -3  30   -8.00    6.29
   1  -3  30    2.79    3.05
   1   3  31   66.83   16.16
  -1  -3  31   56.83   18.05
   1   3  31   43.81   13.02
  -1   3  31   37.83   12.56
  -1  -3  31   81.09   17.87
   1  -3  31   51.71   13.64
  -1   3  31   41.37   14.32
   1  -3  31   26.60    8.33
  -1  -3  32    1.65    4.07
   1   3  32   -8.95   10.09
   1   3  32   13.65    8.54
  -1   3  32    7.04    6.48
  -1   3  32   14.40   11.92
  -1  -3  32    0.96    5.07
   1  -3  32   11.59   10.03
   1  -3  32    1.56    5.44
  -1   4   0    0.78    2.73
  -1  -4   0   -1.62    1.62
   1  -4   0    0.89    2.48
  -1  -4   0    1.47    3.43
   1  -4   0    0.08    1.05
  -1  -4   1   16.44    4.43
  -1  -4  -1   13.43    4.66
   1  -4  -1   24.20    5.97
   1  -4   1    9.88    3.25
  -1   4   1   10.79    3.83
   1  -4   1    6.98    3.18
   1  -4  -1    9.00    3.09
  -1  -4   1   17.37    3.84
   1   4   2 2185.64   45.60
   1  -4  -2 2174.38   49.37
  -1  -4   2 2144.20   46.03
   1  -4   2 2116.89   52.83
  -1  -4  -2 2104.56   50.12
   1  -4   2 2058.08   48.45
   1  -4  -2 2139.83   50.35
  -1  -4   2 2075.13   50.73
   1   4   2 2195.67   26.33
  -1   4   2 2221.66   46.15
   1  -4   3   40.76    7.49
   1   4   3   41.58    6.20
  -1   4   3   30.87    5.51
  -1  -4   3   35.90    6.10
  -1  -4   3   30.72    6.99
   1   4   3   34.89    3.80
   1  -4  -3   37.58    6.61
   1  -4   3   26.22    5.79
  -1  -4  -3   44.70    7.55
   1  -4   4  734.02   31.63
  -1  -4   4  826.06   25.23
  -1  -4   4  747.75   28.03
   1   4   4  858.21   30.16
  -1  -4   4  752.15   31.49
  -1   4   4  773.44   30.76
  -1  -4  -4  739.39   30.25
   1   4   4  709.35   19.32
   1  -4   4  683.11   28.93
  -1   4   4  774.54   27.89
   1  -4  -4  750.06   30.13
   1   4   5  990.75   25.32
  -1  -4   5  965.41   32.12
  -1  -4  -5  994.68   35.97
   1   4   5  902.05   32.01
   1  -4   5  988.99   36.81
  -1  -4   5  836.85   28.17
  -1   4   5 1000.89   33.39
   1  -4  -5 1004.41   35.93
   1  -4   5  986.04   35.76
  -1   4   5  994.49   35.60
  -1  -4   5  944.45   35.96
  -1  -4   6  539.79   24.14
  -1   4   6  561.24   27.60
  -1   4   6  505.57   24.09
   1  -4  -6  444.59   24.75
  -1  -4   6  505.34   27.56
   1   4   6  487.19   24.16
   1   4   6  532.80   20.51
   1  -4   6  469.20   25.31
   1  -4   6  491.93   25.92
  -1  -4  -6  522.22   26.90
  -1  -4   6  542.59   23.83
   1  -4   7 1119.17   39.93
   1  -4  -7 1106.86   39.83
  -1  -4   7 1140.07   36.36
   1   4   7 1148.10   39.06
  -1  -4   7 1218.95   37.84
   1   4   7 1136.41   32.19
  -1  -4   7 1040.76   40.11
  -1  -4  -7 1114.36   40.23
  -1   4   7 1040.10   39.13
  -1   4   7 1189.70   38.55
   1  -4   7 1199.03   41.58
  -1  -4   8 1976.94   50.74
   1   4   8 2086.91   46.47
  -1   4   8 1913.56   54.08
   1  -4   8 1963.62   54.06
  -1  -4   8 1993.82   50.44
  -1  -4  -8 2021.18   55.84
   1  -4   8 1917.20   53.54
  -1   4   8 1948.93   51.22
  -1  -4   8 2015.56   56.72
   1  -4  -8 2023.71   55.69
   1   4   8 2037.02   53.50
  -1   4   9 1579.53   48.42
   1   4   9 1691.96   50.64
  -1  -4  -9 1642.37   51.59
   1  -4   9 1707.80   51.74
  -1  -4   9 1716.27   48.56
   1   4   9 1907.35   48.06
   1  -4  -9 1714.37   52.85
   1  -4   9 1745.96   53.07
  -1  -4   9 1945.01   53.25
  -1  -4   9 1704.71   53.83
  -1   4   9 1760.41   52.29
  -1  -4  10  611.10   31.18
   1   4  10  523.39   29.09
   1  -4  10  530.51   30.25
  -1  -4  10  590.37   32.07
  -1   4  10  591.51   31.23
  -1  -4  10  598.92   30.71
   1  -4  10  570.78   30.64
  -1  -4 -10  568.84   30.97
  -1   4  10  541.33   29.43
   1   4  10  563.91   28.26
  -1   4  11    5.84    4.35
   1  -4  11    0.27    1.77
  -1  -4  11    3.45    3.84
  -1   4  11   12.04    5.21
   1  -4  11    6.69    4.95
  -1  -4 -11    1.74    3.23
   1   4  11    2.84    3.88
  -1  -4  11    8.21    6.25
   1   4  11    1.85    1.25
  -1  -4  11    4.44    2.84
   1   4  12   78.24   11.73
  -1   4  12   88.92   13.09
  -1  -4 -12   96.61   13.94
   1  -4  12   95.10   13.19
   1  -4  12  106.33   15.26
  -1   4  12   97.51   14.27
  -1  -4  12   70.65   12.09
  -1  -4  12  101.45   13.97
  -1  -4  12   99.95   13.09
   1   4  12   88.96   12.57
  -1   4  13   64.08   11.53
   1  -4  13   78.77   13.61
   1   4  13   93.68   13.58
  -1  -4  13   76.37   12.83
  -1   4  13   86.71   13.42
   1  -4  13   89.05   13.25
  -1  -4  13   85.83   12.94
   1   4  13   84.75   12.70
   1  -4  13   73.00   12.22
  -1  -4  14  504.09   33.34
   1  -4  14  507.25   33.57
  -1   4  14  487.24   32.30
  -1   4  14  466.72   31.44
  -1  -4  14  485.06   30.40
  -1  -4  14  426.32   30.59
   1   4  14  478.11   31.53
   1   4  14  501.87   31.40
   1  -4  14  450.45   30.36
  -1   4  15   42.62   11.33
   1   4  15   45.23   10.54
  -1  -4  15   44.31    9.93
   1  -4  15   47.27   11.55
   1  -4  15   44.87   10.95
   1   4  15   43.48   11.14
  -1  -4  15   44.33    9.85
  -1   4  15   34.83    9.17
  -1  -4  16   43.90   10.45
  -1   4  16   30.27    8.26
   1  -4  16   51.19   11.18
   1   4  16   38.07    9.07
  -1   4  16   42.43   10.11
  -1  -4  16   26.62    7.27
   1  -4  16   40.55   10.17
   1   4  16   20.94    7.45
  -1  -4  17  394.72   30.43
  -1  -4  17  415.63   32.46
   1  -4  17  337.98   28.89
   1   4  17  369.61   29.91
   1  -4  17  444.45   33.80
   1   4  17  280.65   25.99
  -1   4  17  336.79   28.98
  -1   4  17  377.21   30.65
  -1  -4  18  279.23   26.30
   1  -4  18  282.66   26.79
   1   4  18  245.20   25.19
   1  -4  18  238.58   25.84
  -1   4  18  274.41   26.04
  -1   4  18  293.68   27.77
   1   4  18  242.25   25.46
  -1  -4  18  249.14   25.47
  -1   4  19  182.45   22.39
  -1   4  19  183.31   22.19
  -1  -4  19  136.90   19.02
   1  -4  19  160.55   21.92
  -1  -4  19  175.25   21.81
   1   4  19  185.13   22.92
   1  -4  19  131.38   18.80
   1   4  19  158.25   19.70
  -1  -4  20   10.37    6.88
   1  -4  20    8.80    6.82
   1   4  20    4.82    3.99
  -1  -4  20   -0.75    2.13
   1  -4  20    8.46    5.78
  -1   4  20   11.07    7.26
   1   4  20    0.09    4.22
  -1   4  20    9.61    8.61
  -1   4  21  132.16   19.17
  -1   4  21   81.33   15.71
   1   4  21  158.91   21.34
  -1  -4  21   98.48   17.47
   1   4  21  112.94   17.84
   1  -4  21   99.88   18.37
   1  -4  21   89.02   16.58
  -1  -4  21  118.63   18.77
   1  -4  22   66.59   15.09
   1   4  22   45.46   12.80
  -1  -4  22   59.23   12.95
  -1   4  22   61.04   13.71
   1  -4  22   73.63   14.42
  -1  -4  22   50.05   14.28
   1   4  22   63.27   14.69
  -1   4  22   59.79   14.43
   1  -4  23  387.24   36.28
   1  -4  23  290.03   31.16
  -1  -4  23  346.46   33.71
   1   4  23  281.01   29.32
   1   4  23  358.52   33.28
  -1  -4  23  306.14   30.70
  -1   4  23  266.46   29.07
  -1   4  23  316.26   32.31
  -1  -4  24   -3.05    7.29
   1  -4  24    0.52    4.53
   1   4  24    7.41    5.34
  -1   4  24    8.92    5.72
   1   4  24   -1.92    7.39
  -1  -4  24    0.88    7.13
  -1   4  24   10.37    7.17
   1  -4  24   15.41    9.15
  -1   4  25    3.06    3.58
   1   4  25   -2.73    4.03
  -1  -4  25   -2.97    3.86
  -1   4  25    8.08    6.99
  -1  -4  25   -1.16    4.28
   1   4  25   -0.87    9.46
   1  -4  25    1.07    4.74
   1  -4  25    2.55    4.67
  -1  -4  26   30.37   12.75
   1  -4  26   17.06   10.11
  -1  -4  26   37.37   11.27
   1  -4  26   11.87    7.48
  -1   4  26   44.98   13.52
   1   4  26   48.25   14.44
  -1   4  26   31.07   13.46
   1   4  26   51.46   13.56
  -1  -4  27   47.78   13.18
  -1  -4  27   52.60   14.76
   1  -4  27   68.05   15.13
   1   4  27   67.32   15.04
   1  -4  27   30.28   13.81
  -1   4  27   44.28   11.95
  -1   4  27   57.40   15.05
   1   4  27   44.15   14.61
  -1   4  28    5.04    5.35
   1  -4  28   19.12   11.79
  -1  -4  28    0.70    5.34
   1   4  28   -8.09    7.11
   1   4  28    6.51    6.10
  -1  -4  28    1.51    7.86
  -1   4  28   -0.55    3.94
   1  -4  28    4.49    3.74
   1   4  29    2.99    7.49
   1  -4  29    8.11    8.95
   1  -4  29   -4.52    5.62
  -1  -4  29   -1.95    8.84
  -1   4  29    4.29    9.31
  -1   4  29   -2.93    6.48
  -1  -4  29    1.68    4.77
   1   4  29    9.12    8.31
  -1  -4  30   57.26   16.28
  -1   4  30   39.43   11.04
   1   4  30   16.30    5.42
   1  -4  30   40.40   14.43
  -1   4  30   27.48   11.06
   1  -4  30   37.86   14.79
  -1  -4  30   49.06   17.20
   1   4  30   25.11   12.22
  -1   4  31   41.52   14.66
   1   4  31   33.21   13.75
  -1  -4  31   46.39   16.53
   1  -4  31   50.00   16.84
  -1  -4  31   44.66   12.91
  -1   4  31   23.56    9.73
   1  -4  31   34.24   11.61
   1   4  31   37.43    7.91
   1  -5   0    0.21    2.94
  -1  -5   0   -2.93    3.20
   1  -5   0   -1.20    3.05
  -1  -5   0   -1.17    1.75
  -1   5   1  813.87   30.60
  -1  -5  -1  756.02   33.00
   1  -5   1  667.73   31.88
  -1  -5   1  711.67   32.22
  -1  -5   1  748.21   30.20
  -1  -5  -1  767.30   30.13
   1  -5   1  784.61   32.76
   1  -5  -1  754.94   32.16
   1  -5  -1  732.68   32.69
   1  -5   2    7.16    3.68
   1  -5   2   14.86    5.21
  -1  -5   2   12.11    5.00
  -1   5   2    3.34    2.22
  -1  -5  -2   14.17    5.70
  -1  -5   2   13.04    4.94
   1  -5  -2   10.63    4.67
   1  -5  -2    6.91    1.64
  -1  -5   3   37.44    8.12
  -1  -5  -3   33.06    7.53
   1  -5   3   28.74    6.06
   1  -5   3   50.31   10.14
   1  -5  -3   29.71    6.95
   1   5   3   24.32    3.28
   1   5   3   17.40    4.66
  -1  -5   3   31.07    6.85
  -1   5   3   28.21    5.99
   1  -5   4   86.52   11.25
  -1  -5   4   81.96   11.02
  -1  -5   4   94.87   11.29
   1  -5   4   88.34   12.25
   1   5   4   86.96    7.14
   1   5   4   84.19   10.42
   1  -5  -4  111.28   12.76
  -1   5   4   93.99   10.54
  -1  -5  -4   97.44   11.96
   1  -5   5   91.81   11.97
  -1  -5  -5   64.10    9.67
   1  -5   5   80.29   11.50
  -1   5   5   85.45   10.07
   1   5   5   89.86    7.88
   1  -5  -5   85.77   11.38
  -1   5   5   80.06   10.94
   1   5   5   71.51   10.27
  -1  -5   5   87.44   12.00
  -1  -5   5   67.65    9.33
  -1  -5   5   80.35    9.02
   1  -5  -6   71.85   10.99
  -1  -5   6   71.00    9.46
   1  -5   6   98.14   12.31
   1   5   6   74.91   10.43
  -1   5   6   94.43   11.03
  -1   5   6   89.61   11.70
  -1  -5  -6   96.22   12.41
  -1  -5   6   84.14    9.63
   1   5   6   69.08    7.45
  -1  -5   6   61.86   10.47
   1  -5   6   85.26   11.61
   1  -5  -7   -0.11    1.60
   1   5   7    0.60    1.37
   1  -5   7    0.83    3.81
   1   5   7    3.15    3.14
   1  -5   7    1.34    1.33
  -1  -5   7    2.26    3.66
  -1   5   7   -4.06    3.89
  -1   5   7    0.58    1.08
  -1  -5   7   -1.42    3.09
  -1  -5   7   -0.82    2.88
  -1  -5  -7    0.58    2.54
  -1  -5   8  744.96   37.14
   1  -5  -8  795.14   37.16
  -1  -5  -8  728.36   35.98
   1   5   8  646.17   26.87
  -1   5   8  692.52   31.91
  -1   5   8  768.96   36.43
  -1  -5   8  661.70   30.66
   1   5   8  724.78   34.06
  -1  -5   8  639.34   30.31
   1  -5   8  770.77   36.49
   1  -5   8  700.32   35.08
  -1  -5   9 1222.69   43.34
   1  -5   9 1189.93   45.96
   1   5   9 1259.95   45.81
   1   5   9 1071.24   36.92
  -1   5   9 1165.35   42.29
  -1  -5   9 1249.16   44.46
   1  -5   9 1163.08   45.21
  -1  -5   9 1175.56   46.91
   1  -5  -9 1221.31   47.04
  -1   5   9 1214.40   46.14
  -1  -5  -9 1172.26   46.56
   1  -5 -10    7.31    3.94
  -1  -5 -10    3.78    5.18
   1  -5  10    3.81    2.87
  -1  -5  10    9.14    3.49
  -1   5  10    3.77    5.19
   1  -5  10    2.70    2.74
   1   5  10    0.58    2.08
  -1   5  10   -0.62    4.15
   1   5  10    3.10    4.90
  -1  -5  10    3.95    3.10
  -1  -5  10    6.26    4.75
  -1  -5  11  125.46   16.80
  -1  -5 -11  177.52   19.15
   1  -5  11  136.40   15.91
  -1   5  11  135.07   16.77
  -1   5  11  128.77   15.20
   1   5  11  167.02   16.45
   1  -5 -11  132.17   16.49
  -1  -5  11  172.46   17.38
   1  -5  11  150.47   16.57
  -1  -5  11  149.52   16.32
   1   5  11  136.07   15.74
   1  -5 -12    2.87    3.52
   1   5  12    5.22    3.25
  -1   5  12   -1.83    3.37
  -1  -5  12    2.43    2.84
   1   5  12    7.00    4.94
  -1  -5  12    3.41    4.23
   1  -5  12    2.03    3.12
  -1   5  12    4.54    2.54
  -1  -5  12    8.66    4.24
  -1  -5 -12    6.56    5.14
   1  -5  12    0.29    1.67
  -1  -5  13   83.95   13.53
  -1   5  13   84.04   13.71
   1  -5 -13   78.95   13.48
   1  -5  13   83.51   13.21
  -1  -5  13   60.59   12.03
   1  -5  13   91.03   14.18
   1   5  13   56.09   10.35
  -1  -5 -13   56.43   11.51
  -1   5  13   58.14   11.35
  -1  -5  13   79.62   12.33
   1   5  13   54.07    9.62
  -1  -5 -14  233.20   22.86
  -1  -5  14  239.83   21.92
  -1  -5  14  233.99   23.39
   1  -5 -14  221.66   22.16
  -1  -5  14  208.94   21.61
  -1   5  14  226.46   22.63
  -1   5  14  211.31   21.49
   1  -5  14  244.83   23.07
   1   5  14  209.43   19.86
   1  -5  14  247.26   23.67
   1   5  14  233.64   22.99
   1  -5  14  206.19   21.26
  -1  -5  15  117.94   15.54
  -1  -5  15  152.35   20.90
  -1  -5 -15  122.50   17.11
  -1  -5  15  135.36   18.62
   1  -5  15  127.03   17.71
   1  -5  15  124.46   17.62
  -1   5  15  110.29   16.05
   1   5  15   97.58   13.55
  -1   5  15  145.82   18.91
   1  -5  15  106.30   16.23
   1   5  15  127.00   17.90
  -1  -5 -16   74.91   15.30
  -1   5  16  116.03   18.17
  -1  -5  16   76.03   16.58
   1  -5  16   74.87   14.27
   1   5  16   74.71   12.71
  -1  -5  16   81.10   13.83
  -1  -5  16   75.34   13.64
  -1   5  16   71.53   13.43
   1  -5  16   68.64   13.25
   1  -5  16   66.48   14.81
   1   5  16   85.09   14.33
  -1   5  17   68.08   13.96
   1   5  17   43.90   11.75
  -1  -5  17   37.04    9.36
   1  -5  17   56.51   12.85
  -1   5  17   47.38   12.01
  -1  -5  17   43.76    9.40
   1  -5  17   38.03   11.31
  -1  -5 -17   46.78   10.95
   1   5  17   55.62   11.09
  -1   5  18    0.49    2.01
  -1  -5 -18    0.78    5.87
   1  -5  18   -0.48    5.12
  -1  -5  18    1.45    5.95
   1   5  18    1.53    3.06
  -1  -5  18    0.33    4.55
  -1   5  18    4.48    3.67
   1  -5  18    0.55    3.34
   1   5  18    2.32    5.86
   1  -5  19   47.26   12.58
   1   5  19   54.59   12.29
  -1  -5  19   40.20    9.21
  -1   5  19   37.01   10.31
   1   5  19   29.11   10.84
   1  -5  19   58.30   12.72
  -1   5  19   48.73   11.03
  -1  -5  19   49.16   12.91
   1  -5  20  101.38   17.04
   1   5  20  109.66   18.03
  -1  -5  20   72.53   15.74
   1  -5  20   96.67   16.23
   1   5  20  120.04   18.42
  -1   5  20  107.42   16.82
  -1   5  20   82.85   14.81
  -1  -5  20  121.65   18.45
  -1   5  21   59.27   11.67
  -1  -5  21   73.12   15.34
   1   5  21   61.10   13.90
   1  -5  21   76.55   14.14
   1  -5  21   97.34   15.82
  -1   5  21   71.26   15.11
   1   5  21   72.72   15.07
  -1  -5  21   58.29   12.46
   1  -5  22    5.04    4.90
  -1  -5  22   37.65   11.57
   1   5  22   15.09    6.75
  -1   5  22   17.86    7.64
   1   5  22   11.00    3.38
  -1   5  22   23.40    9.56
   1  -5  22   26.02    9.24
  -1  -5  22   27.31    9.97
   1   5  23   41.73   12.04
  -1  -5  23   37.00   12.64
  -1   5  23   33.97   11.94
   1  -5  23   32.62   10.45
   1   5  23   47.20   12.35
  -1   5  23   33.88    9.33
   1  -5  23   52.30   14.00
  -1  -5  23   54.40   13.52
  -1   5  24   -4.54    4.16
   1  -5  24   -3.90    3.07
   1   5  24    0.39    2.84
   1  -5  24    0.99    8.25
   1   5  24    4.02    5.52
  -1  -5  24   -2.90    8.32
  -1  -5  24    5.69    6.76
  -1   5  24    7.46    7.12
  -1   5  25   -0.15    3.56
   1  -5  25   13.43    7.69
  -1  -5  25   -1.67    2.75
  -1  -5  25    7.64    8.87
  -1   5  25    4.36    5.74
   1   5  25   11.24    9.14
   1  -5  25    3.60    7.55
   1   5  25   14.82    9.23
   1   5  26   40.40   12.59
  -1  -5  26   42.86   13.06
  -1   5  26   43.48   13.58
  -1   5  26   65.50   15.82
   1   5  26   31.30    9.68
   1  -5  26   48.59   14.85
  -1  -5  26   33.99   11.68
   1  -5  26   47.25   12.34
   1  -5  27    5.79    8.45
   1   5  27   12.02   10.22
  -1   5  27   -3.41    5.07
   1  -5  27    2.25    3.90
  -1   5  27    0.62    4.55
  -1  -5  27    3.18    5.77
  -1  -5  27    3.87    6.78
   1   5  27    6.21    5.47
   1   5  28   -4.80    6.00
   1   5  28   -4.90    7.52
  -1  -5  28    3.58    5.64
   1  -5  28    5.78    3.77
   1  -5  28   12.97    8.14
  -1   5  28    2.97    8.97
  -1  -5  28   14.59    9.52
  -1   5  28    8.77    6.69
  -1   5  29   35.93   12.96
   1  -5  29   42.17   15.71
   1   5  29   39.62   11.12
   1  -5  29   59.89   16.03
  -1   5  29   34.11   12.87
  -1  -5  29   70.56   15.76
   1   5  29   32.67    7.59
  -1  -5  29   14.15    6.66
   1   5  30    5.08    5.39
  -1  -5 -30   13.52    7.96
  -1  -5  30   -0.38    9.20
   1  -5  30   16.72   11.00
  -1   5  30   16.87    6.78
  -1  -5  30   -0.61    7.11
   1   5  30   16.99    8.32
   1  -5  30    3.87    8.01
  -1   5  30   16.46    8.59
   1   5  31   53.44   18.67
   1   5  31   58.66   15.50
  -1   5  31   69.25   15.97
   1  -5  31   63.41   17.79
  -1  -5  31   33.51   12.72
  -1  -5  31   29.54    9.40
   1  -5  31   72.40   18.97
  -1  -5 -31   38.02   13.13
  -1   5  31   45.82   13.31
   1  -6   0   -1.13    1.26
  -1  -6   0    0.13    1.63
   1  -6   0    2.36    2.42
  -1  -6   0    2.20    4.12
   1  -6   1 2067.36   59.05
   1  -6   1 2092.07   61.49
   1  -6  -1 2190.79   61.26
  -1  -6   1 2183.59   57.94
  -1  -6  -1 2049.68   54.97
  -1  -6  -1 2050.13   60.02
  -1  -6   1 2242.03   62.07
   1  -6  -1 2200.27   60.04
  -1  -6  -2   60.39   10.65
  -1  -6  -2   37.33    7.59
   1  -6   2   45.44    9.26
  -1   6   2   53.08    8.57
  -1  -6   2   65.28   10.07
   1  -6  -2   45.81    9.59
  -1  -6   2   41.80    8.34
   1  -6   2   38.86    8.94
   1  -6  -2   56.50   10.56
  -1  -6   3  550.58   31.76
   1  -6  -3  553.37   30.88
   1   6   3  543.85   18.94
  -1  -6  -3  545.98   31.18
   1  -6  -3  565.53   30.79
  -1   6   3  583.06   27.37
  -1  -6   3  568.40   30.37
   1  -6   3  554.31   30.89
   1  -6   3  537.53   31.78
  -1  -6   4   56.74   10.50
   1   6   4   36.66    6.98
   1  -6  -4   49.55    9.38
  -1  -6   4   24.63    6.68
  -1  -6  -4   52.47   10.14
   1  -6   4   43.43    9.10
   1  -6   4   64.97   11.61
  -1   6   4   55.12    8.95
   1   6   4   51.42    6.25
  -1   6   5 1456.34   44.22
  -1  -6   5 1388.39   51.13
  -1  -6  -5 1474.84   51.67
  -1  -6   5 1521.59   49.57
   1  -6   5 1516.00   52.07
   1   6   5 1442.42   48.09
   1   6   5 1500.59   33.88
   1  -6  -5 1459.00   50.56
   1  -6   5 1447.15   52.72
  -1  -6   6   61.03    8.53
  -1  -6   6   69.17   10.75
   1  -6   6   61.24   10.88
   1   6   6   54.31    9.46
  -1  -6  -6   46.32    9.08
   1  -6  -6   62.74   10.62
   1   6   6   49.10    6.71
  -1   6   6   27.29    8.43
  -1   6   6   49.62    7.82
   1  -6   6   45.31    9.74
  -1  -6   6   46.82    9.36
  -1  -6   7  326.17   21.13
  -1  -6   7  290.13   24.61
   1  -6  -7  263.61   22.24
  -1  -6  -7  248.81   22.26
  -1   6   7  275.49   20.35
   1  -6   7  322.97   24.41
  -1  -6   7  254.62   20.48
   1  -6   7  287.10   23.22
   1   6   7  280.94   22.52
  -1   6   7  265.13   22.09
   1   6   7  257.57   16.42
  -1  -6   8  192.60   19.88
  -1  -6  -8  213.70   20.30
  -1   6   8  184.55   19.51
   1  -6   8  194.65   20.06
  -1   6   8  186.36   17.23
   1  -6  -8  211.71   20.20
  -1  -6   8  216.94   18.21
   1   6   8  195.14   19.39
   1  -6   8  195.17   19.46
  -1  -6   8  245.62   20.43
   1   6   8  206.48   15.41
   1  -6   9  722.93   38.39
   1  -6   9  744.23   38.47
  -1  -6   9  770.20   40.73
  -1   6   9  710.91   38.18
   1  -6  -9  734.97   38.78
  -1   6   9  719.89   35.21
  -1  -6   9  773.33   35.59
  -1  -6  -9  745.93   38.95
   1   6   9  604.43   33.45
  -1  -6   9  683.10   34.02
   1   6   9  721.13   30.62
  -1   6  10  214.82   19.62
  -1  -6 -10  170.00   18.98
  -1  -6  10  163.57   17.02
   1  -6 -10  191.18   20.47
   1   6  10  174.96   18.16
   1  -6  10  165.61   18.54
  -1   6  10  185.69   20.77
  -1  -6  10  216.14   19.98
   1   6  10  202.93   17.02
  -1  -6  10  209.68   20.95
   1  -6  10  188.24   19.56
  -1  -6 -11  501.01   33.00
  -1  -6  11  489.74   30.65
  -1   6  11  464.45   29.74
   1   6  11  532.21   28.86
   1  -6 -11  400.49   29.85
  -1  -6  11  421.16   28.83
   1  -6  11  450.05   29.72
  -1   6  11  452.91   30.67
  -1  -6  11  461.41   31.71
   1  -6  11  461.07   31.34
   1   6  11  439.24   29.71
  -1  -6  12  546.42   35.48
  -1   6  12  471.82   30.97
  -1   6  12  544.37   35.11
  -1  -6 -12  583.90   36.21
  -1  -6  12  527.43   33.27
   1  -6  12  588.84   36.01
   1   6  12  553.43   34.54
   1   6  12  557.58   31.09
  -1  -6  12  542.44   33.00
   1  -6  12  548.46   34.61
   1  -6 -12  602.18   37.08
  -1   6  13  307.79   26.63
  -1   6  13  290.18   24.59
   1  -6  13  322.49   26.60
  -1  -6  13  325.07   26.67
  -1  -6 -13  313.49   27.60
   1  -6  13  326.90   27.61
  -1  -6  13  244.52   24.11
  -1  -6  13  369.22   27.38
   1   6  13  304.41   24.21
   1   6  13  289.60   25.58
   1  -6  14   65.30   11.08
   1  -6  14   45.42   10.44
  -1   6  14   43.73   10.60
   1   6  14   44.26   10.12
  -1   6  14   34.67    9.68
  -1  -6  14   34.26    9.58
  -1  -6  14   52.80   11.09
   1   6  14   56.92   11.73
  -1  -6 -14   58.92   11.95
   1  -6 -14   43.13    9.80
  -1  -6  14   45.67   11.86
   1  -6 -15  259.38   25.59
  -1  -6  15  246.83   24.80
   1  -6  15  226.07   24.05
   1   6  15  249.02   23.63
  -1  -6  15  260.44   25.64
  -1  -6 -15  253.46   25.34
   1  -6  15  245.80   24.02
   1   6  15  296.93   26.75
  -1   6  15  236.30   24.05
  -1   6  15  236.86   24.53
   1  -6  15  250.53   25.77
  -1  -6 -16   10.08    5.82
   1  -6  16   14.59    6.81
   1  -6  16    6.76    5.68
   1   6  16    6.39    4.45
  -1   6  16    2.89    2.04
   1  -6  16    4.78    5.17
  -1  -6  16   19.79    9.75
   1   6  16    2.55    5.28
   1  -6 -16    9.41    8.11
  -1  -6  16    4.31    3.53
  -1  -6  16    4.70    6.31
  -1   6  16    2.16    2.62
   1  -6 -17    2.82    5.27
   1  -6  17   -2.79    3.69
   1  -6  17    1.29    5.64
   1  -6  17    2.85    6.74
  -1  -6 -17    5.39    3.32
  -1  -6  17    0.62    4.83
  -1  -6  17    1.78    3.65
  -1  -6  17   -1.59    5.11
  -1   6  17   -3.18    5.15
   1   6  17   10.08    7.40
   1   6  17    3.02    2.46
  -1   6  17   -1.20    3.25
  -1  -6  18   38.96   11.61
  -1  -6  18   31.23    9.58
   1  -6 -18   43.60   12.02
   1   6  18   34.05    7.31
   1  -6  18   41.98   10.89
   1  -6  18   26.90    9.35
   1   6  18   25.48    7.74
  -1  -6  18   32.39    8.90
  -1   6  18   35.89   11.58
  -1  -6 -18   32.41   10.14
  -1   6  18   27.46   10.48
   1  -6  18   36.72    9.80
  -1   6  19    3.83    4.12
  -1  -6  19   -0.94    5.55
   1  -6 -19   -3.15    3.02
  -1  -6  19    1.13    5.04
  -1  -6 -19    0.15    3.64
   1   6  19   -0.25    4.73
  -1   6  19    3.33    3.79
   1  -6  19   -0.09    5.23
   1   6  19   -0.29    3.83
   1  -6  19   -6.08    5.58
  -1   6  20  231.27   26.80
   1   6  20  265.23   28.17
  -1  -6  20  213.79   24.90
  -1   6  20  266.20   28.78
   1  -6  20  211.58   25.53
   1  -6 -20  244.37   26.20
   1   6  20  271.71   27.94
   1  -6  20  269.88   28.44
  -1  -6 -20  260.93   27.43
  -1  -6  20  254.67   28.31
   1  -6 -21    0.67    2.26
   1   6  21    6.94    5.80
  -1  -6  21    1.77    2.89
   1  -6  21    9.18    8.57
  -1  -6  21    2.45    7.53
   1  -6  21    6.05    7.61
  -1  -6 -21    4.76    6.79
  -1   6  21   14.52    6.89
  -1   6  21   10.95    7.38
   1   6  21    0.94    6.90
   1  -6 -22  198.38   25.52
   1  -6  22  221.61   25.84
   1   6  22  182.47   23.41
  -1   6  22  163.10   21.94
   1  -6  22  207.60   27.30
  -1  -6 -22  157.40   22.97
  -1   6  22  158.72   23.47
   1   6  22  191.41   24.65
  -1  -6  22  216.31   26.72
  -1  -6  22  184.83   24.68
  -1  -6  23   11.80    6.98
  -1  -6 -23   21.73   10.38
  -1   6  23   12.93    9.43
   1  -6 -23   19.03    8.05
  -1   6  23   15.74    7.32
  -1  -6  23   25.58   10.54
   1  -6  23   25.94   12.01
   1  -6  23    8.37    6.79
   1   6  23   22.88    5.01
   1   6  23   33.36   11.74
  -1   6  24   59.09   15.13
  -1  -6  24   39.10   14.55
  -1  -6 -24   54.45   14.31
  -1   6  24   59.27   14.18
   1   6  24   59.53   15.17
   1  -6  24   35.86   12.73
  -1  -6  24   54.89   14.33
   1  -6 -24   73.43   16.49
   1  -6  24   31.97   10.16
   1   6  24   46.69   11.39
   1  -6  25    1.30    7.86
  -1   6  25   10.06    6.06
   1  -6 -25   16.32    8.31
  -1  -6  25   10.46    7.25
  -1   6  25    3.35    5.33
   1  -6  25    9.31    4.72
   1   6  25    8.73    7.86
  -1  -6 -25    6.50    5.19
   1   6  25   -3.19    6.48
  -1  -6  25   16.03    8.33
  -1  -6  26    8.19    5.86
  -1  -6  26   11.54    5.46
  -1  -6 -26    7.60    6.88
   1  -6 -26   30.46   12.87
   1  -6  26   21.94   10.48
   1   6  26    3.04    5.02
   1  -6  26   15.45   10.08
  -1   6  26   16.00    8.86
   1   6  26   21.39    8.87
  -1   6  26   11.47    6.68
   1   6  27   12.66    6.40
  -1  -6  27   13.88    7.23
   1  -6 -27   13.51    9.81
  -1  -6 -27    5.06    5.12
   1  -6  27   28.07   11.93
  -1   6  27   23.42    8.70
  -1   6  27    3.51    6.49
   1   6  27    8.38    8.18
   1  -6  27   10.40    4.56
  -1  -6  27   12.85    8.27
  -1  -6 -28  124.90   21.97
  -1  -6  28  113.27   21.14
   1  -6  28  125.08   22.65
  -1  -6  28   87.68   19.48
   1   6  28  112.15   22.87
   1  -6  28  128.03   21.70
  -1   6  28  119.84   21.18
  -1   6  28  122.82   22.81
   1   6  28  149.30   23.72
   1  -6 -28  100.70   19.20
  -1   6  29   -1.81    5.62
   1   6  29   11.55   10.69
   1   6  29    1.64    3.21
  -1  -6  29   -4.84    9.90
   1  -6  29   -6.48    8.96
   1  -6  29    2.85    5.08
  -1  -6 -29   -1.05    4.38
   1  -6 -29   -1.66    4.43
  -1   6  29   -2.20    5.69
  -1  -6  29    6.76    9.37
   1  -6  30   24.54    9.51
  -1   6  30   53.76   14.35
  -1  -6 -30   65.97   17.57
  -1  -6  30   48.43   17.85
   1  -6  30   21.71   10.85
  -1   6  30   56.27   16.05
  -1  -6  30   54.21   14.65
   1   6  30   37.61   14.44
   1   6  30   59.11   14.10
   1  -6 -30   53.71   15.12
   1  -7   0    0.03    1.96
   1  -7   0   -0.46    3.64
  -1  -7   0    5.89    5.34
  -1  -7   0   -1.45    1.65
  -1  -7   1  189.30   20.35
   1  -7   1  192.50   19.51
  -1  -7  -1  205.85   19.29
   1  -7  -1  192.30   19.44
  -1  -7  -1  193.14   19.58
   1  -7   1  235.18   22.20
   1  -7  -1  217.47   20.51
  -1  -7   1  230.67   20.19
  -1  -7   2    7.79    5.61
   1  -7   2    9.68    4.12
   1  -7  -2   14.67    5.37
  -1   7   2   15.08    5.02
   1  -7   2   10.27    5.69
   1  -7  -2   20.41    6.59
  -1  -7   2   12.39    6.94
  -1  -7  -2    7.01    1.28
  -1  -7  -2    2.84    2.06
  -1  -7  -3   31.44    9.11
  -1  -7  -3   11.17    4.33
   1  -7   3   12.52    5.82
  -1   7   3    5.94    3.30
   1  -7   3   11.62    6.09
   1  -7  -3   21.79    5.97
  -1  -7   3   10.89    4.10
  -1  -7   3   14.27    5.89
   1  -7  -3   15.65    5.78
  -1  -7  -4  184.22   19.85
  -1   7   4  155.05   15.29
  -1  -7   4  172.64   17.85
   1   7   4  179.09   12.22
  -1  -7   4  206.21   20.93
   1  -7  -4  191.39   19.27
   1  -7   4  215.50   21.71
   1  -7  -4  173.21   18.59
   1  -7   4  140.46   16.72
   1  -7  -5  669.60   36.45
  -1  -7   5  723.11   37.04
   1  -7   5  777.84   40.06
  -1  -7  -5  656.39   36.82
   1   7   5  721.13   25.64
   1  -7   5  660.16   37.91
  -1  -7   5  751.58   40.69
  -1   7   5  717.29   33.40
  -1  -7  -6  219.55   21.19
   1  -7   6  212.54   21.21
   1   7   6  248.76   21.53
   1  -7  -6  205.56   20.67
  -1  -7   6  201.73   21.17
  -1   7   6  234.12   19.44
   1   7   6  223.16   14.76
  -1  -7   6  251.32   21.85
   1  -7   6  193.75   20.36
   1  -7  -7    0.94    4.15
  -1  -7  -7    3.37    2.51
  -1  -7   7   10.88    5.80
   1   7   7    1.45    2.14
  -1  -7   7    0.91    1.57
  -1  -7   7    7.58    4.01
  -1   7   7    5.26    2.24
   1   7   7    4.47    2.02
   1  -7   7   10.02    4.91
   1  -7   7   13.31    5.69
  -1   7   7    6.43    4.66
  -1   7   8  192.60   18.38
   1  -7   8  178.62   19.65
  -1  -7   8  144.66   16.75
  -1  -7   8  175.94   19.70
   1  -7  -8  150.61   17.97
  -1  -7  -8  185.56   20.03
  -1  -7   8  168.05   17.34
  -1   7   8  165.97   18.96
   1   7   8  186.60   15.67
   1  -7   8  195.20   20.42
   1   7   8  152.31   17.12
  -1   7   9   72.72   13.33
  -1  -7   9   64.98   12.84
  -1   7   9   62.44    9.78
   1  -7  -9   39.19    9.79
  -1  -7   9   49.95   10.24
   1   7   9   65.36    9.99
   1   7   9   64.39   13.00
   1  -7   9   48.19   11.10
  -1  -7   9   46.78    9.81
  -1  -7  -9   44.33    8.98
   1  -7   9   45.29   10.23
  -1  -7  10  107.93   14.17
   1  -7  10  132.41   16.79
  -1   7  10  129.34   17.07
   1   7  10  120.60   13.57
  -1  -7 -10  134.17   18.07
   1  -7 -10  119.39   17.14
  -1   7  10  111.43   14.87
  -1  -7  10  116.42   16.00
   1   7  10   78.49   13.05
  -1  -7  10  121.56   15.48
   1  -7  10   96.82   15.46
   1  -7  11   13.60    5.34
  -1  -7  11   13.73    5.14
  -1   7  11   17.70    5.10
   1   7  11   19.92    8.95
  -1  -7  11    5.40    5.34
  -1   7  11   12.22    4.38
   1  -7  11   20.96    7.68
   1  -7 -11   12.35    7.53
   1   7  11   13.35    6.10
  -1  -7  11   13.06    6.66
  -1  -7 -11   14.78    6.86
   1  -7 -12   12.55    6.50
  -1  -7  12   16.44    6.02
   1  -7  12   21.19    7.30
   1   7  12   17.18    7.11
   1  -7  12   14.45    6.79
  -1  -7  12   25.90    8.62
  -1   7  12   11.14    5.35
  -1   7  12   25.03    7.24
  -1  -7 -12    9.86    5.20
  -1  -7  12   15.27    4.97
   1   7  12   19.72    6.35
  -1  -7  13  472.41   34.62
   1  -7  13  463.48   33.49
  -1  -7  13  438.81   31.50
   1  -7 -13  406.27   32.56
  -1  -7 -13  482.33   35.48
   1  -7  13  372.10   30.74
  -1   7  13  513.76   36.07
  -1   7  13  444.50   31.73
  -1  -7  13  463.41   32.93
   1   7  13  430.51   28.49
   1   7  13  434.67   32.63
  -1  -7 -14  719.13   43.42
   1   7  14  661.67   36.72
   1   7  14  715.61   42.02
  -1   7  14  672.10   39.09
   1  -7 -14  609.11   40.24
  -1  -7  14  665.26   42.43
   1  -7  14  655.95   40.24
  -1   7  14  677.48   42.82
  -1  -7  14  690.64   40.21
   1  -7  14  765.36   44.22
   1  -7  15   -0.08    4.21
   1  -7  15    0.53    4.28
   1   7  15    4.70    5.60
  -1   7  15    2.71    4.65
  -1  -7  15    3.55    4.61
   1  -7 -15   -0.29    3.50
  -1  -7  15    4.19    4.57
  -1  -7  15    4.38    5.77
   1  -7  15    4.55    6.74
   1   7  15    3.27    5.25
  -1   7  15    3.13    2.48
  -1  -7 -15   11.95    6.77
  -1  -7  16   -2.15    2.66
   1  -7  16    3.60    6.86
  -1  -7  16   -0.10    4.51
  -1  -7 -16   -2.13    5.73
   1  -7 -16   -2.61    5.04
  -1  -7  16    4.47    6.13
  -1   7  16   -3.15    6.61
   1   7  16    1.84    2.88
   1  -7  16    7.96    7.68
  -1   7  16    1.40    4.01
   1  -7  16    1.18    5.40
   1   7  16    5.84    2.60
  -1  -7  17  351.97   32.57
  -1   7  17  295.16   28.22
   1  -7 -17  272.67   27.65
   1  -7  17  265.56   27.94
  -1  -7  17  293.69   28.45
   1  -7  17  322.75   29.79
  -1  -7 -17  307.62   29.53
  -1   7  17  339.00   30.14
   1   7  17  281.44   27.13
  -1  -7  17  327.11   29.28
   1   7  17  291.24   27.68
  -1  -7  18   82.20   14.92
  -1   7  18  105.16   16.44
   1  -7  18   73.08   14.26
  -1  -7  18   92.46   17.14
   1  -7 -18   89.61   18.31
   1  -7  18   56.13   12.56
  -1  -7  18  110.79   18.22
  -1   7  18   72.67   16.42
   1   7  18  106.59   16.86
  -1  -7 -18  112.10   18.32
   1   7  18   83.05   15.70
   1  -7  18  113.48   19.06
   1  -7  19  128.16   20.55
   1  -7  19  159.35   21.47
   1  -7 -19  112.78   18.91
  -1  -7  19  101.25   17.75
   1   7  19  118.60   18.02
  -1  -7 -19  118.87   18.81
  -1   7  19  135.57   21.18
  -1   7  19  123.81   18.15
  -1  -7  19  178.50   22.84
   1   7  19  138.02   19.86
   1  -7  19  150.19   22.24
  -1  -7  19   97.21   20.56
  -1  -7 -20    2.84    2.99
   1   7  20    2.87    3.87
   1  -7  20    4.22    4.55
  -1  -7  20    3.24    3.54
   1  -7 -20   12.44    8.07
   1   7  20    5.41    7.94
   1  -7  20    3.90    5.66
  -1   7  20   11.79    3.89
  -1  -7  20   14.25    7.14
  -1   7  20    4.81    4.09
   1  -7  21    8.67    5.01
  -1   7  21    0.70    5.43
   1  -7  21   14.06    7.33
  -1  -7  21    8.45    8.68
   1  -7 -21   12.56    5.39
   1   7  21   14.77    3.98
  -1  -7  21   10.47    8.21
  -1   7  21   11.10    6.97
  -1  -7 -21   11.28    7.68
   1   7  21   13.02    8.11
  -1  -7  22   -0.13    4.45
   1  -7  22   -0.96    2.62
   1   7  22   -1.14    3.19
  -1   7  22   -0.40    3.72
  -1  -7  22    4.47    5.46
   1  -7  22    0.02    6.93
   1   7  22   -6.93    6.89
   1  -7 -22    3.88    3.12
  -1   7  22   -1.24    3.44
  -1  -7 -22    4.05    4.28
  -1   7  23   96.98   18.76
  -1  -7  23   68.40   16.78
   1  -7 -23  117.68   20.61
   1  -7  23   96.02   19.10
   1   7  23   96.47   19.01
  -1  -7 -23   86.78   17.94
  -1  -7  23  127.13   19.95
  -1   7  23   96.56   19.19
   1   7  23  111.15   19.56
   1  -7  23   68.42   15.44
   1  -7  24   -6.49    5.50
  -1  -7  24  -10.20    7.51
  -1  -7 -24   -1.81    4.36
  -1  -7  24    3.22    6.78
  -1   7  24    0.13    5.39
   1   7  24    2.94    5.23
   1   7  24   -0.51    8.00
   1  -7  24   -0.97    4.24
  -1   7  24    7.00    7.31
   1  -7 -24   -0.18    3.12
  -1   7  25    7.47    9.06
  -1   7  25    8.54    6.80
  -1  -7  25    1.02    7.21
  -1  -7  25   -1.09    7.02
   1  -7  25    0.74    6.18
   1  -7  25    1.54    6.85
   1  -7 -25   13.54    6.86
   1   7  25    0.39    4.18
  -1  -7 -25    5.64    8.12
   1   7  25   11.64    6.43
  -1  -7 -26   13.79    9.19
   1  -7 -26    2.22    5.20
  -1   7  26    4.54    4.89
  -1  -7  26    0.72    5.77
  -1  -7  26    9.84   10.13
   1  -7  26    3.00    6.37
   1   7  26   -4.81    5.95
  -1   7  26   13.03    8.27
   1   7  26    6.35    4.34
   1  -7  26  -14.48    8.69
   1  -7  27   72.20   16.80
   1   7  27   83.28   18.66
  -1  -7 -27  111.94   20.94
   1  -7 -27   68.75   15.37
  -1   7  27   57.32   16.75
  -1   7  27   70.36   15.34
   1   7  27   70.67   18.55
  -1  -7  27  104.13   21.21
  -1  -7  27   55.54   15.29
   1  -7  27   70.67   16.88
  -1   7  28   73.74   17.14
  -1  -7 -28   77.61   18.18
  -1  -7  28   86.82   19.99
   1  -7 -28   92.57   19.05
   1  -7  28   66.23   14.59
  -1   7  28  108.86   21.40
   1  -7  28   62.41   17.93
  -1  -7  28   77.33   19.39
   1   7  28  130.23   21.49
   1   7  28   49.73   16.17
  -1  -7 -29    0.54    4.24
  -1   7  29    8.43    6.12
  -1  -7  29   -1.59    3.86
   1  -7 -29   11.42    9.30
   1  -7  29   -0.61    5.04
  -1   7  29    4.56    5.14
  -1  -7  29    3.08    6.27
   1   7  29    3.82    8.97
   1   7  29   12.93    9.25
   1  -7  29   15.42    9.49
   1  -8   0   -3.03    4.04
   1  -8   0   -0.97    3.07
  -1  -8   0    1.15    2.49
  -1  -8   0   -1.66    3.61
  -1  -8   1 1172.24   49.63
   1  -8   1 1229.28   51.79
  -1  -8   1 1152.75   51.46
  -1  -8  -1 1310.17   54.67
  -1  -8  -1 1169.39   48.71
   1  -8   1 1238.03   53.28
   1  -8  -1 1192.54   51.39
   1  -8  -1 1306.98   53.82
   1  -8   2  131.54   17.52
  -1  -8   2  129.39   16.98
   1  -8   2  110.67   15.58
   1  -8  -2  113.31   16.37
  -1  -8  -2  135.82   16.75
  -1  -8  -2  108.35   16.09
  -1  -8   2  110.46   16.16
   1  -8  -2  101.95   14.73
  -1  -8   3   16.23    6.52
   1  -8   3   30.64    8.13
  -1  -8  -3   42.38    9.09
  -1  -8  -3   39.40    8.96
   1  -8  -3   31.14    8.54
   1  -8   3   25.69    6.26
  -1  -8   3   37.14    8.78
  -1   8   3   26.41    6.04
   1  -8  -3   28.52    8.43
   1  -8   4    9.05    2.49
  -1  -8   4   12.71    5.45
  -1   8   4    9.47    4.21
  -1  -8   4    4.15    4.70
  -1  -8  -4   -1.81    3.34
   1  -8  -4    3.55    3.34
   1  -8  -4    9.44    4.81
   1  -8   4    7.89    5.98
  -1  -8  -4    9.57    6.34
   1  -8  -5 1031.51   49.06
   1  -8  -5 1113.31   50.46
  -1   8   5 1085.91   43.07
   1  -8   5 1047.70   48.80
   1  -8   5 1164.96   53.32
  -1  -8   5 1169.01   50.37
  -1  -8  -5 1088.68   50.79
   1   8   5 1162.56   35.20
  -1  -8   5 1143.39   52.78
   1  -8   6   12.62    4.40
  -1   8   6   23.58    5.78
   1   8   6   22.41    5.18
  -1  -8   6   13.47    6.52
  -1  -8  -6   24.70    7.89
  -1  -8   6   16.32    6.02
   1  -8   6   14.77    4.82
   1   8   7  397.97   29.33
   1  -8   7  414.67   31.32
  -1  -8   7  375.14   31.06
  -1  -8  -7  399.35   30.95
   1  -8   7  375.03   30.23
   1  -8  -7  393.49   30.75
  -1   8   7  414.91   27.28
   1   8   7  380.94   21.36
  -1  -8   7  420.40   29.87
  -1  -8   8   28.66    9.00
  -1   8   8   35.80    8.61
   1   8   8   30.95    6.46
   1  -8   8   37.39   10.99
  -1  -8   8   36.05    8.95
  -1  -8  -8   27.99    8.63
   1  -8   8   26.75    9.13
   1  -8  -8   28.10    7.73
   1   8   8   25.42    6.95
  -1  -8   8   35.93    9.23
   1   8   9 2173.94   55.58
  -1   8   9 2197.40   72.92
  -1  -8   9 2324.48   70.19
   1  -8   9 2087.81   71.79
   1  -8   9 2224.17   72.57
   1   8   9 2125.34   69.81
  -1   8   9 2218.24   65.83
   1  -8  -9 2226.00   74.33
  -1  -8   9 2281.86   75.72
  -1  -8   9 1985.58   61.92
  -1  -8  -9 2137.59   72.77
  -1  -8  10   59.13   11.51
  -1  -8 -10   48.76   12.09
  -1  -8  10   37.37    8.07
  -1   8  10   44.50    9.31
   1  -8  10   44.18    9.53
   1  -8  10   36.04   10.04
   1   8  10   33.13    6.46
  -1  -8  10   46.66    9.81
   1  -8 -10   48.97   10.69
  -1   8  10   37.21    9.60
   1   8  10   39.37   11.02
  -1  -8 -11   26.89    8.96
   1  -8  11   12.83    6.03
   1  -8 -11   20.23    7.50
   1   8  11   15.40    5.84
  -1  -8  11   12.66    6.09
  -1  -8  11   26.31    8.83
   1   8  11   22.61    7.34
   1  -8  11   15.55    8.92
  -1   8  11   13.35    4.43
  -1  -8  11   27.25    8.79
  -1   8  11   22.53    7.00
   1  -8 -12  319.54   28.97
  -1  -8 -12  262.26   26.73
  -1  -8  12  272.78   25.21
   1  -8  12  291.83   28.13
  -1   8  12  286.73   26.22
  -1  -8  12  275.16   25.58
   1  -8  12  289.28   26.80
   1   8  12  294.36   23.88
  -1  -8  12  287.86   27.69
  -1   8  12  281.41   26.93
   1   8  12  279.58   27.41
  -1  -8  13  158.77   21.28
   1  -8  13  155.05   20.58
   1   8  13  151.41   19.99
  -1   8  13  155.50   19.35
  -1  -8 -13  144.13   20.06
   1  -8 -13  155.40   20.43
  -1  -8  13  169.39   20.08
   1  -8  13  186.97   21.58
  -1  -8  13  168.12   20.51
  -1   8  13  157.39   20.55
   1   8  13  155.63   18.05
   1  -8  14   10.71    6.25
  -1   8  14   10.08    5.38
   1  -8  14    8.02    4.43
   1  -8 -14   -2.59    5.31
  -1  -8 -14    9.31    6.24
   1   8  14    3.09    5.72
  -1  -8  14    4.26    6.09
  -1  -8  14   11.10    6.26
  -1  -8  14   13.91    6.41
  -1   8  14   11.35    7.79
   1   8  14    3.31    2.24
  -1  -8  15  129.05   19.64
   1   8  15  101.40   17.12
  -1   8  15  157.90   20.18
   1   8  15  109.85   15.76
  -1  -8 -15  119.70   19.60
   1  -8  15  106.87   17.60
  -1   8  15  111.19   16.69
  -1  -8  15  106.65   17.51
   1  -8  15  112.23   17.31
   1  -8  15  119.01   19.13
   1  -8 -15  146.16   21.13
  -1   8  16    1.99    3.30
  -1  -8  16    1.76    3.49
   1  -8 -16    2.92    6.41
   1  -8  16   14.59    6.94
  -1  -8  16   11.10    6.44
  -1   8  16    7.00    6.67
  -1  -8 -16   12.42    6.19
   1  -8  16    8.53    6.12
   1  -8  16   11.65    9.07
  -1  -8  16   -0.02    2.67
   1   8  16   11.64    5.36
   1   8  16   -0.07    5.77
  -1  -8  17  243.68   27.23
   1   8  17  231.91   25.59
  -1   8  17  226.08   26.24
  -1  -8  17  226.49   26.42
   1  -8  17  224.15   27.20
   1  -8 -17  251.97   27.76
  -1  -8  17  270.45   28.10
  -1  -8 -17  234.50   28.18
  -1   8  17  219.47   25.61
   1  -8  17  236.07   26.02
   1   8  17  265.45   26.03
   1  -8  17  250.36   27.47
  -1  -8  18   15.31    8.81
   1   8  18    0.19    3.36
  -1   8  18   -0.18    4.13
  -1  -8  18    6.73    6.36
   1  -8  18    2.38    4.25
   1  -8  18    5.72    6.97
   1  -8 -18    3.87    3.74
  -1   8  18    4.03    6.32
  -1  -8 -18    8.21    6.84
   1   8  18    9.63   10.15
   1  -8  18   -1.38    4.90
  -1  -8  18    9.78    5.70
  -1   8  19  347.30   32.76
  -1  -8  19  375.12   33.73
   1  -8  19  285.09   29.87
   1  -8 -19  385.42   35.61
  -1  -8  19  337.01   34.28
   1   8  19  315.53   30.37
   1   8  19  361.82   32.74
  -1   8  19  328.43   32.40
  -1  -8 -19  341.46   32.45
   1  -8  19  421.91   37.13
  -1  -8  19  371.23   35.49
   1   8  20   -1.81    5.11
   1  -8 -20   -0.22    5.30
  -1  -8  20   -8.95    9.98
   1   8  20   -2.62    3.63
  -1  -8  20   -2.51    4.69
  -1  -8  20   -0.51    3.21
  -1   8  20   -3.59    5.18
   1  -8  20   -1.99    4.59
   1  -8  20    4.66    6.03
  -1  -8 -20    7.54    7.00
   1  -8  20   -4.84    6.79
  -1   8  20    0.98    7.07
  -1  -8  21  167.85   23.79
  -1  -8 -21  130.83   21.88
   1   8  21  106.69   18.25
   1  -8 -21  120.97   19.81
   1  -8  21  143.42   22.11
  -1   8  21  102.33   19.06
  -1  -8  21   98.63   16.96
   1  -8  21  146.17   22.58
  -1   8  21  129.12   22.05
  -1  -8  21  141.52   22.77
   1   8  21  153.63   21.88
   1   8  22   16.60    7.62
  -1  -8  22   30.21   11.66
  -1   8  22   17.08    8.80
   1  -8  22   12.61    6.88
  -1  -8  22    6.19    6.29
   1  -8  22   20.61   10.45
  -1  -8 -22   10.46    7.96
   1   8  22   11.06    6.08
   1  -8 -22    4.56    3.99
  -1   8  22   11.17    7.49
   1   8  23  154.04   21.78
   1  -8 -23  201.57   27.07
   1  -8  23  250.70   30.35
  -1  -8  23  164.78   23.11
   1  -8  23  165.69   23.27
  -1   8  23  145.46   23.24
  -1  -8  23  217.45   28.67
   1   8  23  206.75   26.34
  -1   8  23  149.84   23.01
  -1  -8 -23  149.44   24.12
   1  -8  24    5.46    5.53
  -1  -8  24    9.41    9.00
  -1   8  24   -1.93    5.42
  -1  -8 -24   10.66    5.57
  -1  -8  24   -1.91    4.98
   1  -8  24   -3.41    5.70
   1   8  24   -0.15    3.30
   1  -8 -24    1.77    5.82
  -1   8  24   -2.47    3.17
   1  -8 -25   48.82   14.30
  -1   8  25   36.93   11.89
  -1  -8 -25   39.32   13.08
  -1  -8  25   33.30    9.47
   1  -8  25   33.05   12.90
  -1  -8  25   25.18    9.37
   1   8  25   58.23   15.73
  -1   8  25   35.77   13.86
   1  -8  25   49.31   14.44
   1  -8 -26    8.07    9.02
   1  -8  26    1.97    7.14
  -1  -8  26    0.30    3.66
   1   8  26   -1.56    3.51
  -1  -8 -26   -4.89    5.94
  -1   8  26    0.88    7.58
  -1  -8  26    6.10    6.33
   1  -8  26    5.22    8.15
  -1   8  26  -12.38    8.15
   1  -8  27  174.02   25.76
  -1  -8  27  179.33   26.80
  -1  -8 -27  174.13   25.90
  -1   8  27  189.38   27.24
  -1   8  27  157.18   23.65
   1   8  27  141.70   22.84
   1  -8 -27  171.76   25.72
  -1  -8  27  178.00   28.98
   1  -8  27  199.53   28.71
  -1  -8  28    4.25    7.45
   1  -8  28    6.96    7.55
   1  -8 -28    5.33    6.40
   1  -8  28    8.09    9.55
   1   8  28   23.43   11.62
  -1  -8 -28   12.39    5.92
  -1  -8  28   -1.77   11.01
  -1   8  28  -18.90   10.44
  -1   8  28   18.52    7.80
  -1  -9   0    1.91    3.22
   1  -9   0   -2.52    3.86
   1  -9   0   -0.35    2.35
  -1  -9   0    4.12    6.59
  -1  -9  -1   93.68   15.86
   1  -9   1   71.21   13.34
   1  -9   1   62.44   12.53
   1  -9  -1   60.35   12.66
   1  -9  -1   67.18   13.23
  -1  -9   1   77.41   14.29
  -1  -9  -1   51.32   11.25
  -1  -9   1   56.03   11.79
  -1  -9   2  130.46   18.01
  -1  -9  -2  135.21   19.56
   1  -9   2  108.34   16.12
   1  -9  -2  127.55   18.98
  -1  -9  -2  102.11   15.09
  -1  -9   2  140.39   18.60
   1  -9  -2  122.31   17.54
   1  -9   2  149.76   20.70
   1  -9  -3  200.91   22.55
   1  -9   3  203.35   22.59
   1  -9  -3  190.77   21.54
   1  -9   3  190.55   23.51
  -1  -9   3  234.95   25.25
  -1  -9  -3  169.98   20.20
  -1  -9   3  172.73   20.88
  -1  -9  -3  208.84   23.52
  -1  -9   4   82.11   15.11
   1  -9  -4   59.98   13.07
  -1  -9  -4   91.42   15.55
  -1   9   4   55.44   10.38
   1  -9   4   89.03   15.59
   1  -9   4   84.05   14.23
   1  -9  -4   79.27   15.60
  -1  -9   4   82.15   14.27
  -1  -9  -4   91.26   14.31
   1  -9  -5   13.80    6.37
  -1  -9   5   14.90    5.84
  -1   9   5    5.62    1.68
  -1  -9  -5    9.00    3.88
   1  -9  -5   21.79    7.49
   1  -9   5   24.18    7.88
  -1  -9   5    6.05    5.88
   1  -9   5   17.10    5.84
  -1  -9  -5   14.14    7.18
   1  -9  -6  102.95   16.17
  -1  -9   6  142.76   20.17
  -1  -9   6  151.07   18.55
   1   9   6  104.31   11.71
   1  -9   6  115.54   17.10
   1  -9  -6   95.52   15.65
  -1   9   6  122.87   16.04
   1  -9   6  127.82   18.46
  -1  -9  -6   96.47   15.81
   1   9   7   -1.33    2.64
   1  -9   7    2.39    6.02
  -1  -9  -7    3.93    5.02
   1  -9   7   -2.29    3.66
  -1  -9   7    2.09    3.45
  -1   9   7   -3.87    3.90
   1  -9  -7   -2.33    5.82
  -1  -9   7    1.65    4.32
   1  -9  -7   -1.34    3.46
  -1  -9   7   -4.28    6.12
   1  -9  -8   59.96   12.56
  -1   9   8   57.96   11.04
  -1  -9   8   47.46   12.16
   1   9   8   43.59    8.57
   1  -9   8   45.78   11.18
  -1  -9  -8   51.72   11.96
   1  -9   8   48.19   12.18
  -1  -9   8   76.58   12.38
  -1  -9   8   42.50   10.28
  -1  -9   9 1519.20   56.17
   1  -9   9 1721.77   68.03
   1   9   9 1675.60   51.13
  -1  -9  -9 1730.83   68.71
   1  -9  -9 1740.38   68.43
   1   9   9 1734.67   66.89
   1  -9   9 1698.23   67.36
  -1   9   9 1820.34   61.96
  -1  -9   9 1547.63   64.89
  -1  -9 -10   30.73   10.35
  -1   9  10   45.50   10.80
   1  -9  10   38.52   11.76
   1   9  10   23.64    6.13
  -1  -9  10   30.87    8.66
   1  -9 -10   39.52   10.15
  -1  -9  10   23.50    7.51
   1  -9  10   22.73    8.52
   1   9  10   35.84    9.53
  -1  -9  10   34.66   12.06
   1   9  11   55.03   13.14
  -1  -9  11   50.39   11.22
   1  -9 -11   54.92   12.20
   1  -9  11   72.34   14.87
  -1   9  11   39.52    9.75
  -1  -9  11   66.93   13.48
  -1   9  11   35.77   12.01
  -1  -9  11   65.14   14.36
   1  -9  11   38.09   10.54
  -1  -9 -11   38.53    9.69
   1   9  12    1.56    2.84
  -1  -9  12    6.18    3.95
  -1  -9  12   12.89    5.62
   1  -9  12    9.33    2.31
   1  -9  12   23.35   10.04
  -1  -9  12   11.06    4.83
   1  -9 -12   18.73    6.78
  -1   9  12    4.63    4.16
  -1   9  12   19.98    8.22
  -1  -9 -12    5.15    6.47
  -1  -9 -13    4.47    4.94
   1  -9 -13   10.78    6.65
  -1  -9  13    8.36    5.23
   1  -9  13    9.74    9.58
  -1   9  13    8.66    2.93
  -1  -9  13    9.79    6.60
   1  -9  13    6.94    6.27
   1   9  13    9.12    4.58
  -1   9  13   17.05    8.50
  -1  -9  13   10.75    7.31
   1  -9 -14    1.52    4.48
   1   9  14   13.06    9.04
  -1  -9 -14   12.21    6.18
  -1  -9  14    2.32    2.46
  -1   9  14   13.00    7.90
  -1   9  14   15.87    6.78
  -1  -9  14   18.82    8.46
   1  -9  14    1.31    3.38
   1  -9  14   19.11    8.22
  -1  -9  14   18.68    9.25
  -1   9  15   63.04   11.97
   1   9  15   61.09   13.92
   1  -9  15   34.00    8.88
  -1  -9  15   70.56   14.63
  -1  -9  15   55.00   12.98
   1  -9  15   46.99   13.29
  -1  -9  15   65.15   14.11
  -1  -9 -15   75.84   16.45
  -1   9  15   44.60   12.00
   1  -9  15   54.18   13.13
   1  -9 -15   51.34   12.36
   1  -9  16  134.20   21.38
   1  -9  16  153.27   22.51
  -1   9  16  141.09   20.66
  -1  -9  16  157.77   21.47
   1  -9 -16  158.96   23.22
  -1  -9  16  120.19   18.58
  -1  -9 -16   94.53   17.36
   1  -9  16  120.20   18.59
  -1  -9  16  150.78   20.62
   1   9  16  111.27   19.18
  -1   9  16  112.28   17.78
   1  -9  17   21.97    8.70
  -1  -9  17   19.39    7.75
  -1  -9  17    4.69    5.10
  -1  -9 -17   21.83    9.74
   1  -9 -17   13.77    8.88
   1   9  17   16.53    7.37
  -1   9  17   18.84   10.72
   1  -9  17    4.73    6.17
  -1   9  17   16.48    3.41
  -1  -9  17   28.01   10.73
   1  -9  17   17.92    6.98
   1  -9  18   51.21   14.11
   1  -9  18   78.34   16.60
  -1   9  18   73.00   16.14
  -1  -9  18   50.40   12.44
   1   9  18   54.41   14.55
   1  -9 -18   99.82   17.51
  -1  -9  18  103.47   17.50
  -1  -9  18   70.71   15.67
  -1  -9 -18   78.31   16.44
  -1   9  18   82.16   17.64
   1  -9  18   93.84   17.80
  -1  -9  19   97.16   17.64
   1  -9  19   60.64   14.07
  -1   9  19   79.18   17.54
  -1  -9  19   76.40   16.87
   1   9  19   76.28   15.05
   1  -9  19  107.81   19.21
   1  -9  19   64.71   13.97
   1  -9 -19   82.37   17.70
  -1  -9 -19   70.21   15.52
  -1   9  19   56.06   14.39
  -1  -9  19   90.00   17.99
  -1  -9 -20   41.90   11.22
  -1   9  20   17.74    6.51
   1  -9 -20   36.75    8.06
  -1  -9  20   27.31    9.91
   1   9  20   51.19   13.82
   1  -9  20   38.63   14.57
   1  -9  20   26.09   11.44
  -1  -9  20   39.45   13.20
  -1  -9  20   26.39   12.36
  -1   9  20   31.02   11.25
   1  -9  20   43.13   16.96
  -1  -9  21   94.14   17.79
   1  -9  21   90.42   19.77
   1  -9  21  123.86   21.83
  -1  -9  21  113.04   19.41
   1  -9 -21  100.01   18.73
  -1   9  21   96.55   17.22
  -1  -9 -21  135.52   21.14
  -1   9  21   99.41   19.41
   1   9  21  101.18   17.92
  -1  -9  21   89.45   17.94
   1  -9  21   98.47   16.79
  -1   9  22   29.96   10.15
  -1  -9  22   22.98    9.50
   1  -9  22   21.97   10.88
  -1  -9 -22   17.77    8.64
   1  -9 -22   20.25    9.79
  -1   9  22   35.29   11.33
  -1  -9  22    4.01    7.50
  -1  -9  22   20.18   12.22
   1  -9  22   37.53   12.36
   1   9  22   24.50    9.56
  -1   9  23   -3.46    8.47
  -1  -9 -23    6.55    3.17
  -1   9  23   -0.28    6.10
   1  -9  23    6.46    6.19
  -1  -9  23    9.99    9.31
   1   9  23   -3.19    5.77
  -1  -9  23    1.64    7.28
   1  -9  23    9.13    7.16
   1  -9 -23    2.70    6.12
  -1   9  24   27.56    8.35
  -1  -9  24   22.34    8.78
   1  -9  24   37.81   13.73
   1  -9 -24   56.56   14.85
  -1  -9 -24   23.35    9.71
  -1   9  24   37.66   14.08
  -1  -9  24   31.76   14.10
   1   9  24   28.42   10.97
   1  -9  24   28.18    9.64
   1   9  25   14.09    7.84
   1  -9  25   -2.60    6.71
  -1   9  25    3.81    6.95
  -1   9  25   -0.08    7.48
  -1  -9  25   -6.08    9.54
  -1  -9  25   12.97   10.49
   1  -9 -25    6.38    5.04
  -1  -9 -25   -6.96    7.56
   1  -9  25   15.46   10.94
  -1  -9  26  -10.20    9.23
  -1  -9  26    0.86    3.70
  -1   9  26   -6.04    6.07
   1  -9  26   10.89    9.50
  -1   9  26   -4.27    3.86
   1  -9 -26   -4.19    3.64
  -1  -9 -26   -5.23    6.31
   1   9  26    6.11    3.22
   1  -9  26    5.18    7.36
  -1   9  27   85.69   18.94
   1  -9  27   47.48   13.36
  -1  -9 -27   60.10   15.90
  -1  -9  27   45.57   15.14
   1   9  27   75.85   18.32
   1  -9 -27   61.40   16.49
  -1  -9  27   66.97   18.47
   1  -9  27   82.58   20.11
   1 -10   0    1.89    2.57
   1 -10   0    1.59    4.55
  -1 -10   0    4.48    4.86
  -1 -10   0    8.03    6.90
   1 -10  -1  129.72   19.99
  -1 -10  -1  143.37   20.48
  -1 -10  -1  128.00   18.99
  -1 -10   1  111.01   17.61
  -1 -10   1  140.38   19.13
   1 -10   1   92.30   16.75
   1 -10  -1  117.86   18.19
   1 -10   1  134.60   20.55
  -1 -10   2   30.78    9.80
   1 -10  -2   49.45   12.51
  -1 -10  -2   71.27   12.51
   1 -10   2   40.55   11.80
  -1 -10  -2   57.62   12.79
   1 -10   2   28.05    8.16
   1 -10  -2   51.80   12.06
  -1 -10   2   46.44   11.80
   1 -10  -3  340.33   30.33
   1 -10  -3  321.64   30.22
  -1 -10  -3  337.02   30.96
   1 -10   3  360.46   31.90
  -1 -10  -3  326.44   29.08
  -1 -10   3  309.95   29.62
   1 -10   3  328.97   30.65
  -1 -10   3  365.38   32.63
  -1 -10   4    7.64    6.15
   1 -10   4   13.90    9.17
   1 -10  -4   12.85    5.37
  -1 -10  -4    9.60    5.87
   1 -10   4    7.71    6.07
   1 -10  -4   17.46    7.22
  -1 -10  -4    8.22    7.25
  -1 -10   4   11.37    6.31
   1 -10   5  300.23   29.66
   1 -10  -5  266.14   26.89
  -1  10   5  315.39   25.91
   1 -10   5  325.22   30.28
  -1 -10  -5  265.59   26.64
  -1 -10   5  345.37   30.34
  -1 -10  -5  296.28   28.97
  -1 -10   5  292.40   29.86
   1 -10  -5  315.02   29.86
  -1  10   6  213.89   21.82
   1 -10   6  197.29   24.38
  -1 -10   6  184.25   23.49
  -1 -10  -6  153.95   20.67
  -1 -10   6  182.49   22.65
   1 -10  -6  204.98   24.06
  -1 -10  -6  198.69   22.95
   1 -10   6  211.33   25.00
   1 -10  -6  153.19   19.93
  -1 -10  -7  160.47   22.51
  -1 -10   7  146.57   19.17
   1 -10  -7  144.24   20.04
  -1  10   7  187.21   20.82
  -1 -10   7  175.99   22.58
  -1 -10  -7  137.95   19.01
   1 -10   7  149.53   20.73
   1 -10   7  166.38   22.61
   1 -10  -7  166.57   21.83
  -1 -10  -8   78.38   15.54
   1 -10  -8  104.03   16.91
   1 -10  -8   56.26   13.43
   1 -10   8   98.58   16.75
   1 -10   8   77.71   15.57
  -1 -10   8   55.27   12.02
  -1  10   8   54.44   10.53
  -1 -10   8   87.77   15.58
   1 -10  -9  137.88   20.34
  -1  10   9  156.85   19.06
  -1 -10   9  144.66   21.21
   1 -10   9  127.08   18.63
   1 -10  -9  117.18   18.10
   1 -10   9  130.08   18.20
  -1 -10  -9  153.73   21.73
   1 -10 -10  568.76   41.08
  -1 -10  10  546.59   40.12
   1 -10  10  620.45   41.49
  -1  10  10  603.25   38.86
  -1 -10 -10  564.80   41.64
   1 -10  10  572.93   41.73
  -1 -10  10  593.51   41.63
   1 -10  11   25.88   10.68
  -1 -10  11    8.99    3.79
   1  10  11   26.31   10.64
   1 -10 -11   26.10    7.21
   1 -10  11   32.30   10.41
  -1  10  11   14.78    7.05
  -1 -10  11   41.64   10.61
  -1 -10 -11   28.86   11.18
  -1 -10  12  156.19   21.66
  -1 -10 -12  135.74   20.96
   1 -10 -12  115.57   18.98
  -1 -10  12  137.26   19.26
   1  10  12  151.41   20.89
   1 -10  12  106.63   18.10
   1 -10  12  122.82   19.98
   1 -10 -13  127.85   20.69
   1  10  13  137.16   20.51
  -1  10  13  122.44   18.55
  -1 -10 -13  136.86   22.13
   1 -10  13  128.99   19.25
  -1 -10  13  139.15   22.15
   1 -10  13  109.23   17.80
  -1  10  13  130.96   20.72
  -1 -10  13  130.13   18.91
  -1 -10  13  107.26   18.08
  -1  10  14   10.41    9.08
  -1 -10 -14   15.36    7.74
   1 -10 -14    4.37    6.06
   1 -10  14    6.62    6.22
   1  10  14   14.72    4.55
  -1  10  14    2.99    2.80
   1 -10  14   21.33   10.43
  -1 -10  14    1.34    4.31
  -1 -10  14   21.39   13.50
  -1 -10  14    9.19    4.02
  -1 -10  15   -4.80    5.36
   1 -10  15   -7.64    6.79
   1  10  15   -6.39    7.72
   1 -10  15   -0.85    5.78
   1 -10 -15    6.30    8.68
  -1  10  15   -1.11    4.39
  -1 -10 -15    1.49    3.16
   1 -10  15    4.37    5.22
  -1 -10  15    2.11    2.53
  -1 -10  15    3.27    6.04
  -1  10  15   -4.52    7.17
  -1 -10  16  174.18   24.46
   1 -10  16  161.95   23.24
   1 -10  16  194.32   25.08
  -1  10  16  151.97   23.38
   1 -10 -16  170.88   23.52
   1  10  16  162.22   22.54
  -1 -10 -16  182.11   24.03
   1 -10  16  189.32   25.14
  -1  10  16  161.80   22.92
  -1 -10  16  194.36   24.86
  -1 -10  16  134.27   21.39
  -1 -10  17   50.37   14.23
   1 -10  17   28.48    9.52
   1 -10  17   22.69    9.66
  -1 -10  17   51.69   13.31
  -1  10  17   44.21   12.96
  -1 -10  17   27.99   10.48
  -1 -10 -17   25.98    8.78
   1  10  17   35.29   11.93
   1 -10 -17   29.26   11.38
  -1  10  17   25.30    9.69
   1 -10  17   44.29   13.60
   1 -10 -18   16.73    9.23
   1 -10  18    8.92    4.61
   1 -10  18   19.77    7.99
  -1 -10 -18   25.03   10.61
  -1  10  18   25.60    7.52
  -1  10  18   21.36    7.26
  -1 -10  18   37.34    9.01
   1 -10  18   36.88   12.50
  -1 -10  18   22.65   10.64
   1  10  18   24.92    9.82
  -1 -10  18   12.87    6.77
   1 -10  19   14.39    7.88
  -1  10  19   14.79   10.55
   1 -10  19   13.35    7.44
   1 -10 -19   13.44    7.29
  -1 -10  19   13.37    3.60
  -1  10  19    4.98    5.81
   1 -10  19    8.04    7.20
   1  10  19   27.88   10.20
  -1 -10  19    7.33    4.01
  -1 -10 -19   27.07    8.60
  -1 -10  19   20.77    8.79
   1 -10  20  218.85   29.95
   1 -10 -20  256.34   30.01
  -1 -10  20  314.93   32.36
   1 -10  20  331.23   32.75
  -1  10  20  249.03   30.34
  -1 -10  20  247.86   30.93
  -1 -10  20  194.83   26.09
   1 -10  20  283.66   33.34
   1  10  20  260.41   31.42
  -1 -10 -20  236.27   29.07
  -1 -10  21    8.62    7.69
  -1 -10 -21    8.56    7.58
   1 -10  21    4.10    7.38
  -1 -10  21    9.71    5.10
  -1 -10  21   -5.92    5.62
   1 -10 -21   -0.66    6.05
   1 -10  21   11.09    8.28
   1  10  21    5.42    5.03
   1 -10  21    1.96    6.21
  -1  10  21   13.07    9.82
   1 -10  22   15.17    5.81
   1 -10  22   32.91   11.07
   1 -10 -22   17.36   10.57
  -1 -10  22   29.31   10.69
  -1 -10 -22   40.96   14.02
   1 -10  22   51.78   14.68
  -1 -10  22   28.45    7.58
   1  10  22   39.78   12.70
  -1 -10  22   47.89   12.91
  -1  10  22   38.42   13.30
  -1  10  23    4.61    9.99
  -1 -10  23   19.09    5.32
   1 -10  23   -8.42   10.70
   1 -10  23   18.40    8.14
  -1 -10 -23   15.12   10.78
  -1 -10  23    6.87    8.42
  -1 -10  23    3.35    6.21
   1  10  23   -2.56    5.07
   1 -10 -23   12.94    7.66
   1  10  24   80.35   18.70
   1 -10  24   47.06   13.08
  -1 -10  24   57.12   16.74
  -1 -10  24   48.69   12.81
  -1 -10 -24   57.85   16.15
   1 -10  24   57.13   16.08
  -1  10  24   24.29    4.13
   1 -10 -24   87.05   17.66
  -1  10  25   -3.44    5.80
   1 -10  25   -3.73    7.35
   1 -10  25    1.95    3.26
  -1 -10  25   -1.13    3.99
   1 -10 -25    4.71    6.19
   1  10  25   -3.65    7.58
  -1 -10  25    0.03    7.14
  -1 -10 -25    0.78    3.28
  -1 -11   0   -4.69    6.31
   1 -11   0    1.14    3.69
   1 -11   0   -0.41    4.59
  -1 -11   0    1.33    2.87
   1 -11  -1   12.26    7.97
   1 -11   1    5.12    4.23
  -1 -11   1    1.58    4.22
   1 -11  -1    2.95    2.77
   1 -11   1   10.64    4.46
  -1 -11  -1   -6.84    5.29
  -1 -11  -1   14.23   10.06
  -1 -11   1   12.20    8.35
   1 -11   2    3.52    2.75
  -1 -11   2   -7.13    6.39
  -1 -11  -2   10.04    3.51
  -1 -11  -2   -0.20    2.88
   1 -11  -2   -0.34    7.09
  -1 -11   2    4.37    7.53
   1 -11   2   -1.96    3.63
   1 -11  -2    6.99    7.20
  -1 -11   3   83.98   16.22
   1 -11  -3   73.76   15.14
  -1 -11  -3   70.82   15.79
   1 -11   3   59.35   13.64
   1 -11  -3   87.44   16.03
   1 -11   3   65.09   15.35
  -1 -11  -3   68.88   13.97
  -1 -11   3   86.94   16.82
   1 -11   4   53.84   12.68
  -1 -11   4   58.64   13.42
   1 -11  -4   47.98   11.84
  -1 -11  -4   52.06   13.46
   1 -11  -4   61.51   14.40
   1 -11   4   53.15   12.26
  -1 -11  -4   36.96   10.14
  -1 -11   4   31.51   10.42
  -1 -11   5   -1.88    5.67
  -1 -11   5   10.55    7.14
   1 -11  -5    1.06    3.82
   1 -11   5    6.81    6.74
   1 -11   5    3.25    2.69
   1 -11  -5    2.04    3.88
  -1 -11  -5    8.69    7.04
  -1 -11  -5    4.29    5.18
  -1 -11   6   36.46   10.24
   1 -11   6   29.84   11.75
   1 -11  -6   26.52    8.98
   1 -11  -6   14.09    6.41
  -1 -11  -6   10.08    4.97
   1 -11   6   23.97    9.56
  -1 -11  -6   35.62   10.86
  -1 -11   6   15.39    2.65
  -1 -11   7   30.87    8.31
  -1 -11   7   21.51    9.16
   1 -11  -7   31.40   10.19
   1 -11   7   44.14   13.28
  -1 -11  -7   45.02   12.69
  -1 -11  -7   19.59    6.87
   1 -11  -7   29.79   10.20
  -1  11   7   30.83    8.95
   1 -11   7   39.67   11.23
  -1 -11  -8  233.20   27.44
   1 -11  -8  192.75   25.08
   1 -11   8  232.31   26.00
   1 -11   8  205.27   24.79
  -1 -11   8  246.58   27.64
  -1 -11  -8  221.36   24.98
   1 -11  -8  272.42   28.53
  -1 -11   9   16.04   10.02
   1 -11  -9    0.57    5.68
   1 -11  -9    9.12    6.61
  -1 -11   9   10.77    7.24
  -1 -11  -9    2.99    7.31
   1 -11   9   14.40    7.15
   1 -11   9    4.58    4.97
  -1 -11  -9    7.47    3.74
  -1 -11  10  307.80   31.77
   1 -11 -10  254.89   28.46
  -1 -11 -10  290.65   30.89
   1 -11 -10  280.42   30.01
  -1 -11  10  277.70   28.29
   1 -11  10  354.86   33.90
   1 -11  11    7.59    6.46
   1 -11 -11    6.25    4.37
   1 -11 -11   12.60    8.00
  -1 -11 -11    5.11    2.67
  -1 -11  11    7.56    7.06
  -1 -11  11    6.43    5.88
   1 -11  11    3.58    4.53
  -1 -11  12   54.52   13.14
  -1 -11 -12   66.16   13.19
   1 -11  12   90.92   18.61
  -1 -11  12   69.61   13.55
   1 -11 -12   83.03   15.71
   1 -11  12   62.14   13.55
   1 -11 -13   15.64    7.62
  -1 -11 -13   25.59    8.74
  -1 -11  13   27.32    7.63
   1 -11  13   16.15    5.14
   1 -11  13   20.48    9.79
  -1 -11  13   16.39    6.85
  -1 -11  14   11.51    8.22
  -1 -11 -14   16.42    9.41
   1 -11  14    1.40    2.27
   1 -11 -14   -2.79    4.37
   1 -11  14    1.85    4.46
   1  11  14   -1.27    6.45
  -1 -11  14    1.15    3.61
   1 -11 -15   -5.00    5.37
  -1 -11  15   -2.06    3.11
   1 -11  15   -8.31    6.34
  -1 -11 -15   -3.63    4.41
  -1 -11  15   -3.32    5.00
   1 -11  15   -0.61    6.10
   1 -11  15   -6.48    4.53
   1  11  15    2.21    6.45
  -1 -11  16   12.39    8.28
  -1 -11  16    5.92    7.36
  -1  11  16   17.08    8.34
   1 -11  16    9.25    7.90
   1 -11 -16    6.65   10.03
  -1 -11 -16   16.21   10.67
   1  11  16   17.17    6.57
   1 -11  16    8.74    5.38
   1 -11  16    5.40    5.74
   1 -11  17   51.37   12.96
  -1 -11  17   33.42    8.59
  -1  11  17   35.80   12.93
  -1 -11  17   37.76   11.30
   1 -11 -17   21.48    9.56
   1 -11  17   46.36   11.79
   1  11  17   30.09   10.64
  -1 -11 -17   19.30    7.09
   1 -11  17   20.16    8.95
   1 -11  18   -7.02    4.98
   1 -11  18   -2.58    4.13
  -1  11  18   -0.74    4.48
  -1 -11  18    2.00    3.14
   1 -11 -18    1.50    5.53
   1  11  18    3.31    7.75
  -1 -11 -18    4.44    5.52
   1 -11  18    2.48    4.47
  -1 -11  18   -7.60    5.28
   1  11  19   34.04   10.33
   1 -11  19   30.85   10.44
   1 -11  19   27.85   10.88
   1 -11 -19   43.94   12.63
  -1 -11 -19   39.48   12.45
  -1 -11  19   25.72   10.81
  -1 -11  19   28.66   10.59
   1 -11  19   12.28    6.34
  -1  11  19   46.12   12.50
  -1 -11  20   20.36   10.32
   1 -11  20   26.06   12.82
   1 -11 -20   22.35   12.30
  -1 -11  20   40.59   11.54
   1 -11  20   37.00    9.70
  -1  11  20   29.16   10.51
   1  11  20   35.38   10.64
   1 -11  20   26.76   10.02
  -1 -11 -20   47.78   11.41
  -1 -11  21   45.93   14.40
   1 -11 -21   10.51    3.24
  -1 -11 -21   12.39    5.04
  -1 -11  21   42.89   13.87
   1 -11  21   13.90    8.15
   1 -11  21   32.79   13.20
  -1  11  21   44.06   11.30
   1  11  21   27.03   10.11
   1 -11  21   14.60    9.94
   1 -11  22    9.00    9.82
   1 -11  22   -6.55    8.00
   1 -11 -22    3.36    3.42
  -1  11  22    9.41    3.57
  -1 -11  22   -4.12    3.93
  -1 -11 -22    8.15    8.53
   1 -11  22    1.23    5.86
  -1 -11  22    3.26    6.91
   1  11  22    3.34    5.12
   1 -11  23   -1.31    7.08
   1  11  23   20.92    9.09
   1 -11 -23    7.66    7.94
  -1 -11 -23   17.87   10.27
  -1 -11  23   10.29    9.74
  -1 -11  23    3.25    5.06
  -1  11  23   11.45    4.08
   1 -11  23   27.28   12.17
   1 -11  23    4.96    8.64
   1  11  24   10.49    8.05
  -1 -11 -24    0.43    7.01
   1 -11  24   -2.55    3.81
   1 -11  24   -3.23    6.73
  -1 -11  24   -3.67   12.50
   1 -11 -24    3.86    4.03
  -1  11  24   -3.41    5.03
  -1 -12   0   -3.73    4.26
   1 -12   0   -3.20    6.04
   1 -12   0   -4.35    9.29
  -1 -12   0    4.39    5.78
   1 -12  -1   -2.22    2.45
  -1 -12   1    3.80    6.78
  -1 -12  -1   -0.49    6.24
   1 -12  -1    3.73    4.29
  -1 -12   1    8.17    5.89
   1 -12   1    3.88    4.70
  -1 -12  -1    2.97    5.65
   1 -12   1    1.25    6.68
   1 -12  -2   49.94   13.03
   1 -12  -2   72.64   16.54
  -1 -12  -2   42.38   12.86
  -1 -12   2   68.42   15.14
   1 -12   2   83.32   17.99
  -1 -12  -2   68.01   12.99
  -1 -12   2   86.98   17.35
   1 -12   2   65.63   15.08
   1 -12   3    6.21    8.32
   1 -12  -3   21.47   10.27
  -1 -12  -3    1.14    8.59
  -1 -12   3    8.23    6.87
   1 -12   3   10.50    9.27
  -1 -12  -3   11.30    6.35
   1 -12  -3   12.41    8.22
  -1 -12   3    6.03    3.35
  -1 -12   4    2.43    4.79
   1 -12  -4   -1.39    4.01
  -1 -12  -4    1.76    4.77
   1 -12  -4    2.12    3.85
  -1 -12  -4   -5.16    6.24
  -1 -12   4   -1.10    4.77
   1 -12   4    6.71    4.46
   1 -12   4    2.27    6.64
  -1 -12   5   -4.01    7.47
   1 -12   5   21.53    8.59
  -1 -12  -5    8.59    4.34
   1 -12  -5   16.50    9.40
   1 -12   5    6.35    7.14
   1 -12  -5   10.71    7.48
  -1 -12   5    1.73    4.74
  -1 -12  -5   17.38    8.01
  -1 -12   6   18.33    9.88
   1 -12  -6   23.33    9.95
  -1 -12  -6    6.02    3.23
  -1 -12   6   12.71    6.26
  -1 -12  -6   15.57    5.79
   1 -12   6   21.57    9.06
   1 -12   6   17.81   10.98
   1 -12  -6   22.99   11.32
  -1 -12   7   39.39   13.47
   1 -12   7   23.80    9.48
   1 -12  -7   44.68   12.33
  -1 -12   7   29.79    8.27
  -1 -12  -7   18.21    9.08
   1 -12   7   32.10   11.46
  -1 -12  -7   35.77   12.12
   1 -12  -7   38.12   11.28
  -1 -12  -8   55.39   15.33
   1 -12  -8   73.62   15.59
   1 -12  -8   51.80   14.98
  -1 -12   8   56.93   15.60
   1 -12   8   33.52   12.39
  -1 -12  -8   70.75   15.77
  -1 -12   8   38.66   12.16
   1 -12   8   58.12   16.02
   1 -12   9  136.93   21.69
  -1 -12  -9  152.59   21.89
   1 -12   9  181.02   24.67
  -1 -12   9  131.68   19.90
  -1 -12  -9  169.59   23.64
  -1 -12   9  104.04   19.06
   1 -12  -9  136.20   21.74
   1 -12  -9  134.51   21.93
  -1 -12  10    4.20    6.39
   1 -12 -10   13.40    5.72
   1 -12  10   14.68    9.08
  -1 -12 -10   14.06    6.86
  -1 -12 -10   17.60    4.53
   1 -12 -10   16.64    8.12
   1 -12  10   20.58    9.20
  -1 -12  10   26.36   12.48
   1 -12  11   14.11    8.81
  -1 -12 -11    0.80    3.95
  -1 -12 -11   14.28    8.74
  -1 -12  11   15.86    5.27
   1 -12 -11   17.73    3.84
   1 -12 -11    5.07    4.65
   1 -12  11    6.98    7.97
  -1 -12  11    5.53    4.25
   1 -12 -12   11.05    9.75
  -1 -12  12    3.36    3.27
  -1 -12 -12   20.70    9.71
   1 -12  12   11.82    7.06
   1 -12 -12   17.22    7.32
  -1 -12  12   18.99   11.10
   1 -12  12    9.23    8.82
  -1 -12  13  203.60   26.76
   1 -12 -13  197.64   26.46
  -1 -12 -13  233.73   30.66
   1 -12 -13  237.55   29.66
   1 -12  13  221.94   26.30
   1 -12  13  239.44   28.54
  -1 -12  13  232.21   28.11
  -1 -12  14    7.42    6.61
   1 -12  14   -6.62    5.30
  -1 -12  14   -3.86    4.51
   1 -12  14   14.90    8.03
   1 -12 -14    2.19    4.30
  -1 -12 -14   -0.30    2.90
  -1 -12  15    8.70    6.62
  -1 -12  15   -4.14    5.46
   1 -12 -15    6.71    7.92
   1 -12  15    4.76    6.42
   1 -12  15    7.75    7.35
  -1 -12 -15   -4.73    5.25
  -1 -12  16  117.75   20.66
   1 -12  16  111.62   19.37
   1 -12 -16   89.49   16.93
  -1 -12  16  100.56   19.12
  -1 -12 -16  119.89   19.80
   1 -12  16   99.97   19.18
  -1 -12  17   28.02    9.21
  -1 -12  17   23.02    9.78
   1 -12  17   15.20    5.49
   1  12  17   37.29   13.86
   1 -12  17   43.61   11.64
   1 -12 -17   35.74    9.97
  -1 -12 -17   32.30   10.29
   1 -12  18   18.41    7.47
  -1 -12  18   11.67    7.32
   1 -12  18   23.50   10.30
  -1 -12  18   18.62    8.75
   1 -12 -18   10.15    8.67
  -1 -12 -18   25.48    6.22
   1  12  18   13.54    7.04
   1 -12  19  102.41   18.70
   1 -12  19   83.52   16.98
   1  12  19  116.42   20.08
   1 -12 -19   73.91   16.17
  -1 -12  19   86.19   17.24
  -1 -12  19   84.67   17.91
  -1 -12 -19  101.51   18.91
  -1 -12  20    4.38    7.06
  -1 -12 -20    6.07   11.83
   1  12  20    4.09    4.82
  -1 -12  20   16.95   11.61
  -1  12  20    5.06    9.68
   1 -12  20    6.10    8.55
   1 -12 -20    3.58    3.19
   1 -12  20   -3.14    6.16
   1 -12  21   -3.18    3.43
  -1 -12  21    1.91    3.24
   1 -12 -21   15.56   11.52
  -1 -12 -21    1.16    4.74
   1  12  21    2.52    8.24
  -1  12  21    0.03    5.27
  -1 -12  21    2.94    5.42
   1 -12  21    0.45    5.61
  -1 -12 -22    1.00    6.84
  -1  12  22   14.80    8.77
   1 -12  22    9.49    5.72
   1 -12  22   18.01    9.80
   1  12  22   37.20   11.56
  -1 -12  22   24.09   13.79
   1 -12 -22   27.14    9.17
  -1 -13   0   -4.33    8.42
   1 -13   0   -5.90    8.91
   1 -13   0    3.86    6.54
  -1 -13   0   -0.45    4.22
  -1 -13  -1   69.26   14.69
   1 -13  -1   48.36   13.61
  -1 -13  -1   73.37   17.95
  -1 -13   1   50.93   11.42
   1 -13  -1   83.94   18.98
   1 -13   1   62.13   15.64
  -1 -13   1   52.05   14.75
   1 -13   1   40.42   14.07
  -1 -13   2   33.13    9.55
  -1 -13  -2   18.63    9.88
  -1 -13   2   42.99   13.69
  -1 -13  -2   19.80    7.83
   1 -13  -2   44.08   12.84
   1 -13   2    8.76    6.94
   1 -13   2   18.17   10.65
   1 -13  -2   31.35   11.73
   1 -13  -3   50.00   13.68
  -1 -13  -3   20.50    9.56
  -1 -13   3   18.85    5.76
   1 -13   3   31.37    8.68
   1 -13   3   25.90    8.99
   1 -13  -3   19.30    8.63
  -1 -13   3   23.59    8.16
  -1 -13  -3   37.17   12.99
   1 -13   4   67.29   16.67
   1 -13   4   43.98   13.54
  -1 -13   4   39.07   11.54
  -1 -13   4   54.22   14.96
   1 -13  -4   62.35   15.33
   1 -13  -4   48.97   13.00
  -1 -13  -4   60.24   15.11
  -1 -13  -4   62.35   15.01
  -1 -13   5    2.21    3.47
   1 -13  -5    5.25    9.20
   1 -13   5    8.85    8.90
   1 -13   5    4.30    9.22
  -1 -13   5    1.76    6.86
  -1 -13  -5    6.60    2.76
  -1 -13  -5    5.52    7.79
   1 -13  -5   -3.85    4.65
   1 -13   6   -4.44    5.52
   1 -13  -6    0.27    6.17
  -1 -13  -6    3.63    4.79
  -1 -13   6   10.07    7.06
  -1 -13  -6   11.30   10.62
   1 -13  -6    2.22    6.67
   1 -13   6    7.59    6.97
  -1 -13   6   -0.25    6.65
   1 -13  -7   17.65    9.44
   1 -13   7   10.93    8.65
  -1 -13  -7    6.12    5.60
  -1 -13   7   13.65    6.54
  -1 -13  -7   11.36    4.37
   1 -13   7   -1.48    5.01
  -1 -13   7    5.42    6.13
   1 -13  -7   18.43    7.69
  -1 -13  -8   -0.41    3.69
   1 -13  -8   13.83   10.50
   1 -13   8    4.35    8.46
  -1 -13   8   11.60    8.14
   1 -13  -8   -1.81    3.96
  -1 -13  -8   10.83    6.52
  -1 -13   8   -1.80    2.59
   1 -13   8    4.47    4.20
  -1 -13   9  109.57   20.58
   1 -13   9  149.66   22.39
  -1 -13  -9  103.40   18.85
   1 -13  -9  108.09   20.04
   1 -13  -9  109.49   20.83
  -1 -13  -9   80.93   17.01
  -1 -13   9  118.07   21.03
   1 -13   9  108.15   20.22
  -1 -13 -10   11.39    4.89
   1 -13 -10   -5.99    6.50
  -1 -13 -10   -2.41    6.13
   1 -13  10    8.27    8.13
   1 -13  10   -0.46    3.50
  -1 -13  10    0.27    4.25
  -1 -13  10    5.99    7.35
   1 -13 -10    9.31    7.30
   1 -13  11   -2.76    7.41
   1 -13 -11    9.81    6.27
   1 -13  11   -4.15    5.64
  -1 -13 -11    5.81    7.42
   1 -13 -11   -6.52    7.91
  -1 -13  11    7.88    6.38
  -1 -13  11   -5.69    5.82
  -1 -13 -11    4.41    7.00
  -1 -13  12   63.51   16.68
   1 -13  12   60.48   14.66
   1 -13 -12   62.85   15.24
  -1 -13  12   55.44   14.52
   1 -13  12   23.50    8.63
  -1 -13 -12   49.07   12.45
   1 -13 -12   46.57   11.71
  -1 -13 -12   51.23   13.57
   1 -13  13   -2.73    5.04
   1 -13 -13    0.25    5.93
   1 -13  13    3.17    5.01
  -1 -13  13    2.18    6.10
  -1 -13 -13    5.85    5.66
  -1 -13 -13   -5.63    5.28
  -1 -13  13   -9.28    8.24
   1 -13 -13   -5.60    4.82
   1 -13 -14   18.28    7.29
   1 -13  14   26.48   10.89
   1 -13  14   11.67    8.53
  -1 -13 -14   35.67   10.13
  -1 -13  14   36.51   12.51
  -1 -13 -14   22.47   10.37
   1 -13 -14   19.48    9.62
  -1 -13  14   42.96   12.42
  -1 -13  15   99.83   19.06
  -1 -13  15  104.44   20.03
  -1 -13 -15  138.33   22.93
   1 -13  15  115.18   19.90
   1 -13 -15   60.00   15.17
   1 -13 -15   82.37   18.38
   1 -13  15   92.51   18.59
   1 -13  16    2.14    4.37
  -1 -13  16    2.13    6.44
  -1 -13  16   -2.22    5.29
   1 -13 -16   -1.76    3.28
  -1 -13 -16   -7.87    8.65
   1 -13 -16   -3.81    6.09
   1 -13  16    9.09    7.07
  -1 -13  17   -4.82    7.02
   1 -13  17    7.04    6.36
  -1 -13 -17   10.00    9.04
   1 -13 -17    3.34    6.80
   1 -13  17   -0.85    7.41
   1 -13  18    8.67    3.57
  -1 -13  18    1.10    5.50
  -1 -13 -18   11.48    3.19
  -1 -13  19    3.66    5.55
   1 -13  19   11.47    7.04
  -1 -13 -19    7.66    5.73
   1 -13  19   18.19    7.70
   1 -13 -19    6.45    3.45
  -1 -13  20   -8.48    8.21
  -1 -13 -20    2.47    4.09
   1 -13 -20  -10.56    5.80
   1 -13  20    5.69    6.89
   1 -14   0    1.37    6.28
   1 -14   0   -3.74    5.06
  -1 -14   0   -0.62    6.69
  -1 -14   0   -1.65    7.31
   1 -14   1   25.47   11.22
   1 -14   1   37.77   12.65
  -1 -14  -1   36.84   11.25
  -1 -14   1   39.71   12.92
  -1 -14  -1   31.12   10.88
   1 -14  -1   12.86   10.61
   1 -14  -1   40.76   11.20
  -1 -14   1   18.86    8.25
  -1 -14   2   33.42   12.12
   1 -14   2   20.87    9.69
  -1 -14   2   30.88   10.96
   1 -14  -2   17.06    7.86
  -1 -14  -2   28.07   10.85
   1 -14   2   42.99   12.85
   1 -14  -2    8.05    6.66
  -1 -14  -2   16.85    9.81
  -1 -14  -3    9.13    6.36
  -1 -14   3   36.08   12.77
   1 -14   3   43.02   14.52
   1 -14  -3   32.36   11.68
  -1 -14   3   20.54   10.85
  -1 -14  -3   35.91   11.30
   1 -14  -3   21.95    9.92
   1 -14   3   19.72    9.87
  -1 -14   4    4.82    7.80
  -1 -14  -4    6.97    7.08
  -1 -14   4    6.80    8.83
   1 -14   4    2.77    4.21
  -1 -14  -4    0.66    2.98
   1 -14   4    6.06    8.85
   1 -14  -4    1.23    6.43
   1 -14  -4   14.16    8.77
   1 -14  -5   98.04   19.97
  -1 -14   5   95.74   18.85
   1 -14   5  104.90   19.59
  -1 -14  -5   69.87   16.14
  -1 -14  -5  115.28   21.37
   1 -14  -5  122.03   22.27
  -1 -14   5  109.55   19.73
   1 -14   5  118.32   20.63
   1 -14   6   96.07   20.01
  -1 -14   6  131.43   22.59
  -1 -14   6  107.01   19.33
   1 -14  -6  101.16   19.73
   1 -14   6   98.05   19.36
   1 -14  -6  132.09   21.92
  -1 -14  -6  100.89   20.03
  -1 -14  -6  103.35   20.98
  -1 -14  -7   17.28   11.02
  -1 -14   7    5.68    9.09
   1 -14   7    5.10    8.32
  -1 -14  -7    5.82    5.04
   1 -14  -7   11.91    9.20
   1 -14  -7    3.35    6.95
  -1 -14   7   -3.47    3.96
   1 -14   7    6.72    4.34
  -1 -14  -8    5.16    7.84
   1 -14  -8    9.94    7.70
   1 -14   8   -3.40    8.27
  -1 -14   8    5.02    5.25
  -1 -14   8    7.59    5.13
   1 -14   8   -7.18    7.31
   1 -14  -8   -2.54    5.10
  -1 -14  -8    9.31    9.27
   1 -14   9   36.57   12.79
   1 -14  -9   20.76    3.07
  -1 -14  -9   35.27   12.16
  -1 -14   9    7.26    6.03
  -1 -14   9   32.16   12.39
  -1 -14  -9   43.08   13.16
   1 -14  -9   39.07   10.60
   1 -14   9   26.80   10.91
   1 -14  10   87.77   17.92
   1 -14  10   52.21   14.98
  -1 -14 -10   71.81   17.92
   1 -14 -10   65.81   15.81
  -1 -14 -10   84.90   17.79
   1 -14 -10   71.11   14.80
  -1 -14  10   68.77   15.81
  -1 -14  10   99.20   20.44
  -1 -14  11   23.05   11.27
  -1 -14  11   -0.71    7.40
   1 -14  11    0.85    3.77
   1 -14 -11   13.55    6.28
   1 -14  11    2.16    6.78
  -1 -14 -11    0.52    5.75
  -1 -14 -11   25.94   12.73
   1 -14 -11    9.66    9.10
  -1 -14 -12   11.89    9.86
  -1 -14  12   32.67   14.02
  -1 -14 -12   12.22   11.10
   1 -14  12   12.62    9.26
   1 -14 -12   32.01   10.96
   1 -14  12   17.10    6.30
  -1 -14  12   16.65    9.18
   1 -14 -12   15.29    7.18
  -1 -14  13   72.30   17.77
  -1 -14  13   50.94   15.56
   1 -14  13   68.64   17.82
   1 -14  13   21.55   10.61
  -1 -14 -13   44.20   14.02
   1 -14 -13   58.93   16.44
  -1 -14 -13   39.52   13.30
   1 -14 -13   52.38   14.77
   1 -14 -14   45.83   12.50
   1 -14  14   21.96    5.52
  -1 -14  14   17.45   10.18
   1 -14  14   40.22   12.33
  -1 -14 -14   44.86   13.73
   1 -14 -14   40.96   13.08
  -1 -14 -14   35.98   12.93
  -1 -14 -15   99.80   20.03
  -1 -14  15   90.19   19.05
   1 -14  15   83.66   17.53
   1 -14 -15   76.81   15.52
  -1 -14 -15   78.40   17.28
   1 -14 -15   89.98   20.17
   1 -14  15   97.25   20.57
   1 -14 -16   57.02   14.81
  -1 -14  16   50.27   14.52
   1 -14  16   82.92   19.32
  -1 -14 -16   81.21   17.84
  -1 -14 -16   65.94   16.00
   1 -14 -16   78.21   18.48
   1 -14  16   47.45   13.93
   1 -14 -17   53.36   15.93
   1 -14  17   43.62   12.13
  -1 -14  17   30.84   11.91
  -1 -14 -17   48.86   15.10
  -1 -14 -17   53.82   14.95
   1 -14 -17   67.40   16.05
   1 -14  17   72.04   17.98
   1 -15   0    9.08    8.39
   1 -15   0   -9.19   10.43
  -1 -15   0   -3.49    3.16
  -1 -15   0    2.99   10.12
   1 -15   1  -11.12   10.45
  -1 -15   1   -2.79    5.37
   1 -15   1    4.23    5.06
  -1 -15   1   -9.12    3.76
  -1 -15  -1    1.82    5.17
   1 -15  -1   -3.99    5.76
  -1 -15  -1   14.43   10.25
   1 -15  -1    2.01    7.55
  -1 -15   2  104.60   19.89
  -1 -15   2  100.35   18.96
   1 -15   2   99.30   19.42
  -1 -15  -2   98.78   19.77
  -1 -15  -2  108.58   20.26
   1 -15   2   81.69   17.94
   1 -15  -2   53.87   16.78
   1 -15  -2  101.67   19.31
   1 -15   3   35.65   13.75
  -1 -15   3   34.31   13.29
   1 -15   3   43.45   14.20
  -1 -15  -3   39.32   12.17
   1 -15  -3   54.07   14.76
  -1 -15   3   16.67   11.01
   1 -15  -3   19.30    9.10
  -1 -15  -3    0.32    6.82
   1 -15  -4   10.65    7.66
   1 -15   4   41.05   11.80
   1 -15  -4   14.96    7.68
  -1 -15  -4   27.08   13.87
  -1 -15   4    5.55    5.38
  -1 -15   4   18.77   10.23
   1 -15   4   10.60    8.10
  -1 -15  -4   21.41    8.90
   1 -15  -5   -3.80    4.12
  -1 -15  -5   -1.06    4.20
  -1 -15   5    0.77    5.92
   1 -15   5   -0.50    5.68
  -1 -15  -5   -1.04    7.00
   1 -15   5   10.22    6.27
  -1 -15   5   -6.33    7.39
   1 -15  -5    5.28    3.60
  -1 -15   6   35.93   11.90
  -1 -15   6   39.78   12.98
   1 -15   6   33.20   13.11
   1 -15   6   18.68    9.04
  -1 -15  -6   34.25   11.33
   1 -15  -6   30.59   12.53
   1 -15  -6    8.43    9.99
  -1 -15  -6   29.21   10.42
  -1 -15   7   34.93   10.98
   1 -15  -7   20.59    8.46
  -1 -15  -7   41.46   14.38
   1 -15  -7   62.32   16.21
   1 -15   7   40.91   13.03
  -1 -15  -7   27.59   11.72
   1 -15   7   39.35   14.32
  -1 -15   7   44.09   14.22
  -1 -15   8   62.40   15.47
  -1 -15  -8   58.34   17.22
  -1 -15  -8   14.84    5.16
   1 -15  -8   46.51   14.47
   1 -15   8   54.33   15.20
  -1 -15   8   62.45   18.08
   1 -15   8   26.28    9.13
   1 -15  -8   26.03   12.64
  -1 -15   9   50.34   14.21
   1 -15   9   60.06   16.33
   1 -15  -9   28.06    9.63
  -1 -15  -9   20.47    8.76
   1 -15   9   35.87   12.36
   1 -15  -9   26.25   10.83
  -1 -15   9   13.73    7.45
  -1 -15  -9   38.28   13.53
   1 -15  10   50.81   15.07
  -1 -15  10   61.81   14.74
   1 -15 -10   46.21   13.33
  -1 -15 -10   67.98   15.47
   1 -15  10   56.82   17.01
   1 -15 -10   35.78   13.57
  -1 -15 -10   39.05   10.45
  -1 -15 -11   -3.17    5.81
   1 -15 -11   -6.34    5.53
  -1 -15 -11   22.67   11.04
   1 -15  11   -1.88    7.79
  -1 -15  11   -3.46    8.15
   1 -15  11    5.14    3.31
   1 -15 -11   15.23    8.67
  -1 -15  12    3.55    4.21
   1 -15 -12   11.81    8.60
   1 -15 -12   12.38    6.68
  -1 -15 -12   21.57    8.65
  -1 -15 -12   14.16    6.92
   1 -15  12   15.69    9.19
   1 -15  12    0.28    3.96
   1 -15 -13    5.25    4.19
   1 -15  13   -1.08    3.70
  -1 -15 -13   14.38    8.98
  -1 -15 -13    4.75    4.21
   1 -15 -13    9.76    3.25
   1 -15  13   23.13   11.82
  -1 -15  13   -0.55    3.57
   1 -16   0    5.41    4.34
  -1 -16   0    4.72    5.42
  -1 -16   0    0.84    5.17
   1 -16   0    2.62    9.23
   1 -16   1   11.29    7.62
   1 -16   1    1.36    6.91
  -1 -16   1   -6.45    9.94
  -1 -16   1  -12.47    7.60
  -1 -16  -1   -3.51    5.90
   1 -16  -1    1.03    5.86
  -1 -16  -1    4.50    6.58
   1 -16  -1   10.60    5.27
  -1 -16   2  209.05   29.07
  -1 -16  -2  171.41   26.06
   1 -16  -2  170.31   27.82
   1 -16   2  182.12   28.26
   1 -16   2  147.45   26.60
  -1 -16  -2  154.76   26.96
  -1 -16   2  131.12   23.61
   1 -16  -2  182.39   28.76
   1 -16   3    6.44    8.78
   1 -16  -3    7.00   11.30
   1 -16   3    7.01    6.38
  -1 -16  -3    4.67    7.20
  -1 -16  -3    3.01    4.60
  -1 -16   3    1.49    5.76
   1 -16  -3  -13.85    8.89
   1 -16   4    2.41    4.16
  -1 -16  -4    8.54    4.77
  -1 -16  -4   17.60    9.77
   1 -16  -4    7.36    5.45
   1 -16   4    6.46    5.60
  -1 -16   4   12.67    8.54
   1 -16  -4   -6.77    9.13
  -1 -16  -5   31.63   11.89
   1 -16  -5   28.96   11.04
  -1 -16   5   36.60   12.91
   1 -16  -5   21.13   12.09
   1 -16   5   33.00   11.81
   1 -16   5   45.09   13.24
  -1 -16  -5   24.47   13.20
  -1 -16  -6   36.20   14.32
  -1 -16   6   15.07    7.58
  -1 -16  -6   15.22   10.79
   1 -16   6    5.29    6.70
   1 -16  -6    8.46   10.80
   1 -16  -6   21.84   12.51
   1 -16   6   27.75   12.43
  -1 -16  -7   -0.47    6.03
  -1 -16   7    8.74    8.31
   1 -16   7   -4.66    4.47
   1 -16  -7    2.97    7.69
   1 -16  -7    6.98    4.05
   1 -16   7   -5.48    9.49
  -1 -16  -7   15.64    9.44
  -2   0   0  841.49   22.62
   2   0   0  913.93   17.26
   2   0   1    1.00    1.00
  -2   0   1    1.05    0.92
   2   0  -1   -0.26    1.07
  -2   0  -1    0.96    1.47
   2   0   2 5621.96   50.78
  -2   0   2 5777.03   42.00
   2   0   3   -0.62    1.25
  -2   0   3    1.48    1.74
  -2   0   3   -2.10    1.15
   2   0   4 3083.82   46.52
  -2   0   4 3037.78   38.67
  -2   0   5   -0.11    1.43
  -2   0   5   -1.81    1.27
   2   0   5    1.17    1.30
  -2   0   6  474.48   18.47
  -2   0   6  451.38   22.07
   2   0   6  478.59   21.08
   2   0   7    0.88    0.86
  -2   0   7    0.84    2.11
  -2   0   7   -1.75    1.62
   2   0   8 1987.81   48.55
  -2   0   8 2102.94   52.70
  -2   0   8 2156.57   45.82
  -2   0   9    0.76    3.83
  -2   0   9    0.40    1.44
   2   0   9    3.15    2.99
  -2   0  10 5635.52   84.37
  -2   0  10 5473.61   93.04
  -2   0  11    0.58    1.97
  -2   0  11   -0.84    3.20
   2   0  11   -0.71    1.44
   2   0  11    0.42    1.67
  -2   0  12 1242.29   43.76
   2   0  12 1265.69   47.12
   2   0  12 1221.07   45.20
  -2   0  12 1129.42   45.62
   2   0  13    4.20    4.94
  -2   0  13   -2.64    3.62
  -2   0  13    1.25    2.20
   2   0  13   -0.26    4.16
   2   0  14 1947.70   62.06
  -2   0  14 1901.35   63.28
   2   0  14 1855.87   61.36
  -2   0  14 1752.36   56.36
  -2   0  15    3.25    4.21
  -2   0  15    2.73    3.25
   2   0  15   -2.26    3.61
   2   0  15    0.51    4.48
   2   0  16   93.57   13.80
   2   0  16   99.95   15.39
  -2   0  16   95.35   14.09
  -2   0  16  102.04   16.04
  -2   0  17    1.75    3.51
  -2   0  17   -2.00    2.96
   2   0  17    2.72    3.40
   2   0  17   -6.18    3.41
  -2   0  18  161.93   19.21
  -2   0  18  173.10   21.50
   2   0  18  140.12   18.27
   2   0  18  142.08   19.51
   2   0  19    5.77    5.78
  -2   0  19   -1.32    3.52
  -2   0  19    1.16    2.74
   2   0  19    1.57    3.49
  -2   0  20  116.48   17.58
   2   0  20   77.30   15.81
  -2   0  20  105.47   17.61
   2   0  20   82.07   14.05
  -2   0  21    4.92    7.98
  -2   0  21   -0.99    4.05
   2   0  21    4.16    3.58
   2   0  21   -0.04    3.19
   2   0  22   -0.70    4.32
   2   0  22    4.82    6.34
  -2   0  22    1.43    3.77
  -2   0  22    0.14    2.89
  -2   0  23    2.67    5.28
   2   0  23   -0.02    5.46
   2   0  23    2.46    4.70
  -2   0  23   -0.80    5.02
  -2   0  24   24.20    7.58
   2   0  24   38.64    9.46
   2   0  24   13.48    6.87
  -2   0  24   21.67    9.88
   2   0  25    2.82    4.41
  -2   0  25    2.67    2.17
  -2   0  25   -1.66    4.14
   2   0  25   -1.50    2.60
   2   0  26  104.37   18.98
  -2   0  26   57.35   14.54
   2   0  26   50.73   13.71
  -2   0  26   76.88   14.59
  -2   0  27    6.13    4.03
  -2   0  27    1.89    5.24
   2   0  27   -1.04    3.33
   2   0  27    2.87    4.23
   2   0  28   -0.50    3.24
  -2   0  28   -0.52    4.01
  -2   0  28    0.14    5.49
   2   0  28    2.95    5.51
   2   0  29   -4.50    5.00
  -2   0  29   -3.90    4.92
   2   0  29   -7.89    8.89
  -2   0  29    1.08    4.26
  -2   0  30   17.95    9.90
   2   0  30   31.06   11.41
   2   0  30   19.98    8.96
  -2   0  30   33.03   12.13
   2   0  31   -0.82    2.56
  -2   0  31    5.59    6.27
   2   0  31   -5.45    9.55
  -2   0  31   -0.74    6.27
   2   0  32  141.11   24.48
   2   0  32   98.86   19.85
  -2   0  32  130.47   23.74
  -2   0  32  142.82   23.89
  -2  -1   0 8084.38   62.78
   2  -1   0 8654.50   71.76
  -2   1  -1 7514.26   77.55
  -2   1   1 7925.52   77.63
  -2  -1  -1 7805.66   53.95
   2  -1  -1 7523.65   64.85
   2  -1   1 7221.97   69.43
  -2  -1   1 7737.76   60.34
  -2  -1   1 7467.49   57.67
   2  -1   2   46.10    5.63
   2   1   2   45.31    4.19
  -2  -1   2   44.56    4.87
  -2  -1  -2   43.51    3.93
  -2   1   2   36.75    5.23
  -2  -1   2   37.87    4.48
  -2  -1   3 2824.40   26.71
   2   1   3 2399.70   35.94
  -2  -1   3 2619.02   41.81
  -2   1   3 2765.59   48.95
  -2  -1   3 2783.92   42.53
  -2   1   3 2926.43   42.18
   2  -1   3 2767.58   29.68
   2  -1   3 2923.44   45.88
  -2  -1   4 2764.96   46.03
   2  -1   4 2624.45   45.77
  -2  -1  -4 2741.54   38.27
  -2   1   4 2751.17   49.90
  -2   1   4 2702.78   42.52
  -2  -1   4 2663.77   32.50
  -2  -1   5    3.45    1.04
  -2   1   5   10.99    3.12
   2  -1   5    3.54    1.83
  -2  -1   5    6.52    1.68
  -2   1   5    9.45    3.75
   2   1   5   13.56    3.37
  -2  -1   5    7.17    2.89
  -2   1   6    5.74    2.34
  -2  -1   6    7.37    2.46
   2  -1   6    9.12    3.14
  -2  -1   6    5.16    2.08
   2   1   6   11.14    3.07
  -2   1   6    8.30    3.78
   2   1   7  137.01   11.92
  -2   1   7  134.78   12.95
  -2  -1   7  131.05   10.37
  -2   1   7  143.64   11.95
  -2  -1   7  118.80   11.68
   2  -1   7  131.27   12.34
  -2  -1   8 1227.52   34.45
  -2   1   8 1351.33   42.79
   2  -1   8 1285.39   40.28
  -2  -1   8 1308.65   41.58
   2   1   8 1224.87   38.31
  -2   1   8 1288.89   37.76
  -2  -1   9    6.04    1.75
  -2   1   9    3.22    1.52
   2  -1   9    7.39    1.82
  -2   1   9    4.83    4.13
  -2  -1   9    2.44    1.72
   2   1   9    1.82    2.17
   2   1   9    3.61    2.77
  -2  -1  10  700.67   29.63
   2   1  10  698.84   31.89
  -2  -1  10  643.31   32.30
   2  -1  10  703.98   32.57
  -2   1  10  639.60   31.84
  -2   1  10  701.05   30.97
   2   1  11    0.58    2.50
  -2  -1  11   -1.32    2.31
  -2   1  11    0.71    1.62
  -2  -1  11    2.94    2.06
   2  -1  11    0.34    1.54
  -2   1  11    2.74    4.46
   2   1  11    7.67    6.47
  -2   1  12 2158.48   58.04
  -2  -1  12 2065.40   56.42
   2   1  12 2192.80   60.95
   2  -1  12 2256.39   63.01
  -2  -1  12 2227.92   63.00
   2   1  12 2204.92   60.50
  -2   1  12 2048.75   61.18
  -2   1  13    8.60    4.97
  -2  -1  13   11.09    4.52
   2   1  13   10.03    3.70
   2  -1  13    7.57    4.46
  -2   1  13    7.57    5.07
   2  -1  13    9.59    3.96
  -2  -1  13   -1.87    2.55
   2   1  13    9.23    4.45
   2   1  14 1031.54   44.92
   2  -1  14 1088.81   46.88
  -2   1  14  966.45   41.66
  -2  -1  14 1048.42   43.07
  -2   1  14 1051.50   46.03
  -2  -1  14  998.32   46.41
   2   1  14 1047.10   44.60
   2  -1  14 1144.12   48.44
  -2  -1  15  433.93   29.20
   2  -1  15  520.70   33.17
   2   1  15  451.03   30.54
  -2   1  15  444.19   30.96
  -2  -1  15  412.17   30.42
  -2   1  15  419.85   28.72
   2   1  15  504.22   32.16
   2  -1  15  439.69   30.91
  -2   1  16  104.14   14.96
   2  -1  16  108.83   16.04
  -2  -1  16  103.30   13.75
   2   1  16   98.66   15.09
   2   1  16  108.27   15.26
  -2  -1  16   94.75   14.90
  -2   1  16  126.02   18.02
   2  -1  16  112.87   16.29
  -2   1  17   49.25   10.71
  -2  -1  17   51.77   11.46
   2  -1  17   45.42   10.43
   2   1  17   64.35   12.40
   2   1  17   37.25    9.54
  -2   1  17   55.47   12.23
   2  -1  17   41.64   10.24
  -2  -1  17   62.74   13.57
   2  -1  18 1523.27   61.43
  -2  -1  18 1522.97   63.03
  -2   1  18 1472.23   60.43
   2   1  18 1483.60   60.06
  -2  -1  18 1519.61   59.64
  -2   1  18 1359.95   56.15
   2   1  18 1334.82   57.39
   2  -1  18 1517.29   61.26
   2  -1  19   -0.92    2.54
   2  -1  19   -1.98    4.90
   2   1  19    4.73    6.96
  -2   1  19    3.35    4.41
  -2  -1  19    4.69    3.14
  -2   1  19   -8.24    8.45
  -2  -1  19   -0.47    3.25
   2   1  19    3.61    6.03
  -2  -1  20  125.30   18.41
  -2  -1  20  132.67   18.52
   2   1  20  118.20   18.19
   2  -1  20  142.20   19.16
  -2   1  20   80.59   14.21
   2   1  20  150.37   20.82
   2  -1  20  162.20   20.21
  -2   1  20  172.39   21.42
  -2   1  21   69.46   14.49
   2  -1  21   84.12   15.90
   2   1  21   88.04   15.56
  -2  -1  21   94.00   17.68
   2   1  21  127.22   19.15
  -2  -1  21   99.61   17.13
   2  -1  21  114.61   17.61
  -2   1  21   70.22   13.20
  -2  -1  22  379.55   32.72
   2   1  22  293.75   28.94
   2  -1  22  312.60   30.24
   2  -1  22  273.81   29.11
  -2   1  22  269.84   27.30
   2   1  22  310.99   30.93
  -2   1  22  272.95   29.10
  -2  -1  22  333.80   32.96
   2  -1  23   83.58   16.56
  -2   1  23   45.84   12.81
   2   1  23   74.33   15.87
  -2  -1  23   33.98   10.70
   2  -1  23   80.23   15.51
   2   1  23   64.97   14.26
  -2   1  23   74.41   15.17
  -2  -1  23   76.64   16.37
   2  -1  24   23.87   11.69
  -2  -1  24   37.16   11.64
  -2   1  24   24.46   10.59
  -2  -1  24   30.74   11.02
   2  -1  24   16.71    8.45
  -2   1  24   30.09   12.13
   2   1  24   31.55   11.70
   2   1  24   36.46   11.97
   2   1  25  142.57   22.03
   2  -1  25  133.02   21.70
  -2  -1  25  137.87   22.54
   2   1  25  181.51   25.06
  -2  -1  25  172.84   24.15
   2  -1  25  130.39   20.81
  -2   1  25  153.51   22.47
  -2   1  25  129.13   20.63
   2  -1  26  585.59   43.28
  -2  -1  26  454.77   40.08
  -2   1  26  505.36   42.48
   2   1  26  588.64   45.68
   2   1  26  503.70   41.12
   2  -1  26  453.36   40.76
  -2  -1  26  506.34   41.32
  -2   1  26  468.31   39.06
   2  -1  27   37.24   15.79
  -2   1  27   61.25   12.85
   2   1  27   64.20   15.03
  -2  -1  27   51.13   12.14
   2  -1  27   52.61   13.11
  -2   1  27   74.52   17.10
   2   1  27   62.11   14.15
  -2  -1  27   61.03   15.84
   2   1  28  396.93   37.52
   2  -1  28  476.47   40.96
  -2  -1  28  517.83   43.14
   2   1  28  461.66   42.03
  -2   1  28  407.78   38.07
   2  -1  28  441.58   40.73
  -2   1  28  400.43   39.34
  -2  -1  28  427.32   38.35
   2   1  29  243.07   31.77
  -2  -1  29  212.07   28.59
  -2   1  29  245.32   30.64
   2  -1  29  205.45   28.47
   2   1  29  240.75   28.71
  -2   1  29  171.05   25.20
  -2  -1  29  178.36   25.37
   2  -1  29  225.70   28.10
  -2   1  30   18.16   12.40
  -2   1  30   25.52   10.72
  -2  -1  30   31.62    9.69
   2   1  30   31.08   10.27
   2  -1  30   38.33   11.49
   2   1  30   34.05   13.05
   2  -1  30   20.34   10.69
  -2  -1  30   12.26    7.92
  -2  -1  31   13.87    9.27
   2   1  31   11.35    7.97
   2  -1  31    5.45    5.10
   2  -1  31    2.62    4.84
  -2   1  31    3.35    3.89
   2   1  31   10.83    5.01
  -2  -1  31    6.88    3.89
  -2   1  31   -0.03    5.84
   2   1  32  138.72   22.40
  -2  -1  32  151.24   25.50
   2  -1  32  110.82   20.92
  -2  -1  32  134.96   23.45
  -2   1  32   75.26   17.53
   2   1  32  115.54   25.53
  -2   1  32   85.72   19.26
   2  -1  32  111.68   22.74
  -2  -2   0 1283.50   29.91
   2  -2   0 1301.20   25.23
  -2   2   0 1457.34   37.01
  -2  -2   0 1179.76   19.15
   2   2   0 1444.56   19.26
   2  -2   0 1263.93   33.38
  -2  -2   1  247.85   13.61
   2  -2   1  244.97   10.96
  -2  -2  -1  240.64   12.48
   2  -2   1  251.28   15.50
   2  -2  -1  257.68   11.89
  -2   2   1  253.76   15.66
  -2   2  -1  250.20   15.53
  -2  -2   1  309.20   10.81
   2   2   1  251.34    9.23
   2  -2  -1  239.28   14.26
   2   2   2    8.65    2.11
   2  -2   2    9.47    2.48
  -2  -2   2    7.13    1.96
  -2  -2   2   11.65    2.34
   2  -2   2    7.10    2.82
   2  -2  -2    5.60    1.79
   2  -2  -2    6.87    2.56
  -2   2   2    6.68    2.37
  -2  -2  -2    9.62    3.30
  -2  -2   3 3628.85   56.32
   2  -2   3 3716.95   60.27
  -2  -2  -3 3500.21   49.76
  -2   2   3 3784.00   60.31
  -2  -2   3 3528.79   46.24
   2   2   3 3733.82   46.42
  -2  -2   3 3659.73   34.01
  -2   2   3 3527.20   54.41
   2  -2   3 3796.63   45.94
   2   2   4 3018.81   45.57
   2  -2   4 2759.75   54.22
   2  -2   4 2975.62   43.30
  -2   2   4 2917.91   50.58
  -2   2   4 2961.38   56.02
  -2  -2   4 2910.05   35.51
  -2  -2   4 2857.24   52.01
  -2  -2  -4 2805.75   46.53
  -2  -2   5 1785.12   43.32
   2   2   5 1713.94   37.91
  -2   2   5 1881.77   42.53
  -2  -2  -5 1838.02   40.14
  -2  -2   5 1753.56   31.51
   2  -2   5 1743.42   35.84
  -2   2   5 1783.22   44.58
   2  -2   5 1842.01   44.20
  -2  -2   6  452.63   21.23
   2   2   6  449.97   20.75
  -2   2   6  472.15   21.89
  -2  -2   6  511.84   18.74
   2  -2   6  500.94   23.81
  -2  -2   6  510.35   23.91
  -2  -2  -6  483.48   21.00
  -2   2   6  403.48   21.74
   2  -2   6  498.93   20.17
  -2   2   7  624.51   28.14
   2   2   7  598.37   25.58
  -2  -2   7  679.28   23.84
   2  -2   7  683.39   25.90
  -2   2   7  642.71   26.63
  -2  -2   7  651.13   28.57
  -2  -2   7  695.78   28.24
   2  -2   7  681.10   29.29
   2   2   7  719.76   26.02
  -2  -2   8    1.00    2.73
  -2   2   8    3.37    2.33
  -2  -2   8    2.04    2.60
   2   2   8    3.83    1.68
  -2  -2   8    6.87    3.16
   2   2   8    4.62    2.80
   2  -2   8   -0.02    1.61
  -2   2   8    4.34    1.30
   2  -2   8    6.48    2.62
  -2  -2   9   26.98    5.61
   2  -2   9   15.60    5.86
  -2   2   9   28.15    7.10
   2   2   9   21.58    4.93
  -2   2   9   25.32    6.20
  -2  -2   9   16.61    4.85
   2   2   9   29.96    5.46
  -2  -2   9   15.46    4.52
   2   2  10   13.06    3.38
  -2   2  10   12.24    2.97
   2   2  10   13.88    4.85
  -2  -2  10   12.18    4.39
  -2   2  10   13.13    5.56
  -2  -2  10   17.68    6.34
   2  -2  10    9.54    5.01
   2  -2  11  608.79   32.10
   2   2  11  618.89   31.62
  -2   2  11  602.71   30.99
  -2   2  11  619.57   32.94
   2   2  11  647.37   30.59
  -2  -2  11  567.38   31.28
  -2  -2  11  608.09   29.61
  -2   2  12    5.62    5.01
   2   2  12    4.96    2.98
  -2   2  12    1.25    2.87
  -2  -2  12    5.18    3.18
   2   2  12    3.73    1.48
   2  -2  12   -0.20    3.33
  -2  -2  12   12.22    6.54
   2   2  13 2013.11   61.11
  -2   2  13 1867.27   58.31
  -2   2  13 1954.26   62.69
   2  -2  13 2064.33   62.41
  -2  -2  13 2026.04   58.06
  -2  -2  13 1764.96   59.25
   2   2  13 2066.22   59.89
  -2   2  14    6.00    3.98
   2   2  14    9.36    5.89
   2   2  14   16.98    5.84
   2  -2  14    9.88    3.06
  -2  -2  14   12.19    5.77
  -2  -2  14   14.51    6.25
   2  -2  14    9.49    6.07
  -2   2  14   12.48    6.93
  -2  -2  15   34.79    9.21
   2   2  15   29.54    8.06
  -2   2  15   40.34    8.17
  -2   2  15   26.77    8.35
   2   2  15   46.92   10.08
   2  -2  15   36.55    9.73
  -2  -2  15   41.61    9.51
   2  -2  15   40.70    9.25
  -2  -2  16  100.78   15.15
   2   2  16  135.94   17.76
   2  -2  16   75.22   13.85
  -2  -2  16   98.81   14.22
   2   2  16  105.44   15.81
  -2   2  16  119.27   17.42
   2  -2  16  104.44   15.08
  -2   2  16  115.88   15.72
  -2   2  17    2.07    3.90
   2   2  17    7.38    8.14
  -2   2  17    5.30    3.95
   2  -2  17   -1.11    2.60
  -2  -2  17    2.35    5.31
  -2  -2  17   -0.85    4.42
   2   2  17   -3.64    4.75
   2  -2  17    3.23    4.40
   2   2  18   18.16    8.35
  -2  -2  18   51.29   10.88
   2  -2  18   41.55   11.16
  -2   2  18   36.89    8.23
   2  -2  18   27.87   10.52
  -2  -2  18   35.69    9.92
   2   2  18   48.45   11.52
  -2   2  18   44.46   10.77
   2   2  19  101.85   16.49
   2  -2  19   74.29   15.55
  -2   2  19   82.41   14.49
   2  -2  19   87.66   15.97
  -2  -2  19   62.44   12.20
  -2   2  19   63.92   13.97
  -2  -2  19  104.68   16.32
   2   2  19   99.35   16.54
   2  -2  20   -7.84    5.37
   2   2  20    2.89    5.24
  -2  -2  20    0.29    4.08
  -2  -2  20    0.33    4.52
  -2   2  20   -0.66    2.59
  -2   2  20    8.41    6.88
   2  -2  20    0.31    6.35
   2   2  20    1.51    6.27
   2   2  21  133.10   19.39
   2  -2  21  135.42   19.27
  -2   2  21  100.11   17.05
  -2  -2  21  149.63   22.00
  -2   2  21  150.80   20.96
   2  -2  21  176.60   23.81
   2   2  21  147.19   21.12
  -2  -2  21  151.82   19.77
  -2  -2  22   75.22   15.10
   2   2  22   91.63   16.11
   2  -2  22   92.90   16.47
  -2   2  22  103.15   16.49
   2   2  22   52.62   12.67
  -2  -2  22   83.74   16.22
  -2   2  22   96.73   17.37
   2  -2  22  103.99   17.92
   2   2  23    4.39    7.83
  -2   2  23    4.57    4.97
   2   2  23    6.18    5.92
  -2  -2  23    4.29    5.59
   2  -2  23    0.53    2.60
   2  -2  23    9.63    9.71
  -2  -2  23    6.72   10.14
  -2   2  23    5.68    7.70
  -2  -2  24   17.12    8.85
  -2   2  24    5.18    3.52
   2   2  24    5.47    8.35
   2  -2  24    9.69    9.06
  -2   2  24    3.84    7.26
   2  -2  24    4.60    5.55
   2   2  24    2.44    5.02
  -2  -2  24    0.90    4.35
   2   2  25   -0.96    3.70
  -2   2  25   -1.29    4.67
   2   2  25    0.66    7.24
  -2  -2  25   11.83   10.39
  -2  -2  25    0.27    6.45
   2  -2  25   15.44   10.38
  -2   2  25    5.83    7.76
   2  -2  25   -0.80    4.99
   2  -2  26   19.41    8.54
  -2   2  26   18.69    8.27
   2   2  26    8.13    6.10
   2  -2  26   15.90    9.24
  -2   2  26   30.59   11.47
  -2  -2  26   33.97   11.96
   2   2  26   18.65    8.42
  -2  -2  26   43.44   13.05
   2   2  27   53.66   13.61
  -2  -2  27   44.98   12.81
   2  -2  27   39.90   11.16
  -2   2  27   30.18    7.04
  -2  -2  27   48.63   13.46
  -2   2  27   28.04   12.42
   2   2  27   54.40   13.53
   2  -2  27   12.22    8.69
  -2   2  28   -2.11    7.55
  -2   2  28   33.53   14.50
   2   2  28   13.27    5.41
  -2  -2  28   18.70   11.09
   2  -2  28   12.69    5.37
  -2  -2  28   20.89   10.81
   2   2  28   -2.06    9.61
   2  -2  28   13.72   10.26
   2  -2  29   54.51   14.41
   2   2  29   64.81   16.13
  -2   2  29   64.38   16.46
  -2  -2  29   62.51   16.58
   2  -2  29   43.84   12.73
  -2   2  29   66.49   15.67
  -2  -2  29   73.86   17.00
   2   2  29   49.75   14.12
   2   2  30   19.62    8.83
   2   2  30    9.28   11.09
  -2  -2  30    6.33    8.62
   2  -2  30    4.28    5.74
  -2   2  30   15.58    7.99
  -2  -2  30   12.67    8.93
  -2   2  30   15.84    9.65
   2  -2  30   12.29    9.48
  -2   2  31   33.17   13.04
   2   2  31   42.70   13.90
  -2  -2  31   18.65    7.14
   2  -2  31   15.25    3.85
   2  -2  31   38.02   12.84
   2   2  31   23.27   11.59
  -2  -2  31   19.63   11.87
  -2   2  31   20.84    9.35
  -2  -2  32    4.79    7.94
  -2   2  32    7.11    3.46
   2   2  32   17.96   12.33
  -2  -2  32    9.22    3.41
   2  -2  32   10.31    8.59
   2  -2  32   -2.27   10.73
  -2   2  32   27.10   11.18
   2   2  32   -2.16    9.38
  -2  -3   0 1078.52   32.04
   2  -3   0 1060.88   28.75
  -2  -3   0 1094.28   23.69
  -2   3   0 1067.92   34.61
   2  -3   0 1085.41   35.00
   2  -3  -1  533.85   24.22
   2  -3   1  498.22   24.33
   2  -3   1  562.67   21.02
  -2  -3  -1  535.59   22.53
  -2   3   1  595.36   25.40
   2   3   1  547.50   17.56
  -2  -3   1  525.80   23.05
  -2  -3   1  627.80   13.32
  -2  -3   1  561.06   16.83
   2  -3  -1  572.12   21.25
   2  -3   2   26.94    5.70
   2  -3  -2   26.73    5.49
  -2  -3   2   25.11    3.88
  -2  -3  -2   28.40    5.27
   2  -3  -2   31.93    5.19
  -2  -3   2   20.73    3.17
  -2   3   2   17.41    4.49
   2  -3   2   25.86    4.73
  -2  -3   2   25.86    4.99
   2   3   2   25.11    4.38
  -2  -3   3   93.63    7.10
   2  -3   3   85.75    8.29
  -2  -3   3   81.99    9.36
   2  -3  -3   77.13    8.56
  -2  -3  -3   95.60    9.80
   2  -3   3   91.06   10.87
  -2  -3   3  111.17    8.12
   2   3   3   72.21    4.57
   2   3   3  113.78    8.79
  -2   3   3   90.15   10.00
   2  -3   4   35.19    5.69
   2   3   4   19.71    3.79
  -2   3   4   26.19    5.69
  -2  -3   4   24.05    5.45
  -2  -3   4   33.67    4.43
  -2  -3  -4   25.97    5.67
  -2   3   4   27.37    5.84
   2  -3  -4   24.64    5.26
  -2  -3   4   33.23    5.43
   2   3   4   26.66    3.58
   2  -3   4   29.07    5.85
  -2  -3   5  222.70   16.98
   2  -3   5  225.10   14.84
   2  -3   5  211.97   16.49
   2  -3  -5  240.63   16.13
  -2   3   5  227.76   17.04
  -2  -3  -5  223.64   15.57
  -2  -3   5  214.55   11.97
  -2  -3   5  238.14   14.80
  -2   3   5  193.28   14.94
   2   3   5  181.46   10.36
   2   3   5  201.81   13.96
   2  -3   6  343.34   20.98
  -2  -3  -6  341.58   19.93
   2   3   6  385.73   20.55
  -2   3   6  372.92   21.97
  -2  -3   6  362.00   16.98
  -2   3   6  360.10   20.98
   2   3   6  355.87   15.89
   2  -3   6  315.46   18.04
  -2  -3   6  318.60   20.44
   2  -3   7   20.39    4.99
  -2  -3   7   16.37    4.37
  -2  -3   7   17.06    5.49
  -2   3   7   23.00    5.79
  -2   3   7   22.73    5.35
   2  -3   7   21.10    5.31
  -2  -3  -7   18.68    4.79
  -2  -3   7   22.18    5.95
   2   3   7   13.99    4.99
   2   3   7   15.19    3.71
   2  -3   8  634.38   27.72
  -2  -3   8  659.07   31.09
  -2  -3   8  704.18   30.31
  -2  -3  -8  616.15   28.56
  -2  -3   8  628.24   25.51
  -2   3   8  688.77   31.52
   2   3   8  710.63   30.38
   2  -3   8  590.82   29.55
  -2   3   8  629.00   29.57
   2   3   8  531.96   23.14
  -2  -3   9  324.77   22.75
  -2   3   9  368.29   24.26
  -2  -3   9  386.36   21.41
   2   3   9  353.09   22.12
  -2   3   9  335.60   22.22
  -2  -3  -9  337.29   21.85
   2  -3   9  369.46   24.24
   2  -3   9  353.25   21.55
   2   3   9  351.46   20.36
  -2  -3   9  378.12   23.51
   2   3  10  151.44   13.95
  -2  -3  10  155.02   14.20
  -2  -3  10  180.78   17.00
   2  -3  10  172.50   17.15
  -2  -3  10  151.20   16.05
  -2   3  10  136.10   15.88
   2   3  10  153.19   14.83
  -2   3  10  166.17   16.32
   2   3  11  411.85   26.01
  -2  -3  11  498.67   29.58
   2   3  11  440.63   25.49
  -2  -3  11  424.48   24.44
  -2   3  11  441.79   28.05
  -2   3  11  423.10   26.67
   2  -3  11  349.20   25.11
  -2  -3  11  423.73   28.89
  -2   3  12    9.02    5.59
  -2  -3  12    0.51    1.88
   2   3  12    1.96    3.42
  -2  -3  12    2.30    2.83
   2   3  12    7.23    1.66
  -2   3  12    8.48    3.47
   2  -3  12    2.07    2.32
  -2  -3  12    5.89    4.35
  -2   3  13  120.73   15.32
  -2  -3  13  131.92   16.38
  -2  -3  13  115.64   13.94
   2   3  13  105.67   13.31
  -2   3  13  113.23   15.12
   2  -3  13  105.43   14.31
   2   3  13  123.88   15.91
  -2  -3  14   15.23    6.62
  -2  -3  14   11.33    5.59
   2   3  14    4.97    3.25
  -2   3  14   11.79    8.46
  -2   3  14    2.40    3.47
   2   3  14    8.95    3.85
   2  -3  14   18.05    7.29
   2   3  15  111.47   15.36
  -2  -3  15   70.49   13.11
  -2   3  15   59.11   11.85
  -2  -3  15   94.24   14.14
   2  -3  15  110.10   15.81
   2   3  15   86.97   14.04
   2  -3  15   97.22   14.86
  -2   3  15   85.82   14.89
  -2   3  16   -0.46    2.80
   2  -3  16    0.22    5.37
   2   3  16    1.08    2.36
  -2  -3  16    6.00    7.73
  -2  -3  16   -1.06    2.66
  -2   3  16    6.21    5.69
   2  -3  16    2.19    4.44
   2   3  16    2.33    5.19
  -2   3  17  354.87   28.36
  -2  -3  17  377.57   29.35
   2  -3  17  388.98   30.74
  -2  -3  17  350.37   30.20
   2   3  17  372.15   29.12
   2   3  17  386.58   30.09
   2  -3  17  436.46   32.72
  -2   3  17  389.94   31.90
  -2  -3  18  153.49   19.33
   2  -3  18  186.92   21.04
   2   3  18  121.37   18.24
   2  -3  18  153.93   20.21
  -2  -3  18  143.73   20.62
  -2   3  18  147.46   19.68
   2   3  18  140.39   19.50
  -2   3  18  141.45   19.05
  -2  -3  19  349.35   29.53
   2   3  19  274.49   26.46
   2  -3  19  264.27   26.52
  -2   3  19  319.88   28.75
  -2   3  19  310.67   29.41
   2  -3  19  310.55   29.43
  -2  -3  19  276.93   28.12
   2   3  19  253.62   25.34
  -2  -3  20   50.95   13.72
  -2   3  20   41.93   10.32
  -2  -3  20   61.25   13.44
   2   3  20   43.86   11.45
   2   3  20   52.16   13.04
   2  -3  20   52.87   12.53
   2  -3  20   42.50   12.58
  -2   3  20   58.57   12.56
  -2  -3  21   -0.46    5.29
   2   3  21    7.43    6.25
   2  -3  21    1.86    4.98
   2   3  21    2.69    4.75
  -2   3  21    2.02    3.36
   2  -3  21    5.21    4.93
  -2   3  21    2.90    8.40
  -2  -3  21    4.78    7.10
   2  -3  22   91.07   16.33
   2   3  22   92.67   15.04
   2   3  22  117.13   19.14
   2  -3  22  100.62   17.45
  -2   3  22  106.10   17.77
  -2   3  22   98.23   16.94
  -2  -3  22   98.11   17.04
  -2  -3  22   95.65   18.09
   2   3  23   -2.77    6.90
   2  -3  23    2.74    2.94
  -2  -3  23   -0.64    4.30
  -2   3  23    2.47    6.93
   2   3  23    2.48    4.53
  -2   3  23    4.36    7.11
  -2  -3  23    4.66    4.89
   2  -3  23    6.33    3.73
  -2   3  24   33.59   10.75
   2  -3  24   14.39   10.50
  -2  -3  24   41.85   13.18
   2   3  24   11.64    5.71
   2  -3  24   34.26   10.21
  -2  -3  24   26.61   10.70
  -2   3  24   36.88   11.50
   2   3  24   26.29   10.18
  -2  -3  25  221.96   27.37
   2  -3  25  247.98   28.86
   2   3  25  259.28   27.89
  -2  -3  25  315.45   33.04
   2   3  25  252.85   30.71
  -2   3  25  243.54   29.66
  -2   3  25  236.09   28.13
  -2   3  26   -1.80    3.32
   2   3  26    1.36    5.65
   2  -3  26   -1.96    3.44
  -2   3  26    3.13    7.88
  -2  -3  26    1.24    3.78
   2   3  26   -3.77    9.42
   2  -3  26   -6.57    9.02
  -2  -3  26    1.51    4.72
  -2   3  27   16.20    4.63
   2   3  27   15.33   10.37
   2  -3  27   28.57   10.78
   2   3  27   16.04   10.79
   2  -3  27   23.25    8.60
  -2   3  27   10.88    3.79
  -2  -3  27   13.12    8.55
  -2  -3  27   23.51    9.65
  -2   3  28   56.38   13.43
   2   3  28   81.64   17.28
  -2  -3  28   55.51   13.68
   2  -3  28   55.90   13.73
   2   3  28   69.13   17.63
  -2   3  28   57.89   15.67
   2  -3  28   61.38   14.32
  -2  -3  28   62.66   17.31
  -2  -3  29  251.13   30.21
  -2   3  29  229.27   29.36
   2   3  29  148.40   25.08
  -2  -3  29  217.14   31.60
   2  -3  29  208.55   28.07
  -2   3  29  254.12   30.33
   2   3  29  196.11   26.52
  -2   3  30   49.24   14.13
   2   3  30   52.41   15.15
  -2   3  30   46.90   13.69
   2  -3  30   35.98   12.17
  -2  -3  30   50.08   13.74
  -2  -3  30   54.57   18.00
   2  -3  30   60.98   18.30
   2   3  30   51.35   15.91
  -2   3  31  154.01   24.16
  -2  -3  31  143.31   23.56
   2  -3  31  172.29   24.48
   2  -3  31  119.21   22.64
  -2   3  31  148.42   24.95
  -2  -3  31  176.00   27.68
   2   3  31  125.41   23.06
   2   3  31  104.65   21.06
  -2   4   0    1.59    2.28
  -2  -4   0   -1.69    3.09
   2  -4   0    1.46    1.79
   2  -4   0    3.15    3.35
  -2  -4   0    2.10    2.51
   2  -4   1    7.33    3.12
   2  -4  -1    9.39    3.83
   2  -4   1    8.29    4.10
  -2  -4  -1    3.84    1.92
   2  -4  -1    4.47    2.88
  -2   4   1    7.06    3.43
  -2  -4   1    6.46    4.31
  -2  -4   1    6.43    2.82
  -2  -4   2   95.13   11.49
   2  -4   2   89.63    9.90
   2  -4  -2   80.94   10.29
   2  -4  -2  104.06   10.71
   2  -4   2  110.57   12.88
  -2   4   2  102.08   11.21
  -2  -4   2  101.01    9.35
   2   4   2  108.62    9.60
  -2  -4  -2   91.38   10.70
  -2  -4   3  121.29   13.01
   2  -4   3   97.16   10.64
  -2  -4  -3   97.76   11.03
  -2  -4   3  122.84   10.12
   2  -4  -3  104.50   10.94
   2  -4   3   95.97   11.83
   2   4   3  109.26   10.27
  -2  -4   3   87.10    7.33
   2  -4  -3  111.77   12.28
  -2   4   3   99.48   11.08
  -2  -4   4  330.45   17.13
  -2  -4  -4  394.39   22.72
  -2  -4   4  376.73   22.92
  -2   4   4  356.90   21.35
   2  -4   4  342.47   20.31
   2  -4   4  368.21   23.78
   2   4   4  361.74   11.44
   2  -4  -4  320.30   19.75
  -2  -4   4  402.52   17.49
   2   4   4  369.03   19.66
   2   4   5   22.91    3.79
  -2  -4   5   21.31    5.88
  -2  -4   5   26.59    5.62
   2  -4   5   33.25    6.34
   2  -4   5   40.81    8.58
  -2   4   5   35.21    7.94
  -2  -4   5   24.63    4.70
  -2  -4  -5   22.99    5.73
  -2   4   5   15.80    4.64
   2  -4  -5   14.63    5.11
   2   4   5   24.22    5.32
   2  -4   6  696.97   29.75
  -2   4   6  732.52   32.55
  -2   4   6  740.41   32.66
  -2  -4  -6  696.67   31.28
   2   4   6  837.91   23.80
   2  -4  -6  660.41   30.38
  -2  -4   6  709.91   27.06
   2  -4   6  690.47   33.70
  -2  -4   6  713.19   26.08
   2   4   6  716.66   29.37
  -2  -4   6  680.90   32.84
  -2  -4   7  364.83   24.12
   2  -4   7  343.15   21.34
   2  -4  -7  307.25   21.46
  -2   4   7  351.65   23.36
   2   4   7  382.13   22.63
   2  -4   7  406.75   25.17
   2   4   7  392.67   18.17
  -2  -4   7  282.98   18.83
  -2  -4   7  398.97   20.20
  -2   4   7  335.99   22.70
  -2  -4  -7  404.28   24.50
  -2  -4   8  954.58   39.75
   2  -4   8 1054.42   38.17
  -2  -4  -8 1034.00   40.09
   2  -4  -8  971.34   38.68
  -2  -4   8 1010.78   34.13
  -2   4   8  996.12   40.11
   2   4   8  923.99   30.52
  -2   4   8 1050.43   40.71
   2   4   8  960.67   36.42
   2  -4   8  972.92   39.77
  -2  -4  -9  178.97   17.10
   2  -4   9  158.72   15.32
  -2  -4   9  219.59   16.33
   2   4   9  211.04   15.85
   2  -4   9  208.41   18.91
  -2   4   9  217.65   19.02
  -2  -4   9  193.11   18.01
  -2  -4   9  174.02   15.80
  -2   4   9  187.55   17.99
   2   4   9  185.37   16.76
   2   4  10  315.66   20.82
   2  -4  10  338.10   25.65
  -2   4  10  342.14   24.67
   2   4  10  325.54   23.48
  -2  -4 -10  310.22   23.60
  -2  -4  10  337.43   21.46
  -2  -4  10  303.03   23.74
  -2  -4  10  386.76   25.29
   2  -4  10  306.88   21.96
  -2   4  10  338.79   24.44
  -2   4  11    0.81    3.44
   2  -4  11    0.79    3.06
   2   4  11    1.70    2.22
  -2  -4  11    1.62    1.34
  -2  -4  11   -0.85    3.38
  -2  -4  11    6.52    5.29
  -2   4  11    1.61    2.58
  -2  -4 -11    0.21    2.48
   2  -4  11    3.50    4.99
   2   4  11   -0.63    3.31
   2  -4  12   14.67    6.89
  -2   4  12   29.56    7.00
   2  -4  12   20.63    7.12
   2   4  12   18.00    5.55
  -2  -4  12   23.72    6.33
  -2  -4 -12   12.36    3.56
  -2  -4  12   18.06    6.28
  -2  -4  12   15.88    5.50
   2   4  12   20.49    6.91
  -2   4  12   18.34    4.92
   2  -4  13    0.58    3.56
  -2   4  13    9.53    4.40
  -2  -4  13   10.78    5.61
   2  -4  13    7.72    2.76
  -2  -4  13   -1.67    3.52
   2   4  13    5.80    4.88
  -2  -4 -13   12.75    5.77
  -2  -4  13    2.02    3.22
   2   4  13   11.48    5.63
  -2   4  13    3.06    3.15
   2   4  14  118.04   14.48
  -2  -4  14  118.26   16.56
  -2   4  14  147.30   17.27
  -2  -4  14  122.69   18.14
   2  -4  14  113.02   16.20
   2   4  14  119.10   15.82
  -2  -4  14  125.09   15.91
  -2   4  14  136.55   17.29
  -2  -4 -14  114.72   15.09
   2  -4  15  403.50   30.22
  -2  -4  15  415.08   30.99
  -2   4  15  424.62   32.06
   2   4  15  508.95   32.71
  -2   4  15  394.62   30.10
  -2  -4  15  373.73   27.50
   2   4  15  418.06   30.93
   2   4  16   88.12   14.16
   2  -4  16   91.13   14.14
   2   4  16   56.76   12.93
   2  -4  16   79.06   13.68
  -2  -4  16   70.15   13.00
  -2   4  16   76.19   13.31
  -2   4  16   64.61   12.49
  -2  -4  16   60.49   12.29
   2   4  17    1.04    4.24
  -2  -4  17    2.87    4.14
   2   4  17   -2.04    2.28
  -2   4  17    2.04    4.20
  -2  -4  17    0.82    3.14
  -2   4  17   -2.15    2.92
   2  -4  17    0.08    5.18
   2  -4  17    3.80    4.51
   2  -4  18   10.65    9.86
  -2   4  18   10.05    6.55
   2  -4  18   14.48    7.15
   2   4  18    8.57    6.47
   2   4  18   22.22    8.52
  -2  -4  18    8.51    5.10
  -2   4  18   -0.71    4.74
  -2  -4  18   11.24    7.26
  -2   4  19    3.79    4.88
  -2   4  19    7.75    7.92
  -2  -4  19   -0.57    4.72
   2   4  19    1.08    4.91
   2  -4  19    2.64    5.01
   2   4  19    6.00    9.00
   2  -4  19    1.80    5.12
  -2  -4  19    0.28    5.60
  -2   4  20  175.31   22.99
   2   4  20  200.96   23.27
   2  -4  20  175.08   22.32
   2   4  20  177.59   21.94
  -2  -4  20  162.97   22.23
   2  -4  20  173.64   22.24
  -2   4  20  185.86   22.95
  -2  -4  20  155.13   20.68
  -2   4  21   10.98    6.31
  -2  -4  21    5.95    3.33
   2   4  21   19.73    6.45
   2   4  21    5.17    5.25
  -2  -4  21   13.79    8.44
   2  -4  21   14.00    3.66
  -2   4  21   16.82    8.59
   2  -4  21   17.81    8.30
  -2   4  22   91.88   18.24
   2   4  22   91.21   17.81
  -2  -4  22   69.50   14.86
   2  -4  22   75.43   15.11
  -2   4  22   77.58   15.49
   2   4  22   75.66   15.13
  -2  -4  22   64.91   16.18
   2  -4  22   57.29   11.87
  -2   4  23   18.17    8.40
  -2  -4  23   32.72   10.70
   2   4  23   12.45    2.43
   2  -4  23   19.04    6.82
  -2   4  23   20.68    8.20
   2  -4  23   20.18    8.29
   2   4  23   14.15    8.82
  -2  -4  23   16.98    5.62
  -2   4  24   37.66   12.56
   2   4  24   27.52    9.27
  -2  -4  24   24.05    8.45
  -2  -4  24   23.88    6.98
   2  -4  24   28.24    8.51
   2  -4  24   42.19   13.83
   2   4  24   36.62    9.65
  -2   4  24   36.49   11.94
  -2   4  25   66.87   15.58
   2   4  25   61.37   15.22
  -2   4  25   60.03   14.74
   2  -4  25   55.67   14.18
   2   4  25   50.88   12.73
  -2  -4  25   66.69   16.67
   2  -4  25   66.83   15.68
  -2  -4  25   46.13   13.55
   2  -4  26  -17.67    7.97
  -2   4  26    7.12    6.90
  -2  -4  26   -6.25    6.55
   2   4  26   10.61    9.32
   2   4  26   -5.27    6.81
  -2  -4  26   -1.46    6.63
   2  -4  26    3.79    4.66
  -2   4  26    1.63    5.63
   2   4  27   26.82    9.56
   2  -4  27   34.89   14.32
  -2  -4  27   33.46   11.90
  -2  -4  27   31.39    8.55
  -2   4  27   39.72   10.40
  -2   4  27   41.60   12.27
   2  -4  27   37.44   12.38
   2   4  27   29.68   10.01
  -2   4  28   27.99   11.08
   2  -4  28   21.72   10.90
  -2  -4  28   23.61    7.66
   2   4  28   44.02   14.16
  -2  -4  28   50.63   14.62
   2   4  28   18.85    9.31
   2  -4  28   20.84    6.58
  -2   4  28   38.62   13.62
  -2   4  29    7.67    8.31
  -2  -4  29   -3.85    7.33
   2  -4  29   -0.23    3.49
  -2  -4  29    3.50    6.90
   2   4  29    1.19    3.86
  -2   4  29   -8.26   10.09
   2   4  29    4.33    6.38
   2  -4  29   -7.75    9.35
  -2   4  30    1.55    5.22
  -2  -4  30    5.68    8.41
   2   4  30   -0.57    4.78
  -2  -4  30    3.43    8.17
   2  -4  30    7.75    7.36
  -2   4  30   14.15   11.87
   2  -4  30   12.85    8.48
   2   4  30    2.23    7.00
   2   4  31    3.64    4.67
  -2   4  31   19.70   10.96
  -2  -4  31    0.74   10.68
   2   4  31    7.02    5.88
  -2  -4  31    9.75    5.61
   2  -4  31    9.89    4.70
   2  -4  31   23.18   12.70
  -2   4  31    3.75    5.83
  -2  -5   0 4239.39   68.25
  -2  -5   0 4081.37   79.07
   2  -5   0 4155.58   74.47
  -2   5   0 4206.30   77.23
  -2  -5  -1    8.19    2.60
   2  -5  -1   20.91    6.74
  -2  -5  -1   13.70    6.23
  -2  -5   1   10.78    4.49
  -2  -5   1   13.37    3.54
   2  -5   1   16.91    5.15
   2  -5  -1    9.53    4.53
  -2  -5   1   12.22    1.88
   2  -5   1   15.98    6.17
  -2   5   1    9.18    3.92
  -2  -5   2  135.29   14.59
   2  -5   2  145.78   14.07
   2  -5  -2  134.28   14.88
  -2  -5  -2  148.68   15.11
  -2  -5   2  133.79   11.98
   2  -5   2  139.19   15.31
  -2   5   2  138.08   14.01
  -2  -5   2  111.75    7.06
   2  -5  -2  120.40   13.00
   2  -5   3   78.06   10.25
  -2  -5   3   63.66    6.01
  -2  -5   3   68.75    9.76
  -2  -5  -3   81.48   11.15
   2  -5  -3   74.02   10.27
  -2  -5   3   85.14   10.03
   2  -5  -3   66.24   10.91
   2   5   3   76.38    9.31
  -2   5   3   64.69   10.40
   2  -5   3   49.49    9.35
  -2  -5   4  122.87   14.81
   2  -5   4  121.35   13.12
  -2  -5   4  116.08   11.34
  -2  -5  -4  112.52   13.00
  -2  -5   4  123.96    9.86
   2  -5   4  124.86   15.06
   2  -5  -4  125.76   13.78
  -2   5   4  117.34   12.91
   2   5   4  100.38   11.05
   2   5   4  106.46    5.79
  -2  -5   5  364.52   24.80
   2   5   5  391.20   13.83
   2  -5   5  400.89   24.29
  -2  -5   5  407.28   21.51
   2  -5   5  425.54   27.43
  -2  -5  -5  338.91   23.55
  -2  -5   5  374.73   18.70
   2  -5  -5  382.05   24.19
  -2   5   5  390.25   23.69
   2   5   5  378.31   22.37
   2  -5   6   50.72    9.10
  -2  -5  -6   53.54    9.30
  -2   5   6   65.53   11.13
  -2   5   6   60.56    9.48
  -2  -5   6   47.90    9.47
   2  -5  -6   41.56    7.54
   2   5   6   51.68    5.70
   2   5   6   44.24    8.27
   2  -5   6   48.21    9.79
  -2  -5   6   58.78    8.78
  -2  -5   6   43.33    6.76
  -2  -5   7  535.81   31.23
   2  -5   7  479.28   27.60
  -2   5   7  478.48   27.94
   2  -5   7  535.02   30.66
  -2  -5  -7  467.79   28.07
   2  -5  -7  535.75   30.07
   2   5   7  483.18   19.95
  -2   5   7  533.19   30.27
  -2  -5   7  452.01   23.93
  -2  -5   7  497.62   24.55
   2   5   7  526.32   27.47
  -2  -5   8 1726.21   57.47
   2   5   8 1652.55   50.82
  -2  -5  -8 1624.55   54.03
  -2   5   8 1780.64   54.93
   2  -5   8 1814.75   54.00
  -2   5   8 1706.31   55.66
   2  -5  -8 1777.56   56.69
   2   5   8 1804.14   41.86
  -2  -5   8 1787.70   48.59
   2  -5   8 1831.15   58.34
   2   5   9    7.92    4.46
   2  -5   9    2.21    3.34
  -2  -5  -9    8.26    5.03
   2  -5   9    3.47    3.55
  -2   5   9    4.40    3.33
   2  -5  -9    4.41    2.84
  -2  -5   9    3.03    3.29
  -2   5   9    7.48    3.18
   2   5   9    0.58    1.86
  -2  -5   9    2.38    5.27
  -2  -5   9    1.87    1.80
   2  -5  10  277.91   22.56
  -2  -5  10  280.32   23.74
   2   5  10  317.85   24.04
  -2   5  10  271.82   22.49
  -2  -5 -10  296.03   23.77
  -2  -5  10  310.47   22.82
  -2  -5  10  317.01   21.55
   2   5  10  262.07   18.63
   2  -5  10  309.17   24.13
   2  -5 -10  342.19   25.43
  -2   5  10  319.63   25.15
   2   5  11  122.95   15.51
   2  -5  11  110.22   14.74
  -2   5  11   90.40   14.34
  -2  -5 -11  107.48   15.17
   2  -5  11  123.74   16.24
   2   5  11  117.19   12.99
  -2  -5  11   97.13   13.67
  -2   5  11  119.17   15.56
  -2  -5  11  113.05   15.63
   2  -5 -11  108.74   14.93
  -2  -5  11   91.99   12.04
   2  -5  12   12.13    5.53
  -2  -5  12    7.77    5.42
   2  -5  12   27.67    9.47
  -2  -5 -12   16.02    5.91
   2   5  12   35.25    8.42
   2   5  12   19.75    7.10
  -2   5  12   26.06    6.90
  -2  -5  12   22.81    7.19
   2  -5 -12   23.43    7.85
  -2  -5  12   21.56    6.65
  -2   5  12   25.09    8.71
   2  -5  13   94.35   14.48
   2  -5  13   80.38   14.19
   2   5  13   97.70   13.33
   2   5  13   80.66   12.42
  -2  -5 -13   97.83   14.37
  -2   5  13   89.40   13.78
   2  -5 -13   93.89   14.15
  -2  -5  13   95.37   14.68
  -2  -5  13   68.21   13.08
  -2   5  13  115.77   15.65
  -2  -5  13  101.26   13.92
  -2   5  14  632.45   38.03
  -2  -5  14  696.83   37.24
  -2  -5 -14  653.66   38.84
  -2  -5  14  670.47   40.23
   2  -5  14  622.04   38.48
   2   5  14  587.79   34.26
  -2  -5  14  692.64   40.59
  -2   5  14  663.10   38.56
   2   5  14  673.40   38.91
   2  -5  14  588.49   38.25
   2  -5  15  221.09   22.91
   2   5  15  225.02   21.52
  -2  -5  15  180.54   21.34
  -2  -5  15  196.23   20.70
  -2  -5 -15  227.45   22.81
  -2   5  15  188.39   21.53
  -2   5  15  221.59   23.35
   2   5  15  203.73   21.84
   2  -5  16   20.19    7.93
  -2   5  16   16.30    7.74
  -2  -5  16   24.75    9.25
   2   5  16   14.66    4.32
   2   5  16   14.59    5.77
  -2  -5 -16   13.90    7.73
  -2   5  16    6.50    5.31
  -2  -5  16   20.38    7.03
  -2  -5  16   19.62    7.83
  -2   5  17   19.57    4.81
  -2   5  17   17.74    7.85
   2   5  17   42.30   10.83
  -2  -5 -17   26.70    8.23
  -2  -5  17   45.51   11.77
   2   5  17   23.65    6.31
  -2  -5  17   40.57   11.37
   2  -5  17   20.50    8.12
   2  -5  17   33.70    9.96
   2   5  18   97.26   16.53
  -2   5  18  145.86   20.01
   2  -5  18  130.96   19.27
  -2  -5  18  129.31   18.42
   2   5  18   95.01   15.79
  -2  -5 -18  113.59   17.48
   2  -5  18  104.31   17.73
  -2  -5  18  144.46   21.50
  -2   5  18  111.58   19.03
  -2   5  19  172.01   22.66
   2   5  19  198.83   24.15
  -2  -5  19  196.38   22.70
   2  -5  19  188.15   23.81
  -2  -5 -19  190.77   22.96
  -2   5  19  176.48   22.22
   2   5  19  196.05   22.88
  -2  -5  19  219.04   26.01
   2  -5  19  161.51   22.63
  -2   5  20   47.44   13.57
   2   5  20   63.03   12.14
  -2  -5  20   81.13   16.31
  -2  -5 -20   84.75   16.07
  -2   5  20   47.03   13.56
   2   5  20   42.73   12.49
   2  -5  20   40.61   10.62
   2  -5  20   80.50   14.67
  -2  -5  20   58.04   14.67
   2   5  21   12.57    4.64
  -2   5  21    8.92    6.60
  -2  -5  21    5.92    3.78
   2  -5  21    9.05    8.66
  -2  -5  21    7.83    5.55
  -2  -5 -21   10.85    3.91
   2  -5  21   16.92    8.13
   2   5  21    4.67    3.87
  -2   5  21    8.04    5.71
  -2  -5  22  215.10   25.32
   2  -5  22  208.17   25.15
  -2   5  22  241.31   28.51
  -2  -5  22  174.09   25.80
   2   5  22  220.15   26.64
   2  -5  22  226.03   27.04
  -2   5  22  228.71   27.24
   2   5  22  248.34   27.55
  -2  -5 -22  244.46   28.51
  -2   5  23   11.97    8.44
   2  -5  23    0.02    4.91
   2   5  23   -0.88    3.40
  -2  -5  23   -1.10    5.69
  -2   5  23   -4.58    3.99
  -2  -5 -23    4.88    6.03
  -2  -5  23    7.60    9.91
   2   5  23    8.03    8.77
   2  -5  23    3.53    5.41
  -2   5  24   26.04    9.55
   2  -5  24   63.29   16.55
   2   5  24   50.97   13.28
  -2  -5 -24   30.74   11.56
   2  -5  24   23.23    9.08
   2   5  24   65.51   15.72
  -2  -5  24   44.03   11.60
  -2   5  24   44.32   11.50
  -2  -5  24   31.32   12.58
   2  -5  25   -7.14    6.56
   2   5  25    3.23    4.28
   2  -5  25   -3.74    5.18
  -2   5  25   -2.20    3.03
  -2  -5  25   -0.39    3.79
  -2  -5 -25   -1.25    5.78
  -2   5  25    4.16    5.88
   2   5  25    7.48    9.66
  -2  -5  25   -1.42    6.22
  -2   5  26   76.27   17.19
   2   5  26   73.74   16.11
  -2  -5  26   72.89   15.61
  -2  -5 -26   70.53   16.82
   2  -5  26   77.81   17.22
   2   5  26  116.21   20.48
  -2  -5  26   57.95   16.57
  -2   5  26   78.67   18.47
   2  -5  26   77.80   17.01
  -2   5  27   14.53    5.57
   2   5  27   23.31   12.26
  -2  -5  27   24.14    9.54
   2  -5  27   24.12    8.91
   2   5  27   21.59    8.27
  -2  -5  27   19.95   10.42
   2  -5  27   13.36    7.22
  -2  -5 -27    9.36    9.98
  -2   5  27   27.34    9.17
  -2   5  28   83.02   17.15
   2  -5  28   88.05   19.00
  -2  -5 -28   67.21   17.33
   2   5  28   61.06   15.93
  -2  -5  28   85.81   17.14
   2  -5  28   65.83   15.09
  -2   5  28  108.37   18.11
  -2  -5  28   86.73   19.36
   2   5  28   86.19   18.66
   2   5  29    4.22    9.94
   2  -5  29   -1.44    4.83
  -2  -5  29    3.21    4.44
  -2  -5 -29    3.41    3.26
  -2   5  29   17.64   11.54
  -2   5  29   -1.67    2.82
   2  -5  29   -2.47    4.56
   2   5  29   -3.60    4.03
  -2  -5  29    1.55    5.82
   2   5  30   53.36   15.83
   2  -5  30   25.96    9.89
   2  -5  30   41.05   11.73
  -2  -5  30   27.92   12.49
  -2   5  30   21.59    9.58
  -2  -5 -30   31.34   11.32
   2   5  30   52.27   16.15
  -2  -5  30   29.48   11.77
  -2   5  30   17.80    9.79
  -2  -6   0  699.37   35.61
   2  -6   0  662.72   32.90
  -2  -6   0  643.10   29.35
   2  -6   0  673.14   35.81
  -2   6   1   33.43    7.11
  -2  -6   1   26.43    6.21
  -2  -6   1   19.90    6.21
   2  -6   1   14.35    5.56
  -2  -6  -1   21.53    6.19
  -2  -6  -1   28.25    5.80
   2  -6  -1   28.63    7.14
   2  -6   1   40.38    8.71
   2  -6  -1   32.13    7.63
  -2  -6  -2   25.94    6.29
   2  -6  -2   19.24    6.37
  -2  -6   2   20.77    6.23
   2  -6   2   21.65    6.62
  -2  -6  -2   12.11    4.99
   2  -6  -2   14.15    3.90
  -2   6   2   27.60    6.30
   2  -6   2   27.31    6.92
  -2  -6   2   35.19    6.54
  -2  -6   2   21.51    3.24
   2  -6  -3   55.55   10.13
  -2  -6   3   50.31    6.02
  -2   6   3   41.45    8.32
   2  -6   3   47.11    9.05
   2  -6   3   52.68   10.05
   2  -6  -3   46.24    8.72
  -2  -6  -3   53.44   10.11
  -2  -6   3   46.00    8.58
  -2  -6   3   60.39   10.61
  -2  -6   4  258.54   22.30
   2  -6   4  258.23   20.84
   2  -6  -4  279.88   22.92
  -2  -6  -4  281.22   22.76
  -2  -6   4  283.67   20.13
   2  -6  -4  250.90   20.89
   2  -6   4  290.50   24.47
  -2   6   4  299.37   22.48
   2   6   4  241.25    8.80
   2   6   4  246.17   19.13
  -2  -6   4  333.33   16.65
   2  -6   5  130.79   15.17
  -2  -6   5  168.07   15.77
  -2  -6  -5  140.34   16.14
   2  -6   5  161.85   18.03
   2   6   5  132.16   13.87
   2  -6  -5  149.27   16.13
  -2   6   5  149.06   15.62
  -2  -6   5  105.92   14.84
  -2  -6   5  141.62   11.85
   2   6   5  132.63    7.83
  -2   6   6   12.63    4.87
   2  -6   6   11.27    6.15
  -2  -6   6   16.89    4.94
  -2  -6   6   13.40    7.36
  -2  -6  -6   13.73    5.01
   2   6   6   16.62    4.88
   2  -6  -6    8.69    3.71
  -2  -6   6   12.71    4.65
   2   6   6   13.46    3.02
   2  -6   6    9.76    4.12
   2  -6   7  206.15   19.54
   2  -6   7  204.49   20.40
  -2   6   7  207.55   18.47
  -2  -6  -7  164.10   17.91
   2  -6  -7  152.56   16.84
   2   6   7  194.44   18.34
   2   6   7  166.20   11.54
  -2   6   7  191.34   19.47
  -2  -6   7  172.57   18.68
  -2  -6   7  246.34   18.34
  -2  -6   7  210.27   17.44
  -2  -6   8    9.11    4.71
  -2  -6   8    7.92    4.45
  -2  -6  -8    6.44    2.95
   2  -6   8   12.81    7.76
   2  -6  -8    6.10    3.70
  -2   6   8    3.24    2.37
  -2   6   8    6.21    3.21
   2  -6   8    7.47    4.63
   2   6   8    7.25    4.01
   2   6   8    9.81    3.52
  -2  -6   8    8.10    3.97
   2   6   9   23.94    6.09
  -2   6   9   20.23    6.84
  -2  -6   9   16.55    6.78
  -2  -6   9   14.82    5.50
  -2  -6  -9   15.32    5.59
  -2  -6   9   28.79    7.33
   2  -6   9   19.84    7.93
   2   6   9   24.06    5.86
   2  -6   9   21.06    7.34
   2  -6  -9   23.86    7.74
  -2   6   9   13.27    6.72
  -2   6  10   42.55    8.64
   2  -6  10   57.85   11.55
   2  -6  10   75.74   13.68
  -2  -6  10   49.38    9.68
  -2  -6  10   62.36   10.16
  -2  -6 -10   52.05   10.41
   2   6  10   42.10    7.59
   2  -6 -10   53.38   11.33
  -2  -6  10   65.33   13.10
   2   6  10   67.63   12.06
  -2   6  10   49.74   10.38
  -2  -6  11  606.74   37.41
   2  -6 -11  650.94   38.30
  -2   6  11  611.83   35.93
  -2  -6 -11  667.33   38.21
  -2  -6  11  660.08   33.94
   2  -6  11  650.57   36.65
   2   6  11  648.88   35.98
  -2   6  11  691.78   39.26
  -2  -6  11  714.34   36.66
   2  -6  11  634.77   37.10
  -2  -6  12  255.04   24.78
   2  -6 -12  201.50   22.32
  -2  -6 -12  199.16   21.21
   2  -6  12  199.72   20.91
  -2   6  12  190.67   20.34
   2   6  12  184.43   17.02
  -2   6  12  194.53   21.29
  -2  -6  12  230.83   21.55
   2  -6  12  211.03   21.38
   2   6  12  169.34   18.72
  -2  -6  13  172.56   21.20
   2  -6 -13  124.81   17.22
   2  -6  13  128.38   16.39
  -2  -6  13  121.51   15.68
   2   6  13  173.91   17.66
  -2  -6 -13  152.77   19.93
  -2   6  13  129.15   16.66
   2  -6  13  196.88   21.23
   2   6  13  143.29   18.69
  -2  -6  13  170.28   18.91
   2  -6  14  392.20   29.63
  -2  -6  14  349.74   27.48
  -2  -6  14  352.50   29.50
  -2   6  14  363.86   29.32
   2  -6 -14  329.02   28.61
   2   6  14  329.59   25.36
  -2  -6  14  272.05   25.79
  -2  -6 -14  321.70   28.15
   2  -6  14  386.89   31.08
   2   6  14  282.52   25.47
  -2   6  14  356.44   29.37
   2   6  15  156.01   19.08
   2  -6 -15  149.74   20.15
   2  -6  15  132.58   20.01
  -2  -6  15  164.58   19.74
  -2  -6  15  141.33   20.22
  -2  -6  15  133.46   17.73
  -2  -6 -15  187.02   21.66
  -2   6  15  179.85   21.35
   2   6  15  160.23   18.57
  -2   6  15  180.53   21.17
   2  -6  15  177.05   20.74
  -2  -6  16  264.49   27.86
   2  -6 -16  227.15   24.36
  -2  -6  16  189.27   21.51
   2  -6  16  213.50   23.43
  -2  -6 -16  205.14   23.22
  -2   6  16  216.92   24.09
   2   6  16  207.32   23.15
   2   6  16  197.60   21.53
  -2  -6  16  200.52   23.87
  -2   6  16  201.55   23.20
   2  -6  16  181.52   23.24
   2  -6  17   -0.19    2.70
  -2   6  17   13.68    6.90
   2  -6 -17   -0.90    3.98
   2   6  17    5.59    6.00
  -2  -6  17   10.39    9.43
   2   6  17    5.07    5.23
  -2  -6  17    6.90    4.67
   2  -6  17    5.23    6.17
  -2  -6 -17   -3.96    4.88
  -2  -6  17    4.24    3.30
  -2   6  17    0.67    6.28
   2  -6  17    4.78    4.54
   2  -6  18   82.16   15.67
   2  -6 -18  116.19   18.93
  -2   6  18   97.93   16.18
  -2  -6  18   98.17   15.51
   2   6  18   82.64   14.65
   2   6  18  138.28   19.45
  -2  -6  18  100.25   18.31
  -2  -6  18   92.92   18.73
  -2  -6 -18   91.90   17.34
   2  -6  18   97.41   17.43
  -2   6  18  110.05   17.89
  -2  -6  19   13.78    6.16
   2   6  19    9.54    5.34
  -2   6  19    9.80    8.53
   2   6  19   11.35    6.40
  -2  -6 -19   21.25    8.16
  -2   6  19   28.48    8.20
   2  -6 -19   15.42    7.85
  -2  -6  19   39.07   10.96
   2  -6  19   28.02    8.86
   2  -6  19   20.67    8.36
  -2   6  20    7.46    6.10
   2   6  20    1.34    3.10
   2  -6 -20    3.52    8.48
  -2  -6  20    1.86    3.20
  -2  -6 -20    0.39    5.30
  -2  -6  20    8.08    8.55
  -2   6  20   10.92    5.99
   2   6  20   13.11    8.56
   2  -6  20    7.09    2.39
   2  -6  20   -2.20    4.38
  -2   6  21   26.61    8.82
   2  -6  21   24.21   10.20
   2   6  21   14.77    8.10
  -2   6  21    4.51    7.77
   2  -6 -21   11.51    4.39
  -2  -6  21   13.60    7.93
  -2  -6 -21    5.05    2.32
   2  -6  21    5.53    6.04
   2   6  21   11.06    5.95
  -2  -6  21    5.27    2.80
   2   6  22  103.71   17.60
   2  -6 -22   93.76   17.80
  -2  -6  22  109.09   17.72
  -2  -6  22   82.85   17.59
  -2  -6 -22  119.18   19.21
  -2   6  22  108.30   19.01
   2   6  22  104.53   18.09
   2  -6  22  119.60   20.64
  -2   6  22   90.72   18.09
   2   6  23   28.73    9.85
  -2  -6  23   37.19   11.44
  -2  -6 -23   23.44    9.04
  -2   6  23   46.83   12.35
   2  -6  23   41.53   11.74
   2  -6  23   44.30   12.98
   2  -6 -23   23.91    9.75
   2   6  23   33.76   13.69
  -2  -6  23   31.12   10.70
  -2   6  23   30.10   10.34
  -2  -6  24  143.72   23.33
   2   6  24  154.47   23.32
   2  -6  24  184.85   24.52
  -2  -6 -24  161.73   24.68
  -2   6  24  152.17   23.92
   2  -6 -24  169.07   24.67
   2   6  24  141.20   22.20
  -2  -6  24  147.09   23.52
  -2   6  24  141.99   22.66
   2  -6  24  112.26   19.46
   2   6  25    6.13    6.26
  -2  -6  25    4.19    7.14
  -2   6  25    1.52    5.18
  -2  -6 -25    0.64    3.20
   2  -6  25    2.55    6.83
  -2   6  25   13.85    7.70
   2  -6  25    4.50    9.41
  -2  -6  25   -6.09    8.95
   2  -6 -25   -0.89    7.87
   2   6  25    1.72    6.50
  -2   6  26   45.89   13.35
   2   6  26   59.49   15.78
  -2   6  26   46.56   14.99
  -2  -6  26   62.28   15.44
   2  -6 -26   59.00   14.52
   2   6  26   28.85   10.99
  -2  -6  26   35.18   13.74
  -2  -6 -26   62.14   16.13
   2  -6  26   37.30   13.64
   2  -6  26   39.47   11.95
  -2   6  27   -5.88    3.03
   2   6  27   -7.06    8.21
  -2  -6  27  -12.65   10.96
  -2  -6  27   -1.42    4.70
  -2   6  27   -7.17   10.26
   2  -6  27   -7.37    5.14
  -2  -6 -27   -1.70    7.90
   2  -6 -27   -4.19    4.89
   2   6  27    3.12   11.26
   2  -6  27   -0.26    6.39
  -2   6  28   37.40   12.31
   2   6  28   27.34    8.86
  -2  -6  28   19.56    9.69
   2  -6  28   19.15   10.29
   2  -6  28   36.72   14.30
  -2   6  28    2.80    6.47
  -2  -6 -28   24.79    8.13
   2   6  28    5.36    7.01
   2  -6 -28   -2.06    9.82
  -2  -6  28   38.09   13.59
   2   6  29   36.82   10.19
  -2  -6 -29   41.58   14.05
  -2  -6  29   43.94   14.77
  -2  -6  29   32.31   13.41
   2  -6  29   45.79   13.35
   2  -6 -29   50.06   14.61
  -2   6  29   39.93   13.23
   2   6  29   49.74   15.17
   2  -6  29   20.30    9.73
  -2   6  29   39.31   11.74
   2   6  30   28.03    7.12
   2  -6  30   38.79   14.40
  -2  -6  30   25.23   11.42
   2  -6 -30   39.63   12.88
  -2  -6 -30   24.75    9.38
  -2   6  30   45.52   14.86
   2  -6  30   29.76   10.33
  -2   6  30   37.70   12.60
   2   6  30   22.10   14.12
  -2  -7   0    5.22    2.53
   2  -7   0    9.16    3.39
  -2  -7   0    5.54    2.49
  -2  -7   0    2.36    0.68
  -2  -7   1  910.51   43.85
   2  -7   1  878.58   41.04
  -2  -7  -1  928.40   39.18
   2  -7  -1  854.97   42.84
   2  -7   1  821.95   41.77
  -2  -7   1  815.71   37.30
  -2  -7   1  968.00   21.10
  -2  -7  -1  843.23   41.88
   2  -7  -1  821.26   39.33
  -2  -7   2  300.36   25.42
   2  -7   2  262.93   22.33
   2  -7   2  262.51   24.03
  -2  -7  -2  292.81   25.30
  -2  -7  -2  271.68   21.22
   2  -7  -2  243.90   22.51
  -2  -7   2  269.06   21.66
  -2  -7   2  285.33   13.08
   2  -7  -2  247.61   21.67
  -2   7   2  287.06   22.79
   2  -7   3  768.91   38.57
  -2  -7  -3  748.13   38.96
   2  -7  -3  805.71   39.97
  -2  -7   3  795.10   41.34
  -2   7   3  779.76   37.21
   2  -7   3  751.96   41.52
  -2  -7   3  734.06   36.11
  -2  -7  -3  774.59   35.98
  -2  -7   3  657.11   22.19
   2  -7  -3  713.18   38.77
  -2  -7   4  146.48   17.80
   2  -7   4  138.36   16.65
  -2  -7  -4  153.62   18.44
   2  -7  -4  111.17   15.27
  -2  -7   4  149.05   16.05
   2  -7   4  178.29   20.06
  -2   7   4  148.96   16.50
  -2  -7   4  199.55   13.32
   2  -7  -4  165.94   18.27
   2  -7  -5  248.06   23.18
   2   7   5  218.69   10.77
   2  -7   5  227.93   21.83
  -2  -7   5  217.99   21.98
  -2  -7   5  245.75   16.04
  -2  -7   5  244.54   20.82
   2  -7  -5  223.12   21.25
   2  -7   5  239.91   22.96
  -2  -7  -5  206.39   21.36
  -2   7   5  215.89   19.66
   2   7   5  251.41   21.32
   2  -7   6  329.71   27.57
  -2  -7   6  333.63   24.11
  -2  -7   6  304.90   26.21
   2  -7   6  339.84   26.68
  -2  -7  -6  352.09   27.75
   2   7   6  299.25   14.24
  -2   7   6  313.99   23.90
   2   7   6  310.32   23.72
   2  -7  -6  340.70   26.61
  -2  -7   6  325.84   20.17
  -2  -7   7  830.16   44.03
   2  -7   7  861.77   42.55
  -2  -7   7  865.46   34.55
  -2   7   7  930.27   41.91
   2  -7   7  876.53   45.06
  -2  -7  -7  904.70   44.36
   2  -7  -7  946.84   44.70
   2   7   7  858.62   26.13
   2   7   7  914.43   42.08
  -2  -7   8  183.52   20.88
   2  -7   8  134.27   18.02
  -2  -7   8  172.64   17.51
  -2  -7  -8  175.40   19.99
   2  -7  -8  158.35   18.35
  -2   7   8  175.10   18.56
   2   7   8  136.27   11.87
   2   7   8  178.70   18.61
  -2  -7   8  139.57   14.79
   2  -7   8  133.41   17.20
   2  -7   9  124.99   16.97
  -2   7   9  159.23   17.95
   2   7   9   97.84   14.43
  -2  -7  -9  147.93   17.79
  -2  -7   9  112.59   15.58
   2  -7  -9  144.24   18.53
   2  -7   9  134.81   17.01
   2   7   9   88.62   10.52
  -2  -7   9  169.08   16.54
  -2   7   9  119.21   16.31
  -2  -7   9  163.62   17.16
  -2  -7  10   79.19   13.89
   2  -7  10   63.09   13.45
  -2  -7 -10   95.28   15.99
   2  -7 -10   93.22   15.31
  -2   7  10   72.99   13.57
  -2   7  10  101.65   15.14
  -2  -7  10   90.38   12.59
   2   7  10   67.62    9.22
   2   7  10   78.20   12.05
  -2  -7  10   87.96   12.74
   2  -7  10   73.30   13.82
   2  -7  11 2425.92   74.88
  -2  -7 -11 2591.77   79.48
  -2  -7  11 2311.77   68.02
   2  -7 -11 2328.38   74.96
  -2   7  11 2530.93   74.76
   2   7  11 2453.88   59.71
   2   7  11 2296.23   72.03
  -2  -7  11 2436.15   69.93
  -2  -7  11 2403.06   77.51
  -2   7  11 2630.85   78.37
   2  -7  11 2385.80   74.30
   2  -7 -12  528.05   36.06
  -2   7  12  573.08   36.09
  -2  -7  12  501.67   35.61
  -2   7  12  484.13   33.94
  -2  -7  12  559.00   33.91
   2  -7  12  557.37   36.19
  -2  -7 -12  496.36   35.34
  -2  -7  12  509.15   33.76
   2   7  12  494.01   34.11
   2  -7  12  479.86   33.65
   2   7  12  553.09   29.66
   2  -7  13  189.78   21.96
  -2  -7  13  175.16   21.54
   2   7  13  168.33   17.79
  -2   7  13  194.24   21.40
  -2  -7  13  187.91   20.52
  -2  -7  13  167.74   19.27
   2  -7 -13  174.33   21.52
  -2  -7 -13  180.10   21.65
  -2   7  13  179.85   22.59
   2  -7  13  179.98   20.87
   2   7  13  176.28   21.03
  -2  -7  14  168.11   21.17
  -2  -7 -14  121.58   18.30
  -2   7  14  141.65   18.65
  -2  -7  14  148.62   18.14
   2   7  14  116.92   15.33
   2  -7  14  162.66   19.63
  -2  -7  14  115.81   17.69
   2  -7 -14  137.97   19.63
   2   7  14  139.79   18.84
  -2   7  14  129.39   18.62
   2  -7  14  116.30   18.46
  -2  -7  15   13.54    6.47
   2   7  15    8.00    7.23
   2  -7  15   13.69    3.72
  -2  -7 -15   14.40    6.04
  -2  -7  15    0.08    3.28
   2  -7 -15   25.18    9.74
   2  -7  15   25.49    8.66
  -2   7  15   13.37    5.84
   2   7  15   25.19    8.99
  -2   7  15    8.00    6.25
  -2  -7  15   13.56    8.69
  -2  -7  16  227.45   24.57
  -2  -7 -16  233.80   25.64
  -2   7  16  187.32   22.57
   2  -7 -16  228.83   25.89
   2   7  16  208.53   21.97
   2  -7  16  222.18   23.90
  -2  -7  16  201.09   23.66
  -2  -7  16  209.83   25.07
  -2   7  16  213.66   24.86
   2   7  16  196.12   22.90
   2  -7  17  231.22   27.33
   2  -7  17  236.46   25.86
  -2  -7  17  239.97   24.88
  -2   7  17  267.67   27.64
   2   7  17  224.57   23.72
   2  -7 -17  210.96   25.54
  -2   7  17  244.16   25.66
  -2  -7  17  216.96   24.88
   2   7  17  246.01   26.48
  -2  -7 -17  263.10   27.83
  -2  -7  17  234.73   25.94
   2  -7 -18   93.49   17.22
   2   7  18   75.84   15.02
  -2   7  18   84.20   15.83
   2  -7  18   91.90   16.00
   2   7  18   83.98   15.06
  -2  -7  18   56.40   12.16
   2  -7  18   83.51   15.80
  -2  -7 -18   91.83   17.15
  -2   7  18   79.07   15.64
   2  -7  18   94.06   17.52
  -2  -7  18   71.50   15.17
  -2  -7  18   66.19   17.57
  -2  -7  19   44.32   11.03
   2   7  19   68.12   14.83
   2  -7 -19   69.74   14.86
  -2  -7  19   83.53   15.80
  -2  -7 -19   95.16   16.97
  -2   7  19  109.09   18.94
   2  -7  19   83.19   16.32
   2   7  19   91.38   15.58
  -2   7  19   74.94   15.50
   2  -7  19   71.99   15.64
  -2  -7  19   73.89   18.39
   2   7  20    2.75    6.44
  -2   7  20   19.06    9.35
  -2  -7  20    5.26    5.46
  -2  -7 -20    3.04    4.42
   2  -7 -20    8.30    5.26
   2   7  20   16.85    8.62
   2  -7  20   28.16   11.15
  -2  -7  20   13.14    7.05
  -2   7  20    0.98    3.29
   2  -7  20    1.04    6.75
  -2  -7  21  170.29   22.87
  -2   7  21  165.03   23.07
   2   7  21  133.61   20.10
  -2  -7 -21  160.92   22.73
   2   7  21  179.47   22.20
   2  -7 -21  142.53   21.56
   2  -7  21  154.13   22.32
  -2   7  21  162.70   22.26
  -2  -7  21  116.07   21.01
   2  -7  21  148.89   22.97
  -2   7  22    5.42    5.21
   2  -7 -22    5.98    3.04
   2   7  22    8.87    7.06
  -2   7  22    6.42    6.11
  -2  -7  22   -0.78    5.37
   2   7  22   17.48    9.57
   2  -7  22    2.17    7.19
  -2  -7  22   -2.27    5.10
   2  -7  22    6.24    3.29
  -2  -7 -22    1.88    5.44
  -2  -7  23    0.66    4.59
  -2   7  23    5.46    8.45
  -2  -7 -23    0.98    4.22
   2   7  23    0.97    5.74
  -2   7  23   -0.68    2.92
   2   7  23    1.63    5.55
   2  -7 -23   -1.93    6.84
   2  -7  23    6.74    7.40
  -2  -7  23    2.38    6.75
   2  -7  23    0.54    4.06
   2  -7 -24   13.15    7.66
   2  -7  24    1.59    6.47
   2   7  24    9.70    3.92
  -2  -7 -24    6.05    5.53
  -2  -7  24    1.79    6.01
  -2   7  24   -0.64    7.83
   2  -7  24   -0.27    6.85
  -2  -7  24   -4.23    3.58
  -2   7  24   12.29    9.39
   2   7  24    7.41    5.20
   2  -7  25  118.29   21.22
  -2  -7  25  105.47   20.81
  -2  -7 -25  123.12   21.12
   2   7  25  141.81   23.66
   2  -7 -25  137.25   21.62
  -2   7  25  115.83   20.31
  -2  -7  25  126.62   22.41
  -2   7  25  132.21   22.17
   2  -7  25  109.50   20.26
   2   7  25  130.26   21.17
   2   7  26   -0.24    4.10
  -2  -7  26   -1.81    5.10
   2  -7  26    1.43    2.63
   2  -7  26   23.22   12.46
  -2   7  26   18.58    8.55
   2  -7 -26    4.48    6.00
  -2  -7  26   16.43   11.62
  -2   7  26    2.08    8.27
  -2  -7 -26   -5.00    7.48
   2  -7  27   21.54    9.38
  -2   7  27   -1.38    6.08
  -2  -7  27   15.69    7.45
  -2  -7 -27   17.67    8.32
   2  -7 -27   13.56    9.56
   2   7  27    3.71    4.21
   2  -7  27   22.27   10.62
  -2  -7  27   15.06    8.78
  -2   7  27    5.01    5.61
   2   7  28   -1.23    5.25
  -2  -7 -28   -9.39   10.35
   2  -7  28   -2.74    6.71
  -2  -7  28    6.24    3.57
   2  -7 -28   11.11    8.94
  -2   7  28    3.97    7.16
  -2  -7  28   11.09    4.16
   2  -7  28    1.29    6.88
  -2   7  28    1.84    3.40
   2  -7 -29   45.63   12.78
   2   7  29   43.15   12.41
  -2  -7 -29   54.66   14.72
   2  -7  29   47.47   14.32
  -2  -7  29   37.70   14.86
  -2   7  29   70.31   17.25
   2  -7  29   42.77   13.01
  -2   7  29   50.05   13.75
   2  -8   0   22.69    9.02
   2  -8   0   24.09    8.94
  -2  -8   0   20.35    5.20
  -2  -8   0   30.46    8.96
   2  -8   1   16.33    7.52
   2  -8  -1   12.58    7.33
  -2  -8  -1   12.68    5.34
  -2  -8   1    5.27    3.52
  -2  -8  -1   12.41    6.16
   2  -8  -1   12.25    5.19
   2  -8   1   18.11    7.00
  -2  -8   1    8.79    5.61
  -2  -8   2   43.65    9.73
   2  -8   2   43.32   10.33
  -2  -8   2   51.50   10.24
  -2  -8  -2   23.20    6.07
  -2  -8  -2   69.40   11.41
   2  -8  -2   40.66    9.74
   2  -8   2   58.24   11.92
   2  -8  -2   30.97    8.09
  -2  -8   3  204.28   22.24
   2  -8   3  206.45   21.40
  -2  -8  -3  201.59   21.71
   2  -8  -3  159.00   19.34
   2  -8  -3  198.53   21.45
  -2  -8  -3  227.91   21.03
  -2   8   3  225.81   21.70
  -2  -8   3  190.90   19.72
   2  -8   3  207.23   22.85
  -2  -8   4  265.65   26.04
  -2   8   4  259.93   22.90
   2  -8   4  240.09   23.31
  -2  -8  -4  244.45   23.90
   2  -8  -4  205.12   21.09
  -2  -8   4  230.59   21.85
  -2  -8  -4  253.77   22.30
  -2  -8   4  285.49   17.04
   2  -8  -4  226.63   23.48
   2  -8   4  241.20   25.23
  -2  -8   5  296.12   26.67
   2  -8   5  266.33   24.69
  -2  -8  -5  265.24   25.46
   2  -8  -5  312.68   26.99
   2  -8  -5  243.43   23.83
   2  -8   5  272.49   26.37
  -2  -8   5  241.49   16.84
  -2   8   5  280.41   23.47
  -2  -8   5  278.31   23.73
   2  -8   6    0.69    3.72
   2  -8  -6    2.01    6.93
  -2  -8   6   -0.06    3.74
  -2  -8  -6    0.99    2.83
   2  -8  -6    3.14    2.73
   2   8   6    4.81    2.54
  -2  -8   6    4.95    3.92
   2  -8   6    1.07    2.83
  -2  -8   6    7.63    2.82
  -2   8   6    2.58    4.70
  -2  -8   7  106.97   16.72
  -2  -8   7  117.38   15.31
   2  -8   7   86.94   14.98
  -2  -8  -7  100.11   16.71
   2  -8  -7  109.56   16.60
   2  -8   7   89.47   14.08
   2   8   7   88.60    8.74
   2  -8  -7  112.64   16.97
  -2  -8   7  107.00   12.87
   2   8   7  113.98   15.86
  -2   8   7   87.42   13.80
  -2  -8   8    5.99    4.88
   2  -8   8    4.74    3.27
  -2   8   8   -0.45    3.66
  -2  -8  -8    5.25    6.63
  -2  -8   8   -0.14    2.49
   2  -8  -8   -0.51    2.59
   2  -8   8    1.21    1.77
   2   8   8   -0.41    5.20
  -2  -8   8    4.69    4.41
   2   8   8    0.58    2.29
  -2  -8  -9  110.58   17.01
  -2  -8   9  130.99   17.93
   2  -8   9   98.76   16.08
  -2  -8   9  127.47   15.32
  -2   8   9  131.62   18.02
   2  -8  -9  134.85   17.36
   2   8   9  108.72   11.19
  -2  -8   9  120.35   15.53
   2   8   9  108.24   16.10
   2  -8  10   79.70   14.40
  -2  -8 -10   91.24   15.47
   2  -8 -10   79.62   14.67
   2  -8  10   99.51   15.89
  -2   8  10   85.91   14.46
   2   8  10   93.27   11.69
  -2  -8  10   76.03   12.45
   2   8  10   73.89   12.60
  -2  -8  10   73.92   14.06
  -2  -8  10  100.26   14.78
   2  -8  11   -4.68    5.03
  -2   8  11   -4.18    3.93
  -2  -8  11    6.21    5.03
  -2  -8 -11    0.26    3.21
  -2   8  11    3.84    6.21
   2  -8 -11    0.08    3.21
   2  -8  11    5.00    4.09
  -2  -8  11   -3.04    5.74
   2   8  11   -1.57    3.10
   2   8  11   -1.27    5.50
  -2  -8  11    1.06    5.28
  -2  -8  12   36.10    9.48
   2  -8  12   37.42   11.36
  -2  -8 -12   31.44    8.18
  -2   8  12   24.92    9.10
  -2  -8  12   39.57   10.56
   2  -8  12   24.63    8.69
   2   8  12   21.69    6.42
   2  -8 -12   23.23    8.70
  -2  -8  12   45.26   11.05
  -2   8  12   36.07    9.14
   2   8  12   50.61   12.78
  -2  -8  13    8.21    7.15
  -2  -8  13    6.94    5.02
  -2   8  13    9.04    7.97
   2   8  13    2.41    4.45
  -2  -8 -13   13.41    6.87
  -2   8  13   22.40    7.18
   2  -8 -13    3.81    6.72
   2   8  13   10.19    6.17
   2  -8  13   14.33    5.81
  -2  -8  13    7.72    6.41
   2  -8  13    4.92    4.58
  -2  -8  14   45.95    9.86
   2  -8  14   50.84   12.71
  -2  -8  14   37.27   10.68
  -2   8  14   38.05    9.06
   2  -8  14   37.70   10.07
   2  -8 -14   45.24   11.18
  -2  -8 -14   43.04   13.03
   2   8  14   33.34    9.49
   2   8  14   16.81    4.85
  -2  -8  14   34.63    9.99
  -2   8  14   16.10    7.63
   2  -8  15  347.30   30.88
  -2  -8  15  332.17   31.31
  -2  -8 -15  357.74   32.61
   2  -8 -15  390.64   33.05
  -2  -8  15  370.65   31.44
   2  -8  15  296.30   28.60
  -2   8  15  362.49   32.10
  -2  -8  15  317.66   29.69
   2   8  15  300.88   29.44
  -2   8  15  400.02   33.91
  -2  -8  16    2.31    5.51
   2  -8  16   -0.98    3.61
  -2  -8 -16   -1.11    3.30
  -2   8  16    8.76    7.63
  -2  -8  16    0.94    2.27
   2  -8 -16   -1.10    5.43
   2  -8  16   -2.21    4.22
  -2   8  16   -2.79    4.58
  -2  -8  16   -0.26    3.91
   2   8  16    4.84    6.57
   2  -8  17  131.41   20.21
  -2  -8  17  121.50   20.63
  -2   8  17  108.50   18.16
   2  -8 -17  141.04   20.82
  -2  -8 -17  158.78   22.17
   2   8  17  138.86   19.75
  -2  -8  17  138.48   19.60
   2  -8  17  114.69   18.41
  -2   8  17  107.66   18.21
  -2  -8  17   80.27   15.21
  -2  -8  18   50.05   12.60
   2  -8  18   53.17   12.87
  -2   8  18   50.88   12.30
  -2  -8 -18   47.87   11.28
   2  -8  18   35.24   13.56
   2  -8 -18   47.37   13.73
  -2  -8  18   61.25   14.88
  -2  -8  18   46.58   13.01
  -2   8  18   59.93   14.57
   2   8  18   77.73   14.30
   2  -8  18   73.72   14.61
  -2  -8  19   90.20   17.98
   2  -8 -19  171.76   23.95
  -2  -8  19  111.04   19.00
   2  -8  19  113.34   19.28
  -2  -8 -19  111.49   17.91
  -2   8  19  121.35   20.19
   2  -8  19  134.52   19.77
  -2   8  19  115.23   20.38
   2   8  19   71.17   15.03
   2  -8  19  130.15   21.37
  -2  -8  19  117.92   20.01
  -2  -8  20    9.59    6.98
  -2  -8  20    5.88    8.39
   2  -8 -20   -1.58    6.47
  -2  -8 -20    4.51    7.06
  -2  -8  20   -6.99    4.61
  -2   8  20    2.06    4.30
   2   8  20    5.61    6.66
  -2   8  20    2.00    3.70
   2  -8  20   -1.40    4.15
   2  -8  20   -4.60    4.85
   2  -8  20   -0.29    6.49
   2  -8 -21  171.70   24.36
  -2  -8  21  210.52   26.03
  -2  -8 -21  207.95   26.66
   2  -8  21  189.63   25.22
   2   8  21  185.03   24.90
  -2  -8  21  214.81   27.57
  -2   8  21  208.09   26.91
   2  -8  21  191.80   26.20
  -2   8  21  186.46   25.80
   2   8  22    9.60    7.75
  -2  -8  22   14.33    9.39
  -2  -8 -22    1.23    4.48
   2  -8 -22    9.33    4.96
  -2   8  22    3.40    3.44
   2  -8  22    1.90    6.67
  -2  -8  22    2.56    8.34
  -2   8  22   -2.45    4.85
   2  -8  22    1.22    7.33
   2   8  23   19.88    9.09
  -2  -8  23   24.30   12.18
   2  -8  23   48.06   14.35
  -2  -8 -23   25.31   10.58
   2  -8 -23   57.42   15.63
  -2  -8  23   37.71   12.20
  -2   8  23   57.59   14.98
  -2   8  23   40.30   11.77
   2  -8  23   44.56   13.02
   2   8  24    9.30    4.88
  -2  -8  24   26.14    9.47
  -2  -8 -24   21.10   10.76
   2  -8  24   11.39    8.62
  -2   8  24   21.40    9.83
   2  -8  24   20.59   11.57
  -2   8  24    6.94    4.67
   2  -8 -24   16.12    9.43
  -2  -8  24   13.99    8.79
   2  -8  25  272.52   31.64
  -2  -8  25  280.62   33.98
   2  -8 -25  334.94   35.69
  -2  -8 -25  219.86   28.34
  -2   8  25  242.93   30.42
  -2  -8  25  270.29   32.40
  -2   8  25  331.97   33.41
   2   8  25  276.27   30.76
   2  -8  25  269.10   32.06
   2   8  26   63.84   15.42
  -2   8  26   48.20   13.07
   2  -8 -26   45.05   14.16
  -2  -8 -26   59.82   16.39
  -2   8  26   20.38    6.45
   2  -8  26   64.63   15.48
  -2  -8  26   38.66   13.52
   2  -8  26   46.58   13.99
  -2   8  27    2.83    8.64
  -2  -8 -27    4.75    6.76
   2  -8 -27   17.39    6.44
   2   8  27   10.18    5.48
   2  -8  27   12.31    8.18
  -2  -8  27   16.81    7.67
   2  -8  27    7.62    6.44
  -2   8  27   15.14   10.16
  -2   8  28    3.82    5.12
   2  -8  28   -6.26    5.37
  -2  -8 -28    5.53    5.64
   2  -8 -28    7.68    4.93
   2  -8  28   -3.47    7.80
   2   8  28    0.14    3.40
  -2  -8  28   -3.25    7.78
  -2   8  28   -8.94    6.98
   2  -9   0   26.94    8.57
  -2  -9   0   27.25    8.86
  -2  -9   0   26.17    8.83
   2  -9   0   29.53    9.07
  -2  -9   1  203.81   23.11
   2  -9   1  218.13   23.81
  -2  -9  -1  201.85   23.32
   2  -9  -1  261.77   25.52
  -2  -9   1  191.69   20.88
  -2  -9  -1  223.28   22.90
   2  -9  -1  248.82   25.77
   2  -9   1  208.77   23.54
  -2  -9  -2   16.08    2.21
   2  -9   2   13.14    5.93
  -2  -9   2    8.26    2.22
  -2  -9  -2   10.55    6.15
   2  -9  -2   16.77    7.92
   2  -9  -2   10.83    6.93
   2  -9   2   24.70   10.15
  -2  -9   2   23.41    8.33
   2  -9  -3  548.33   37.40
   2  -9  -3  558.97   37.22
   2  -9   3  571.00   40.12
  -2  -9   3  539.50   37.92
   2  -9   3  515.80   36.18
  -2  -9  -3  494.64   33.75
  -2  -9   3  513.45   35.32
  -2  -9  -3  535.85   37.47
   2  -9  -4  129.52   17.88
  -2  -9   4  133.73   19.77
  -2  -9  -4  141.35   19.13
   2  -9  -4  113.49   16.67
  -2  -9  -4  126.33   17.53
   2  -9   4  130.43   18.44
  -2  -9   4  117.05   16.85
   2  -9   4  146.17   19.09
  -2   9   4  129.89   16.86
  -2  -9   5   15.16    6.41
   2  -9  -5   25.22    8.82
   2  -9   5   14.39    8.44
   2  -9   5   33.25    9.42
  -2  -9   5   25.47   10.15
  -2  -9  -5    3.45    2.96
  -2   9   5   13.38    5.68
  -2  -9  -5   15.71    5.91
   2  -9  -5    4.33    5.78
  -2  -9   6  328.30   30.76
   2  -9   6  326.99   29.95
   2  -9   6  345.92   30.56
  -2  -9   6  312.56   26.38
  -2  -9  -6  326.55   29.86
   2  -9  -6  359.75   30.62
   2  -9  -6  297.05   27.69
  -2   9   6  340.93   27.18
  -2  -9   7 1486.36   63.57
   2  -9   7 1486.07   62.67
  -2  -9   7 1471.43   58.61
   2  -9   7 1538.08   65.14
  -2  -9  -7 1566.59   65.64
   2  -9  -7 1521.47   62.75
   2  -9  -7 1455.54   61.91
  -2   9   7 1518.14   59.18
  -2  -9   8  562.60   36.43
  -2  -9   8  602.17   40.59
   2  -9   8  614.72   40.43
   2  -9  -8  609.60   39.71
  -2   9   8  643.83   39.16
   2  -9  -8  610.02   40.00
   2   9   8  598.97   38.54
   2  -9   8  568.96   38.52
  -2  -9  -8  588.75   40.33
   2  -9  -9   32.90    9.32
  -2  -9   9   34.48   10.38
   2   9   9   38.23    8.52
   2  -9   9   18.57    7.10
   2  -9   9   48.60   11.92
  -2  -9   9   22.88    7.66
  -2   9   9   19.76    6.05
  -2  -9  -9   22.61    7.66
   2  -9  10  500.58   37.11
  -2  -9  10  481.73   37.70
   2  -9  10  458.97   34.84
   2  -9 -10  472.76   36.73
   2   9  10  454.18   34.31
  -2  -9 -10  468.89   36.17
  -2   9  10  475.03   34.80
  -2  -9  10  482.80   33.25
   2  -9  11   86.81   16.56
  -2   9  11   83.82   14.76
  -2  -9  11   73.03   14.05
  -2  -9 -11  122.81   18.94
   2  -9  11   97.51   15.83
   2   9  11   83.29   15.38
  -2  -9  11   86.39   14.53
   2  -9 -11   80.18   15.34
  -2  -9  12    3.49    3.53
  -2  -9  12   -0.10    3.46
  -2  -9 -12    1.01    5.27
   2  -9  12   -0.82    2.52
   2  -9  12    5.28    3.26
   2  -9 -12    2.04    4.08
  -2   9  12   -1.48    6.92
   2   9  12    0.93    2.90
  -2  -9  12   18.26   10.00
  -2  -9  13  209.40   25.55
  -2   9  13  237.38   25.38
   2   9  13  211.02   24.57
  -2   9  13  225.01   24.87
  -2  -9 -13  218.72   26.17
   2  -9 -13  300.79   29.70
  -2  -9  13  230.48   23.74
   2  -9  13  208.43   24.92
   2  -9  13  230.31   25.13
  -2  -9  13  231.99   24.94
  -2  -9  14   28.89   10.43
  -2  -9  14   35.97   11.61
  -2   9  14   27.26   10.56
  -2  -9  14   30.50    9.86
   2  -9  14   43.16   10.63
  -2  -9 -14   16.71    8.38
  -2   9  14   22.18    9.37
   2  -9  14   49.75   12.18
   2  -9 -14   17.37    7.95
   2   9  14   31.78   11.40
   2  -9  15  166.60   21.85
  -2  -9  15  160.14   20.95
  -2   9  15  186.84   23.26
  -2  -9  15  168.41   21.69
  -2  -9 -15  174.12   24.35
  -2   9  15  140.07   20.77
   2  -9 -15  163.47   22.15
  -2  -9  15  154.69   21.68
   2   9  15  176.69   23.59
   2  -9  15  173.36   23.05
  -2  -9  16   56.67   12.91
  -2  -9  16   68.05   15.25
  -2  -9 -16   59.65   13.86
   2  -9  16   79.48   14.02
   2  -9  16   77.23   15.31
  -2   9  16   82.55   15.39
   2   9  16   57.14   12.89
   2  -9 -16   69.48   16.94
  -2   9  16   71.00   15.59
  -2  -9  16   55.05   13.70
  -2   9  17  311.47   31.38
   2  -9  17  418.51   35.41
   2   9  17  381.94   35.11
  -2  -9 -17  364.60   34.13
   2  -9 -17  381.05   35.34
  -2  -9  17  367.98   33.49
   2  -9  17  373.35   34.47
  -2   9  17  367.78   33.41
  -2  -9  17  510.23   40.38
  -2  -9  17  424.50   37.34
  -2  -9  18   25.71   10.24
   2  -9  18   19.58    6.71
  -2  -9 -18   23.39    9.71
   2  -9  18    3.08    6.96
   2  -9 -18    0.37    6.26
  -2   9  18   17.45    9.49
  -2   9  18   13.36    5.93
  -2  -9  18    9.07    3.80
  -2  -9  18    8.75    6.44
   2   9  18   11.74    8.60
   2  -9  18   14.85    8.15
   2   9  19   42.80   11.75
  -2  -9  19   36.57   12.75
   2  -9  19   38.01   13.57
   2  -9 -19   46.42   12.81
  -2   9  19   68.04   15.34
   2  -9  19   43.19   12.69
   2  -9  19   62.76   13.61
  -2   9  19   34.94   12.11
  -2  -9 -19   43.92   13.07
  -2  -9  19   23.57    8.70
  -2  -9  19   49.25   13.39
   2  -9  20   -1.61    4.51
   2   9  20   11.11    7.29
  -2  -9  20    1.52    4.07
  -2   9  20   -4.13    3.98
   2  -9 -20   -1.72    4.28
  -2  -9 -20    0.24    4.68
  -2   9  20    3.33    4.00
  -2  -9  20  -10.41    8.52
   2  -9  20   -1.10    9.40
   2  -9  20    3.99    2.65
  -2  -9  20   -6.36    6.35
  -2   9  21   56.74   14.46
   2  -9  21   60.32   15.38
  -2  -9 -21   71.03   15.70
  -2  -9  21   47.93   13.08
  -2  -9  21   56.75   15.42
   2  -9 -21   63.43   16.41
  -2  -9  21   68.54   15.25
  -2   9  21   56.27   13.19
   2  -9  21   81.72   17.76
   2  -9  21   77.23   17.43
   2   9  21   64.28   14.25
   2   9  22   82.39   15.86
  -2  -9  22   80.81   17.99
   2  -9 -22  106.43   18.95
   2  -9  22   96.09   19.34
  -2  -9 -22   85.53   17.42
  -2   9  22   92.64   19.51
  -2  -9  22   79.61   16.80
  -2   9  22   49.46   14.02
   2  -9  22   58.63   14.05
  -2  -9  22  113.51   21.17
   2   9  23   18.91    9.30
  -2   9  23   33.77   12.05
  -2  -9 -23   16.96    7.60
   2  -9 -23   25.97   10.04
  -2  -9  23   10.41    4.90
  -2   9  23   20.60    9.09
   2  -9  23   24.65    9.87
   2  -9  23   11.16    7.89
   2   9  24    8.92   10.79
  -2  -9  24   -0.16    6.13
  -2  -9 -24    5.10    4.27
  -2   9  24   11.52    9.58
   2  -9  24   -1.83    6.78
  -2   9  24    7.28    6.43
   2  -9 -24  -10.73    9.24
   2  -9  24   -0.32    5.51
  -2  -9 -25   32.21   12.46
   2  -9 -25   48.19   14.71
  -2   9  25   28.57   14.16
  -2  -9  25   38.23   14.29
   2   9  25   32.95   11.16
   2  -9  25   48.88   13.60
  -2   9  25   35.42   13.15
   2  -9  25   42.44   16.15
   2   9  26    0.37    3.66
  -2  -9 -26   -3.23    4.03
  -2   9  26    4.72    6.60
   2  -9 -26    4.62    4.54
   2  -9  26   -1.61    7.09
   2  -9  26   -3.91    2.92
  -2  -9  26    3.02   11.31
  -2   9  26    1.93    3.32
   2 -10   0  115.38   19.51
  -2 -10   0   92.11   16.62
  -2 -10   0   77.73   14.36
   2 -10   0   84.39   15.03
  -2 -10   1    3.58    3.78
   2 -10  -1    9.18    6.73
  -2 -10   1   12.58    8.40
   2 -10   1    8.28    4.32
  -2 -10  -1   15.18    6.77
   2 -10  -1   14.98    6.69
   2 -10   1    4.44    3.92
  -2 -10  -1    9.22    6.40
   2 -10  -2    4.00    3.35
  -2 -10  -2    3.49    5.30
   2 -10   2    1.45    3.35
  -2 -10  -2   -0.97    5.71
   2 -10  -2    5.53    5.14
  -2 -10   2    6.42    7.09
   2 -10   2    1.13    5.76
  -2 -10   2    1.95    7.42
  -2 -10  -3   -5.96    4.78
  -2 -10   3   -0.02    2.79
   2 -10   3   -1.43    3.28
  -2 -10  -3    7.99    3.91
   2 -10  -3   -0.02    6.57
  -2 -10   3    6.79    6.98
   2 -10   3   -1.86    6.39
   2 -10  -3    9.43    2.97
   2 -10  -4   91.49   16.57
  -2 -10   4   84.57   16.47
   2 -10  -4   92.37   15.43
   2 -10   4   67.09   14.66
  -2 -10  -4   81.64   15.03
  -2 -10   4   86.62   15.65
   2 -10   4   99.38   17.32
  -2 -10  -4  101.35   16.05
  -2 -10   5   19.30    7.11
  -2 -10  -5   33.77   10.32
   2 -10   5   17.15    7.71
   2 -10  -5   29.66    9.68
  -2 -10   5   15.49    7.28
   2 -10   5   20.48    8.17
  -2 -10  -5   22.38    8.89
   2 -10  -5   27.45    8.29
  -2  10   5   27.82    8.43
   2 -10   6  129.55   19.56
   2 -10  -6  165.08   22.14
  -2 -10   6  142.20   19.32
  -2 -10  -6  139.58   19.90
   2 -10  -6  126.87   19.00
  -2 -10  -6  149.65   19.62
  -2  10   6  145.63   19.53
   2 -10   6  121.28   19.24
  -2 -10   6  127.72   18.98
   2 -10  -7    3.83    3.53
  -2 -10   7   -0.04    4.63
   2 -10   7    2.34    6.31
  -2 -10  -7    0.66    4.39
  -2 -10  -7   -0.77    3.28
   2 -10  -7   -0.56    5.12
  -2  10   7   -5.19    6.21
  -2 -10   7   -1.96    4.53
   2 -10   7   -2.11    3.53
  -2  10   8   16.61    9.20
  -2 -10   8   18.11    9.00
   2 -10   8    8.52    4.43
   2 -10  -8   13.08    6.06
  -2 -10  -8    1.23    2.51
   2 -10  -8    1.35    5.18
  -2 -10   8   13.10    6.86
   2 -10   8   13.70    2.31
  -2 -10   9    2.09    4.77
   2 -10   9   -0.93    2.64
   2 -10   9    2.89    4.00
   2 -10  -9   -3.04    5.97
   2 -10  -9    2.66    5.02
  -2 -10  -9   -3.88    4.01
  -2  10   9    2.49    3.24
  -2 -10   9    7.10    8.45
   2 -10  10    2.57    3.94
  -2 -10  10   -0.37    7.29
  -2 -10  10   -1.06    3.97
  -2  10  10   -0.12    3.75
   2 -10 -10   -0.98    4.80
   2 -10  10   -1.20    4.95
   2 -10 -10    1.88    4.84
  -2 -10 -10   -3.31    5.41
   2 -10  11  159.94   21.09
  -2 -10  11  119.21   20.03
   2 -10  11  136.81   20.51
  -2  10  11  133.11   19.67
  -2 -10 -11  139.51   20.92
   2 -10 -11  126.11   19.73
   2  10  11  136.17   20.39
  -2 -10  11  149.77   19.57
   2 -10  12   95.18   16.79
  -2 -10  12   74.17   15.68
   2 -10  12   74.79   15.31
  -2 -10 -12   74.82   15.49
  -2  10  12   98.79   18.17
   2 -10 -12  103.21   18.25
   2  10  12  108.46   18.40
  -2 -10  12  103.03   16.66
  -2  10  13    1.93    6.82
   2 -10  13    2.97    4.00
  -2 -10  13   13.29    7.92
   2 -10  13    7.46    2.04
   2  10  13    6.77    6.44
   2 -10 -13   19.56    8.72
  -2 -10 -13   14.58    6.63
  -2 -10  13   13.19    8.11
  -2 -10 -14   35.04   11.07
   2 -10  14   38.57   13.21
   2 -10  14   38.89   10.02
  -2 -10  14   35.86    8.54
  -2 -10  14   39.82   12.74
   2 -10 -14   27.69   10.66
  -2  10  14   56.28   12.98
   2  10  14   64.51   14.24
  -2 -10 -15   82.39   16.65
  -2  10  15  112.55   19.77
   2 -10  15   75.85   16.13
  -2 -10  15   60.76   13.59
  -2 -10  15   46.81   13.06
  -2  10  15   73.25   14.02
   2 -10  15   73.92   15.82
   2 -10 -15   76.99   16.39
   2  10  15   64.77   13.76
  -2 -10  16   30.47    8.98
   2 -10  16   38.00   12.70
  -2  10  16   41.09   10.00
  -2  10  16   37.14   10.40
   2 -10  16    9.93    4.17
  -2 -10  16   49.82   11.77
  -2 -10 -16   19.96    7.21
   2 -10 -16   39.47    9.94
   2  10  16   37.88   10.59
  -2 -10  17    3.08    3.86
  -2 -10  17   13.42    9.76
   2 -10  17    5.87    4.50
   2 -10  17   -1.38    3.62
  -2 -10 -17    0.57    3.17
  -2  10  17   -2.27    5.54
   2  10  17   -0.79    5.72
   2 -10 -17    1.89    2.98
  -2  10  17    4.40    6.00
   2 -10  18   44.44   14.55
  -2 -10  18   29.11   10.41
  -2 -10 -18   59.13   13.82
   2 -10 -18   80.72   16.90
   2 -10  18   62.29   16.95
  -2  10  18   54.33   12.34
  -2  10  18   49.64   12.32
   2  10  18   51.94   11.91
  -2 -10  18   46.19   12.55
   2 -10  18   62.31   13.52
   2 -10  19   61.43   16.22
  -2 -10  19   40.98   11.79
  -2  10  19   69.27   15.74
  -2  10  19   61.71   15.20
  -2 -10 -19   67.05   16.27
   2 -10  19   85.35   17.46
   2 -10 -19   78.49   16.12
   2  10  19   71.12   15.03
  -2 -10  19   56.60   14.42
   2 -10  19   50.64   14.19
   2 -10  20    5.08    5.90
   2 -10  20    3.70    4.71
  -2 -10  20  -13.42    9.37
   2 -10 -20    6.84    6.04
  -2 -10 -20    8.40    4.62
  -2  10  20   -0.62    3.32
  -2  10  20   -0.47    3.13
  -2 -10  20  -10.10    3.13
   2  10  20    0.69    6.18
   2 -10  20    4.17    6.15
   2 -10  21   10.78    6.53
   2 -10  21   42.09   12.58
  -2 -10  21   37.78   16.18
  -2 -10 -21   18.15    9.65
  -2  10  21   29.22   11.07
   2 -10 -21   33.03   10.63
  -2  10  21   21.92    8.26
   2  10  21   56.61   15.12
   2 -10  21   28.96   12.38
  -2 -10 -22  138.19   22.97
   2 -10 -22  183.79   25.67
   2 -10  22  144.09   23.72
   2  10  22  150.68   23.06
  -2  10  22  154.12   26.03
  -2 -10  22   70.84   20.88
  -2  10  22  150.29   24.23
   2 -10  22  133.90   22.96
   2 -10  22  128.97   22.93
  -2 -10 -23    8.32    8.10
   2 -10 -23   25.24    6.77
  -2  10  23   17.92    9.09
  -2  10  23   27.46    8.18
   2 -10  23   31.45   11.75
   2  10  23   13.52    6.71
   2 -10  23   27.09    9.02
  -2 -10  23    1.20    7.24
   2  10  24   17.66    6.18
   2 -10 -24   -0.92    6.26
  -2 -10 -24   10.77    7.06
  -2  10  24    4.10    5.32
  -2  10  24   13.55    9.87
   2 -10  24    9.22    4.34
   2 -10  24   11.06    9.63
  -2 -10 -25   18.34    9.68
   2 -10 -25   13.21    5.43
   2 -10  25   -1.87    4.16
  -2  10  25   12.71   10.48
   2  10  25    4.24    4.64
   2 -10  25    7.47    6.70
   2 -11   0  389.12   35.71
  -2 -11   0  334.75   32.15
   2 -11   0  367.83   33.20
  -2 -11   0  306.81   29.73
   2 -11   1   31.74    9.07
   2 -11  -1   48.37   12.45
  -2 -11  -1   31.09   10.46
  -2 -11   1   30.39   10.90
   2 -11   1   21.65    7.02
  -2 -11  -1   34.89   11.49
   2 -11  -1   20.27    9.99
  -2 -11   1   38.34   11.40
   2 -11   2    8.71    8.04
  -2 -11   2   -1.93    3.93
   2 -11  -2    7.44    5.01
  -2 -11   2    1.03    3.65
   2 -11   2    0.21    5.00
  -2 -11  -2   -0.09    3.86
   2 -11  -2   -1.82    7.88
  -2 -11  -2   -1.32    4.83
  -2 -11   3   -3.83    5.70
   2 -11   3   24.78    9.10
  -2 -11  -3   13.06    4.75
  -2 -11   3    3.75    4.41
   2 -11  -3   15.17    8.55
   2 -11  -3   14.85    3.36
   2 -11   3    5.67    5.41
  -2 -11  -3    4.10    6.03
  -2 -11  -4  828.83   48.57
   2 -11   4  730.15   49.29
  -2 -11   4  885.56   53.32
   2 -11   4  788.24   49.50
  -2 -11  -4  846.17   51.20
   2 -11  -4  857.25   50.80
  -2 -11   4  802.50   49.46
   2 -11  -4  825.50   50.23
  -2 -11   5   40.60   11.41
   2 -11   5   28.45    8.14
  -2 -11   5   26.61    8.84
   2 -11   5   25.43    8.51
  -2 -11  -5   27.43    8.61
  -2 -11  -5   36.40   11.21
   2 -11  -5   40.02   11.15
   2 -11  -5   28.17   11.44
  -2 -11   6  154.19   22.31
   2 -11   6  143.47   22.12
  -2 -11  -6  184.57   24.18
   2 -11  -6  145.42   21.55
  -2 -11  -6  131.19   19.03
   2 -11   6  175.34   23.89
   2 -11  -6  178.97   23.55
  -2  11   6  183.55   23.06
  -2 -11   6  159.32   21.80
  -2 -11   7  242.59   28.70
   2 -11   7  296.08   30.45
  -2 -11  -7  262.05   28.29
   2 -11  -7  273.10   29.23
  -2 -11  -7  255.04   26.82
  -2  11   7  268.18   28.72
  -2 -11   7  260.59   27.95
   2 -11   7  292.00   30.75
   2 -11  -7  294.08   29.88
   2 -11  -8   27.91    9.09
  -2 -11   8   30.16   11.47
   2 -11   8   23.05    9.81
   2 -11   8   12.89    8.20
  -2 -11  -8   22.55    9.65
  -2 -11  -8    7.43    4.93
   2 -11  -8    6.92    7.21
  -2  11   8   10.56    5.12
  -2 -11   8   22.73    8.66
  -2  11   9   73.71   15.45
   2 -11   9   58.45   13.96
   2 -11  -9   81.36   16.54
  -2 -11   9   64.37   13.68
  -2 -11  -9   67.86   15.69
  -2 -11  -9   86.25   16.50
   2 -11  -9   80.30   16.10
  -2 -11   9   63.56   14.18
   2 -11   9   61.71   14.90
  -2 -11  10  346.77   33.93
   2 -11  10  338.04   32.57
   2 -11  10  340.56   31.84
  -2  11  10  357.88   32.41
   2 -11 -10  331.96   32.57
   2 -11 -10  380.84   34.00
  -2 -11 -10  359.92   35.05
  -2 -11  10  316.03   30.05
  -2 -11  11   -1.75    3.09
   2 -11  11   -1.14    6.45
  -2  11  11    6.08    5.03
  -2 -11  11   16.96    8.56
   2 -11 -11    6.12    7.09
   2 -11  11   -1.38    3.36
  -2 -11 -11    0.83    4.93
   2 -11 -11    5.15    4.20
  -2 -11  12   73.67   16.92
   2 -11  12   97.22   17.72
  -2 -11  12   66.12   14.26
   2 -11  12   82.55   15.08
   2 -11 -12   67.26   14.77
   2 -11 -12   74.42   15.84
  -2 -11 -12   63.67   15.86
  -2  11  12   52.23   13.48
  -2 -11  13   52.48   13.52
  -2 -11  13   49.52   11.63
   2 -11  13   39.36   12.44
   2  11  13   61.31   14.11
  -2  11  13   43.99   10.73
   2 -11 -13   44.35   12.40
   2 -11  13   51.94   12.48
  -2 -11 -13   43.55   13.77
  -2 -11  14  131.45   21.32
   2 -11  14  161.41   23.74
  -2 -11 -14  117.01   20.50
  -2 -11  14  130.66   20.50
  -2  11  14  111.04   19.51
   2 -11 -14   86.17   15.79
   2  11  14  130.58   21.65
   2 -11  14  123.16   19.88
   2 -11  15    4.86    2.85
  -2 -11  15   34.64   11.24
  -2 -11  15   19.12   10.54
   2 -11  15   13.24    5.89
  -2  11  15   18.30    9.08
   2  11  15   11.59    7.40
  -2 -11 -15   28.84   11.53
   2 -11 -15   28.50    9.70
   2 -11  16   43.11   12.40
  -2 -11  16   78.19   16.17
  -2 -11 -16   51.13   14.46
  -2 -11  16   80.11   17.72
  -2  11  16   55.39   14.91
   2 -11  16   61.49   14.42
   2 -11 -16   43.15   11.70
   2  11  16   59.47   14.87
   2  11  17    4.97    6.52
   2 -11  17   12.99    7.94
  -2 -11  17    2.23    5.15
   2 -11  17    1.60    5.02
  -2 -11 -17    2.64    3.78
   2 -11  17   18.36    8.30
   2 -11 -17   12.86    6.68
   2 -11  18   35.53   12.63
  -2 -11  18   20.67    7.23
   2 -11 -18   56.76   16.08
   2 -11  18   64.89   16.33
   2 -11  18   59.63   14.87
  -2 -11 -18   44.76   11.89
  -2  11  18   66.21   16.40
   2  11  18   50.78   13.58
   2 -11  19    7.68    8.55
  -2 -11  19   -3.44    4.33
   2 -11  19   13.90    5.69
   2 -11 -19    8.25    8.14
  -2 -11 -19   -2.87    8.13
  -2  11  19    1.87    5.11
   2  11  19   -3.37    8.15
   2 -11  19    5.06    6.73
   2 -11  20    0.09    6.01
  -2 -11  20   17.21    8.97
   2 -11  20    4.47    5.70
  -2 -11 -20   13.40   10.17
   2 -11 -20    7.24    5.13
  -2  11  20   14.53    4.47
   2  11  20   19.66   11.45
   2 -11  20   13.31    7.45
   2 -11  21   16.14    9.40
   2  11  21   22.33   11.49
  -2 -11  21   11.18    9.28
  -2 -11 -21   -0.12    4.74
  -2  11  21    0.61    4.53
   2 -11 -21   25.16   10.82
   2 -11  21   18.54    8.58
   2 -11  21    8.71    9.94
   2 -11  22  -14.95   10.82
  -2 -11  22   13.02   11.37
  -2 -11 -22   -1.67    8.61
   2 -11  22   10.65    7.15
   2 -11  22   14.10    9.87
   2 -11 -22    8.86    6.60
  -2  11  22   12.51    8.16
   2  11  22   -0.54    4.37
   2 -11 -23    8.69   10.31
   2 -11  23   21.85    8.25
   2 -11  23   13.28   10.09
  -2  11  23   11.56    7.27
   2  11  23   44.07   13.15
  -2 -11 -23   23.83   10.43
   2 -11  23   22.45   10.49
  -2 -11  23   10.51    8.71
  -2 -12   0   93.29   18.30
   2 -12   0   82.40   16.99
   2 -12   0   97.42   20.00
  -2 -12   0  100.95   18.12
  -2 -12  -1   25.52    8.91
  -2 -12   1   38.59   12.30
   2 -12   1   23.53    9.21
  -2 -12  -1   36.56    9.92
  -2 -12   1   34.44   12.42
   2 -12   1   19.11    5.21
   2 -12  -1   29.65   11.24
   2 -12  -1   25.54    7.45
   2 -12  -2   45.03   12.52
  -2 -12  -2   29.77   10.71
  -2 -12   2   40.00   12.37
   2 -12   2   12.67    8.01
  -2 -12  -2   32.44   11.63
   2 -12  -2   25.40    9.99
  -2 -12   2   10.66    6.26
   2 -12   2    7.49    6.91
  -2 -12   3   32.85   13.15
  -2 -12   3   32.97   11.99
  -2 -12  -3   24.74   11.47
   2 -12  -3   19.75    9.16
   2 -12   3   28.33   10.26
  -2 -12  -3   32.74   12.22
   2 -12   3   18.36    9.05
   2 -12  -3   33.01    7.23
  -2 -12   4   12.97    5.89
  -2 -12   4   28.86   12.46
   2 -12   4   16.26    6.23
   2 -12   4    3.65    4.79
  -2 -12  -4   18.56    8.43
   2 -12  -4   18.33    9.57
   2 -12  -4   24.49   12.59
  -2 -12  -4    9.39    4.74
  -2 -12   5   12.82    7.29
   2 -12   5   15.20    7.42
  -2 -12  -5   10.47    4.89
   2 -12  -5    9.53    7.38
   2 -12  -5   14.36   10.37
  -2 -12  -5   -5.20    3.73
  -2 -12   5    4.64    4.61
   2 -12   6    2.71    2.98
  -2 -12   6    1.46    4.30
  -2 -12  -6    2.80    4.62
  -2 -12  -6    4.10    5.71
   2 -12  -6    0.20    3.91
   2 -12  -6   -4.49    6.18
  -2 -12   6    7.68    6.38
   2 -12   6   -3.77    3.14
  -2 -12   7    5.87    2.75
   2 -12   7    9.74    4.48
  -2 -12   7   10.08    7.04
  -2 -12  -7   -1.53    5.36
   2 -12  -7    6.27    7.29
  -2 -12  -7    5.55    5.11
   2 -12  -7    2.25    4.60
   2 -12   7   11.86    6.72
  -2 -12  -8   18.66    9.10
  -2 -12   8   16.35    6.04
   2 -12   8   23.85   10.89
   2 -12   8   24.02    9.99
   2 -12  -8    8.10    5.65
  -2 -12  -8   12.83    5.72
   2 -12  -8   10.80    7.78
  -2 -12   8    7.91    7.61
  -2 -12   9   61.67   12.93
  -2 -12   9   39.16   12.35
   2 -12   9   29.71   10.76
  -2 -12  -9   50.36   13.56
  -2 -12  -9   36.35   10.99
   2 -12  -9   62.46   15.03
   2 -12  -9   44.69   11.95
   2 -12   9   44.13   12.70
   2 -12  10    5.83    6.06
  -2 -12  10   -1.29    3.15
   2 -12  10    0.29    7.42
  -2 -12  10    1.64    5.19
  -2 -12 -10   -0.03    5.07
  -2 -12 -10    2.27    6.37
   2 -12 -10   -0.96    7.54
   2 -12 -10    4.53    5.73
  -2 -12  11   35.61   12.47
   2 -12  11   32.22   10.25
   2 -12 -11   43.98   12.72
  -2 -12 -11   63.54   14.40
  -2 -12  11   41.86   12.90
  -2 -12 -11   29.16    8.33
   2 -12 -11   37.26   10.11
   2 -12  11   44.83   12.83
  -2 -12  12   12.17    6.52
   2 -12  12    8.12    9.72
  -2 -12  12   42.93   13.52
  -2 -12 -12   28.12    9.32
   2 -12  12    7.33    7.98
   2 -12 -12   12.32    7.58
   2 -12 -12   30.51   11.36
   2 -12 -13    4.34    3.65
  -2 -12  13    3.93    4.12
   2 -12  13    3.11    5.69
   2 -12 -13    1.12    4.72
   2 -12  13    2.85    5.96
  -2 -12 -13   -3.16    6.60
   2 -12  14   13.94    9.18
  -2 -12  14   17.25    9.13
   2 -12 -14   12.11    7.63
   2 -12  14   12.59    9.28
  -2 -12 -14    4.77    6.70
   2 -12 -14   16.81   10.06
   2 -12  15   18.82    8.32
  -2 -12  15   13.18    7.50
   2 -12 -15   11.74    6.52
   2 -12  15   13.90    7.60
  -2 -12 -15   13.26    4.85
   2 -12 -15   30.45   11.08
   2 -12  16   14.72    7.60
  -2 -12  16    3.25    3.92
   2 -12  16   17.86    8.55
  -2 -12 -16   -2.88    6.84
   2  12  16    1.69    5.33
   2 -12 -16    0.44    6.45
   2 -12  17    4.82    4.56
  -2 -12  17    2.49    4.25
   2 -12  17    5.03    4.91
   2  12  17   -1.66    5.02
   2 -12 -17    7.97    5.46
   2 -12  17   -2.36    4.46
  -2 -12 -17    4.79    3.55
   2 -12  18    8.71    3.97
  -2 -12  18   17.01    9.44
   2 -12  18    8.43    7.30
  -2 -12 -18   21.68    8.30
   2 -12 -18   30.85   13.48
   2  12  18   26.45   12.91
   2 -12  18   10.79    4.00
   2 -12  19   23.32   10.95
  -2 -12  19   25.45    8.65
   2 -12 -19   23.79    8.48
  -2 -12 -19   17.90    6.71
   2 -12  19   51.30   13.15
   2  12  19    7.79    7.45
   2 -12  19   29.74   12.38
  -2 -12  20    0.20    6.52
   2 -12  20    3.42    6.75
   2 -12 -20    3.13    5.63
   2  12  20   -7.36    6.24
   2 -12  20    0.36    6.42
   2 -12  20    5.44    6.25
  -2 -12 -20    4.22   10.25
  -2 -12  21    8.41    4.19
  -2 -12 -21    2.61    7.68
   2 -12  21   22.51    9.87
   2 -12  21   17.67    5.26
   2 -12 -21   -3.88    5.65
   2  12  21   -0.49    5.40
   2 -12  21   -0.13    6.11
   2 -13   0  312.28   33.47
  -2 -13   0  301.50   33.45
   2 -13   0  331.14   34.45
  -2 -13   0  294.49   32.59
  -2 -13   1   70.03   15.87
   2 -13   1   72.96   17.20
  -2 -13  -1   83.99   17.87
   2 -13  -1   62.56   14.57
  -2 -13   1   67.42   17.18
   2 -13   1   31.95   10.79
   2 -13  -1   63.97   16.74
  -2 -13  -1   68.53   14.63
   2 -13  -2    2.89    5.40
  -2 -13  -2   15.19    8.76
  -2 -13   2   13.58    9.16
   2 -13   2   15.81    9.57
   2 -13  -2    0.63    2.98
  -2 -13   2    3.66    6.93
   2 -13   2   23.07    8.19
  -2 -13  -2   12.20    7.44
   2 -13  -3   17.07    7.50
  -2 -13   3   15.57    7.25
  -2 -13   3   12.34    6.12
   2 -13   3    2.46    4.37
   2 -13   3    7.46    5.67
  -2 -13  -3    4.32    4.10
   2 -13  -3    8.91    7.79
  -2 -13  -3   13.51    7.29
   2 -13   4   46.36   14.11
  -2 -13  -4   50.05   13.40
  -2 -13   4   40.24    9.33
  -2 -13   4   40.79   14.37
   2 -13  -4   51.88   13.74
   2 -13   4   49.31   15.48
   2 -13  -4   46.01   12.66
  -2 -13  -4   49.55   13.11
  -2 -13   5   -0.22    6.82
   2 -13   5   10.39    7.86
  -2 -13   5    7.05    7.13
   2 -13   5    7.48    4.07
  -2 -13  -5   10.10    8.92
   2 -13  -5   -0.03    5.82
   2 -13  -5   10.94    8.74
  -2 -13  -5    7.79    3.48
   2 -13   6   45.17   12.29
  -2 -13   6   29.05   10.33
   2 -13   6   46.61   14.32
  -2 -13  -6   37.71   11.07
   2 -13  -6   37.22   13.53
   2 -13  -6   47.62   12.31
  -2 -13  -6   25.11    9.42
  -2 -13   6   37.80   11.60
  -2 -13   7  184.23   26.75
  -2 -13  -7  178.51   24.97
   2 -13   7  129.67   20.69
  -2 -13   7  176.38   25.47
   2 -13   7  200.24   27.75
  -2 -13  -7  183.85   25.88
   2 -13  -7  172.77   23.90
   2 -13  -7  135.57   22.36
  -2 -13   8    2.22    7.88
   2 -13   8    2.49    3.62
  -2 -13   8    6.32    9.55
  -2 -13  -8   -1.62    5.99
  -2 -13  -8    8.59    6.92
   2 -13  -8   -7.97    4.92
   2 -13   8   -4.36    5.09
   2 -13  -8    5.40    6.95
   2 -13  -9   73.63   16.54
  -2 -13   9   64.14   15.83
  -2 -13  -9   64.87   14.43
  -2 -13  -9   46.62   12.93
   2 -13  -9   52.87   14.89
   2 -13   9   52.69   14.02
   2 -13   9   74.12   18.35
   2 -13  10   17.29    8.58
  -2 -13  10   25.83   10.54
  -2 -13 -10   24.80   11.13
   2 -13  10   27.36   11.94
   2 -13 -10   38.86   12.56
  -2 -13 -10   14.22    3.84
   2 -13 -10   23.79    9.03
  -2 -13  11   67.81   15.53
  -2 -13 -11   92.29   19.79
  -2 -13 -11   63.50   17.85
   2 -13 -11   54.82   16.24
   2 -13 -11   81.49   16.21
   2 -13  11   64.34   14.48
   2 -13  11   55.94   14.10
  -2 -13 -12   23.95    9.76
  -2 -13  12   31.54   12.58
   2 -13  12    8.69    4.80
  -2 -13 -12   21.11    8.46
   2 -13 -12   13.30    9.20
   2 -13  12   27.55   11.19
   2 -13 -12    5.09    6.57
   2 -13  13   -9.70    8.08
  -2 -13  13   12.83    9.01
   2 -13 -13   -6.04    6.26
  -2 -13 -13   -2.92    2.92
   2 -13  13   11.02    6.20
  -2 -13 -13    1.63    4.01
   2 -13 -13    8.91   10.71
  -2 -13  14   -6.07    9.12
   2 -13  14    1.00    5.01
   2 -13  14    8.83    7.65
  -2 -13 -14    0.72    6.55
   2 -13 -14   11.98    5.46
   2 -13 -14    5.15    4.56
   2 -13 -15   54.18   13.92
   2 -13  15   46.86   14.01
   2 -13  15   36.95   11.12
  -2 -13 -15   31.44   11.00
   2 -13 -15   39.07   11.35
  -2 -13  15   43.43   13.11
   2 -13  16    4.00    4.58
  -2 -13  16    5.08    6.25
   2 -13  16    8.34    4.39
   2 -13 -16    1.39    4.67
  -2 -13 -16   -6.80    3.43
   2 -13  17   28.51   12.77
  -2 -13  17   28.35   10.22
   2 -13 -17   18.41    6.40
   2 -13 -17   34.82   11.66
   2 -13  17   -3.71    3.27
  -2 -13 -17   15.06    7.90
   2 -13  18   -3.12    7.90
  -2 -13  18    3.45    8.59
   2 -13  18    1.25    6.74
   2 -13 -18   -4.79    6.40
   2 -13 -18    1.81    4.04
  -2 -13 -18    6.77    6.66
   2 -13  19    3.25    7.62
   2 -13  19   13.32    9.78
   2 -13 -19   11.27   10.35
  -2 -13 -19   10.53    8.57
  -2 -13  19    8.11    5.02
   2 -14   0   73.93   17.11
  -2 -14   0   70.82   15.33
   2 -14   0   83.25   18.15
  -2 -14   0  105.21   19.32
  -2 -14   1    3.33    6.92
   2 -14   1    8.42    9.41
  -2 -14  -1    1.00    2.78
   2 -14  -1    5.22    6.83
  -2 -14  -1   10.58    9.68
  -2 -14   1   22.11    9.29
   2 -14   1    6.86    8.57
   2 -14  -1    3.57    4.26
  -2 -14   2   -2.54    7.39
  -2 -14   2    9.60   11.00
  -2 -14  -2   -4.90    9.36
   2 -14  -2   -3.36    4.50
   2 -14   2    4.01    4.63
   2 -14   2    5.76    6.73
   2 -14  -2  -12.84    3.54
  -2 -14  -2    0.49    3.49
  -2 -14   3   40.70   16.36
  -2 -14   3   56.54   13.83
   2 -14   3   34.24   12.39
   2 -14   3   51.75   15.63
  -2 -14  -3   57.26   16.41
   2 -14  -3   58.23   15.24
  -2 -14  -3   46.63   13.50
   2 -14  -3   69.69   16.46
   2 -14   4    4.15    2.97
  -2 -14  -4   24.42   10.70
   2 -14  -4   10.47    6.36
  -2 -14   4   31.18   13.72
   2 -14   4   19.97    8.78
  -2 -14  -4    8.26    4.64
   2 -14  -4   22.14    7.94
   2 -14   5   12.52   10.94
  -2 -14  -5   -2.56    3.60
   2 -14  -5   -1.29    3.66
  -2 -14   5    6.73    8.41
   2 -14   5   -1.14    4.65
  -2 -14  -5    3.20    7.72
   2 -14  -5    2.23    5.11
  -2 -14   6   -3.89    3.27
   2 -14   6   -6.02    6.90
   2 -14  -6    4.99    3.88
  -2 -14  -6    9.19    8.83
   2 -14  -6   -0.92    6.63
  -2 -14  -6   12.96    9.04
   2 -14   6    5.79    8.32
  -2 -14  -7   44.41   12.43
   2 -14  -7   46.86   14.21
  -2 -14   7   32.12    8.82
   2 -14   7   68.62   18.13
  -2 -14  -7   46.70   12.95
   2 -14  -7   43.50   15.01
   2 -14   7   39.29   12.85
   2 -14   8    0.17    3.79
  -2 -14  -8    3.06    4.00
   2 -14  -8   12.21    7.87
   2 -14  -8    8.06    5.07
  -2 -14  -8    8.66    3.43
   2 -14   8    5.84    5.92
   2 -14   9   15.02   11.51
  -2 -14  -9   -2.93    3.61
  -2 -14   9   -0.35    2.94
  -2 -14  -9   -3.31    4.27
   2 -14  -9    4.46    7.18
   2 -14   9   10.49    7.92
   2 -14  -9   15.24    8.11
   2 -14 -10   -0.26    4.60
  -2 -14  10   -2.14    3.25
   2 -14  10   -1.50    5.12
  -2 -14 -10   -4.91    6.23
  -2 -14 -10    0.15    4.85
   2 -14 -10  -13.92    9.04
   2 -14  10    0.78    5.55
  -2 -14  11    5.81    7.36
   2 -14 -11   -6.04    8.81
   2 -14  11  -10.05    8.71
   2 -14 -11    3.56    5.38
   2 -14  11  -10.58    9.71
  -2 -14 -11   18.87    8.72
  -2 -14 -11   -1.34    6.72
  -2 -14  12    1.38    2.89
   2 -14  12   16.35   11.21
   2 -14 -12   10.64    8.65
  -2 -14 -12    9.86    7.73
   2 -14 -12    9.80    7.91
   2 -14  12   11.64    5.36
  -2 -14 -12   12.52    6.25
  -2 -14  13   38.25   13.49
   2 -14  13   27.91   10.65
  -2 -14 -13   35.36   12.12
  -2 -14 -13   29.38   13.68
   2 -14  13   31.19   10.26
   2 -14 -13   17.85    6.92
   2 -14 -13   44.30   13.85
   2 -14  14   20.04   10.37
   2 -14  14   20.46    8.71
  -2 -14 -14   16.99   10.07
   2 -14 -14    8.37    3.13
  -2 -14  14    7.66    7.48
   2 -14 -14    7.88    8.47
  -2 -14 -14    8.97    6.91
   2 -14  15    8.19    8.85
  -2 -14 -15   10.97    3.44
   2 -14  15   -2.66    6.22
  -2 -14 -15   -1.04    6.50
   2 -14 -15    4.45    9.29
  -2 -14  15   -6.87    4.17
   2 -14 -15   -3.34    6.55
   2 -14  16    4.15    3.12
   2 -14  16    2.18    5.97
  -2 -14  16   -6.94    4.10
  -2 -14 -16   -0.19    3.87
   2 -14 -16    4.41    6.12
  -2 -14 -16   -6.01    9.20
   2 -14 -16    3.16    4.25
  -2 -15   0   49.29   14.82
   2 -15   0   44.10   15.61
   2 -15   0   35.70   14.94
  -2 -15   1   12.26    6.18
   2 -15   1   14.68    8.76
  -2 -15  -1   11.24    8.08
   2 -15  -1    9.51    7.51
   2 -15   1   17.11   11.35
   2 -15  -1    3.44    6.20
  -2 -15   2   23.38   12.03
   2 -15   2   23.20    6.15
   2 -15   2    8.78    9.52
  -2 -15  -2   17.51    9.98
   2 -15  -2   21.14    7.42
   2 -15  -2   25.83   11.96
  -2 -15  -2  -11.54    7.05
   2 -15   3   57.59   16.84
   2 -15  -3   69.45   15.77
  -2 -15   3   79.20   18.35
   2 -15   3   43.77   14.81
  -2 -15  -3   48.93   14.53
   2 -15  -3   62.52   16.01
  -2 -15  -4   85.63   21.24
   2 -15   4   83.67   19.90
  -2 -15   4  116.78   21.06
  -2 -15  -4  114.23   22.39
   2 -15   4   96.50   19.28
   2 -15  -4   90.98   19.88
   2 -15  -4   79.92   20.03
  -2 -15   5    7.88    4.86
   2 -15  -5    0.60    5.33
  -2 -15  -5   -7.78   10.14
  -2 -15  -5   -7.21    9.99
   2 -15  -5   -6.53    6.91
   2 -15   5   18.94   10.33
   2 -15   5    0.03    7.36
   2 -15  -6   24.87   11.96
  -2 -15   6   30.90   11.33
   2 -15   6   29.61   10.26
  -2 -15  -6   55.52   13.24
  -2 -15  -6   46.06   14.49
   2 -15  -6   38.28   13.25
   2 -15   6   36.13   13.88
  -2 -15   7   37.26   13.78
   2 -15   7   67.29   16.97
   2 -15  -7   41.28   12.39
   2 -15   7   70.14   18.03
  -2 -15  -7   53.49   14.29
   2 -15  -7   41.37   14.43
  -2 -15  -7   41.61   14.16
   2 -15   8  127.27   23.73
   2 -15   8  151.23   24.30
  -2 -15  -8  144.58   24.22
   2 -15  -8  128.19   22.43
  -2 -15  -8  130.97   22.82
  -2 -15   8  147.70   24.75
   2 -15  -8  194.84   28.48
  -2 -15   9   -7.42    6.22
   2 -15   9    1.86    5.53
   2 -15   9   17.43    9.07
  -2 -15  -9   15.96    7.66
   2 -15  -9   13.50   11.83
   2 -15  -9    7.79    5.57
  -2 -15  -9   -3.37    7.43
  -2 -15 -10   34.08   12.42
  -2 -15  10   31.28   12.66
   2 -15  10   34.80   14.64
   2 -15  10   43.07   15.75
  -2 -15 -10   17.87   11.74
   2 -15 -10   25.10   10.56
   2 -15 -10   39.64   12.42
  -2 -15 -11    3.09    4.90
  -2 -15  11    5.26    3.65
   2 -15  11    1.82    4.82
  -2 -15 -11    4.00    7.97
   2 -15 -11    2.85    5.39
   2 -15 -11   11.49    8.34
   2 -15  11   -6.78    4.81
   2 -15  12    1.87    6.33
  -2 -15 -12   -3.69    4.57
  -2 -15 -12   12.60    6.15
   2 -15 -12   17.75    8.82
   2 -15  12   34.98   11.46
  -2 -15  12   35.98   12.18
   2 -15 -12   21.25    8.95
  -2 -16   0   51.06   14.52
   2 -16   0   43.73   13.34
   2 -16   0   41.09   14.80
   2 -16   1   -1.55    5.12
  -2 -16   1   -3.74    4.63
  -2 -16  -1    3.30    4.13
   2 -16   1    2.26    3.52
   2 -16  -1    4.03    6.35
   2 -16  -1    0.71    7.37
   2 -16   2   -0.90    4.60
  -2 -16   2    2.70    4.99
   2 -16   2    2.72    5.43
  -2 -16  -2   -1.13    5.99
   2 -16  -2    9.59    8.32
   2 -16  -2   14.14   11.17
   2 -16   3   -3.93    3.80
   2 -16  -3    4.33    3.34
  -2 -16   3   -0.34    6.48
   2 -16   3   -7.19    5.98
  -2 -16  -3    3.19    6.79
   2 -16  -3   12.54    8.04
   2 -16  -4   13.87    8.85
   2 -16   4   33.12   11.43
   2 -16   4   10.22    7.61
  -2 -16  -4    3.24    6.08
   2 -16  -4    9.77    7.10
  -2 -16   4   21.88    8.66
  -2 -16   5   -3.19    7.81
   2 -16   5    7.64    8.54
  -2 -16  -5   17.40    9.46
   2 -16  -5    6.58    3.55
   2 -16   5   -0.42    3.98
   2 -16  -5    0.17    9.26
   2 -16  -6   17.25   11.22
  -2 -16   6   26.95    8.81
   2 -16   6   13.26    3.95
   2 -16  -6    0.69    6.16
   2 -16   6   17.95   10.87
  -2 -16  -6   28.42   12.24
  -3   0   0   -0.30    1.78
   3   0   0   -0.55    0.65
  -3   0  -1   -1.28    2.41
   3   0   1   -0.19    0.67
   3   0  -1   -0.61    0.68
   3   0  -2  972.36   20.93
  -3   0   2  854.17   28.68
   3   0   3   -0.21    1.20
  -3   0   3   -1.28    1.59
   3   0   4   19.45    3.78
  -3   0   4   18.99    5.96
  -3   0   4   30.19    4.20
  -3   0   5    1.58    3.84
   3   0   5    2.27    2.27
  -3   0   5    0.17    1.00
   3   0   6   67.70    8.25
  -3   0   6   43.54    7.46
  -3   0   6   61.63    6.84
  -3   0   7    0.91    0.90
  -3   0   7    0.94    2.66
   3   0   7    0.51    2.52
  -3   0   8   19.10    4.42
  -3   0   8   21.73    5.35
   3   0   8   13.60    3.39
   3   0   9   -0.74    1.55
  -3   0   9    2.01    3.21
  -3   0   9    0.98    2.64
  -3   0  10  129.72   15.05
   3   0  10  160.00   15.98
  -3   0  10  170.69   14.71
  -3   0  11    0.73    1.99
   3   0  11   -1.50    1.92
  -3   0  11    0.44    2.08
  -3   0  12    5.70    5.21
  -3   0  12    8.25    4.08
   3   0  12   20.74    6.00
  -3   0  13   -0.10    3.55
   3   0  13    0.37    2.69
  -3   0  13   -1.38    2.44
  -3   0  14   11.44    5.05
   3   0  14   -0.16    4.21
  -3   0  14    2.66    5.46
   3   0  14    3.45    5.39
   3   0  15    0.90    2.83
  -3   0  15    0.07    3.65
  -3   0  15   -3.78    3.44
   3   0  15    4.77    5.25
   3   0  16    5.84    4.02
  -3   0  16    4.26    4.12
  -3   0  16    7.76    4.25
   3   0  16    1.65    3.15
  -3   0  17    0.16    2.02
   3   0  17   -3.02    5.70
  -3   0  17    3.45    6.83
   3   0  17    1.42    4.75
  -3   0  18  660.49   38.56
   3   0  18  743.15   42.86
   3   0  18  717.24   42.84
  -3   0  18  683.71   42.45
  -3   0  19    4.56    6.04
   3   0  19   -3.12    3.18
  -3   0  19    1.06    4.92
   3   0  19    2.54    3.96
   3   0  20   -0.48    3.58
  -3   0  20   -0.61    4.24
  -3   0  20   -0.76    3.72
   3   0  20   -3.58    3.36
  -3   0  21    2.92    4.14
   3   0  21    3.91    2.85
  -3   0  21    0.81    3.62
   3   0  21    0.56    5.50
  -3   0  22    7.99    5.41
   3   0  22    5.34    4.93
  -3   0  22    0.59    5.52
   3   0  22   13.31    5.95
   3   0  23    1.23    6.45
  -3   0  23   -0.43    4.56
   3   0  23    0.02    3.27
  -3   0  23    3.23    4.65
  -3   0  24    1.55    4.30
   3   0  24   11.43    6.25
  -3   0  24   18.57    9.03
   3   0  24    7.01    6.22
  -3   0  25    2.37    5.35
   3   0  25    1.43    5.99
  -3   0  25    3.49    3.96
   3   0  25   -1.47    4.13
  -3   0  26   26.62   10.14
   3   0  26   55.55   16.47
   3   0  26   46.29   13.74
  -3   0  26   24.40    9.34
  -3   0  27    3.49    5.98
  -3   0  27    8.04    4.36
   3   0  27    3.91    6.80
   3   0  27   -2.16    6.00
  -3   0  28   -2.64    4.52
   3   0  28    6.08    6.76
   3   0  28   -1.90    5.57
  -3   0  28    0.03    3.45
  -3   0  29   -1.03    7.29
   3   0  29    4.13    8.34
  -3   0  29    4.14    7.97
   3   0  29    5.47    4.63
  -3   0  30   11.21    9.51
   3   0  30   30.76   13.96
  -3   0  30   28.49   12.45
   3   0  30   18.44   10.95
   3   0  31    8.40   10.68
   3   0  31    0.09    7.24
  -3   0  31    3.66    6.30
  -3   0  31   -4.97    6.24
   3  -1   0    0.11    1.85
  -3   1   0   -0.44    1.50
  -3  -1   0   -0.08    1.02
  -3  -1   0    0.26    1.52
  -3  -1   1  951.14   22.38
  -3  -1  -1  861.27   19.35
   3  -1   1  827.55   25.81
  -3   1   1  879.30   31.48
  -3   1  -1  835.15   30.64
  -3  -1  -1  825.07   26.06
  -3  -1   1  741.63   24.58
   3  -1  -1  877.39   25.40
   3  -1   2 1779.50   38.41
   3  -1  -2 1723.99   35.11
  -3  -1  -2 1684.20   26.64
  -3  -1   2 1599.37   31.84
  -3  -1   2 1855.59   39.24
  -3   1   2 1834.78   44.52
  -3  -1   3 3699.47   52.06
  -3  -1  -3 3527.03   39.79
  -3  -1   3 3248.49   55.75
  -3   1   3 3407.52   61.42
   3  -1   3 3511.76   55.58
  -3  -1   4    9.73    1.88
  -3  -1   4   11.89    3.50
  -3  -1  -4    6.68    2.13
   3  -1   4   14.05    4.19
  -3  -1   4   13.32    4.06
  -3   1   4   12.64    4.11
  -3   1   4    9.00    1.88
   3   1   4    8.53    2.87
   3   1   5  458.26   20.55
  -3   1   5  566.50   26.72
   3  -1   5  586.81   24.56
  -3  -1   5  524.61   23.76
  -3  -1  -5  578.95   19.41
  -3   1   5  525.87   21.29
  -3  -1   5  490.89   15.75
   3   1   6 1968.02   45.04
  -3   1   6 2109.40   52.74
  -3  -1   6 2179.97   51.24
  -3  -1   6 2100.14   36.94
  -3   1   6 2286.43   46.53
   3  -1   6 2046.78   48.67
  -3  -1   7  320.04   15.62
   3   1   7  280.85   18.00
   3  -1   7  339.75   20.63
  -3   1   7  282.53   20.09
  -3  -1   7  324.21   20.83
  -3   1   7  319.14   17.76
  -3  -1   8  877.58   27.99
  -3  -1   8  864.38   35.15
   3  -1   8  954.12   36.19
  -3   1   8  833.38   35.91
  -3   1   8  890.78   31.48
  -3  -1   9  344.00   23.51
  -3  -1   9  335.18   18.77
   3   1   9  343.26   22.38
   3  -1   9  358.24   22.94
  -3   1   9  347.18   23.91
  -3   1   9  367.13   21.34
  -3  -1  10  970.30   33.73
   3  -1  10  977.23   39.40
  -3   1  10 1011.31   42.11
  -3  -1  10  921.93   39.99
  -3   1  10  979.17   36.54
  -3   1  11    3.96    1.23
  -3  -1  11    2.76    2.94
   3   1  11    1.69    1.88
  -3   1  11    3.48    3.40
  -3  -1  11    2.19    2.96
   3  -1  11   -0.79    2.32
  -3  -1  12 1899.96   53.01
   3   1  12 1866.90   58.01
  -3  -1  12 1718.28   56.90
   3  -1  12 1815.60   59.06
   3   1  12 1816.54   55.98
  -3   1  12 1922.58   55.79
  -3   1  12 1866.08   61.56
  -3  -1  13  463.52   27.24
   3   1  13  529.08   31.89
   3  -1  13  497.46   31.03
  -3   1  13  449.35   30.98
  -3  -1  13  539.33   33.07
  -3   1  13  489.43   29.27
  -3   1  14   27.27    6.31
  -3  -1  14   35.61    7.08
   3   1  14   30.76    8.22
   3  -1  14   27.66    7.92
  -3   1  14   25.55    7.75
  -3  -1  14   32.00    6.88
   3   1  14   29.96    8.14
  -3  -1  15  102.54   13.89
   3   1  15   92.23   14.18
   3  -1  15  109.68   14.90
  -3   1  15   97.30   16.11
  -3  -1  15  101.11   15.01
   3   1  15   90.67   13.31
  -3   1  15  128.13   16.16
   3  -1  15  106.53   16.99
  -3  -1  16 1202.17   49.96
   3   1  16 1163.14   51.70
   3  -1  16 1195.96   52.36
   3  -1  16 1229.43   54.03
  -3   1  16 1171.88   50.15
  -3   1  16 1142.31   52.89
  -3  -1  16 1221.34   54.26
   3   1  16 1077.74   49.59
  -3  -1  17  164.14   18.99
   3   1  17  165.19   20.26
   3  -1  17  175.25   20.60
  -3   1  17  153.95   19.49
  -3  -1  17  149.56   19.32
   3   1  17  163.49   19.99
  -3   1  17  171.14   20.22
  -3  -1  18   12.10    6.96
  -3   1  18    5.59    3.89
  -3  -1  18    3.89    4.14
   3   1  18    4.65    7.30
   3   1  18   -6.86    6.40
  -3   1  18   -2.56    5.70
   3  -1  18    5.00    4.24
   3  -1  18    7.83    3.76
  -3   1  19   35.15    8.57
  -3  -1  19   17.55    4.50
   3   1  19   19.93    6.98
  -3  -1  19   25.37    7.82
  -3   1  19   17.72    7.47
   3   1  19   26.15    9.90
   3  -1  19   22.92    8.79
   3  -1  19   38.79   11.43
  -3  -1  20  505.70   35.88
   3   1  20  498.72   36.53
   3  -1  20  567.23   39.45
  -3   1  20  483.24   36.18
  -3  -1  20  448.95   36.56
   3   1  20  494.53   36.90
  -3   1  20  465.23   36.84
   3  -1  20  492.52   38.47
  -3   1  21   38.58   10.49
  -3  -1  21   31.19    9.14
   3   1  21   31.64    5.93
  -3  -1  21   24.81    8.08
  -3   1  21   28.46    5.89
   3  -1  21   49.03   12.30
   3   1  21   31.36   10.03
   3  -1  21   38.71   12.45
  -3  -1  22  191.28   23.17
   3   1  22  187.94   23.47
   3  -1  22  177.71   23.22
  -3   1  22  148.13   21.33
  -3  -1  22  197.56   23.97
   3  -1  22  243.27   27.43
   3   1  22  167.96   22.44
  -3   1  22  170.77   24.14
  -3  -1  23  382.96   33.75
   3   1  23  407.83   34.81
  -3   1  23  371.99   34.35
   3  -1  23  372.07   33.92
  -3  -1  23  319.10   32.62
   3   1  23  356.04   34.57
   3  -1  23  427.51   35.82
  -3   1  23  409.74   34.93
  -3  -1  24  115.41   18.75
  -3   1  24   72.63   14.96
  -3   1  24  124.40   21.99
   3   1  24   93.10   16.12
   3  -1  24   95.80   16.49
   3  -1  24  117.42   20.77
  -3  -1  24  133.71   21.06
   3   1  24   97.76   17.08
   3  -1  25    9.58    9.11
  -3   1  25   -0.52    4.87
  -3  -1  25    1.25    2.85
   3   1  25    2.88    3.01
  -3  -1  25    3.67    4.16
  -3   1  25    2.24    5.28
   3   1  25    4.32    9.09
   3  -1  25    2.73    6.69
  -3  -1  26  217.38   26.63
   3   1  26  220.64   27.30
   3  -1  26  172.17   23.87
  -3   1  26  200.11   26.78
   3   1  26  180.28   26.35
   3  -1  26  243.14   29.31
  -3   1  26  163.22   23.63
  -3   1  27   63.45   14.48
  -3   1  27   59.21   14.32
  -3  -1  27   46.87   12.76
   3   1  27   73.70   14.63
   3  -1  27   72.87   16.23
  -3  -1  27   69.65   18.05
   3   1  27   41.85   16.35
   3  -1  27   82.25   18.06
  -3   1  28   20.86   10.57
   3   1  28   28.56    9.93
   3  -1  28   36.56   10.94
  -3  -1  28   18.21   11.07
  -3   1  28   16.82    4.46
  -3  -1  28   28.08   11.86
   3   1  28   21.71    7.94
   3  -1  28   20.51    9.71
  -3   1  29   33.06   11.16
  -3  -1  29   16.46   10.38
   3   1  29   12.32    7.80
   3  -1  29   23.14    9.71
   3   1  29   26.26   12.36
  -3   1  29    7.43    4.48
  -3  -1  29   14.93    7.85
   3  -1  29   21.25    9.04
  -3   1  30   91.41   18.25
  -3  -1  30   59.30   14.72
   3   1  30   69.39   15.74
   3   1  30   93.54   20.30
   3  -1  30   47.73   14.60
   3  -1  30   54.75   16.91
  -3  -1  30   73.06   17.07
  -3   1  30   71.20   18.61
  -3   1  31   59.96   16.06
  -3  -1  31   60.39   14.87
   3   1  31   63.22   14.47
   3  -1  31   66.63   15.70
   3   1  31   54.84   14.80
  -3   1  31   75.19   19.72
  -3  -1  31   47.31   14.50
   3  -1  31   50.05   14.54
   3  -2   0   -0.13    0.88
  -3  -2   0   -1.65    1.07
  -3  -2   0   -0.18    1.21
  -3   2   0   -2.54    3.59
   3  -2   0    0.55    1.72
   3  -2  -1    3.08    3.57
   3   2   1    3.13    0.80
  -3   2  -1    2.51    1.48
  -3  -2   1    1.08    1.20
  -3  -2  -1    4.75    2.62
   3  -2   1    3.42    2.12
  -3  -2   1    5.31    2.06
   3  -2   1    1.19    0.94
  -3   2   1    4.10    3.57
   3  -2  -1    4.30    1.91
   3   2   2  277.03   11.29
  -3  -2   2  212.72   13.37
   3  -2   2  248.63   10.45
   3  -2  -2  236.44   15.25
   3  -2   2  227.68   15.98
  -3   2   2  254.12   17.41
  -3  -2   2  259.59   13.52
   3  -2  -2  247.56   12.61
  -3  -2  -2  236.45   12.94
  -3  -2   3  546.48   22.62
   3   2   3  571.02   18.71
   3  -2   3  572.10   25.57
   3  -2   3  531.50   16.02
   3  -2  -3  542.78   23.16
  -3  -2  -3  559.88   20.51
  -3  -2   3  606.37   22.36
  -3   2   3  582.40   26.83
   3  -2   4  771.16   20.48
  -3  -2   4  908.24   16.69
   3   2   4  736.56   23.74
  -3  -2  -4  922.10   26.90
  -3   2   4  847.29   32.29
  -3  -2   4  920.89   28.95
  -3  -2   4  717.75   26.99
   3  -2   4  862.57   31.47
   3  -2   5  389.66   15.40
  -3  -2   5  394.79   20.73
  -3  -2   5  360.20   12.82
  -3   2   5  379.05   22.77
  -3  -2   5  348.54   19.12
  -3   2   5  354.60   19.15
   3  -2   5  401.07   21.67
  -3  -2   6    1.85    3.05
   3  -2   6   -0.09    3.47
   3   2   6   -0.65    2.84
  -3  -2   6    3.44    1.79
   3  -2   6    5.09    1.93
  -3   2   6    0.33    1.20
  -3  -2  -6    2.87    1.44
  -3  -2   6    4.84    3.21
  -3   2   6   -1.61    1.26
  -3  -2   7  243.98   18.58
  -3  -2   7  281.72   14.62
   3  -2   7  233.06   17.59
  -3   2   7  224.22   18.35
  -3  -2  -7  272.45   17.08
  -3  -2   7  243.56   17.89
  -3   2   7  261.25   17.57
   3   2   8  354.91   21.61
  -3  -2   8  376.65   18.44
  -3  -2  -8  365.97   20.60
  -3   2   8  378.11   24.64
  -3  -2   8  380.84   23.12
   3  -2   8  394.90   23.66
  -3   2   8  404.70   22.69
  -3  -2   8  438.02   26.07
  -3   2   9    7.44    2.67
  -3   2   9    1.19    2.03
   3  -2   9    3.23    3.57
   3   2   9    6.35    4.11
  -3  -2   9    7.41    4.03
  -3  -2   9    2.01    2.35
  -3   2  10   -1.57    3.89
   3  -2  10    1.62    3.18
   3   2  10   -0.97    2.84
  -3  -2  10    2.27    2.62
  -3   2  10    3.55    1.85
  -3  -2  10    3.53    3.16
   3   2  10   -0.95    2.40
  -3   2  11   36.53    8.02
  -3   2  11   23.64    5.96
   3   2  11   22.61    5.82
  -3  -2  11   38.36    7.14
  -3  -2  11   25.32    7.97
   3   2  11   15.49    5.27
   3  -2  11   25.58    6.82
   3   2  12   81.85   11.95
  -3  -2  12   75.49   10.54
   3  -2  12  123.57   15.52
  -3  -2  12  100.70   14.10
  -3   2  12   91.13   13.46
  -3   2  12   95.64   13.03
   3   2  12   88.28   12.70
   3   2  13   49.24    9.20
  -3  -2  13   41.49    8.18
   3  -2  13   51.64   10.27
  -3   2  13   64.54   12.09
   3   2  13   68.96   11.33
  -3  -2  13   32.44    8.90
  -3   2  13   58.19   10.71
  -3  -2  14   92.41   14.57
   3   2  14  114.00   14.66
  -3  -2  14  120.75   14.28
   3  -2  14   82.46   13.60
  -3   2  14  123.58   17.47
   3   2  14  112.38   14.96
  -3   2  14  102.31   14.27
   3   2  15  120.03   17.07
  -3  -2  15   85.53   12.78
  -3  -2  15   88.71   14.06
  -3   2  15   91.68   14.19
   3  -2  15   89.34   14.48
  -3   2  15   97.52   14.65
   3   2  15  116.32   15.74
   3   2  16  174.05   20.33
  -3  -2  16  180.45   19.31
  -3  -2  16  184.42   21.31
   3  -2  16  165.22   19.88
  -3   2  16  191.66   22.07
   3   2  16  178.56   20.17
  -3   2  16  180.75   19.57
  -3  -2  17  101.35   15.61
   3  -2  17   93.04   15.75
   3   2  17   62.68   12.06
  -3   2  17  103.81   16.43
  -3  -2  17   90.53   15.60
   3   2  17   99.59   16.18
   3  -2  17  118.39   17.42
  -3   2  17   95.23   15.56
   3   2  18  129.46   18.04
   3   2  18  101.75   16.54
   3  -2  18  157.34   19.87
  -3  -2  18  142.19   18.41
   3  -2  18  144.75   18.94
  -3  -2  18  107.40   16.51
  -3   2  18  138.10   21.74
  -3   2  18  121.11   17.51
  -3  -2  19    0.43    5.44
  -3   2  19    1.09    2.12
  -3  -2  19    0.53    4.43
   3   2  19   -5.81    7.83
   3  -2  19    3.84    2.79
  -3   2  19    9.38    8.08
   3  -2  19   -1.79    3.71
   3   2  19    3.90    8.81
   3  -2  20   43.32   10.58
  -3  -2  20   33.12   10.34
   3   2  20   40.67   11.25
  -3   2  20   41.18   11.20
   3  -2  20   58.06   13.13
  -3   2  20   44.51    9.60
  -3  -2  20   34.43    9.99
   3   2  20   51.46   11.68
  -3   2  21   73.57   13.82
  -3  -2  21   86.90   15.26
   3   2  21   51.79   12.11
   3  -2  21   78.27   15.58
  -3  -2  21   51.69   13.21
   3  -2  21   68.73   14.29
  -3   2  21   97.44   17.08
   3   2  21   78.83   14.84
  -3   2  22   27.10    9.69
  -3  -2  22   18.03    8.66
   3   2  22   12.75    5.26
   3  -2  22    5.41    7.17
  -3   2  22   21.77    7.49
   3   2  22   25.22   10.96
  -3  -2  22   21.73    9.52
   3  -2  22    1.77    4.83
  -3   2  23    6.49    7.75
  -3  -2  23   11.19    7.42
   3   2  23   -1.44    4.54
   3  -2  23    8.50    6.96
  -3   2  23    8.42   10.46
  -3  -2  23    7.25    5.23
   3   2  23    0.66    6.73
   3  -2  23   -1.53    5.11
  -3  -2  24    4.97    2.84
   3   2  24    1.57    2.72
  -3   2  24    4.95    5.83
   3  -2  24    0.51    4.20
  -3  -2  24   -2.11    3.84
   3   2  24    7.47    4.30
  -3   2  24    1.48    6.79
   3  -2  24    3.07    3.51
  -3   2  25    5.50    3.49
  -3  -2  25    4.89    2.63
   3   2  25   11.96    5.82
   3  -2  25    1.81    4.88
  -3   2  25    7.92    3.66
  -3  -2  25    8.10    4.88
   3  -2  25    7.34    5.09
   3   2  25    3.47    8.18
  -3   2  26    0.03    5.38
  -3  -2  26   -0.86    3.14
   3   2  26    4.03    7.30
  -3   2  26    5.41    6.58
  -3  -2  26   -8.38   10.10
   3   2  26    5.53    7.87
   3  -2  26   -5.04    3.82
   3  -2  26    3.62    5.11
  -3   2  27   43.05   11.85
  -3  -2  27   49.65   13.13
  -3   2  27   37.69   14.29
  -3  -2  27   25.46    9.49
   3   2  27   37.04   12.17
   3  -2  27   22.55    8.57
   3  -2  27   24.53    8.47
   3   2  27   34.66   10.06
  -3   2  28   15.18    8.60
  -3  -2  28    2.91    2.97
   3   2  28    7.53    8.91
   3  -2  28    5.89    7.74
  -3   2  28    0.11    4.95
  -3  -2  28    2.75    4.92
   3   2  28   15.30    8.25
   3  -2  28    4.18    3.44
  -3   2  29    6.63    9.09
  -3  -2  29   -2.69    3.93
   3   2  29   -1.35    4.40
   3   2  29    6.21    9.81
   3  -2  29    3.14    2.98
  -3   2  29    4.10    7.39
  -3  -2  29    7.72    5.83
   3  -2  29    2.20    4.43
  -3   2  30   -3.35    3.44
  -3  -2  30   -2.20    5.47
   3   2  30  -11.04    8.39
   3  -2  30    2.80    6.10
  -3  -2  30   12.80    8.50
   3   2  30   -8.59    5.19
  -3   2  30   -6.61    6.85
   3  -2  30   10.11    7.99
  -3   2  31    5.37    3.58
  -3  -2  31   14.62   11.28
   3   2  31    8.02    7.83
   3  -2  31   -1.75    3.87
  -3   2  31    9.65    8.40
  -3  -2  31   -5.83    7.12
   3   2  31   -6.66    4.70
   3  -2  31   -0.78    5.23
   3  -3   0   -0.49    1.57
  -3  -3   0   -1.19    3.08
   3  -3   0   -0.01    2.22
  -3   3   0   -0.51    3.60
  -3  -3   0    0.51    0.60
  -3  -3   1   78.86    9.38
  -3  -3  -1   80.24    9.28
   3  -3   1   94.37    8.26
  -3   3  -1   98.13   11.36
   3  -3  -1   82.64    8.11
   3  -3   1   92.13   10.80
  -3   3   1  102.76   11.80
   3   3   1  100.72    6.96
  -3  -3   1   85.80    5.43
  -3  -3   1   63.44    5.88
   3  -3  -1   84.08   10.34
  -3  -3   2  916.73   16.43
  -3  -3   2  944.79   32.32
   3  -3  -2  875.12   32.88
   3  -3   2  917.26   26.37
  -3  -3  -2  953.43   31.83
   3  -3  -2  951.49   28.50
   3  -3   2  928.60   36.08
  -3   3   2  932.10   36.06
   3   3   2  986.96   23.68
  -3  -3   3  174.07   14.31
   3  -3   3  165.04   11.40
  -3   3   3  164.20   14.94
  -3  -3  -3  169.67   13.30
   3  -3   3  170.27   15.44
   3  -3  -3  149.87   14.03
   3  -3  -3  174.92   12.85
  -3  -3   3  198.33   11.63
  -3  -3   3  158.44    7.20
   3   3   3  183.04   11.17
  -3  -3   4  567.96   15.43
   3  -3   4  548.50   21.24
   3  -3   4  569.90   28.24
   3   3   4  561.92   21.48
  -3  -3   4  524.88   25.80
  -3  -3  -4  541.88   24.07
   3  -3  -4  584.06   24.40
  -3  -3   4  563.38   21.95
  -3  -3   5 3243.31   65.84
   3  -3   5 3563.81   55.48
   3  -3   5 3366.91   70.25
  -3  -3  -5 3383.40   61.34
  -3  -3   5 3460.16   42.84
   3  -3  -5 3439.67   62.41
  -3   3   5 3464.06   70.58
   3   3   5 3153.58   55.82
  -3   3   5 3768.91   69.67
  -3   3   6  959.33   38.91
  -3  -3   6  894.27   24.41
  -3  -3  -6  922.70   33.27
   3  -3   6  884.40   28.94
  -3  -3   6  949.37   36.50
  -3   3   6  898.32   34.80
   3   3   6  982.98   32.21
   3  -3   6 1002.89   38.23
   3   3   7   72.48    9.22
  -3  -3   7   77.77   10.48
  -3   3   7   61.15    9.50
  -3  -3   7   80.22    8.00
  -3   3   7   77.56   11.45
  -3  -3  -7   81.43   10.38
  -3  -3   7   79.59   10.42
   3  -3   7  102.02   10.43
   3   3   7   51.01    7.51
   3  -3   7   80.38   10.56
   3  -3   8  390.94   21.47
  -3  -3   8  421.12   25.58
   3   3   8  428.90   23.46
  -3   3   8  426.82   25.05
  -3  -3   8  364.68   18.49
  -3  -3   8  338.10   21.57
   3  -3   8  390.26   24.96
   3   3   8  411.70   21.83
  -3  -3  -8  413.33   23.65
  -3   3   8  399.32   26.07
  -3  -3   9 1251.73   46.67
   3   3   9 1226.94   41.49
  -3  -3   9 1320.64   38.10
  -3  -3   9 1283.90   44.09
  -3  -3  -9 1181.49   41.62
   3  -3   9 1237.15   45.68
   3  -3   9 1303.99   42.36
  -3   3   9 1263.53   44.26
  -3   3   9 1250.15   47.06
  -3  -3  10  208.01   16.00
  -3  -3  10  181.97   17.75
  -3   3  10  220.01   20.28
   3   3  10  252.38   19.80
   3  -3  10  252.28   20.96
  -3   3  10  203.38   18.27
   3   3  10  178.67   16.20
  -3  -3 -10  205.32   17.63
  -3   3  11   30.26    7.19
   3   3  11   50.16    8.68
   3  -3  11   28.78    6.86
  -3   3  11   22.63    6.52
  -3  -3  11   41.45    9.45
  -3  -3 -11   44.91    8.94
  -3  -3  11   35.89    6.93
  -3  -3  11   40.04    9.44
   3   3  11   33.61    7.35
  -3   3  12    3.66    5.96
  -3   3  12    5.54    2.53
   3  -3  12    0.94    1.96
   3   3  12    0.66    3.30
  -3  -3 -12    0.80    2.08
  -3  -3  12    0.72    2.89
  -3  -3  12    0.48    3.44
   3   3  12    0.32    1.57
   3   3  13  469.80   30.24
  -3  -3  13  481.50   28.82
  -3  -3  13  567.48   34.72
  -3   3  13  487.32   32.05
   3  -3  13  519.26   33.36
  -3   3  13  544.17   32.40
   3   3  13  481.31   29.17
  -3   3  14   -0.68    4.20
   3   3  14   -0.34    1.81
  -3  -3  14    2.29    4.03
  -3   3  14    1.17    2.53
  -3  -3  14   -0.24    1.88
   3   3  14    0.43    2.90
   3  -3  14   -1.65    2.72
   3   3  15  360.90   27.89
  -3  -3  15  349.79   26.13
  -3   3  15  394.97   29.34
   3  -3  15  360.86   29.32
  -3   3  15  365.57   29.58
  -3  -3  15  402.80   31.65
   3   3  15  393.36   28.16
  -3   3  16    4.95    5.95
   3   3  16   -1.59    2.40
  -3  -3  16   -0.58    2.07
   3  -3  16    2.96    7.02
  -3   3  16    7.55    6.38
  -3  -3  16    1.00    5.54
   3   3  16   -1.03    3.75
  -3   3  17  479.92   35.25
  -3  -3  17  475.77   33.18
   3   3  17  498.95   34.41
  -3  -3  17  573.98   39.23
   3   3  17  394.51   31.93
  -3   3  17  507.41   34.89
   3   3  18  165.60   20.62
  -3  -3  18  157.23   19.66
  -3   3  18  170.00   21.52
   3  -3  18  147.10   20.56
  -3  -3  18  199.72   22.76
   3   3  18  162.34   19.65
  -3   3  18  146.38   19.58
   3  -3  18  144.04   18.72
   3   3  19  179.62   22.20
  -3  -3  19  181.09   21.22
  -3  -3  19  226.45   25.81
   3  -3  19  197.57   22.26
   3  -3  19  157.86   21.16
  -3   3  19  190.77   23.23
   3   3  19  249.03   26.46
  -3   3  19  191.49   22.38
  -3   3  20   13.50    9.47
   3   3  20   21.71   10.03
  -3  -3  20    0.90    3.29
   3  -3  20   17.63    7.32
  -3   3  20   11.62    8.08
  -3  -3  20   22.81    9.97
   3   3  20    6.42    4.27
   3  -3  20    4.38    5.67
  -3  -3  21   81.38   15.46
  -3   3  21   87.06   16.77
   3   3  21   63.40   13.82
   3  -3  21  109.95   19.42
  -3  -3  21   62.44   13.76
  -3   3  21   95.24   17.35
   3   3  21   79.91   15.93
   3  -3  21   90.41   17.07
   3  -3  22   22.01    5.03
  -3   3  22   45.34   12.61
   3   3  22   41.49   10.18
  -3  -3  22   27.01    8.66
  -3   3  22   39.73   12.89
  -3  -3  22   32.91   11.54
   3   3  22   41.55   13.10
   3  -3  22   37.29   12.34
   3   3  23  146.88   21.34
  -3  -3  23  184.54   23.70
   3  -3  23  141.40   21.74
  -3   3  23  171.10   23.75
  -3  -3  23  121.10   21.70
   3   3  23  170.26   24.20
   3  -3  23  154.30   22.32
  -3   3  23  159.22   22.23
  -3   3  24    2.52    6.07
  -3   3  24    5.33    4.77
   3   3  24    8.67    3.74
  -3  -3  24   11.20    5.55
   3  -3  24    2.41    3.93
  -3  -3  24    9.64    7.02
   3   3  24    8.66    4.70
   3  -3  24    1.15    6.65
   3   3  25    6.32    8.93
  -3   3  25    9.03    6.85
   3   3  25   10.99    7.47
  -3  -3  25   23.98    9.75
   3  -3  25   15.03    7.35
   3  -3  25   -3.97    7.74
  -3   3  25    6.39    6.00
  -3  -3  25    2.26    5.62
   3   3  26   49.81   12.52
  -3   3  26   43.18   11.03
  -3  -3  26   52.80   13.45
   3  -3  26   43.28   13.63
  -3   3  26   44.86   14.28
  -3  -3  26   61.16   16.20
   3   3  26   67.31   16.01
   3  -3  26   50.89   15.33
   3  -3  27  113.99   20.82
   3   3  27   73.06   16.23
  -3  -3  27   99.96   18.39
   3  -3  27   74.14   14.61
  -3  -3  27  121.94   23.02
  -3   3  27   72.85   16.29
   3   3  27   52.00   15.25
  -3   3  27   99.29   19.75
  -3   3  28   25.06    6.98
  -3   3  28   40.48   14.04
   3   3  28   11.41    3.61
  -3  -3  28   27.69   10.03
   3  -3  28   28.05   11.49
   3  -3  28   32.28   11.99
  -3  -3  28   22.61   11.64
   3   3  28    4.12    3.54
  -3   3  29   17.05    9.48
  -3   3  29    9.99    6.19
   3   3  29   23.78   10.23
  -3  -3  29   19.79    8.62
   3  -3  29   14.42    6.62
  -3  -3  29   18.22    8.62
   3   3  29    6.26    7.38
   3  -3  29   18.12   11.65
  -3   3  30   49.43   12.50
   3   3  30   69.33   17.04
  -3  -3  30   71.58   16.24
   3  -3  30   61.23   15.57
  -3   3  30   36.52   10.67
   3   3  30   24.71    9.53
  -3  -3  30   29.74   11.49
   3  -3  30   67.59   16.41
  -3   3  31   62.46   15.23
  -3   3  31   91.52   17.47
   3   3  31   89.92   19.33
  -3  -3  31   81.28   16.48
   3  -3  31   75.48   18.32
  -3  -3  31   76.95   20.43
   3   3  31   62.30   18.00
   3  -3  31   61.54   17.08
   3  -4   0   -0.81    2.03
  -3  -4   0    0.96    2.31
   3  -4   0   -0.25    1.61
  -3   4   0   -0.43    2.17
  -3  -4   0    0.08    0.70
  -3  -4   1  372.59   22.43
   3  -4   1  385.00   20.16
   3  -4  -1  400.03   20.88
  -3   4   1  425.79   25.48
  -3  -4   1  363.03   11.77
   3  -4   1  380.64   24.71
  -3  -4   1  380.30   15.55
  -3  -4  -1  404.63   23.20
   3  -4  -1  360.15   23.72
   3  -4  -2    2.54    1.71
  -3  -4   2    1.60    0.67
  -3  -4   2    3.53    2.36
   3  -4   2    2.33    2.66
  -3  -4  -2    1.39    1.01
   3  -4   2   -0.03    2.98
  -3  -4   2   -0.88    1.42
   3  -4  -2    1.14    1.65
  -3   4   2   -1.78    2.60
   3   4   2    1.45    0.99
  -3  -4   3   73.76   10.51
  -3  -4   3   78.64    6.93
   3  -4   3   79.81    9.46
  -3  -4   3   82.75    6.96
   3   4   3   62.29    7.21
   3  -4  -3   74.84   10.75
   3  -4   3   75.61   11.19
   3  -4  -3   65.13    9.05
  -3   4   3   81.80   11.10
   3   4   3   59.49    4.21
  -3  -4   4 1240.11   42.87
   3  -4   4 1226.51   37.20
   3  -4   4 1230.43   45.45
  -3  -4  -4 1429.05   43.93
   3  -4  -4 1252.21   39.40
  -3   4   4 1288.64   44.61
   3  -4  -4 1177.39   41.98
  -3  -4   4 1523.45   34.86
   3   4   4 1386.36   35.72
   3   4   4 1050.34   20.94
  -3  -4   4 1248.06   27.81
  -3  -4   5   37.74    7.77
   3  -4   5   26.20    5.00
  -3  -4   5   25.65    4.18
  -3   4   5   18.89    5.85
  -3  -4  -5   34.37    7.19
  -3  -4   5   44.22    5.99
   3  -4  -5   30.13    6.27
   3   4   5   32.89    4.46
   3   4   5   34.72    5.99
   3  -4   5   28.81    7.23
  -3  -4   6  225.74   19.17
   3  -4   6  255.35   17.75
  -3   4   6  207.63   18.29
   3  -4  -6  219.60   17.62
  -3  -4  -6  198.71   17.02
   3  -4   6  239.18   19.71
  -3   4   6  248.45   20.07
  -3  -4   6  240.60   16.08
   3   4   6  246.65   13.20
   3   4   6  200.95   15.28
  -3  -4   6  190.14   12.27
   3  -4   7  142.88   15.57
  -3  -4   7  155.85   16.35
   3  -4   7  159.19   14.20
  -3  -4  -7  132.22   14.16
  -3  -4   7  129.01   10.72
  -3   4   7  133.65   14.99
  -3  -4   7  126.76   12.96
  -3   4   7  114.87   13.64
   3   4   7  148.73   11.34
   3  -4  -7  123.71   13.46
   3   4   7  124.14   12.73
   3  -4   8   59.47    9.14
  -3   4   8   67.87   10.97
  -3  -4  -8   76.23   11.20
  -3  -4   8   69.07    8.49
   3  -4  -8   58.35   10.48
  -3   4   8   60.09   10.96
  -3  -4   8   81.49   11.07
   3   4   8   81.66    9.40
  -3  -4   8   83.58   12.04
   3   4   8   74.71   10.12
   3  -4   8   47.33    9.39
  -3  -4   9  858.45   31.45
  -3  -4  -9  819.37   37.07
  -3   4   9  875.35   40.55
  -3  -4   9  947.67   41.68
   3  -4   9  849.38   35.27
  -3  -4   9 1268.13   44.91
  -3   4   9  853.50   39.19
   3   4   9 1269.45   38.02
   3  -4   9  872.33   40.22
   3   4   9  912.66   37.72
   3  -4  10    0.98    2.04
  -3  -4  10   -1.54    3.55
   3   4  10    2.08    3.15
   3  -4  10    0.26    2.36
  -3  -4 -10    5.61    1.95
  -3   4  10    4.61    4.14
  -3  -4  10   -1.70    3.74
  -3  -4  10    0.49    5.02
   3   4  10    2.26    3.46
  -3   4  10    2.31    2.60
   3  -4  11    2.32    3.71
   3   4  11    0.73    2.98
  -3  -4  11   -1.35    2.02
  -3   4  11   -1.86    3.05
  -3  -4  11    1.02    2.73
  -3  -4 -11   -1.42    3.14
   3  -4  11   -2.73    3.01
   3   4  11    1.04    3.01
  -3   4  11    0.32    2.31
  -3  -4  11   -1.83    2.29
   3  -4  12    8.46    5.78
  -3  -4  12   12.43    7.01
   3  -4  12    8.82    1.91
   3   4  12   15.98    5.81
  -3   4  12   10.00    6.14
  -3  -4 -12   16.66    6.50
  -3  -4  12   10.43    4.01
  -3  -4  12   15.31    5.06
   3   4  12   17.65    5.94
  -3   4  12    9.71    5.48
  -3  -4  13   17.85    6.99
   3  -4  13    3.76    4.72
   3   4  13   14.67    6.40
  -3   4  13   14.97    6.18
  -3  -4  13    6.28    4.50
  -3  -4 -13    6.74    3.22
  -3  -4  13   16.29    6.06
   3   4  13    6.40    3.79
  -3   4  13    5.34    4.15
   3  -4  14    0.09    4.05
   3   4  14    1.63    3.33
  -3   4  14    5.58    5.03
  -3  -4 -14    1.69    3.26
  -3  -4  14    0.06    2.03
  -3  -4  14   -0.44    2.72
  -3  -4  14    0.24    4.16
   3   4  14    3.69    4.91
  -3   4  14    3.65    5.34
   3  -4  15    2.27    1.91
  -3   4  15    0.37    5.30
   3   4  15   -1.61    2.04
  -3   4  15   -2.70    3.79
  -3  -4  15   -0.60    2.40
  -3  -4 -15    1.57    5.38
  -3  -4  15    3.15    3.57
   3   4  15    6.00    5.93
  -3   4  16   46.39   11.03
  -3  -4 -16   61.23   11.37
   3   4  16   34.59    8.39
  -3   4  16   38.09   10.54
   3  -4  16   35.11    8.42
  -3  -4  16   54.80   11.85
  -3  -4  16   48.46    9.94
   3   4  16   33.20    9.26
  -3  -4 -17    4.67    1.97
  -3   4  17   11.20    6.55
   3   4  17    9.43    7.11
  -3  -4  17    4.08    2.59
  -3   4  17   22.65    9.41
  -3  -4  17   12.04    7.43
   3   4  17   13.58    5.79
   3  -4  17    9.04    2.54
   3   4  18   -3.03    4.95
  -3  -4  18    3.04    3.35
  -3  -4 -18   -3.55    4.44
  -3   4  18    0.63    5.22
  -3   4  18    0.66    4.73
   3  -4  18   -2.66    5.24
  -3  -4  18    4.65    5.62
   3  -4  18    3.95    4.12
   3   4  18   -3.96    5.66
  -3  -4  19    7.30    5.78
   3   4  19    5.40    6.42
  -3   4  19   14.32    7.71
  -3  -4 -19   13.03    8.88
  -3   4  19   10.64    8.33
   3  -4  19    1.02    4.57
   3   4  19    9.67    4.97
   3  -4  19    0.38    5.55
  -3  -4  19   12.13    6.36
  -3   4  20   81.56   15.60
   3   4  20   64.61   11.93
  -3  -4  20   56.16   13.89
  -3   4  20   67.93   14.17
   3  -4  20   62.14   13.70
   3  -4  20   54.39   12.26
  -3  -4  20   66.28   13.80
   3   4  20   71.04   15.28
  -3   4  21   30.31    9.23
   3   4  21   13.61    6.05
  -3  -4  21   30.61    9.61
  -3   4  21   52.06   13.68
   3  -4  21   21.87   10.94
  -3  -4  21   12.10    2.86
   3   4  21   26.70    8.68
   3  -4  21   26.46    8.36
  -3   4  22    0.59    5.81
  -3  -4  22   -2.69    3.57
   3   4  22   -5.55    9.47
   3  -4  22   -2.17    3.73
   3  -4  22    1.61    2.92
  -3  -4  22   -0.53    2.69
  -3   4  22    0.46    6.52
   3   4  22    0.31    6.09
  -3   4  23   10.94    5.65
   3   4  23    7.84    6.53
   3  -4  23    7.19    4.89
  -3  -4  23   15.38    7.62
   3  -4  23   13.86    9.30
  -3   4  23   25.86   10.49
  -3  -4  23    2.55    7.54
   3   4  23    6.97    6.52
  -3   4  24   -3.37    7.30
   3   4  24    0.54    4.59
  -3  -4  24    5.47    3.80
  -3  -4  24    0.42    4.05
   3  -4  24    3.21    2.98
   3   4  24   -7.86    9.04
   3  -4  24    0.18    5.09
  -3   4  24   -2.83    9.12
  -3   4  25    6.46    9.07
   3   4  25    1.60    6.59
   3  -4  25   -7.21    6.10
  -3  -4  25   -0.93    3.37
  -3   4  25    3.08    4.33
  -3  -4  25    4.03    7.95
   3   4  25    6.39    7.32
   3  -4  25    5.69    4.04
  -3   4  26   18.72   10.60
   3  -4  26   15.67    7.55
   3   4  26   17.67    7.33
  -3  -4  26    0.03    4.41
   3  -4  26    5.34    4.15
  -3   4  26   24.97   11.34
   3   4  26    8.28    4.97
  -3  -4  26    4.12    7.55
  -3   4  27    7.69    8.85
   3   4  27   12.49    6.47
  -3  -4  27    6.32    6.84
   3  -4  27   -0.03    7.17
  -3   4  27   15.01    9.29
  -3  -4  27    1.85    5.57
   3   4  27   -1.46    4.51
   3  -4  27   -6.64    7.98
  -3   4  28    3.50    6.10
  -3   4  28   -0.38    6.46
   3   4  28    3.70    3.35
  -3  -4  28    8.18    5.84
   3  -4  28   13.05    7.16
  -3  -4  28    8.77    7.02
   3   4  28    4.89    4.63
   3  -4  28    4.49    6.87
  -3   4  29    4.92    7.13
   3   4  29    5.15    5.47
  -3  -4  29   -8.68    8.15
  -3   4  29   -6.06    6.90
   3  -4  29    5.20    5.75
   3  -4  29   25.17   12.04
  -3  -4 -29    8.73    6.49
  -3  -4  29    7.61    8.53
   3   4  29    3.61    8.41
  -3   4  30   21.11   11.32
   3   4  30    7.06    5.23
  -3   4  30   25.46   10.02
   3  -4  30   31.79   10.35
  -3  -4  30    3.27    5.03
   3   4  30   11.69    6.40
   3  -4  30   26.07    9.47
  -3  -4 -30   15.77    9.99
  -3  -5   0   -1.77    1.17
   3  -5   0    3.36    4.61
  -3  -5   0    2.44    3.66
   3  -5   0   -2.01    2.63
  -3   5   0   -2.39    2.34
  -3  -5   1  390.65   25.30
  -3  -5  -1  377.98   24.64
   3  -5   1  373.14   22.45
   3  -5  -1  371.23   22.44
  -3  -5  -1  365.33   18.68
  -3   5   1  408.01   26.19
   3  -5   1  376.42   26.33
  -3  -5   1  370.72   18.76
   3  -5  -1  386.85   26.66
   3  -5  -2  695.63   34.91
  -3  -5   2  705.27   34.22
   3  -5   2  690.16   30.53
  -3  -5  -2  600.24   31.19
   3  -5  -2  636.40   29.57
  -3   5   2  674.54   33.48
  -3  -5   2  705.88   26.03
   3  -5   2  650.81   35.33
  -3  -5   2  718.66   17.47
  -3  -5   3   25.60    4.95
  -3  -5   3   15.84    5.37
   3  -5   3   23.76    5.71
   3  -5   3   26.49    6.99
  -3  -5  -3   32.42    7.24
  -3   5   3   18.34    5.02
   3  -5  -3   26.86    6.28
   3  -5  -3   22.72    5.01
   3   5   3   21.20    4.55
  -3  -5   3   16.98    3.13
   3  -5   4   19.99    5.34
  -3  -5   4   21.21    5.93
   3  -5   4   23.30    5.69
  -3  -5  -4   16.92    4.70
   3  -5  -4   21.44    7.15
   3  -5  -4   17.58    5.92
  -3   5   4    6.49    3.28
  -3  -5   4   26.09    5.24
  -3  -5   4   13.40    3.51
   3   5   4   14.44    3.99
  -3  -5   5  408.68   26.91
   3  -5   5  363.19   23.31
   3  -5   5  431.28   28.49
  -3  -5  -5  416.19   26.42
   3  -5  -5  399.54   24.78
  -3   5   5  374.13   25.78
   3  -5  -5  448.47   28.22
  -3  -5   5  331.71   18.00
   3   5   5  403.27   12.76
   3   5   5  306.99   19.78
  -3  -5   5  430.91   20.12
  -3  -5   6  320.76   24.38
   3  -5   6  283.59   20.78
   3  -5   6  365.71   26.30
  -3  -5  -6  319.40   24.36
   3  -5  -6  328.94   23.30
  -3   5   6  288.49   23.26
  -3  -5   6  272.51   17.43
   3   5   6  372.47   15.17
   3   5   6  302.20   20.20
  -3  -5   6  313.46   17.91
  -3  -5   7  164.95   17.70
   3  -5   7  147.52   15.21
  -3   5   7  149.95   16.40
  -3  -5  -7  147.70   16.16
  -3  -5   7  141.97   13.63
  -3  -5   7  152.32   12.74
  -3   5   7  154.07   16.73
   3   5   7  149.60   10.48
   3   5   7  174.05   15.98
   3  -5  -7  163.37   16.64
   3  -5   8  380.60   26.99
  -3  -5   8  394.96   27.88
   3  -5   8  364.47   24.36
   3  -5  -8  405.79   26.93
  -3  -5   8  411.42   22.17
  -3  -5  -8  394.83   26.68
  -3   5   8  462.89   29.51
  -3  -5   8  443.48   25.95
   3   5   8  367.12   18.76
  -3   5   8  404.84   27.81
   3   5   8  363.16   23.85
  -3  -5   9    0.81    1.64
   3   5   9    1.76    3.75
   3  -5   9   -0.13    3.18
  -3  -5   9   -1.26    2.17
  -3   5   9   -1.09    2.13
  -3  -5   9   -2.97    2.97
   3  -5   9    1.46    4.05
  -3  -5  -9    3.13    5.60
   3  -5  -9   -2.55    4.05
  -3   5   9   -1.59    2.03
   3   5   9   -1.15    1.87
  -3  -5  10   14.67    4.77
   3  -5  10   15.19    5.95
  -3  -5  10   12.73    5.79
   3   5  10   15.60    6.34
   3  -5  10   22.56    7.41
  -3  -5 -10   25.43    7.25
  -3   5  10   15.61    4.80
   3  -5 -10   23.26    6.84
  -3  -5  10   14.69    5.63
   3   5  10   20.48    6.11
  -3   5  10   33.61    7.62
   3  -5  11  600.71   33.08
  -3  -5  11  665.00   38.01
  -3  -5  11  617.31   31.07
  -3  -5 -11  619.18   35.93
   3  -5 -11  606.13   35.14
  -3   5  11  582.07   35.65
   3   5  11  637.70   31.30
  -3   5  11  539.66   34.30
   3  -5  11  614.38   36.27
   3   5  11  642.54   35.29
   3  -5  12   27.81    7.52
  -3  -5  12   17.82    5.78
   3   5  12   32.11    8.90
   3  -5  12   29.88    8.40
   3   5  12   28.12    7.13
  -3  -5 -12   22.10    6.45
  -3   5  12   41.37   10.78
  -3  -5  12   28.72    6.47
   3  -5 -12   29.31    7.88
  -3  -5  12   20.60    7.00
  -3   5  12   29.67    8.57
   3  -5  13   63.72   11.67
  -3  -5  13   53.42   11.65
   3   5  13   57.96    9.65
  -3  -5  13   64.57   10.61
  -3  -5  13   70.46   12.90
  -3  -5 -13   44.89   10.25
  -3   5  13   52.30   11.25
   3   5  13   53.27   10.20
  -3   5  13   65.64   13.31
   3  -5  13   73.54   13.31
   3  -5  14   14.60    5.53
  -3  -5  14   19.89    8.21
   3  -5  14   12.67    4.82
   3   5  14   25.79    9.84
  -3  -5 -14   11.64    4.56
  -3   5  14   13.41    4.47
  -3  -5  14   12.53    3.78
  -3  -5  14   34.17    9.67
   3   5  14   12.26    5.72
  -3   5  14   32.64    8.88
  -3  -5  15  114.86   16.20
  -3   5  15   73.21   13.45
  -3   5  15   66.47   13.46
   3  -5  15  105.52   16.18
  -3  -5  15   61.21   11.84
   3   5  15   63.79   11.54
  -3  -5 -15   67.89   12.85
   3   5  15   57.60   11.04
  -3  -5  15   69.91   14.71
   3  -5  16  443.65   33.75
  -3  -5  16  496.40   36.08
   3   5  16  378.25   30.84
  -3  -5  16  411.23   30.74
  -3  -5 -16  392.26   32.13
  -3   5  16  474.15   35.16
  -3  -5  16  408.39   36.35
   3   5  16  363.71   28.15
  -3   5  16  369.74   31.01
  -3  -5  17  168.98   20.35
  -3  -5 -17  211.66   24.14
  -3   5  17  144.56   20.79
   3  -5  17  145.70   19.98
  -3  -5  17  171.30   23.05
   3   5  17  162.98   19.38
  -3   5  17  216.47   23.59
   3   5  17  170.49   21.33
   3   5  18   26.65    8.28
  -3  -5 -18   22.46    8.63
  -3  -5  18   44.45   11.14
  -3   5  18   27.03    7.17
  -3  -5  18   31.89   10.44
   3   5  18   16.45    8.40
   3  -5  18   22.37    8.78
  -3   5  18   36.93   11.36
  -3   5  19   30.53   10.28
   3   5  19   18.75    7.18
  -3  -5  19   28.61    9.76
  -3  -5 -19   42.30   11.61
  -3   5  19   29.52   10.56
   3   5  19   35.85   11.32
  -3  -5  19   39.99   13.14
   3  -5  19   15.94    3.08
   3  -5  19   28.85   10.35
   3   5  20  122.15   19.02
  -3  -5  20  105.10   16.90
   3  -5  20   99.03   17.14
  -3  -5 -20   99.76   17.69
  -3   5  20   77.67   17.06
  -3   5  20  125.70   18.90
  -3  -5  20   55.63   12.79
   3  -5  20  102.93   17.51
   3   5  20  109.39   17.80
  -3   5  21  113.41   18.09
  -3  -5  21  154.33   21.68
   3  -5  21  167.99   22.33
   3  -5  21  168.24   23.81
  -3  -5 -21  142.60   21.50
  -3  -5  21  115.57   20.32
   3   5  21  153.01   22.19
  -3   5  21  124.68   19.99
   3   5  21  150.29   21.45
  -3   5  22  121.91   19.67
  -3  -5  22   96.45   18.02
   3  -5  22  135.39   20.71
  -3  -5 -22  114.33   19.35
  -3  -5  22  141.82   22.23
   3   5  22  105.28   18.83
  -3   5  22  102.73   17.74
   3  -5  22  130.48   21.71
   3   5  22  121.05   19.19
  -3   5  23    0.69    5.45
   3   5  23    6.37    5.05
  -3  -5  23    2.28    4.79
  -3  -5 -23    5.35    5.03
  -3  -5  23   14.41    5.80
  -3   5  23   -0.28    3.17
   3  -5  23   -2.95    4.96
   3   5  23   11.06    7.53
   3  -5  23   11.16    8.14
   3   5  24  317.43   34.31
  -3  -5  24  355.06   34.81
  -3   5  24  342.56   34.78
   3  -5  24  347.07   33.08
  -3  -5 -24  302.47   32.44
  -3  -5  24  340.94   36.48
  -3   5  24  255.78   29.84
   3  -5  24  340.97   35.25
   3   5  24  311.49   31.50
  -3   5  25   13.77    8.40
   3   5  25   10.08    5.49
  -3  -5 -25    6.60    7.49
  -3  -5  25   23.63   10.04
   3  -5  25   15.27    8.25
  -3   5  25   16.35    6.76
   3  -5  25    7.27   11.05
  -3  -5  25    3.48    4.31
   3   5  25    6.89    8.68
  -3  -5  26   63.40   14.68
  -3  -5 -26  106.05   20.16
  -3   5  26  101.74   20.74
  -3   5  26   73.20   15.62
   3  -5  26   78.35   17.90
  -3  -5  26  111.20   21.43
   3   5  26   86.71   17.78
   3   5  26   93.96   18.61
   3  -5  26   97.85   18.91
  -3   5  27   38.66   13.03
  -3  -5  27   83.92   21.68
   3   5  27   26.38    6.87
   3  -5  27   32.23   12.72
  -3  -5  27   59.97   16.68
  -3  -5 -27   43.86   11.93
  -3   5  27   33.48   12.08
   3   5  27   92.22   18.31
   3  -5  27   27.26    8.38
  -3   5  28   26.98    9.50
  -3   5  28   37.46   13.09
   3   5  28   42.15   12.00
   3  -5  28   43.05   12.90
  -3  -5 -28    6.20    6.76
  -3  -5  28   13.00   11.52
   3   5  28   51.63   15.28
   3  -5  28   33.30   11.64
   3  -5  29    2.85    7.86
  -3   5  29    7.38    7.60
   3   5  29    4.79    4.10
  -3   5  29    5.22    7.44
  -3  -5 -29    1.11    5.39
  -3  -5  29   18.37   13.08
   3   5  29   -6.77   11.51
   3  -5  29   -1.57    5.88
  -3   5  30   48.82   14.34
   3  -5  30   58.62   16.32
  -3  -5 -30   28.88   11.18
  -3   5  30   65.15   18.26
  -3  -5  30   65.63   19.18
   3   5  30   63.32   17.21
   3  -5  30   52.76   16.38
   3   5  30   23.27    9.01
   3  -6   0    2.70    4.66
  -3  -6   0    0.57    3.23
   3  -6   0   -1.01    3.10
  -3  -6   0    1.27    3.00
  -3  -6   1    9.46    3.68
  -3  -6   1    9.72    5.99
  -3  -6  -1   11.85    5.41
   3  -6   1    6.62    5.28
   3  -6  -1   14.47    5.94
  -3   6   1   12.69    6.46
   3  -6  -1    7.01    3.21
  -3  -6  -1    4.32    2.54
   3  -6   1    8.18    1.75
   3  -6  -2  505.95   31.96
  -3  -6   2  512.93   31.36
   3  -6   2  482.58   28.20
  -3  -6  -2  489.13   30.37
   3  -6  -2  487.64   28.49
  -3   6   2  493.63   30.47
  -3  -6   2  500.63   25.38
   3  -6   2  497.64   32.91
  -3  -6   3   54.90   10.84
   3  -6  -3   58.19   10.50
   3  -6   3   52.39   10.04
  -3   6   3   55.19   10.84
  -3  -6  -3   53.08   10.83
   3  -6  -3   55.61   10.20
  -3  -6   3   60.57    9.11
   3  -6   3   46.02   10.40
  -3  -6   3   62.71    6.04
   3  -6   4   46.55    8.71
  -3  -6   4   59.83    8.43
  -3  -6   4   44.40    9.60
   3  -6   4   48.11    9.83
   3  -6  -4   61.06   11.04
   3  -6  -4   50.38    9.38
  -3  -6  -4   46.79    9.12
   3   6   4   54.65    8.33
  -3   6   4   55.22   10.31
  -3  -6   4   52.12    5.96
  -3  -6   5   55.97    9.00
   3  -6   5   53.66   10.77
  -3   6   5   46.88    9.68
  -3  -6   5   52.46   10.36
   3  -6   5   48.52    8.81
   3  -6  -5   43.53    8.30
  -3  -6  -5   48.26    9.66
  -3  -6   5   68.25    7.98
   3   6   5   51.72    9.57
   3  -6  -5   42.91    7.96
  -3  -6   6  149.25   17.57
   3  -6   6  122.45   16.16
   3  -6   6  116.54   14.73
  -3  -6  -6  144.13   17.37
   3  -6  -6  125.86   15.26
   3  -6  -6  102.73   14.83
  -3   6   6  107.13   14.95
   3   6   6  123.77    7.36
  -3  -6   6  108.44   11.03
   3   6   6  161.14   16.02
  -3  -6   6  126.86   12.72
  -3  -6   7    2.85    5.42
   3  -6   7    2.33    1.73
  -3  -6   7    0.43    2.27
  -3  -6  -7    2.50    3.69
  -3   6   7    0.74    4.61
   3  -6  -7   -3.68    3.57
   3   6   7   -0.32    1.20
   3  -6   7   -4.22    6.17
  -3  -6   7   -0.08    2.10
   3   6   7   -0.48    4.39
  -3  -6   8   68.20   12.54
   3   6   8   71.02   10.89
  -3   6   8   80.75   12.99
   3  -6   8   60.39   11.89
  -3  -6  -8   85.20   13.93
   3  -6  -8   75.69   12.49
   3   6   8   61.93    7.24
  -3  -6   8   65.14    9.78
  -3  -6   8   65.71    9.51
   3  -6   8   75.70   11.62
   3   6   9   22.64    7.26
  -3  -6   9   23.70    7.46
  -3  -6   9   28.19    6.78
   3  -6   9   10.04    4.11
   3  -6   9   16.56    6.17
  -3  -6  -9   10.39    5.87
  -3   6   9   22.69    7.81
  -3   6   9   25.73    7.11
   3   6   9   22.57    5.14
  -3  -6   9   24.66    6.73
   3  -6  -9   15.82    5.86
   3   6  10   18.69    6.75
  -3  -6  10    8.18    2.85
  -3  -6  10   22.46    7.39
   3  -6  10    3.00    2.24
   3   6  10   12.45    3.74
   3  -6  10   12.68    5.52
  -3  -6 -10   17.95    6.72
  -3   6  10   10.53    6.29
   3  -6 -10   17.21    5.06
  -3   6  10   13.79    6.53
  -3  -6  10    6.88    2.26
   3   6  11   15.39    8.16
   3  -6  11    9.48    2.18
  -3  -6  11   26.15    8.81
   3  -6  11    2.17    4.49
  -3  -6 -11   16.33    7.73
  -3   6  11   15.82    7.12
   3   6  11   25.10    6.75
  -3  -6  11   23.68    8.39
  -3   6  11   26.07    7.32
   3  -6 -11   12.05    5.58
  -3  -6  11   10.47    4.63
   3   6  12   -5.63    6.61
   3  -6  12    2.30    5.24
  -3  -6 -12    0.46    2.64
   3  -6  12    1.65    1.91
  -3  -6  12    0.44    4.95
  -3  -6  12    4.05    3.36
   3   6  12    2.90    2.04
  -3   6  12    4.86    5.47
  -3  -6  12    5.74    4.52
   3  -6 -12    0.09    3.55
  -3   6  12    2.39    5.94
   3  -6  13   94.41   14.40
  -3  -6  13   55.70   11.61
   3  -6  13   65.83   12.50
   3   6  13   88.30   12.23
  -3  -6 -13   73.59   12.91
  -3  -6  13   78.42   12.82
  -3  -6  13   46.96   10.25
  -3   6  13   67.45   13.65
   3  -6 -13   53.15   11.78
  -3   6  13   65.29   13.82
   3   6  13   72.60   12.92
   3  -6  14  110.32   16.53
  -3  -6  14   98.87   16.27
  -3  -6  14   80.45   13.23
  -3   6  14  111.07   17.80
  -3  -6  14  117.86   15.95
  -3  -6 -14  116.03   17.68
   3  -6 -14   86.19   15.10
  -3   6  14  136.44   17.98
   3   6  14   98.55   14.13
   3  -6  14   94.28   15.86
   3   6  14  126.60   17.24
   3  -6  15    9.90    6.42
  -3  -6  15    9.84    5.72
   3   6  15   11.85    7.92
   3  -6  15    9.23    8.02
  -3  -6 -15    4.29    4.67
  -3   6  15    6.71    4.10
   3  -6 -15   13.63    7.33
  -3  -6  15   18.85    6.40
   3   6  15    8.24    3.85
  -3  -6  15   10.34    7.28
  -3   6  15   13.57    8.29
   3  -6  16    4.73    4.23
  -3  -6  16    5.71    4.06
   3  -6  16   -2.07    4.05
   3   6  16   -2.28    3.85
  -3  -6 -16    4.55    6.60
   3  -6 -16   -1.62    3.69
  -3  -6  16   -2.53    3.13
   3   6  16    0.19    2.79
  -3  -6  16   -2.10    3.27
  -3   6  16   -0.68    2.22
  -3   6  16   -2.06    5.00
  -3  -6  17   25.16    8.82
   3  -6  17    5.16    2.70
   3   6  17   23.67    8.83
  -3  -6 -17   18.93    9.54
  -3   6  17   -2.87    3.14
  -3  -6  17   22.35    8.54
   3  -6 -17   35.97   11.25
   3   6  17   23.96    8.11
  -3  -6  17   20.25    9.07
  -3   6  17   18.26    8.25
   3  -6  18   19.32    9.12
   3   6  18   17.74    8.46
   3   6  18   -2.76    6.79
   3  -6 -18   22.90    8.60
  -3  -6  18    6.96    4.81
  -3  -6 -18    4.93    4.33
  -3   6  18    8.27    5.77
  -3  -6  18   16.82    8.14
  -3   6  18    6.71    3.93
  -3  -6  18    6.59    6.84
   3   6  19   11.59    9.26
  -3  -6  19   26.89   10.36
  -3  -6 -19   17.22    7.71
  -3   6  19    9.60    7.34
   3  -6 -19   11.17    7.52
  -3  -6  19    3.93    7.98
   3   6  19   -0.68    2.91
   3  -6  19   -2.29    6.54
   3  -6  19    0.41    3.22
  -3   6  19   10.13    4.36
   3   6  20   35.47   10.23
  -3  -6  20   28.18   10.66
  -3   6  20   33.05   11.46
  -3  -6  20   12.56    6.61
  -3  -6 -20   31.34    9.49
   3  -6 -20   21.50   10.47
   3   6  20   34.01    6.89
   3  -6  20   22.27    8.03
  -3   6  20   20.46    7.29
   3  -6  20   41.30   13.02
  -3   6  21   -1.50    6.50
  -3  -6  21    8.77    6.50
   3   6  21   -0.39    4.26
  -3  -6 -21   -2.25    2.87
   3  -6 -21   -4.30    5.15
   3   6  21   -1.48    7.22
  -3  -6  21   -1.11    4.85
   3  -6  21    5.32    6.69
   3  -6  21    3.12    3.93
  -3   6  21    1.42    2.82
   3   6  22   -4.90    3.60
  -3  -6 -22   -0.23    6.16
  -3   6  22   -0.03    2.92
   3  -6 -22    0.61    4.26
   3   6  22    1.91    3.30
   3  -6  22   -7.61    7.57
  -3  -6  22   -5.54    3.40
  -3  -6  22    7.83    6.93
   3  -6  22    5.02    6.79
  -3   6  22    3.51    7.06
  -3   6  23    7.58    6.72
   3   6  23    8.56    5.45
  -3  -6  23    1.66    4.04
   3  -6 -23   -3.34    5.60
  -3  -6 -23   15.19    9.33
   3  -6  23    5.20    4.30
  -3  -6  23    6.07    5.70
   3   6  23    1.51    7.79
   3  -6  23   10.60    8.90
  -3   6  23    8.55    7.66
   3  -6  24   14.03    9.63
   3   6  24   16.22    5.31
  -3  -6  24   27.40   12.48
  -3  -6 -24   15.53    9.26
  -3   6  24   13.61    7.41
   3  -6 -24   20.50    9.49
   3  -6  24    8.26    3.79
   3   6  24   33.79   10.93
  -3  -6  24    5.12    8.34
  -3   6  24   14.94    9.37
   3  -6  25    2.19    3.09
  -3  -6 -25   -0.78    6.62
  -3  -6  25  -12.96    6.82
   3  -6 -25    5.86   10.18
  -3   6  25   10.48    6.76
   3   6  25    4.18    6.06
   3   6  25    6.06    4.62
  -3  -6  25   -3.28    8.79
   3  -6  25    4.28    4.20
  -3   6  25   -2.71    6.06
  -3   6  26   -0.62    3.23
   3  -6 -26   -6.57    7.84
   3   6  26   -2.18    4.50
   3  -6  26   -0.83    4.11
  -3  -6 -26    6.78    8.01
   3  -6  26    1.33    6.33
  -3   6  26    3.05    4.11
   3   6  26    2.08    6.33
  -3  -6  26    0.18    4.96
   3   6  27   -0.03    5.04
  -3   6  27   -2.01    6.73
   3  -6  27    6.83    8.22
  -3  -6 -27   10.50    5.69
   3  -6 -27   -4.05    7.75
  -3  -6  27   -5.19    8.95
   3  -6  27   -4.53    7.28
  -3   6  27   -7.07    7.48
  -3  -6  28    0.89    4.46
   3   6  28    2.72    4.98
   3  -6  28   -4.21    6.58
   3  -6  28    5.95    5.42
  -3  -6 -28   -3.81    4.60
  -3   6  28   12.02    8.71
   3  -6 -28   -2.54    6.92
  -3   6  28    0.51    3.30
   3  -6  29   44.99   14.22
   3   6  29   50.85   15.32
  -3   6  29   57.18   17.45
  -3  -6 -29   49.08   14.22
   3  -6 -29   39.49   13.57
  -3  -6  29   48.06   12.98
   3  -6  29   54.56   15.93
  -3   6  29   28.12   13.39
  -3  -7   0   -0.11    3.21
   3  -7   0    3.95    5.82
  -3  -7   0    0.54    2.60
   3  -7   0   -0.39    3.41
  -3  -7  -1  586.58   30.36
  -3  -7   1  566.53   35.42
  -3  -7  -1  666.36   37.61
   3  -7   1  608.69   34.38
   3  -7  -1  603.99   33.91
  -3   7   1  640.50   35.95
   3  -7   1  562.86   36.41
  -3  -7   1  596.60   30.52
   3  -7  -1  596.59   36.82
  -3  -7  -2   41.10    8.35
  -3  -7   2   36.54    8.51
   3  -7   2   33.41    8.29
  -3  -7  -2   33.85    9.41
   3  -7  -2   33.00    7.96
  -3   7   2   31.89    7.62
  -3  -7   2   44.34    8.79
   3  -7  -2   51.19   10.80
   3  -7   2   43.77   11.56
   3  -7  -3  869.39   43.81
  -3  -7   3  843.72   43.20
  -3  -7  -3  789.96   41.52
  -3   7   3  830.69   41.20
   3  -7  -3  836.92   40.63
  -3  -7   3  838.28   36.93
   3  -7   3  786.92   39.38
   3  -7   3  741.01   42.69
  -3  -7   4 1239.70   53.13
   3  -7   4 1214.77   49.32
   3  -7  -4 1221.19   52.00
  -3  -7  -4 1168.27   50.46
  -3  -7   4 1207.85   43.51
   3  -7  -4 1188.22   48.87
   3  -7   4 1171.57   53.16
  -3   7   4 1162.15   49.17
  -3  -7   5 1067.70   49.63
   3  -7   5 1016.36   45.26
  -3  -7   5 1036.03   40.44
  -3  -7  -5 1067.01   48.08
   3  -7  -5 1051.61   48.51
   3  -7   5 1054.71   50.56
   3  -7  -5 1066.20   46.63
  -3  -7   5 1172.43   33.83
  -3   7   5 1003.94   45.53
  -3  -7   6  199.01   17.62
  -3  -7   6  127.11   17.80
   3  -7   6  214.17   21.21
   3  -7   6  194.84   21.37
  -3  -7  -6  189.79   21.00
   3  -7  -6  221.26   21.78
  -3   7   6  244.72   23.40
   3  -7  -6  190.22   20.72
  -3  -7   6  143.23   13.48
   3   7   6  217.61   19.56
   3  -7   7    5.88    7.19
  -3  -7   7   13.36    6.05
   3  -7   7    2.85    2.37
  -3  -7  -7    1.77    4.37
  -3  -7   7   -3.59    1.84
   3  -7  -7    2.75    3.54
   3  -7  -7    5.47    5.76
  -3   7   7    3.19    3.72
   3   7   7    0.89    1.01
  -3  -7   7    4.15    3.37
   3   7   7    3.10    4.55
  -3  -7   8  440.53   33.41
   3  -7   8  363.61   27.87
   3  -7   8  372.24   29.91
  -3   7   8  376.18   28.79
  -3  -7  -8  269.97   24.58
   3  -7  -8  348.80   27.41
  -3  -7   8  304.98   21.59
   3   7   8  359.10   26.75
  -3  -7   8  392.99   25.19
   3   7   8  368.27   16.20
   3  -7   9  762.66   42.61
   3  -7   9  738.05   40.44
  -3  -7  -9  767.24   42.74
   3  -7  -9  736.07   41.23
   3   7   9  700.02   25.04
  -3   7   9  638.23   37.61
  -3  -7   9  660.10   40.37
  -3  -7   9  843.81   38.18
  -3  -7   9  743.62   36.14
   3   7   9  821.98   41.32
  -3  -7  10   92.74   15.15
   3  -7  10   73.33   12.72
   3  -7  10   61.69   11.48
  -3  -7 -10   65.61   12.65
   3  -7 -10   86.05   14.61
   3   7  10   72.81    9.09
  -3   7  10   76.65   13.55
  -3  -7  10   71.99   11.18
  -3   7  10  108.13   16.31
  -3  -7  10   63.59   11.21
   3   7  10   49.76   10.25
  -3  -7  11   21.28    7.78
   3  -7  11   16.27    7.65
  -3  -7  11   10.94    5.45
   3  -7  11   10.57    6.50
  -3   7  11   10.06    7.19
   3  -7 -11    1.71    2.86
  -3  -7 -11   19.17    7.26
   3   7  11    4.20    4.29
   3   7  11    8.67    4.57
  -3   7  11   13.30    6.79
  -3  -7  11    8.11    4.49
  -3  -7  12  109.08   16.86
   3  -7  12  134.10   18.57
  -3  -7  12  115.70   15.36
  -3  -7 -12   83.01   14.81
  -3   7  12  129.13   18.21
  -3  -7  12  102.01   16.01
   3  -7 -12  116.68   17.04
   3   7  12  144.85   14.83
   3   7  12  129.75   17.49
   3  -7  12  121.03   17.76
   3  -7  13 1074.16   51.41
  -3  -7  13 1000.59   51.82
  -3  -7 -13  959.61   50.65
  -3   7  13  945.54   49.12
  -3   7  13  960.92   50.70
   3  -7 -13  989.73   51.23
  -3  -7  13 1003.45   46.36
   3   7  13  992.84   48.58
   3   7  13 1080.66   42.73
  -3  -7  13 1137.09   51.60
   3  -7  13  986.16   49.44
  -3   7  14   22.84    8.87
   3   7  14   31.01    8.23
   3  -7  14   24.19    8.57
  -3  -7  14   23.09    9.52
   3  -7  14   17.97    6.02
  -3   7  14   21.04    8.45
  -3  -7  14   26.85    9.61
  -3  -7 -14   18.55    5.99
   3  -7 -14   19.00    7.05
   3   7  14   18.35    6.43
  -3  -7  14   25.48    8.44
   3   7  15   10.42    5.50
   3  -7  15    1.66    5.40
   3  -7  15   12.07    5.20
  -3  -7  15    5.90    2.76
  -3  -7 -15    3.56    5.81
  -3   7  15   18.92   10.70
   3  -7 -15    2.74    3.75
   3   7  15    5.25    3.32
  -3  -7  15    3.33    4.29
  -3  -7  15    9.37    6.78
  -3   7  15    9.11    7.60
   3   7  16   43.66   11.88
   3  -7  16   33.41    9.82
  -3  -7  16   31.65    8.17
   3  -7  16   41.09   10.34
  -3  -7 -16   35.06   10.49
  -3   7  16   30.85    9.82
   3  -7 -16   33.21   10.03
   3   7  16   38.55    9.51
  -3  -7  16   40.47    9.23
  -3  -7  16   20.26    7.97
  -3   7  16   42.62   12.75
  -3   7  17  451.20   36.94
  -3  -7  17  464.70   37.06
  -3  -7  17  438.81   33.41
  -3  -7 -17  468.58   37.55
   3  -7 -17  442.50   35.94
   3  -7  17  441.38   34.67
   3   7  17  414.07   31.61
  -3   7  17  366.82   33.01
  -3  -7  17  359.85   33.69
   3   7  17  393.92   33.38
   3  -7  17  420.34   35.91
  -3  -7  18   -0.15    3.81
   3  -7  18   -3.53    5.97
   3   7  18    1.24    3.86
   3  -7  18   11.74    5.92
  -3   7  18    5.78    8.60
   3  -7 -18    4.57    2.75
  -3  -7 -18   13.12    5.20
  -3  -7  18   12.68    7.43
  -3  -7  18   14.52    6.74
  -3   7  18    3.42    4.58
   3  -7 -19  314.75   31.47
  -3  -7  19  318.25   29.74
  -3   7  19  285.69   30.82
  -3  -7 -19  309.06   31.62
   3  -7  19  334.07   32.11
  -3  -7  19  294.72   31.08
  -3   7  19  321.47   31.83
   3   7  19  263.39   28.53
   3   7  20   44.45   12.98
  -3  -7  20   48.32   12.89
  -3   7  20   55.73   14.70
   3  -7 -20   58.44   13.56
  -3  -7  20   54.19   12.45
  -3  -7 -20   58.33   14.03
  -3   7  20   46.60   13.39
   3  -7  20   54.29   12.37
   3  -7  20   52.44   13.37
   3   7  21   65.85   15.04
  -3  -7  21  103.15   19.63
   3  -7 -21   92.97   18.23
  -3   7  21   72.64   16.07
  -3  -7  21   90.99   18.82
   3  -7  21   61.69   13.37
  -3   7  21   89.19   16.54
  -3  -7 -21   61.56   13.71
   3  -7  21   40.15   10.33
   3   7  22   48.56   12.84
  -3  -7 -22   42.16   14.03
   3  -7 -22   23.52   10.07
  -3  -7  22   47.39   14.75
  -3   7  22   24.56   10.51
   3  -7  22   30.02   11.57
  -3   7  22   36.89   11.15
   3  -7  22   37.99   12.75
  -3  -7 -23  326.20   32.82
   3  -7  23  338.58   35.12
  -3   7  23  315.52   33.52
   3  -7  23  334.26   33.94
   3  -7 -23  342.60   33.98
  -3   7  23  304.29   32.01
   3   7  23  301.19   31.79
   3   7  24    0.54    4.57
  -3   7  24    0.82    6.52
  -3  -7 -24   -2.95    4.44
   3  -7 -24    2.94    5.47
   3  -7  24    4.19    6.42
  -3  -7  24    4.76    7.59
  -3   7  24    2.94    3.18
   3  -7  24    5.47    7.26
   3  -7 -25   63.90   16.03
   3   7  25   68.03   16.57
  -3   7  25   54.63   15.52
  -3  -7 -25   50.15   11.69
   3  -7  25   83.20   17.36
  -3  -7  25   54.88   15.31
  -3   7  25   55.35   15.16
   3  -7  25   65.19   16.21
   3   7  26    0.57    7.89
  -3  -7 -26    2.27    5.75
  -3   7  26    0.69    5.67
   3  -7 -26    4.23    7.69
   3  -7  26    5.79    6.76
  -3  -7  26   -8.93   11.81
   3  -7  26    0.41    5.93
  -3   7  26   -2.00    5.46
   3  -7  27  352.49   35.89
   3  -7 -27  307.00   34.06
  -3  -7 -27  336.08   36.51
  -3   7  27  377.89   37.82
  -3  -7  27  311.50   37.54
  -3   7  27  347.74   35.16
   3  -7  27  367.82   38.10
   3   7  27  341.66   35.38
   3   7  28   22.09    9.30
   3  -7  28   -2.67    4.23
  -3  -7 -28   14.24   10.68
   3  -7 -28    9.66    8.74
  -3   7  28   15.25   10.53
  -3  -7  28   17.64   10.04
   3  -7  28    9.48   10.84
  -3   7  28   13.33    5.93
   3  -8   0    5.95    7.96
  -3  -8   0    1.20    4.99
  -3  -8   0   -1.34    2.86
   3  -8   0   -1.35    4.93
  -3  -8   1    9.74    5.18
   3  -8  -1    6.56    3.70
  -3  -8   1    8.41    6.38
  -3  -8  -1   11.13    7.15
   3  -8   1   13.00    5.25
   3  -8  -1    6.98    3.08
  -3  -8  -1   13.82    4.94
   3  -8   1   16.67    7.05
  -3  -8   2    5.28    4.66
   3  -8   2   -3.41    4.70
  -3  -8  -2    3.18    5.28
  -3  -8  -2    7.06    5.54
  -3   8   2    1.18    3.81
   3  -8  -2    0.22    1.61
   3  -8  -2   -0.06    3.90
   3  -8   2    2.61    3.74
  -3  -8   2    5.97    5.97
   3  -8  -3  155.84   19.57
  -3  -8   3  165.12   20.35
   3  -8   3  177.49   19.83
  -3  -8  -3  164.54   20.22
   3  -8  -3  152.44   18.70
  -3   8   3  139.86   18.15
  -3  -8  -3  156.42   16.97
  -3  -8   3  174.27   18.24
   3  -8   3  175.73   21.95
  -3  -8   4   82.94   15.05
   3  -8   4   78.60   13.56
   3  -8  -4   69.99   12.58
  -3   8   4   66.64   12.65
  -3  -8  -4   79.42   14.72
  -3  -8   4   79.31   12.68
   3  -8   4   98.59   16.55
   3  -8  -4   61.54   11.42
  -3  -8  -4   70.72   12.35
   3  -8   5   52.62   10.68
  -3  -8   5   54.78   10.68
  -3  -8   5   51.89   11.48
   3  -8   5   38.47   10.18
   3  -8  -5   56.98   12.38
  -3  -8  -5   35.77    8.76
  -3   8   5   28.67    7.21
   3  -8  -5   37.12   11.02
  -3  -8   6   77.57   12.36
  -3  -8   6   45.20   11.18
   3  -8   6   55.41   11.86
  -3  -8  -6   73.27   14.16
   3  -8   6   90.09   16.65
   3  -8  -6   77.67   14.95
   3  -8  -6   75.20   12.95
  -3   8   6   81.90   13.89
   3   8   6   60.28   10.91
  -3  -8   7   10.06    4.87
  -3  -8   7    7.16    5.39
   3  -8   7   31.47    8.97
   3  -8  -7   27.57    8.72
  -3  -8  -7   19.39    6.04
  -3   8   7   18.02    5.42
   3   8   7   15.99    5.99
   3  -8  -7   23.55    7.77
  -3  -8   8   92.58   17.21
   3  -8   8   90.58   14.97
   3  -8   8  145.97   19.90
  -3  -8  -8   86.37   14.13
   3  -8  -8  139.83   18.88
  -3   8   8  122.22   17.02
   3  -8  -8  115.84   16.95
   3   8   8  117.08   16.05
  -3  -8   8  113.20   13.82
  -3  -8   9  174.05   21.91
   3  -8   9  204.85   23.06
  -3  -8  -9  152.18   20.72
   3  -8  -9  196.85   21.85
   3   8   9  176.84   20.94
  -3  -8   9  168.81   17.81
   3  -8   9  151.97   19.59
   3  -8 -10   35.93   10.61
  -3  -8  10   22.05    7.06
   3  -8  10   27.43    9.04
  -3  -8  10   37.80    9.70
  -3  -8 -10   34.90    9.28
  -3   8  10   41.93   11.04
   3  -8  10   34.35   11.52
  -3  -8  10   60.49   13.10
   3   8  10   53.89   12.00
  -3  -8  11   17.66    9.07
   3  -8  11   11.36    6.95
  -3  -8  11    7.72    6.11
   3  -8  11    7.93    5.70
   3  -8 -11   18.44    8.39
  -3   8  11   23.12    9.40
  -3  -8 -11   10.64    7.20
  -3  -8  11   15.58    7.13
   3   8  11    5.36    2.53
  -3  -8  12   16.90    3.91
  -3  -8  12   33.64    8.94
   3  -8  12   30.12    7.66
  -3  -8 -12   26.47    8.24
   3  -8  12   19.22    7.87
   3  -8 -12   24.48    8.02
  -3   8  12   17.36    6.35
  -3   8  12   29.55    8.63
  -3  -8  12   30.31    8.08
   3   8  12   38.49    9.42
  -3  -8  13    5.75    4.15
   3  -8  13   18.42    7.03
  -3  -8  13   -0.28    3.67
   3  -8 -13   12.88    5.59
   3  -8  13   12.13    5.67
  -3   8  13   14.19    7.07
  -3   8  13    7.18    6.15
  -3  -8  13   11.53    5.29
  -3  -8 -13    8.16    4.80
   3   8  13    7.71    6.92
   3   8  14    9.11    7.43
   3  -8  14   -1.12    2.51
  -3  -8  14    0.53    3.39
   3  -8  14    1.70    6.17
   3  -8 -14    8.17    7.71
  -3   8  14   -3.09    5.68
  -3  -8  14    0.54    5.60
  -3  -8 -14    0.42    3.81
  -3   8  14   -2.22    4.80
  -3  -8  14   -1.51    4.36
  -3  -8  15   88.30   16.68
   3  -8 -15   72.25   15.00
   3  -8  15   78.67   13.39
  -3  -8  15   89.78   15.73
   3  -8  15   64.81   13.87
  -3  -8 -15   77.78   15.74
  -3   8  15  112.22   18.24
   3   8  15   88.77   15.21
  -3   8  15   81.46   14.07
  -3  -8  15   69.27   14.46
   3  -8  16    0.77    8.43
  -3  -8  16    8.10    7.03
   3  -8  16    7.14    6.43
  -3  -8 -16    3.37    5.49
   3  -8 -16    0.28    4.50
  -3   8  16   -3.04    3.29
  -3   8  16    3.08    6.60
  -3  -8  16    3.45    3.17
  -3  -8  16    6.43    5.87
   3   8  16   10.54    6.00
   3  -8  17   61.76   15.57
  -3  -8  17   75.92   15.60
  -3  -8 -17   73.58   15.82
  -3   8  17   97.60   18.06
  -3  -8  17  105.53   18.92
   3  -8 -17   98.14   18.55
   3  -8  17   89.33   16.56
  -3   8  17   94.73   15.90
   3   8  17  109.97   18.24
  -3  -8  17  103.68   19.89
   3   8  18   12.77    6.43
   3  -8  18   11.18    3.89
  -3  -8  18    6.93    7.43
   3  -8  18   12.86    7.82
  -3  -8 -18   14.24    8.57
   3  -8 -18   12.51    7.14
  -3  -8  18   -9.80    3.95
  -3  -8  18    6.48    6.73
  -3   8  18    7.91    5.50
  -3   8  18    4.99    5.26
   3   8  19   16.67    9.78
   3  -8  19    6.22    5.88
   3  -8 -19   11.05    8.44
  -3  -8 -19   -4.13    6.63
  -3  -8  19   -7.25    6.16
  -3   8  19    5.13    3.86
   3  -8  19    2.39    5.43
  -3   8  19    5.69    5.12
  -3  -8  19    4.80    7.93
   3  -8  20   19.39    9.17
   3   8  20   36.69    8.79
  -3  -8  20   47.67   14.30
   3  -8 -20   31.95    9.01
  -3  -8 -20   42.15   11.85
  -3   8  20   22.57    8.20
  -3  -8  20   20.89   11.79
  -3   8  20   26.46    9.19
   3  -8  20   40.85   11.65
   3   8  21   -1.73    8.28
  -3  -8 -21    4.42    7.78
   3  -8  21   -6.41    7.24
   3  -8 -21   -1.04    2.98
  -3   8  21   -3.45    6.73
  -3  -8  21    7.51    7.44
  -3   8  21   -5.12    6.81
   3  -8  21   -5.65    6.48
   3   8  22    2.99    4.90
   3  -8 -22    7.75   10.26
  -3  -8 -22   10.49    8.73
  -3  -8  22    7.56    7.35
  -3   8  22    7.94    7.89
  -3   8  22    9.17    6.70
   3  -8  22   16.97    9.33
   3  -8  22   15.46    7.05
   3   8  23   -3.79    2.76
  -3  -8 -23    7.69    9.45
   3  -8 -23   -4.97    7.12
  -3   8  23    6.08    6.93
  -3  -8  23   -1.31    5.36
   3  -8  23    1.29    2.74
  -3   8  23   -0.89    2.95
   3  -8  23   -4.82    3.91
   3   8  24   36.21   11.87
  -3   8  24   15.07    7.17
  -3  -8 -24   16.61    7.18
   3  -8  24   23.72   10.21
   3  -8 -24   17.08    8.64
  -3  -8  24    6.79    4.95
  -3   8  24   14.48    6.38
   3  -8  24   29.17   10.04
   3   8  25    1.30    5.73
  -3  -8 -25   -6.99    8.15
   3  -8 -25   -0.62    4.35
  -3   8  25    8.15    3.33
   3  -8  25    7.30    3.16
  -3  -8  25    2.74    7.46
  -3   8  25   18.19    8.61
   3  -8  25   20.58   11.43
   3   8  26   -4.21    3.29
  -3   8  26    1.61    4.37
  -3  -8 -26    2.81    7.65
   3  -8 -26    3.21    5.31
   3  -8  26    3.03    2.88
  -3  -8  26   -6.13    4.92
  -3   8  26   15.60   10.58
   3  -8  26   -3.20    6.87
   3   8  27    0.59    5.35
  -3   8  27   -0.72    6.09
  -3  -8 -27    1.64    8.52
   3  -8 -27   -1.03    6.03
   3  -8  27   12.59    8.97
  -3  -8  27    8.01    8.00
  -3   8  27   13.55    8.26
   3  -8  27   10.51   10.92
   3  -9   0   -5.57    5.84
  -3  -9   0   -3.79    4.92
  -3  -9   0    0.89    3.45
   3  -9   0    0.80    5.49
  -3  -9   1  808.76   42.91
  -3  -9  -1  885.83   48.92
   3  -9   1  851.10   46.30
   3  -9  -1  881.36   46.91
  -3  -9   1  854.61   47.91
  -3  -9  -1  793.08   42.08
   3  -9   1  864.31   49.71
   3  -9  -1  891.79   50.06
  -3  -9  -2   74.71   12.76
   3  -9  -2   84.29   15.04
  -3  -9   2   57.19   13.34
   3  -9   2   51.96   13.16
   3  -9   2   48.75   10.41
  -3  -9  -2   63.12   12.41
   3  -9  -2   48.68   12.38
  -3  -9   2   72.06   13.22
   3  -9  -3    5.01    4.63
  -3  -9   3    0.74    3.88
   3  -9   3   -2.97    4.59
  -3  -9   3   -0.63    4.27
  -3  -9  -3    7.47    3.91
   3  -9  -3    3.13    4.20
  -3  -9  -3   -4.78    5.99
  -3   9   3    5.37    6.70
   3  -9   3   -2.93    4.77
   3  -9  -4  220.33   23.57
  -3   9   4  232.01   24.38
  -3  -9   4  195.20   23.28
   3  -9   4  172.22   21.33
  -3  -9  -4  207.83   23.47
   3  -9  -4  205.44   22.46
  -3  -9   4  219.86   21.92
  -3  -9  -4  183.13   19.97
   3  -9   4  176.49   23.52
  -3  -9   5 1161.65   57.23
   3  -9   5 1195.48   56.20
  -3  -9  -5 1147.21   55.97
  -3  -9   5 1187.49   50.55
   3  -9  -5 1151.34   55.23
  -3  -9  -5 1241.11   52.71
   3  -9   5 1320.09   61.56
   3  -9  -5 1119.93   54.75
  -3   9   5 1247.57   55.91
  -3  -9   6  187.98   23.45
   3  -9   6  222.39   24.02
  -3  -9   6  173.41   18.88
   3  -9  -6  158.95   20.95
  -3  -9  -6  197.58   23.03
   3  -9   6  193.06   23.83
   3  -9  -6  199.31   23.66
  -3   9   6  207.09   23.42
  -3  -9   7  209.22   21.42
  -3  -9   7  238.03   26.74
   3  -9   7  257.44   26.65
  -3  -9  -7  214.37   25.05
   3  -9  -7  271.86   26.99
   3  -9  -7  218.66   23.96
   3  -9   7  232.98   24.42
  -3   9   7  223.47   24.16
  -3  -9   8  158.09   21.13
   3  -9   8  131.97   19.02
   3  -9   8  192.10   25.42
  -3  -9  -8  179.10   22.32
   3  -9  -8  186.35   22.64
   3  -9  -8  169.77   21.37
  -3   9   8  195.79   22.95
  -3  -9   8  193.61   20.93
   3   9   8  219.69   23.12
  -3  -9   9  590.54   40.89
   3  -9   9  558.10   38.91
   3  -9   9  530.73   39.80
  -3  -9  -9  533.07   38.57
   3  -9  -9  489.78   36.95
   3  -9  -9  527.80   38.22
  -3  -9   9  500.52   32.89
   3   9   9  618.90   39.09
  -3   9   9  568.89   39.59
  -3  -9  10  206.79   24.97
   3  -9  10  197.52   23.11
   3  -9 -10  239.71   26.27
  -3  -9 -10  220.95   25.25
   3  -9 -10  217.20   24.29
  -3  -9  10  229.47   22.65
   3   9  10  233.73   24.55
  -3   9  10  227.24   24.58
  -3  -9  11   67.52   14.54
   3  -9  11   71.52   13.97
  -3  -9 -11   87.27   15.30
   3  -9 -11   75.92   15.18
  -3  -9  11   71.07   13.16
   3   9  11   70.69   14.98
  -3   9  11   66.20   14.79
   3  -9  11   94.10   16.35
  -3  -9  12   16.33    7.81
   3  -9  12   -0.50    5.93
  -3  -9  12    1.08    4.40
  -3   9  12   -1.09    5.64
   3   9  12   -1.11    5.48
  -3  -9 -12    3.92    7.21
   3  -9  12    2.34    2.33
   3  -9 -12   -0.71    2.98
   3  -9  13  184.94   24.42
  -3  -9  13  185.78   24.11
  -3  -9 -13  188.50   24.11
   3  -9 -13  148.10   21.44
  -3   9  13  178.36   22.66
  -3  -9  13  180.59   22.17
   3   9  13  189.43   23.14
   3  -9  13  201.88   23.66
   3  -9  14   89.57   15.51
  -3  -9  14   80.45   16.92
   3  -9 -14   74.03   15.41
  -3   9  14   75.17   16.07
  -3  -9 -14   65.86   14.79
   3  -9  14   70.91   15.86
   3   9  14   74.80   15.01
   3  -9  15   10.48    8.69
  -3  -9  15   -0.02    6.94
   3  -9  15   -6.47    2.70
  -3  -9 -15    7.43    6.66
   3  -9 -15    5.82    9.74
  -3   9  15    5.51    3.61
  -3   9  15    6.86    2.17
   3   9  15    0.32    4.67
   3  -9  16  287.11   30.00
  -3  -9  16  317.65   31.58
  -3   9  16  299.21   30.37
  -3  -9 -16  355.59   33.62
   3  -9 -16  373.14   35.46
   3  -9  16  354.22   34.19
   3   9  16  375.75   33.40
  -3   9  16  349.87   32.99
   3  -9  17  302.55   31.12
  -3  -9  17  278.85   29.77
  -3  -9 -17  288.60   31.31
   3  -9 -17  304.64   30.75
  -3   9  17  247.02   28.04
   3  -9  17  345.33   32.02
  -3   9  17  289.46   29.39
   3   9  17  283.60   29.40
   3  -9  18    4.55    9.25
  -3  -9  18   12.88    8.62
   3  -9  18    1.66    4.38
  -3  -9 -18   12.44    7.65
   3  -9 -18    2.89    4.42
  -3   9  18   15.39    6.24
  -3   9  18    4.73    6.84
   3   9  18   11.89    4.74
  -3  -9  19  207.57   26.59
  -3  -9 -19  243.45   29.71
   3  -9 -19  197.88   26.01
  -3   9  19  195.07   26.16
  -3   9  19  156.27   23.06
   3  -9  19  138.02   23.82
   3   9  19  167.03   24.00
   3  -9  19  153.15   23.27
  -3  -9 -20   90.11   18.07
  -3   9  20  130.87   21.82
   3  -9  20  107.21   18.49
   3  -9 -20   96.27   18.52
  -3   9  20  127.32   21.04
   3   9  20  101.51   19.79
   3  -9  20  117.22   23.15
   3  -9  20  124.08   21.19
  -3  -9  20  107.89   20.12
   3  -9  21   78.10   17.07
  -3  -9  21   66.54   16.08
   3  -9 -21   94.33   18.10
  -3  -9 -21   80.39   18.86
  -3   9  21   94.26   18.24
   3   9  21  111.35   19.51
  -3   9  21   90.24   17.73
   3  -9  21   97.28   18.57
   3  -9 -22    3.70    6.60
  -3  -9 -22    3.97    6.23
  -3   9  22    7.28    4.54
  -3   9  22   -5.80    3.57
   3  -9  22    1.26    3.16
   3  -9  22  -10.89    6.19
   3   9  22    2.59    3.15
   3  -9 -23  276.10   32.54
  -3  -9 -23  294.00   33.67
  -3   9  23  296.72   34.90
  -3   9  23  281.19   32.42
   3   9  23  274.86   32.20
   3  -9  23  310.94   35.03
   3  -9  23  326.44   34.16
  -3  -9 -24   36.60   12.24
   3  -9 -24   49.35   13.58
  -3   9  24    4.85    5.16
  -3   9  24   41.04   11.66
   3  -9  24   23.95   10.07
   3  -9  24   35.43   13.53
   3   9  24   45.37   13.93
  -3  -9 -25   16.57    4.35
   3  -9 -25   45.97   13.33
  -3   9  25   38.03   13.68
   3  -9  25   44.84   13.38
  -3   9  25   43.37   14.83
   3  -9  25   49.65   13.93
   3   9  25   28.23    8.85
   3  -9 -26   34.64   14.06
  -3   9  26   10.76    7.10
  -3  -9 -26   29.74   10.63
   3  -9  26   55.18   15.40
   3   9  26   44.62   14.23
  -3   9  26   33.54   12.81
   3  -9  26   32.05   13.27
  -3 -10   0   -1.87    3.71
  -3 -10   0   -6.32    6.58
   3 -10   0    3.22    5.55
   3 -10   0   -0.16    4.07
  -3 -10  -1    9.32    6.93
  -3 -10   1    0.04    3.90
  -3 -10  -1    7.94    9.36
   3 -10   1    2.13    3.71
   3 -10  -1    3.52    2.80
   3 -10  -1   10.34    4.62
   3 -10   1    7.52    2.29
  -3 -10   1    7.59    5.61
   3 -10  -2    3.58    4.17
  -3 -10   2    6.26    5.64
   3 -10   2    5.08    7.95
  -3 -10  -2    9.22    7.77
   3 -10  -2    1.89    2.68
  -3 -10   2    6.13    7.06
   3 -10   2   10.64    9.26
  -3 -10  -2    5.20    4.97
  -3 -10  -3   12.11    6.27
  -3 -10   3   30.81    9.74
   3 -10   3   28.97    9.38
  -3 -10   3   13.80    6.89
  -3 -10  -3   23.83    6.03
   3 -10  -3   31.08    9.29
   3 -10   3   17.52    9.11
   3 -10  -3    8.55    6.29
  -3 -10   4   10.81    6.93
  -3 -10   4    3.39    9.02
   3 -10   4   11.09    6.65
   3 -10   4   11.56    7.32
  -3 -10  -4    3.47    3.06
   3 -10  -4    8.57    3.57
  -3 -10  -4   13.64    6.87
   3 -10  -4   19.84    7.85
  -3  10   5    6.04    5.47
  -3 -10  -5   -1.58    3.90
   3 -10   5   -0.80    3.63
  -3 -10   5    4.32    5.03
   3 -10   5   -1.30    3.42
  -3 -10  -5    0.75    3.64
   3 -10  -5   -0.49    4.59
  -3 -10   5   -3.75    3.52
   3 -10  -5   -0.23    5.02
   3 -10  -6    4.06    5.46
  -3 -10   6   20.91    8.35
   3 -10   6   21.97    9.73
  -3 -10  -6   10.31    8.25
   3 -10   6    4.46    2.74
   3 -10  -6    4.23    5.94
  -3  10   6   15.41    7.66
  -3 -10   6   24.30    8.60
  -3 -10  -6   25.38    7.40
  -3 -10   7   77.16   13.92
  -3 -10   7   79.76   16.75
   3 -10   7   65.01   14.96
  -3 -10  -7   66.22   13.37
   3 -10  -7   87.79   16.19
  -3 -10  -7   68.14   14.58
  -3  10   7   79.42   15.33
   3 -10  -7   51.73   11.86
   3 -10   7   79.66   15.28
  -3 -10   8  178.90   24.09
   3 -10   8  171.87   22.12
   3 -10   8  163.37   21.73
  -3 -10  -8  168.30   23.00
   3 -10  -8  139.45   20.05
   3 -10  -8  127.30   20.65
  -3  10   8  158.52   20.66
  -3 -10   8  162.16   20.41
  -3 -10   9  123.81   19.77
   3 -10   9  122.16   19.79
   3 -10   9   93.83   17.14
  -3 -10  -9  104.45   18.85
   3 -10  -9  114.51   19.49
   3 -10  -9  128.47   20.68
  -3  10   9  107.86   17.66
  -3 -10   9  134.79   19.16
  -3 -10  10   55.16   12.21
   3 -10  10   65.42   14.29
   3  10  10   77.10   14.39
  -3 -10 -10   49.65   10.92
   3 -10 -10   52.15   11.62
  -3  10  10   74.18   15.20
   3 -10  10   55.64   15.44
   3 -10 -10   66.69   14.01
   3 -10 -11   -6.47    3.31
  -3 -10  11   17.42    6.02
   3 -10  11    1.41    7.55
  -3 -10 -11    9.74    8.90
  -3  10  11   10.84    7.39
   3 -10  11   19.06    9.51
   3 -10 -11    5.93    5.56
   3  10  11    5.35    6.20
   3 -10 -12   -0.26    5.09
  -3 -10  12    6.05    4.21
   3 -10  12    2.55    3.29
   3 -10  12   -1.95    2.27
   3 -10 -12   -0.19    6.00
  -3 -10 -12   -2.60    3.22
  -3  10  12    3.50    5.73
   3  10  12    1.51    2.43
   3 -10  13   13.96    9.63
   3 -10  13    5.05    4.70
  -3 -10  13    6.97    7.70
  -3 -10 -13    0.71    4.43
   3 -10 -13    1.64    2.92
  -3  10  13    5.63    3.12
   3  10  13   10.99    8.99
   3 -10  14   46.42   12.23
  -3 -10  14   46.16   11.68
   3 -10  14   33.72   10.38
  -3  10  14   31.31   11.47
   3 -10 -14   24.54    9.41
  -3 -10 -14   16.49    8.16
   3  10  14   35.68   11.27
   3 -10  15   -3.27    6.11
  -3 -10  15   -5.79    4.30
   3 -10 -15    4.03    6.39
   3 -10  15    7.07    5.42
  -3 -10 -15   -0.89    6.84
  -3  10  15    8.85    4.88
   3  10  15    2.67    6.80
  -3 -10 -16   42.45   12.07
   3 -10  16   57.69   14.76
  -3 -10  16   32.47   10.27
   3 -10  16   48.36   12.46
   3 -10 -16   26.68    9.54
  -3  10  16   61.51   13.79
   3  10  16   38.28   11.42
   3 -10  17   29.44    9.16
  -3 -10  17   38.09   12.76
   3 -10 -17   39.38   11.51
   3 -10  17   53.79   14.68
  -3 -10 -17   29.80    9.51
  -3  10  17   46.76   11.49
   3  10  17   36.13   11.58
   3 -10  18   75.94   15.61
  -3 -10  18   71.10   16.19
  -3  10  18   94.16   17.51
  -3 -10 -18   93.70   17.59
   3 -10 -18   94.30   17.59
   3 -10  18   89.69   17.96
  -3  10  18   93.10   17.52
   3  10  18  101.92   18.43
   3 -10  19   10.81    8.67
  -3 -10  19   24.04    8.55
   3 -10  19    1.93    3.56
   3 -10 -19    3.02    4.23
  -3  10  19    5.54    7.31
  -3  10  19    3.05    6.88
  -3 -10 -19   -0.75    8.85
   3  10  19    6.22    7.87
   3 -10  20   68.83   15.11
  -3 -10  20   43.63   12.98
   3 -10  20   36.33   12.96
  -3 -10 -20   26.29   10.78
  -3  10  20   52.78   14.74
   3 -10 -20   47.39   13.83
  -3  10  20   44.21   12.49
   3  10  20   28.78   11.50
   3 -10  20   28.34   10.78
   3 -10  21   16.22    8.71
  -3 -10  21   14.54    7.65
  -3  10  21   15.21    8.74
  -3 -10 -21   23.83   10.45
   3 -10 -21   18.38    7.70
  -3  10  21   17.56    8.36
   3  10  21   21.29    8.87
   3 -10  21   34.09   12.59
   3 -10  21   14.82   10.60
  -3  10  22   29.48   10.28
   3 -10 -22   64.19   16.71
  -3 -10 -22   43.95   15.61
  -3  10  22   35.69   10.91
   3  10  22   43.90   13.72
   3 -10  22   69.55   15.42
   3 -10  22   72.85   16.78
  -3 -10  22   45.81   13.85
   3 -10 -23    9.78    7.28
  -3 -10 -23    0.12    6.50
  -3  10  23   25.13   10.72
  -3  10  23    3.16    3.62
   3  10  23    6.29    7.40
   3 -10  23    7.92    4.71
   3 -10  23   14.12    8.71
   3 -10 -24    0.26    5.36
  -3 -10 -24   -8.26    8.67
  -3  10  24   -1.47    4.48
   3 -10  24   -3.14    2.88
   3  10  24   -2.12    7.53
   3 -10  24   -3.41    6.31
  -3  10  24    8.08    8.51
  -3 -11   0    0.27    2.60
   3 -11   0   -7.86    7.99
   3 -11   0    4.36    5.65
  -3 -11   0    1.70    4.68
   3 -11  -1   55.67   13.75
  -3 -11  -1   55.14   12.98
  -3 -11   1   62.53   15.15
  -3 -11  -1   76.60   14.94
   3 -11   1   68.38   14.06
   3 -11  -1   35.74   10.29
  -3 -11   1   55.83   12.91
   3 -11   1   46.38   13.05
   3 -11   2  312.01   32.67
  -3 -11   2  227.13   26.09
   3 -11   2  264.64   28.57
  -3 -11  -2  226.17   26.37
   3 -11  -2  214.66   25.38
  -3 -11   2  215.99   26.37
   3 -11  -2  246.33   29.10
  -3 -11  -2  194.03   25.49
  -3 -11   3   24.30   10.47
  -3 -11   3   39.10   11.32
   3 -11   3   25.97    7.96
   3 -11  -3   43.94   13.02
  -3 -11  -3   28.46   11.74
   3 -11  -3   11.03    3.40
   3 -11   3   17.91    8.51
  -3 -11  -3   26.82    9.86
  -3 -11   4   59.37   13.58
  -3 -11   4   49.13   13.65
   3 -11   4   31.19    9.79
   3 -11   4   48.85   13.60
  -3 -11  -4   61.04   13.53
   3 -11  -4   69.83   15.78
   3 -11  -4   62.61   13.74
  -3 -11  -4   51.82   12.68
   3 -11   5   56.12   14.47
  -3 -11   5   50.99   13.17
   3 -11   5   58.03   14.64
  -3 -11  -5   43.93   11.92
  -3 -11  -5   47.18   13.31
   3 -11  -5   47.05   12.47
   3 -11  -5   37.74   10.38
   3 -11  -6   98.95   17.99
  -3 -11   6  128.59   20.33
   3 -11   6  105.32   18.56
  -3 -11  -6  139.56   21.46
   3 -11  -6  100.20   18.06
  -3 -11  -6  123.24   19.27
   3 -11   6   94.22   18.24
  -3  11   6  112.29   17.84
   3 -11  -7    7.67    5.73
  -3 -11   7    6.82    5.49
   3 -11   7   11.59    7.55
  -3 -11  -7    9.10    7.06
  -3 -11  -7   11.90    5.28
   3 -11  -7    9.10    6.54
   3 -11   7   -5.32    7.17
  -3  11   7   17.63    8.09
  -3 -11   8    8.74    6.21
   3 -11   8    0.94    4.66
   3 -11  -8    0.79    4.10
  -3 -11  -8   -2.87    4.53
  -3 -11  -8    0.32    5.43
   3 -11  -8    3.24    7.02
  -3  11   8   -3.71    7.58
   3 -11   8   11.78    9.25
  -3 -11   9    9.32    6.63
   3 -11   9   13.69    7.64
  -3  11   9   11.11    3.02
  -3 -11  -9   14.33    7.34
   3 -11  -9   -1.58    4.71
   3 -11  -9   13.48    7.20
   3 -11   9   14.42    7.18
   3 -11 -10   11.90    7.59
  -3 -11  10   12.11    5.38
   3 -11  10   16.65    7.63
  -3 -11 -10    6.73    5.40
  -3  11  10   11.30    5.39
   3 -11 -10   19.95    9.57
   3 -11  10   13.40    7.57
  -3 -11  11    9.54    7.96
   3 -11  11    7.38    9.55
  -3 -11 -11   14.29    8.95
   3 -11 -11    0.25    6.05
  -3  11  11    0.24    9.34
   3 -11  11    5.92    4.15
   3 -11 -11    7.97    8.68
  -3 -11  12  349.50   34.64
   3 -11  12  431.77   37.49
  -3 -11 -12  346.54   35.71
   3 -11 -12  354.12   34.18
   3 -11 -12  416.71   36.82
  -3  11  12  358.53   33.50
   3 -11  12  404.49   35.34
   3 -11 -13   59.85   14.70
  -3 -11  13   53.23   13.88
   3 -11  13   47.12   13.30
   3 -11  13   46.06   12.69
  -3 -11 -13   34.43   13.42
  -3  11  13   37.13   10.89
   3  11  13   24.73    9.49
   3 -11 -13   37.75   10.28
   3 -11  14   30.42    9.99
   3 -11  14   79.96   14.39
  -3 -11  14   50.29   14.47
   3 -11 -14   43.56   11.61
   3 -11 -14   51.01   12.35
  -3  11  14   35.61   13.15
   3  11  14   37.88   13.25
  -3 -11 -14   35.04   11.01
   3 -11  15   39.21   12.83
  -3 -11  15   51.40   13.91
   3 -11  15   28.61   10.30
  -3 -11 -15   35.69   13.69
   3 -11 -15   19.47    8.26
   3  11  15   31.18   10.68
  -3  11  15   21.17   11.06
   3 -11  16   25.62   12.52
  -3 -11  16   30.88   10.35
  -3 -11 -16   36.74   11.00
   3 -11  16   28.22   11.08
  -3  11  16   20.92    9.86
   3 -11 -16   42.03   13.69
   3  11  16   17.34    7.60
   3 -11  17    0.38    6.25
  -3 -11  17    0.95    2.64
  -3  11  17    8.67    9.06
   3 -11  17   12.93   10.30
   3 -11 -17    6.83    5.57
   3  11  17    7.21    8.27
  -3 -11 -17   11.85    5.59
   3 -11  18    1.99    7.81
  -3 -11  18    4.82    8.67
   3 -11  18    3.01    6.13
   3 -11 -18    0.92    4.93
  -3  11  18    2.68    3.83
  -3 -11 -18    6.49    7.24
   3  11  18   -5.08    8.46
   3 -11  19   39.03   11.81
  -3 -11  19   51.08   13.35
   3 -11  19   66.94   15.46
  -3 -11 -19   48.43   13.98
  -3  11  19   48.63   13.72
   3 -11 -19   62.53   16.59
   3  11  19   41.97   14.30
   3 -11  19   34.53   13.67
   3 -11  20   90.80   20.68
  -3  11  20  177.51   25.12
   3 -11  20  192.66   26.22
  -3 -11 -20  183.68   26.86
   3 -11 -20  161.00   25.05
  -3 -11  20  162.92   25.38
   3  11  20  201.49   26.85
   3 -11  20  164.20   25.72
   3 -11  21    8.78    3.90
   3 -11  21   18.41   10.18
  -3 -11  21   -0.03    7.67
  -3 -11 -21   18.73    8.72
   3 -11 -21   19.68    8.93
   3  11  21   13.36    9.03
   3 -11  21   17.53    9.38
  -3  11  21    4.34    6.41
  -3 -11 -22  234.09   30.83
   3 -11 -22  235.95   30.25
   3 -11  22  168.22   25.03
  -3  11  22  178.00   26.60
   3  11  22  211.12   29.09
  -3  11  22  229.62   28.98
   3 -11  22  191.37   28.87
   3 -11  22  185.13   28.41
  -3 -11  22  230.06   30.36
   3  11  23    6.53    7.83
  -3 -11 -23   -2.92    7.68
   3 -11 -23   -6.44    9.09
  -3  11  23   -6.12    9.92
   3 -11  23   19.57   12.47
   3 -11  23   12.17    7.57
  -3 -11  23    7.01    8.85
  -3 -12   0    3.82    4.66
   3 -12   0    7.10    6.93
   3 -12   0    3.82    7.56
  -3 -12   0   14.50    9.96
  -3 -12   1   29.45   12.21
  -3 -12  -1   17.10    7.12
   3 -12   1   20.93   11.68
   3 -12  -1   27.03   11.54
   3 -12   1   20.89   12.43
  -3 -12  -1   26.03   10.50
   3 -12  -1   20.13    6.82
   3 -12  -2   18.38    5.76
  -3 -12  -2   10.00    2.99
   3 -12   2   13.52   11.31
  -3 -12   2   10.67    5.82
   3 -12   2    8.22    7.60
  -3 -12  -2   23.19    7.56
   3 -12  -2   19.28   10.28
   3 -12  -3   11.86    8.18
  -3 -12   3    4.75    3.48
   3 -12   3   -3.86    3.24
  -3 -12  -3    7.70    7.59
   3 -12   3    5.64    5.94
  -3 -12  -3    8.13    9.86
   3 -12  -3   -1.32    3.61
   3 -12   4    1.11    2.55
  -3 -12   4    1.09    3.16
   3 -12   4   -1.89    4.56
   3 -12  -4   10.53    9.76
  -3 -12  -4    8.54    9.09
   3 -12  -4   -2.85    7.55
  -3 -12  -4   -2.04    6.27
   3 -12   5   -0.97    3.32
  -3 -12   5   -1.66    4.75
   3 -12   5    2.15    4.80
  -3 -12  -5   -1.54    3.68
   3 -12  -5    1.45    5.31
   3 -12  -5   -7.10    7.34
  -3 -12  -5   -2.90    5.15
   3 -12   6   17.00    6.41
  -3 -12  -6    8.51    4.79
  -3 -12   6    6.79    6.58
   3 -12   6   27.52   10.15
  -3 -12  -6   10.75    5.86
   3 -12  -6   16.89    6.72
   3 -12  -6   23.22    9.55
  -3 -12   7   11.05    8.81
   3 -12   7    3.87    3.80
  -3 -12  -7    9.14    4.07
   3 -12  -7    5.50    5.65
  -3 -12  -7    6.46    5.75
   3 -12  -7   16.77    7.75
   3 -12   7    8.36    7.45
  -3 -12  -8    4.96    3.80
   3 -12  -8   -4.03    8.65
  -3 -12   8   -0.68    3.45
   3 -12   8   -1.97    4.31
  -3 -12  -8    2.03    5.62
   3 -12  -8    5.12    7.76
  -3  12   8   -0.41    4.87
   3 -12   8   17.16    8.05
  -3 -12   9   24.23   10.06
   3 -12   9   45.66   12.46
   3 -12  -9   14.91    7.91
  -3 -12  -9   36.30   12.59
  -3  12   9   24.97    7.63
  -3 -12  -9   34.57   13.09
   3 -12  -9   21.96    5.55
  -3 -12  10   14.14    9.20
   3 -12  10   16.73    9.92
  -3 -12 -10   29.41   12.50
   3 -12 -10   13.09    6.34
  -3  12  10    9.91    6.14
  -3 -12 -10   21.27    9.07
   3 -12 -10   10.10    5.72
   3 -12  10   33.40   10.07
  -3 -12  11   -0.41    5.81
   3 -12  11    2.87    4.35
  -3 -12 -11    0.89    7.34
   3 -12 -11    1.09    7.37
  -3  12  11   17.75    7.79
   3 -12  11   -0.60    2.80
  -3 -12 -11    1.27    3.40
   3 -12 -11   11.18    6.23
   3 -12 -12   53.54   13.72
  -3 -12  12   53.78   14.55
   3 -12  12   59.09   13.76
   3 -12 -12   69.70   16.42
  -3 -12 -12   35.21   10.49
   3 -12  12   36.68    8.49
  -3  12  12   27.01    9.75
  -3 -12  13   13.20    9.83
   3 -12  13   -2.76    5.76
   3 -12 -13    3.44    5.77
  -3 -12 -13   -3.48    3.42
   3 -12  13   -4.16    4.63
   3 -12 -13   -3.04    4.09
  -3  12  13    1.26    7.67
  -3 -12  14    9.49    5.81
   3 -12  14   22.07   10.94
   3 -12  14   43.60   11.52
  -3 -12 -14   43.05   13.59
   3 -12 -14   30.12    6.83
   3 -12 -14   32.32   10.60
   3 -12  15    9.19    8.48
  -3 -12  15    3.82    5.18
   3 -12  15   10.78    7.49
   3 -12 -15   10.74    6.63
  -3 -12 -15   17.17    7.97
   3 -12 -15   33.46   14.32
   3 -12  16   -4.56    5.62
  -3 -12  16   -7.18    8.21
   3 -12 -16   -4.68    6.26
   3 -12  16    4.97    6.04
  -3 -12 -16   -4.86    3.13
   3 -12 -16    2.30    4.94
   3  12  16   -7.89    6.66
  -3 -12  17  130.20   22.62
   3 -12  17  100.76   20.64
   3 -12 -17  108.83   20.87
   3  12  17  120.54   21.60
  -3 -12 -17   80.54   17.42
   3 -12  17  110.18   19.78
   3 -12 -17  112.23   19.58
  -3 -12  18    3.07    3.35
   3 -12  18    0.59    3.79
  -3 -12 -18    0.83    5.08
   3 -12 -18   -2.89    6.11
   3  12  18    0.46    3.43
   3 -12  19   11.01   10.15
  -3 -12  19   -8.49    9.24
   3 -12  19   15.82    9.71
   3 -12 -19   16.83    7.64
  -3 -12 -19   -0.21    5.39
   3  12  19    2.75    3.55
   3 -12  19    4.27    9.49
  -3 -12  20   -3.07    3.62
   3 -12  20   -0.93    9.16
   3 -12 -20   -2.32    5.34
  -3 -12 -20    5.15    5.55
   3 -12  20   -9.25    9.53
   3  12  20    3.18    3.23
   3 -12  20    6.03    8.95
   3 -12  21   -5.40    6.45
  -3 -12  21    1.81    7.87
   3 -12  21    6.38    6.70
  -3 -12 -21    0.65    9.18
   3 -12 -21    1.99    7.85
   3  12  21   -1.43    5.76
   3 -12  21    5.41    9.15
  -3 -13   0   -2.63    5.61
   3 -13   0    4.45    9.59
   3 -13   0   -0.82    2.93
   3 -13   1  254.73   31.27
  -3 -13   1  238.34   29.57
  -3 -13  -1  243.33   30.26
   3 -13   1  283.56   31.85
   3 -13  -1  212.31   27.40
   3 -13  -1  191.89   27.88
  -3 -13   2  220.24   28.60
   3 -13   2  192.01   27.87
  -3 -13  -2  228.97   28.87
   3 -13  -2  192.93   26.57
   3 -13   2  296.98   33.39
   3 -13  -2  218.81   28.88
   3 -13  -3    4.97    8.48
  -3 -13   3    7.87    6.63
   3 -13   3    5.37    3.99
   3 -13   3    8.82    7.90
  -3 -13  -3   -1.13    4.54
   3 -13  -3    3.96    6.47
   3 -13  -4   70.78   17.47
   3 -13   4   59.69   16.14
  -3 -13   4   75.73   17.40
   3 -13   4   80.03   18.69
  -3 -13  -4   67.70   15.64
   3 -13  -4   79.17   18.00
  -3 -13   5  112.21   20.67
   3 -13   5  104.58   19.72
  -3 -13  -5  138.99   22.06
   3 -13   5  117.91   20.15
   3 -13  -5   79.04   16.86
   3 -13  -5  135.86   23.88
  -3 -13  -5  178.50   26.32
   3 -13   6    3.54    6.91
  -3 -13   6    2.21    6.59
   3 -13   6    4.80    6.30
  -3 -13  -6    4.28    6.84
   3 -13  -6    1.35    5.24
   3 -13  -6   -5.53    7.30
  -3 -13  -6    2.87    6.75
  -3 -13  -7   17.63    8.12
  -3 -13   7   18.02    6.45
   3 -13   7   31.70   11.80
  -3 -13  -7   16.70    6.84
   3 -13  -7   16.27    6.98
   3 -13  -7   17.95    7.58
   3 -13   7   14.20    5.50
  -3 -13   8   65.45   15.63
   3 -13   8   56.73   15.07
  -3 -13  -8   54.14   13.55
  -3 -13  -8   52.41   14.34
   3 -13  -8   67.92   15.95
   3 -13  -8   71.34   15.98
   3 -13   8   71.79   16.21
   3 -13  -9  126.63   21.40
  -3 -13   9  117.83   21.93
   3 -13   9  127.05   22.47
   3 -13   9   87.86   18.43
  -3 -13  -9  150.51   23.56
  -3 -13  -9  132.45   21.95
   3 -13  -9  169.21   25.83
  -3 -13 -10   -9.86    8.64
   3 -13 -10   -5.42    5.17
  -3 -13  10   -0.63    5.59
   3 -13  10    0.28    5.28
  -3 -13 -10   -6.83    9.71
   3 -13 -10    4.46    6.69
   3 -13  10   -0.06    4.07
  -3 -13  11   64.75   16.23
   3 -13  11   82.58   18.49
   3 -13 -11   65.16   15.19
  -3 -13 -11   63.41   16.67
   3 -13 -11   61.41   14.90
  -3 -13 -11   50.99   13.46
   3 -13  11   55.04   14.66
  -3 -13  12    9.09    7.12
   3 -13  12   28.29   10.26
  -3 -13 -12    8.49    5.39
  -3 -13 -12   14.75    8.91
   3 -13 -12   16.23    9.89
   3 -13  12   15.21    8.60
   3 -13 -12   -5.43    7.58
  -3 -13  13  167.42   25.52
   3 -13  13  215.49   28.45
   3 -13 -13  251.13   30.34
  -3 -13 -13  216.13   28.42
  -3 -13 -13  211.62   28.27
   3 -13 -13  202.62   28.06
   3 -13  13  240.12   29.46
   3 -13 -14   11.31    6.67
  -3 -13  14   10.61    8.08
   3 -13  14   -6.67    7.15
   3 -13  14    8.53    2.79
  -3 -13 -14    5.69    5.21
   3 -13 -14    4.13    6.31
   3 -13  15   -1.15    9.17
  -3 -13  15    5.10    3.38
   3 -13 -15    8.19    6.17
   3 -13  15    7.72    8.07
   3 -13 -15    6.65    8.54
  -3 -13 -15    8.90    6.56
   3 -13  16    6.93    4.33
  -3 -13  16    8.81    6.05
   3 -13 -16   16.12    8.23
   3 -13  16   24.70   10.69
  -3 -13 -16    5.14    4.92
   3 -13 -16   34.93    9.35
   3 -13  17   31.08   11.83
  -3 -13  17   56.05   14.85
   3 -13  17   33.25   12.03
  -3 -13 -17   43.21   15.35
   3 -13 -17   41.66    9.93
   3 -13 -17   51.87   16.15
   3 -13  18    6.98    6.97
  -3 -13  18    3.58    8.14
   3 -13  18   -2.50    4.63
   3 -13 -18    6.03    7.21
  -3 -13 -18    2.76    4.67
   3 -13 -18   -6.90    8.01
   3 -13  18   23.02   16.37
  -3 -14   0    5.92    5.76
   3 -14   0    0.06    7.24
   3 -14   0   -0.56    4.80
  -3 -14   1   17.56   10.63
  -3 -14  -1   43.08   13.82
   3 -14   1   47.35   13.04
   3 -14  -1   38.26   12.89
   3 -14   1   32.11   10.34
   3 -14  -1   26.41   11.63
  -3 -14   2    2.10    4.66
   3 -14   2    8.51   12.62
  -3 -14  -2    5.73    4.79
   3 -14   2    5.89    5.97
   3 -14  -2   16.22    8.51
   3 -14  -2   15.14   11.40
   3 -14   3   -0.61    5.56
  -3 -14   3    0.26    3.85
   3 -14   3    7.34    5.88
   3 -14  -3   -7.12    6.86
  -3 -14  -3   -4.08    5.72
   3 -14  -3   -3.25    4.13
   3 -14  -4    2.32    8.13
   3 -14   4   -3.73    6.75
  -3 -14   4   12.80    9.54
   3 -14   4    5.08    8.26
  -3 -14  -4    7.28    8.33
   3 -14  -4   -1.55    5.09
   3 -14   5    2.82    5.33
   3 -14  -5    6.48    6.31
  -3 -14   5   -1.97    4.99
   3 -14   5    3.94    9.14
  -3 -14  -5    5.12    6.10
   3 -14  -5    3.32    8.39
  -3 -14   6   41.94   14.95
   3 -14   6   52.07   14.36
   3 -14  -6   38.65   12.76
  -3 -14  -6   52.80   15.52
   3 -14  -6   44.44   13.78
   3 -14   6   38.33   13.27
  -3 -14   7   21.02   11.16
   3 -14   7   21.53    9.97
  -3 -14  -7    3.19    5.75
   3 -14  -7   18.82    9.43
   3 -14  -7   20.24   11.75
   3 -14   7   11.77    7.23
  -3 -14   8    1.75    4.42
   3 -14   8   14.79   10.08
  -3 -14  -8   35.08   12.54
   3 -14  -8   16.10    5.90
   3 -14  -8   15.12    8.87
   3 -14   8   18.47    8.42
  -3 -14   9    4.51    2.76
   3 -14   9   12.09    9.76
  -3 -14  -9   -7.15    6.03
   3 -14  -9   -1.35    4.79
   3 -14  -9    0.66    5.91
   3 -14   9    6.50    5.12
  -3 -14  10   12.56    7.39
   3 -14  10   25.30   11.58
  -3 -14 -10   20.61   10.52
   3 -14 -10   12.50    7.10
   3 -14  10   21.70   12.18
   3 -14 -10    4.23    4.97
   3 -14  11    3.77    6.09
  -3 -14  11    9.94    7.82
   3 -14  11    7.55    8.52
  -3 -14 -11    6.29    5.78
   3 -14 -11    2.83    5.89
   3 -14 -11    8.82    7.75
   3 -14 -12   12.66    8.36
  -3 -14  12   -0.39    2.74
   3 -14  12   -7.13    8.82
  -3 -14 -12   14.87    7.54
   3 -14 -12    5.91    8.88
   3 -14  12    1.55    3.88
  -3 -14  13    6.04    3.16
   3 -14  13    0.61    5.11
   3 -14 -13    8.89    9.50
  -3 -14 -13   30.92   15.05
  -3 -14 -13   17.34    9.30
   3 -14  13   33.96   11.83
   3 -14 -13   13.73    8.46
  -3 -14  14   -2.09    4.55
   3 -14  14   12.45    8.57
   3 -14  14    5.03    4.43
  -3 -14 -14   11.03    5.61
   3 -14 -14    7.04    6.02
   3 -14 -14    8.50    8.73
  -3 -14 -14   20.30    8.31
   3 -14  15    7.67    6.73
  -3 -14  15   12.79   12.48
  -3 -14 -15   12.44    8.59
   3 -14  15    4.50    5.56
  -3 -14 -15   -6.01    6.40
   3 -14 -15    2.32    8.66
   3 -14 -15    3.05    4.04
  -3 -15   0   -2.29    3.86
   3 -15   0    0.92    7.52
   3 -15   0   -3.74    6.06
  -3 -15   1   15.00   10.93
   3 -15   1   30.47   13.18
  -3 -15  -1   31.27   13.78
   3 -15  -1   24.60   11.81
   3 -15   1   30.49   10.68
   3 -15  -1   17.62    9.03
  -3 -15   2  225.72   31.24
   3 -15   2  238.93   31.18
  -3 -15  -2  249.48   31.81
   3 -15  -2  246.97   31.34
   3 -15   2  252.54   31.86
   3 -15  -2  307.39   36.14
   3 -15   3   34.43   12.32
  -3 -15   3   51.40   15.64
   3 -15   3   53.62   16.15
  -3 -15  -3   70.36   16.03
   3 -15  -3   51.07   16.30
   3 -15  -3   41.84   12.81
   3 -15  -4  158.66   24.83
  -3 -15   4  132.29   23.74
   3 -15   4  176.45   28.54
  -3 -15  -4  120.37   23.03
   3 -15  -4  177.43   27.56
   3 -15   4  133.34   23.74
   3 -15   5    9.38    8.10
  -3 -15   5   22.40   11.32
   3 -15   5   -4.46    6.79
  -3 -15  -5    8.23    5.49
   3 -15  -5   26.09   10.90
   3 -15  -5    7.25    4.20
  -3 -15   6  197.45   28.35
   3 -15   6  170.35   27.47
  -3 -15  -6  162.04   25.71
   3 -15  -6  204.46   29.27
   3 -15   6  121.47   22.53
   3 -15  -6  162.06   26.62
   3 -15  -7   22.89   11.56
  -3 -15   7   48.75   15.29
   3 -15   7   37.45   12.95
  -3 -15  -7   29.01   11.26
   3 -15  -7   18.81    9.59
   3 -15   7   33.11   13.04
  -3 -15   8   45.42   15.00
   3 -15   8   45.73   14.86
   3 -15  -8   79.67   19.22
  -3 -15  -8   45.95   11.12
   3 -15  -8   40.87   15.30
   3 -15   8   33.12   13.10
  -3 -15   9    4.22    4.34
   3 -15   9   -0.09    5.21
  -3 -15  -9    1.95    5.59
   3 -15  -9    2.54    4.27
   3 -15  -9    4.64    3.68
   3 -15   9    2.13    4.33
  -3 -15  10   41.94   14.77
   3 -15  10   17.45   11.40
  -3 -15 -10   43.87   14.83
   3 -15 -10   34.81    7.79
   3 -15 -10   37.49   15.58
   3 -15  10   37.28   14.56
  -3 -15  11   -3.84    7.08
   3 -15  11   -2.19    6.51
  -3 -15 -11   -0.06    4.16
   3 -15 -11    5.67    7.16
   3 -15  11    5.33    5.30
   3 -15 -11   -6.19    8.34
  -3 -16   0   -7.00    4.90
   3 -16   0    5.50    7.08
   3 -16   0    5.72   11.03
  -3 -16   1   33.70   14.50
   3 -16   1   49.32   15.49
   3 -16   1   35.80   11.02
  -3 -16  -1   28.39   10.87
   3 -16  -1   28.33   14.73
   3 -16  -1   14.57    4.67
   3 -16   2   13.19    8.37
  -3 -16   2   -5.97    5.33
   3 -16   2   11.51    7.17
  -3 -16  -2   10.73   10.17
   3 -16  -2   10.36    8.68
   3 -16  -2   -0.10    5.39
   3 -16   3    0.26    3.58
  -3 -16   3    3.55    9.81
   3 -16   3   -4.77    9.31
  -3 -16  -3    8.33    8.32
   3 -16  -3   16.38   11.48
   3 -16  -3    5.17    5.09
   4   0   0 8420.33   71.79
  -4   0   0 7843.44   99.45
   4   0  -1   -0.48    0.73
   4   0   1    2.05    1.49
  -4   0   1   -2.41    1.36
  -4   0  -1   -1.38    3.59
  -4   0   2  629.84   28.21
   4   0  -2  523.16   18.19
   4   0   3    2.54    2.42
   4   0  -3    0.30    1.58
  -4   0   3   -0.74    2.09
   4   0  -4  570.74   19.13
  -4   0   4  481.01   25.32
  -4   0   5    1.00    2.04
  -4   0   5   -3.59    3.69
  -4   0  -5    0.28    0.92
   4   0   5   -0.64    0.98
  -4   0   6   87.92   12.24
  -4   0   6   76.75    7.59
   4   0   6   90.06   10.11
  -4   0   7    5.35    4.36
   4   0   7    1.56    3.22
  -4   0   7    3.62    2.93
  -4   0   8  466.82   27.94
  -4   0   8  426.41   20.63
  -4   0   9    0.34    1.90
  -4   0   9    2.84    4.51
   4   0   9    5.44    4.49
  -4   0  10  217.10   20.48
  -4   0  10  250.35   18.01
  -4   0  11    3.18    3.67
   4   0  11    0.71    2.98
  -4   0  11   -0.36    3.41
   4   0  12  233.63   20.88
  -4   0  12  194.64   21.00
  -4   0  12  228.65   18.50
  -4   0  13   -0.47    1.46
   4   0  13   -2.53    2.29
  -4   0  13   -0.32    3.38
   4   0  14 2336.18   71.61
  -4   0  14 2336.74   73.79
  -4   0  14 2306.15   64.94
  -4   0  15    4.87    5.48
  -4   0  15   -0.91    4.79
   4   0  15    2.71    6.10
   4   0  16  437.81   32.74
  -4   0  16  410.98   32.69
   4   0  16  403.17   31.55
  -4   0  16  431.74   30.06
  -4   0  17    0.36    4.71
   4   0  17    0.38    2.27
  -4   0  17    1.15    2.91
   4   0  17   -1.90    5.99
   4   0  18   64.99   12.61
  -4   0  18   80.73   15.17
  -4   0  18   64.26   12.78
   4   0  18   60.61   13.69
  -4   0  19    0.60    3.34
   4   0  19   -0.60    3.14
  -4   0  19    5.38    3.09
   4   0  19   -2.44    4.00
   4   0  20   78.65   14.99
  -4   0  20   87.09   16.15
  -4   0  20   94.28   16.55
   4   0  20   48.43   12.57
  -4   0  21   15.27    9.00
   4   0  21   -1.40    6.60
  -4   0  21    9.54    6.53
   4   0  21    2.93    4.32
   4   0  22  125.36   19.99
  -4   0  22  126.10   20.56
   4   0  22  137.68   21.19
  -4   0  22  109.70   18.37
  -4   0  23   -2.48    2.85
   4   0  23    6.26    7.42
  -4   0  23    0.91    4.82
   4   0  23    0.69    4.10
  -4   0  24    2.16    4.95
   4   0  24   -1.36    3.15
  -4   0  24    5.47    7.18
   4   0  24    1.08    9.34
  -4   0  25    1.59    3.98
   4   0  25   -3.32    6.78
  -4   0  25   -7.32    7.68
   4   0  25    2.73    3.97
  -4   0  26    0.13    3.38
   4   0  26    8.02    7.24
  -4   0  26    4.97    4.47
   4   0  26    2.47    6.81
  -4   0  27   -2.61    5.89
   4   0  27   -4.14    3.83
  -4   0  27   -1.72    5.21
   4   0  27    4.98    7.18
   4   0  28  110.68   20.26
  -4   0  28   65.61   13.36
  -4   0  28   60.73   15.43
   4   0  28   65.24   18.26
  -4   0  29   12.99   10.24
   4   0  29   -5.94    3.74
  -4   0  29    1.97    5.26
   4   0  29   -1.44    7.84
   4   0  30   63.74   19.52
  -4   0  30   78.99   16.93
   4   0  30   80.56   18.71
  -4   0  30   61.45   15.93
  -4   0  31   -2.56    3.80
   4   0  31    7.25    8.65
  -4   0  31   16.44   11.26
   4   0  31    1.02    9.25
  -4  -1   0  158.05   13.22
   4   1   0  184.75    7.95
   4  -1   0  201.43   14.03
  -4   1   0  188.25   16.10
  -4  -1   1  484.31   16.50
  -4  -1  -1  475.97   14.35
  -4   1  -1  424.72   24.45
   4  -1   1  464.34   21.07
   4   1   1  440.51   14.16
  -4  -1  -1  462.17   23.03
  -4   1   1  479.05   25.69
   4   1  -1  463.47   10.90
   4  -1  -1  432.81   20.32
  -4  -1   2  317.05   14.86
   4  -1   2  351.31   18.31
  -4  -1  -2  304.48   11.43
  -4   1   2  320.78   21.30
   4  -1  -2  321.65   17.19
  -4  -1   2  348.73   19.76
   4  -1  -3  125.06   10.55
  -4  -1  -3  121.23    7.64
   4   1   3  113.52    9.09
  -4  -1   3  120.45   11.70
  -4   1   3  121.74   12.61
   4  -1   3  124.89   11.23
  -4  -1   3  142.15   10.82
  -4  -1  -4 2614.77   37.27
   4   1   4 2748.08   48.19
   4   1  -4 2590.20   31.48
   4  -1  -4 2511.09   47.44
  -4   1   4 2561.68   60.42
  -4  -1   4 2300.48   53.73
   4  -1   4 2485.26   51.98
  -4  -1   5  260.68   19.03
   4   1   5  250.90   15.76
  -4  -1   5  245.76   10.78
   4  -1   5  291.55   18.14
  -4   1   5  254.49   19.16
  -4   1   6   28.25    6.62
   4  -1   6   30.10    6.35
   4   1   6   38.58    6.51
  -4  -1  -6   38.09    5.19
  -4  -1   6   25.93    6.23
  -4   1   6   39.11    6.38
  -4  -1   6   36.74    4.90
   4   1   7  130.28   12.68
   4  -1   7  151.99   14.60
  -4  -1   7  120.24   13.56
  -4   1   7  177.04   16.95
  -4   1   7  139.98   12.42
  -4  -1  -7  156.54   11.38
  -4  -1   7  148.55   10.59
   4   1   8  870.14   34.86
  -4   1   8  880.31   39.07
   4  -1   8  963.05   37.67
  -4  -1   8  928.74   38.74
  -4  -1  -8  872.35   28.82
  -4   1   8  890.95   33.08
  -4  -1   8  935.77   28.73
  -4  -1   9   11.89    3.50
  -4  -1   9   11.15    3.56
   4   1   9    8.88    4.31
  -4   1   9   14.85    6.03
   4  -1   9    7.05    4.16
  -4   1   9    8.67    3.69
   4   1  10  255.42   20.58
   4  -1  10  261.28   21.28
  -4   1  10  279.03   23.17
  -4  -1  10  227.42   20.13
  -4   1  10  240.40   18.07
  -4  -1  10  233.54   16.46
   4   1  11  144.22   15.98
   4  -1  11  188.30   18.88
  -4  -1  11  142.30   17.48
  -4   1  11  136.71   14.75
  -4  -1  11  160.78   14.98
  -4   1  11  167.95   18.62
   4   1  12  180.13   17.97
  -4  -1  12  199.69   21.26
   4  -1  12  192.80   18.98
  -4   1  12  195.19   19.95
  -4   1  12  223.56   19.17
  -4  -1  12  247.80   19.42
   4   1  13  116.58   15.28
  -4   1  13  104.62   15.09
   4  -1  13  119.43   16.54
  -4  -1  13   83.96   13.59
  -4   1  13  105.33   13.32
  -4  -1  13  102.22   12.90
  -4   1  14  532.69   35.71
   4   1  14  546.22   34.25
   4  -1  14  592.41   36.17
  -4  -1  14  556.55   35.96
  -4   1  14  634.55   34.45
   4   1  14  560.39   34.49
  -4  -1  14  581.56   32.14
  -4  -1  15 1630.68   55.49
   4   1  15 1754.79   62.89
   4  -1  15 1703.39   61.56
  -4   1  15 1797.86   66.28
  -4  -1  15 1910.68   68.39
  -4   1  15 1785.42   59.96
   4   1  15 1727.40   63.26
   4   1  16  358.88   29.16
   4  -1  16  320.07   28.29
  -4   1  16  383.62   32.21
  -4  -1  16  314.86   28.12
  -4   1  16  280.46   24.61
  -4  -1  16  319.16   25.12
  -4  -1  17   48.22   10.68
   4   1  17   43.77   10.03
  -4   1  17   31.88    8.11
   4  -1  17   66.31   13.70
  -4  -1  17   52.11   11.36
  -4   1  17   62.20   12.18
   4   1  17   46.21    9.79
   4  -1  17   34.75    8.91
   4   1  18  511.05   36.53
   4  -1  18  419.50   34.19
  -4  -1  18  487.04   37.48
  -4   1  18  436.49   35.31
   4   1  18  501.05   35.98
   4  -1  18  457.87   34.99
  -4   1  18  466.99   33.36
  -4  -1  18  488.94   33.74
  -4   1  19    1.71    5.56
  -4  -1  19   -0.88    3.87
   4   1  19    6.95    4.88
  -4  -1  19    2.88    4.24
   4   1  19    2.22    3.07
   4  -1  19   -0.13    2.78
  -4   1  19    0.49    6.48
   4  -1  19    5.92    5.28
  -4   1  20   35.32    9.09
  -4  -1  20   31.79    9.93
   4   1  20   47.87   12.01
  -4  -1  20   30.01   10.42
   4   1  20   27.52    8.98
  -4   1  20   30.68    9.89
   4  -1  20   39.62   11.92
   4  -1  20   43.14   11.97
  -4   1  21   62.73   13.06
   4  -1  21   81.52   16.86
   4   1  21   78.88   15.60
  -4   1  21   88.44   15.16
  -4  -1  21   77.30   15.99
   4   1  21   62.90   14.05
   4  -1  21  114.10   17.31
  -4  -1  21  102.25   17.64
   4   1  22  440.20   37.48
   4  -1  22  450.09   36.79
  -4  -1  22  406.84   37.10
   4   1  22  459.08   38.03
  -4   1  22  422.54   36.56
   4  -1  22  454.92   37.48
  -4   1  22  416.34   34.70
  -4  -1  22  419.03   35.76
  -4   1  23   -3.98    7.19
  -4  -1  23   -3.58    5.37
  -4  -1  23    1.98    5.94
   4   1  23    7.48    7.55
   4  -1  23   10.75    7.24
  -4   1  23   -5.03    4.04
   4   1  23    5.23    5.24
   4  -1  23    6.33    5.01
  -4   1  24   28.77   10.48
  -4  -1  24   16.42    9.98
   4   1  24   21.05    8.87
   4  -1  24   23.52    9.77
  -4   1  24    1.62    5.36
  -4  -1  24   23.84   12.28
   4   1  24   15.37    7.34
   4  -1  24   11.00    7.07
   4   1  25  153.54   22.40
  -4   1  25  123.29   21.17
   4  -1  25  140.45   22.50
  -4  -1  25  178.23   24.68
   4   1  25  119.03   20.04
   4  -1  25  137.69   23.30
  -4   1  25  158.01   22.57
  -4  -1  25  128.29   20.32
   4   1  26  270.68   29.53
   4  -1  26  290.62   32.43
  -4   1  26  271.09   31.76
  -4  -1  26  281.47   32.50
   4   1  26  283.68   31.94
   4  -1  26  304.36   32.99
  -4   1  26  258.79   29.61
  -4  -1  26  262.75   31.01
  -4   1  27   -1.29    7.10
  -4  -1  27    2.06    4.92
   4   1  27    9.08    6.54
   4  -1  27   14.16    8.99
  -4   1  27    1.99    5.17
  -4  -1  27    0.32    4.06
   4   1  27    7.59    5.33
   4  -1  27   -2.20    4.49
  -4   1  28  129.59   23.17
   4   1  28  114.13   20.68
  -4   1  28   81.80   17.24
   4  -1  28  127.04   19.95
  -4  -1  28   84.80   19.16
   4   1  28  100.99   20.02
   4  -1  28   80.22   18.93
  -4  -1  28  108.51   21.53
  -4   1  29   29.03    9.09
   4  -1  29   58.86   16.11
  -4  -1  29   37.25   11.88
  -4   1  29   25.98   10.66
   4   1  29   34.43   11.95
   4  -1  29   46.95   13.79
  -4  -1  29   44.09   15.93
   4   1  29   50.43   14.20
  -4   1  30    5.18    3.96
  -4   1  30    8.83    4.25
  -4  -1  30   34.90   14.87
   4   1  30   24.20   10.26
   4  -1  30   15.22    8.80
  -4  -1  30   18.97    8.72
   4   1  30   20.40    8.03
   4  -1  30    9.90    6.33
  -4  -2   0  528.17   20.76
   4  -2   0  452.96   14.24
  -4   2   0  472.66   27.02
  -4  -2   0  454.73   21.57
   4  -2   0  474.79   24.54
   4  -2  -1    5.12    2.93
  -4   2   1   12.91    4.43
  -4  -2   1    9.27    3.23
   4  -2   1   12.97    4.02
   4   2   1    7.39    1.58
  -4  -2  -1   10.75    2.75
   4  -2   1    8.81    1.89
  -4  -2   1   12.02    4.12
  -4   2  -1    9.12    5.09
   4  -2  -1   13.12    2.58
  -4  -2   2  551.33   22.52
   4  -2   2  460.06   12.47
   4   2   2  500.43   16.09
   4  -2  -2  506.51   18.02
  -4  -2  -2  510.54   19.65
   4  -2   2  443.75   23.74
  -4   2   2  563.22   29.61
  -4  -2   2  416.38   20.68
   4  -2  -2  518.83   24.71
   4  -2   3 1195.19   20.18
  -4  -2   3 1094.36   33.40
   4   2   3 1166.20   27.51
   4  -2  -3 1055.17   34.92
   4  -2   3 1148.43   38.49
  -4  -2  -3 1203.07   31.16
  -4  -2   3 1230.14   35.82
  -4   2   3 1105.40   41.25
  -4  -2   4 1975.77   46.77
   4  -2   4 1816.67   49.40
   4   2   4 2310.75   42.86
  -4  -2  -4 1929.79   40.67
   4  -2  -4 1916.17   47.87
  -4   2   4 1934.19   54.94
  -4  -2   4 2154.86   50.18
   4  -2   4 1697.28   27.03
  -4  -2   5  109.20   11.60
   4   2   5   79.93    9.14
  -4  -2  -5   83.63    8.82
  -4  -2   5  103.47   11.38
  -4   2   5   96.52   12.43
  -4  -2   5   68.02    4.65
   4  -2   5   96.37   11.20
   4   2   6  213.99   15.04
  -4  -2  -6  187.68   13.30
  -4   2   6  219.82   19.40
  -4  -2   6  153.67   14.46
  -4   2   6  220.49   16.76
   4  -2   6  211.07   17.26
  -4  -2   6  191.10    9.62
  -4  -2   6  221.74   17.09
   4   2   7  885.73   32.86
  -4  -2   7  742.35   33.06
  -4   2   7  843.38   38.54
  -4   2   7  793.29   31.99
   4  -2   7  894.32   36.46
  -4  -2   7  777.12   22.57
  -4  -2   7  819.44   35.04
   4   2   8  156.19   14.46
  -4  -2   8  111.99   13.03
  -4  -2  -8  170.67   13.79
  -4   2   8  157.34   17.75
   4  -2   8  161.94   16.19
  -4   2   8  141.01   14.02
  -4  -2   8  177.25   11.98
   4  -2   9   15.09    5.67
  -4  -2   9   16.72    4.67
   4   2   9   22.49    7.14
  -4  -2  -9   18.24    4.97
  -4   2   9   11.87    4.28
  -4   2   9   10.25    3.63
  -4  -2   9   17.09    5.36
   4  -2  10   12.41    6.63
  -4  -2  10    7.44    2.46
   4   2  10   10.01    3.69
  -4   2  10   14.42    2.02
  -4  -2 -10   12.19    4.91
  -4  -2  10    4.40    1.59
  -4   2  10   10.64    4.24
  -4  -2  11   61.31    9.31
   4  -2  11   72.71   12.18
   4   2  11   68.07   11.37
  -4   2  11   56.08   10.11
  -4  -2 -11   62.56    9.59
  -4  -2  11   58.04   10.45
  -4   2  11   55.32   10.44
  -4  -2  12  122.74   13.49
  -4  -2  12  150.56   17.01
   4   2  12  121.79   15.02
  -4   2  12  149.57   18.04
  -4   2  12  151.81   16.39
   4  -2  12  139.79   16.88
   4   2  12  147.63   16.38
  -4  -2  13   90.78   11.58
   4   2  13  140.76   17.04
  -4   2  13  129.29   16.79
   4  -2  13   83.68   13.09
  -4  -2  13  119.04   16.95
  -4   2  13   89.39   12.33
   4   2  13  104.40   14.90
  -4  -2  14   69.58   11.09
   4   2  14   62.39   12.08
   4  -2  14   70.66   12.88
  -4   2  14   93.57   14.59
  -4  -2  14   96.06   14.65
  -4   2  14   62.67   10.96
   4   2  14   74.68   11.74
  -4  -2  15  139.11   16.52
  -4  -2  15  185.14   21.34
   4   2  15  165.18   18.32
   4  -2  15  139.91   18.18
  -4   2  15  149.01   19.25
  -4   2  15  131.96   16.53
   4   2  15  131.03   17.35
  -4  -2  16   59.60   11.12
   4   2  16   69.43   13.31
  -4   2  16   89.91   15.35
  -4  -2  16   64.44   11.68
   4  -2  16   75.53   13.50
  -4   2  16   76.32   13.01
   4   2  16   80.56   14.49
  -4  -2  17   81.80   13.27
   4   2  17   91.35   15.61
  -4   2  17   84.81   15.32
   4  -2  17   58.52   11.73
  -4  -2  17   69.00   13.98
  -4   2  17   74.31   13.17
   4   2  17   87.61   14.03
  -4  -2  18  196.55   21.61
   4   2  18  222.44   24.11
   4  -2  18  246.43   25.35
  -4   2  18  235.13   25.28
  -4  -2  18  251.73   25.90
   4   2  18  190.86   21.87
  -4   2  18  235.34   24.23
  -4   2  19    9.56    7.16
  -4  -2  19   13.22    7.83
  -4  -2  19    0.51    2.74
   4   2  19    6.49    5.81
   4  -2  19   -1.80    4.99
  -4   2  19    0.42    3.97
   4   2  19    3.61    4.46
   4  -2  19   -4.04    2.65
  -4   2  20    7.54    4.26
  -4  -2  20    4.63    5.64
   4   2  20    2.62    3.74
   4  -2  20    3.00    2.94
  -4   2  20    2.73    5.99
  -4  -2  20   -4.06    5.44
   4   2  20    3.30    6.51
   4  -2  20    4.00    3.46
  -4   2  21   28.77    9.75
  -4  -2  21   22.03    8.48
   4   2  21   34.15   10.57
   4   2  21   26.84    5.11
   4  -2  21   39.95   11.80
  -4   2  21   22.41    9.81
  -4  -2  21   26.21    9.60
   4  -2  21   31.16    6.56
   4  -2  22    9.53    7.36
  -4   2  22    8.38    6.11
  -4  -2  22    9.99    3.10
   4   2  22   16.94    7.74
  -4   2  22    3.05    3.97
   4  -2  22    2.10    3.62
  -4  -2  22    8.30    8.49
   4   2  22    4.32    7.52
  -4   2  23   31.42   10.45
  -4  -2  23   18.47    8.47
   4   2  23   19.56    8.06
   4  -2  23   16.80    7.51
  -4   2  23   12.83    5.80
  -4  -2  23   32.24   10.93
   4   2  23   23.55    9.79
   4  -2  23   12.41    4.41
  -4   2  24    1.76    6.69
  -4  -2  24    5.83    3.25
   4   2  24   -2.20    4.70
   4  -2  24    3.73    5.35
  -4   2  24   -7.08    7.34
  -4  -2  24   -2.57    3.40
   4   2  24   -3.38    4.56
   4  -2  24   -6.16    6.37
  -4   2  25    7.92    7.13
  -4  -2  25   11.71    8.30
   4   2  25    1.29    5.59
   4  -2  25    5.28    5.93
  -4   2  25   -5.24    5.06
  -4  -2  25    1.94    3.47
   4   2  25    4.90    8.32
   4  -2  25    8.99    9.46
   4  -2  26   70.44   15.34
  -4   2  26   66.70   15.70
  -4  -2  26   76.64   15.87
   4   2  26   73.31   15.54
  -4   2  26   47.42   12.54
  -4  -2  26   51.94   15.95
   4   2  26   55.02   16.72
   4  -2  26   56.63   14.49
  -4   2  27   13.11    8.01
  -4  -2  27   12.78    5.95
   4   2  27   -5.46    4.19
   4  -2  27    5.15    3.34
  -4   2  27    1.16    7.00
  -4  -2  27   12.57    9.86
   4   2  27    5.36    8.57
   4  -2  27    8.97    7.78
   4  -2  28   -2.90    3.09
  -4   2  28   -0.33    5.50
  -4  -2  28   -5.92    7.06
   4   2  28   -3.03    6.73
  -4   2  28   10.33    8.44
  -4  -2  28    9.32    9.29
   4   2  28   -7.87    4.15
   4  -2  28   -5.06    8.92
  -4   2  29   23.05    7.02
   4   2  29   11.73    3.55
   4  -2  29   40.96   14.61
  -4  -2  29   43.35   13.93
  -4   2  29   28.83   14.50
   4   2  29   31.56   15.13
   4  -2  29   13.05   10.41
  -4   2  30    4.13    4.60
   4   2  30    5.03    4.97
   4  -2  30   -2.77    4.80
  -4   2  30   12.51    9.93
  -4  -2  30    4.14    8.58
   4   2  30   -6.44    6.72
   4  -2  30    2.04    4.64
   4  -3   0 1504.82   47.88
  -4  -3   0 1571.11   42.01
   4  -3   0 1598.87   34.23
   4  -3  -1   20.90    5.85
  -4  -3   1   15.61    4.35
  -4  -3  -1   16.61    4.46
   4  -3   1   20.01    5.53
   4  -3   1   16.22    3.05
  -4   3   1   21.03    6.64
  -4   3  -1   15.61    4.86
  -4  -3   1   19.00    3.93
   4   3   1   13.75    2.14
   4  -3  -1   14.22    3.85
  -4  -3   2   48.30    7.30
   4  -3   2   47.66    5.68
  -4  -3  -2   47.63    6.69
   4  -3   2   54.61    9.16
   4  -3  -2   56.06    6.84
  -4  -3   2   44.27    6.34
  -4   3   2   35.76    8.27
   4  -3  -2   44.79    7.77
   4   3   2   46.77    4.92
  -4  -3   3  547.20   26.37
   4  -3   3  530.52   19.08
   4  -3  -3  563.66   28.37
  -4  -3  -3  559.94   24.58
   4  -3   3  623.14   31.27
  -4  -3   3  563.95   23.50
   4  -3  -3  541.82   22.86
  -4   3   3  546.41   30.49
   4   3   3  504.82   18.44
  -4  -3   4    7.01    2.41
   4  -3  -4    2.71    3.39
   4  -3   4   10.26    3.10
   4   3   4    5.85    2.74
  -4  -3  -4    9.21    2.81
  -4   3   4    7.68    5.07
  -4  -3   4    6.05    1.13
   4  -3  -4    9.72    3.55
   4  -3   4   10.13    4.35
   4  -3   5  310.81   15.59
  -4  -3   5  386.11   23.24
  -4  -3   5  318.32   10.08
   4  -3   5  347.84   23.26
  -4  -3  -5  319.41   18.87
  -4  -3   5  376.51   20.94
   4  -3  -5  328.03   19.40
   4  -3  -5  345.05   22.22
  -4   3   5  291.09   22.35
   4   3   5  345.73   18.19
   4  -3   6 1198.08   32.10
  -4  -3   6 1075.31   40.07
   4   3   6 1153.55   35.74
  -4  -3   6 1142.88   23.68
  -4   3   6 1209.51   45.89
  -4  -3   6 1161.24   38.71
   4  -3   6 1115.49   42.40
   4  -3   7   97.69   10.16
  -4  -3   7   99.00   12.28
   4   3   7   96.91   10.82
  -4  -3   7  126.17   13.99
  -4  -3   7  110.00    8.54
  -4  -3  -7  122.89   12.62
  -4   3   7  118.49   14.83
  -4   3   7  108.37   12.66
   4  -3   7  102.03   13.60
  -4  -3   8  124.55   14.66
   4   3   8  131.65   13.49
  -4  -3   8  133.13   10.28
  -4  -3  -8  135.13   13.57
  -4   3   8  128.47   16.22
  -4  -3   8  142.18   15.54
  -4   3   8  145.23   15.36
   4  -3   8  132.09   15.37
   4  -3   8  171.07   13.73
  -4  -3   9  185.66   18.02
   4   3   9  177.05   16.53
  -4  -3   9  158.03   12.59
  -4  -3  -9  152.51   14.83
  -4   3   9  165.83   16.59
  -4  -3   9  151.19   16.77
   4  -3   9  140.09   16.16
  -4   3   9  199.36   20.02
  -4  -3  10   41.11    9.76
   4   3  10   55.00    9.15
  -4  -3  10   45.97    6.84
  -4   3  10   51.59   11.29
  -4  -3 -10   44.35    7.95
   4  -3  10   52.09   11.13
  -4  -3  10   40.07    8.58
  -4   3  10   46.24    9.22
   4   3  10   36.30    7.57
   4   3  11  249.66   21.13
  -4  -3  11  278.75   18.94
  -4   3  11  272.62   24.97
  -4  -3 -11  247.98   20.45
  -4  -3  11  298.48   24.58
  -4   3  11  267.93   22.25
   4   3  11  282.81   21.26
   4  -3  11  308.28   25.01
  -4  -3  11  296.17   24.96
   4  -3  12   38.75    9.61
   4   3  12   45.60    9.54
  -4  -3  12   51.58    8.79
  -4  -3 -12   55.12    9.72
  -4   3  12   39.35   10.14
  -4  -3  12   60.10   11.47
  -4   3  12   43.39    9.26
   4   3  12   35.20    8.58
   4  -3  13    8.47    5.76
  -4  -3 -13   22.44    7.25
   4   3  13   14.19    5.03
  -4  -3  13   20.03    6.03
  -4   3  13   10.58    4.21
  -4  -3  13   10.48    6.16
   4   3  13   13.76    3.08
  -4   3  13   11.50    6.01
   4   3  14    0.52    5.22
  -4  -3  14    4.99    4.92
  -4  -3 -14    8.58    5.24
  -4   3  14   -0.99    3.64
  -4  -3  14    4.55    3.17
   4   3  14   15.52    7.15
   4  -3  14    0.57    3.99
  -4   3  14   10.42    7.78
   4   3  15  137.73   17.64
  -4  -3  15  105.79   14.21
  -4   3  15  100.19   17.06
   4  -3  15  126.66   16.59
  -4  -3 -15  123.61   16.64
  -4  -3  15  144.17   19.10
  -4   3  15  127.66   16.65
   4   3  15  123.29   16.58
  -4   3  16    1.39    4.08
   4   3  16   -2.08    3.24
  -4  -3  16    1.41    2.32
  -4  -3 -16   -3.19    4.60
  -4   3  16   10.06    7.30
  -4  -3  16   -5.73    6.66
   4  -3  16   -1.26    2.14
   4   3  16    4.16    5.55
  -4  -3  17  197.93   23.68
   4   3  17  218.14   23.62
  -4  -3  17  176.64   20.20
   4  -3  17  169.69   21.57
  -4   3  17  190.49   23.56
  -4   3  17  161.57   19.94
   4   3  17  181.20   21.04
   4   3  18   91.05   15.58
  -4  -3  18   88.52   14.47
   4  -3  18  103.01   16.83
  -4   3  18  105.45   16.27
  -4  -3  18   77.20   14.24
  -4   3  18  120.50   18.43
   4   3  18   96.16   15.84
   4   3  19  103.87   16.77
  -4  -3  19  116.56   17.91
  -4   3  19  127.13   19.70
   4  -3  19  160.59   21.36
  -4  -3  19  150.42   21.60
   4   3  19  100.36   17.21
  -4   3  19  126.34   18.86
   4  -3  19  145.85   21.73
   4   3  20  116.13   17.87
  -4  -3  20   91.00   15.23
   4  -3  20   86.46   16.17
  -4  -3  20  105.28   17.60
  -4   3  20   69.37   14.25
   4   3  20   95.99   16.22
  -4   3  20   70.55   14.61
   4  -3  20   83.41   15.67
   4   3  21  714.33   45.72
  -4  -3  21  652.17   42.28
   4  -3  21  648.67   43.65
  -4  -3  21  736.28   47.89
  -4   3  21  745.56   48.08
   4   3  21  664.20   45.74
  -4   3  21  667.62   44.29
   4  -3  21  730.89   47.24
  -4   3  22    3.91    4.96
   4   3  22    3.83    4.64
  -4  -3  22    8.42    7.25
   4  -3  22    3.98    4.51
  -4   3  22   -5.52    8.35
  -4  -3  22    2.96    3.29
   4   3  22   14.12    6.38
   4  -3  22   -1.29    6.49
  -4   3  23   50.65   13.46
   4   3  23   66.98   15.25
  -4  -3  23   59.12   13.53
   4  -3  23  104.98   17.27
  -4   3  23   57.01   13.09
  -4  -3  23   53.81   14.49
   4   3  23   37.80   13.27
   4  -3  23   90.32   17.04
  -4   3  24    0.02    3.40
  -4   3  24    6.17    6.18
   4   3  24   10.10    8.80
  -4  -3  24    0.90    4.67
   4  -3  24   -5.95    4.48
  -4  -3  24   -2.74    7.29
   4   3  24    1.09    5.00
   4  -3  24    8.78    7.93
   4   3  25  114.93   21.19
  -4  -3  25  132.59   21.79
   4  -3  25   82.48   16.48
  -4   3  25  116.63   20.84
  -4  -3  25   77.32   19.84
  -4   3  25   90.82   18.41
   4   3  25   88.89   17.48
   4  -3  25   78.75   16.50
  -4   3  26   35.94   11.12
   4   3  26   34.12    9.71
  -4   3  26   25.65   10.44
  -4  -3  26   32.10   13.48
   4  -3  26   38.97   12.61
   4   3  26    7.19    8.34
   4  -3  26   20.09   11.43
  -4   3  27    0.41    6.06
   4   3  27   12.43    7.59
  -4   3  27    0.88    3.02
  -4  -3  27   16.75    9.02
   4   3  27   29.81   13.29
   4  -3  27   32.41   15.02
   4  -3  27   19.50    8.81
  -4   3  28   21.97    7.54
   4   3  28    6.56    4.68
   4  -3  28   36.52   15.37
  -4   3  28   12.15    7.14
  -4  -3  28   33.52   12.42
   4   3  28   21.93    6.58
   4  -3  28   36.05   15.25
   4  -3  29  146.56   22.50
  -4   3  29  141.82   22.31
  -4  -3  29  159.90   25.70
  -4   3  29  125.27   21.24
   4   3  29  144.72   24.06
   4  -3  29  111.70   20.15
   4   3  29  147.02   22.59
  -4   3  30   11.09    7.18
   4  -3  30   14.92    9.17
   4   3  30    4.14    4.17
  -4   3  30   12.08    7.72
  -4  -3  30   19.03   11.56
   4   3  30   19.41   13.18
   4  -3  30   13.20    8.64
  -4  -4   0   25.69    3.91
   4  -4   0   27.48    5.68
  -4  -4   0   21.46    5.37
  -4  -4   0   20.99    4.12
  -4   4   0   34.97    9.17
   4  -4   0   23.76    7.28
  -4  -4   1   25.12    3.14
   4  -4  -1   11.79    5.91
  -4  -4   1   20.32    6.38
  -4  -4  -1   22.10    5.39
   4  -4   1   18.61    4.70
   4  -4  -1   20.33    4.43
  -4  -4   1   15.87    3.58
   4  -4   1   13.69    3.59
  -4   4   1   10.78    4.78
   4   4   2  131.93    9.62
  -4  -4   2  154.95   14.92
   4  -4   2  134.80   11.51
  -4  -4  -2  143.46   14.24
   4  -4  -2  144.82   12.84
   4  -4   2  143.55   16.46
  -4   4   2  149.29   15.86
  -4  -4   2  150.72   10.45
   4  -4  -2  149.39   16.17
  -4  -4   2  116.80    6.08
  -4  -4   3   55.16    9.12
   4  -4  -3   60.96    9.98
   4  -4   3   51.52    7.51
  -4  -4  -3   69.97    9.98
   4  -4   3   51.94    9.57
   4  -4  -3   45.03    7.29
  -4   4   3   61.12   10.88
  -4  -4   3   60.18    7.22
  -4  -4   3   45.64    3.79
   4   4   3   54.09    6.64
  -4  -4   4  165.67   15.93
   4  -4   4  181.65   13.96
   4  -4   4  169.71   17.71
  -4  -4  -4  235.80   17.89
   4  -4  -4  176.86   17.70
   4  -4  -4  141.51   13.42
  -4  -4   4  175.99    8.40
  -4  -4   4  123.45   11.11
  -4   4   4  182.91   18.72
   4   4   4  250.82   15.23
   4  -4  -5 1001.43   37.02
  -4  -4   5  887.81   38.11
   4  -4   5  956.82   32.17
   4  -4   5  959.32   41.86
  -4  -4   5  924.08   21.48
  -4   4   5 1018.68   43.95
   4  -4  -5  971.48   40.77
  -4  -4   5 1081.56   34.34
   4   4   5 1049.00   33.24
  -4  -4   6  148.57   16.36
   4  -4   6  186.51   14.54
   4  -4   6  194.50   18.76
  -4  -4  -6  177.37   16.13
  -4  -4   6  179.14   10.38
  -4   4   6  173.10   18.61
  -4  -4   6  140.19   13.45
   4  -4  -6  162.48   15.55
   4   4   6  190.09   15.10
   4  -4   7  246.73   17.18
  -4  -4   7  275.92   22.09
  -4  -4   7  240.43   13.28
  -4  -4  -7  252.92   19.62
  -4  -4   7  216.74   17.55
   4  -4  -7  257.39   19.97
  -4   4   7  258.56   22.53
   4   4   7  195.18   13.71
   4   4   7  257.03   18.36
   4  -4   7  239.72   21.04
   4  -4   8    0.53    2.71
  -4  -4   8    1.95    2.40
  -4  -4   8    3.11    3.81
   4   4   8    7.37    4.38
   4  -4   8    3.63    2.60
  -4  -4  -8    6.51    2.00
  -4   4   8    6.03    4.52
   4  -4  -8    2.96    3.01
  -4  -4   8    1.28    3.74
  -4   4   8    5.26    2.73
   4   4   8    2.59    2.40
   4  -4   9    2.50    3.71
  -4  -4   9    0.55    2.30
  -4  -4  -9    3.41    4.50
   4   4   9   -0.19    2.65
   4  -4   9   -1.82    1.95
  -4  -4   9   -1.73    2.77
  -4   4   9   -1.13    5.15
  -4  -4   9    1.06    3.06
  -4   4   9   -1.37    3.99
   4   4   9   -0.15    2.22
  -4  -4  10   45.49    9.73
   4   4  10   41.32    8.06
  -4  -4  10   47.90    7.95
   4  -4  10   52.33   10.20
  -4  -4 -10   63.46    9.75
  -4   4  10   55.32   10.64
  -4  -4  10   46.73    9.62
   4   4  10   76.25   11.58
  -4   4  10   47.68    9.04
   4  -4  10   48.42    9.21
  -4  -4  11   27.89    7.85
   4  -4  11   29.53    9.71
   4   4  11   12.23    5.35
  -4  -4  11   20.41    5.24
  -4  -4 -11   13.34    3.43
  -4   4  11   32.15    9.86
  -4  -4  11   38.59    9.55
  -4   4  11   24.98    6.55
   4   4  11   14.10    5.52
   4  -4  11   24.19    7.46
  -4  -4  12   -0.30    2.90
   4  -4  12    1.83    3.35
   4   4  12    4.76    3.43
  -4  -4 -12    3.68    2.63
  -4   4  12    5.29    4.67
  -4  -4  12    3.51    3.44
  -4   4  12   -2.80    2.46
   4   4  12    6.44    4.17
  -4  -4  12    4.94    4.57
   4  -4  13    0.97    3.55
   4   4  13   12.05    5.62
  -4  -4 -13   17.80    8.36
  -4   4  13   13.07    4.11
  -4  -4  13    8.66    4.13
  -4  -4  13    3.67    3.99
  -4   4  13   15.89    5.76
   4   4  13    6.67    3.80
   4   4  14  165.90   18.97
  -4  -4  14  113.59   14.25
  -4  -4 -14  135.09   17.78
  -4   4  14  142.93   19.97
   4  -4  14  154.76   18.65
  -4  -4  14  104.61   16.73
  -4   4  14  154.93   19.33
   4   4  14  127.88   15.69
   4  -4  15   50.02   11.34
   4   4  15   51.71   11.24
  -4  -4  15   42.88    9.60
  -4  -4 -15   37.59   10.27
  -4  -4  15   40.25   10.57
  -4   4  15   30.13    9.02
   4   4  15   58.22   10.20
  -4   4  15   36.53   10.27
   4   4  16   52.99   11.56
  -4  -4  16   46.13   10.05
  -4  -4 -16   56.42   11.79
  -4   4  16   49.37   10.30
  -4  -4  16   47.06   12.94
   4   4  16   58.49   11.25
   4  -4  16   46.63   10.05
  -4   4  16   58.94   12.54
   4   4  17   39.65   10.63
  -4  -4  17   12.29    4.90
  -4  -4 -17   33.55    9.60
  -4   4  17   35.07   10.52
  -4  -4  17   35.41   10.73
   4   4  17   48.65   11.47
   4  -4  17   34.04   10.16
  -4   4  17   21.41    8.06
  -4   4  18   51.12   12.22
   4   4  18   46.67   11.36
  -4  -4  18   51.04   10.95
  -4  -4 -18   49.53   13.24
  -4  -4  18   41.07    9.20
   4  -4  18   57.58   11.67
   4   4  18   56.35   10.87
  -4   4  18   43.93   11.03
   4   4  19  239.81   25.50
  -4  -4  19  189.45   21.83
  -4  -4 -19  204.42   23.86
  -4   4  19  227.47   26.31
   4  -4  19  218.68   25.06
  -4  -4  19  211.54   25.22
  -4   4  19  215.04   24.94
  -4   4  20   -1.13    2.30
   4   4  20    2.37    2.61
  -4  -4  20    1.00    3.77
  -4  -4 -20   -0.49    5.22
  -4   4  20   -3.07    6.16
  -4  -4  20   -2.03    2.89
   4  -4  20    3.18    7.65
   4   4  20    4.26    7.71
   4  -4  20   -2.93    6.38
  -4   4  21   11.10    8.09
   4   4  21   -1.56    5.04
  -4  -4  21   10.14    6.72
  -4  -4 -21   14.56    7.36
  -4   4  21   18.67    8.62
   4  -4  21   12.16    6.79
  -4  -4  21   27.41   11.18
   4   4  21    5.57    3.41
   4  -4  21    8.14    4.64
  -4   4  22   46.84   11.30
   4   4  22   41.39   13.31
  -4  -4 -22   49.39   12.02
  -4   4  22   55.94   12.87
   4  -4  22   50.88   11.46
  -4  -4  22   37.36   11.09
   4   4  22   32.57    9.09
   4  -4  22   39.60   14.68
  -4   4  23    1.02    6.72
   4   4  23    1.56    2.83
  -4   4  23    5.24    5.62
  -4  -4 -23    2.93    7.35
   4  -4  23    2.67    4.75
  -4  -4  23   17.14   10.51
   4   4  23   -0.72    6.65
   4  -4  23    5.77    6.84
  -4   4  24    6.06    5.44
   4   4  24    2.44    6.95
   4  -4  24    2.85    4.93
  -4  -4 -24   -0.08    3.89
  -4   4  24    3.02    6.81
  -4  -4  24   -1.87    3.97
   4   4  24   -4.72    5.33
   4  -4  24    0.16    6.97
  -4   4  25   -0.97    7.96
   4   4  25   -1.68    4.40
   4  -4  25    9.93    8.40
  -4  -4 -25    2.50    4.15
  -4   4  25    3.21    3.88
  -4  -4  25   13.07    7.02
   4   4  25   -0.62    7.18
   4  -4  25    3.58    4.94
  -4   4  26    1.57    4.60
   4   4  26   -4.08    4.15
   4  -4  26   -7.31    6.23
  -4  -4 -26    4.56    7.78
  -4   4  26   -7.05    6.58
  -4  -4  26    6.75    6.76
   4   4  26   -0.67    6.09
   4  -4  26   -5.18    8.16
  -4   4  27   -0.35    5.98
   4   4  27   -3.03    4.74
  -4   4  27    6.33    6.26
   4  -4  27    2.70    4.91
  -4  -4 -27   13.12   10.95
  -4  -4  27    4.87    4.36
   4   4  27   15.33   10.67
   4  -4  27   14.66    8.14
  -4   4  28   15.39    9.07
   4   4  28   14.10    7.10
   4  -4  28    8.83    4.46
  -4  -4 -28   10.09    9.83
  -4   4  28   26.33   11.85
  -4  -4  28   20.11   12.36
   4   4  28   25.41   11.14
   4  -4  28   17.12   10.67
  -4   4  29   10.07    8.62
   4   4  29   -6.00    9.27
   4  -4  29   -4.18    8.96
  -4  -4 -29    9.04    8.27
  -4   4  29   -2.71    6.32
  -4  -4  29   -3.46    3.63
   4   4  29   17.45   14.23
   4  -4  29  -12.00    9.58
  -4   4  30   21.22   11.73
   4   4  30   12.12    5.44
   4  -4  30   16.23    8.27
  -4  -4 -30   16.60    8.10
  -4   4  30   12.68    5.43
  -4  -4  30   13.94    7.75
   4   4  30   25.21   15.78
   4  -4  30   12.65    8.69
  -4  -5   0  364.74   25.06
   4  -5   0  348.77   21.75
   4  -5   0  351.77   26.75
  -4   5   0  372.78   27.08
  -4  -5   0  390.14   17.27
   4  -5  -1   -4.72    5.55
  -4  -5   1    2.16    2.68
  -4  -5  -1   -0.13    1.76
  -4  -5  -1    1.06    2.47
   4  -5   1    0.28    1.31
   4  -5   1   -0.53    2.82
   4  -5  -1   -0.31    1.97
  -4  -5   1    0.92    1.18
  -4   5   1    1.03    2.33
  -4  -5   1   -1.48    1.62
  -4  -5   2  206.60   19.65
   4  -5   2  189.49   15.43
  -4  -5  -2  179.03   17.72
  -4  -5   2  201.37   11.95
   4  -5  -2  209.55   16.99
  -4   5   2  189.25   19.43
   4  -5   2  188.59   19.72
  -4  -5   2  165.90   10.14
   4  -5  -2  166.24   17.88
  -4  -5   3  285.36   13.65
   4  -5  -3  281.90   23.05
  -4  -5   3  267.38   21.96
   4  -5   3  308.19   20.75
  -4  -5  -3  290.54   22.54
   4  -5  -3  256.26   19.33
   4  -5   3  300.35   25.37
  -4   5   3  277.04   23.62
  -4  -5   3  214.27   12.72
   4   5   3  267.32   16.53
  -4  -5   4  111.20   14.11
   4  -5   4  115.55   12.82
   4  -5  -4  104.39   14.60
  -4  -5  -4  102.62   13.71
   4  -5   4   91.09   13.85
   4  -5  -4   97.29   12.84
  -4   5   4  115.44   15.43
  -4  -5   4   72.51    8.59
   4   5   4  138.02   12.83
   4   5   4   78.57    5.38
  -4  -5   4  105.39    8.26
  -4  -5   5  145.25   16.16
  -4  -5   5  144.29   12.38
   4  -5   5  122.44   13.23
   4  -5   5  118.73   16.41
  -4   5   5  120.93   15.58
  -4  -5  -5  124.39   14.99
   4  -5  -5  141.33   16.77
   4  -5  -5  159.72   16.21
  -4  -5   5  124.58    9.29
   4   5   5  127.38   12.96
   4   5   5  140.36    8.63
  -4  -5   6   17.00    3.79
   4   5   6   18.94    4.71
  -4  -5  -6   19.77    6.77
  -4  -5   6   20.19    7.30
   4  -5   6   16.23    5.46
   4  -5  -6   19.03    6.57
  -4   5   6   18.78    6.78
   4  -5  -6   18.32    5.93
  -4  -5   6   11.53    3.69
   4  -5   6   15.17    3.55
   4   5   6   10.77    2.51
  -4   5   7   -3.05    3.43
   4   5   7   -0.43    1.64
  -4  -5   7   10.12    5.75
   4  -5   7    6.39    4.61
  -4  -5   7    1.94    2.30
  -4  -5  -7    9.22    4.39
   4  -5  -7    2.57    2.68
   4  -5   7    2.86    1.74
  -4  -5   7    4.94    2.50
   4   5   7    5.33    2.11
  -4  -5   8  278.02   23.99
   4  -5   8  265.63   20.19
  -4  -5  -8  262.24   22.28
  -4  -5   8  270.63   16.39
   4  -5  -8  272.90   22.69
  -4  -5   8  266.55   20.57
  -4   5   8  229.40   22.25
   4   5   8  257.14   20.26
   4  -5   8  290.66   24.82
   4  -5   9  218.00   18.99
  -4  -5   9  227.33   22.64
  -4  -5  -9  189.38   18.93
  -4  -5   9  196.76   15.02
   4  -5  -9  212.65   20.34
  -4   5   9  183.97   20.76
  -4  -5   9  228.71   19.60
  -4   5   9  207.83   20.76
   4   5   9  243.43   16.42
   4   5   9  206.29   18.41
   4  -5   9  232.96   22.35
   4  -5  10  429.18   26.73
  -4  -5  10  440.32   31.66
  -4   5  10  512.51   33.39
  -4  -5  10  452.74   24.19
  -4  -5 -10  402.40   28.39
  -4   5  10  474.22   32.62
  -4  -5  10  397.94   26.76
   4   5  10  389.11   22.60
   4  -5 -10  417.04   29.06
   4  -5  10  469.12   31.58
   4   5  10  409.78   27.00
   4  -5  11   42.19    9.44
  -4  -5  11   35.08    8.53
   4   5  11   36.58    8.29
  -4  -5 -11   35.22    9.14
  -4  -5  11   48.44    8.09
  -4   5  11   50.66   10.94
   4  -5 -11   50.68   10.56
   4   5  11   54.04    9.05
  -4  -5  11   40.00    9.55
  -4   5  11   39.02    9.55
  -4  -5  12  120.73   17.11
  -4  -5  12  114.66   13.70
  -4  -5 -12  120.83   16.48
   4  -5  12  124.67   16.85
  -4   5  12  124.08   17.54
   4  -5 -12  126.32   17.39
  -4  -5  12  165.04   18.78
  -4   5  12  111.29   16.13
   4   5  12  124.70   14.39
   4   5  12  144.07   17.27
   4  -5  12  122.82   15.61
  -4  -5  13   29.95    9.82
   4   5  13   23.57    4.61
   4  -5  13   33.26    9.99
  -4  -5  13   33.45    8.38
  -4  -5 -13   33.71    9.49
  -4   5  13   24.32    7.58
   4  -5 -13   28.88    8.85
  -4  -5  13   29.31    8.50
  -4   5  13   26.88    8.96
   4   5  13   25.68    6.76
   4  -5  13   29.42    9.05
  -4  -5  14  766.41   38.56
  -4  -5 -14  706.14   41.46
   4  -5  14  703.33   41.92
  -4  -5  14  623.06   37.78
  -4   5  14  750.48   45.04
  -4   5  14  783.35   44.01
   4   5  14  755.90   38.61
   4   5  14  690.11   40.33
  -4  -5  14  715.17   43.78
  -4  -5  15    2.27    4.72
   4  -5  15    8.46    3.88
   4   5  15    4.93    5.33
  -4  -5 -15   12.27    5.12
  -4   5  15   -1.75    4.18
  -4  -5  15    4.57    4.94
   4   5  15   12.03    6.97
  -4   5  15   10.77    6.83
  -4  -5  15    1.15    3.49
  -4  -5  16  249.17   23.63
   4  -5  16  245.51   25.05
  -4  -5 -16  265.04   26.77
  -4   5  16  251.41   26.27
  -4  -5  16  251.60   25.45
   4   5  16  226.50   23.37
  -4   5  16  242.49   24.87
   4   5  16  249.50   25.06
  -4  -5  17  134.30   18.49
   4  -5  17  119.15   17.74
  -4   5  17   80.37   14.88
  -4  -5  17  107.70   17.92
  -4  -5 -17  112.63   17.25
   4   5  17   89.46   15.13
  -4   5  17  122.51   18.63
   4   5  17   92.52   16.19
  -4  -5  18  168.08   20.94
  -4  -5 -18  153.15   20.61
  -4   5  18  144.17   21.84
  -4  -5  18  156.08   21.66
   4   5  18  119.85   19.08
  -4   5  18  131.64   19.40
   4   5  18  141.34   19.10
   4   5  19    1.07    2.40
  -4  -5 -19    3.21    5.15
  -4   5  19   10.70    6.98
  -4  -5  19   -2.23    4.40
   4   5  19    0.69    4.60
   4  -5  19    0.75    4.72
  -4   5  19   -1.24    5.47
  -4  -5 -20  122.47   19.32
   4  -5  20  157.40   22.18
  -4   5  20  121.60   18.71
  -4  -5  20  122.01   19.48
   4   5  20  107.17   18.84
  -4   5  20   98.53   17.72
   4   5  20  110.14   18.19
   4   5  21   20.18    8.96
  -4  -5 -21    9.24    6.14
  -4   5  21    4.73    5.79
  -4  -5  21    2.25    4.67
   4  -5  21    1.50    7.08
   4   5  21   23.62   10.28
  -4   5  21    9.46    6.45
   4  -5  21   10.10    6.45
   4  -5  22  227.03   27.32
  -4  -5 -22  269.94   30.35
  -4   5  22  201.83   25.95
  -4  -5  22  241.34   28.42
   4   5  22  252.58   29.06
  -4   5  22  250.40   28.87
   4  -5  22  295.33   31.56
   4   5  22  238.39   27.88
   4   5  23   19.35    8.46
  -4  -5 -23   30.25    9.93
  -4   5  23   40.23   11.36
   4  -5  23   39.01   11.29
  -4  -5  23   25.16    9.61
   4   5  23   41.29   10.99
   4  -5  23   47.08   14.14
  -4   5  23   23.51   10.20
   4   5  24   74.95   15.55
  -4  -5 -24   57.88   13.69
  -4   5  24   96.22   17.47
   4  -5  24   57.82   14.43
  -4   5  24  108.32   19.56
  -4  -5  24   85.65   17.27
   4   5  24   76.11   15.00
   4  -5  24  110.60   19.96
   4   5  25   27.55   10.21
   4  -5  25   32.35   10.10
  -4  -5 -25   50.83   14.55
  -4   5  25   27.58   11.15
  -4  -5  25   36.31   13.37
   4   5  25   21.30    8.45
   4  -5  25   61.93   14.99
  -4   5  25   21.73   11.40
   4   5  26   -2.77    3.60
   4  -5  26    1.84    5.91
  -4  -5 -26    0.20    7.90
  -4   5  26   -1.20    4.43
  -4  -5  26    7.91   10.53
   4   5  26   11.56   10.14
   4  -5  26    7.74   10.43
  -4   5  26   -9.24    7.21
   4   5  27   10.98   10.18
   4  -5  27   -0.55    5.81
  -4  -5 -27   -1.93    6.99
  -4   5  27    3.26    4.97
  -4  -5  27   -5.23    6.23
   4   5  27    8.69    9.56
   4  -5  27    2.93    5.38
  -4   5  27   -3.57    5.33
   4   5  28   15.04    5.54
   4  -5  28   29.97   12.12
  -4  -5 -28   38.52   12.74
  -4   5  28    7.79    7.84
  -4  -5  28   16.82    7.71
   4  -5  28   21.13   13.28
  -4   5  28   17.92   10.30
   4   5  29   31.15    9.79
   4  -5  29   61.68   15.76
  -4  -5 -29   39.10   14.59
  -4   5  29   57.66   14.31
  -4  -5  29   39.63   12.81
   4  -5  29   21.38   11.65
  -4   5  29   33.59   12.36
  -4  -6   0  258.29   22.52
   4  -6   0  285.30   21.65
   4  -6   0  269.02   24.49
  -4  -6   0  256.53   16.94
  -4  -6   1   44.08   10.14
  -4  -6  -1   38.98    9.34
  -4  -6  -1   34.60    6.61
  -4   6   1   45.35    9.55
   4  -6   1   38.01    8.09
   4  -6  -1   30.07    7.91
  -4  -6   1   46.61    7.66
   4  -6   1   37.44    9.41
   4  -6  -1   53.77   12.37
  -4  -6   2  156.57   18.01
   4  -6   2  176.32   17.30
  -4  -6  -2  140.31   16.26
   4  -6  -2  189.44   18.05
  -4  -6   2  163.81   13.25
  -4   6   2  176.75   19.64
   4  -6   2  137.06   17.36
  -4  -6  -2  156.23   13.89
   4  -6  -2  183.32   20.29
  -4  -6   3    5.64    4.89
   4  -6   3    5.72    3.49
   4  -6   3    3.99    4.98
  -4  -6  -3    4.62    2.33
   4  -6  -3    3.25    4.66
  -4  -6   3    0.92    1.00
  -4   6   3    1.19    1.81
   4  -6  -3    3.98    4.81
  -4  -6   3   -0.22    1.41
  -4  -6   4  286.03   16.86
  -4  -6   4  237.12   21.89
   4  -6   4  290.66   21.90
   4  -6  -4  268.61   23.73
  -4  -6  -4  254.00   22.50
   4  -6  -4  288.40   22.31
   4  -6   4  309.08   26.50
  -4   6   4  287.70   24.78
  -4  -6   4  303.71   15.67
   4   6   4  279.77   19.63
   4  -6   5   31.99    7.68
  -4  -6   5   34.63    8.01
   4  -6   5   26.18    7.14
   4  -6  -5   45.75   10.30
  -4  -6   5   32.85    5.55
  -4  -6  -5   26.48    7.97
  -4   6   5   35.07    8.50
   4  -6  -5   33.93    7.78
  -4  -6   5   29.29    5.64
   4   6   5   42.04    8.50
  -4  -6   6  209.01   21.42
   4  -6   6  226.55   19.89
   4  -6   6  253.46   24.48
  -4  -6  -6  190.16   19.48
   4  -6  -6  261.10   23.80
   4  -6  -6  207.00   19.75
  -4   6   6  258.33   24.07
  -4  -6   6  264.69   17.48
  -4  -6   6  238.17   15.59
   4   6   6  214.81   18.66
  -4  -6   7   28.94    6.60
   4  -6  -7   35.42    9.29
  -4  -6   7   33.01    7.42
   4  -6   7   31.86    7.49
  -4  -6  -7   55.03   11.21
  -4   6   7   30.63    8.15
  -4  -6   7   38.72    6.58
   4   6   7   32.66    4.29
   4  -6   7   45.80   11.45
   4  -6  -7   51.56    9.43
   4   6   7   35.45    7.68
  -4  -6   8   -0.71    1.51
  -4  -6   8   -0.50    2.65
   4  -6   8    1.53    3.13
  -4   6   8   -4.07    5.33
   4  -6  -8    0.67    3.13
   4  -6   8   -4.85    4.11
  -4  -6   8   -0.89    3.43
   4   6   8   -0.49    1.07
  -4  -6  -8    0.82    4.56
   4   6   8   -1.16    3.81
   4   6   9    9.15    4.14
  -4  -6   9    4.22    4.06
   4  -6   9   19.38    7.33
  -4  -6  -9    8.05    3.77
   4  -6   9   18.37    7.44
  -4   6   9   16.27    7.72
   4  -6  -9   13.83    6.87
  -4  -6   9    8.43    2.31
   4   6   9    8.90    2.91
  -4  -6   9    8.30    5.57
   4  -6  10   28.74    8.76
  -4  -6  10   43.65    9.84
   4  -6  10   46.55   10.67
  -4  -6 -10   36.37    8.11
  -4   6  10   39.50    9.89
   4  -6 -10   49.51    9.99
  -4  -6  10   45.04    9.94
   4   6  10   49.71   10.26
   4   6  10   33.97    6.91
  -4  -6  10   44.56    7.61
   4   6  11   42.02    9.63
   4  -6  11   39.05    8.97
  -4  -6  11   12.33    6.72
   4  -6  11   32.02    9.58
  -4  -6 -11   16.45    8.76
  -4   6  11   32.98    8.94
   4  -6 -11   23.10    7.67
  -4  -6  11   18.81    6.79
  -4  -6  11   21.95    6.18
  -4   6  11   19.90    6.81
   4   6  11   36.31    7.32
   4  -6  12  294.35   24.86
  -4  -6  12  314.60   28.27
  -4  -6  12  275.59   21.97
  -4  -6 -12  303.78   27.38
   4  -6 -12  280.41   26.68
  -4   6  12  299.97   27.01
  -4  -6  12  285.44   25.04
   4   6  12  283.14   20.99
  -4   6  12  307.41   27.03
   4  -6  12  295.27   26.81
   4   6  12  261.19   23.58
   4  -6  13    1.08    2.28
  -4  -6  13    0.61    3.21
   4   6  13    0.83    3.17
   4  -6  13    4.09    5.85
  -4  -6 -13    6.15    5.18
  -4   6  13    1.52    3.86
   4  -6 -13   -0.59    5.76
  -4  -6  13   12.65    7.71
  -4  -6  13    0.04    3.44
  -4   6  13   -6.50    6.66
   4   6  13   -1.32    3.67
   4  -6  14   -2.90    4.69
  -4  -6  14   16.31    7.35
   4   6  14   23.43    7.79
   4  -6  14   22.13    8.53
  -4  -6 -14   12.54    6.30
  -4   6  14   28.31    9.34
   4  -6 -14    9.44    5.12
  -4  -6  14   28.27    8.10
   4   6  14   26.51    8.64
  -4   6  14   25.87    7.95
  -4  -6  15  516.43   38.49
  -4  -6 -15  422.68   33.55
   4  -6 -15  404.67   33.71
  -4   6  15  534.91   38.86
   4  -6  15  433.25   34.82
  -4  -6  15  456.62   35.42
   4   6  15  432.73   30.04
  -4   6  15  468.18   36.59
   4   6  15  402.81   31.35
   4  -6  15  438.76   33.84
  -4  -6  16   -1.65    3.56
   4  -6  16   10.90    6.30
   4   6  16   -1.24    2.96
  -4  -6 -16   -1.24    3.09
  -4   6  16    6.12    5.65
   4  -6 -16    1.19    6.02
  -4  -6  16    0.85    3.69
   4   6  16    5.54    3.04
  -4   6  16    2.49    4.42
   4  -6  17   35.10   10.54
   4   6  17   59.26   12.22
   4  -6 -17   34.97   10.66
  -4  -6 -17   27.43   10.46
  -4   6  17   51.05   12.75
  -4  -6  17   36.39    9.32
   4   6  17   37.19    9.72
  -4   6  17   56.28   13.82
  -4  -6  17   28.48   10.46
   4   6  18   79.05   14.09
  -4   6  18   51.26   12.39
  -4  -6 -18   84.18   14.86
   4  -6  18  108.67   17.95
   4  -6 -18  101.50   17.28
  -4   6  18   99.68   18.82
  -4  -6  18   59.20   13.94
   4   6  18   61.23   14.49
   4   6  19   17.36    5.49
   4  -6 -19   18.19    5.72
  -4  -6 -19   11.87    7.89
  -4   6  19   19.94    8.34
  -4  -6  19   16.16   10.47
   4   6  19   22.96    9.24
  -4   6  19   16.15    6.77
   4  -6  19   18.50    8.89
   4   6  20    7.74    4.88
  -4  -6 -20    9.06    4.90
   4  -6 -20   -0.81    5.77
  -4  -6  20   16.90    7.02
   4   6  20   16.51    7.67
   4  -6  20    8.18    2.46
  -4   6  20    6.22    6.81
  -4   6  20    3.83    5.55
   4  -6  21   98.23   19.26
  -4   6  21   92.13   17.92
   4  -6 -21   99.72   17.34
  -4  -6  21   78.57   16.47
   4   6  21  100.79   17.84
  -4   6  21   67.26   15.61
  -4  -6 -21   71.65   15.85
   4  -6  21  135.18   22.07
   4   6  22   35.44   10.02
  -4  -6 -22   30.78   11.07
  -4   6  22   17.85    8.70
   4  -6 -22    8.88    3.69
  -4  -6  22   13.91    5.32
   4  -6  22   25.83   10.78
  -4   6  22   28.83   10.45
   4  -6  22   41.89   14.19
   4   6  23   21.04    9.91
  -4   6  23   17.63   11.97
  -4  -6 -23   30.11   12.64
   4  -6 -23   28.15    9.41
  -4  -6  23   11.30    5.98
   4  -6  23   20.59   10.78
  -4   6  23   24.35    7.27
   4  -6  23   18.95    8.89
   4   6  24   -4.28    7.37
  -4  -6 -24    1.51    3.66
  -4   6  24    5.37    6.03
   4  -6 -24    7.87    7.66
   4  -6  24   13.51   10.67
  -4  -6  24    5.90    5.72
  -4   6  24   16.85    6.58
   4  -6  24    1.48    3.23
   4   6  25    6.11    6.02
  -4  -6 -25   11.18   10.18
  -4   6  25   -1.51    4.02
   4  -6  25    6.60    9.71
  -4  -6  25   -1.06    7.00
   4  -6 -25   -0.95    5.00
  -4   6  25    7.72    6.78
   4  -6  25   24.15    9.89
   4   6  26  104.78   19.50
  -4  -6 -26  105.02   20.36
  -4   6  26  105.16   19.88
   4  -6  26   82.10   16.70
   4  -6 -26   97.63   19.57
  -4  -6  26   86.02   19.63
   4  -6  26  105.62   20.77
  -4   6  26   90.03   18.71
   4   6  27    8.58    7.63
  -4  -6 -27   33.36   11.64
   4  -6  27    9.26    6.65
  -4   6  27   19.41    9.50
   4  -6 -27    5.73    6.19
  -4  -6  27   23.85   11.28
   4  -6  27   -5.56    9.17
  -4   6  27   23.17    4.65
   4   6  28   -1.09    5.84
   4  -6  28   -7.48    7.45
  -4  -6 -28    2.26    7.99
  -4   6  28   20.44   11.21
   4  -6 -28   -8.03    8.14
  -4  -6  28   -1.66    5.09
   4  -6  28    4.03    6.48
  -4   6  28   -4.32    7.44
  -4  -7   0   95.52   14.98
   4  -7   0   77.32   12.27
   4  -7   0   77.17   14.21
  -4  -7   0   80.83   10.86
  -4  -7  -1  172.64   15.64
  -4  -7   1  190.46   21.19
  -4  -7  -1  154.34   19.08
   4  -7   1  179.85   18.25
   4  -7  -1  183.04   18.99
  -4   7   1  201.78   21.40
   4  -7   1  185.40   21.83
  -4  -7   1  160.59   15.18
   4  -7  -1  157.51   19.52
  -4  -7   2   25.19    8.06
   4  -7   2   29.64    7.43
  -4  -7  -2   27.25    8.33
  -4  -7   2   26.32    6.23
   4  -7  -2   25.14    8.97
   4  -7  -2   20.79    7.11
  -4   7   2   42.15    9.21
   4  -7   2   31.72    9.16
  -4  -7  -2   21.47    5.04
  -4  -7   3 2012.44   68.64
   4  -7   3 1969.67   62.34
  -4  -7  -3 1812.36   64.35
  -4  -7   3 1822.27   50.86
   4  -7  -3 1851.97   61.18
   4  -7   3 1904.08   70.45
  -4   7   3 1959.65   67.81
  -4  -7  -3 1860.14   53.95
   4  -7  -3 1882.08   67.46
   4  -7  -4  622.91   38.69
  -4  -7   4  609.13   37.51
   4  -7   4  632.75   35.72
  -4  -7   4  604.23   28.52
  -4  -7  -4  627.06   37.79
   4  -7  -4  717.38   38.10
   4  -7   4  667.24   41.07
  -4   7   4  660.07   38.55
  -4  -7   5   66.19    9.27
   4  -7   5   64.38   11.44
   4  -7  -5   89.05   14.80
  -4  -7   5   54.52   12.33
  -4  -7  -5   89.07   14.19
   4  -7   5   70.94   14.17
   4  -7  -5   59.41   11.12
  -4   7   5   68.49   13.85
   4   7   5   70.50   10.73
  -4  -7   6   93.14   15.83
   4  -7   6  131.98   16.48
   4  -7   6  122.22   17.78
  -4  -7  -6  115.10   16.69
   4  -7  -6  134.99   18.18
   4  -7  -6  165.26   18.97
  -4   7   6  152.43   19.25
   4   7   6  133.27   15.76
  -4  -7   6  110.66   12.31
  -4  -7   7  394.43   31.85
   4  -7   7  351.87   27.17
   4  -7   7  372.59   30.60
  -4   7   7  323.44   28.68
  -4  -7  -7  331.14   28.75
   4  -7  -7  358.98   28.30
   4  -7  -7  351.17   29.46
   4   7   7  353.67   26.06
  -4  -7   7  368.01   22.80
  -4  -7   8    1.30    4.11
   4  -7   8   -1.06    2.50
   4  -7  -8    3.37    2.13
  -4   7   8   -1.49    3.57
  -4  -7  -8   -5.79    6.05
   4  -7  -8   -0.92    2.84
   4  -7   8    2.35    2.42
  -4  -7   8   -6.15    2.62
   4   7   8   -1.73    2.69
  -4  -7   9   19.41    8.98
   4  -7   9   13.69    5.68
  -4  -7  -9    8.94    2.79
   4  -7   9   24.63    8.54
  -4   7   9    3.59    2.99
   4  -7  -9    3.44    4.01
  -4  -7   9   13.86    5.68
   4   7   9    9.26    4.91
  -4   7  10   21.77    7.58
  -4  -7  10   19.64    9.35
   4  -7  10   40.95    9.71
  -4  -7 -10   24.58    8.33
   4  -7  10   31.22    8.27
   4  -7 -10   25.70    6.50
  -4  -7  10   15.44    5.82
   4   7  10   25.65    8.25
   4  -7  11  546.07   35.90
  -4  -7  11  641.43   41.47
  -4  -7 -11  604.66   40.20
   4  -7 -11  573.94   37.88
  -4  -7  11  600.20   34.55
  -4   7  11  624.14   40.44
   4   7  11  562.94   36.24
   4  -7  11  626.39   39.76
   4   7  12   17.47    7.88
   4  -7  12    2.62    5.18
  -4  -7  12   12.47    7.47
   4  -7  12    7.91    7.26
  -4   7  12   25.00    9.57
  -4  -7 -12   12.25    6.96
   4  -7 -12    5.03    4.77
  -4  -7  12   14.15    5.30
   4  -7  13  301.13   26.56
  -4  -7  13  354.79   30.79
  -4  -7 -13  311.41   29.51
  -4   7  13  338.33   30.35
  -4  -7  13  300.59   27.21
  -4   7  13  366.86   31.81
   4   7  13  276.67   26.08
   4  -7  13  330.93   29.18
   4  -7 -13  381.62   31.77
   4   7  14   41.00    9.19
   4  -7  14   45.01   10.57
  -4  -7  14   59.83   13.46
  -4  -7 -14   55.87   12.61
  -4   7  14   50.80   11.38
   4  -7 -14   59.30   14.17
   4  -7  14   61.30   14.69
  -4  -7  14   51.29   10.98
  -4   7  14   54.01   13.21
   4  -7  15  513.33   36.92
  -4  -7  15  467.63   36.50
   4  -7  15  482.06   36.74
  -4   7  15  435.32   35.87
  -4  -7 -15  369.20   33.07
   4  -7 -15  458.41   36.39
  -4   7  15  459.04   35.76
   4   7  15  500.19   36.63
   4  -7  16   34.29    9.38
   4   7  16   43.76   10.82
  -4  -7  16   20.21    9.59
   4  -7  16   26.69   10.56
  -4  -7 -16   39.12   10.96
  -4   7  16   49.80   13.38
   4  -7 -16   40.09   13.95
  -4  -7  16   31.61   10.20
  -4   7  16   43.27   10.82
  -4  -7  17   12.91    8.23
   4   7  17   20.35    9.08
   4  -7  17   23.85    9.60
  -4   7  17   24.72    5.94
  -4  -7 -17   21.26    6.17
  -4   7  17   22.82   10.45
   4  -7 -17   29.64    9.25
  -4  -7  17    8.10    4.76
   4  -7  17   22.04    9.78
  -4  -7  18   36.11   14.58
   4  -7  18   60.22   11.98
   4  -7 -18   35.62   11.34
   4   7  18   58.68   13.02
  -4  -7 -18   89.38   16.10
  -4   7  18   52.14   12.77
  -4  -7  18   36.47   11.32
  -4   7  18   56.82   13.60
   4   7  19   67.13   14.61
   4  -7  19   88.51   16.66
  -4   7  19   24.22    9.26
   4  -7 -19   91.69   16.64
  -4  -7  19   39.04   10.40
  -4   7  19   59.35   14.52
  -4  -7 -19   63.07   15.18
   4   7  20    7.01    4.19
  -4  -7 -20   15.66   11.00
  -4   7  20   15.28    7.84
   4  -7 -20   22.14    6.18
  -4  -7  20   10.05    3.18
  -4   7  20   13.58    6.85
   4  -7  20   10.78    6.81
   4  -7  21  320.53   31.87
  -4  -7 -21  285.96   30.83
  -4   7  21  261.61   29.63
   4  -7 -21  269.71   31.38
  -4   7  21  324.70   33.70
  -4  -7  21  243.09   28.99
   4   7  21  288.33   30.49
  -4  -7 -22   54.08   13.46
   4   7  22   54.35   14.92
  -4   7  22   26.60    9.48
   4  -7 -22   28.81    8.05
  -4  -7  22   25.57   10.95
   4  -7  22   40.80   11.68
  -4   7  22   38.44   13.84
   4  -7  22   36.66   12.09
   4   7  23   23.15    8.54
  -4  -7 -23   19.02    6.08
  -4   7  23   32.83   11.05
   4  -7 -23   18.18    8.13
  -4  -7  23   25.95   11.57
   4  -7  23   21.75    8.30
  -4   7  23   26.92   10.80
   4  -7  23   11.87    7.98
   4   7  24   71.03   16.77
   4  -7 -24  104.57   20.12
  -4  -7 -24   70.18   16.94
  -4   7  24   87.24   17.53
  -4  -7  24   65.85   18.60
   4  -7  24   77.45   16.61
  -4   7  24   79.58   17.72
   4  -7  24   64.69   15.79
   4  -7  25  157.79   23.49
  -4  -7 -25  140.18   22.19
   4  -7 -25  132.51   22.70
  -4   7  25  169.44   24.38
  -4  -7  25  132.47   23.92
  -4   7  25  110.10   22.11
   4   7  25  143.35   22.39
   4  -7  25  174.82   26.96
  -4   7  26   -3.25    6.31
   4   7  26   11.50    7.31
   4  -7 -26   -3.72    4.78
   4  -7  26   -1.05    7.24
  -4  -7  26    0.31    6.85
  -4  -7 -26    6.58    7.39
  -4   7  26    9.95    9.10
   4  -7  26   -2.22    7.55
   4   7  27    5.40    4.48
  -4  -7 -27   22.96   13.33
  -4   7  27    3.66    8.89
   4  -7 -27   13.76   10.09
   4  -7  27   15.02    9.40
  -4  -7  27   13.15   11.34
  -4   7  27   12.54    7.09
   4  -7  27   16.72   12.12
  -4  -8   0  268.98   25.73
   4  -8   0  239.95   23.68
   4  -8   0  215.73   24.06
  -4  -8   0  241.04   20.44
  -4  -8   1    6.28    1.82
   4  -8  -1    0.29    4.28
  -4  -8   1    9.24    5.24
  -4  -8  -1    9.97    1.95
   4  -8   1   12.20    5.12
   4  -8  -1   15.70    7.19
  -4  -8  -1    7.15    3.08
   4  -8   1   13.59    5.85
  -4  -8  -2    1.48    4.39
  -4  -8   2    1.75    1.97
   4  -8  -2   -8.40    6.63
   4  -8   2   -0.36    2.01
  -4  -8  -2   -0.30    2.95
  -4  -8   2    3.80    2.28
   4  -8  -2    5.87    4.91
  -4   8   2    0.06    3.23
   4  -8   2   -1.69    2.82
  -4  -8   3  306.36   28.62
   4  -8   3  318.15   26.72
  -4  -8  -3  284.01   27.41
   4  -8  -3  279.92   25.10
  -4  -8  -3  355.22   25.72
  -4  -8   3  322.76   23.72
  -4   8   3  330.10   29.11
   4  -8   3  279.20   27.68
   4  -8  -3  339.30   29.81
   4  -8  -4  104.01   17.36
  -4  -8   4  117.16   17.04
   4  -8   4   92.82   14.95
  -4  -8  -4  100.41   15.28
   4  -8  -4   95.70   15.01
   4  -8   4  101.68   17.14
  -4   8   4   88.65   15.09
  -4  -8  -4  121.27   15.90
   4  -8   5    9.88    7.13
   4  -8  -5   -4.94    6.39
  -4  -8   5    8.52    6.12
   4  -8   5    4.02    5.79
  -4  -8  -5   10.30    8.11
   4  -8  -5    4.49    5.95
  -4   8   5    6.90    5.12
  -4  -8   6   82.47   14.71
   4  -8   6   61.37   12.11
  -4  -8  -6   82.72   14.14
   4  -8   6  110.81   18.28
   4  -8  -6   95.04   13.97
   4  -8  -6   78.12   14.68
  -4   8   6   64.73   13.57
   4   8   6   86.81   13.28
  -4  -8   7  156.09   20.03
   4  -8   7  226.60   22.84
   4  -8   7  170.90   22.58
  -4  -8  -7  177.80   21.60
   4  -8  -7  206.12   23.22
   4  -8  -7  157.83   19.29
  -4   8   7  188.20   22.75
   4   8   7  197.94   19.84
  -4  -8   8  165.76   22.08
   4  -8   8  178.98   21.11
   4  -8   8  126.26   19.17
  -4  -8  -8  155.30   19.79
   4  -8  -8  179.09   22.89
   4  -8  -8  148.64   19.35
  -4   8   8  159.74   20.69
   4   8   8  150.51   18.02
  -4  -8   9   17.20    4.74
   4  -8   9   19.58    6.81
   4  -8  -9   47.09   12.02
  -4  -8  -9   42.76   11.21
  -4   8   9    8.04    5.67
   4  -8  -9   27.85    8.61
   4  -8   9   26.19    7.68
   4   8   9   25.42    8.12
   4  -8 -10   24.69    9.51
  -4  -8  10   13.71    6.11
   4  -8  10   15.13    7.17
  -4  -8 -10   10.28    7.85
   4  -8  10   13.97    7.92
  -4   8  10   10.13    6.92
   4  -8 -10   41.48   10.74
   4   8  10   15.66    5.61
  -4  -8  11   31.66   12.10
   4  -8  11   24.11    8.40
   4  -8 -11   39.25   10.92
  -4   8  11   30.92   10.38
  -4  -8 -11   28.34   10.44
   4   8  11   40.38   10.18
   4  -8  11   32.99    9.77
   4  -8  12   15.97    6.79
  -4  -8  12   27.93    8.91
   4  -8  12   14.09    6.32
  -4  -8 -12   13.64    7.15
  -4   8  12   27.78   10.24
   4  -8 -12   27.91    8.98
   4   8  12    8.88    2.43
   4  -8  13   22.26    7.65
  -4  -8  13   27.72   10.97
   4  -8  13   12.55    7.29
  -4   8  13   20.87    7.92
   4  -8 -13   32.10   10.32
  -4  -8 -13   32.74   12.82
   4   8  13   11.42    5.82
   4  -8  14    3.30    4.59
  -4  -8  14   17.15    7.97
   4  -8  14    9.82    6.38
   4  -8 -14    7.16    7.29
  -4  -8 -14    9.17    7.27
  -4   8  14   13.41    4.96
   4   8  14   21.93    8.77
   4  -8  15   25.36    8.87
  -4  -8  15   32.22   10.61
   4  -8  15   38.68   10.66
  -4   8  15   22.39    6.98
  -4  -8 -15   30.50   10.06
  -4   8  15   32.50   13.23
   4  -8 -15   24.11   10.11
   4   8  15   21.93    7.81
   4   8  16   19.57    8.13
   4  -8  16    5.51    4.05
  -4  -8  16   22.85    9.40
   4  -8  16   22.59    8.50
  -4  -8 -16   16.66    8.09
  -4   8  16   16.60    6.08
   4  -8 -16   25.75   10.93
  -4   8  16   22.20    7.76
  -4  -8  17  117.25   19.19
  -4  -8 -17   99.97   18.46
   4  -8 -17  100.69   18.34
  -4   8  17  135.60   20.73
   4  -8  17  107.29   18.83
  -4   8  17  120.68   19.57
   4   8  17  118.18   19.83
   4  -8  17  164.44   22.97
   4   8  18   27.49   10.76
  -4  -8  18   24.40    9.82
   4  -8  18   18.10    6.68
  -4  -8 -18   15.38    7.07
  -4   8  18   16.55    8.58
   4  -8 -18    7.87    4.00
  -4   8  18   24.88    7.75
   4  -8  18   28.97    9.77
   4   8  19   41.07   10.96
  -4  -8  19   30.51   11.16
   4  -8  19   21.14    8.46
  -4   8  19   30.38   11.16
   4  -8 -19   35.67   10.21
  -4  -8 -19   36.30   10.84
  -4   8  19   25.25    7.92
   4  -8  20    5.07    6.15
   4   8  20   15.12    8.58
  -4  -8 -20   -0.13    2.71
  -4   8  20    8.21    6.83
   4  -8 -20   -3.08    9.43
  -4  -8  20  -14.21    7.16
  -4   8  20   14.95    6.17
  -4  -8  20   -3.65    7.75
  -4  -8 -21  146.37   23.15
   4  -8 -21  145.78   22.23
   4  -8  21  181.08   23.84
  -4   8  21  183.36   25.07
  -4   8  21  145.19   21.30
   4   8  21  176.70   23.84
   4   8  22    4.11    7.22
  -4   8  22   -1.01    7.64
  -4  -8 -22   10.82    6.89
   4  -8 -22    7.01    5.59
  -4  -8  22   10.88    6.58
  -4   8  22   10.17   10.37
   4  -8  22   -1.00    3.53
   4  -8  22   -2.64    4.34
   4   8  23    9.93    6.65
  -4  -8 -23   29.91   11.35
  -4   8  23   19.89    9.84
   4  -8 -23   23.50    7.74
  -4  -8  23   17.43    8.31
  -4   8  23   23.58    7.75
   4  -8  23   34.19   13.06
   4  -8  23   15.55    7.73
   4   8  24   22.24   10.87
  -4  -8 -24   20.09    4.14
  -4   8  24   18.25    4.90
   4  -8 -24   20.64    7.31
  -4  -8  24    5.22    4.90
   4  -8  24   19.59    6.15
  -4   8  24   22.41   10.90
   4  -8  24   16.90    9.95
  -4  -8 -25  108.09   21.51
   4  -8 -25  119.07   20.79
  -4   8  25  108.10   21.52
  -4   8  25  105.93   20.49
   4   8  25  112.48   21.14
   4  -8  25   73.41   14.08
   4  -8  25  127.56   22.26
   4   8  26    3.27    4.71
  -4  -8 -26    0.90    5.22
  -4   8  26    1.60    6.06
   4  -8  26    1.90    5.32
   4  -8 -26    2.21    4.55
   4  -8  26  -10.76    9.40
  -4  -9   0  724.45   45.89
   4  -9   0  809.71   45.53
   4  -9   0  701.46   45.63
  -4  -9   0  670.03   38.58
  -4  -9   1  318.02   29.68
  -4  -9  -1  381.45   33.05
   4  -9   1  312.55   28.34
   4  -9  -1  309.40   28.57
   4  -9   1  309.53   30.58
   4  -9  -1  348.71   31.59
  -4  -9  -1  271.70   25.05
  -4  -9   2  263.93   26.32
   4  -9   2  302.96   28.30
  -4  -9  -2  309.60   29.40
   4  -9  -2  341.57   29.74
   4  -9  -2  290.88   29.80
   4  -9   2  332.50   32.17
  -4  -9  -2  284.09   24.58
  -4  -9   3  588.03   40.75
  -4  -9  -3  582.80   35.82
   4  -9   3  608.20   39.80
  -4  -9  -3  586.13   40.64
   4  -9  -3  585.58   38.51
   4  -9   3  554.67   41.62
  -4   9   3  662.17   42.44
   4  -9  -3  607.17   41.91
  -4  -9   4  484.47   38.15
   4  -9   4  553.91   37.88
  -4  -9  -4  549.67   39.36
   4  -9  -4  575.54   38.43
  -4  -9  -4  548.34   34.49
  -4   9   4  609.51   40.73
   4  -9  -4  510.19   37.70
  -4   9   5   -6.84    7.94
   4  -9   5    4.96    4.96
  -4  -9  -5   -1.98    4.80
  -4  -9   5   -1.52    2.98
   4  -9   5    7.32    5.80
  -4  -9  -5    2.40    3.17
   4  -9  -5    2.51    3.01
   4  -9  -5    0.33    3.30
  -4  -9   6  170.97   22.21
   4  -9   6  194.46   22.40
   4  -9  -6  209.18   23.77
  -4  -9  -6  207.49   24.56
   4  -9   6  234.13   26.91
   4  -9  -6  183.04   22.46
  -4   9   6  212.82   24.47
  -4  -9   7  910.62   51.59
   4  -9   7  858.96   47.85
   4  -9  -7  838.73   49.24
   4  -9   7  944.65   52.86
  -4  -9  -7  737.24   45.76
   4  -9  -7  894.40   49.63
  -4   9   7  902.32   50.10
  -4   9   8   59.22   12.22
  -4  -9   8   82.95   15.31
   4  -9   8   50.07   12.07
  -4  -9  -8   57.41   12.36
   4  -9  -8   70.59   12.59
   4   9   8   59.54   12.53
   4  -9   8   54.92   13.07
   4  -9  -8   47.46   11.89
  -4  -9   9  101.55   17.93
   4  -9   9   65.32   15.35
   4  -9   9   76.31   14.74
  -4  -9  -9   85.87   15.55
   4  -9  -9  107.27   16.89
  -4   9   9  114.90   18.95
   4   9   9   95.80   14.56
   4  -9  -9   80.46   15.15
  -4  -9  10    8.78    8.01
   4  -9  10    7.61    9.04
  -4  -9 -10    3.32    2.34
   4  -9 -10    4.16    4.54
  -4   9  10    5.34    4.76
   4  -9  10    9.02    7.42
   4  -9 -10    2.88    4.44
   4   9  10    5.38    6.51
  -4  -9  11   82.51   17.28
   4  -9  11  129.79   18.92
  -4  -9 -11  121.06   19.19
   4  -9 -11  129.77   20.12
  -4   9  11  153.17   21.84
   4  -9 -11  124.72   20.01
   4   9  11  139.60   19.35
   4  -9  11  114.43   19.27
  -4  -9  12   20.43    7.73
   4  -9  12   16.14    8.20
   4  -9  12   12.26    7.12
  -4  -9 -12   20.91    9.17
   4  -9 -12   21.09    8.26
  -4   9  12   18.15   10.58
   4  -9 -12    1.78    3.47
   4   9  12   23.20    7.82
  -4   9  13   42.18   14.97
   4  -9  13   23.61    7.73
  -4  -9  13   11.48    4.19
   4  -9  13   35.85   10.18
  -4  -9 -13   20.42    7.36
   4  -9 -13   21.12    8.64
   4   9  13   31.77    9.74
   4  -9  14   98.08   17.26
  -4  -9  14   62.00   15.74
  -4  -9 -14   96.73   17.85
   4  -9  14   54.54   13.03
  -4   9  14   91.94   17.51
   4  -9 -14   89.64   16.16
   4   9  14   72.52   14.48
   4  -9  15  127.73   19.96
  -4  -9  15  158.43   22.93
  -4  -9 -15  214.25   26.78
   4  -9 -15  194.37   23.77
  -4   9  15  116.38   20.49
   4   9  15  138.20   20.58
   4  -9  15  182.33   23.65
   4  -9  16   10.35    8.22
  -4  -9  16   17.70    7.81
   4  -9  16   12.95    6.75
  -4  -9 -16   11.72    6.61
  -4   9  16    9.12    6.94
   4  -9 -16   10.21    4.79
   4   9  16   13.84    9.29
   4  -9  17  151.90   23.26
  -4  -9  17  172.59   23.82
  -4  -9 -17  148.86   23.13
   4  -9 -17  154.04   22.89
  -4   9  17  165.27   22.46
   4  -9  17  177.22   23.90
  -4   9  17  164.55   23.35
   4   9  17  155.10   22.38
   4  -9  18   95.04   19.07
  -4  -9  18   44.27   13.22
  -4   9  18   62.58   16.41
  -4  -9 -18   53.30   13.26
  -4   9  18   61.73   14.31
   4  -9 -18   56.07   13.87
   4  -9  18  100.95   18.25
   4   9  18   31.06    9.94
  -4  -9  19   -1.67    7.28
   4  -9  19    5.00    3.82
  -4  -9 -19    2.33    6.63
  -4   9  19   -0.71    5.60
   4  -9 -19    1.54    4.72
  -4   9  19    1.31    3.74
   4   9  19    4.41    4.96
   4  -9  19   -1.00    4.50
  -4  -9  20   -0.37    5.25
   4  -9  20   -1.30    6.07
  -4  -9 -20    1.89    7.66
  -4   9  20    6.45    3.87
   4  -9 -20    6.03    6.57
  -4   9  20    7.30    8.37
   4   9  20    9.33    8.20
  -4   9  21  125.37   21.62
  -4  -9 -21  132.86   23.22
   4  -9 -21  109.96   20.98
   4  -9  21  115.46   20.86
  -4   9  21   98.07   18.89
   4   9  21  126.98   21.40
  -4  -9  21  157.38   24.94
   4  -9 -22   80.12   15.67
  -4  -9 -22   89.41   18.88
   4  -9  22   94.29   19.50
  -4   9  22  116.05   20.70
  -4   9  22   59.77   13.52
   4  -9  22   88.01   19.03
   4   9  22   69.24   16.13
  -4  -9 -23   16.08    8.82
   4  -9 -23   11.68    7.60
  -4   9  23   15.41    9.16
  -4   9  23   26.64   10.83
   4  -9  23   15.35    8.91
   4  -9  23   23.00    9.19
   4   9  23   11.59    6.07
  -4  -9 -24   19.28    6.60
  -4   9  24   44.90   14.78
   4  -9 -24   19.44   11.94
  -4   9  24   25.82   13.28
   4  -9  24   19.77   10.51
   4  -9  24   17.97    9.44
   4   9  24    3.60    8.04
  -4  -9 -25   23.78   11.20
  -4   9  25    7.22    5.81
   4  -9 -25    5.28    7.41
   4  -9  25   15.71    6.90
  -4   9  25   21.64   10.62
   4  -9  25    2.87    8.48
   4   9  25    9.30    9.08
  -4 -10   0   49.80   12.06
   4 -10   0   20.19    8.01
   4 -10   0   30.78   10.01
  -4 -10   1   10.16    2.92
  -4 -10  -1    2.81    4.03
   4 -10   1    6.86    5.60
   4 -10  -1    8.74    6.46
   4 -10   1    4.61    3.54
   4 -10  -1   10.96    8.71
   4 -10  -2   18.81    9.11
  -4 -10   2   23.79    8.20
   4 -10   2   15.40    5.14
  -4 -10  -2   18.67    7.16
   4 -10  -2    8.06    3.44
   4 -10   2   24.17    8.69
  -4 -10   3    6.10    7.18
   4 -10  -3    2.38    5.37
   4 -10   3    0.74    4.33
  -4 -10  -3   -3.41    2.95
   4 -10   3   -3.23    2.48
   4 -10  -3    5.21    8.44
   4 -10   4    4.02    8.40
  -4 -10   4    8.79    5.25
  -4 -10  -4    8.63    6.01
   4 -10   4    1.98    5.04
  -4 -10  -4    3.19    4.68
   4 -10  -4    3.85    4.79
   4 -10  -4    2.47    3.77
  -4  10   4    4.65    5.06
   4 -10   5   -3.18    4.92
  -4 -10   5   -0.73    4.55
   4 -10   5    0.46    3.60
  -4 -10  -5    0.33    7.20
   4 -10  -5   -3.80    5.27
  -4  10   5    0.16    4.49
   4 -10  -5    1.16    4.05
  -4 -10  -5    0.76    3.20
   4 -10  -6  155.21   22.20
  -4 -10   6  185.21   24.84
   4 -10   6  216.33   25.84
  -4 -10  -6  211.86   25.58
   4 -10   6  152.86   23.05
   4 -10  -6  242.41   25.92
  -4 -10  -6  205.08   22.77
  -4  10   6  174.04   23.40
   4 -10  -7    0.59    4.50
  -4 -10   7    5.72    2.56
   4 -10   7   -6.13    5.53
  -4 -10  -7    7.53    6.64
  -4 -10  -7   12.52    9.00
   4 -10  -7   11.86    6.76
  -4  10   7    6.10    5.27
   4 -10   7    8.60    2.58
  -4 -10   8  207.97   26.05
   4 -10   8  221.08   26.20
   4 -10   8  221.69   26.25
   4 -10  -8  261.86   28.52
  -4 -10  -8  228.32   27.46
   4 -10  -8  239.33   26.63
  -4  10   8  204.61   24.59
  -4 -10   9    5.54    5.61
   4 -10   9    3.06    5.45
  -4 -10  -9    4.21    4.60
   4 -10  -9   -2.30    3.24
  -4  10   9    0.51    5.25
   4 -10  -9   -0.29    2.90
   4 -10   9    0.09    7.62
  -4  10  10   -2.18    6.05
   4 -10 -10   13.60    6.92
  -4 -10  10    2.06    2.87
   4 -10  10   -2.81    4.38
  -4 -10 -10   -1.41    4.41
   4 -10 -10   -2.57    5.18
   4 -10  10   -2.46    5.97
   4  10  10   -3.63    5.71
  -4 -10  11  156.43   22.67
   4 -10  11  149.03   21.03
  -4 -10 -11  147.60   23.16
   4 -10 -11  129.15   20.56
   4 -10 -11  109.39   18.03
  -4  10  11  122.72   19.83
   4  10  11  138.83   20.73
   4 -10  11  125.16   21.43
   4 -10 -12   14.89    7.70
  -4 -10  12   13.73    6.02
   4 -10  12   12.63    6.39
  -4 -10 -12   -0.28    6.71
   4 -10 -12    9.19    8.64
   4 -10  12   16.03    6.96
  -4  10  12   17.47   10.71
   4  10  12   27.86   10.58
   4 -10 -13    5.61    6.02
   4 -10  13    0.77    5.14
  -4 -10  13   -5.87    6.37
   4 -10  13   26.54    9.20
  -4 -10 -13    5.94    8.12
   4 -10 -13    8.76    9.99
  -4  10  13    9.57    9.43
   4  10  13   19.03    9.62
   4 -10  14   -1.46    4.98
  -4 -10  14   10.52    5.41
   4 -10  14    2.83    5.37
   4 -10 -14   23.99    7.51
  -4 -10 -14   14.45    8.44
   4 -10 -14   36.13   10.77
  -4  10  14   19.30    8.60
   4  10  14   18.15    9.33
   4 -10  15    5.19    9.16
  -4 -10  15    7.20    4.05
   4 -10 -15   -4.49    5.56
   4 -10  15    5.23    6.28
  -4 -10 -15   -6.38    3.47
  -4  10  15   -6.22    7.19
   4  10  15    8.80    7.92
   4 -10  16   47.17   14.22
  -4 -10  16   51.02   13.75
   4 -10  16   28.01   11.99
  -4 -10 -16   33.21   11.89
   4 -10 -16   34.91   10.19
  -4  10  16   39.45   11.99
   4  10  16   60.90   15.28
   4 -10  17   16.84   12.03
  -4 -10  17    5.22    6.32
   4 -10  17   11.83    6.13
  -4 -10 -17    8.61    4.22
   4 -10 -17    9.50    4.88
  -4  10  17    5.96    8.61
   4  10  17   22.44   10.84
   4 -10  18   50.27   15.04
  -4 -10  18   78.42   18.04
   4 -10  18   52.14   14.20
   4 -10 -18   47.77   12.38
  -4 -10 -18   58.28   15.77
  -4  10  18   52.96   14.78
   4  10  18   53.70   12.77
   4 -10  19   33.02   12.53
  -4 -10  19   23.24   10.19
   4 -10  19   27.79    8.15
  -4 -10 -19    9.13    4.30
   4 -10 -19   30.10    9.91
  -4  10  19   11.49    4.14
   4  10  19   32.32   11.04
  -4 -10  20   16.13    8.85
   4 -10  20   39.29   12.83
  -4  10  20   11.21    5.16
  -4 -10 -20   17.81   10.76
   4 -10 -20   15.52    7.42
   4  10  20   19.24   10.00
   4 -10  20   23.70   14.12
   4 -10  21   21.39    8.06
  -4 -10  21    4.83    6.70
  -4 -10 -21   -5.10    3.03
  -4  10  21    2.58    4.24
  -4  10  21   12.54    6.05
   4 -10 -21    6.16    5.77
   4  10  21   22.74   11.62
   4 -10  21   20.11   10.59
   4 -10  22   68.93   15.73
  -4 -10 -22   84.79   18.89
   4 -10 -22   79.90   16.56
  -4  10  22   85.36   20.00
  -4  10  22  106.34   21.31
   4 -10  22  102.19   21.97
   4  10  22  101.82   19.56
  -4 -10  22   99.09   19.55
  -4 -10 -23    0.53    6.23
   4 -10 -23    8.87    9.37
  -4  10  23    7.78    8.21
  -4  10  23    0.70    4.03
   4  10  23   -3.96    5.49
   4 -10  23   12.02    8.92
   4 -10  23   13.85    9.30
  -4 -11   0  399.18   36.53
   4 -11   0  444.08   38.14
   4 -11   0  393.55   36.90
  -4 -11   1   45.29   12.33
  -4 -11  -1   32.81   10.72
   4 -11   1   21.20    8.25
   4 -11  -1   40.10   11.92
   4 -11   1   50.09   13.58
   4 -11  -1   40.60   10.84
   4 -11  -2    6.57    7.71
  -4 -11   2   20.35    9.34
   4 -11   2    8.01    5.55
  -4 -11  -2   17.16    9.79
   4 -11  -2    6.70    3.49
   4 -11   2   14.25    9.99
   4 -11  -3   32.83   10.66
  -4 -11   3   42.21   12.28
   4 -11   3   64.40   14.90
   4 -11   3   45.77   10.92
  -4 -11  -3   43.02   12.81
   4 -11  -3   39.44   12.16
  -4 -11   4  504.64   41.53
   4 -11   4  436.83   37.50
  -4 -11  -4  481.28   40.21
   4 -11  -4  452.28   37.80
   4 -11   4  521.85   42.28
   4 -11  -4  420.25   37.87
  -4 -11   5  133.60   20.92
  -4 -11  -5  145.79   20.88
   4 -11  -5  127.61   19.92
   4 -11   5   84.53   16.42
   4 -11   5   92.76   18.19
   4 -11  -5  143.46   22.05
  -4 -11   6  380.58   36.39
   4 -11   6  432.01   36.30
  -4 -11  -6  341.99   34.21
   4 -11  -6  412.88   35.53
   4 -11   6  396.48   37.12
  -4  11   6  407.79   35.93
   4 -11  -6  378.47   35.54
  -4 -11   7   13.02    7.67
   4 -11   7    1.76    5.38
  -4 -11  -7   -9.65    2.56
  -4 -11  -7    4.90    6.91
   4 -11  -7   15.64    8.25
  -4  11   7   15.38    6.13
   4 -11  -7   13.99    5.46
   4 -11   7   20.13    6.89
   4 -11  -8   12.05    6.97
  -4 -11  -8   31.24   12.39
  -4 -11   8   19.83    8.75
   4 -11   8   25.81    8.83
  -4 -11  -8    7.55    6.22
   4 -11  -8    3.13    5.37
  -4  11   8    6.87    7.12
   4 -11   8   16.82    7.86
  -4 -11   9   38.43   13.42
   4 -11   9   31.43   11.20
   4 -11  -9   27.22   11.07
  -4  11   9   34.63   12.32
  -4 -11  -9   29.20   10.20
  -4 -11  -9   28.50   10.40
   4 -11  -9   36.84   11.59
   4 -11   9   43.12   14.03
  -4 -11  10  301.76   32.75
   4 -11  10  282.55   31.10
   4 -11  10  293.60   30.73
   4 -11 -10  289.39   31.50
  -4 -11 -10  305.14   32.16
   4 -11 -10  358.12   35.14
  -4  11  10  313.05   32.37
  -4 -11  11    3.98    8.84
   4 -11  11   -5.00    5.70
  -4 -11 -11    4.03    9.45
   4 -11 -11   -9.13    8.24
  -4  11  11    5.19    5.87
   4 -11  11   -6.69    2.89
   4 -11 -11    3.61    7.93
  -4 -11  12   43.34   11.87
   4 -11  12   31.71   10.82
   4 -11 -12   24.37   10.17
  -4 -11 -12   26.54   10.33
   4 -11  12   29.73    9.28
   4 -11 -12   20.91    8.68
  -4  11  12   36.84   11.10
   4 -11 -13   26.92    9.69
  -4 -11  13   32.16   10.45
   4 -11  13   19.71    7.06
   4 -11  13   22.06    9.54
  -4 -11 -13   15.78    5.91
  -4  11  13   31.65    8.80
   4 -11 -13   24.22   11.45
   4  11  13    8.02    3.08
   4 -11  14  119.47   20.66
  -4 -11  14  141.48   21.84
  -4  11  14  148.90   23.87
  -4 -11 -14  111.18   21.03
   4 -11 -14  128.37   21.71
   4 -11 -14  171.27   24.50
   4  11  14  125.33   21.73
   4 -11  14  130.90   21.53
   4 -11  15   -3.75    9.03
  -4 -11  15   -2.02    3.53
   4 -11  15   -2.35    4.82
   4 -11 -15   -2.24    3.65
  -4  11  15   -4.34    7.69
  -4 -11 -15   -1.44    3.61
   4 -11 -15    4.41    3.05
   4  11  15   -3.82    7.31
   4 -11  16   -4.32    6.99
  -4 -11  16   -1.89    6.55
   4 -11  16   -3.24    3.69
  -4 -11 -16    3.13    3.15
   4 -11 -16   -9.44    8.47
  -4  11  16    5.36    4.74
   4 -11 -16    7.15    7.22
   4  11  16    1.93    3.10
   4 -11  17   -9.11    6.14
  -4 -11  17    4.58    5.70
   4 -11  17   -5.15    6.36
   4 -11 -17    5.41    6.30
  -4  11  17    9.20    6.24
  -4 -11 -17    6.84    9.72
   4  11  17    2.74    7.20
   4 -11  18   13.73    5.30
  -4 -11  18   33.88   12.90
   4 -11  18   40.32   11.80
  -4 -11 -18   19.64    8.27
   4 -11 -18   19.60    8.11
  -4  11  18   22.88   11.73
   4  11  18   22.41    8.79
  -4 -11  19    2.53    2.58
   4 -11  19    2.61    6.11
  -4 -11 -19   12.94    8.98
   4 -11 -19    2.03    7.63
  -4  11  19   -5.49    6.96
   4  11  19   -0.06    5.99
   4 -11  20   -4.94    5.89
  -4 -11  20   -2.12    7.23
   4 -11  20   11.40    4.71
   4 -11 -20   14.24   10.17
  -4  11  20   11.07    7.65
  -4 -11 -20   12.08    6.64
   4  11  20    8.40    5.08
  -4 -11  21   -1.39    4.55
   4 -11  21    7.76    6.80
   4 -11 -21   -0.89    7.76
  -4 -11 -21    5.91    4.11
  -4  11  21   17.34   11.09
   4  11  21    1.49    6.75
   4 -11  21    4.38    8.77
   4 -11  21    4.30    4.49
   4 -11  22   28.98   11.47
  -4 -11  22   12.77    7.25
  -4 -11 -22   13.93    7.07
   4 -11 -22   20.79    8.45
  -4  11  22   13.22    7.35
   4  11  22   20.29    7.04
   4 -11  22    1.95    6.25
  -4 -12   0   44.04   11.91
   4 -12   0   48.26   14.14
   4 -12   0   68.72   17.32
  -4 -12   1    2.03    2.97
  -4 -12  -1    5.12    5.65
   4 -12   1    1.63    5.99
   4 -12  -1   -5.91    6.78
   4 -12   1    2.60    5.80
   4 -12  -1    6.57    9.19
  -4 -12   2   16.96    9.47
   4 -12   2   27.92   10.15
  -4 -12  -2   10.54    8.16
   4 -12  -2   13.86    6.86
   4 -12   2   25.96   12.20
   4 -12  -2    8.77    7.07
   4 -12  -3   90.23   18.22
  -4 -12   3   69.34   15.96
   4 -12   3   61.52   14.47
   4 -12   3   95.42   18.60
  -4 -12  -3   74.89   17.22
   4 -12  -3   66.45   14.49
   4 -12  -4    2.20    2.95
   4 -12   4    3.81    6.06
  -4 -12   4   -3.62    7.20
   4 -12   4   -0.68    5.52
  -4 -12  -4    9.63   10.01
   4 -12  -4   -2.72    2.88
   4 -12   5    1.85    5.53
  -4 -12   5    5.78    7.83
   4 -12   5    6.30    9.40
   4 -12  -5    3.53    3.37
  -4 -12  -5   -4.54    5.14
   4 -12  -5   -3.25    3.53
  -4 -12   6   55.31   14.14
   4 -12   6   30.38   10.45
  -4 -12  -6   42.61   14.20
   4 -12  -6   47.30   12.98
   4 -12  -6   37.57   10.23
   4 -12   6   32.40   11.79
  -4 -12   7   17.78    8.85
   4 -12   7   15.06    5.85
  -4 -12  -7   16.11   11.22
   4 -12  -7   13.55    7.93
  -4  12   7   20.14   10.11
   4 -12  -7   30.21   10.67
   4 -12   7   31.31   12.54
  -4 -12   8   21.23    8.95
   4 -12   8   16.88   10.25
  -4 -12  -8   23.62    8.05
   4 -12  -8   26.23   10.81
   4 -12  -8   16.32    4.65
   4 -12   8   45.95   12.25
  -4  12   8   26.69   11.74
  -4 -12   9   26.60    9.33
   4 -12   9   40.87   11.79
  -4 -12  -9   33.43   11.71
   4 -12  -9   36.70   11.70
  -4  12   9   30.99    9.30
   4 -12   9   27.08   11.29
   4 -12  -9   44.76   13.23
  -4 -12  10   24.69    9.47
   4 -12 -10   11.78    6.56
   4 -12  10   11.82    7.01
  -4 -12 -10   18.75    9.67
   4 -12 -10    5.93    3.33
  -4  12  10   11.10    4.55
   4 -12  10   13.96    8.52
  -4 -12  11   43.39   12.21
   4 -12  11   28.32   10.73
   4 -12 -11   31.34   11.17
  -4 -12 -11   36.55   11.86
  -4  12  11   35.35   13.09
   4 -12  11   41.28   13.79
   4 -12 -11   27.98   11.67
  -4 -12  12   17.42   10.03
   4 -12  12   -1.89    4.63
  -4 -12 -12   23.29    8.99
  -4  12  12    4.44    9.16
   4 -12 -12   22.08   13.63
   4 -12  12    8.09    6.65
   4 -12 -12   11.32    8.21
  -4  12  13   23.19   12.30
  -4 -12  13   14.91    6.60
   4 -12  13   23.96   10.04
  -4 -12 -13   17.16    8.05
   4 -12  13   23.08   10.61
   4 -12 -13    6.72    5.69
   4 -12 -13   25.43   12.05
   4 -12  14   17.79    9.81
   4 -12 -14   17.65   10.52
  -4 -12  14   39.66   13.33
   4 -12 -14   23.05    6.88
   4 -12  14   22.52   10.53
  -4 -12 -14   29.23   12.52
  -4  12  14   15.57    8.40
   4 -12  15   -4.59    6.73
  -4 -12  15   16.31    8.15
   4 -12  15    4.77    2.56
   4 -12 -15   19.86    9.31
  -4 -12 -15   13.71    9.30
  -4  12  15   11.46    6.86
   4 -12 -15   11.52    3.43
   4 -12  16    1.02    4.87
  -4 -12  16    5.30    8.95
   4 -12  16    0.99    7.14
   4  12  16   -4.21    8.22
   4 -12 -16    7.86    7.12
  -4 -12 -16    4.31    4.61
   4 -12 -16   -7.85    7.48
  -4  12  16   -6.50   10.88
   4 -12  17   -8.09   10.12
  -4 -12  17    8.14    6.32
   4 -12 -17   -0.76    2.90
   4 -12  17   -6.12    8.93
  -4 -12 -17    6.07    8.99
   4 -12 -17   -1.31    3.23
  -4  12  17    4.76    6.44
   4  12  17   -3.55    4.69
   4 -12  18   44.96   15.89
  -4 -12  18   23.97    8.30
   4 -12  18   10.59    2.96
   4 -12 -18   20.78    7.44
  -4  12  18   16.89    7.15
  -4 -12 -18   35.60   12.67
   4  12  18   30.48   11.54
   4 -12 -18   16.98    7.38
   4 -12  19    4.18    4.66
  -4 -12  19   31.47   12.18
   4 -12  19   20.00   11.57
   4 -12 -19   28.70   11.93
  -4 -12 -19    5.17    3.42
   4 -12 -19    6.17    5.90
  -4  12  19   18.58   10.39
   4  12  19    4.26    7.59
   4 -12  20   15.96   10.89
  -4 -12  20   21.45    8.97
   4 -12  20   10.82    6.94
   4 -12 -20    2.18    4.07
   4 -12 -20   19.00    9.53
  -4 -12 -20   16.74    9.88
   4  12  20   14.52    6.77
  -4 -13   0   49.22   12.69
   4 -13   0   47.34   13.70
   4 -13   0   27.23   11.68
  -4 -13   1   93.52   17.99
  -4 -13  -1   64.06   16.72
   4 -13   1   53.49   14.23
   4 -13  -1   49.57   11.85
   4 -13   1   53.83   16.46
   4 -13  -1   75.26   18.08
  -4 -13   2    4.74    3.44
   4 -13   2   17.63   12.57
  -4 -13  -2    5.07    3.49
   4 -13   2    4.71    3.53
   4 -13  -2   -6.78   10.08
   4 -13  -2   10.80    7.85
  -4 -13   3  168.65   26.30
   4 -13   3  207.30   28.48
  -4 -13  -3  189.83   26.35
   4 -13  -3  215.46   28.65
   4 -13   3  212.96   29.70
   4 -13  -3  257.53   31.50
   4 -13  -4   -7.11    9.85
   4 -13   4    6.25    9.09
  -4 -13   4   -3.22    7.61
   4 -13   4   -2.56    4.97
  -4 -13  -4    9.55    7.26
   4 -13  -4   -2.75    6.84
   4 -13   5    2.23    3.46
   4 -13  -5   27.02   12.68
  -4 -13   5   36.76   12.93
   4 -13   5   10.77    5.03
  -4 -13  -5   12.09    7.46
   4 -13  -5    4.29    7.27
  -4 -13   6    7.36    2.92
   4 -13   6    1.75    6.38
   4 -13  -6    9.69    5.70
   4 -13  -6    3.46    5.46
   4 -13   6    7.25    3.23
   4 -13   7  105.84   21.44
  -4 -13   7  106.11   19.37
  -4 -13  -7  112.26   23.23
   4 -13   7  100.45   20.87
   4 -13  -7   79.82   17.89
   4 -13  -7   97.13   18.69
  -4 -13   8   97.88   19.78
   4 -13   8   92.70   19.27
  -4 -13  -8   59.45   16.12
   4 -13  -8   82.51   17.84
   4 -13  -8  104.48   20.16
   4 -13   8   85.47   17.98
  -4 -13   9    0.72    3.32
   4 -13   9    6.98    5.17
  -4 -13  -9   17.88    8.27
  -4  13   9   13.46    7.10
   4 -13  -9   19.18   10.07
   4 -13   9    7.00    6.70
  -4 -13  10   13.92    9.28
   4 -13  10    1.20    4.14
  -4 -13 -10    0.03    6.71
   4 -13 -10    5.00    6.41
   4 -13  10   -4.51    5.20
   4 -13 -10    5.31    7.91
   4 -13 -11   -7.47    6.10
  -4 -13  11    5.32    3.04
   4 -13  11    5.07    5.97
  -4 -13 -11    6.84    5.09
   4 -13 -11    2.80    5.85
   4 -13  11   -8.92    3.03
  -4 -13  12  127.62   21.68
   4 -13  12   53.16   13.79
   4 -13 -12   86.03   17.41
   4 -13 -12  121.82   21.77
  -4 -13 -12   91.31   20.16
   4 -13  12  159.99   23.12
   4 -13 -13   14.60    7.09
  -4 -13  13   12.61    5.21
   4 -13  13   12.18    6.49
   4 -13 -13   14.58    9.05
  -4 -13 -13   26.46    7.16
   4 -13  13    6.25    5.53
   4 -13  14   -1.17    6.30
  -4 -13  14   16.47   10.14
   4 -13  14   19.56    9.74
  -4 -13 -14    3.41    5.27
   4 -13 -14   -5.52    4.01
   4 -13 -14    6.37    7.92
   4 -13  15   78.84   16.29
  -4 -13  15   54.40   15.43
   4 -13  15   38.00   12.75
  -4 -13 -15   42.15   14.51
   4 -13 -15   96.76   21.07
   4 -13 -15   66.37   16.96
   4 -13  16   23.26   10.44
  -4 -13  16   13.51    7.21
   4 -13  16   16.22    7.12
  -4 -13 -16    9.13    7.74
   4 -13 -16    2.72    5.68
   4 -13 -16   29.97   13.28
   4 -13  17   33.82   14.39
  -4 -13  17   19.50    9.42
   4 -13 -17   50.97   14.62
   4 -13  17   22.90    8.29
  -4 -13 -17   25.68   11.12
   4 -13 -17   40.30   12.99
  -4 -14   0  127.76   23.12
   4 -14   0  148.43   24.49
   4 -14   0  142.13   25.33
  -4 -14   1   15.72    9.42
  -4 -14  -1   38.05   14.70
   4 -14   1   15.86    3.46
   4 -14  -1   15.43    3.97
   4 -14   1   23.39   10.96
   4 -14  -1   16.09    8.00
  -4 -14   2   -9.25    9.32
   4 -14   2    2.87    6.64
   4 -14   2    4.73    5.24
  -4 -14  -2   -1.53    6.81
   4 -14  -2   -5.44    6.06
   4 -14  -2    2.36    6.37
   4 -14   3   27.82    9.43
  -4 -14   3    0.44    3.06
   4 -14   3    3.81    6.36
  -4 -14  -3   13.78    7.93
   4 -14  -3   13.14    8.41
   4 -14  -3   14.60    7.64
   4 -14   4   12.24    7.87
  -4 -14   4   -1.72    7.69
   4 -14   4   15.70    7.89
  -4 -14  -4   16.22   11.57
   4 -14  -4   20.15    9.93
   4 -14  -4   -3.85    7.00
   4 -14   5   -3.71    3.47
   4 -14  -5    0.36    8.95
  -4 -14   5   13.10    7.81
   4 -14   5  -16.37    8.91
  -4 -14  -5    1.11    5.04
   4 -14  -5    0.30    5.50
   4 -14  -6   65.10   16.52
  -4 -14   6   81.21   19.47
   4 -14   6   59.44   14.99
  -4 -14  -6   39.74   14.22
   4 -14  -6   72.38   16.86
   4 -14   6   53.88   16.22
  -4 -14   7   29.83   12.11
   4 -14   7   19.26   10.45
   4 -14  -7   25.45   10.90
  -4 -14  -7   14.64   10.42
   4 -14  -7   37.97   10.19
   4 -14   7   35.08   12.96
  -4 -14   8   34.43   12.16
   4 -14   8   10.66    8.84
   4 -14  -8    2.03    7.76
  -4 -14  -8    5.48    5.51
   4 -14  -8   30.89   11.67
   4 -14   8   -4.50    5.98
  -4 -14   9    9.96    8.66
   4 -14   9   -4.65    6.38
  -4 -14  -9   -0.90    7.76
   4 -14  -9    6.26    8.38
   4 -14  -9   -9.51    4.95
   4 -14   9   11.51    8.57
  -4 -14  10    0.06    7.60
   4 -14  10   19.61   10.76
  -4 -14 -10    9.38    4.26
   4 -14 -10   -1.00    5.90
   4 -14 -10   -0.80    4.75
   4 -14  10   23.18   10.97
  -4 -14  11   -8.55    8.45
   4 -14  11   -0.28    5.67
  -4 -14 -11    4.25    8.39
   4 -14 -11   13.08    7.25
   4 -14 -11   13.60    9.40
   4 -14  11   -5.33    5.42
  -4 -14  12    4.28    7.14
   4 -14  12    8.96    4.42
  -4 -14 -12    8.38   10.37
   4 -14 -12   -1.84    4.19
   4 -14  12    8.80    7.00
   4 -14 -12   22.51   10.56
   4 -14 -13   41.14   13.58
  -4 -14  13   50.25   13.45
   4 -14  13   30.15   11.51
  -4 -14 -13   67.46   17.75
   4 -14  13   71.27   16.64
   4 -14 -13   38.86   11.10
   4 -14  14   -1.14    4.86
  -4 -14  14    2.99    3.01
   4 -14 -14    6.76    6.50
   4 -14  14    5.13    3.94
  -4 -14 -14   12.70   14.01
   4 -14 -14   -0.63    9.32
  -4 -15   0   65.95   17.15
   4 -15   0   36.52   13.72
   4 -15   0   45.14   13.92
  -4 -15   1    0.13    6.24
  -4 -15  -1   11.31    8.68
   4 -15   1    3.86    6.49
   4 -15   1    3.58    5.27
   4 -15  -1    6.90    8.98
   4 -15  -1   10.52    6.16
   4 -15   2    3.52    6.30
   4 -15   2   -1.30    4.64
  -4 -15  -2   -3.77    4.81
   4 -15  -2    3.90    3.93
   4 -15  -2    4.40    4.33
   4 -15   3    1.15    3.58
  -4 -15   3    4.16    8.40
   4 -15   3   14.53   11.62
  -4 -15  -3    2.68    4.77
   4 -15  -3   -7.13    8.54
   4 -15  -3    0.30    6.94
   4 -15   4  102.48   21.20
  -4 -15   4   89.47   19.12
   4 -15   4   92.55   21.24
  -4 -15  -4   75.39   17.15
   4 -15  -4  106.55   21.74
   4 -15  -4   81.71   20.70
  -4 -15   5    5.17    4.89
   4 -15   5   -2.26    5.82
  -4 -15  -5    9.63    8.15
   4 -15  -5    3.94    6.09
   4 -15  -5    0.23    3.10
   4 -15   5    7.21    5.42
   4 -15  -6   44.45   14.72
  -4 -15   6   36.85   11.84
   4 -15   6   18.81   12.00
  -4 -15  -6   59.72   16.19
   4 -15  -6   30.59   11.20
   4 -15   6   48.47   15.18
   4 -15  -7    5.87    5.49
  -4 -15   7   10.33    8.37
   4 -15   7   -8.39    8.31
  -4 -15  -7    6.48    8.17
   4 -15  -7   -9.23    9.13
   4 -15   7   12.47    8.36
   4 -15   8  122.65   22.53
  -4 -15   8  101.26   19.88
   4 -15  -8  108.65   20.55
   4 -15   8   87.46   17.53
  -4 -15  -8   99.68   21.01
   4 -15  -8  100.63   21.00
  -4 -15   9    3.10    6.25
   4 -15   9    1.59    7.50
   4 -15  -9   -4.37    5.62
  -4 -15  -9   -1.19    3.87
   4 -15  -9   -2.49    5.31
   4 -15   9    9.65    5.27
   5   0   0    0.73    1.05
  -5   0   0   -0.06    1.31
   5   0   1    1.27    1.55
  -5   0  -1   -0.93    1.54
  -5   0   1    2.63    1.59
   5   0  -1   -1.19    1.08
   5   0  -2 1211.42   30.07
  -5   0   2 1287.71   45.78
   5   0   2 1356.53   34.28
   5   0   3    0.41    1.17
  -5   0   3    1.98    3.00
   5   0  -3    0.88    1.44
  -5   0   4 1606.38   51.03
   5   0  -4 1642.90   36.09
   5   0  -5    0.04    1.39
  -5   0   5   -1.22    3.80
   5   0   5   -1.33    1.01
  -5   0  -6 1495.47   25.09
  -5   0   6 1476.73   50.47
  -5   0  -7    0.46    1.46
  -5   0   7   -1.08    3.10
  -5   0   7    0.51    1.40
   5   0   7   -0.07    2.55
  -5   0  -8  273.79   14.22
  -5   0   8  298.59   18.10
  -5   0   9   -0.58    5.74
   5   0   9    0.31    3.53
  -5   0   9    3.23    3.87
   5   0  10  170.97   17.59
  -5   0  10  133.38   16.81
  -5   0  10  144.74   14.10
  -5   0  11    2.07    4.73
   5   0  11   -1.42    3.00
  -5   0  11    1.03    2.61
   5   0  12  664.61   36.27
  -5   0  12  699.86   39.12
  -5   0  13    1.96    2.97
   5   0  13    6.67    6.07
  -5   0  13   -0.20    4.56
  -5   0  14  123.45   17.45
  -5   0  14  140.85   15.69
  -5   0  15    0.67    1.82
   5   0  15   -2.56    2.60
  -5   0  15    3.14    3.81
   5   0  16  815.88   45.73
  -5   0  16  753.54   39.95
  -5   0  17    2.63    4.55
   5   0  17    7.66    2.60
  -5   0  17   -1.51    4.23
   5   0  18   79.22   15.37
  -5   0  18   60.23   13.34
  -5   0  18   61.68   13.32
   5   0  18   65.23   13.54
  -5   0  19   -1.08    2.94
   5   0  19    4.05    6.78
  -5   0  19   -1.48    6.24
   5   0  19   -4.28    2.55
  -5   0  20  170.49   23.15
   5   0  20  192.11   23.27
   5   0  20  174.07   23.69
  -5   0  20  143.64   20.56
  -5   0  21    4.86    6.11
   5   0  21   11.06    8.15
  -5   0  21    2.34    3.89
   5   0  21    2.71    4.83
  -5   0  22   45.07   12.85
   5   0  22   71.30   15.36
  -5   0  22   62.35   14.45
   5   0  22   78.24   16.52
  -5   0  23   -1.51    2.73
   5   0  23   -0.22    3.55
  -5   0  23    6.06    8.48
   5   0  23   -0.15    3.24
   5   0  24  453.85   38.69
  -5   0  24  405.68   38.06
   5   0  24  423.10   39.02
  -5   0  24  431.44   37.24
  -5   0  25   12.59   11.29
   5   0  25    0.71    6.67
  -5   0  25    9.18    6.87
   5   0  25    1.64    3.48
   5   0  26  175.03   24.76
  -5   0  26  181.92   26.67
   5   0  26  140.47   23.88
   5   0  27   -5.06    8.09
  -5   0  27    0.58    7.45
   5   0  27   -6.86    7.32
   5   0  28  105.52   19.83
  -5   0  28   57.64   16.62
   5   0  28   97.79   20.10
   5   0  29   -0.58    4.12
  -5   0  29    6.21    7.24
   5   0  29   -6.05    3.77
   5   0  30  128.31   22.99
  -5   0  30  133.97   24.07
   5   0  30   99.80   20.51
  -5  -1   0    0.40    1.08
  -5  -1   0   -1.23    2.89
  -5   1   0    1.39    3.47
   5   1   0   -0.45    0.90
   5  -1   0    1.99    2.76
  -5  -1  -1  114.11    6.88
   5  -1   1  140.64   12.31
   5   1  -1  118.58    6.66
   5  -1  -1  120.91   11.59
   5   1   1  139.82    8.85
  -5   1  -1  133.95   15.66
  -5   1   1  100.39   13.17
  -5  -1   1  141.41   13.97
   5  -1  -1  114.11    6.56
  -5  -1  -1  125.32   13.07
  -5  -1   1  104.27    8.28
   5  -1   2    3.45    2.24
  -5  -1  -2    1.58    1.17
   5   1  -2    0.80    0.65
  -5   1   2    2.25    3.89
  -5  -1   2    4.66    4.09
   5  -1  -2    0.20    1.86
   5   1   2    1.36    1.50
  -5   1   3   31.46    7.55
  -5  -1  -3   28.80    3.23
   5  -1  -3   26.57    6.06
   5   1  -3   29.15    3.56
   5   1   3   29.50    5.06
   5  -1   3   26.39    5.02
  -5  -1   3   31.64    6.51
  -5   1   4    7.71    4.96
   5  -1   4    8.90    3.76
  -5  -1  -4    8.76    2.22
  -5  -1   4    4.76    2.33
   5   1  -4    6.02    1.92
   5   1   4   12.10    3.44
   5  -1  -4    9.69    3.37
   5   1  -5   18.17    3.26
   5  -1   5   14.73    5.00
   5  -1  -5   31.68    6.33
  -5  -1  -5   13.95    2.86
  -5   1   5   21.71    5.92
  -5  -1   5   21.78    6.33
   5   1   5   14.70    3.69
  -5  -1  -6  680.71   21.03
   5   1   6  337.66   20.53
  -5   1   6  479.51   29.79
  -5  -1   6  580.29   32.01
   5  -1  -6  498.68   24.14
   5  -1   6  519.36   27.12
  -5  -1   7   48.39   10.30
   5   1   7   49.21    8.79
  -5  -1  -7   38.86    5.24
   5  -1   7   52.40    8.79
  -5   1   7   39.67    8.57
  -5  -1   7   38.64    5.01
   5  -1   8   19.94    6.22
   5   1   8   38.67    7.92
  -5  -1  -8   32.67    6.15
  -5   1   8   20.72    6.32
  -5  -1   8   25.96    7.32
  -5   1   8   34.07    6.69
  -5  -1   8   15.44    4.42
   5   1   9   70.71   11.11
  -5  -1  -9   58.35    8.23
   5  -1   9   60.38   10.54
  -5   1   9   53.58   10.49
  -5  -1   9   52.44   10.20
  -5   1   9   82.30   10.72
  -5  -1   9   73.19    8.59
   5   1  10  762.88   36.84
   5  -1  10  678.13   35.94
  -5  -1 -10  660.39   28.44
  -5   1  10  636.91   37.18
  -5  -1  10  649.85   36.22
  -5   1  10  669.94   32.21
  -5  -1  10  617.14   26.42
  -5  -1  11   34.60    6.83
  -5   1  11   45.22   10.04
  -5  -1 -11   36.06    7.11
  -5  -1  11   35.80    8.74
  -5   1  11   44.33    9.34
   5   1  11   31.73    8.59
   5  -1  11   33.04    7.69
   5   1  12  315.73   25.18
  -5   1  12  261.98   24.63
  -5  -1  12  300.73   25.41
  -5   1  12  283.50   21.90
  -5  -1  12  300.12   20.77
   5   1  13  376.46   28.38
   5  -1  13  443.95   31.39
  -5   1  13  399.56   31.54
  -5  -1  13  415.81   31.41
  -5   1  13  392.38   26.88
  -5  -1  13  459.06   27.00
   5   1  14  201.41   21.02
   5  -1  14  224.81   22.76
  -5   1  14  197.82   21.67
  -5  -1  14  218.91   23.13
  -5   1  14  184.99   19.31
  -5  -1  14  167.50   17.13
  -5   1  15    3.12    4.10
  -5  -1  15    0.66    2.06
   5   1  15    8.97    2.46
   5  -1  15    4.16    6.56
  -5   1  15    3.97    4.52
  -5  -1  15   13.63    4.88
  -5   1  16  278.76   27.03
   5  -1  16  274.71   26.84
  -5  -1  16  286.40   28.14
  -5   1  16  258.76   23.98
   5   1  16  243.03   25.04
  -5  -1  16  331.78   25.73
  -5   1  17   33.77    9.44
  -5  -1  17   19.54    7.67
   5   1  17   49.44   11.65
   5  -1  17   26.12    7.68
  -5   1  17   23.40    7.99
  -5  -1  17   35.39   10.11
   5   1  17   20.60    8.73
  -5   1  18   29.02    9.51
  -5  -1  18   27.02    7.04
   5  -1  18   41.49   11.51
  -5   1  18   36.46   11.21
  -5  -1  18   14.79    8.40
   5   1  18   51.12   12.77
   5   1  18   33.15   10.42
  -5   1  19   38.00    9.85
  -5  -1  19   21.86    6.98
   5   1  19   15.49    5.97
  -5  -1  19   21.19   13.15
   5  -1  19    6.77    5.79
  -5   1  19   29.47    9.85
   5   1  19   14.42    5.69
   5  -1  19   16.53    9.22
   5   1  20  103.54   17.50
   5  -1  20  110.59   17.69
  -5   1  20  169.29   22.00
  -5  -1  20  165.33   22.44
  -5   1  20  177.10   21.93
   5   1  20  137.47   20.21
   5  -1  20  206.70   25.17
  -5  -1  20  140.19   19.15
  -5   1  21   64.52   13.34
  -5  -1  21   61.21   13.12
   5   1  21   77.48   14.65
   5  -1  21   59.01   14.62
  -5   1  21   36.53   12.05
  -5  -1  21   64.15   15.28
   5   1  21   95.82   16.07
   5  -1  21   60.02   13.67
  -5   1  22   -5.53    5.80
  -5  -1  22   23.15   12.74
   5   1  22    3.26    5.48
   5  -1  22   14.03    6.37
  -5   1  22    5.27    6.28
  -5  -1  22    2.12    6.48
   5   1  22    4.09    4.48
   5  -1  22    1.30    6.12
   5   1  23  154.89   22.11
   5  -1  23  140.50   21.17
  -5   1  23  109.93   20.25
  -5  -1  23  120.44   19.96
   5   1  23  149.50   21.45
  -5   1  23  120.15   19.79
   5  -1  23  107.46   20.29
  -5   1  24  203.51   26.16
   5   1  24  196.54   25.47
   5  -1  24  241.17   28.04
  -5  -1  24  245.53   30.27
   5   1  24  204.69   26.29
   5  -1  24  196.87   25.82
  -5   1  24  218.73   26.95
  -5   1  25    6.99    5.60
   5   1  25    4.67    5.00
  -5   1  25   18.26    6.40
  -5  -1  25   17.77    9.24
   5  -1  25   17.62    8.67
   5   1  25    6.28    5.72
   5  -1  25   19.54   10.37
  -5   1  26   29.31    9.45
   5   1  26   54.03   13.47
  -5   1  26   41.53   14.03
  -5  -1  26   64.71   17.20
   5   1  26   32.62   11.13
   5  -1  26   38.09   13.22
   5  -1  26   33.00   11.23
  -5   1  27   22.42    9.80
   5   1  27   33.56   13.18
   5  -1  27   27.07    9.72
  -5   1  27   12.88    3.13
  -5  -1  27   13.66    9.71
   5   1  27   20.98    5.48
   5  -1  27   13.09    6.91
  -5   1  28  -13.33    7.01
   5   1  28    5.90    7.52
   5  -1  28    2.93    5.01
  -5   1  28    2.47    4.81
  -5  -1  28   -9.05    7.50
   5   1  28   -2.56    5.63
   5  -1  28    8.59   10.35
   5   1  29    9.24    5.18
  -5  -1  29   26.37   13.03
   5  -1  29   13.80    8.16
  -5   1  29   13.36    6.62
   5   1  29    1.43    8.45
   5  -1  29   23.60   11.82
   5   1  30   71.18   15.99
   5  -1  30  102.36   20.18
  -5   1  30   65.83   17.42
  -5  -1  30   68.29   18.16
   5   1  30   82.43   19.54
   5  -1  30   47.51   13.53
  -5  -2   0   -1.04    2.46
   5  -2   0    0.26    1.66
   5  -2   0    0.74    0.85
  -5   2   0   -1.67    2.74
  -5  -2   0   -2.36    1.97
  -5  -2   1  101.35    9.55
   5   2   1   93.82    6.23
  -5  -2  -1   90.85    8.82
   5  -2   1   94.31   11.48
   5  -2  -1   88.32    6.87
  -5  -2   1  106.46   11.79
  -5   2  -1  104.19   14.34
   5  -2  -1   89.14   11.89
  -5   2   1  127.22   15.69
  -5  -2   2  115.92   10.70
   5   2   2  144.38    9.19
  -5  -2  -2  118.72    9.59
   5  -2   2  122.83   13.35
   5  -2  -2  109.84    8.45
  -5  -2   2  119.67   12.67
  -5   2   2  136.79   15.68
   5  -2  -2   95.75   11.81
  -5  -2   3 1110.01   34.61
   5  -2   3 1103.90   40.04
   5   2   3 1149.10   28.91
  -5  -2  -3 1083.88   29.28
  -5   2   3 1125.33   46.03
  -5  -2   3 1249.49   41.41
   5  -2  -3 1166.90   30.53
   5  -2  -3 1034.13   38.23
  -5  -2   4  747.56   29.62
   5  -2  -4  748.22   32.24
  -5  -2  -4  741.87   24.74
  -5   2   4  759.53   37.62
  -5  -2   4  763.15   32.79
   5  -2   4  789.39   33.77
   5   2   5  710.60   26.91
   5  -2  -5  810.25   33.23
  -5  -2  -5  815.03   26.61
  -5   2   5  833.14   39.51
  -5  -2   5  761.32   34.31
   5  -2   5  810.21   34.27
  -5  -2   5  816.76   33.74
   5   2   6  760.47   30.33
  -5  -2  -6  693.75   25.49
  -5   2   6  735.82   37.69
   5  -2  -6  733.92   32.29
  -5  -2   6  733.70   34.39
   5  -2   6  710.10   33.09
  -5  -2   6  752.59   33.55
   5   2   7  102.47   12.06
  -5  -2  -7   89.08   10.05
  -5   2   7   82.00   11.63
  -5  -2   7   94.61   12.96
   5  -2   7   99.31   12.55
   5  -2   8    5.21    3.49
  -5  -2  -8   -0.80    2.99
   5   2   8    4.62    3.13
  -5   2   8    5.52    3.98
  -5  -2   8    7.28    3.81
  -5   2   8    2.70    1.83
  -5  -2   8    3.51    2.42
   5   2   9  530.35   28.94
  -5  -2  -9  567.20   26.63
  -5   2   9  577.58   35.28
  -5  -2   9  453.37   29.72
  -5   2   9  562.88   29.95
  -5  -2   9  541.93   21.73
   5   2  10  184.85   17.65
  -5  -2 -10  191.84   16.11
  -5   2  10  192.81   21.40
   5  -2  10  202.91   19.90
  -5  -2  10  176.58   18.35
  -5   2  10  209.62   18.80
  -5  -2  10  202.66   14.36
  -5  -2 -11   42.02    8.48
   5   2  11   82.56   12.96
  -5   2  11   62.93   11.22
   5  -2  11   67.37   11.92
  -5   2  11   52.42   11.51
  -5  -2  11   62.18   11.09
  -5  -2  11   50.60    7.91
   5   2  12  192.21   19.66
   5  -2  12  173.98   19.17
  -5  -2 -12  176.11   17.87
  -5   2  12  172.43   20.74
  -5  -2  12  185.68   20.53
  -5   2  12  181.10   18.46
  -5  -2  12  183.16   16.21
   5   2  13  716.47   39.77
  -5  -2 -13  767.06   36.83
   5  -2  13  694.04   39.99
  -5   2  13  829.75   45.37
  -5  -2  13  661.56   39.26
  -5   2  13  759.93   39.60
  -5  -2  13  704.72   32.78
   5   2  14   69.87   13.11
  -5   2  14   60.10   12.74
  -5  -2 -14   44.55    8.96
  -5  -2  14   52.64   11.58
   5  -2  14   57.83   12.25
  -5  -2  14   82.32   12.08
  -5   2  14   42.04   10.43
   5   2  14   64.13   12.11
   5   2  15  204.68   21.78
   5  -2  15  229.67   24.68
  -5  -2 -15  252.75   22.52
  -5   2  15  268.33   26.70
  -5  -2  15  267.27   25.91
  -5   2  15  211.59   21.70
   5   2  15  259.14   25.21
  -5  -2  15  206.90   19.29
   5   2  16  153.94   19.95
   5  -2  16  182.15   21.34
  -5   2  16  130.28   18.21
  -5  -2  16  144.30   20.09
  -5   2  16  142.10   18.69
   5   2  16  184.85   22.45
  -5  -2  16  126.28   17.03
   5   2  17  217.35   23.78
   5  -2  17  247.17   24.42
  -5   2  17  249.41   25.82
  -5  -2  17  291.50   28.60
  -5   2  17  213.96   23.19
   5   2  17  255.12   26.35
  -5  -2  17  261.49   23.85
   5   2  18  236.95   24.69
   5  -2  18  214.64   25.29
  -5   2  18  234.05   27.17
  -5  -2  18  203.97   25.20
  -5   2  18  199.18   23.10
   5   2  18  216.56   24.60
  -5  -2  18  214.59   23.78
  -5   2  19   29.77    8.44
  -5   2  19   15.23    5.72
  -5  -2  19   -2.09    2.56
   5   2  19   58.92   12.82
   5  -2  19   34.71    9.55
  -5  -2  19   15.80    6.08
   5   2  19   23.28    7.59
   5   2  20  241.45   27.18
   5  -2  20  259.60   27.31
  -5   2  20  244.25   26.73
  -5  -2  20  275.33   29.81
  -5   2  20  234.11   25.42
   5   2  20  252.34   26.97
  -5   2  21   30.87   10.97
   5   2  21   43.03    9.76
   5  -2  21   37.87   11.89
  -5   2  21   23.04    6.69
  -5  -2  21   27.53    8.69
   5   2  21   44.57   12.64
   5  -2  21   46.97   13.50
  -5   2  22   27.88   12.25
   5   2  22   26.03    8.02
   5  -2  22   29.88   11.21
  -5   2  22   27.54    9.49
  -5  -2  22   15.92    6.52
   5   2  22   24.60   10.79
   5  -2  22   32.12   10.57
  -5   2  23   25.60    9.03
   5   2  23   22.39    7.05
   5  -2  23   30.46   10.39
  -5   2  23   37.72   11.68
  -5  -2  23   18.78    7.28
   5   2  23   26.67   11.71
   5  -2  23   35.99   12.70
  -5   2  24   21.44    9.62
   5  -2  24   28.17   10.32
   5   2  24   55.12   14.68
  -5   2  24   31.57    9.94
  -5  -2  24   21.50    7.56
   5   2  24   19.64   12.39
   5  -2  24   48.38   13.22
  -5   2  25   -0.76    4.32
   5   2  25    4.22    2.80
   5  -2  25   -4.78    6.49
  -5   2  25    5.51    8.13
  -5  -2  25    6.73    7.98
   5   2  25   -5.38    8.70
   5  -2  25   -2.68    5.57
  -5   2  26   14.26   11.26
   5   2  26   26.64    9.32
   5  -2  26   17.07   10.24
  -5   2  26   25.35   14.12
  -5  -2  26   22.19    7.97
   5   2  26   25.33   11.77
   5  -2  26   24.66    8.63
   5   2  27  171.83   25.42
   5  -2  27  156.75   24.14
  -5   2  27  149.75   24.09
  -5  -2  27  151.64   24.09
   5   2  27  173.66   26.54
  -5   2  27  151.49   23.95
   5  -2  27  178.80   25.84
  -5   2  28    6.18    8.12
   5   2  28   -3.29    5.91
   5  -2  28    1.57    4.27
  -5   2  28   13.06   13.37
  -5  -2  28   -2.52    6.90
   5   2  28   -2.44    9.43
   5  -2  28   10.22    9.31
  -5   2  29   20.04    7.94
   5   2  29    7.04    4.60
   5  -2  29   -1.55    3.83
  -5   2  29   17.07   10.26
  -5  -2  29    1.52    3.37
   5   2  29   27.53   14.70
   5  -2  29   23.98    8.54
  -5  -3   0   -2.44    2.50
   5  -3   0    0.56    1.00
   5  -3   0    0.03    1.39
  -5  -3   0   -0.22    2.17
  -5   3   0   -0.14    2.73
  -5  -3   1   18.59    5.38
   5  -3   1    7.01    4.31
  -5  -3  -1   15.03    5.20
   5  -3   1   13.24    3.07
  -5   3  -1   18.39    7.44
  -5   3   1   13.38    5.28
  -5  -3   1    8.33    2.36
   5  -3  -1    9.78    2.82
   5  -3  -1    7.86    4.90
   5   3   1    7.38    1.81
  -5  -3   2  280.62   18.51
   5  -3   2  284.58   13.02
  -5  -3  -2  286.55   18.30
   5  -3   2  293.51   22.40
   5  -3  -2  326.00   16.72
  -5   3   2  297.17   24.44
  -5  -3   2  292.67   18.87
   5  -3  -2  281.68   21.68
   5   3   2  289.59   12.32
  -5  -3   3    3.41    3.78
   5  -3   3    5.00    2.28
   5   3   3    5.93    1.81
  -5  -3  -3    2.09    2.53
   5  -3  -3    0.35    2.38
  -5   3   3    5.55    3.74
  -5  -3   3    5.64    2.71
   5  -3  -3    2.82    2.23
   5  -3   3    0.62    2.79
   5  -3   4   -0.69    1.31
  -5  -3   4   -0.59    2.88
   5   3   4    1.70    2.42
  -5  -3  -4    1.30    2.47
  -5   3   4   -1.93    2.82
  -5  -3   4    2.59    3.47
   5  -3   4    2.96    1.47
   5  -3  -4   -1.11    1.45
   5  -3  -4    0.62    2.67
   5   3   5  357.65   18.92
  -5  -3   5  364.82   23.17
   5  -3   5  394.33   25.94
   5  -3  -5  376.79   25.00
  -5  -3  -5  414.81   22.39
  -5   3   5  402.42   29.16
   5  -3  -5  400.23   22.17
  -5  -3   5  421.68   24.39
  -5  -3   6   71.57   10.68
   5   3   6   49.68    7.40
  -5   3   6   63.46   11.42
  -5  -3  -6   61.88    9.24
   5  -3  -6   43.29    8.49
  -5  -3   6   74.22   11.16
   5  -3  -6   54.85    8.69
   5  -3   6   51.22    9.61
  -5  -3   7  303.25   22.60
   5   3   7  249.07   18.19
  -5  -3  -7  353.67   21.64
  -5   3   7  345.88   26.75
  -5  -3   7  272.46   21.35
  -5  -3   7  250.85   10.00
   5  -3   7  315.67   23.75
  -5  -3   8   23.80    6.89
   5  -3   8   13.80    3.25
   5   3   8   19.78    4.46
  -5  -3  -8   19.63    4.79
  -5   3   8   18.21    7.16
  -5  -3   8   26.28    7.39
  -5  -3   8   14.33    3.81
  -5  -3   9   28.90    7.88
   5  -3   9   33.33    8.28
   5   3   9   31.35    6.81
  -5  -3  -9   31.08    6.86
  -5   3   9   22.86    7.62
  -5  -3   9   38.87    8.19
  -5   3   9   39.76    7.82
  -5  -3   9   31.62    5.70
   5  -3  10   15.53    6.56
   5   3  10   10.18    3.98
  -5  -3 -10   12.70    5.06
  -5   3  10   12.42    3.83
  -5  -3  10    3.14    3.60
  -5   3  10    7.47    2.80
   5  -3  11    4.16    4.31
   5   3  11    0.20    2.86
  -5  -3 -11    1.78    3.74
  -5   3  11    7.09    6.08
  -5  -3  11    3.94    6.08
  -5   3  11    8.77    5.92
  -5  -3  11   18.26    6.61
   5  -3  12    2.18    5.10
   5   3  12    3.88    3.63
  -5  -3 -12    3.51    3.43
  -5   3  12    7.02    5.86
  -5  -3  12    6.86    6.31
  -5   3  12    5.30    5.00
   5   3  12    3.31    3.08
   5   3  13  213.99   21.73
  -5  -3 -13  241.20   22.23
  -5   3  13  238.07   25.80
   5  -3  13  242.03   23.54
  -5  -3  13  236.70   23.88
  -5   3  13  230.77   23.16
   5   3  13  209.65   20.94
   5   3  14    8.64    7.06
  -5  -3 -14    1.76    3.54
  -5   3  14    1.16    4.75
  -5  -3  14    0.55    3.92
  -5   3  14   -1.30    2.73
   5   3  14    5.15    3.61
   5  -3  14    4.39    3.82
   5   3  15  323.04   27.46
   5  -3  15  302.01   28.00
  -5  -3 -15  216.65   23.04
  -5   3  15  240.87   25.78
  -5  -3  15  261.75   26.57
  -5   3  15  276.60   26.06
   5   3  15  234.99   23.63
   5   3  16   37.73    9.11
  -5  -3 -16   26.09    7.22
  -5   3  16   59.29   13.37
  -5  -3  16   32.87    8.01
   5  -3  16   54.62   11.71
  -5   3  16   58.14   11.18
   5   3  16   36.24   10.53
   5   3  17    7.98    5.43
  -5  -3 -17    7.00    5.43
  -5   3  17   15.35    8.24
  -5  -3  17    3.99    3.64
   5  -3  17    2.59    3.35
   5   3  17    7.18    4.92
  -5   3  17    5.46    4.12
   5   3  18    1.04    3.26
  -5  -3 -18    3.87    4.19
  -5   3  18    5.08    3.65
  -5  -3  18   -4.07    2.70
   5  -3  18    3.21    6.22
   5   3  18   -0.91    4.03
  -5   3  18    5.58    6.33
  -5  -3  19   21.00    8.95
   5   3  19   24.56    8.18
  -5  -3 -19   16.03    5.22
  -5   3  19   32.58    8.65
   5  -3  19   16.89    7.58
   5   3  19   37.86   12.90
  -5   3  19   40.77   10.75
  -5  -3 -20   30.72    9.86
   5   3  20   38.15   10.78
  -5   3  20    6.22    6.56
   5  -3  20   36.89    9.95
  -5  -3  20   26.07    9.17
   5   3  20   17.47    6.79
  -5   3  20   15.79    4.48
   5   3  21   20.98   10.05
  -5  -3 -21   11.94    6.05
  -5   3  21   20.36    8.09
   5  -3  21   14.60    8.52
  -5  -3  21   10.78    9.01
   5   3  21    2.83    6.00
   5  -3  21   15.73    8.18
  -5   3  21    9.00    4.86
  -5   3  22    2.17    5.94
   5   3  22   13.04    7.94
   5  -3  22    4.00    3.63
  -5  -3 -22    6.15    6.25
  -5   3  22    4.83    4.08
  -5  -3  22   25.71   11.38
   5   3  22    8.21    8.30
   5  -3  22   23.94    9.98
  -5   3  23   46.88   13.19
   5   3  23   23.18   10.02
   5  -3  23   27.08   13.23
  -5  -3 -23   36.08   12.84
  -5   3  23   31.70    9.58
  -5  -3  23   28.68   12.06
   5   3  23   21.16    9.57
   5  -3  23   40.33   11.95
   5   3  24  147.55   22.59
   5  -3  24  136.11   21.99
  -5   3  24  148.84   22.66
  -5  -3  24  118.29   19.68
   5   3  24  131.51   20.99
  -5   3  24  126.78   20.72
   5  -3  24  117.10   20.59
  -5   3  25   13.00    8.54
   5   3  25   18.15    5.22
   5  -3  25   22.72    9.37
  -5   3  25   18.08    8.95
  -5  -3  25   11.33    7.34
   5   3  25   19.80   11.91
   5  -3  25    8.26    4.04
  -5   3  26   -0.52    2.60
   5   3  26   -2.50    3.25
   5  -3  26    7.18    8.49
  -5   3  26   10.34    9.66
  -5  -3  26   -6.11    6.92
   5   3  26    9.79   10.09
   5  -3  26   14.30    8.63
  -5   3  27   80.73   17.63
   5   3  27   75.11   17.53
   5  -3  27   66.26   16.41
  -5   3  27   75.15   16.61
  -5  -3  27   88.12   19.57
   5   3  27   55.21   13.89
   5  -3  27  106.14   18.86
  -5   3  28   -3.06    6.86
   5  -3  28    5.77    4.09
   5   3  28   -1.20    6.15
  -5   3  28   -0.41    6.82
  -5  -3  28   -1.50    5.16
   5   3  28   -1.23    7.81
   5  -3  28   -0.09    7.02
  -5   3  29   17.08   10.91
   5   3  29   32.33   12.86
   5  -3  29   59.61   18.82
  -5   3  29   40.10   11.96
  -5  -3  29   29.55   11.90
   5   3  29   45.72   12.80
   5  -3  29   36.28   12.80
  -5  -4   0   -2.05    3.25
   5  -4   0    0.37    0.88
  -5   4   0    5.88    6.60
   5  -4   0    3.23    3.01
  -5  -4   1  303.29   21.55
  -5  -4  -1  348.23   22.35
   5  -4   1  299.31   24.79
   5  -4   1  338.05   18.04
   5  -4  -1  309.01   18.20
  -5   4   1  284.71   25.15
  -5  -4   1  341.55   18.78
   5  -4  -1  300.41   23.69
   5  -4  -2    5.06    5.03
  -5  -4   2    6.49    4.70
   5  -4   2   -0.58    2.83
   5  -4   2    6.75    2.95
  -5  -4  -2    4.53    4.05
   5  -4  -2    2.43    0.97
  -5   4   2    6.11    4.46
  -5  -4   2   10.91    4.45
   5   4   2    7.24    1.82
   5  -4   3    2.70    1.80
  -5  -4   3    6.44    4.46
   5  -4   3    7.86    2.72
  -5  -4  -3    4.47    2.32
   5  -4  -3    7.44    2.70
  -5   4   3    5.22    3.87
   5  -4  -3    7.42    3.23
  -5  -4   3    8.81    2.91
   5   4   3    3.65    1.73
   5  -4  -4   87.81   13.65
  -5  -4   4  100.77   13.69
   5  -4   4   87.26    9.18
   5  -4   4  102.35   14.75
  -5  -4  -4   86.63   11.59
   5  -4  -4   63.49    9.12
  -5   4   4   95.05   15.16
  -5  -4   4   72.12    9.50
   5   4   4   83.86    8.44
   5  -4   5   36.89    6.15
   5   4   5   21.99    4.11
  -5  -4   5   36.39    8.27
   5  -4  -5   46.74    9.27
  -5  -4  -5   30.42    6.30
  -5   4   5   28.84    7.82
   5  -4  -5   40.27    7.22
  -5  -4   5   41.35    7.10
   5  -4   5   45.01    9.39
   5  -4   6  521.07   23.08
  -5  -4   6  532.21   30.62
   5  -4   6  513.65   31.97
  -5  -4  -6  502.71   28.03
   5  -4  -6  474.95   29.77
  -5   4   6  592.80   35.10
   5  -4  -6  592.32   30.25
  -5  -4   6  578.70   29.25
   5   4   6  500.66   24.70
   5  -4   7  520.25   23.42
  -5  -4   7  469.45   29.95
   5  -4  -7  513.70   31.98
  -5  -4  -7  503.01   28.89
   5  -4  -7  567.46   30.25
  -5   4   7  559.56   35.45
  -5  -4   7  561.98   29.89
   5  -4   7  489.41   31.48
  -5  -4   8  170.96   18.21
  -5  -4  -8  162.77   16.57
  -5   4   8  161.06   19.69
  -5  -4   8  160.39   16.90
   5  -4   8  172.54   18.64
   5  -4  -8  147.38   15.96
   5   4   8  209.81   18.12
   5  -4   8  159.21   13.87
  -5  -4   9   46.51    9.94
   5  -4  -9   37.68    7.98
   5  -4   9   46.17    8.85
  -5  -4  -9   72.73   11.06
  -5  -4   9   63.36   10.96
  -5   4   9   43.97    8.58
   5   4   9   69.26   10.48
   5  -4   9   53.15    8.56
  -5  -4  10   -0.47    4.75
   5   4  10    0.20    1.54
   5  -4  10   -0.53    4.19
  -5  -4 -10   -0.76    1.99
  -5   4  10   -4.98    6.05
  -5   4  10   -4.50    4.95
  -5  -4  10    3.32    1.96
   5   4  10   -0.93    1.43
  -5  -4  11    3.85    4.12
   5  -4  11    3.53    4.72
   5   4  11    6.77    4.37
  -5  -4 -11    4.06    2.95
  -5   4  11    3.78    3.32
  -5  -4  11    6.71    5.63
  -5   4  11    0.10    2.99
   5   4  11    4.07    3.61
   5   4  12  188.33   19.72
  -5  -4 -12  175.74   19.03
  -5   4  12  167.51   21.43
  -5  -4  12  199.64   21.80
   5  -4  12  221.41   22.80
  -5   4  12  239.97   23.16
   5   4  12  245.21   21.60
   5  -4  13   16.54    8.90
   5   4  13   12.42    3.02
  -5  -4 -13   20.38    7.68
  -5   4  13   12.58    7.91
  -5  -4  13   11.82    6.64
  -5   4  13   23.21    6.77
   5   4  13   21.18    8.98
   5  -4  14   76.15   13.34
   5   4  14   68.15   11.55
  -5  -4 -14   84.08   14.32
  -5   4  14   86.71   16.09
  -5  -4  14  101.91   16.57
   5   4  14   70.68   11.83
  -5   4  14   56.38   11.48
   5  -4  15   12.24    5.08
   5   4  15   14.55    5.77
  -5   4  15   21.09    7.63
  -5  -4  15    7.62    4.95
  -5   4  15   18.67    9.51
  -5  -4 -15   11.74    4.43
   5   4  15   21.44    7.65
   5   4  16  290.23   26.29
  -5  -4 -16  324.68   29.69
  -5   4  16  255.23   26.21
   5  -4  16  287.70   27.06
  -5  -4  16  305.99   29.27
  -5   4  16  274.30   27.75
   5   4  16  346.16   28.20
   5   4  17  183.80   21.72
   5  -4  17  157.65   21.85
  -5  -4 -17  175.30   21.47
  -5   4  17  144.59   21.11
  -5  -4  17  157.22   21.39
  -5   4  17   99.99   17.25
   5   4  17  171.63   21.83
   5   4  18    8.23    5.71
  -5  -4 -18   -2.85    3.58
  -5   4  18    2.44    3.53
  -5  -4  18   13.55    7.95
   5  -4  18   -0.42    2.53
   5   4  18   -1.60    2.79
  -5   4  18    7.07    7.34
   5   4  19   72.11   14.76
   5  -4  19   90.54   16.88
  -5  -4 -19   78.06   15.26
  -5   4  19   76.15   16.26
  -5  -4  19   60.75   14.49
  -5   4  19   65.99   16.22
   5   4  19   57.25   13.83
   5   4  20   21.73   10.83
  -5  -4 -20   29.32   11.07
  -5   4  20   12.85    4.99
  -5  -4  20   21.66    9.73
   5  -4  20   22.53    9.02
   5   4  20   27.31   10.97
  -5   4  20   14.69    7.62
   5   4  21   17.78    8.64
  -5  -4 -21   13.74    7.06
  -5   4  21   19.67    8.54
  -5  -4  21   18.10    8.29
   5  -4  21   16.94    8.45
   5   4  21   19.52    7.54
  -5   4  21   15.10    6.39
   5   4  22    4.03    6.82
  -5  -4 -22   -0.33    4.20
  -5   4  22    2.50    5.88
   5  -4  22    5.43    6.02
  -5  -4  22   10.99    9.76
   5   4  22    3.06    7.53
  -5   4  22   -3.73    6.52
   5  -4  22    4.59    3.79
   5  -4  23  546.76   42.84
  -5  -4 -23  480.66   41.17
  -5   4  23  408.43   37.58
  -5  -4  23  450.29   40.43
   5   4  23  539.60   44.54
  -5   4  23  474.06   39.49
   5  -4  23  451.04   39.90
   5   4  23  502.57   39.98
   5   4  24   -2.84    6.47
   5  -4  24    1.47    3.89
  -5   4  24   -6.67    6.39
  -5  -4  24   -4.25    4.27
   5   4  24   -3.99    3.65
   5  -4  24   -5.13    3.85
  -5   4  24   10.58    7.34
   5   4  25    1.66    9.17
   5  -4  25   16.25   10.69
  -5   4  25    4.27    3.37
  -5  -4  25   10.81    7.35
   5   4  25   10.43    7.79
   5  -4  25    4.16    5.82
  -5   4  25    8.17    3.24
   5   4  26   35.20   10.62
   5  -4  26   32.12   13.09
  -5   4  26   17.63    8.88
  -5  -4  26   42.41   13.91
   5   4  26   23.00   13.03
   5  -4  26    7.30    3.83
  -5   4  26   45.36   14.84
   5  -4  27   -5.51    5.34
   5   4  27    4.91    6.60
  -5   4  27   -8.71    3.28
  -5  -4  27    3.04    4.69
   5   4  27    8.67    9.27
   5  -4  27   -6.16    7.10
  -5   4  27    8.04    5.67
   5   4  28    9.79    8.16
  -5   4  28    7.87    7.97
   5  -4  28   -2.21    8.14
  -5  -4  28    6.10    7.70
   5   4  28    8.90   11.31
   5  -4  28    6.12    7.06
  -5   4  28   -3.02    4.62
   5   4  29    5.07    7.61
   5  -4  29   -3.25    7.18
  -5   4  29   -1.65    3.86
  -5  -4  29   -1.34    5.46
   5  -4  29   -6.33    8.15
  -5   4  29   18.00   12.68
  -5  -5   0    1.97    4.43
   5  -5   0   -0.66    2.68
  -5   5   0    0.36    4.94
   5  -5   0    2.09    1.86
  -5  -5   0   -4.13    1.53
  -5  -5   1  506.17   30.15
  -5  -5  -1  625.62   21.30
  -5  -5  -1  494.78   29.66
   5  -5   1  495.49   25.62
   5  -5  -1  483.58   25.79
  -5  -5   1  472.35   20.13
  -5   5   1  529.34   34.59
   5  -5   1  530.25   34.41
   5  -5  -1  514.14   33.55
  -5  -5   2  252.93   21.60
   5  -5   2  266.85   18.86
  -5  -5  -2  254.87   21.20
   5  -5  -2  264.22   19.53
   5  -5   2  266.98   24.39
  -5   5   2  289.42   25.09
  -5  -5   2  294.63   15.99
   5  -5  -2  292.18   25.27
   5  -5   3   10.73    5.22
  -5  -5   3   13.88    4.96
   5  -5   3    7.19    3.92
  -5  -5  -3    7.04    4.02
   5  -5  -3    2.92    2.16
  -5   5   3    7.49    4.21
   5  -5  -3    9.59    1.40
  -5  -5   3   17.01    4.31
   5   5   3    4.51    0.91
  -5  -5   4   55.95   11.51
   5  -5   4   34.46    7.02
  -5  -5  -4   34.68    8.72
  -5   5   4   53.76   12.49
   5  -5  -4   34.02    7.37
  -5  -5   4   32.68    6.30
   5   5   4   40.89    6.84
   5  -5  -4   39.46    9.92
   5  -5   4   39.89    9.72
  -5  -5   5   92.02   13.82
   5  -5   5   95.66   11.82
   5  -5  -5   80.75   13.81
   5  -5   5  104.93   15.15
  -5  -5   5   84.72   10.86
  -5  -5  -5   90.42   13.58
   5  -5  -5  102.24   13.39
  -5   5   5  124.37   17.87
   5   5   5   81.94    9.88
  -5  -5   6  363.63   26.65
   5  -5   6  316.51   20.70
   5  -5   6  306.67   26.46
   5  -5  -6  331.84   26.83
  -5  -5  -6  302.20   24.10
   5  -5  -6  352.31   24.45
  -5   5   6  328.89   27.81
  -5  -5   6  380.49   22.99
   5   5   6  328.72   20.79
   5   5   6  256.44   15.21
   5  -5   7  254.60   19.14
  -5  -5   7  308.77   25.07
   5  -5   7  281.03   25.57
  -5  -5  -7  254.31   22.18
   5  -5  -7  293.42   25.24
   5  -5  -7  264.07   21.66
  -5   5   7  287.23   26.91
  -5  -5   7  262.67   19.82
   5   5   7  272.55   20.08
   5   5   7  258.38   16.04
   5  -5   8  114.37   13.09
  -5  -5   8  119.05   16.00
  -5  -5  -8  113.19   15.50
  -5   5   8  125.50   18.30
   5  -5  -8  112.59   14.89
   5  -5  -8  154.35   18.55
  -5  -5   8  109.04   13.66
   5   5   8  110.19   14.14
   5  -5   8  137.72   16.74
   5  -5   9   14.72    5.26
  -5  -5   9    7.95    4.14
   5   5   9    8.99    2.92
   5  -5   9   16.29    5.28
  -5  -5  -9   16.23    4.91
  -5   5   9   17.75    7.39
   5  -5  -9   15.23    6.11
  -5  -5   9   21.73    7.21
   5   5   9   12.85    4.98
   5  -5  10    9.05    3.25
  -5  -5  10   13.31    6.02
   5   5  10   17.18    6.04
   5  -5  10    6.72    3.50
  -5  -5 -10   12.81    5.96
  -5   5  10   12.15    4.64
   5  -5 -10   11.64    2.33
  -5  -5  10   14.35    6.42
   5   5  10    9.28    3.91
  -5  -5  11   91.04   14.29
  -5  -5 -11   73.87   13.22
   5  -5 -11   93.14   14.22
  -5  -5  11  115.34   15.52
  -5   5  11   83.47   13.76
   5  -5  11   82.51   14.46
   5   5  11   78.66   11.02
   5   5  11   93.92   14.01
   5  -5  11   57.42   10.73
  -5  -5  12  306.64   28.15
  -5  -5 -12  297.76   26.28
  -5   5  12  346.83   29.96
   5  -5 -12  339.17   27.95
  -5  -5  12  262.15   24.64
  -5   5  12  343.87   28.26
   5  -5  12  300.47   27.52
   5   5  12  298.80   25.52
  -5  -5 -13    3.50    3.14
  -5  -5  13   -1.44    4.00
   5   5  13    2.47    5.48
   5  -5  13    0.58    2.47
   5  -5 -13    1.48    4.84
  -5   5  13    0.18    5.47
  -5  -5  13   -2.06    3.84
  -5   5  13   -1.85    2.20
   5   5  13    7.91    5.86
   5  -5  14   16.25    7.42
   5   5  14    4.71    5.47
  -5  -5 -14   17.46    6.70
  -5   5  14   17.74    8.88
   5  -5 -14    6.17    6.98
  -5  -5  14    1.52    4.65
  -5   5  14   18.35    8.73
   5   5  14   -1.38    4.91
  -5  -5  14   13.90    4.16
   5  -5  15   16.69    5.85
   5   5  15   15.97    7.93
  -5  -5 -15   12.57    5.58
  -5   5  15   15.90    4.52
  -5  -5  15   15.09    6.41
  -5   5  15   16.70    7.57
   5   5  15   18.96    6.26
   5  -5  16   84.27   15.17
   5   5  16   56.31   11.86
  -5   5  16   87.26   17.51
  -5  -5 -16   55.42   12.43
  -5  -5  16   67.06   14.50
  -5   5  16   48.03   11.33
   5   5  16   64.38   11.39
  -5   5  17   -2.95    4.37
   5   5  17    1.62    3.15
  -5  -5 -17   -1.36    5.35
  -5  -5  17   -3.94    6.11
  -5   5  17   -0.85    3.78
   5   5  17   -0.77    5.73
   5  -5  17    5.56    5.47
   5   5  18   19.93    7.30
  -5  -5 -18   19.46    8.41
  -5   5  18   10.46    6.67
  -5  -5  18   11.07    8.13
  -5   5  18   18.36    6.98
   5   5  18   19.62    8.25
   5  -5  18   16.39    7.86
   5   5  19   16.77    8.92
  -5  -5 -19   13.66    7.80
  -5   5  19   10.74    8.48
  -5  -5  19    9.81    7.43
   5   5  19   19.60   10.56
   5  -5  19    6.23    4.41
  -5   5  19    3.58    4.56
   5   5  20    1.91    5.36
  -5  -5 -20    1.66    3.15
  -5   5  20   -3.80    4.49
  -5  -5  20   -5.14    7.74
   5  -5  20   -9.87    6.88
   5   5  20    2.92    5.50
  -5   5  20    4.66    5.15
   5  -5  21  158.08   22.43
  -5  -5 -21  122.36   21.51
  -5  -5  21  151.87   22.34
   5   5  21  158.74   23.15
  -5   5  21  115.27   20.43
  -5   5  21  113.42   18.14
   5   5  21  109.43   19.93
   5   5  22   14.25    6.49
  -5  -5 -22   21.74    7.60
  -5   5  22   35.18   11.29
  -5  -5  22    9.87    8.31
   5  -5  22   18.95   10.15
  -5   5  22   18.55    9.87
   5  -5  22   16.91    7.23
  -5  -5 -23   45.29   10.95
   5   5  23   81.92   17.98
  -5   5  23   48.29   14.28
   5  -5  23   65.79   17.43
  -5  -5  23   40.73   12.82
  -5   5  23   30.81   11.48
   5  -5  23   52.47   13.83
   5   5  24   92.07   18.64
   5  -5  24   93.83   19.14
  -5  -5 -24   76.60   17.24
  -5  -5  24  109.72   21.18
  -5   5  24   91.18   17.91
  -5   5  24  110.99   20.33
   5  -5  24  113.85   21.89
   5   5  25    6.93    8.20
  -5  -5 -25   11.87    6.73
  -5   5  25   -4.51    5.94
   5  -5  25   -5.37    5.07
  -5  -5  25   -0.48    6.01
  -5   5  25    0.25    3.10
   5  -5  25    1.67    4.09
   5   5  26   21.70   11.40
   5  -5  26   18.95    9.14
  -5   5  26   24.99   12.18
  -5  -5  26   19.16   10.10
  -5   5  26   25.31    9.43
   5  -5  26   26.59   11.09
   5   5  27    2.55    4.72
   5  -5  27    4.23    4.42
  -5   5  27  -14.55    5.78
  -5  -5  27   -4.52    9.19
  -5   5  27    4.82    5.23
   5  -5  27    1.26    6.74
   5   5  28   30.85    9.78
   5  -5  28   49.65   14.97
  -5   5  28   34.41   14.40
  -5  -5  28   31.64   11.82
  -5   5  28   18.00    9.03
   5  -5  28   64.70   16.30
  -5  -6   0   -2.95    4.27
   5  -6   0    2.23    1.44
   5  -6   0    0.49    3.31
  -5  -6   1  603.65   36.30
  -5  -6  -1  603.48   35.88
   5  -6   1  655.65   33.17
   5  -6  -1  710.72   34.12
  -5   6   1  629.63   39.46
   5  -6   1  601.40   38.80
   5  -6  -1  627.43   38.79
  -5  -6   2  301.87   24.89
   5  -6   2  296.71   22.24
  -5  -6  -2  313.25   25.21
   5  -6  -2  308.43   23.15
  -5  -6  -2  354.04   19.57
   5  -6   2  310.40   27.76
  -5   6   2  310.94   28.35
   5  -6  -2  291.64   26.09
  -5   6   3  444.67   33.06
  -5  -6   3  386.31   28.97
   5  -6   3  377.77   24.97
  -5  -6  -3  384.29   28.04
   5  -6  -3  446.46   27.82
   5  -6   3  482.74   34.82
   5  -6  -3  440.29   32.64
  -5  -6   4  118.12   16.00
   5  -6   4  122.42   14.48
  -5  -6  -4  128.11   16.47
   5  -6   4  152.87   19.78
   5  -6  -4  121.66   14.53
  -5   6   4  100.78   15.96
   5   6   4  134.16   13.75
   5  -6  -4   82.19   13.84
  -5  -6   5  209.71   22.01
   5  -6   5  209.87   18.93
   5  -6  -5  197.79   21.41
   5  -6   5  172.28   21.39
  -5  -6  -5  191.81   20.12
   5  -6  -5  172.33   18.15
  -5   6   5  213.92   22.15
   5   6   5  251.04   18.76
  -5  -6   6   25.74    7.97
   5  -6   6   22.92    7.01
  -5  -6  -6   22.51    8.10
   5  -6  -6   20.15    8.02
  -5   6   6   24.17    8.10
   5  -6  -6   32.82    8.05
  -5  -6   6   -7.51    3.16
   5  -6   6   28.22    7.48
   5   6   6   28.85    7.80
  -5  -6   7   19.56    7.57
   5  -6   7    6.78    1.64
  -5  -6  -7   19.81    6.85
  -5   6   7   16.26    7.20
   5  -6  -7   33.25    8.03
   5  -6   7   14.55    6.48
   5  -6  -7   34.33    8.29
   5   6   7   27.75    6.99
  -5  -6   8   26.15    7.92
   5  -6   8   43.34    8.82
   5  -6  -8   57.09   11.78
   5  -6  -8   68.04   13.65
  -5  -6  -8   44.74   10.40
  -5   6   8   44.62   11.13
   5  -6   8   42.46   11.37
  -5  -6   8   45.51    9.34
   5   6   8   54.41    9.79
   5  -6   9  345.71   25.63
  -5  -6   9  352.08   29.64
  -5  -6  -9  363.99   29.43
   5  -6  -9  322.88   26.97
  -5   6   9  346.97   29.08
  -5  -6   9  342.95   24.88
   5  -6  -9  343.22   29.09
   5   6   9  288.03   23.33
   5  -6   9  322.54   28.16
   5   6  10    0.38    3.70
   5  -6  10    5.38    4.30
  -5  -6  10    4.13    4.31
   5  -6  10    7.54    7.20
  -5  -6 -10   -0.55    5.32
  -5   6  10   -0.14    5.88
   5  -6 -10    0.92    4.23
  -5  -6  10    2.26    1.97
   5  -6  11   67.10   11.33
   5   6  11   56.45   11.00
  -5  -6  11   49.88   11.21
   5  -6  11   58.06   12.49
  -5  -6 -11   43.16   11.46
  -5   6  11   52.55   13.34
   5  -6 -11   40.16   10.72
  -5  -6  11   32.15    8.38
   5  -6  12  182.26   21.19
  -5  -6  12  225.60   24.88
  -5  -6 -12  225.86   23.67
   5  -6 -12  234.79   24.26
  -5   6  12  284.54   28.14
  -5  -6  12  215.03   22.63
   5  -6  12  235.59   24.42
   5   6  12  224.07   22.44
   5  -6  13   51.55   11.41
  -5  -6  13   72.58   14.26
  -5  -6 -13   86.10   15.40
   5  -6 -13   55.77   12.86
  -5   6  13   61.34   13.94
  -5   6  13   86.81   14.65
  -5  -6  13   55.96   11.24
   5  -6  13   88.22   16.01
   5   6  13   68.25   13.54
  -5  -6  14    4.29    2.42
   5   6  14   22.37    8.36
   5  -6  14    5.29    2.96
  -5  -6 -14    6.60    3.87
  -5   6  14   12.97    7.54
   5  -6 -14    4.42    6.11
  -5  -6  14    9.48    5.73
  -5   6  14    1.83    2.43
  -5  -6 -15  242.81   26.03
  -5   6  15  292.83   29.57
   5  -6 -15  263.38   27.41
  -5  -6  15  236.20   26.32
   5  -6  15  306.93   29.64
  -5   6  15  274.20   27.45
   5   6  15  293.42   27.59
  -5   6  16   14.84    9.85
   5  -6  16    2.23    3.38
   5   6  16    0.83    3.57
   5  -6 -16   -0.79    2.25
  -5  -6  16   10.04    7.58
  -5   6  16    7.94    4.45
  -5  -6  16   11.03    8.82
  -5  -6 -16    0.46    4.10
   5  -6  17   -8.93    7.65
   5   6  17    5.29    6.31
  -5  -6 -17    9.21    8.11
  -5   6  17    3.65    6.20
   5  -6 -17    6.64    4.63
  -5  -6  17   -0.02    3.65
  -5   6  17    2.16    2.71
   5  -6  18    2.17    3.89
   5   6  18   -0.60    4.72
  -5  -6 -18   10.75    6.05
  -5   6  18    8.57    7.31
   5  -6 -18    4.47   10.67
  -5  -6  18    4.10    7.20
  -5   6  18   -0.07    3.48
   5   6  19   32.33   11.80
  -5  -6 -19   25.55    9.70
  -5   6  19   19.91   11.95
   5  -6 -19    8.07    6.70
  -5  -6  19   23.20   10.42
  -5   6  19   36.04   10.50
   5  -6  19    4.21    3.38
  -5  -6 -20  289.31   31.42
   5  -6  20  272.74   29.67
  -5   6  20  295.95   32.01
   5  -6 -20  251.93   28.78
  -5  -6  20  317.66   34.19
  -5   6  20  270.11   30.17
   5   6  20  324.71   32.22
   5   6  21    2.21    7.03
  -5  -6 -21   -3.02    7.41
  -5   6  21   -1.90    5.06
   5  -6 -21    4.65    7.34
  -5  -6  21    0.05    4.99
   5  -6  21    7.04    7.24
  -5   6  21    5.37    5.71
   5  -6  22  288.55   31.97
  -5  -6 -22  266.56   29.95
  -5   6  22  275.84   31.07
   5  -6 -22  263.70   30.88
  -5  -6  22  333.82   36.05
  -5   6  22  252.67   29.29
   5   6  22  290.14   30.66
   5   6  23   20.50    9.31
  -5  -6 -23   25.21    9.77
  -5   6  23   23.27   10.46
   5  -6 -23   21.05    8.87
  -5  -6  23   24.37   10.86
   5  -6  23   35.58   11.88
  -5   6  23   42.58   13.20
   5  -6  23   20.46    9.72
   5   6  24   52.77   13.08
  -5  -6 -24   58.88   14.83
  -5   6  24   61.25   15.21
   5  -6 -24   38.91   11.02
   5  -6  24   54.12   14.14
  -5  -6  24   30.41   14.71
  -5   6  24   85.14   18.48
   5  -6  24   58.16   14.54
   5   6  25   19.25   10.60
  -5  -6 -25   33.00   16.63
  -5   6  25   -3.32    4.74
   5  -6 -25   19.32    8.78
   5  -6  25   23.86   10.76
  -5  -6  25   19.76   10.21
  -5   6  25   25.97   12.45
   5  -6  25   29.48    9.79
   5   6  26    4.07    7.06
  -5   6  26    5.41    6.33
   5  -6 -26    9.50    5.50
   5  -6  26    0.94    5.37
  -5  -6  26   -1.50    6.42
  -5   6  26   -7.79    4.87
   5  -6  26    9.29    5.56
   5   6  27   53.50   14.03
  -5   6  27   62.07   16.00
   5  -6  27   33.68    9.59
   5  -6 -27   57.11   15.83
  -5  -6  27   26.87   11.91
  -5   6  27   47.02   14.11
   5  -6  27   64.43   14.59
  -5  -7   0    3.08    3.49
   5  -7   0   -0.14    3.84
   5  -7   0   -0.04    4.89
   5  -7   1   46.53   10.30
  -5  -7   1   46.47   11.20
  -5  -7  -1   56.48   10.62
   5  -7  -1   45.04    9.61
   5  -7   1   70.02   14.75
   5  -7  -1   58.60   12.34
  -5  -7   2  687.04   40.93
   5  -7   2  664.33   36.18
  -5  -7  -2  639.66   38.97
   5  -7  -2  710.74   37.89
  -5   7   2  694.41   42.47
   5  -7   2  733.57   44.97
   5  -7  -2  676.04   42.88
  -5  -7   3  274.04   25.88
   5  -7   3  214.01   20.64
  -5   7   3  256.80   25.98
  -5  -7  -3  220.76   22.96
   5  -7  -3  301.02   25.05
   5  -7   3  245.73   25.71
   5  -7  -3  231.99   25.51
  -5  -7   4  202.02   23.01
   5  -7   4  219.07   21.04
  -5  -7  -4  206.17   22.66
   5  -7  -4  248.61   23.24
   5  -7   4  253.88   26.41
  -5   7   4  290.82   27.80
   5  -7  -4  215.58   22.87
  -5  -7   5   94.27   15.22
   5  -7   5   64.48   11.36
  -5  -7  -5   80.63   13.18
   5  -7  -5   86.90   13.55
  -5   7   5   66.58   13.24
   5   7   5   66.53   10.57
   5  -7  -5   54.08   11.75
   5  -7   5   59.30   12.84
   5  -7  -6   -2.70    3.15
  -5  -7   6   -0.83    5.08
   5  -7  -6    5.22    5.90
   5  -7   6    3.66    4.11
  -5  -7  -6   -1.57    4.74
  -5   7   6   -1.56    3.81
   5   7   6    0.65    2.54
   5  -7   6    1.46    3.26
  -5  -7   7   -0.10    4.02
   5  -7   7    5.14    3.95
  -5  -7  -7   -2.27    2.00
  -5   7   7    1.90    4.02
   5  -7  -7    2.46    2.05
   5  -7  -7    2.66    6.80
   5  -7   7   -1.50    2.18
   5   7   7    4.63    5.33
  -5  -7   8  124.04   18.20
   5  -7   8   90.25   13.09
   5  -7   8   86.66   16.36
  -5  -7  -8   81.23   13.29
   5  -7  -8  101.22   16.45
   5  -7  -8   93.58   15.42
  -5   7   8   82.11   15.51
   5   7   8   86.34   13.33
   5  -7   9  274.70   27.15
  -5  -7   9  275.70   27.23
   5  -7   9  299.77   25.52
  -5  -7  -9  255.30   26.53
   5  -7  -9  270.63   25.87
   5  -7  -9  316.62   28.69
  -5   7   9  264.40   26.88
   5   7   9  213.74   21.30
   5  -7  10   -2.98    3.98
  -5  -7  10   -0.54    2.19
  -5  -7 -10   -3.03    4.26
   5  -7  10   -5.49    5.46
  -5   7  10    6.72    6.48
   5  -7 -10   -2.98    3.81
   5  -7 -10    1.37    6.19
   5   7  10    3.71    5.11
   5  -7  11  128.85   17.44
  -5  -7  11   99.06   17.23
  -5  -7 -11   82.40   15.46
   5  -7 -11  126.40   18.82
  -5   7  11  121.67   18.46
   5   7  11  104.16   15.00
   5  -7  11  128.41   17.48
   5   7  12   66.88   13.04
   5  -7  12   36.87    9.82
  -5  -7  12   33.81   10.59
  -5   7  12   54.56   11.98
   5  -7  12   32.74   10.70
  -5  -7 -12   20.06    6.05
   5  -7 -12   59.68   13.02
   5  -7  13  120.18   16.88
  -5  -7  13  135.88   19.12
  -5  -7 -13  126.35   19.87
   5  -7 -13  138.66   19.26
  -5   7  13  123.15   19.24
   5  -7  13  145.88   20.71
   5   7  13  115.55   15.98
   5  -7  14   78.69   14.53
  -5  -7  14   80.95   14.99
  -5  -7 -14  125.41   19.39
   5  -7 -14   80.88   16.76
  -5   7  14   87.41   15.77
   5  -7  14  123.30   19.11
   5   7  14  122.15   17.38
   5   7  15   15.27    7.93
  -5  -7  15   11.47    7.49
   5  -7  15   22.78    8.95
  -5   7  15   22.98   11.50
   5  -7 -15    8.21    6.21
  -5   7  15   22.07   10.17
  -5  -7 -15   15.80    8.51
   5  -7  15   19.94    7.89
  -5  -7  16   19.72    9.09
   5   7  16   24.66   10.32
   5  -7  16   51.28   12.79
  -5  -7 -16   32.88   10.58
  -5   7  16   33.51    9.18
   5  -7 -16   23.46    9.45
  -5   7  16   16.17    6.37
  -5  -7  17   -1.62    5.54
   5   7  17    4.00    5.68
   5  -7  17    6.59    8.15
  -5  -7 -17    5.18    8.12
  -5   7  17    1.19    5.15
   5  -7 -17    1.05    2.56
  -5   7  17   15.07   10.17
   5  -7  18   -0.15    5.49
   5   7  18    7.37    7.06
  -5  -7 -18    2.82    5.09
  -5   7  18   10.73    8.08
   5  -7 -18    4.51    9.10
  -5  -7  18   35.10   13.60
  -5   7  18   13.97    8.77
  -5  -7  18    4.24    8.46
   5  -7  19   17.47   10.06
   5   7  19   13.72    5.46
  -5  -7 -19   11.32    7.23
  -5   7  19   10.47    7.74
   5  -7 -19   13.53    9.30
  -5  -7  19   40.45   15.28
  -5   7  19   10.30    4.35
   5   7  20   -6.00    3.24
  -5   7  20    4.09    5.20
  -5  -7 -20    9.13    7.49
   5  -7 -20   -1.76    6.07
  -5  -7  20    5.82    8.99
  -5   7  20   -3.08    3.45
   5  -7  20   -2.75    6.36
   5   7  21   13.93   10.74
  -5  -7 -21    3.65    4.04
  -5   7  21    9.65   10.16
   5  -7 -21   20.14    9.95
  -5  -7  21   -3.82    6.40
  -5   7  21   15.39    9.68
   5  -7  21    5.91    5.68
   5   7  22    9.47    7.18
  -5  -7 -22   -0.77    3.60
  -5   7  22   10.10    7.07
   5  -7 -22   11.59    6.74
  -5  -7  22   -3.05    5.16
  -5   7  22    4.48    5.30
   5  -7  22   10.27    6.97
   5   7  23   14.45    8.23
  -5  -7 -23    9.00    5.25
  -5   7  23   10.66    7.43
   5  -7 -23   11.47    7.67
  -5  -7  23   11.36    9.35
   5  -7  23   20.97    8.84
  -5   7  23    2.90    6.11
   5  -7  23   26.27   10.46
   5   7  24   20.30    9.17
  -5  -7 -24   15.81    3.58
  -5   7  24   11.83    4.90
   5  -7 -24   18.72   12.43
  -5  -7  24    1.59    4.78
   5  -7  24    9.57    6.25
  -5   7  24   21.98    7.32
   5  -7  24    4.04    2.97
   5   7  25   32.61   10.27
  -5  -7 -25   57.37   20.70
  -5   7  25   14.71    8.65
   5  -7 -25   57.32   16.69
  -5  -7  25   34.20   15.79
   5  -7  25   22.49    9.51
  -5   7  25   38.79   13.89
   5  -7  25   26.01   10.10
   5   7  26   21.53   10.09
  -5   7  26   11.55   10.65
   5  -7 -26   18.20    9.89
   5  -7  26    3.92    6.26
  -5   7  26    8.10    4.06
   5  -7  26   11.47    8.37
  -5  -8   0    0.82    6.33
   5  -8   0   -0.42    1.72
   5  -8   0   -4.46    5.54
  -5  -8   1  890.36   49.14
  -5  -8  -1  823.34   47.48
   5  -8   1  903.07   45.87
   5  -8  -1  763.44   42.66
   5  -8   1  933.16   52.58
   5  -8  -1  920.93   51.35
  -5  -8   2  143.72   20.07
   5  -8   2  127.95   17.64
  -5  -8  -2  129.76   19.05
   5  -8  -2  132.55   17.69
   5  -8   2  124.72   19.83
  -5   8   2  160.99   21.44
   5  -8  -2  151.61   20.94
  -5   8   3    2.29    3.77
  -5  -8   3    5.72    4.52
   5  -8  -3    6.73    6.79
   5  -8   3    3.16    5.10
   5  -8   3    3.14    2.03
  -5  -8  -3    8.14    5.56
   5  -8  -3    8.14    3.10
   5  -8   4   47.80   11.00
  -5  -8   4   32.04   11.12
   5  -8   4   51.30   10.65
  -5  -8  -4   47.46   10.48
   5  -8  -4   33.87    7.94
   5  -8  -4   40.11   11.62
  -5   8   4   44.19   11.20
  -5  -8   5 1620.39   66.28
   5  -8   5 1520.06   59.43
  -5  -8  -5 1606.14   66.01
   5  -8   5 1592.01   68.12
   5  -8  -5 1437.10   59.46
  -5   8   5 1593.84   67.17
   5  -8  -5 1559.98   66.47
  -5  -8   6   57.81   13.05
   5  -8   6   51.96   11.67
  -5  -8  -6   67.88   13.42
   5  -8  -6   49.34   10.38
  -5   8   6   76.72   15.50
   5  -8   6   70.74   14.01
   5  -8  -6   50.08   12.58
  -5  -8   7   10.96    8.43
   5  -8   7    5.05    5.33
   5  -8  -7    2.50    3.82
  -5  -8  -7    6.94    5.33
  -5   8   7    9.93    6.79
   5  -8  -7   16.94    7.50
   5  -8   7   16.37    7.94
   5   8   7    7.67    1.88
  -5  -8   8   34.82    9.50
   5  -8   8   47.07    9.79
  -5  -8  -8   42.33   12.25
   5  -8  -8   43.06   12.42
  -5   8   8   32.79   10.82
   5  -8  -8   23.37    8.16
   5  -8   8   32.35   11.22
   5   8   8   33.03    8.86
  -5  -8   9  832.52   48.67
   5  -8   9  803.69   44.30
   5  -8   9  828.53   50.21
  -5  -8  -9  893.28   50.45
   5  -8  -9  870.86   50.68
   5  -8  -9  840.11   47.16
  -5   8   9  913.41   51.53
   5   8   9  766.38   43.06
  -5  -8  10  123.39   19.34
   5  -8  10  108.52   16.60
   5  -8 -10  136.21   19.07
   5  -8 -10  153.97   21.90
  -5   8  10  125.59   19.25
   5   8  10  137.64   19.24
   5  -8  10  122.07   18.99
   5  -8  11   58.75   12.98
  -5  -8  11   52.47   13.12
   5  -8 -11   51.10   12.31
   5  -8  11   75.96   14.43
  -5  -8 -11   71.03   14.80
  -5   8  11   46.10   11.82
   5  -8 -11   61.54   13.16
   5   8  11   66.28   12.66
   5  -8  12   46.42   12.76
  -5  -8  12   53.26   12.28
   5  -8  12   51.96   11.77
  -5  -8 -12   55.78   13.31
   5  -8 -12   49.16   13.07
  -5   8  12   78.06   13.84
   5  -8 -12   48.33   12.23
   5   8  12   45.00   10.86
   5  -8  13  357.66   30.88
  -5  -8  13  398.55   34.39
  -5  -8 -13  353.92   33.31
   5  -8 -13  384.05   34.15
  -5   8  13  346.74   32.12
   5   8  13  293.63   28.37
   5  -8  13  354.58   32.33
   5  -8  14    2.02    3.47
  -5  -8  14    2.06    3.99
   5  -8  14   -2.30    2.77
  -5  -8 -14   -5.21    6.12
  -5   8  14   -1.51    4.86
   5  -8 -14    0.77    3.82
   5   8  14    1.91    3.41
   5  -8  15    9.38    6.53
  -5  -8  15   12.75    7.92
   5  -8  15   14.98    7.92
  -5  -8 -15    0.22    6.29
  -5   8  15    6.37    3.50
   5  -8 -15   15.14    7.26
   5   8  15   21.91    4.58
   5   8  16    1.76    3.62
   5  -8  16    1.79    7.50
  -5  -8  16    0.96    5.30
   5  -8  16    9.34    9.90
  -5  -8 -16   15.41    9.52
  -5   8  16   12.04    5.57
   5  -8 -16    6.44    4.55
  -5  -8 -17  264.40   30.33
   5  -8 -17  263.54   29.55
  -5   8  17  220.52   27.04
   5  -8  17  269.41   29.29
   5   8  17  274.51   29.20
  -5  -8  17  214.82   27.47
   5   8  18   -3.96    8.00
  -5  -8  18    4.35    9.13
   5  -8  18    5.90    8.66
  -5  -8 -18    3.07    4.55
  -5   8  18    9.38    3.58
   5  -8 -18   -2.08    8.67
  -5   8  18    2.44    3.42
  -5  -8 -19  164.11   24.15
   5  -8 -19  199.89   27.08
  -5   8  19  181.16   25.02
   5  -8  19  152.78   21.81
  -5   8  19  186.44   25.08
   5   8  19  162.96   22.19
  -5  -8  19  236.56   29.51
   5  -8  20   20.50   11.17
   5   8  20   10.74    8.06
  -5  -8 -20    3.33    7.69
  -5   8  20    5.40    7.28
   5  -8 -20    9.42    7.99
  -5   8  20    5.67    7.61
   5   8  21   64.31   15.92
  -5   8  21   66.25   14.13
   5  -8 -21   48.83   14.05
  -5   8  21   25.36    9.49
   5  -8  21   50.21   14.29
   5   8  22   11.22    7.82
  -5  -8 -22   17.26    8.48
  -5   8  22   20.95   10.09
   5  -8 -22   22.65    8.33
  -5   8  22    7.65    3.40
   5  -8  22    1.10    5.03
  -5  -8 -23  145.24   24.93
   5  -8 -23  179.77   26.27
  -5   8  23  146.66   24.65
   5  -8  23  192.98   26.51
  -5   8  23  139.44   22.77
   5   8  23  165.33   24.32
   5   8  24    9.15    7.39
  -5  -8 -24    2.99    4.72
  -5   8  24    0.48    7.65
   5  -8 -24    4.19    4.54
  -5   8  24    6.49    8.30
   5  -8  24    7.28    7.61
   5  -8  24   12.67    5.90
   5   8  25    1.32    8.27
  -5   8  25    7.72    4.72
   5  -8 -25    2.48    7.27
   5  -8  25    2.81    3.23
  -5   8  25    2.69    5.63
   5  -8  25    5.76    6.60
  -5  -9   0    2.41    2.56
   5  -9   0   -1.31    3.06
   5  -9   0   -2.35    8.20
  -5  -9   1  384.57   34.64
  -5  -9  -1  450.90   36.02
   5  -9   1  387.07   31.35
   5  -9  -1  418.58   33.90
   5  -9   1  365.74   33.93
   5  -9  -1  406.60   36.11
   5  -9  -2    4.19    6.13
   5  -9   2    4.45    6.41
  -5  -9  -2    1.13    2.19
   5  -9  -2    7.72    2.79
   5  -9   2    0.36    3.66
   5  -9  -3    4.81    3.65
  -5  -9   3    9.65    5.79
   5  -9   3   14.80    6.77
   5  -9   3    8.32    7.99
  -5  -9  -3    7.22    3.45
   5  -9  -3   -0.82    5.54
  -5   9   3    4.97    4.15
   5  -9   4   45.22   11.62
  -5  -9   4   62.62   14.15
   5  -9   4   59.19   12.58
   5  -9  -4   32.08    9.37
  -5  -9  -4   67.54   14.33
   5  -9  -4   71.45   14.12
  -5   9   4   46.52   13.25
  -5  -9   5   79.24   16.21
   5  -9  -5   52.73   13.19
  -5   9   5   94.33   17.27
   5  -9   5   81.62   15.18
   5  -9  -5  112.14   18.01
   5  -9   5   85.91   17.80
  -5  -9  -5   87.51   15.67
   5  -9  -6  166.63   22.49
  -5  -9   6  184.00   23.43
   5  -9   6  235.34   25.67
  -5  -9  -6  175.05   22.84
   5  -9   6  238.64   26.57
   5  -9  -6  249.51   26.39
  -5   9   6  245.14   27.10
   5  -9  -7   -0.30    6.66
  -5  -9   7   -0.81    4.40
   5  -9   7   -1.03    2.93
  -5  -9  -7    7.55    8.54
   5  -9  -7    1.23    3.06
  -5   9   7   -1.37    4.29
   5  -9   7   -5.32    5.92
  -5  -9   8   23.42    7.95
   5  -9   8   29.14    9.21
   5  -9  -8   21.24    7.08
  -5  -9  -8   36.35   10.33
  -5   9   8   46.39   12.69
   5  -9  -8   35.09   10.40
   5  -9   8   30.56    9.65
  -5  -9   9   65.79   16.64
   5  -9   9   59.52   12.90
  -5  -9  -9   57.51   13.69
   5  -9  -9   61.03   13.96
  -5   9   9   62.17   12.57
   5  -9   9   73.00   15.88
   5  -9  -9   73.26   15.43
   5   9   9   62.64   14.38
  -5  -9  10    7.13    5.15
   5  -9  10   15.11    6.26
  -5  -9 -10   13.25    6.84
   5  -9 -10   13.91    7.76
  -5   9  10    9.26    6.19
   5  -9  10   20.54    9.95
   5   9  10   16.40    6.06
   5  -9 -10   19.56   10.05
  -5  -9  11   47.95   12.08
   5  -9  11   37.41    9.54
   5  -9 -11   34.78   11.46
  -5  -9 -11   51.52   12.98
   5  -9  11   27.16    9.55
   5  -9 -11   70.78   14.68
  -5   9  11   68.15   16.71
   5   9  11   47.39   10.82
   5  -9  12  126.54   20.05
  -5  -9  12  101.89   19.14
  -5  -9 -12  116.68   19.82
   5  -9 -12  121.47   19.47
   5  -9 -12  101.94   18.53
  -5   9  12   96.70   17.18
   5   9  12  121.08   19.11
   5  -9  12  108.63   17.73
   5  -9  13    3.87    5.16
  -5  -9  13   -3.23    2.90
   5  -9  13   -3.74    4.33
  -5  -9 -13    2.71    3.72
   5  -9 -13   -0.72    4.35
  -5   9  13   -6.48    6.80
   5  -9 -13   -3.31    5.91
   5   9  13    0.88    6.34
   5  -9  14    5.47    4.77
  -5  -9  14   18.77   10.44
   5  -9  14    1.34    4.83
  -5   9  14    3.85    4.11
  -5  -9 -14   -1.82    4.13
   5  -9 -14    9.12    7.60
   5  -9 -14   10.20    3.40
   5   9  14    9.09    7.84
  -5  -9  15   81.31   17.75
   5  -9  15   85.03   14.99
   5  -9  15   61.81   13.89
  -5  -9 -15   60.26   15.76
  -5   9  15   43.55   12.19
   5  -9 -15   72.30   16.41
   5   9  15   77.65   15.60
   5  -9  16   29.63   10.17
  -5  -9  16   55.84   13.88
  -5  -9 -16   57.62   13.53
   5  -9  16   71.36   15.08
  -5   9  16   35.59   13.21
   5  -9 -16   69.86   15.96
   5   9  16   57.62   14.15
   5  -9  17   23.20   11.06
  -5  -9  17   25.89   10.77
   5  -9  17   28.48   10.63
  -5  -9 -17   39.46   12.26
  -5   9  17   27.15    9.28
   5  -9 -17   33.95   13.02
   5   9  17   28.76   12.90
  -5  -9  18   16.08    9.54
   5  -9  18   -4.95    4.22
  -5  -9 -18   -4.03    4.86
  -5   9  18    0.70    5.13
   5  -9 -18    5.77    6.03
   5   9  18    1.58    3.62
  -5  -9  19   11.81    9.43
   5  -9  19   10.08    8.41
  -5  -9 -19   14.51    9.14
  -5   9  19    4.99    7.75
   5  -9 -19    1.93    5.64
   5   9  19   -0.08    4.21
   5  -9  20   24.35    8.57
  -5  -9 -20   14.47    3.54
  -5   9  20   25.32   10.29
   5  -9 -20   30.27   11.13
   5   9  20   24.44    9.44
  -5  -9  20   16.18    8.48
   5  -9  21   -2.27    6.01
  -5  -9 -21   -0.57    5.14
  -5   9  21   -0.37    3.56
   5  -9 -21   -1.35    6.48
  -5   9  21    1.13    3.39
   5   9  21    0.81    5.14
  -5  -9 -22    1.35    7.97
  -5   9  22    4.78    8.88
   5  -9 -22   -1.17    5.22
  -5   9  22    3.84    5.34
   5  -9  22    5.30    5.87
   5   9  22    2.48    4.43
  -5  -9 -23   -6.06    8.98
   5  -9 -23  -14.37   10.37
  -5   9  23    8.01    8.94
  -5   9  23   -3.36    4.96
   5  -9  23   -8.89    8.39
   5  -9  23    4.13    9.11
   5   9  23   -2.10    7.73
  -5  -9 -24    7.37    8.92
  -5   9  24   17.03   13.37
   5  -9 -24    0.94    5.01
  -5   9  24   -2.31    3.14
   5  -9  24   12.19    9.14
   5  -9  24    8.16    6.39
   5   9  24   14.81    6.96
  -5 -10   0   -3.76    3.51
   5 -10   0    1.40    4.31
   5 -10   0   -3.20    3.91
   5 -10   1  110.90   18.65
   5 -10  -1   95.77   16.69
  -5 -10   1   66.37   14.09
  -5 -10  -1   81.68   15.78
   5 -10   1  111.32   19.52
   5 -10  -1   82.29   16.91
  -5 -10   2  231.38   27.50
   5 -10   2  202.07   24.90
  -5 -10  -2  222.91   26.35
   5 -10  -2  170.09   22.47
   5 -10  -2  178.86   24.09
  -5 -10   3  217.78   25.90
   5 -10   3  201.29   25.29
  -5 -10  -3  277.46   29.13
   5 -10  -3  200.68   25.13
   5 -10   3  214.25   26.92
   5 -10  -3  234.15   27.71
  -5 -10   4  468.29   39.09
   5 -10   4  441.81   35.80
  -5 -10  -4  424.84   37.30
   5 -10  -4  456.46   36.48
   5 -10   4  456.57   39.40
   5 -10  -4  435.36   37.61
  -5 -10   5  365.42   35.16
   5 -10   5  398.34   35.18
  -5 -10  -5  437.86   37.40
   5 -10  -5  423.19   36.18
   5 -10   5  439.67   38.28
  -5  10   5  430.56   37.30
   5 -10  -5  413.49   37.39
  -5 -10   6  234.96   28.13
   5 -10   6  250.38   27.91
  -5 -10  -6  254.42   29.32
   5 -10   6  259.08   28.38
   5 -10  -6  192.18   23.56
  -5  10   6  251.65   28.38
   5 -10  -6  244.05   28.37
  -5 -10   7   17.64    6.09
   5 -10   7   13.61    4.87
  -5 -10  -7   17.98    8.59
   5 -10  -7    9.11    5.76
  -5  10   7   15.02    4.66
   5 -10  -7   13.37    6.64
   5 -10   7   16.84    8.52
  -5 -10   8   11.12    6.84
   5 -10   8   11.23    7.97
  -5 -10  -8   10.71    6.26
   5 -10  -8   18.91    9.47
  -5  10   8   11.32    4.37
   5 -10   8   15.60    4.27
   5 -10  -8   13.33    6.81
  -5 -10   9   -9.92    7.39
   5 -10   9    6.25    5.96
   5 -10  -9   -3.28    5.39
   5 -10  -9    5.92    3.57
  -5 -10  -9   -0.08    6.94
  -5  10   9    1.76    3.86
   5 -10   9    3.14    4.32
  -5 -10  10    9.03    4.86
   5 -10  10   -0.55    4.90
  -5 -10 -10    6.17    6.85
   5 -10 -10    4.60    4.65
   5 -10 -10    6.26    8.29
  -5  10  10   15.71    9.30
   5 -10  10   15.60    7.53
  -5 -10  11   90.27   15.91
   5 -10  11   65.32   16.02
  -5 -10 -11   79.39   17.14
   5 -10 -11   65.56   14.67
  -5  10  11   67.04   15.80
   5 -10 -11   80.17   16.94
   5  10  11  112.64   18.55
   5 -10  11   89.76   18.81
   5 -10 -12   27.89    9.72
   5 -10  12   14.96    9.43
  -5 -10  12   21.94    7.24
  -5 -10 -12   22.19    6.56
   5 -10  12   20.10   10.46
  -5  10  12   13.81    8.02
   5 -10 -12    8.33    3.33
   5  10  12   28.00   11.32
   5 -10  13  128.70   20.72
  -5 -10  13  118.35   21.02
  -5 -10 -13  119.52   21.64
   5 -10 -13  150.89   22.94
   5 -10 -13   91.12   17.74
  -5  10  13  113.86   20.28
   5  10  13  118.53   20.21
   5 -10  13   91.97   17.05
   5 -10  14    0.03    5.94
  -5 -10  14   -1.32    6.78
   5 -10  14    0.55    2.38
  -5 -10 -14    4.91    7.10
   5 -10 -14   -1.15    6.08
  -5  10  14   -1.57    7.67
   5 -10 -14    0.35    4.66
   5  10  14   -6.71    7.00
   5 -10  15    6.86    4.87
  -5 -10  15    4.31    3.41
   5 -10  15    1.68    3.79
   5 -10 -15   -1.59    3.77
  -5 -10 -15   11.40    5.47
   5 -10 -15   -2.57    3.54
  -5  10  15   -2.70    4.46
   5  10  15    1.74    5.87
  -5 -10  16   88.89   17.58
  -5 -10 -16   99.20   21.18
   5 -10 -16  129.90   21.52
  -5  10  16   89.72   17.81
   5 -10 -16  148.37   23.33
   5  10  16  134.77   21.35
   5 -10  16  134.42   22.15
  -5 -10  17   11.17    8.49
   5 -10  17   18.38    6.51
  -5 -10 -17   -1.99    8.13
   5 -10 -17    6.39    3.53
  -5  10  17   20.16    8.58
   5 -10 -17    4.44    4.92
   5  10  17   26.03   11.96
  -5 -10  18   -5.15    3.85
   5 -10  18    5.83    6.54
  -5 -10 -18    7.88    5.83
  -5  10  18   -0.71    6.47
   5 -10 -18   -1.60    7.55
   5  10  18    7.70    7.31
  -5 -10  19    5.20    6.11
   5 -10  19    4.76    4.53
  -5 -10 -19    5.84    4.53
  -5  10  19    8.89    8.76
   5 -10 -19   12.49    9.14
   5  10  19    7.68    3.63
  -5 -10  20   53.20   14.46
   5 -10  20  101.10   18.80
  -5 -10 -20   75.56   16.55
  -5  10  20   71.77   15.64
   5 -10 -20   99.46   19.16
   5  10  20   91.36   20.66
   5 -10  21    0.03    5.71
  -5 -10 -21    6.66    7.73
  -5  10  21   12.55   10.94
   5 -10 -21    5.20    5.72
   5  10  21   -6.00    7.27
  -5 -10  21   12.98    5.63
  -5 -10 -22   95.30   20.61
  -5  10  22   68.21   15.34
   5 -10 -22   87.35   16.04
   5  10  22   82.86   19.03
   5 -10  22   70.70   16.00
  -5 -11   0   -2.26    5.72
   5 -11   0    0.78    4.24
   5 -11   0    7.00    9.20
  -5 -11   1   -6.12    4.84
  -5 -11  -1    2.69    6.68
   5 -11   1   -1.45    6.02
   5 -11  -1    0.83    6.84
   5 -11   1   10.50   11.38
   5 -11  -1    6.98    6.44
  -5 -11   2  140.32   22.00
   5 -11   2  154.74   23.12
  -5 -11  -2  131.72   21.55
   5 -11  -2  187.40   25.46
   5 -11   2  111.13   20.67
   5 -11  -2  138.75   23.06
   5 -11  -3   31.35   10.98
  -5 -11   3   12.04    6.53
   5 -11   3   29.42   10.33
   5 -11   3   29.52   10.99
  -5 -11  -3   23.08    9.79
   5 -11  -3   23.13    7.99
   5 -11  -4   -0.05    5.95
   5 -11   4    2.23    6.23
  -5 -11   4    1.20    3.63
   5 -11   4    3.76    4.75
  -5 -11  -4    4.12    7.00
   5 -11  -4    2.55    4.38
   5 -11   5   10.58    8.20
  -5 -11   5    7.34    5.83
   5 -11   5    3.74    5.15
   5 -11  -5    9.81    8.52
  -5 -11  -5   16.05    9.49
   5 -11  -5   11.85   10.00
  -5 -11   6    0.39    4.88
   5 -11   6    6.22    3.36
  -5 -11  -6    9.59    6.42
   5 -11  -6   12.47    8.28
   5 -11  -6    4.37    4.03
  -5  11   6   24.78   10.73
   5 -11   6   -0.58    5.43
  -5 -11   7   96.77   18.10
   5 -11   7   66.07   15.61
  -5 -11  -7   91.11   18.54
   5 -11  -7   63.16   14.70
   5 -11  -7   82.84   17.09
   5 -11   7   78.95   17.18
  -5  11   7  128.15   22.73
  -5 -11   8   32.32   10.49
   5 -11   8   21.30    9.14
  -5 -11  -8   36.46   10.74
   5 -11  -8   15.67    7.92
  -5  11   8   29.29   11.70
   5 -11  -8   17.85    7.99
   5 -11   8   22.57    8.55
  -5 -11   9   56.45   14.96
   5 -11   9   75.82   17.40
  -5 -11  -9   64.25   14.17
  -5  11   9  114.68   20.54
   5 -11  -9   80.32   17.05
   5 -11   9   93.15   17.68
   5 -11  -9   72.79   16.12
   5 -11  10  111.93   19.56
   5 -11 -10   87.81   17.07
  -5 -11  10   75.93   17.59
   5 -11  10   77.43   17.69
  -5 -11 -10   69.05   16.41
   5 -11 -10   66.83   14.95
  -5  11  10   75.39   17.17
  -5 -11  11   93.27   18.83
   5 -11  11   61.04   13.89
   5 -11 -11   69.78   15.93
   5 -11 -11  106.02   20.60
  -5 -11 -11   79.27   17.82
   5 -11  11   94.98   16.85
  -5  11  11   82.56   18.93
  -5 -11  12   84.80   17.75
   5 -11  12   67.18   16.75
   5 -11 -12  126.15   19.88
  -5 -11 -12   74.45   17.03
   5 -11 -12   92.06   17.60
  -5  11  12   84.65   16.65
   5 -11  12  129.58   20.29
   5 -11  13    3.79    6.29
  -5 -11  13    2.90    6.94
   5 -11  13   -0.66    5.81
  -5 -11 -13   -4.44    5.31
   5 -11 -13    7.08    4.15
  -5  11  13   -4.98    8.18
   5 -11 -13    4.91    7.74
   5 -11  14   22.52   11.63
  -5 -11  14    2.22    3.00
   5 -11 -14   -4.14    7.89
   5 -11  14   -0.94    6.23
  -5 -11 -14    5.32    4.74
   5 -11 -14    0.58    5.54
  -5  11  14    2.00    7.63
   5  11  14    0.70    6.54
  -5 -11  15   -4.71    4.65
   5 -11  15    6.77    6.16
   5 -11 -15   20.31   10.92
  -5 -11 -15    1.00    6.60
   5 -11 -15   13.90    5.87
  -5  11  15   21.71   11.30
   5  11  15   16.44    8.38
  -5 -11  16   70.12   16.08
   5 -11  16   32.94    9.96
  -5 -11 -16   45.72   15.85
   5 -11 -16   72.87   15.76
  -5  11  16   46.28   14.79
   5 -11 -16   54.95   13.59
   5  11  16   60.40   15.51
  -5 -11  17    7.59    6.85
   5 -11 -17   19.46    8.99
   5 -11  17    0.17    5.00
  -5 -11 -17   20.87   12.80
   5 -11 -17   10.21    4.68
  -5  11  17    6.59    7.14
   5  11  17    6.28    7.52
  -5 -11  18   14.16    6.52
   5 -11  18   -0.22    3.05
  -5 -11 -18    8.23   11.30
   5 -11 -18   16.79    7.40
  -5  11  18   -4.26    9.09
   5 -11 -18    4.57    7.16
   5  11  18   25.33    7.73
  -5 -11  19   -7.56    9.71
   5 -11  19  -10.17    4.81
  -5 -11 -19    6.92    9.27
   5 -11 -19    5.55    6.20
   5 -11 -19   -4.92    4.73
  -5  11  19   -3.96    6.62
   5  11  19    3.33    7.96
  -5 -11  20    5.70    6.80
   5 -11  20   37.93   13.07
  -5 -11 -20    9.27    7.23
   5 -11 -20   19.40   10.07
  -5  11  20   51.26   14.14
   5  11  20   46.39   14.53
   5 -11 -20   20.77    8.85
  -5 -12   0    4.39    5.36
   5 -12   0    4.56    6.01
   5 -12   0    2.89    7.11
  -5 -12   1   55.74   16.44
  -5 -12  -1   47.98   13.43
   5 -12   1   49.34   14.59
   5 -12  -1   42.82   11.76
   5 -12   1   46.50   12.83
   5 -12  -1   13.88    4.67
  -5 -12   2   34.27   12.11
   5 -12   2   16.18    8.63
  -5 -12  -2   22.65   10.79
   5 -12   2   19.84    6.63
   5 -12  -2   22.21    7.82
   5 -12  -2   22.13   10.58
   5 -12   3   14.23    8.99
  -5 -12   3   10.76    9.87
   5 -12   3    4.26    4.94
  -5 -12  -3   10.86    7.26
   5 -12  -3    1.77    4.09
   5 -12  -3   11.16   10.11
   5 -12  -4   25.67   13.41
   5 -12   4   11.25    7.35
  -5 -12   4    5.89    2.63
   5 -12   4   22.16   11.02
  -5 -12  -4    5.17    6.37
   5 -12  -4   12.76    4.11
   5 -12   5   51.63   14.35
   5 -12  -5   75.62   16.77
  -5 -12   5   75.76   16.87
   5 -12   5   76.48   17.45
  -5 -12  -5   59.42   15.75
   5 -12  -5   59.69   15.16
  -5 -12   6    4.67    4.45
   5 -12   6   30.26   11.15
   5 -12  -6   29.32   13.56
  -5 -12  -6   11.26    3.90
   5 -12  -6   10.67    4.66
   5 -12   6   22.20    8.21
  -5 -12   7    2.95    6.75
   5 -12   7    4.75    4.31
  -5 -12  -7   -2.09    6.02
   5 -12  -7    1.51    3.18
   5 -12  -7   -5.54    5.47
   5 -12   7   -2.66    5.54
  -5 -12   8   37.23   12.33
   5 -12   8   70.53   17.26
  -5 -12  -8   32.96   12.03
   5 -12  -8   45.32   13.56
  -5  12   8   45.64   13.58
   5 -12  -8   54.29   14.81
   5 -12   8   36.93   13.06
  -5 -12   9    9.34    6.56
   5 -12   9   10.89    5.12
  -5 -12  -9   -3.51    7.42
   5 -12  -9    7.38    9.30
  -5  12   9   -3.26    5.68
   5 -12  -9    0.77    4.55
   5 -12   9   -6.42    5.51
  -5 -12  10   57.32   14.15
   5 -12  10   34.62   13.02
  -5 -12 -10   40.74   12.27
   5 -12 -10   44.55   13.34
  -5  12  10   51.47   17.14
   5 -12  10   59.81   15.74
   5 -12 -10   22.44   12.22
   5 -12 -11    5.68    5.54
  -5 -12  11   10.87    6.17
   5 -12  11   -3.46    5.52
  -5 -12 -11   -1.22    9.16
   5 -12 -11   19.57   11.23
  -5  12  11    6.00    6.45
   5 -12  11    6.83    4.84
  -5 -12  12  125.85   22.81
   5 -12 -12   74.37   16.03
   5 -12  12  112.78   20.63
   5 -12 -12   83.11   17.92
  -5 -12 -12  105.76   19.51
   5 -12  12  159.57   24.32
  -5  12  12  127.24   23.51
  -5 -12  13   46.44   13.82
   5 -12 -13   39.97   12.09
  -5 -12 -13   33.74   11.28
   5 -12  13   75.46   16.78
  -5  12  13   49.09   15.85
   5 -12 -13   59.88   17.19
  -5 -12  14   25.76    8.60
   5 -12  14   18.35    9.34
  -5 -12 -14   19.00    9.57
   5 -12 -14   17.09    9.76
   5 -12 -14   18.49   12.86
  -5  12  14    7.06    7.27
  -5 -12  15    1.84    2.99
   5 -12  15   -2.23    3.46
  -5 -12 -15    7.62    6.99
   5 -12 -15   -2.18    6.74
  -5  12  15   -1.62    6.23
   5 -12 -15   13.46    9.29
  -5 -12  16   21.58    9.78
   5 -12  16    2.83    4.52
  -5 -12 -16    9.77    7.40
   5 -12 -16   10.37    6.81
  -5  12  16   27.59   11.67
   5 -12 -16   29.50   13.50
  -5 -12  17   52.01   16.18
   5 -12 -17   38.88   13.92
   5 -12  17   28.50   11.55
  -5 -12 -17   29.03   10.92
   5 -12 -17   22.28    8.48
  -5  12  17   11.94    5.68
  -5 -12  18    6.36    8.92
   5 -12  18   16.31    8.82
   5 -12 -18   19.83   10.64
  -5 -12 -18   11.90    4.44
   5 -12 -18   32.07   13.43
  -5  12  18   17.34   12.76
  -5 -13   0   -5.09    5.11
   5 -13   0    8.49    9.83
   5 -13   0    2.48    5.74
  -5 -13   1   26.51   12.48
  -5 -13  -1   58.01   16.17
   5 -13   1   36.31   15.03
   5 -13  -1   33.30   11.02
   5 -13   1   38.19   10.33
   5 -13  -1   19.84   11.09
  -5 -13   2   18.21    9.03
   5 -13   2    0.36    5.48
   5 -13   2    8.33    7.84
  -5 -13  -2   24.00   10.68
   5 -13  -2   26.63    8.43
   5 -13  -2    5.32    5.18
   5 -13   3   31.10   11.67
  -5 -13   3   11.61    9.40
   5 -13   3   42.64   14.77
  -5 -13  -3   37.42   12.80
   5 -13  -3   26.19   10.36
   5 -13  -3   19.99    9.17
   5 -13   4   34.89   13.09
  -5 -13   4    8.10    7.57
   5 -13   4   11.34    9.71
  -5 -13  -4    7.85    8.36
   5 -13  -4   31.33   11.04
   5 -13  -4    8.04    7.62
   5 -13  -5   -6.33    6.89
  -5 -13   5    1.20    6.30
   5 -13   5    2.97    8.52
  -5 -13  -5    6.10    8.27
   5 -13  -5   -5.67    5.64
   5 -13   5    0.77    4.74
   5 -13  -6    5.94    4.99
  -5 -13   6    5.74    8.19
   5 -13   6    8.10    3.76
  -5 -13  -6   18.54   11.05
   5 -13  -6    0.62    5.32
   5 -13   6    4.10    4.04
  -5 -13   7    7.73    9.32
   5 -13   7    1.97    3.58
   5 -13  -7   -4.81    5.77
  -5 -13  -7    9.59   11.06
   5 -13  -7   14.02   11.59
   5 -13   7   -5.04    6.91
  -5 -13   8   -4.22    5.86
   5 -13   8   43.64   13.11
   5 -13  -8   12.86    7.25
  -5 -13  -8   15.36    7.20
   5 -13  -8   28.50    9.04
   5 -13   8   26.23   10.39
  -5 -13   9  116.60   20.69
   5 -13   9   85.49   16.95
  -5 -13  -9   93.87   20.01
   5 -13  -9  103.89   19.08
   5 -13  -9   91.51   20.16
   5 -13   9   94.33   18.40
  -5 -13  10    5.66    4.46
   5 -13  10    6.75    6.30
  -5 -13 -10    8.46    6.63
   5 -13 -10   15.89    8.37
  -5  13  10   22.51   12.98
   5 -13 -10   34.59   12.32
   5 -13  10   43.30   12.60
  -5 -13  11    0.78    4.54
  -5 -13 -11    2.77    4.25
   5 -13 -11    1.11    5.98
  -5  13  11   -8.44    6.21
   5 -13  11    3.15    6.04
   5 -13 -11    1.49    4.51
  -5 -13  12   64.63   14.80
   5 -13  12   57.57   15.19
  -5 -13 -12   44.90   15.07
   5 -13 -12   90.44   19.15
  -5  13  12   91.30   20.21
   5 -13 -12   52.33   12.98
   5 -13 -13   -3.72    3.92
  -5 -13  13   -0.96    4.27
  -5 -13 -13    1.29    5.15
   5 -13  13   10.00    9.10
   5 -13 -13   19.08    9.75
  -5  13  13   11.10    9.16
  -5 -13  14   48.40   13.65
   5 -13 -14   45.52   15.22
   5 -13  14   48.42   11.60
  -5 -13 -14   68.69   15.82
   5 -13 -14   52.32   13.11
  -5  13  14   33.62   11.80
  -5 -13  15   -2.89    4.19
   5 -13 -15    5.94    4.42
   5 -13  15   13.73    8.90
  -5 -13 -15   11.74    7.56
   5 -13 -15   17.45    8.67
  -5  13  15   11.62   10.73
  -5 -14   0    7.37    9.03
   5 -14   0    7.73    3.68
   5 -14   0   -4.69    3.51
  -5 -14   1    7.29    7.85
  -5 -14  -1   11.15    7.20
   5 -14   1   29.93   12.33
   5 -14   1   13.60    7.51
   5 -14  -1   36.58   14.67
   5 -14  -1    7.51    7.75
   5 -14   2   33.98   12.33
  -5 -14   2   26.39   12.48
   5 -14   2   27.23    8.32
  -5 -14  -2   16.82    7.82
   5 -14  -2   13.72    6.45
   5 -14  -2   36.12   11.78
   5 -14   3    3.86    4.79
  -5 -14   3    5.03    4.62
   5 -14   3   -2.68    4.69
  -5 -14  -3    6.16    6.70
   5 -14  -3   -1.85    4.42
   5 -14  -3    3.74    8.15
   5 -14   4   -0.96    6.95
  -5 -14   4    2.70    4.32
   5 -14   4   10.36    7.39
  -5 -14  -4    4.25    5.08
   5 -14  -4    0.65    4.96
   5 -14  -4    6.79   10.04
  -5 -14   5   91.59   19.26
   5 -14   5   63.92   18.20
   5 -14   5  124.19   21.81
  -5 -14  -5   64.74   17.22
   5 -14  -5   92.06   19.65
   5 -14  -5   36.83   14.89
   5 -14  -6   23.48   12.61
  -5 -14   6   15.07    8.99
   5 -14   6  -12.76   12.74
  -5 -14  -6   -5.80    6.43
   5 -14  -6    6.30   11.75
   5 -14   6    3.76    5.99
   5 -14  -7    4.48    7.58
  -5 -14   7   15.62   10.86
   5 -14   7   24.84   12.40
  -5 -14  -7    7.15    5.43
   5 -14  -7    2.59    5.45
   5 -14   7    5.63    3.62
  -5 -14   8   14.91    8.48
   5 -14   8   34.81   12.74
   5 -14  -8   24.35   12.90
  -5 -14  -8   17.16   11.66
   5 -14  -8   30.26   12.13
   5 -14   8   46.45   13.70
  -5 -14   9   24.94   10.27
   5 -14  -9    0.16    7.90
  -5 -14  -9   27.90   11.15
   5 -14  -9    3.53    3.93
   5 -14   9   19.01    9.29
  -5 -14  10   25.17    9.94
  -5 -14 -10   36.10   11.07
   5 -14 -10   33.62   12.91
   5 -14 -10   50.91   14.00
   5 -14  10   35.16   11.50
  -5 -14  11   13.54    9.82
   5 -14 -11    1.79    7.11
  -5 -14 -11    4.52    5.34
   5 -14 -11    5.00    4.08
   5 -14  11   -1.96    6.01
  -5 -14 -12    0.96    6.24
   5 -14 -12    3.93    3.59
   5 -14  12    4.04    6.14
   5 -14 -12    2.08    7.47
  -5 -15   0   -6.99    9.78
   5 -15   0    0.69    4.26
   5 -15   0    4.15    6.80
   5 -15   1   12.02    7.87
  -5 -15   1   34.45   13.07
  -5 -15  -1   16.58    8.98
   5 -15   1    7.34    8.60
   5 -15  -1    6.91    5.59
   5 -15  -1   31.11   12.73
   5 -15   2   34.86   12.77
  -5 -15   2   39.99   11.10
   5 -15   2   25.98   12.77
  -5 -15  -2   22.42   12.01
   5 -15  -2   32.10   15.03
   5 -15  -2   28.98   11.44
   5 -15   3   12.43    8.96
  -5 -15   3   11.15    8.11
   5 -15   3    3.57    6.96
  -5 -15  -3   -3.55    4.76
   5 -15  -3   13.83    6.60
   5 -15  -3   -5.23    6.24
   5 -15   4   10.78   10.48
   5 -15  -4    5.19    7.26
  -5 -15   4    6.61    3.75
   5 -15   4   16.40   12.71
  -5 -15  -4   -5.39    6.43
   5 -15  -4   -3.48    8.69
  -5 -15   5   -6.92    9.29
   5 -15   5   10.00    5.95
  -5 -15  -5   13.55    7.02
   5 -15  -5   -9.44   10.18
   5 -15  -5   -0.47    4.50
   5 -15   5    7.16    6.31
  -6   0   0 5477.44  104.38
   6   0   0 6357.24   75.40
   6   0   1   -0.62    1.14
   6   0  -1    1.18    2.52
  -6   0   1    1.49    4.29
   6   0  -2  227.87   13.77
   6   0   2  245.40   15.90
   6   0   3    4.10    3.02
   6   0  -3   -0.98    1.60
  -6   0   3    2.68    2.58
  -6   0   4 1216.96   48.60
   6   0  -4 1185.09   33.88
   6   0  -5   -0.98    1.99
  -6   0   5    2.01    2.10
   6   0   5    1.89    2.04
   6   0   6  371.00   23.20
  -6   0   6  368.00   26.64
   6   0  -6  434.14   21.13
  -6   0   7   -0.66    2.81
   6   0  -7   -1.19    1.18
  -6   0   8 2598.00   75.02
   6   0   8 2505.32   66.34
  -6   0   9   -4.67    7.04
   6   0   9    2.17    3.07
   6   0  10 2626.64   70.69
  -6   0  10 2698.59   80.24
  -6   0  10 2668.82   60.82
  -6   0  11   -1.63    2.25
   6   0  11   -0.35    2.86
  -6   0  11    1.45    2.51
   6   0  12   58.97   11.51
  -6   0  12   85.05   14.69
  -6   0  12   57.76    9.80
   6   0  13    1.85    4.65
  -6   0  13    4.30    4.56
  -6   0  13    2.01    5.03
   6   0  14 1121.35   52.75
  -6   0  14 1156.82   56.07
  -6   0  14 1241.39   49.26
   6   0  15    1.64    4.37
  -6   0  15    1.96    5.26
  -6   0  15  -13.32    5.14
   6   0  16   41.73   11.62
  -6   0  16   16.41    7.70
   6   0  17    7.13    8.65
  -6   0  17    1.41    2.90
   6   0  18   85.81   14.27
  -6   0  18   84.05   17.25
   6   0  19   -1.45    4.31
  -6   0  19    2.09    4.32
   6   0  19    7.60    7.03
   6   0  20   16.82    7.79
  -6   0  20   27.24    9.51
   6   0  20    1.02    3.85
   6   0  21   -7.24    5.76
  -6   0  21   -0.70    3.72
   6   0  21  -11.92    9.43
   6   0  22  140.83   22.23
  -6   0  22  106.39   18.60
   6   0  22  152.17   22.46
   6   0  23   -0.70    3.45
  -6   0  23   -1.86    3.02
   6   0  23   -1.06    5.61
  -6   0  24   52.62   15.27
   6   0  24   47.25   12.85
   6   0  25   -3.15    4.22
  -6   0  25    1.23    5.72
   6   0  25    1.64    4.72
   6   0  26  168.37   25.24
  -6   0  26  150.07   23.40
   6   0  26  154.67   24.31
   6   0  27    1.28    3.03
  -6   0  27   -7.81    5.25
   6   0  27  -13.18    8.25
   6   0  28   13.44    6.14
  -6   0  28   19.59   10.66
   6   0  28    4.87    8.25
   6  -1   0   45.94    7.52
   6   1   0   63.73    6.37
  -6  -1   0   66.53   11.91
  -6   1   0   33.22    7.80
   6  -1   1   95.96   10.91
   6  -1  -1  116.09   12.09
   6   1   1  118.29    8.99
  -6   1  -1   90.30   13.61
  -6   1   1   87.71   13.28
  -6  -1   1   66.05   10.55
   6   1  -1   85.71    6.50
   6   1  -2    2.02    1.18
   6  -1  -2   -1.62    2.83
   6  -1   2    4.19    2.65
  -6   1   2    0.14    2.40
  -6  -1   2    4.79    5.51
   6   1   2    2.38    1.31
   6  -1  -3    5.02    2.58
   6  -1   3   10.88    4.71
   6   1  -3    5.53    1.41
  -6   1   3    6.68    1.59
  -6  -1   3   11.74    4.69
   6   1   3    7.91    2.78
  -6  -1   4  308.00   23.60
   6   1  -4  270.77   11.51
   6   1   4  347.29   19.08
  -6   1   4  323.51   25.95
   6  -1  -4  318.37   19.72
   6  -1   4  322.63   20.93
   6  -1   5    2.34    3.32
   6   1  -5    0.34    1.38
   6  -1  -5    1.98    2.96
  -6   1   5    2.58    5.00
  -6  -1   5    0.83    4.78
   6   1   5    0.18    1.39
   6  -1  -6  269.09   18.75
   6   1   6  346.80   21.47
  -6   1   6  287.91   24.67
  -6  -1   6  331.64   25.09
   6  -1   6  313.47   22.56
   6   1  -6  273.91   13.85
   6  -1   7   32.70    8.22
   6   1  -7   38.41    5.51
   6  -1  -7   40.91    8.01
   6   1   7   60.94    9.69
  -6   1   7   40.96   11.14
  -6  -1   7   44.59    8.96
   6  -1  -8    5.47    1.76
  -6   1   8   16.11    7.39
   6   1   8   19.60    6.56
  -6  -1   8   24.56    6.72
   6  -1   8   16.56    6.99
   6   1   9   21.09    5.93
  -6   1   9   27.27    8.23
  -6  -1   9   21.58    6.82
   6  -1   9   22.55    7.80
   6   1  10   -2.05    3.57
  -6   1  10    5.21    3.72
  -6  -1  10    9.46    6.05
  -6   1  10    4.16    3.78
   6  -1  10    9.97    6.27
   6   1  11    6.50    3.91
  -6   1  11   -5.32    7.51
  -6  -1  11    0.91    4.45
  -6   1  11    5.84    3.48
   6  -1  11    4.87    4.41
   6   1  12   80.38   12.90
  -6  -1  12   70.52   12.99
  -6   1  12   47.01   10.35
  -6   1  12   63.90   11.16
   6  -1  12   54.04   11.55
   6   1  13  455.22   32.34
   6  -1  13  566.25   36.44
  -6   1  13  479.83   35.88
  -6  -1  13  507.40   35.95
  -6   1  13  454.18   30.29
   6   1  14  423.22   31.57
   6  -1  14  438.81   32.27
  -6   1  14  358.10   31.39
  -6  -1  14  458.04   34.77
  -6   1  14  412.94   29.77
   6   1  15  137.04   17.99
   6  -1  15  109.58   17.44
  -6   1  15  121.69   18.94
  -6  -1  15  118.46   17.32
  -6   1  15  108.56   16.13
   6   1  16    3.04    5.49
  -6   1  16   10.75    8.00
   6  -1  16   -4.05    3.31
  -6  -1  16    6.28    7.78
  -6   1  16    7.54    6.58
   6   1  17   65.25   13.52
   6  -1  17   31.45    9.93
  -6   1  17   56.14   13.06
  -6  -1  17   35.19   10.74
  -6   1  17   46.54   11.32
   6   1  18   18.58    8.02
   6  -1  18   19.79   10.18
  -6   1  18   16.31    9.60
  -6  -1  18    0.21    7.49
  -6   1  18   19.06    8.54
   6   1  18   38.67   11.06
   6   1  19  251.95   26.31
   6  -1  19  223.33   26.16
  -6   1  19  174.46   22.52
  -6  -1  19  187.21   25.36
   6   1  19  228.10   27.19
   6   1  20   -0.47    3.55
   6  -1  20   -1.81    3.66
  -6   1  20   -1.94    3.66
  -6  -1  20   -0.42    6.39
   6   1  20   -2.97    7.38
   6  -1  20   -3.60    5.24
   6   1  21  198.08   25.04
   6  -1  21  177.65   24.12
  -6   1  21  150.93   22.19
  -6  -1  21  199.73   26.45
   6   1  21  178.36   25.54
   6  -1  21  205.15   25.54
   6   1  22   -0.30    3.97
   6  -1  22    6.82    6.43
  -6   1  22    2.33    4.73
  -6  -1  22    5.83    8.92
   6   1  22    5.73    5.12
   6  -1  22    2.10    4.55
   6   1  23    1.44    4.92
   6  -1  23   -3.63    7.10
  -6   1  23    1.67    5.38
  -6  -1  23   11.16    7.93
   6   1  23    9.63    3.20
   6  -1  23   -3.29    5.03
   6   1  24   17.11    7.22
   6  -1  24   20.17    8.09
  -6   1  24    8.28    6.35
  -6  -1  24   17.66    9.91
   6   1  24   13.09    5.65
   6  -1  24   13.27    6.87
   6   1  25   41.24   13.00
   6  -1  25   33.99   10.68
  -6   1  25    4.91    4.61
  -6  -1  25   15.21    8.93
   6   1  25   31.27   12.44
   6  -1  25   37.21    8.19
   6   1  26   14.92    8.92
   6  -1  26   17.64    8.24
  -6   1  26   37.41   13.46
  -6  -1  26   19.02   11.13
   6   1  26   -3.26    6.28
   6  -1  26   13.92    5.89
   6   1  27    4.83    4.67
   6  -1  27   12.68    9.16
  -6   1  27   -0.88    5.61
  -6  -1  27    2.89    7.54
   6   1  27   10.15    6.22
   6  -1  27    5.45    5.41
   6   1  28    2.90    4.24
   6  -1  28    3.91    3.99
  -6   1  28    3.79    6.34
  -6  -1  28   22.83   12.53
   6   1  28   -2.25    9.06
   6  -1  28    6.17    6.20
  -6  -2   0  329.76   16.90
   6  -2   0  378.19   24.54
  -6  -2   0  310.44   22.68
  -6   2   0  347.04   27.60
  -6  -2   1  185.43   13.11
  -6  -2  -1  198.70   12.52
   6   2   1  159.18    8.47
   6  -2   1  219.51   18.64
   6  -2  -1  151.97    8.36
   6  -2  -1  178.63   17.08
  -6   2   1  208.15   21.17
  -6  -2   1  233.40   19.33
  -6  -2   2   17.74    4.27
  -6  -2  -2   16.20    3.11
   6   2   2   18.72    3.42
   6  -2  -2   13.94    5.91
  -6   2   2   16.95    5.74
  -6  -2   2   22.66    5.95
   6  -2  -2   14.27    3.02
   6  -2   2   15.47    6.01
  -6  -2  -3  646.10   22.25
   6   2   3  475.55   19.73
  -6   2   3  653.01   37.45
  -6  -2   3  729.90   35.55
   6  -2  -3  644.82   22.97
   6  -2  -3  602.64   30.93
   6  -2   3  699.24   33.21
  -6  -2   3  530.73   25.16
  -6  -2  -4 1081.29   29.79
   6   2   4 1032.48   32.09
  -6   2   4 1185.78   51.47
  -6  -2   4 1095.04   44.16
   6  -2  -4 1235.35   34.91
   6  -2  -4 1143.21   42.48
   6  -2   4 1183.57   43.59
  -6  -2   4 1355.42   42.41
  -6  -2  -5  101.58    9.59
  -6  -2   5  141.20   15.77
  -6   2   5  109.49   15.19
   6  -2   5   93.46   13.12
   6  -2  -5  118.73   13.47
   6  -2  -6  492.26   27.71
   6   2   6  552.84   26.75
  -6  -2  -6  430.10   20.14
  -6  -2   6  525.73   31.14
   6  -2   6  533.18   30.16
   6  -2  -7  715.39   34.26
  -6   2   7  701.89   39.96
  -6  -2   7  659.02   35.64
   6  -2   7  728.66   36.12
   6   2   8   78.28   11.08
   6  -2  -8   69.38   10.68
  -6   2   8   79.45   13.45
  -6  -2   8   62.52   11.10
   6  -2   8   78.18   12.65
   6  -2   9    7.28    1.88
   6   2   9   10.40    4.65
  -6   2   9    9.51    5.97
  -6  -2   9    5.73    3.71
   6   2  10  200.74   19.32
  -6   2  10  201.54   22.25
  -6  -2  10  179.08   20.29
   6  -2  10  179.33   19.15
   6   2  11  919.20   43.28
   6  -2  11 1002.27   48.16
  -6   2  11 1009.18   51.17
  -6  -2  11  931.75   46.55
  -6   2  11  934.01   42.50
   6   2  12   98.30   14.30
   6  -2  12  131.26   17.81
  -6   2  12   86.02   15.41
  -6  -2  12   98.12   15.14
  -6   2  12  125.99   16.12
   6   2  13  625.59   38.17
  -6   2  13  660.23   42.64
   6  -2  13  666.09   40.27
  -6   2  13  677.60   37.85
  -6  -2  13  617.70   39.49
   6   2  14   44.77   11.23
  -6   2  14   46.40   12.37
  -6  -2  14   43.79   11.15
   6  -2  14   38.95    8.43
  -6   2  14   35.79    9.46
   6   2  15   14.23    8.01
  -6   2  15   17.46    6.79
  -6  -2  15   21.80    8.53
   6  -2  15   11.29    7.44
  -6   2  15    9.53    5.09
   6  -2  16   93.84   16.69
   6   2  16   64.85   14.03
  -6   2  16   87.92   17.12
  -6  -2  16   66.06   12.21
  -6   2  16   80.66   13.09
   6   2  16   66.69   14.27
   6   2  17   83.84   14.67
  -6   2  17   95.61   18.35
  -6  -2  17   69.44   14.39
   6  -2  17   78.36   14.94
  -6   2  17  109.96   17.46
   6   2  17   97.75   16.50
   6   2  18  130.79   18.06
   6  -2  18  121.50   18.68
  -6   2  18  140.74   21.74
  -6  -2  18  147.92   21.72
  -6   2  18  163.41   22.22
   6   2  18  190.34   23.36
   6   2  19  119.68   17.55
  -6   2  19   83.53   17.26
  -6  -2  19   95.83   17.54
   6  -2  19   99.12   16.58
  -6   2  19   99.64   18.78
   6   2  19   71.47   15.98
   6   2  20    2.79    6.22
   6  -2  20    9.86    6.32
  -6   2  20   16.86    9.54
  -6  -2  20   10.34    6.34
   6   2  20   -2.83    5.22
  -6   2  20   -1.41    2.60
   6   2  21  106.34   17.14
  -6   2  21  123.58   21.04
   6  -2  21   84.97   16.84
  -6  -2  21   88.63   18.13
   6   2  21   70.26   15.23
  -6   2  21   75.26   14.52
   6  -2  21   79.54   15.95
   6   2  22   54.80   14.97
   6  -2  22   59.52   14.00
  -6   2  22   75.37   16.75
  -6  -2  22   75.83   16.16
   6   2  22   56.56   15.58
  -6   2  22   46.40   14.96
   6  -2  22   32.67   12.02
   6   2  23   12.24    6.88
   6  -2  23   15.81    9.12
  -6   2  23   21.47    9.66
  -6  -2  23    6.52    6.80
   6   2  23   -0.57    3.91
   6  -2  23   20.47   12.22
   6   2  24    8.59    8.14
   6  -2  24    1.09    3.15
  -6   2  24   -6.23    6.73
  -6  -2  24    5.21    3.16
   6   2  24   22.70   11.51
   6  -2  24   18.32    8.81
   6   2  25   86.50   16.78
   6  -2  25   75.11   16.78
  -6   2  25   76.32   17.71
  -6  -2  25   65.06   15.18
   6   2  25   89.77   18.83
   6  -2  25   63.34   15.33
   6   2  26    2.66    4.78
   6  -2  26    8.82    8.79
  -6   2  26   -2.03    4.67
  -6  -2  26   -4.50    6.13
   6   2  26    0.63    6.15
   6  -2  26   18.35   11.48
   6   2  27   20.01    8.33
   6  -2  27   22.71    9.78
  -6   2  27   17.19    9.06
  -6  -2  27   19.22   11.26
   6   2  27    0.96    7.15
   6  -2  27   24.37    9.57
   6   2  28   30.51   10.14
   6  -2  28   40.57   14.08
  -6   2  28   33.50   12.70
  -6  -2  28   34.71   14.53
   6   2  28   58.25   14.49
   6  -2  28   40.15   10.79
  -6  -3   0    1.24    2.58
   6  -3   0    5.44    4.38
   6  -3   0    3.54    1.83
  -6  -3   0    1.75    3.32
  -6   3   0    1.11    5.19
  -6  -3   1   45.68    7.66
  -6  -3  -1   52.48    7.70
   6  -3   1   45.23    4.36
   6  -3  -1   50.17    6.26
   6  -3   1   63.38   10.70
   6  -3  -1   56.65   11.18
  -6  -3   1   50.17    8.47
  -6   3   1   47.73    9.82
   6   3   2   10.83    2.31
  -6  -3   2    6.73    1.62
  -6  -3  -2   10.32    3.47
   6  -3  -2   18.57    4.15
  -6   3   2   20.67    8.52
  -6  -3   2   17.82    5.45
   6  -3  -2   13.87    5.50
   6  -3   2   17.52    6.22
  -6  -3   3   -0.68    1.66
   6   3   3    0.35    0.69
  -6  -3  -3    0.97    1.98
  -6   3   3    6.20    7.23
  -6  -3   3    0.33    3.67
   6  -3  -3    4.02    3.39
   6  -3   3    1.77    4.08
   6  -3  -3    3.18    1.63
  -6  -3   4  726.85   33.10
   6  -3   4  760.81   37.92
  -6  -3  -4  639.02   28.81
   6  -3  -4  723.02   28.66
  -6   3   4  757.65   42.28
  -6  -3   4  827.14   36.70
   6  -3  -4  644.43   35.50
   6   3   4  706.20   24.80
  -6  -3   5   69.31   10.55
   6   3   5   82.48    9.36
  -6  -3  -5   77.82    9.52
  -6   3   5   98.61   15.79
  -6  -3   5   79.00   11.97
   6  -3  -5   87.21   10.46
   6  -3   5   91.05   13.42
   6  -3  -5   80.51   12.55
  -6  -3   6    5.23    3.39
   6  -3  -6   16.95    5.58
   6   3   6    8.30    3.51
  -6  -3  -6    6.03    3.49
   6  -3   6    8.06    4.32
  -6   3   6   12.76    4.96
  -6  -3   6    8.36    2.84
   6  -3  -6   17.49    6.05
   6   3   7  485.84   25.86
   6  -3  -7  382.24   26.81
  -6  -3  -7  346.20   21.40
  -6   3   7  381.80   29.86
  -6  -3   7  466.29   29.27
   6  -3   7  395.61   27.74
  -6  -3   7  372.32   26.55
   6   3   8  169.71   16.37
  -6  -3  -8  218.57   18.07
   6  -3  -8  172.29   18.50
  -6   3   8  162.02   19.07
  -6  -3   8  150.04   17.64
   6  -3   8  176.91   18.43
  -6  -3   8  195.06   19.53
   6  -3   9    1.16    4.81
   6  -3  -9    2.37    3.59
   6   3   9    0.72    2.49
  -6  -3  -9    1.66    5.22
  -6   3   9    3.66    5.44
  -6  -3   9   -0.93    2.84
   6   3  10  170.59   17.39
  -6  -3 -10  148.88   16.98
  -6   3  10  159.83   20.16
  -6  -3  10  155.16   18.23
   6  -3  10  164.80   19.32
   6  -3  11    5.86    4.70
  -6  -3 -11   -1.63    3.09
  -6   3  11    3.43    2.24
  -6  -3  11    4.06    5.70
   6   3  12  269.76   23.32
  -6   3  12  219.55   24.33
   6  -3  12  272.08   26.26
  -6  -3  12  244.34   24.32
  -6   3  12  238.64   23.09
   6  -3  13   42.60   10.33
   6   3  13   29.55    5.24
  -6   3  13   43.42   12.24
  -6  -3  13   32.53    8.48
  -6   3  13   35.20    9.19
   6   3  14   39.98   11.16
  -6   3  14   40.05   11.92
  -6  -3  14   43.51   11.47
  -6   3  14   34.45   10.11
   6  -3  14   35.24   10.64
   6   3  14   39.98   10.13
   6   3  15   24.03    7.87
  -6   3  15   16.51    9.33
  -6  -3  15   34.62    9.49
  -6   3  15   26.83    8.98
   6  -3  15   16.06    5.08
   6   3  15   25.60    7.28
   6   3  16  343.54   29.67
   6  -3  16  306.72   29.01
  -6   3  16  322.57   31.58
  -6  -3  16  327.78   30.70
  -6   3  16  286.87   27.68
   6   3  16  344.74   30.47
   6   3  17   17.41    6.15
  -6   3  17    1.55    5.15
  -6  -3  17    3.97    2.89
   6  -3  17    4.33    5.22
  -6   3  17    8.97    4.20
   6   3  17    4.35    7.73
   6   3  18  262.99   27.37
   6  -3  18  164.11   22.72
  -6   3  18  218.67   26.26
  -6  -3  18  227.85   26.42
  -6   3  18  235.10   26.32
   6   3  18  218.72   24.98
   6   3  19  189.16   23.18
   6  -3  19  210.30   24.63
  -6   3  19  201.06   26.11
  -6  -3  19  237.77   27.45
  -6   3  19  174.10   22.83
   6   3  19  252.32   27.44
   6   3  20    9.12    4.32
  -6   3  20   13.28    6.96
  -6  -3  20   38.59   12.69
   6  -3  20   22.72    9.55
  -6   3  20   29.90   10.69
   6   3  20   11.24    4.25
   6   3  21   11.73    8.08
  -6   3  21   27.68   10.99
   6  -3  21    9.66    7.88
  -6  -3  21   11.62    7.33
   6   3  21   23.07    7.90
  -6   3  21   13.56    8.36
   6   3  22  104.12   18.92
   6  -3  22   72.57   15.65
  -6   3  22   77.47   17.16
  -6  -3  22   64.81   16.26
   6   3  22   95.07   18.71
  -6   3  22   58.26   13.92
   6  -3  22   91.16   18.61
   6   3  23   21.19    8.82
   6  -3  23   15.21    7.31
  -6   3  23   13.13    9.63
  -6  -3  23    7.85    9.38
   6   3  23   25.02   10.94
  -6   3  23   19.45    8.31
   6  -3  23   23.59    5.71
   6   3  24   11.59    5.75
   6  -3  24   37.33   12.23
  -6   3  24   28.64   11.58
  -6  -3  24   19.05    8.84
   6   3  24    8.65    7.38
  -6   3  24   16.60   10.29
   6  -3  24    1.43    3.45
   6   3  25   -2.29    5.36
   6  -3  25   -2.28    5.95
  -6   3  25    2.29    4.96
  -6  -3  25    5.52    6.89
   6   3  25    2.51    5.37
  -6   3  25   -6.23    4.91
   6  -3  25   -2.62    4.87
   6   3  26    0.66    4.76
   6  -3  26   -3.88    5.58
  -6   3  26   13.12    8.36
  -6  -3  26    5.35    5.57
   6   3  26    5.02    4.26
   6  -3  26   -3.16    3.89
   6   3  27    9.04    7.69
   6  -3  27   17.36    7.15
  -6   3  27   12.43    8.45
  -6  -3  27   -8.00    5.09
   6   3  27   -0.03    8.81
   6  -3  27   -0.63    9.91
   6   3  28   17.26    4.61
   6  -3  28   16.98    7.26
  -6   3  28   34.80   12.48
  -6  -3  28   24.58   14.08
   6   3  28   16.63    9.11
   6  -3  28   -0.98    5.70
  -6  -4   0  135.98   14.77
   6  -4   0  132.42   11.17
   6  -4   0  149.39   17.71
  -6   4   0  139.17   18.09
  -6  -4   1  161.71   16.37
  -6  -4  -1  121.63   13.71
   6  -4   1  138.56   10.98
   6  -4  -1  129.40   11.34
   6  -4   1  141.71   17.74
  -6   4   1  172.06   20.58
  -6  -4   1  132.15   13.86
   6  -4  -1  100.79   15.42
   6  -4   2   11.09    5.98
  -6  -4   2    7.81    4.46
   6  -4   2    3.24    1.36
  -6  -4  -2    3.81    1.48
   6  -4  -2   11.92    4.73
  -6   4   2    8.01    2.39
  -6  -4   2   11.61    3.71
   6   4   2    5.78    2.21
   6  -4  -2    1.64    2.09
  -6  -4   3   77.45   11.60
   6  -4   3   67.96    7.43
  -6  -4  -3   87.16   11.69
   6  -4   3   88.58   13.68
   6  -4  -3   72.55    9.24
  -6   4   3   81.95   13.99
  -6  -4   3   79.05   11.21
   6  -4  -3   96.08   14.90
   6   4   3   70.15    7.28
   6   4   4   20.37    4.74
   6  -4   4   19.66    3.98
  -6  -4   4   17.92    5.41
  -6  -4  -4    9.34    4.34
   6  -4  -4   19.93    7.42
  -6   4   4   17.84    6.92
   6  -4  -4   17.81    4.99
  -6  -4   4   13.18    4.65
   6  -4   4   23.20    6.59
   6  -4   5   -1.60    2.47
   6   4   5    6.71    3.26
  -6  -4   5    7.44    5.36
  -6  -4  -5    8.26    3.45
  -6   4   5    2.53    4.82
  -6  -4   5   12.86    6.57
   6  -4  -5    7.77    4.26
   6  -4   5   10.68    5.46
   6  -4  -5   14.98    6.81
   6  -4   6   -0.13    2.28
   6  -4  -6   -0.32    2.74
  -6  -4   6    1.23    2.05
   6   4   6    2.20    2.62
  -6  -4  -6   -1.56    3.42
   6  -4   6    4.32    2.20
  -6   4   6   -2.42    3.24
  -6  -4   6    1.18    2.53
   6  -4  -6    4.00    4.48
  -6  -4   7  360.75   26.76
   6  -4  -7  362.59   28.05
  -6  -4  -7  380.19   25.02
  -6   4   7  425.92   32.70
   6  -4  -7  404.34   26.52
  -6  -4   7  450.83   28.89
   6  -4   7  396.37   28.82
   6   4   7  443.73   25.72
  -6  -4   8  785.04   41.42
   6  -4  -8  791.87   41.25
  -6   4   8  835.15   45.77
   6  -4  -8  780.18   38.04
  -6  -4   8  851.60   42.17
   6  -4   8  715.70   39.24
   6   4   8  746.73   34.68
  -6  -4  -9  141.75   16.47
   6  -4  -9  151.98   18.27
  -6   4   9  106.31   16.88
   6  -4  -9  165.89   17.73
  -6  -4   9  103.22   15.01
   6  -4   9  137.97   18.25
   6   4   9  107.32   13.62
  -6  -4   9  188.03   21.18
  -6  -4 -10  250.06   22.23
  -6   4  10  295.94   28.44
  -6  -4  10  243.48   22.66
   6  -4 -10  290.72   24.83
   6  -4  10  295.56   25.31
   6   4  10  298.38   22.90
  -6  -4  10  345.90   28.98
   6  -4  11    8.46    2.79
   6   4  11   19.56    6.24
  -6  -4 -11   16.87    6.64
  -6   4  11   21.51    6.81
  -6  -4  11    9.02    4.55
   6  -4  12   19.63    7.66
   6   4  12   15.47    5.64
  -6  -4 -12   26.84    9.00
  -6   4  12   26.84    9.05
  -6  -4  12    8.26    4.38
   6   4  12   22.84    6.76
   6  -4  13   44.14   11.51
   6   4  13   43.55   10.37
  -6  -4 -13   35.00    9.79
  -6   4  13   30.96   10.66
  -6  -4  13   47.94   11.59
  -6   4  13   33.63    8.62
   6   4  13   29.41    8.77
   6  -4  14   36.12   11.22
   6   4  14   51.13   11.13
  -6   4  14   30.60   10.94
  -6  -4  14   40.82   10.17
  -6   4  14   34.00    8.92
   6   4  14   47.99   11.62
   6   4  15  257.46   25.55
   6  -4  15  262.13   26.76
  -6   4  15  242.09   28.52
  -6  -4  15  248.57   26.38
  -6   4  15  276.80   26.80
   6   4  15  232.37   24.16
   6   4  16   57.68   12.18
  -6   4  16   73.49   16.09
  -6  -4  16   59.73   13.55
  -6   4  16   50.38   11.15
   6   4  16   67.85   13.26
   6  -4  16   62.36   13.06
   6   4  17   61.41   12.75
  -6   4  17   55.10   13.26
  -6  -4  17   72.81   15.65
  -6   4  17   35.32   10.06
   6  -4  17   82.81   16.05
   6   4  17   52.59   11.62
   6   4  18  193.51   23.20
   6  -4  18  160.39   22.39
  -6   4  18  162.30   22.79
  -6  -4  18  113.79   19.06
  -6   4  18  202.76   24.94
   6   4  18  225.45   24.49
   6   4  19   47.26   12.68
  -6   4  19   35.78   14.23
  -6  -4  19   43.11   11.57
   6  -4  19   55.22   11.91
  -6   4  19   26.02    8.29
   6   4  19   43.55   11.80
   6   4  20   -3.21    6.38
  -6   4  20   -5.49    4.39
  -6  -4  20   -5.39    7.48
   6  -4  20   -5.16    3.92
  -6   4  20    3.59    2.77
   6   4  20    6.89    6.24
   6   4  21   44.32   10.82
  -6   4  21   48.57   14.35
  -6  -4  21   60.69   15.39
   6  -4  21   38.98   11.38
  -6   4  21   24.00   11.81
   6   4  21   49.78   14.32
   6   4  22   92.67   16.45
  -6   4  22   49.34   13.37
   6  -4  22   55.07   14.22
  -6  -4  22   31.75   10.35
  -6   4  22   83.09   16.86
   6   4  22   80.10   16.71
   6   4  23   21.47    7.88
  -6   4  23   72.34   14.77
   6  -4  23   52.07   12.59
  -6  -4  23   45.01   14.21
  -6   4  23   36.29   12.52
   6  -4  23   73.92   17.93
   6   4  24   16.86   10.24
  -6   4  24  -12.08    4.28
   6  -4  24   -6.60    6.54
  -6  -4  24   -9.40    7.79
  -6   4  24   12.37    7.31
   6  -4  24    3.10    6.81
   6   4  25   52.87   14.18
   6  -4  25   59.73   15.32
  -6   4  25   65.88   16.04
  -6  -4  25   42.70   16.75
  -6   4  25   18.76   10.71
   6  -4  25   77.34   17.34
   6   4  26   15.85    6.92
   6  -4  26   26.42   10.15
  -6   4  26   10.45    9.26
  -6  -4  26   18.25   11.80
  -6   4  26   18.85   10.51
   6  -4  26   32.39   16.04
   6   4  27   36.45   10.25
   6  -4  27   49.95   14.07
  -6   4  27   50.86   13.21
  -6  -4  27   29.94   12.18
   6  -4  27   17.96   10.52
  -6  -5   0    0.92    2.97
   6  -5   0   -0.63    2.39
   6  -5   0    1.69    5.15
  -6  -5   1  239.16   21.24
  -6  -5  -1  265.26   22.73
   6  -5   1  271.14   18.44
   6  -5  -1  296.02   20.08
   6  -5   1  266.53   25.75
  -6   5   1  239.11   24.90
   6  -5  -1  250.54   24.38
   6  -5   2   52.77   10.74
  -6  -5   2   50.85    9.66
   6  -5   2   38.25    6.14
   6  -5  -2   50.98    8.60
  -6  -5  -2   31.95    8.13
  -6   5   2   73.62   14.47
   6  -5  -2   43.02   10.51
   6  -5  -3    1.62    2.18
  -6  -5   3    2.65    4.22
   6  -5   3   -1.35    2.77
  -6  -5  -3    5.27    5.90
   6  -5  -3   -0.81    1.72
  -6   5   3   -0.94    4.97
   6   5   3    2.67    1.51
   6  -5   3   -5.13    3.98
  -6  -5   4    0.64    5.00
   6  -5   4   -1.17    2.33
  -6  -5  -4    5.14    3.52
   6  -5  -4   -0.88    3.63
   6  -5  -4    0.29    1.48
  -6   5   4   -4.56    5.38
  -6  -5   4   13.71    6.51
   6  -5   4    0.74    2.40
   6   5   4    1.03    2.63
  -6  -5   5  322.76   26.19
   6  -5   5  255.92   17.65
   6  -5   5  322.61   27.69
  -6  -5  -5  322.19   25.02
   6  -5  -5  348.10   24.58
  -6   5   5  322.11   28.15
  -6  -5   5  365.03   23.47
   6   5   5  319.88   19.63
   6  -5  -5  336.47   28.55
   6  -5   6  123.11   12.04
  -6  -5   6  128.33   16.64
   6  -5   6  148.19   18.14
   6  -5  -6  139.47   18.33
  -6  -5  -6  108.50   15.14
   6  -5  -6  149.43   16.56
  -6   5   6  118.83   17.67
  -6  -5   6  164.88   16.85
   6   5   6  126.76   13.18
   6  -5   7  169.54   14.47
  -6  -5   7  151.30   18.66
   6  -5  -7  163.51   19.18
  -6  -5  -7  160.53   18.27
   6  -5  -7  183.67   18.60
  -6   5   7  172.15   20.83
  -6  -5   7  164.16   17.20
   6   5   7  171.40   16.25
   6  -5   7  197.64   21.39
   6   5   8   15.93    5.59
  -6  -5   8   10.61    3.92
  -6  -5  -8   13.74    5.19
   6  -5   8   14.34    7.01
  -6   5   8   16.67    6.99
   6  -5  -8   11.59    5.46
  -6  -5   8   21.73    6.74
   6  -5  -8   17.05    6.95
  -6  -5   9  179.89   19.72
  -6  -5  -9  141.56   17.59
   6  -5  -9  196.73   22.04
   6  -5  -9  218.22   22.07
  -6   5   9  145.84   20.19
  -6  -5   9  171.24   18.59
   6  -5   9  194.24   21.61
   6   5   9  159.30   17.50
  -6  -5  10   28.11    7.67
   6   5  10   16.91    5.63
   6  -5 -10   16.66    7.84
   6  -5  10   20.02    7.55
  -6  -5 -10    5.70    2.33
   6  -5 -10   11.08    5.90
  -6  -5  10   22.16    6.85
  -6   5  10   16.57    7.04
  -6  -5  11   10.71    7.45
   6   5  11   23.00    6.64
   6  -5  11   24.79    7.83
  -6  -5 -11   14.62    6.62
  -6   5  11   19.79    9.16
   6  -5 -11   20.29    7.86
  -6  -5  11    8.90    3.57
  -6  -5  12   36.08    8.68
   6   5  12   37.13    9.99
   6  -5  12   36.72    9.97
  -6  -5 -12   29.69    8.20
  -6   5  12   37.67    9.85
   6  -5 -12   39.64    9.44
  -6  -5  12   30.90    8.09
  -6  -5 -13  159.35   20.53
  -6   5  13  255.88   26.79
   6  -5 -13  234.10   24.76
  -6  -5  13  210.58   22.88
   6  -5  13  222.59   24.08
   6   5  13  228.28   23.41
  -6  -5  13  222.35   25.62
   6  -5  14   33.31   10.52
   6   5  14   60.15   12.77
  -6  -5 -14   90.72   17.17
  -6   5  14   43.36   11.92
   6  -5 -14   48.69   11.88
  -6  -5  14   69.91   14.36
   6  -5  15   32.20    9.97
   6   5  15   21.00    7.50
  -6   5  15   37.01    9.35
   6  -5 -15   28.11    9.36
  -6  -5  15   20.65    9.25
  -6   5  15   31.84    9.59
   6  -5  16   16.90    8.47
   6   5  16   31.88   11.19
  -6   5  16    4.57    7.77
   6  -5 -16   20.67    9.68
  -6  -5  16    6.05    3.81
  -6   5  16   18.04    9.12
   6   5  17   -1.39    3.30
  -6   5  17    5.77    6.92
  -6  -5  17    8.38    8.06
  -6   5  17    8.47    6.45
   6  -5  17    4.27    3.95
  -6   5  18  190.50   26.33
  -6  -5  18  206.13   25.12
   6  -5  18  205.70   26.66
  -6   5  18  249.13   28.25
   6   5  18  200.58   25.17
   6   5  19   64.43   14.06
  -6   5  19   58.66   14.06
  -6  -5  19   22.73    8.37
  -6   5  19   46.13   12.60
   6  -5  19   44.68   11.62
   6   5  20    2.11    6.05
  -6   5  20    3.53    3.49
  -6  -5  20   -4.46    4.63
   6  -5  20   15.08    6.81
  -6   5  20   -2.04    4.16
   6   5  21   33.46   10.58
  -6   5  21   53.74   15.28
  -6  -5  21   41.12   12.43
   6  -5  21   52.72   14.22
  -6   5  21   59.67   16.27
   6   5  22   -9.35    6.79
  -6   5  22   -2.16    4.73
  -6  -5  22   -5.03    5.89
   6  -5  22    1.79    4.49
  -6   5  22    3.89    3.66
   6   5  23   24.69   10.22
  -6   5  23   10.38    7.73
  -6  -5  23   14.35    7.45
   6  -5  23   17.24    8.90
  -6   5  23   11.40    5.43
   6  -5  23    9.77    7.03
   6   5  24   93.51   18.39
  -6   5  24  119.87   22.04
   6  -5  24   82.60   16.12
  -6  -5  24  107.78   21.47
   6  -5  24  169.48   25.10
  -6   5  24  110.39   18.90
   6   5  25   11.69    9.47
  -6   5  25   27.89   14.05
   6  -5  25   20.02   10.15
  -6  -5  25   38.72   15.17
  -6   5  25   31.30   10.78
   6  -5  25   23.89   12.23
   6   5  26   -1.73    7.90
  -6   5  26   -4.65    5.45
   6  -5  26   11.77    8.43
  -6  -5  26    8.42    7.42
  -6   5  26   -0.27    3.92
   6  -5  26    3.83    6.37
   6   5  27    7.06    8.36
   6  -5  27   -8.53    8.75
  -6   5  27   -0.28    5.70
  -6  -5  27    9.80   12.08
  -6   5  27   -0.37    6.17
   6  -5  27    7.55    7.03
  -6  -6   0    3.02    5.76
   6  -6   0   -1.52    3.01
   6  -6   0    4.78    6.23
  -6  -6   1  240.51   22.78
  -6  -6  -1  233.45   23.03
   6  -6   1  231.43   19.39
   6  -6  -1  229.21   19.74
   6  -6   1  251.42   26.14
  -6   6   1  225.28   24.35
   6  -6  -1  204.40   23.11
  -6  -6   2   10.93    4.96
   6  -6   2   16.80    7.41
   6  -6   2   24.31    6.76
  -6  -6  -2   12.24    6.91
   6  -6  -2   18.74    6.69
  -6   6   2    9.26    5.62
   6  -6  -2   19.65    9.94
   6  -6   3   22.18    7.14
   6  -6  -3    4.76    5.95
  -6  -6   3   26.99    8.44
   6  -6   3   11.56    3.39
  -6  -6  -3   22.58    6.54
   6  -6  -3   18.72    6.18
  -6   6   3    7.76    5.08
  -6  -6   4  889.42   45.98
   6  -6   4  852.18   36.87
  -6  -6  -4  950.60   45.88
   6  -6   4  949.42   50.18
   6  -6  -4  981.22   42.92
  -6   6   4 1029.12   52.84
   6  -6  -4  915.01   49.27
   6  -6   5   60.64    9.33
  -6  -6   5   65.06   11.99
   6  -6   5   70.17   15.23
   6  -6  -5   93.18   13.27
  -6  -6  -5   68.91   11.82
   6  -6  -5   73.94   13.18
  -6   6   5   71.58   13.62
   6   6   5   88.27   10.34
  -6  -6   6   34.78   10.07
   6  -6   6   25.08    6.87
  -6  -6  -6   50.35    9.93
  -6   6   6   26.48    9.48
   6  -6  -6   32.88    8.78
   6  -6   6   30.09   10.39
   6  -6  -6   49.53   11.05
   6   6   6   35.40    6.99
   6  -6   7  283.25   21.63
  -6  -6   7  261.62   25.22
   6  -6   7  254.71   26.61
   6  -6  -7  301.92   27.73
  -6  -6  -7  289.16   26.19
   6  -6  -7  238.12   22.20
  -6   6   7  262.43   27.10
   6   6   7  189.25   17.93
  -6  -6   8   18.02    6.04
  -6  -6  -8   22.17    4.00
   6  -6  -8   24.30    9.99
   6  -6   8   29.01   10.37
   6  -6  -8    5.07    4.09
  -6   6   8   11.95    8.34
   6   6   8   18.11    5.60
   6   6   9    7.48    3.88
  -6  -6   9   10.22    6.19
  -6  -6  -9    5.58    3.59
   6  -6   9    8.16    6.58
  -6   6   9   11.91    5.17
   6  -6  -9   13.05    6.12
   6  -6  -9    0.67    4.56
  -6  -6  10   60.42   12.31
   6  -6 -10   88.70   15.36
  -6  -6 -10   69.69   13.18
  -6   6  10   75.61   15.46
   6  -6 -10   70.49   12.99
   6   6  10   99.20   13.74
   6  -6  10   95.31   16.37
  -6  -6  11  300.85   29.03
  -6  -6 -11  294.63   27.30
   6  -6 -11  304.04   28.35
  -6   6  11  357.86   31.76
   6   6  11  312.68   25.87
   6  -6  11  284.21   27.83
  -6  -6  12  126.38   19.57
  -6  -6 -12  124.98   18.66
   6  -6 -12  168.97   21.47
  -6   6  12  160.17   21.76
   6  -6 -12  153.64   20.33
   6  -6  12  154.80   20.57
   6   6  12  148.00   18.75
  -6  -6  13   29.37   11.70
   6   6  13   38.59    9.97
   6  -6  13   32.08    9.94
  -6  -6 -13   43.05   10.68
  -6   6  13   25.27   11.03
   6  -6 -13   45.37   12.33
  -6  -6 -14  448.92   35.36
  -6   6  14  437.04   36.54
   6  -6 -14  485.83   37.55
   6  -6  14  463.91   37.05
   6   6  14  473.26   35.12
  -6  -6  14  479.78   38.50
  -6  -6 -15  154.15   23.01
  -6   6  15  124.14   19.03
   6  -6 -15  135.34   20.45
  -6  -6  15  170.28   23.72
   6  -6  15  118.32   19.91
   6   6  15  123.08   19.43
  -6  -6  15  170.29   23.60
   6  -6  16   47.23   12.13
   6   6  16   51.99   11.74
  -6  -6  16   83.06   18.00
  -6   6  16   48.26   13.07
   6  -6 -16   43.56   12.54
   6  -6  17   21.66    5.49
   6   6  17   29.73    9.00
  -6   6  17   15.71    7.59
   6  -6 -17   25.82    7.86
  -6   6  17   29.33    8.49
  -6  -6  17   35.09    9.92
   6   6  18  106.07   16.53
   6  -6  18  120.96   20.03
   6  -6 -18   98.56   18.76
  -6   6  18   91.66   16.96
  -6   6  18  113.67   18.66
  -6  -6  18   98.95   17.77
   6   6  19   34.29   12.19
  -6   6  19   18.46    8.78
   6  -6 -19   23.65    8.86
  -6  -6  19   44.92   15.17
  -6   6  19   19.62    8.31
   6  -6  19   39.22   10.23
   6   6  20   10.83    6.32
  -6   6  20   32.37   10.75
   6  -6 -20   21.07   10.67
  -6  -6  20   11.83    9.32
  -6   6  20   14.70    8.60
   6  -6  20    6.26    6.36
   6   6  21   35.90   11.95
  -6   6  21   19.36    6.43
   6  -6 -21   19.95    6.14
  -6  -6  21   18.38    7.35
  -6   6  21   21.40    9.18
   6  -6  21   15.87    7.01
   6   6  22   95.21   17.79
  -6   6  22   80.78   17.68
   6  -6 -22   88.01   18.79
  -6  -6  22   88.27   18.53
   6  -6  22   79.25   16.00
  -6   6  22   67.95   15.26
   6   6  23   36.21   11.50
  -6   6  23   50.52   12.27
   6  -6 -23   37.73   14.18
  -6  -6  23   27.61   12.22
   6  -6  23   70.07   15.63
  -6   6  23   16.43    8.33
   6  -6  24  106.37   20.83
  -6   6  24   91.91   17.61
   6  -6 -24   88.23   20.36
  -6  -6  24   69.03   17.36
  -6   6  24   85.72   19.42
   6   6  24  112.11   21.15
   6  -6  24   59.67   16.27
  -6   6  25   63.90   15.38
   6  -6 -25   72.66   16.85
   6  -6  25   87.12   18.52
  -6  -6  25   66.54   17.75
  -6   6  25   70.68   16.61
   6  -6  25  127.76   22.78
   6   6  25  124.01   22.41
   6   6  26   86.27   17.36
   6  -6 -26  135.10   23.65
  -6   6  26  123.73   21.73
   6  -6  26  103.75   19.37
  -6  -6  26  102.70   21.20
  -6   6  26   94.80   19.37
   6  -6  26  122.07   22.80
  -6  -7   0  234.86   24.74
   6  -7   0  224.66   21.28
   6  -7   0  239.95   26.93
  -6  -7   1  177.09   21.17
  -6  -7  -1  143.54   18.59
   6  -7   1  153.72   17.52
   6  -7  -1  153.87   17.86
   6  -7   1  150.62   20.35
   6  -7  -1  189.05   22.98
  -6  -7   2  308.35   28.03
   6  -7   2  252.18   22.24
  -6  -7  -2  289.74   27.17
   6  -7  -2  287.42   24.32
   6  -7   2  276.26   28.93
  -6   7   2  308.57   29.92
   6  -7  -2  245.52   27.56
  -6  -7   3  111.57   17.17
   6  -7   3   99.67   14.08
  -6  -7  -3  102.72   16.52
   6  -7  -3  115.34   15.61
   6  -7   3  123.69   18.73
  -6   7   3  131.81   18.71
   6  -7  -3  117.07   18.95
   6  -7   4    9.07    7.12
  -6  -7   4   -2.36    2.21
   6  -7   4   -1.57    3.17
   6  -7  -4    3.88    4.71
  -6  -7  -4   -1.83    6.15
   6  -7  -4    2.71    4.04
  -6   7   4   -0.82    8.30
  -6  -7   5   24.85    7.99
   6  -7   5   35.91    8.05
  -6  -7  -5   14.51    5.90
   6  -7  -5   29.38    8.75
   6  -7  -5   27.69    7.33
  -6   7   5   30.67   11.10
   6  -7   5   32.60   10.30
  -6  -7   6    8.68    6.94
   6  -7   6    5.40    2.69
  -6  -7  -6   10.67    6.78
   6  -7  -6    7.51    4.20
  -6   7   6    8.99    8.65
   6  -7  -6   -0.37    7.60
   6  -7   6   10.95    5.02
  -6  -7   7    4.33    4.53
   6  -7   7    0.02    3.11
  -6  -7  -7    4.31    6.19
   6  -7  -7   -2.83    1.87
  -6   7   7   -5.40    6.35
   6  -7   7    0.70    2.70
   6  -7  -7    4.18    4.41
  -6  -7   8    0.02    5.08
   6  -7  -8   -0.59    4.60
  -6  -7  -8    7.68    6.39
  -6   7   8   -2.52    3.94
   6  -7  -8   -0.40    2.39
   6  -7   8   -7.20    6.15
   6   7   8    2.94    2.71
  -6  -7   9   16.97    7.44
  -6  -7  -9   13.37    6.08
   6  -7   9   14.11    7.72
   6  -7  -9   14.56    9.09
  -6   7   9   13.26    7.61
   6  -7  -9   14.78    6.41
   6   7   9   10.68    3.31
  -6  -7  10   81.49   15.33
   6  -7 -10   89.83   16.66
  -6  -7 -10   81.27   14.58
   6  -7  10   82.12   14.88
  -6   7  10  143.30   21.29
   6  -7 -10   77.15   14.77
   6   7  10   94.24   14.42
  -6  -7  11   -2.71    4.13
   6  -7  11    6.38    5.88
   6  -7 -11   -2.13    6.22
  -6  -7 -11    1.36    4.55
  -6   7  11   -1.33    2.86
   6  -7 -11    1.02    5.66
   6   7  11   -1.13    7.14
   6   7  12   17.13    6.74
   6  -7 -12    8.41    4.54
  -6  -7  12   15.08    6.68
   6  -7  12   34.49   10.18
  -6  -7 -12   17.64    5.67
  -6   7  12    5.52    6.97
   6  -7 -12   16.33    8.08
   6   7  13   13.33    7.55
  -6  -7  13   11.87    8.35
   6  -7  13   21.07   12.18
   6  -7 -13    5.30    4.36
  -6  -7 -13    3.23    4.00
  -6   7  13   21.20    6.71
   6  -7 -13   18.94    8.70
   6   7  14   59.30   13.27
  -6  -7  14   56.68   14.40
   6  -7 -14  100.81   17.01
  -6  -7 -14   60.52   14.03
  -6   7  14   66.25   15.49
   6  -7  14   84.33   17.46
   6   7  15   19.33    8.26
  -6  -7  15   17.87    7.62
   6  -7  15   15.94   10.20
  -6  -7 -15   17.21    6.48
  -6   7  15   18.82    7.32
   6  -7 -15   23.24    9.70
  -6  -7  16   12.59    8.20
   6   7  16   18.86   10.97
   6  -7  16    4.41    2.71
  -6  -7 -16   33.93   12.93
  -6   7  16    7.77    6.53
   6  -7 -16   17.13    9.34
   6   7  17    0.28    4.16
   6  -7  17   20.28    9.45
  -6   7  17   23.61    6.22
   6  -7 -17    2.99    4.23
   6  -7  18   45.57   11.47
   6   7  18   29.33   10.02
  -6   7  18   26.71    8.91
   6  -7 -18   49.04   10.92
   6  -7  19   -1.77    4.36
   6   7  19   11.74    7.49
  -6   7  19    6.61    5.22
   6  -7 -19   -2.94    7.79
  -6   7  19    2.79    4.59
   6   7  20   13.20    8.32
  -6   7  20   10.98    5.11
   6  -7 -20    5.44    6.09
  -6   7  20   14.91    7.93
   6  -7  20    4.82    3.17
   6   7  21    0.96    6.09
  -6   7  21    3.46    5.79
   6  -7 -21    1.11    6.19
  -6   7  21    0.14    4.46
   6  -7  21    5.20    7.89
   6   7  22   19.98    3.51
  -6   7  22   32.70    9.59
   6  -7 -22   30.97   10.70
  -6   7  22   22.20   10.28
   6  -7  22   19.81    9.70
   6   7  23    1.50    7.26
  -6   7  23   -2.99    5.42
   6  -7 -23    4.09    4.63
  -6   7  23   -1.47    5.25
   6  -7  23  -11.18    9.60
   6   7  24   -8.59    9.14
  -6   7  24   -4.50    3.77
   6  -7 -24    4.06    3.79
   6  -7  24   -0.69    3.73
  -6   7  24   -5.33    4.66
   6  -7  24    8.54    8.70
   6   7  25    8.96    8.47
  -6   7  25   -3.50    7.52
   6  -7 -25    3.23    3.57
   6  -7  25   -1.03    4.70
  -6   7  25   -6.37    9.55
   6  -7  25    2.33    5.14
  -6  -8   0    9.80    6.66
   6  -8   0    3.85    2.52
   6  -8   0   10.49    7.01
  -6  -8   1   16.42    8.45
  -6  -8  -1   16.65    5.78
   6  -8   1   14.73    7.40
   6  -8  -1   20.06    7.79
   6  -8   1    2.49    4.56
   6  -8  -1   11.58    5.08
  -6  -8   2   18.55    8.87
   6  -8   2   25.26   11.40
   6  -8   2   38.15    9.68
  -6  -8  -2   34.50   10.52
   6  -8  -2   28.47    7.62
   6  -8  -2   45.09   12.65
  -6  -8   3  267.42   28.26
   6  -8   3  240.68   23.90
  -6  -8  -3  289.92   28.25
   6  -8  -3  294.59   27.03
   6  -8   3  262.62   28.95
  -6   8   3  264.55   28.68
   6  -8  -3  249.12   27.43
   6  -8   4   70.12   12.88
  -6  -8  -4   82.41   15.57
   6  -8  -4   80.64   15.18
  -6  -8   4   65.70   13.90
   6  -8   4   82.32   16.90
   6  -8  -4   44.91   10.62
  -6   8   4   58.65   13.19
  -6  -8   5  257.09   27.15
   6  -8   5  232.02   23.06
  -6  -8  -5  227.11   26.42
   6  -8   5  302.90   31.14
   6  -8  -5  271.41   27.25
  -6   8   5  305.20   30.34
   6  -8  -5  221.63   25.99
  -6  -8   6    1.66    4.20
   6  -8   6    1.44    2.50
  -6   8   6    3.72    6.79
  -6  -8  -6   -2.17    2.18
   6  -8  -6    3.93    5.40
   6  -8  -6    0.45    5.63
   6  -8   6    0.46    3.26
   6  -8  -7  593.55   42.78
  -6  -8   7  522.40   39.19
   6  -8   7  490.03   37.84
  -6  -8  -7  556.38   40.35
   6  -8  -7  573.70   38.92
  -6   8   7  502.24   39.11
   6  -8  -8    0.89    6.45
  -6  -8   8   14.62    9.51
  -6  -8  -8    4.04    4.98
   6  -8  -8   -4.25    3.53
  -6   8   8    6.49    6.36
   6  -8   8    5.15    8.07
  -6  -8   9   36.67   10.67
   6  -8  -9   40.63   11.30
  -6  -8  -9   27.07    6.05
   6  -8  -9   35.53    9.20
  -6   8   9   41.68   12.01
   6  -8   9   30.56    9.24
  -6  -8  10   18.94    7.47
   6  -8  10   22.78    7.98
  -6  -8 -10   24.70    9.20
   6  -8 -10   47.17   13.16
  -6   8  10   27.31    6.30
   6  -8 -10   32.80    9.66
  -6  -8  11  233.79   26.86
  -6  -8 -11  254.07   27.89
   6  -8 -11  242.93   27.05
   6  -8 -11  265.99   28.15
  -6   8  11  244.98   27.89
   6  -8  11  244.62   26.73
  -6  -8  12   15.88    9.64
   6  -8 -12    6.77    4.56
   6  -8  12   15.96    8.12
  -6  -8 -12    8.86    5.55
  -6   8  12   19.04   11.64
   6  -8 -12    4.36    4.87
   6   8  12    2.45    2.81
  -6  -8  13   -1.92    3.65
   6  -8  13    4.73    7.45
  -6  -8 -13    7.05    8.24
  -6   8  13   -6.65    8.01
   6  -8 -13    4.83    4.56
   6  -8 -13   -1.02    3.08
   6   8  13    8.52    5.27
  -6  -8  14   16.15    5.82
   6  -8  14   22.28    7.14
  -6  -8 -14   17.09   11.79
  -6   8  14   39.49   11.99
   6  -8 -14   28.94    9.94
   6  -8 -14   20.03   12.08
   6   8  14   22.57    8.69
  -6  -8  15  568.40   43.08
  -6  -8 -15  509.49   42.08
   6  -8 -15  411.58   36.81
  -6   8  15  469.66   39.75
   6  -8 -15  509.57   40.69
   6  -8  15  542.23   42.07
   6   8  15  443.28   36.66
  -6  -8  16   14.57    8.10
   6  -8  16   12.88    5.58
  -6  -8 -16    3.25    8.99
  -6   8  16    9.49    9.70
   6  -8 -16    6.72    3.88
   6   8  16    6.31    7.98
   6  -8 -17  182.13   24.46
  -6   8  17  210.84   27.54
   6  -8  17  157.42   24.66
   6   8  17  195.30   24.94
  -6  -8  17  226.14   28.28
   6   8  18    2.95    7.06
   6  -8  18   -1.20    4.52
  -6   8  18   -3.86    2.99
   6  -8 -18   -0.30    5.71
  -6  -8  18   -0.34    3.78
   6  -8  19  122.88   20.16
  -6   8  19  135.65   22.03
   6  -8 -19   95.93   18.40
   6   8  19  135.47   22.08
   6  -8  20   18.85    8.80
   6   8  20    2.00    5.78
  -6   8  20   31.88   11.14
   6  -8 -20   16.56    5.75
   6  -8 -21  174.90   25.59
  -6   8  21  177.42   25.60
   6  -8  21  216.53   27.99
   6   8  21  220.22   28.11
   6   8  22   43.32   14.22
  -6   8  22   37.82   11.63
   6  -8 -22   25.15   11.75
  -6   8  22   15.66    9.56
   6  -8  22   20.65    8.69
   6   8  23   51.31   16.30
  -6   8  23   55.93   13.12
   6  -8 -23   44.67   13.63
  -6   8  23   79.76   18.29
   6  -8  23   57.93   15.12
   6   8  24    5.22    6.67
  -6   8  24    9.06    4.96
   6  -8 -24    5.94    6.82
  -6   8  24    5.48    8.30
   6  -8  24   -0.47    4.05
   6  -8  24    3.32    7.02
  -6  -9   0  108.96   18.42
   6  -9   0  113.05   17.86
   6  -9   0   95.62   19.57
  -6  -9   1   -1.26    3.63
  -6  -9  -1    5.31    5.33
   6  -9   1   -0.57    5.42
   6  -9  -1   -4.87    6.76
   6  -9   1    1.30    6.73
   6  -9  -1   -2.37    7.03
  -6  -9   2    4.29    3.55
   6  -9   2    3.47    6.66
   6  -9   2   -2.70    5.25
  -6  -9  -2   11.09    7.96
   6  -9  -2    4.96    5.93
   6  -9  -2    1.58    3.59
   6  -9   3   -0.03    6.02
  -6  -9   3    0.42    3.07
   6  -9   3   -0.69    6.03
  -6  -9  -3   -3.98    5.99
   6  -9  -3   -5.81    7.60
   6  -9  -3   -0.30    2.81
   6  -9   4   -2.77    4.65
   6  -9  -4   -2.61    4.83
  -6  -9   4    4.00    6.51
   6  -9   4   -9.39    7.22
  -6  -9  -4   -3.16    5.79
   6  -9  -4    3.60    4.45
  -6   9   4    8.61    8.83
  -6  -9   5  218.45   26.30
   6  -9   5  188.22   22.56
  -6  -9  -5  198.57   25.23
   6  -9   5  209.05   26.79
   6  -9  -5  199.90   24.39
  -6   9   5  223.44   26.39
   6  -9  -5  214.77   26.32
  -6  -9   6   61.80   13.90
  -6  -9  -6   82.91   16.45
   6  -9  -6   50.04   15.18
   6  -9  -6   57.02   13.48
  -6   9   6   77.90   16.59
   6  -9   6   58.65   16.74
  -6  -9   7    2.40    4.26
  -6  -9  -7   -1.19    4.48
   6  -9  -7    1.17    3.99
  -6   9   7    8.64    4.28
   6  -9  -7    0.48    3.01
   6  -9   7    0.56    3.47
  -6  -9   8   34.27   10.37
  -6  -9  -8   32.21   11.57
  -6   9   8   37.44   13.05
   6  -9   8   44.33   13.73
   6  -9  -8   42.26   13.16
   6  -9  -8   52.88   12.58
   6  -9  -9   20.18   10.40
  -6  -9   9    9.86   10.65
  -6  -9  -9   27.20   11.54
   6  -9  -9    9.76    6.67
  -6   9   9   20.27    6.25
   6  -9   9   34.53    9.12
   6  -9  10   20.70   10.34
  -6  -9  10   33.22    9.82
   6  -9 -10   16.54    7.18
  -6  -9 -10   12.80    4.74
   6  -9 -10   23.87    9.11
  -6   9  10   11.79    7.80
  -6  -9  11    9.86    5.65
  -6  -9 -11   13.08    5.63
   6  -9  11   18.19    6.10
   6  -9 -11   14.41    5.22
   6  -9 -11   11.65    7.82
  -6   9  11    3.97    3.61
  -6  -9  12   31.14    9.16
   6  -9  12   15.37    4.18
  -6  -9 -12   17.70    9.10
   6  -9 -12   19.78    9.18
  -6   9  12   12.97    7.75
   6  -9 -12   11.64    8.11
  -6  -9  13   15.42    7.07
   6  -9 -13    5.82    6.25
   6  -9  13   18.07    6.55
  -6  -9 -13    3.72    4.83
  -6   9  13   28.36    8.36
   6  -9 -13   10.26    9.76
  -6  -9  14   38.35   10.96
   6  -9  14   46.42   12.97
  -6  -9 -14   10.00    8.46
   6  -9 -14   42.03   12.00
  -6   9  14   26.21    7.73
   6  -9 -14   42.43   10.66
  -6  -9  15    1.72    7.71
   6  -9  15    0.69    3.66
  -6  -9 -15    1.99    6.15
  -6   9  15    0.81    6.42
   6  -9 -15   10.10    4.52
   6  -9 -15    5.44    4.43
  -6  -9  16   -2.98    4.20
   6  -9  16   -7.62    6.86
  -6  -9 -16    0.26    3.77
  -6   9  16    3.07    7.29
   6  -9 -16    3.26    4.40
   6  -9 -16    2.85    5.84
  -6  -9  17   18.94   10.73
   6  -9  17   19.84    8.31
   6  -9 -17   27.81    9.38
  -6   9  17    9.42    7.55
   6  -9 -17   10.16    6.62
  -6  -9  18   -4.95    7.10
   6  -9  18   -5.14    4.25
  -6   9  18    6.16    6.28
   6  -9 -18    2.85    4.64
   6   9  18    0.82    4.28
   6  -9  19   10.12    7.22
  -6   9  19   -5.50    8.75
   6  -9 -19    6.48    6.59
   6   9  19   -0.45    7.64
  -6  -9  19    2.78    8.14
   6  -9  20   42.96   12.51
  -6   9  20   40.18   14.93
   6  -9 -20   28.78   11.36
   6   9  20   42.37   12.85
   6  -9  21   58.40   14.81
  -6   9  21   29.53   12.17
   6  -9 -21   59.21   16.63
   6   9  21   60.99   16.84
  -6   9  22   59.80   17.69
   6  -9 -22   49.88   13.91
   6  -9  22   36.36   12.85
   6   9  22   52.25   16.15
  -6 -10   0  151.74   21.98
   6 -10   0  124.46   19.75
   6 -10   0  146.49   23.77
  -6 -10   1   26.04   11.20
  -6 -10  -1   15.16   11.21
   6 -10   1   13.85    7.55
   6 -10  -1   17.31    9.59
   6 -10   1   14.97    9.17
   6 -10  -1   18.49   10.96
  -6 -10   2    8.81    3.01
   6 -10   2    2.24    6.42
   6 -10   2   11.77    9.95
  -6 -10  -2    8.55    9.01
   6 -10  -2   -4.27    6.84
   6 -10  -2    0.79    6.31
   6 -10   3   57.28   14.72
  -6 -10   3   66.60   16.08
   6 -10   3   44.21   11.13
  -6 -10  -3   66.40   15.49
   6 -10  -3   73.65   14.13
   6 -10  -3   83.07   18.67
  -6 -10   4  163.38   23.40
   6 -10   4  161.68   22.64
  -6 -10  -4  168.13   23.77
   6 -10  -4  180.11   23.63
   6 -10   4  183.27   25.87
   6 -10  -4  176.88   24.09
   6 -10  -5   -4.45    8.28
  -6 -10   5   12.69    7.41
  -6 -10  -5   12.02    8.39
   6 -10  -5    9.30    6.07
  -6  10   5   11.03    4.86
   6 -10   5    9.36    6.34
  -6 -10   6   95.29   18.14
   6 -10  -6   59.80   15.09
  -6 -10  -6   65.15   15.30
   6 -10  -6   69.80   13.25
  -6  10   6   90.28   18.40
   6 -10   6   84.60   17.46
  -6 -10   7   16.85    7.42
  -6 -10  -7   24.11   11.23
   6 -10  -7    3.59    4.00
   6 -10  -7   16.29   10.18
  -6  10   7   19.00    7.17
   6 -10   7   19.86    8.78
  -6 -10   8  159.90   23.10
   6 -10   8  200.33   25.48
  -6 -10  -8  182.01   25.71
   6 -10  -8  169.27   24.21
  -6  10   8  197.56   26.22
   6 -10  -8  190.62   26.80
  -6 -10   9   -7.39    5.79
  -6 -10  -9    7.53    5.25
   6 -10  -9    5.94    8.55
  -6  10   9    6.44    4.09
   6 -10   9    3.71    5.84
   6 -10  -9   -1.93    4.74
   6 -10 -10   72.36   16.56
  -6 -10  10   61.24   14.38
  -6 -10 -10   52.45   13.76
   6 -10 -10   49.50   15.15
  -6  10  10   23.37    8.55
   6 -10  10   45.13   12.59
  -6 -10  11  138.42   22.19
   6 -10 -11  164.28   23.63
  -6 -10 -11  130.12   23.16
   6 -10 -11  170.71   22.85
  -6  10  11  168.81   24.36
   6 -10  11  163.25   23.62
  -6 -10  12  127.30   21.54
  -6 -10 -12  118.64   21.21
   6 -10 -12   83.76   17.79
   6 -10 -12   86.70   18.34
  -6  10  12   87.77   18.32
   6 -10  12  139.57   21.04
  -6 -10  13    2.69    8.96
   6 -10  13   -5.74    6.04
  -6 -10 -13    5.37    8.79
   6 -10 -13   -4.08    8.17
  -6  10  13   -3.70    6.66
   6 -10 -13   -3.38    6.36
  -6 -10  14  163.14   24.07
   6 -10 -14  151.99   23.93
   6 -10 -14  174.45   26.39
  -6 -10 -14   90.45   19.42
  -6  10  14  130.42   23.29
   6 -10  14  151.47   22.40
  -6 -10  15   86.64   16.85
   6 -10 -15   67.28   16.78
   6 -10  15   75.65   16.23
  -6 -10 -15   47.58   14.60
   6 -10 -15   70.15   17.40
  -6  10  15  107.26   20.35
   6 -10  16    0.68    2.75
  -6 -10 -16   16.98    9.68
   6 -10 -16    0.20    6.23
  -6  10  16   -0.76    3.78
   6 -10 -16    3.86    5.82
  -6 -10  17   10.22    8.04
   6 -10  17   -7.26    7.41
  -6  10  17    7.86    8.26
   6 -10 -17    1.19    6.32
   6 -10 -17    5.03    3.63
  -6 -10  18   94.66   20.75
   6 -10 -18   85.02   16.53
  -6  10  18  111.23   20.06
   6 -10 -18   96.80   20.10
   6 -10  18  114.92   20.82
   6 -10 -19   47.69   13.85
  -6 -10  19   58.38   14.58
   6 -10  19   45.83   14.07
   6 -10 -19   45.15   14.37
  -6  10  19   41.77   13.86
   6 -10  20   -2.74    6.51
  -6  10  20   -5.55   10.34
   6 -10 -20    2.55    8.79
   6 -10 -20   10.31    6.76
  -6 -10  20    4.76    5.88
   6 -10 -21  175.35   25.70
   6 -10 -21  179.60   27.43
  -6  10  21  190.75   28.08
   6 -10  21  164.25   24.38
  -6 -11   0   13.81    5.63
   6 -11   0   29.18    9.05
  -6 -11   1   53.08   15.77
  -6 -11  -1   40.10   11.35
   6 -11   1   33.75   10.95
   6 -11  -1   23.18    9.27
   6 -11   1   27.81   11.42
   6 -11  -1   40.36   14.07
  -6 -11   2   30.51   11.99
   6 -11   2   19.08   10.46
   6 -11   2   21.15    9.41
  -6 -11  -2   59.50   14.82
   6 -11  -2   30.68   10.15
   6 -11  -2   32.49   12.49
   6 -11   3   79.19   19.65
  -6 -11   3   78.13   17.73
  -6 -11  -3   94.18   18.54
   6 -11  -3   90.59   18.44
   6 -11  -3   60.26   13.60
   6 -11   4    5.98    7.10
  -6 -11   4    7.95    6.41
  -6 -11  -4   11.57    7.84
   6 -11  -4    8.04    7.13
   6 -11  -4    5.29    7.59
   6 -11  -5   12.34   11.16
  -6 -11   5    3.28    6.91
  -6 -11  -5    3.28    2.93
   6 -11  -5    5.99    5.52
   6 -11   5    3.50    6.47
  -6 -11   6    6.34    6.33
   6 -11  -6   12.73    7.08
  -6 -11  -6    8.00    9.34
   6 -11  -6    4.81    5.23
  -6  11   6   -5.74    9.58
   6 -11   6   11.09    8.01
  -6 -11   7    9.65    4.96
   6 -11  -7   11.50    6.16
  -6 -11  -7    3.09    3.68
   6 -11  -7   12.94    6.62
  -6  11   7   26.58   10.86
   6 -11   7    4.30    4.44
  -6 -11   8   -0.39    3.69
  -6 -11  -8    0.11    5.72
   6 -11  -8   -4.82    6.17
   6 -11  -8   -2.39    4.15
  -6  11   8    3.53    8.84
   6 -11   8    1.03    2.83
  -6 -11   9    5.52    4.75
  -6 -11  -9    4.81    5.74
   6 -11  -9   15.11    9.95
  -6  11   9   16.89    9.19
   6 -11  -9   17.46    9.81
   6 -11   9   25.70    8.96
  -6 -11  10    2.67    7.07
  -6 -11 -10   -7.67    6.12
   6 -11 -10    0.55    5.48
  -6  11  10    0.23    6.74
   6 -11  10   -3.36    5.85
   6 -11 -10   -1.08    5.37
  -6 -11  11    8.12    8.35
  -6 -11 -11    4.73    9.06
   6 -11 -11    9.08    6.76
   6 -11  11   -5.99    8.14
  -6  11  11    1.68    4.98
   6 -11 -11    4.04    4.91
   6 -11 -12   62.55   16.01
  -6 -11  12   67.07   15.39
  -6 -11 -12   60.96   15.42
   6 -11  12   55.92   14.21
   6 -11 -12   24.65    6.73
  -6  11  12   38.13   10.38
  -6 -11  13   31.35   10.72
   6 -11 -13   46.99   13.90
   6 -11  13   36.78   10.65
  -6 -11 -13   31.90   11.62
   6 -11 -13   22.68    8.53
  -6  11  13   46.10   14.02
  -6 -11  14   -3.78    4.20
   6 -11  14    3.31    6.89
  -6 -11 -14   13.81    8.55
   6 -11 -14   15.92   10.15
   6 -11 -14   10.06    7.66
  -6  11  14    6.48    8.29
  -6 -11  15   -5.86    7.86
   6 -11  15   -1.34    4.56
  -6 -11 -15   -1.57    4.71
   6 -11 -15   11.00    8.50
  -6  11  15    0.63    7.86
   6 -11 -15   -0.24    8.40
  -6 -11  16   25.33   12.03
   6 -11  16   16.16    2.82
  -6 -11 -16   13.29    9.20
   6 -11 -16   33.72   10.85
  -6  11  16   32.81   13.83
   6 -11 -16   29.42   11.67
  -6 -11  17   27.97   11.71
   6 -11 -17   20.97    7.62
   6 -11  17   46.98   13.61
   6 -11 -17   43.24   14.54
  -6  11  17   45.68   15.48
  -6 -11  18   35.11   14.62
   6 -11  18   35.63   11.68
   6 -11 -18   25.47    9.64
   6 -11 -18   26.65   11.06
  -6  11  18   55.65   16.92
  -6 -11  19    5.48    9.34
   6 -11  19   -0.73    6.66
   6 -11 -19    4.03    5.16
   6 -11 -19    4.09    6.38
  -6  11  19    6.17    4.00
  -6 -12   0   58.66   14.65
   6 -12   0   12.47   10.88
   6 -12   0   43.62   12.13
  -6 -12   1   38.51   10.99
  -6 -12  -1   34.26   13.06
   6 -12   1   40.15   13.04
   6 -12  -1   45.48   12.22
   6 -12  -1   38.12   12.95
   6 -12   2   93.71   19.57
  -6 -12   2   96.58   19.17
  -6 -12  -2   69.72   17.18
   6 -12  -2   55.82   13.83
   6 -12  -2  103.78   21.28
   6 -12   3   67.95   16.19
  -6 -12   3   45.89   13.49
  -6 -12  -3   53.91   15.17
   6 -12  -3   47.71   13.88
   6 -12  -3   45.21   15.08
   6 -12   4   37.14   12.55
  -6 -12   4   13.82    8.95
  -6 -12  -4   34.83   12.42
   6 -12  -4   30.90   12.20
   6 -12  -4   39.81   11.77
  -6 -12   5    9.35    5.95
  -6 -12  -5   20.71    9.16
   6 -12  -5    4.19    4.44
   6 -12   5   31.72   12.39
   6 -12  -5    9.37    8.44
   6 -12  -6    5.17    6.66
  -6 -12   6   11.81    7.52
  -6 -12  -6   11.35    6.90
   6 -12  -6    8.37    3.20
   6 -12   6   -4.50    4.13
  -6 -12   7    6.90    7.18
   6 -12  -7    3.01    5.64
  -6 -12  -7   10.02    2.91
   6 -12   7   -2.73    4.30
  -6 -12   8   20.26   10.78
   6 -12  -8   24.21   11.79
  -6 -12  -8    6.45    5.43
   6 -12  -8   26.45   12.45
  -6  12   8   17.62    9.04
   6 -12   8   13.37    8.06
  -6 -12   9   33.81    9.36
  -6 -12  -9   63.37   15.84
   6 -12  -9   50.66   14.67
   6 -12  -9   41.47   14.66
  -6  12   9   34.69   10.66
   6 -12   9   27.41   10.97
  -6 -12  10   13.20    9.18
  -6 -12 -10   15.37   11.24
   6 -12 -10    8.87    5.41
  -6  12  10    7.72    5.38
   6 -12 -10   12.70    7.17
   6 -12  10   -0.64    3.26
  -6 -12  11  149.71   23.61
  -6 -12 -11  124.12   23.30
   6 -12 -11  138.99   22.98
  -6  12  11  118.55   21.01
   6 -12 -11  138.64   23.59
   6 -12  11  165.29   24.51
  -6 -12  12    6.69    3.92
  -6 -12 -12   -4.15    9.31
   6 -12  12   15.31    7.99
   6 -12 -12    6.29    3.47
  -6  12  12   -6.12    6.67
   6 -12 -12    1.36    4.92
  -6 -12  13   11.37    8.64
  -6 -12 -13   -8.06    7.74
   6 -12  13    9.47    9.09
   6 -12 -13    4.52    5.14
  -6  12  13   -1.35    7.70
   6 -12 -13    1.61    6.29
  -6 -12  14   23.78   10.38
   6 -12 -14   55.07   15.08
   6 -12  14   27.28    7.73
  -6 -12 -14   20.04    8.69
   6 -12 -14   23.32   13.16
  -6  12  14   28.50   12.38
  -6 -12  15    6.80    9.04
   6 -12 -15   11.81    7.99
   6 -12  15   16.31    8.16
  -6 -12 -15    3.43    8.44
   6 -12 -15   12.99    6.77
  -6  12  15   -7.19    4.34
  -6 -12  16   80.10   16.98
   6 -12  16   92.44   19.63
   6 -12 -16   47.40   13.06
  -6 -12 -16   60.41   16.34
   6 -12 -16   49.74   14.91
  -6  12  16   52.46   15.71
  -6 -13   0   31.93   10.31
   6 -13   0   56.94   17.00
  -6 -13   1    7.03    8.22
   6 -13   1    7.36    5.99
  -6 -13  -1   10.44    9.18
   6 -13  -1    2.14    8.09
   6 -13   2   14.95    6.29
  -6 -13   2   24.48   10.50
  -6 -13  -2    6.93    7.15
   6 -13  -2   22.79   11.32
   6 -13  -2   -0.48    9.01
   6 -13   3   15.53    7.17
  -6 -13   3   22.78   10.69
  -6 -13  -3   11.40    5.48
   6 -13  -3   25.63   13.37
   6 -13  -3    8.72    6.78
   6 -13   4    6.69    8.04
  -6 -13   4    8.56    7.00
  -6 -13  -4    2.89    7.44
   6 -13  -4    5.77    6.19
   6 -13  -4    2.19    5.66
  -6 -13   5    2.18    6.50
  -6 -13  -5   11.52    8.19
   6 -13  -5    5.34    6.93
   6 -13  -5    1.23    5.84
   6 -13   5   -3.30    4.26
  -6 -13   6    2.41    5.99
  -6 -13  -6    3.96    4.11
   6 -13  -6  -14.47   10.72
   6 -13   6    0.33    3.66
   6 -13  -6    9.14    8.31
   6 -13  -7    5.87    6.11
  -6 -13   7   13.69    9.32
  -6 -13  -7    9.47    3.79
   6 -13  -7   11.67    5.41
   6 -13   7   12.77    9.22
  -6 -13   8    9.70    6.88
   6 -13  -8    8.44    8.68
  -6 -13  -8    7.90   11.17
   6 -13  -8   -0.44    4.20
   6 -13   8   -6.91    7.75
  -6 -13   9    9.59    9.47
   6 -13  -9   20.71    9.20
  -6 -13  -9   25.16   12.62
   6 -13  -9   23.06   11.49
   6 -13   9    0.50    6.65
  -6 -13  10    9.92    8.58
  -6 -13 -10    6.28    8.20
   6 -13 -10    2.53    4.30
   6 -13 -10   -1.71    5.83
  -6  13  10   11.57   11.99
   6 -13  10    5.89    4.80
  -6 -13  11   43.01   13.88
  -6 -13 -11   19.36    9.84
   6 -13 -11   18.32   11.73
   6 -13 -11   43.21   15.44
  -6  13  11   20.17   10.62
   6 -13  11   18.14    7.30
  -6 -13  12    4.62    7.32
  -6 -13 -12    8.81    8.49
   6 -13 -12   -2.10    8.47
   6 -13  12    8.87    8.30
  -6  13  12    9.58    9.20
   6 -13 -12  -10.49    9.43
  -6 -13  13    5.66    7.36
  -6 -13 -13    2.30    3.47
   6 -13  13    0.54    2.69
   6 -13 -13    1.32    4.94
  -6  13  13   11.57    6.44
   6 -13 -13   18.59   10.91
  -6 -14   0  109.80   21.28
   6 -14   0  129.59   23.93
   6 -14   1    5.79    9.28
  -6 -14   1   -5.85    9.28
  -6 -14  -1    3.17    4.31
   6 -14  -1    7.67   12.53
   6 -14   2   16.04    8.80
  -6 -14   2   11.85    7.19
  -6 -14  -2   15.94    9.32
   6 -14  -2   14.13    9.95
   6 -14   3  113.46   21.56
  -6 -14   3  128.78   23.24
  -6 -14  -3  125.48   22.71
   6 -14  -3   99.62   21.25
  -6 -14   4   44.73   12.70
  -6 -14  -4   43.91   14.47
   6 -14  -4   52.15   16.29
   6 -14   4   72.60   17.34
  -6 -14   5   -7.90    8.53
  -6 -14  -5    7.03    4.63
   6 -14  -5    0.13    6.36
   6 -14   5    6.73    4.60
  -6 -14   6   15.91   12.09
  -6 -14  -6    7.44    7.33
   6 -14  -6   11.64    7.89
   6 -14   6    9.20    3.34
   6 -14  -6    8.71    9.37
  -6 -14   7   73.37   17.90
  -6 -14  -7   58.80   17.81
   6 -14  -7   51.80   17.19
   6 -14   7   71.05   19.05
   6 -14  -7   57.76   16.60
   6 -14  -8   47.64   11.99
  -6 -14   8   52.92   16.69
  -6 -14  -8   89.48   20.98
   6 -14  -8   68.86   18.29
   6 -14   8   70.33   17.14
   7   0   0    1.82    1.68
  -7   0   0    5.21    5.65
   7   0   1   -1.01    2.46
   7   0  -1   -3.48    3.10
  -7   0   1   -3.34    3.31
  -7   0   2 1280.06   54.17
   7   0   2 1227.49   38.76
   7   0   3   -0.43    2.88
  -7   0   3    2.43    1.87
   7   0  -3    2.20    1.92
   7   0  -4  597.01   24.52
  -7   0   4  683.91   39.90
   7   0   4  602.24   29.41
   7   0  -5    0.49    1.50
  -7   0   5   -0.63    3.97
   7   0   5    4.08    4.17
  -7   0   6  166.42   19.39
   7   0  -6  149.06   12.90
   7   0  -7    0.60    2.15
  -7   0   7   -0.83    4.81
   7   0   7   -2.94    2.98
   7   0   8  616.10   33.49
  -7   0   8  817.97   44.38
  -7   0   9   -2.30    5.56
   7   0   9    0.46    2.26
   7   0  10  119.49   15.66
  -7   0  10  114.31   16.99
  -7   0  11   -1.97    3.56
   7   0  11   -0.31    3.00
   7   0  12  206.57   22.02
  -7   0  12  146.91   20.19
  -7   0  13    2.44    4.49
   7   0  13    2.15    2.58
   7   0  14  906.92   48.53
  -7   0  14 1160.74   57.90
   7   0  15   -1.85    4.72
  -7   0  15   -4.11    2.77
   7   0  16  776.30   48.07
  -7   0  16  852.39   51.23
   7   0  17   -0.92    5.02
  -7   0  17   -0.71    4.98
   7   0  18  102.29   17.23
  -7   0  18   91.43   17.70
   7   0  19    4.70    4.40
  -7   0  19    3.68    7.10
   7   0  20  188.23   24.45
  -7   0  20  186.95   25.29
   7   0  20  125.93   22.50
  -7   0  21    0.37    2.73
   7   0  21   -4.10    3.60
   7   0  22   60.06   13.27
  -7   0  22   69.90   16.74
   7   0  22   63.42   15.82
   7   0  23    3.04    8.13
  -7   0  23    9.18    9.73
   7   0  23    5.22    8.95
   7   0  24  178.70   25.67
  -7   0  24  187.76   28.97
   7   0  24  234.60   29.17
   7   0  25    1.34    3.37
  -7   0  25    1.31    6.64
   7   0  25    0.09    4.86
   7   0  26  145.72   21.77
  -7   0  26  149.28   23.56
   7   0  26  108.23   19.76
   7   0  27   -2.26    7.05
  -7   0  27    8.27   10.95
   7   0  27   -1.72    4.97
  -7  -1   0    1.56    2.55
  -7   1   0    1.53    4.15
   7  -1   0   -1.11    1.93
   7   1   0    2.50    2.10
   7  -1  -1  255.74   18.48
   7   1   1  251.98   14.21
  -7  -1   1  306.15   25.82
   7  -1   1  243.61   18.12
   7  -1  -2  382.65   23.11
   7   1   2  415.04   19.71
  -7   1   2  451.08   32.79
  -7  -1   2  433.41   30.51
   7  -1   2  429.28   24.57
   7  -1  -3  191.53   16.74
   7   1   3  153.64   12.86
  -7  -1   3  192.10   20.20
   7  -1   3  209.77   17.52
   7   1   4   92.18   10.24
   7  -1  -4  128.54   13.62
  -7   1   4  105.07   15.51
  -7  -1   4  101.99   15.16
   7  -1   4  122.71   13.93
   7  -1   5    1.78    2.39
  -7   1   5    4.32    6.03
  -7  -1   5    2.17    5.28
   7   1   5   -1.32    1.72
   7  -1  -5    5.38    4.56
   7   1   6  359.94   23.34
  -7   1   6  440.62   33.46
  -7  -1   6  405.02   30.02
   7  -1   6  380.63   26.12
   7  -1  -6  422.92   25.69
   7  -1   7   36.77    8.06
   7  -1  -7   24.79    6.97
  -7   1   7   31.87    9.62
  -7  -1   7   27.46   10.23
   7   1   7   14.41    5.42
   7  -1  -8  338.08   23.09
   7   1   8  348.53   25.53
  -7   1   8  331.47   29.17
  -7  -1   8  367.22   29.34
   7  -1   8  387.99   27.49
   7  -1  -9  288.66   21.85
   7   1   9  259.59   22.57
   7  -1   9  206.19   20.44
  -7   1   9  223.28   23.84
  -7  -1   9  240.55   24.13
   7  -1 -10   61.51   10.26
   7   1  10   47.65    9.00
  -7   1  10   35.41    9.63
  -7  -1  10   71.06   13.29
   7  -1  10   39.44    9.75
   7   1  11  281.10   24.97
   7  -1  11  349.66   27.82
  -7   1  11  275.50   27.31
  -7  -1  11  277.14   26.86
   7   1  12  670.18   39.16
   7  -1  12  674.30   40.41
  -7   1  12  581.13   39.48
  -7  -1  12  603.31   40.45
   7   1  13   13.13    4.56
  -7   1  13    8.82    7.99
  -7  -1  13   14.27    7.24
   7  -1  13   13.60    6.45
   7   1  14  132.82   17.64
   7  -1  14  101.82   15.44
  -7   1  14  101.22   16.92
  -7  -1  14  114.50   18.67
   7   1  15    2.57    3.52
  -7   1  15    0.42    4.80
  -7  -1  15   -1.86    8.14
   7  -1  15    0.40    6.28
   7   1  16    7.34    5.06
  -7   1  16    6.14    6.83
  -7  -1  16   -1.07    4.80
   7  -1  16    7.50    6.26
   7   1  17    6.82    4.66
   7  -1  17    8.25    4.63
  -7   1  17   17.54    7.33
  -7  -1  17   17.56    7.58
   7   1  18   -2.55    5.44
   7  -1  18    5.49    5.64
  -7   1  18    9.89    6.70
  -7  -1  18    3.22    3.17
   7   1  19    8.52    5.11
   7  -1  19    5.90    4.12
  -7   1  19   -0.05    2.53
  -7  -1  19   17.34    7.21
   7   1  19    1.72    6.82
   7   1  20   -0.50    3.41
   7  -1  20   -2.14    5.12
  -7   1  20    0.95    3.25
  -7  -1  20   -1.53    2.67
   7   1  20   -1.71    5.72
   7   1  21    5.05    5.34
   7  -1  21    3.40    6.79
  -7   1  21    3.93    6.94
  -7  -1  21    9.35    8.46
   7   1  21   -8.48   10.29
   7  -1  21   11.52    4.35
   7   1  22   -2.30    4.35
   7  -1  22   -4.66    6.51
  -7   1  22    0.25    4.49
  -7  -1  22    4.55    3.62
   7   1  22   -4.58    8.50
   7  -1  22   -3.15   11.47
   7   1  23   14.80   10.16
   7  -1  23   -1.21    8.21
  -7   1  23   -1.62    5.12
  -7  -1  23    6.90    6.49
   7   1  23   -4.23    5.36
   7  -1  23    2.99    8.64
   7   1  24    3.39    5.03
   7  -1  24   -0.70    4.07
  -7   1  24    4.81    5.66
  -7  -1  24  -10.45    7.98
   7   1  24   -6.41    6.57
   7  -1  24    1.81    6.35
   7   1  25   13.56    9.40
   7  -1  25   -1.06    3.95
  -7   1  25    3.48    7.33
  -7  -1  25   16.10    8.30
   7   1  25   15.25    9.11
   7  -1  25    1.12    4.21
   7   1  26    4.71    5.58
   7  -1  26   -4.87    6.74
  -7   1  26    0.56    7.33
  -7  -1  26   23.22   10.90
   7   1  26    1.51    6.55
   7  -1  26   -3.51    6.99
   7   1  27   -0.09    3.59
   7  -1  27    2.30    6.96
  -7   1  27  -12.12    9.98
  -7  -1  27    0.12    4.43
   7   1  27   -4.11    4.39
   7  -1  27    5.16    9.83
  -7   2   0   -5.00    4.74
   7  -2   0   -0.10    1.45
   7  -2   1  504.97   29.10
   7  -2  -1  595.31   32.80
  -7  -2   1  590.82   35.14
  -7   2   1  569.38   38.07
   7  -2  -2  130.24   15.03
  -7   2   2  130.82   17.82
  -7  -2   2  134.18   17.47
   7  -2   2  126.12   15.34
   7   2   3   82.46    8.36
   7  -2  -3   72.24   11.59
  -7   2   3  140.84   18.68
  -7  -2   3   94.87   14.28
   7  -2   3  117.08   14.30
   7  -2   4    1.68    2.34
   7   2   4   -0.16    1.30
  -7   2   4    6.97    7.70
  -7  -2   4    0.51    3.22
   7  -2  -4    4.36    3.38
   7  -2  -4   -0.75    1.66
   7   2   5 1610.61   44.95
  -7   2   5 1582.55   63.61
  -7  -2   5 1511.65   57.14
   7  -2  -5 1456.59   41.89
   7   2   6   55.71    8.49
  -7   2   6   62.88   13.34
  -7  -2   6   60.52   11.12
   7  -2   6   64.29   11.19
   7  -2  -6   68.03   11.40
   7   2   7  209.03   17.78
  -7   2   7  263.53   25.71
  -7  -2   7  314.18   26.43
   7  -2   7  290.36   24.10
   7  -2  -7  255.19   21.87
   7  -2  -8   77.31   11.54
   7   2   8   46.91    8.69
  -7   2   8   99.10   16.08
  -7  -2   8   59.54   12.61
   7  -2   8   86.43   13.46
   7  -2   9   -2.74    4.55
   7   2   9    1.44    5.20
   7  -2  -9   -3.00    2.46
  -7   2   9    7.18    6.39
  -7  -2   9    0.02    3.25
   7   2  10  450.91   29.83
   7  -2 -10  424.68   29.53
  -7   2  10  384.53   31.77
  -7  -2  10  403.19   31.86
   7  -2  10  454.75   32.31
   7   2  11  105.23   14.64
  -7  -2  11   89.33   14.52
   7  -2 -11   92.69   13.46
  -7   2  11   90.42   14.61
   7  -2  11   76.92   13.27
   7   2  12   28.32    8.65
  -7   2  12   18.54    6.85
  -7  -2  12   25.41    8.64
   7  -2  12   35.22    9.71
   7   2  13  257.68   24.70
   7  -2  13  323.16   28.96
  -7   2  13  281.15   28.30
  -7  -2  13  212.72   23.82
   7   2  14   -1.04    2.80
  -7   2  14   -1.29    4.71
  -7  -2  14   -2.59    5.78
   7  -2  14    5.82    5.84
   7   2  15  106.71   15.84
   7  -2  15   89.32   17.29
  -7   2  15   90.87   16.73
  -7  -2  15   93.89   16.82
   7   2  16  170.22   21.49
   7  -2  16  145.34   21.07
  -7   2  16  172.07   23.06
  -7  -2  16  217.49   25.75
   7   2  17   44.85   11.92
  -7   2  17   74.86   16.48
  -7  -2  17   15.55    6.45
   7  -2  17   64.14   13.09
   7   2  17   39.79   10.84
   7   2  18   -1.33    3.69
  -7   2  18    8.63    8.84
  -7  -2  18   -1.73    4.96
   7  -2  18    5.16    6.30
   7   2  18    3.14    3.45
   7   2  19  354.57   32.55
   7  -2  19  371.43   34.22
  -7   2  19  354.26   34.86
   7   2  19  290.82   31.83
   7  -2  20  237.00   28.49
  -7   2  20  256.99   30.29
  -7  -2  20  245.10   28.24
   7   2  20  288.11   32.25
   7   2  21   -5.41    7.29
   7  -2  21   16.14    8.34
  -7   2  21   -4.11    4.96
  -7  -2  21   29.54   10.33
   7   2  21   17.50    9.29
   7   2  22    3.30    3.46
   7  -2  22    4.06    3.40
  -7   2  22   -6.44    7.09
  -7  -2  22   -4.69    7.17
   7   2  22    4.49    5.91
   7  -2  22    2.84    5.87
   7   2  23  180.34   24.57
   7  -2  23  149.59   21.82
  -7   2  23  143.36   23.52
  -7  -2  23  115.78   21.84
   7   2  23  161.40   25.73
   7  -2  23  165.29   24.50
   7   2  24   21.09    9.93
   7  -2  24    8.25    7.50
  -7   2  24   -9.39    4.32
  -7  -2  24   14.22    9.34
   7   2  24    5.54    6.65
   7  -2  24   10.74    7.21
   7   2  25   -1.29    4.61
   7  -2  25   -6.42    8.44
  -7   2  25  -10.51   10.13
  -7  -2  25    1.55    7.61
   7   2  25  -10.29    9.75
   7  -2  25    2.31    7.85
   7   2  26    7.63    4.77
   7  -2  26   10.92   10.41
  -7   2  26    4.65    2.94
  -7  -2  26    1.76    3.74
   7   2  26    5.68    7.06
   7  -2  26    4.61    8.03
   7   2  27   -4.83    8.73
   7  -2  27   13.91    7.32
  -7   2  27   19.25   10.35
  -7  -2  27   15.80   10.48
   7   2  27   20.71   14.59
   7  -2  27   12.44    6.50
  -7   3   0    1.82    2.26
   7  -3   0    0.41    3.28
   7  -3  -1   32.13    7.79
  -7  -3   1   40.40    8.25
  -7   3   1   51.28   11.47
   7  -3   1   43.90   10.03
   7  -3  -2   49.01   10.37
  -7   3   2   42.20   11.72
  -7  -3   2   53.00    9.93
   7  -3   2   37.25    8.57
  -7  -3   3   12.11    6.11
  -7   3   3   11.24    4.85
  -7  -3   3    3.67    5.68
   7  -3  -3   11.46    6.78
   7  -3   3   10.48    5.68
   7  -3  -4   52.67    8.35
  -7  -3   4   77.68   12.72
  -7   3   4   61.09   13.84
   7  -3  -4   51.56   10.48
   7  -3   4   62.53   11.12
  -7  -3   4   47.09    9.85
   7  -3  -5  727.66   31.04
  -7   3   5  813.20   46.14
  -7  -3   5  802.81   41.08
   7  -3  -5  674.96   38.04
   7  -3   5  793.07   39.91
  -7  -3   5  729.10   36.39
   7   3   6    9.72    4.13
   7  -3  -6    9.56    4.34
   7  -3   6   13.49    6.39
  -7   3   6    1.21    2.99
  -7  -3   6    9.34    4.57
   7  -3  -6   15.92    5.38
   7   3   7  159.22   15.14
  -7   3   7  160.71   21.30
  -7  -3   7  170.02   19.48
   7  -3  -7  136.90   14.95
   7  -3   7  129.28   17.22
   7  -3  -7  152.63   17.50
   7   3   8   80.63   10.97
   7  -3  -8  114.41   15.13
  -7   3   8  113.65   17.83
  -7  -3   8  111.09   16.16
   7  -3  -8  107.45   13.97
   7  -3   8   95.17   14.49
   7   3   9  129.80   14.88
   7  -3  -9  101.90   14.70
  -7   3   9  125.99   18.77
  -7  -3   9  140.12   18.10
   7  -3   9  113.28   17.29
   7  -3  10    2.93    5.03
   7  -3 -10    6.71    4.82
   7   3  10    1.25    3.20
  -7   3  10    6.61    5.48
  -7  -3  10    0.44    2.97
   7  -3 -11  242.60   23.65
  -7   3  11  239.19   26.04
  -7  -3  11  182.77   21.98
   7  -3  11  229.68   24.58
   7   3  12  139.07   17.52
  -7   3  12  168.63   21.77
  -7  -3  12  151.73   20.80
   7  -3  12  161.52   20.64
   7   3  13   71.65   14.06
  -7   3  13   43.66   11.39
  -7  -3  13   56.62   13.15
   7  -3  13   52.92   11.43
   7   3  14   13.62    6.01
  -7   3  14    9.55    6.82
  -7  -3  14    3.96    3.15
   7  -3  14   10.41    7.59
   7   3  15   46.94   11.95
  -7   3  15   51.07   14.49
  -7  -3  15   48.76   12.35
  -7   3  15   69.00   14.61
   7  -3  15   37.43   10.48
   7   3  15   43.06   12.19
   7   3  16    2.23    4.80
  -7   3  16    9.15    7.95
  -7  -3  16    2.55    5.37
   7  -3  16   18.11    8.17
   7   3  16   -2.44    5.99
   7   3  17   29.75    9.66
  -7   3  17   15.50    6.02
  -7  -3  17   43.87   12.02
   7  -3  17   29.78   10.47
   7   3  17   23.65    9.32
   7   3  18   -0.52    3.53
  -7   3  18    7.08    5.93
  -7  -3  18   15.45    8.34
   7  -3  18   -1.58    2.90
   7   3  18   -1.45    5.84
   7   3  19   -1.04    6.35
  -7   3  19    1.05    3.25
  -7  -3  19   -5.75    5.03
   7  -3  19    1.84    4.98
   7   3  19   -6.99    6.80
   7   3  20    9.00    4.07
  -7   3  20    5.01    7.47
  -7  -3  20   13.82    8.94
   7  -3  20   -1.22    3.05
   7   3  20    0.68    7.72
   7   3  21   -0.80    4.45
  -7   3  21   -4.71    3.26
   7  -3  21   -3.52    7.19
  -7  -3  21   -2.66    6.18
   7   3  21   -4.31    6.59
   7   3  22    0.29    4.86
  -7   3  22   12.89    9.91
   7  -3  22   -8.16    7.73
  -7  -3  22    5.79    4.98
   7   3  22   -1.06    4.98
   7   3  23    8.56    7.14
   7  -3  23   -2.15    7.60
  -7   3  23   14.13    8.87
  -7  -3  23    7.67    5.61
   7   3  23   -6.38    9.07
   7  -3  23   -2.02    6.14
   7   3  24    8.98    6.14
   7  -3  24   21.30   10.48
  -7   3  24   39.68   15.29
  -7  -3  24   48.65   15.34
   7  -3  24   21.76    8.59
   7   3  25   -0.31    3.91
   7  -3  25    2.35    4.04
  -7   3  25   13.28    5.50
  -7  -3  25   11.88    9.00
   7  -3  25    0.64    6.65
   7   3  26   -3.37    7.63
   7  -3  26    2.78    5.67
  -7   3  26  -10.50    9.04
  -7  -3  26    5.93    8.18
   7  -3  26   -1.19    4.01
   7  -4   0   -2.48    4.83
   7  -4   1  208.89   22.24
   7  -4  -1  195.63   21.59
  -7  -4   1  192.38   19.16
  -7   4   1  205.16   24.21
  -7  -4   2  648.09   33.62
   7  -4   2  620.62   38.04
  -7  -4   2  641.20   34.26
  -7   4   2  715.71   44.04
   7  -4  -2  684.87   40.91
  -7  -4   3   30.90    8.32
  -7   4   3   13.32    7.09
  -7  -4   3   27.91    7.58
   7  -4  -3   27.49    8.43
   7  -4   3    8.12    3.79
  -7  -4   4  834.11   38.83
   7  -4   4  816.80   42.89
  -7   4   4  841.45   47.51
  -7  -4   4  823.31   39.88
   7  -4  -4  829.84   44.96
  -7  -4   5  145.67   16.54
   7  -4  -5  177.40   16.52
  -7   4   5  195.57   23.19
  -7  -4   5  183.88   18.89
   7  -4  -5  175.06   21.21
   7  -4   5  182.02   20.08
  -7  -4   6  129.61   16.27
   7  -4  -6  104.17   13.16
  -7   4   6  168.54   21.67
  -7  -4   6  136.73   16.65
   7  -4  -6  114.79   16.36
   7  -4   6  146.93   17.98
  -7  -4   7   39.56   10.22
   7  -4   7   36.97    9.60
  -7   4   7   50.55   12.38
  -7  -4   7   32.06    8.15
   7  -4  -7   36.31    8.49
   7  -4  -7   20.89    8.45
   7  -4  -8  153.04   19.26
  -7   4   8  150.80   20.81
   7  -4  -8  188.92   19.21
  -7  -4   8  142.19   17.71
   7  -4   8  175.90   20.47
   7   4   8  200.32   18.21
  -7  -4   8  187.39   21.02
   7  -4  -9  271.02   25.17
  -7   4   9  287.20   28.05
   7  -4  -9  221.01   21.21
  -7  -4   9  204.30   21.65
   7  -4   9  272.94   26.16
   7   4   9  248.85   21.72
   7  -4  10   18.72    7.70
   7   4  10    7.91    4.71
  -7   4  10    7.53    3.90
  -7  -4  10    4.92    2.33
   7  -4 -10   19.12    6.68
   7  -4 -10   14.29    7.53
   7  -4  11    1.82    2.61
   7   4  11   -2.73    3.59
   7  -4 -11    3.54    4.65
  -7   4  11    0.72    4.25
  -7  -4  11   -1.74    3.91
   7  -4 -11   -0.04    4.11
   7  -4  12    9.53    7.36
   7   4  12   15.83    6.98
   7  -4 -12    2.45    5.66
  -7   4  12    9.89    6.36
  -7  -4  12   10.49    7.28
   7  -4 -12    9.75    3.27
  -7   4  13  218.42   25.15
  -7  -4  13  272.32   27.71
   7  -4  13  219.68   24.65
   7   4  13  225.07   22.59
   7  -4  14    5.00    6.04
   7   4  14    1.07    4.98
  -7   4  14   -0.46    3.88
  -7  -4  14    8.58    4.90
   7   4  15   12.07    5.03
  -7   4  15   11.48    9.57
  -7  -4  15   17.47    7.91
   7  -4  15   21.86    8.22
   7   4  16  119.66   17.38
   7  -4  16  140.33   20.88
  -7  -4  16  114.64   19.46
  -7   4  16  107.66   17.27
   7   4  17  107.02   17.36
   7  -4  17  119.01   19.84
  -7  -4  17   83.90   17.45
  -7   4  17   81.96   16.52
  -7   4  17  107.23   18.61
   7   4  18   84.96   15.00
   7  -4  18  126.97   20.72
  -7   4  18   88.21   18.42
  -7  -4  18   79.94   17.36
  -7   4  18   95.87   19.48
   7   4  19   47.53   12.60
  -7   4  19   44.85   13.02
  -7  -4  19   39.58   12.24
   7  -4  19   32.09   10.21
   7   4  20  150.54   21.65
  -7   4  20  100.40   20.94
  -7  -4  20   93.67   17.65
   7  -4  20   98.98   18.03
   7   4  21    9.92    9.91
  -7   4  21   22.02    6.74
  -7  -4  21    9.18    3.03
   7  -4  21    1.23    5.80
   7   4  22    6.10    6.54
  -7   4  22   13.89   10.00
  -7  -4  22   20.86    9.90
   7  -4  22   18.32   10.37
   7   4  23   18.85   11.19
  -7   4  23   12.12    9.14
   7  -4  23    5.45    4.86
  -7  -4  23   -3.36    6.74
   7   4  24   13.79    5.73
  -7   4  24   31.53   12.97
   7  -4  24   40.85   12.07
  -7  -4  24   18.66   10.68
   7  -4  24   29.67   14.20
   7   4  25   22.29    9.25
   7  -4  25   24.80   10.06
  -7   4  25   23.88   10.91
  -7  -4  25    5.53   10.23
   7  -4  25   22.65    8.10
   7   4  26   -0.21    5.12
   7  -4  26   17.71    6.05
  -7   4  26   18.62    7.31
  -7  -4  26   12.11    6.46
   7  -4  26   13.46    6.67
  -7  -5   0   14.30    8.78
   7  -5   0    2.67    6.17
   7  -5   1   15.32    7.75
  -7  -5   1    6.43    5.05
   7  -5  -1    7.38    6.37
  -7   5   1   18.54    9.59
  -7  -5   2   23.99    8.26
  -7   5   2   29.30   10.04
   7  -5  -2   34.02   11.41
   7  -5   2   38.78   10.49
  -7  -5   3   67.09   12.05
   7  -5   3   73.32   14.62
  -7   5   3   48.81   12.24
   7  -5  -3   60.79   13.50
  -7  -5   4   22.80    6.67
  -7   5   4   20.16    7.91
   7  -5   4   22.35    6.73
   7  -5  -4   16.58    5.64
  -7  -5   5    9.63    4.55
   7  -5  -5    4.43    5.53
   7  -5  -5   10.44    5.22
  -7   5   5    6.71    6.76
   7  -5   5   13.72    5.47
  -7  -5   6   94.40   14.62
   7  -5  -6  103.18   14.35
  -7   5   6  135.36   19.70
   7  -5  -6   94.60   17.06
   7  -5   6   98.37   16.26
  -7  -5   7  153.00   19.28
   7  -5  -7  150.53   17.17
  -7   5   7  131.43   20.23
   7  -5  -7  198.58   23.73
   7  -5   7  170.33   20.37
  -7  -5   8    2.64    3.21
   7  -5   8    4.84    6.02
  -7   5   8   13.17    8.79
   7  -5  -8    9.05    5.64
   7  -5  -8   10.04    5.20
  -7  -5   9    0.60    2.20
   7  -5  -9    6.70    7.15
   7  -5   9    7.26    6.20
  -7   5   9    0.36    3.58
   7  -5  -9    5.93    4.77
  -7  -5  10    3.53    4.39
   7  -5  10   -5.82    6.47
  -7   5  10    3.79    3.94
   7  -5 -10    5.74    4.92
   7  -5 -10    0.04    2.12
   7  -5 -11   46.90    9.04
   7  -5  11   31.73    8.39
  -7   5  11   41.97   11.92
   7  -5 -11   56.30   13.11
  -7  -5  11   53.11   12.97
   7   5  12   12.64    5.86
   7  -5  12   29.49    7.57
  -7   5  12   25.78    9.64
   7  -5 -12   11.82    6.85
  -7  -5  12   44.90   12.79
   7  -5 -12   26.55    8.50
   7  -5  13    4.54    4.12
   7   5  13    0.52    6.50
  -7   5  13    0.58    4.96
   7  -5 -13   -1.14    3.40
  -7  -5  13   16.19    9.93
   7  -5 -13   -2.40    4.11
   7  -5  14   15.07    7.69
   7   5  14    4.72    3.38
  -7   5  14    7.11    9.23
  -7  -5  14   16.40    9.08
   7  -5 -14   14.63    7.83
   7  -5  15   15.05    9.60
   7   5  15   32.88    9.21
  -7   5  15   14.42    6.83
  -7  -5  15   30.05    9.34
   7  -5 -15   26.34    8.41
   7  -5  16   37.82   11.69
   7   5  16   16.51    6.05
  -7   5  16   20.99    9.22
  -7  -5  16   51.75   13.39
   7  -5 -16   41.42   12.04
   7   5  17   17.32    7.51
  -7   5  17   17.60    5.90
  -7  -5  17   16.89    6.70
   7  -5 -17   13.30    6.10
   7  -5  17   17.04    7.33
   7   5  18    3.66    4.69
  -7   5  18    3.21    5.34
  -7  -5  18    5.06    5.89
   7  -5 -18   11.85    9.24
   7  -5  18   14.14   12.46
   7   5  19   -5.75    8.33
  -7   5  19    3.60    4.51
  -7  -5  19   10.18    8.57
   7  -5 -19    2.55    5.52
  -7   5  19   -4.11    7.59
   7  -5  19   11.32    7.89
   7   5  20   -2.11    7.21
  -7  -5  20    6.81    8.47
  -7   5  20    7.12    5.49
   7  -5  20   10.25    8.88
   7   5  21   -1.74    5.10
  -7   5  21    4.33    6.53
  -7  -5  21    1.09    6.96
   7  -5  21   -4.53    6.24
  -7   5  21   15.99   13.67
   7   5  22   49.97   15.51
  -7   5  22   41.60   13.41
  -7  -5  22   58.15   16.44
   7  -5  22   24.84    9.88
   7   5  23   27.12   12.18
  -7   5  23   49.16   14.29
  -7  -5  23   18.31   10.56
   7  -5  23   27.11   10.74
   7   5  24   31.09   12.61
  -7   5  24   60.20   14.19
   7  -5  24   71.84   17.65
  -7  -5  24   33.22   12.87
   7  -5  24   76.17   16.41
   7   5  25    8.87    9.06
  -7   5  25    1.33    6.53
   7  -5  25   -3.94    8.22
  -7  -5  25    8.00    4.46
   7  -5  25   -3.90    6.15
  -7  -6   0    5.88    6.48
   7  -6   0    4.70    6.38
  -7  -6   1  381.32   29.97
  -7  -6  -1  372.10   30.22
   7  -6   1  427.66   35.21
   7  -6  -1  415.15   35.01
  -7  -6   2  448.72   32.87
  -7  -6  -2  465.91   33.18
   7  -6   2  489.26   37.97
  -7   6   2  536.80   39.51
   7  -6  -2  440.34   35.75
  -7  -6   3    1.73    3.08
  -7   6   3   -0.46    3.89
   7  -6  -3    1.81    3.43
   7  -6   3    6.72    5.96
  -7  -6   4    3.11    4.40
  -7   6   4    3.66    3.12
   7  -6   4   -3.63    4.85
   7  -6  -4    0.11    3.04
  -7  -6   5  493.22   35.19
   7  -6   5  545.86   40.09
   7  -6  -5  504.69   31.82
  -7   6   5  534.84   39.82
   7  -6  -5  514.24   38.09
  -7  -6   6   -1.15    3.78
   7  -6  -6    4.08    7.26
   7  -6  -6    0.47    3.59
  -7   6   6   -3.62    3.45
   7  -6   6    3.08    4.56
  -7  -6   7  136.32   19.63
   7  -6  -7  142.77   17.32
  -7   6   7  109.30   18.15
   7  -6  -7  162.14   21.91
   7  -6   7  148.77   20.62
  -7  -6   8   26.23    8.51
   7  -6   8   33.72    9.30
  -7   6   8   16.43    7.17
   7  -6  -8   16.22    5.76
   7  -6  -8   13.55    6.65
  -7  -6   9   84.33   15.09
   7  -6  -9   65.62   13.61
   7  -6   9   67.06   13.76
   7  -6  -9   77.38   13.92
  -7   6   9   83.84   17.27
  -7  -6  10  271.49   28.21
   7  -6 -10  259.73   28.12
   7  -6 -10  254.04   25.51
  -7   6  10  240.92   27.74
   7  -6  10  241.64   25.70
  -7  -6  11   60.89   12.38
   7  -6  11   45.57   12.23
  -7   6  11   37.27   11.14
   7  -6 -11   40.33    9.85
   7  -6 -11   37.11   11.28
   7  -6 -12  415.78   35.39
   7  -6 -12  411.40   34.11
  -7   6  12  401.40   36.87
   7  -6  12  470.91   36.75
  -7  -6  12  484.66   38.38
   7  -6 -13  145.87   21.46
   7  -6 -13  142.51   20.53
  -7   6  13  150.75   22.30
   7  -6  13  176.69   22.44
  -7  -6  13  109.53   19.84
   7  -6  14    4.81    5.55
   7  -6 -14   11.42    7.77
  -7   6  14   -1.47    3.98
   7  -6 -14    7.41    6.46
   7  -6  15   21.55   10.39
  -7   6  15   -1.57    7.64
   7  -6 -15    5.99    3.90
   7  -6 -15   29.69   11.48
  -7   6  16  110.38   21.42
   7  -6 -16  124.73   20.05
   7  -6  16   95.36   17.93
   7   6  16  141.60   21.18
   7  -6  17   31.10   10.15
   7   6  17   39.72   11.42
  -7   6  17   38.49   12.15
   7  -6 -17   34.56   10.12
   7   6  18   12.74    5.91
  -7   6  18   18.30    9.81
   7  -6 -18   19.40    9.15
   7  -6  18   21.73    8.56
   7   6  19   35.63   11.91
  -7   6  19   14.60    6.68
   7  -6 -19   14.33    7.43
   7  -6  19   29.96   10.41
   7   6  20   82.99   17.75
   7  -6  20  108.44   19.49
  -7   6  20   79.37   17.49
   7  -6 -20   83.16   17.80
   7   6  21   -5.80    7.82
  -7   6  21   -2.75    5.62
   7  -6 -21    1.55    4.74
  -7   6  21    8.96    8.44
   7  -6  21   11.05    8.30
   7   6  22   19.12   10.06
  -7   6  22    8.83    8.16
   7  -6 -22    6.18    5.59
  -7   6  22   17.65    9.19
   7  -6  22   33.58   11.64
   7   6  23   51.87   13.77
  -7   6  23   75.00   16.67
   7  -6 -23   35.74   10.31
   7  -6  23   60.66   15.77
   7   6  24   13.60    7.22
  -7   6  24   -8.14    4.24
   7  -6 -24   -1.35    3.50
   7  -6  24    8.01    3.87
  -7  -7   0    6.97    5.67
   7  -7   0   -5.34    6.57
  -7  -7   1   -0.08    4.26
   7  -7   1    7.52    4.51
  -7  -7  -1    7.75    6.50
   7  -7  -1   -4.91    7.54
  -7  -7   2   68.82   14.53
  -7  -7  -2   55.08   12.28
   7  -7   2   98.49   18.27
  -7   7   2  104.86   17.61
   7  -7  -2   80.92   15.51
  -7  -7   3  170.20   21.38
  -7  -7  -3  107.70   18.11
   7  -7   3  137.05   21.29
  -7   7   3  127.17   19.79
   7  -7  -3  162.31   22.77
  -7  -7   4    2.19    5.84
  -7  -7  -4  -14.32    6.15
  -7   7   4    6.97   10.25
   7  -7   4    3.80    5.75
   7  -7  -4    3.47    2.82
   7  -7  -5   31.44    9.44
  -7  -7   5   21.20    6.10
  -7   7   5   35.04   11.10
   7  -7   5   35.46    9.82
  -7  -7   6   -3.51    4.20
   7  -7  -6   -3.52    6.17
   7  -7  -6    2.36    4.48
  -7   7   6   -4.11    4.95
   7  -7   6   -2.17    3.43
  -7  -7   7   19.39    7.42
   7  -7  -7   13.72    6.89
   7  -7  -7   18.87    8.25
  -7   7   7    7.88    3.79
   7  -7   7   10.73    4.72
  -7  -7   8    2.62    7.68
   7  -7   8    3.24    5.58
   7  -7  -8    1.09    5.61
  -7   7   8    0.98    6.07
   7  -7  -8   -1.10    6.52
  -7  -7   9  102.96   16.68
  -7   7   9   99.27   18.03
   7  -7  -9   83.86   15.40
   7  -7  -9   82.26   15.18
   7  -7   9  114.30   16.90
  -7  -7  10   14.04    7.37
   7  -7 -10    9.93    5.91
   7  -7  10   12.44    6.50
  -7   7  10   29.71   12.85
   7  -7 -10   15.61    6.99
  -7  -7  11   25.17   10.94
   7  -7  11   39.48   10.99
   7  -7 -11   26.35   12.20
  -7   7  11   29.57    8.04
   7  -7 -11   29.07    7.96
  -7  -7  12   11.97    4.72
   7  -7  12   13.46    6.02
  -7   7  12   26.44   10.06
   7  -7 -12   20.50    8.54
   7  -7 -12   17.74    9.41
   7  -7 -13  265.34   29.00
   7  -7 -13  227.23   27.45
  -7   7  13  281.71   30.88
   7  -7  13  245.12   26.68
  -7  -7  13  246.30   29.12
  -7  -7  14   40.42   10.88
   7  -7  14   27.32    9.60
   7  -7 -14   61.10   14.56
  -7   7  14   42.42   13.90
   7  -7 -14   47.37   12.57
   7  -7  15    9.69    8.31
  -7   7  15    3.62    6.18
   7  -7 -15   -3.50    5.81
   7  -7 -15    6.06    6.67
  -7  -7  15   -4.72    6.85
   7  -7  16   24.99    9.22
  -7   7  16   29.64   11.31
   7  -7 -16   13.29    8.69
   7  -7 -16   19.52    8.88
   7  -7  17   10.50    2.93
   7  -7 -17   22.34    8.62
  -7   7  17   29.32   11.55
   7  -7 -17   22.19   10.18
   7  -7  18    2.95    3.32
  -7   7  18   -2.06    5.44
  -7   7  19   68.34   17.11
   7  -7 -19   62.71   15.87
   7  -7  19   44.65   13.02
  -7   7  20  100.69   19.39
   7  -7 -20   58.37   15.09
   7  -7  20  100.56   19.04
  -7   7  21   78.77   17.10
   7  -7 -21   74.19   17.38
   7  -7  21   63.51   17.06
  -7   7  22   18.73   10.15
   7  -7 -22   28.89   12.32
   7  -7  22   45.61   13.08
  -7   7  23   58.70   14.64
   7  -7 -23   27.75   11.46
   7  -7  23   52.97   12.11
  -7  -8   0    3.14    5.64
   7  -8   0   -1.61    2.80
  -7  -8   1  522.33   39.06
  -7  -8  -1  507.59   38.83
   7  -8   1  554.73   43.11
   7  -8  -1  502.16   41.85
   7  -8   2   33.48   12.70
  -7  -8   2   45.76   12.27
  -7  -8  -2   28.26    9.65
   7  -8  -2   30.13   12.74
   7  -8   3   66.42   14.58
  -7  -8   3   74.95   15.81
  -7  -8  -3   66.98   16.30
  -7   8   3   87.55   17.29
   7  -8  -3   68.36   14.54
  -7  -8   4   14.97    7.35
  -7  -8  -4   28.63   13.32
  -7   8   4   29.98   11.58
   7  -8   4   22.22    7.30
   7  -8  -4   31.94   10.68
   7  -8  -5   59.28   13.02
  -7  -8   5   55.10   12.78
  -7  -8  -5   65.14   15.52
  -7   8   5   91.36   18.68
   7  -8   5   55.40   13.96
  -7  -8   6    3.18    6.04
   7  -8  -6    2.97    4.16
  -7   8   6   -4.62    6.89
   7  -8   6    0.19    2.92
  -7  -8   7  119.62   18.94
   7  -8  -7  113.81   18.65
  -7   8   7   93.83   18.03
   7  -8   7   66.73   15.63
   7  -8  -7  108.05   18.90
  -7  -8   8   -4.41    7.01
   7  -8  -8    9.32    5.49
  -7   8   8    5.99    7.62
   7  -8  -8    0.69    4.70
   7  -8   8   -6.36    7.45
  -7  -8   9  306.90   31.94
   7  -8  -9  386.11   34.13
  -7   8   9  325.05   31.95
   7  -8   9  371.67   33.40
   7  -8  -9  415.44   38.06
  -7  -8  10   28.34    9.46
   7  -8  10    6.01    5.73
   7  -8 -10   20.51    9.03
  -7   8  10    8.65    7.32
   7  -8 -10   14.52    4.22
  -7  -8  11   16.97    9.62
   7  -8 -11   29.56   12.10
   7  -8  11   15.44    7.25
  -7   8  11   16.87    8.65
   7  -8 -11    0.74    6.57
  -7  -8  12   16.89    6.09
   7  -8  12   46.79   12.36
   7  -8 -12   43.67   12.84
  -7   8  12    9.86    3.62
   7  -8 -12    3.05    5.73
  -7  -8  13   53.35   14.68
   7  -8  13   45.51   12.09
  -7   8  13   46.77   13.03
   7  -8 -13   49.74   11.41
   7  -8 -13   66.31   14.47
  -7  -8  14   35.79   11.79
   7  -8  14   11.72    7.47
  -7   8  14   28.71   10.50
   7  -8 -14   21.59   10.92
   7  -8 -14   16.64    5.12
   7  -8 -15  156.85   23.88
   7  -8 -15  136.35   22.39
  -7   8  15  116.13   20.48
   7  -8  15  130.97   20.95
  -7  -8  15  147.48   22.48
   7  -8  16    3.58    6.05
  -7   8  16   13.53    8.11
   7  -8 -16    7.16    9.90
   7  -8 -16    0.03    7.07
  -7  -8  16   -5.15    3.42
   7  -8 -17  140.33   22.01
  -7   8  17  118.49   22.42
   7  -8 -17  139.52   23.01
   7  -8  17  122.50   21.92
   7  -8  18   22.45    7.89
  -7   8  18   12.70    4.73
   7  -8 -18    2.86    5.99
   7  -8 -18    4.73    7.86
   7  -8 -19  187.04   26.57
  -7   8  19  155.98   24.01
   7  -8  19  135.63   21.26
   7  -8 -19  144.18   23.44
  -7   8  20   32.55   11.33
   7  -8 -20   22.52    9.89
   7  -8  20   21.16   10.53
  -7   8  21   13.99    5.55
   7  -8 -21   40.22   13.43
   7  -8  21   28.50   10.48
  -7   8  22   97.62   18.86
   7  -8 -22   61.09   16.36
   7  -8  22  117.29   21.47
  -7  -9   0   -4.75    4.25
   7  -9   0    0.92    5.74
  -7  -9   1    2.96    5.76
  -7  -9  -1   -1.48    6.30
   7  -9   1   11.04    7.71
   7  -9  -1   19.76    9.36
   7  -9   2   -4.28    5.89
  -7  -9   2    1.31    5.45
  -7  -9  -2    3.36    7.90
   7  -9  -2    1.95    8.55
   7  -9   3   -6.66    8.26
  -7  -9   3   -7.31    7.60
  -7  -9  -3   -1.60    4.16
   7  -9  -3    3.77    4.65
  -7  -9   4   16.93    6.48
  -7  -9  -4   25.12    9.63
  -7   9   4   23.19   11.63
   7  -9  -4    7.64    6.68
   7  -9   4    4.06    7.92
  -7  -9   5  180.76   24.51
  -7  -9  -5  146.16   24.57
   7  -9   5  161.28   22.89
  -7   9   5  175.19   24.38
   7  -9  -5  156.68   24.46
   7  -9  -6    7.92    7.01
  -7  -9   6    1.87    3.55
  -7  -9  -6   -4.79    2.50
  -7   9   6    0.68    3.35
   7  -9   6    0.94    3.37
  -7  -9   7  122.69   20.29
   7  -9   7   87.66   18.35
   7  -9  -7   71.50   15.39
  -7   9   7   95.73   18.49
  -7  -9   8   29.67   11.95
   7  -9  -8   30.33   11.96
   7  -9  -8   23.21    9.10
  -7   9   8   27.79    8.98
   7  -9   8   43.71   11.37
  -7  -9   9   27.07   10.96
   7  -9  -9   23.22   10.47
  -7   9   9   52.11   12.63
   7  -9   9   36.39   11.88
   7  -9  -9   21.13    9.83
  -7  -9  10    6.77    3.00
   7  -9  10    7.14    5.06
   7  -9 -10    5.61    3.98
  -7   9  10    1.91    6.30
   7  -9 -10   -6.61    5.98
  -7  -9  11   52.31   12.96
   7  -9  11   51.64   13.67
   7  -9 -11   56.65   14.96
  -7   9  11   71.31   15.08
   7  -9 -11   92.87   17.59
  -7  -9  12   -0.05    5.09
   7  -9 -12   -1.25    4.00
   7  -9  12    2.23    3.74
   7  -9 -12    1.65    4.95
  -7   9  12    0.55    4.29
  -7  -9  13   80.46   17.93
   7  -9  13   86.14   16.16
   7  -9 -13   81.57   18.97
  -7   9  13   77.84   16.17
   7  -9 -13   91.01   18.82
  -7  -9  14   11.66   10.17
   7  -9  14    5.85    3.64
   7  -9 -14   15.93   10.37
  -7   9  14    6.33    7.38
   7  -9 -14    8.48    7.31
  -7  -9  15    5.66    5.24
   7  -9  15   -1.79    4.56
  -7   9  15    0.61    3.46
   7  -9 -15    3.62    6.53
   7  -9 -15   -0.43    7.22
  -7  -9  16    5.44    7.62
   7  -9 -16   -7.39    8.27
   7  -9  16   -1.85    3.34
  -7   9  16    6.83    7.66
   7  -9 -16    4.61    5.40
   7  -9 -17  204.02   27.66
   7  -9 -17  254.86   30.99
  -7   9  17  208.30   29.53
   7  -9  17  199.74   26.87
  -7  -9  17  177.18   28.83
   7  -9  18    4.40    8.55
  -7   9  18   -1.17    6.51
   7  -9 -18   17.73    8.46
   7  -9 -18   20.05    9.18
  -7  -9  18   19.20   10.53
   7  -9  19    0.94    7.96
  -7   9  19   18.77   11.87
   7  -9 -19   22.23    9.75
   7  -9 -19    5.93    6.81
   7  -9  20   -3.52    6.80
   7  -9 -20    3.82    4.86
  -7   9  20    4.67    6.06
   7  -9 -20    0.34    7.72
  -7 -10   0   -0.13    6.06
   7 -10   0    4.59    7.22
  -7 -10   1    1.31    5.33
   7 -10   1   -1.78    5.28
  -7 -10  -1    6.62    5.28
   7 -10  -1   -0.86    5.95
  -7 -10  -2  115.03   19.98
  -7 -10   2   89.15   16.45
   7 -10   2  127.84   22.72
   7 -10  -2  113.85   20.85
   7 -10   3   51.71   14.77
  -7 -10   3   37.45   10.89
  -7 -10  -3   43.28   12.67
   7 -10  -3   65.35   16.65
  -7 -10   4    9.33    8.33
  -7 -10  -4   -3.35    4.41
   7 -10  -4    0.72    7.30
   7 -10   4   -2.60    6.39
  -7 -10   5    5.01    4.12
  -7 -10  -5   15.02    8.48
   7 -10   5    1.27    5.55
   7 -10  -5    9.02    7.98
  -7 -10   6   94.76   18.94
   7 -10  -6   82.82   17.42
  -7 -10  -6  117.14   22.50
  -7  10   6   71.31   17.06
   7 -10   6   82.47   17.64
   7 -10   7  118.07   19.65
  -7 -10   7   75.92   16.39
   7 -10  -7   98.84   18.27
  -7  10   7   79.55   16.91
  -7 -10   8   68.11   17.20
   7 -10  -8   65.45   15.30
  -7  10   8   85.03   17.11
   7 -10   8   70.44   14.87
  -7 -10   9   76.06   16.87
   7 -10  -9   72.89   16.23
  -7  10   9   97.12   19.23
   7 -10   9   89.93   18.43
  -7 -10  10  121.56   21.08
  -7  10  10  157.79   24.62
   7 -10 -10  126.21   22.71
   7 -10  10  144.64   22.24
  -7 -10  11    4.24    4.42
   7 -10  11   -8.73    4.01
   7 -10 -11   -2.58    7.52
  -7  10  11   -5.23    7.36
   7 -10 -11    1.68    4.61
  -7 -10  12  132.82   22.34
   7 -10 -12  122.29   21.89
  -7  10  12  161.33   25.46
   7 -10 -12  105.54   19.60
   7 -10  12  116.80   19.97
   7 -10 -13    5.53    4.04
  -7 -10  13   23.72    9.92
   7 -10 -13   18.65   10.05
  -7  10  13   19.98    6.43
  -7 -10  14    3.45    5.05
   7 -10 -14    7.99    5.33
   7 -10  14  -13.35   10.05
   7 -10 -14    0.90    8.39
  -7  10  14   10.14    6.54
  -7 -10  15   15.41    7.50
   7 -10  15   30.13   12.46
   7 -10 -15   29.85   10.98
   7 -10 -15   15.71    6.26
  -7  10  15   14.32    7.05
  -7 -10  16  186.47   27.52
   7 -10 -16  144.05   23.79
  -7  10  16  205.61   28.79
   7 -10 -16   99.00   19.27
   7 -10  16  178.89   26.34
  -7 -10  17   23.63   13.45
   7 -10  17   14.01    9.10
  -7  10  17   18.69    9.00
   7 -10 -17   -1.11    5.41
   7 -10 -17   11.17    9.50
   7 -10 -18   -6.53    6.39
  -7 -10  18    1.62    3.38
   7 -10  18   -0.46    5.94
  -7  10  18   -6.64    9.27
   7 -10 -18    4.44    9.42
   7 -10  19   17.30   10.49
   7 -10 -19    1.20    7.01
  -7  10  19   -6.60   10.12
   7 -10 -19    1.75    6.39
  -7 -10  19    9.03    9.83
  -7 -11   0    6.12    6.46
   7 -11   0   -0.90    5.28
  -7 -11   1    1.75    4.32
   7 -11   1   27.43   13.13
  -7 -11  -1   16.95    8.84
   7 -11  -1   12.48    8.06
   7 -11   2   16.36    9.51
  -7 -11   2   26.98   12.25
  -7 -11  -2    7.78    8.76
   7 -11  -2    5.80    6.60
   7 -11   3    9.24    5.50
  -7 -11   3    1.56    4.07
  -7 -11  -3    4.14    3.02
  -7 -11   4    8.61    8.03
  -7 -11  -4    3.07    4.52
   7 -11  -4   22.53    9.92
   7 -11   4   17.78    9.04
  -7 -11   5   15.41    8.87
  -7 -11  -5   21.99    9.74
   7 -11  -5   20.24    7.99
   7 -11   5   39.91   14.27
  -7 -11   6    3.12    3.75
   7 -11   6   -7.12    4.44
   7 -11  -6    0.45    5.52
   7 -11  -7   -0.27    5.32
  -7 -11   7    2.05    3.59
  -7  11   7   -3.16    4.36
   7 -11   7    1.97    5.96
   7 -11  -8   -6.99    4.98
  -7  11   8    4.42    4.54
   7 -11   8    2.00    4.34
  -7 -11   9    6.77    5.05
   7 -11  -9    6.67    6.25
  -7  11   9   11.86    9.86
   7 -11   9   -3.44    6.28
  -7 -11  10    2.63    6.22
   7 -11 -10  -12.81    8.12
  -7  11  10   -2.25    3.35
   7 -11  10   -2.95    4.43
  -7 -11  11    1.51    5.80
   7 -11  11    1.20    5.48
  -7  11  11    3.55    7.26
   7 -11 -11   10.76    7.70
  -7 -11  12   -9.84    9.52
   7 -11  12    1.65    6.05
  -7  11  12    2.41    3.83
   7 -11 -12   -1.19    4.82
  -7 -11  13   11.02    8.44
   7 -11  13   21.00    8.87
  -7  11  13   11.80    8.97
   7 -11 -13   16.59    8.38
  -7 -11  14    7.31    6.00
   7 -11  14    8.38    6.64
  -7  11  14   -6.43    8.25
   7 -11 -14   11.11    9.52
  -7 -11  15   19.87    8.83
   7 -11 -15   -4.11    5.50
   7 -11  15    9.51    7.26
   7 -11 -15    6.80    7.71
  -7  11  15   -0.96    6.92
  -7 -11  16    7.36    5.32
   7 -11  16   -9.54    8.10
   7 -11 -16   -4.67    3.82
   7 -11 -16    0.63    5.68
  -7  11  16    2.94    6.40
  -7 -12   0    4.38    8.12
   7 -12   0    4.68    3.73
   7 -12   1    4.10    7.21
  -7 -12   1   18.89   14.38
  -7 -12  -1    1.41    6.33
   7 -12  -1    2.66    6.35
   7 -12   2   55.18   14.74
  -7 -12   2   67.45   16.36
  -7 -12  -2   63.17   15.32
   7 -12  -2   96.44   18.68
   7 -12   3   99.55   19.95
  -7 -12   3   69.57   18.63
  -7 -12  -3   73.88   18.41
   7 -12  -3  109.19   20.14
  -7 -12   4   -9.03    6.77
  -7 -12  -4   -0.53    4.91
   7 -12  -4    1.31    3.55
   7 -12   4   -7.22    4.08
  -7 -12   5   -7.52    6.76
  -7 -12  -5    8.42    6.06
   7 -12  -5   -2.80    4.65
   7 -12   5   -1.41    5.83
  -7 -12   6   30.48   11.60
  -7 -12  -6   50.89   18.47
   7 -12   6   24.78    9.21
   7 -12  -6   24.63    9.78
   7 -12  -7   14.76    8.06
  -7 -12   7    5.07    6.66
  -7 -12  -7  -14.92    7.85
   7 -12   7   -3.11    6.23
   7 -12  -8   91.86   20.09
  -7 -12   8   72.50   16.25
   7 -12   8   50.93   15.11
   7 -12   9  108.94   20.45
  -7 -12   9   74.50   18.51
   7 -12  -9  100.75   21.21
  -7  12   9   88.85   19.56
  -7 -12  10   41.07   13.83
   7 -12 -10   33.76   12.78
  -7  12  10   20.76    7.22
   7 -12  10   28.92   12.87
  -7 -12  11    4.15    5.46
   7 -12 -11    7.74    7.95
   7 -12  11    5.09    7.36
  -7  12  11   17.12   10.34
  -7 -12  12    8.79    6.18
   7 -12  12   11.64    3.23
   7 -12 -12   10.78   10.71
  -7  12  12   18.05    7.60
  -7 -12  13  114.69   21.47
  -7  12  13   96.79   20.44
   7 -12 -13   94.92   20.95
   7 -12  13  110.34   20.92
  -7 -13   0    5.17    5.10
   7 -13   0   -2.44    8.01
   7 -13   1   60.95   16.59
  -7 -13   1   17.49   11.58
  -7 -13  -1   51.43   17.36
   7 -13  -1   58.66   16.34
   7 -13   2   13.28    9.15
  -7 -13   2    0.10    5.04
  -7 -13  -2   12.43   10.46
   7 -13  -2    7.89    7.43
   7 -13   3   -4.06    5.65
  -7 -13   3    3.01    7.39
  -7 -13  -3   -2.69    6.51
  -7 -13   4   -5.78    3.81
  -7 -13  -4    5.54    8.91
   7 -13  -4    7.98    6.91
   7 -13   4   -2.53    6.92
  -7 -13   5    0.90    8.33
  -7 -13  -5    2.81    3.57
   7 -13  -5    9.14    9.00
   7 -13   5   -3.52    5.71
  -7 -13   6    1.52    4.97
   7 -13  -6   -2.46    7.31
  -7 -13   7   15.71    9.38
   7 -13   7    7.86    5.97
   7 -13  -7   14.14    8.23
  -7 -13   8   -0.86    3.50
   7 -13   8   -0.06    7.29
   7 -13  -8   -3.97    3.94
   7 -13  -9   15.07   10.43
  -7 -13   9   35.38   12.54
   7 -13   9   28.00   11.16
  -8   0   1    1.22    3.17
  -8   0   2  113.36   17.76
  -8   0   3   -5.72    6.58
   8   0   4   86.39   11.68
  -8   0   4   97.25   16.48
  -8   0   5    5.98    4.76
   8   0   5   -1.46    2.52
   8   0   6   95.54   13.39
  -8   0   6  111.62   17.06
  -8   0   7    1.49    4.22
   8   0   7    0.35    4.46
  -8   0   8   33.30    8.03
   8   0   8   23.68    7.32
  -8   0   9   -2.15    5.21
   8   0   9    3.71    2.96
   8   0  10  695.27   39.84
  -8   0  10  702.45   44.17
  -8   0  11    6.93    2.21
   8   0  11    0.10    5.17
  -8   0  12    7.44    6.12
   8   0  12   24.24    8.99
  -8   0  13   -2.94    5.20
   8   0  13    5.23    5.09
   8   0  14  243.86   26.58
  -8   0  14  247.59   27.86
   8   0  15   -1.40    4.29
  -8   0  15    4.28    7.88
   8   0  16   49.82   12.92
  -8   0  16   32.40   12.08
   8   0  17    1.13    3.75
  -8   0  17    7.14    9.20
   8   0  18   61.56   15.35
  -8   0  18   74.81   15.70
   8   0  19    2.13    5.39
  -8   0  19   -2.11    7.64
   8   0  20   30.74   11.77
  -8   0  20   47.21   12.99
   8   0  21   -0.99    3.74
   8   0  21   -7.21    6.33
   8   0  22   42.97   13.12
   8   0  22   48.66   15.98
   8   0  23    0.43    5.27
  -8   0  23    6.91    3.23
   8   0  23   -6.93    5.90
   8   0  24   25.91   12.04
  -8   0  24    7.20    6.06
   8   0  24   18.46    8.05
   8   0  25    9.27    8.52
  -8   0  25    6.00    9.06
   8   0  25   -3.92    9.56
   8  -1   0  474.60   26.20
  -8  -1   1  395.14   31.42
  -8   1   1  442.76   34.32
   8  -1   1  363.56   24.16
   8  -1   2    4.75    4.66
  -8  -1   2    2.09    5.24
  -8   1   2   11.75    9.04
   8  -1   3   30.96    7.08
  -8   1   3   31.61   10.51
  -8  -1   3   34.18    9.40
  -8   1   4  381.68   31.98
  -8  -1   4  417.52   32.39
   8  -1   4  350.53   25.27
   8  -1   5    2.29    2.24
  -8   1   5   -0.31    3.17
  -8  -1   5    1.68    4.47
  -8   1   6  128.37   18.43
  -8  -1   6  153.25   20.34
   8  -1   6  129.99   16.11
  -8   1   7   98.95   17.30
  -8  -1   7   95.07   16.05
   8  -1   7  101.16   14.72
   8   1   8  102.28   14.44
   8  -1   8  111.66   15.06
  -8   1   8  125.99   20.02
  -8  -1   8  148.86   19.91
   8   1   9   26.31    7.66
  -8   1   9   35.32   10.42
  -8  -1   9   36.52   10.90
   8  -1   9   27.40    8.12
   8   1  10   54.79   11.14
  -8   1  10   50.44   12.94
  -8  -1  10   40.08    8.74
   8  -1  10   46.58   10.58
   8   1  11   22.10    7.16
  -8   1  11   27.53   10.01
  -8  -1  11   29.01    9.82
   8  -1  11   20.15    8.94
   8   1  12  395.08   31.10
   8  -1  12  326.15   29.68
  -8   1  12  405.07   34.34
  -8  -1  12  367.58   33.09
   8   1  13    0.92    7.18
  -8   1  13   18.67    8.34
  -8  -1  13    1.61    5.39
   8  -1  13    3.12    6.26
   8  -1  14   97.56   17.65
   8   1  14   78.78   15.98
  -8   1  14  106.41   18.26
  -8  -1  14  129.93   21.06
   8   1  15  140.99   20.99
   8  -1  15  107.91   18.22
  -8   1  15  150.09   22.27
  -8  -1  15  125.17   19.61
   8   1  16   47.63   11.27
  -8   1  16   77.28   15.86
  -8  -1  16   60.86   13.78
   8  -1  16   75.84   15.28
   8   1  17   56.15   13.38
   8  -1  17   58.43   14.46
  -8   1  17   59.56   14.83
  -8  -1  17   25.62   11.38
   8   1  18  713.50   47.23
   8  -1  18  737.64   49.02
  -8   1  18  773.34   52.40
  -8  -1  18  651.17   48.54
   8   1  19    0.26    4.20
   8  -1  19    1.78    3.84
  -8   1  19    2.51    8.82
  -8  -1  19    6.58    3.63
   8   1  20    0.56    5.57
   8  -1  20    4.71    6.34
  -8   1  20    3.66    3.80
  -8  -1  20    0.03    8.78
   8   1  20   -1.71    6.12
   8   1  21   45.31   11.40
   8  -1  21   40.25   12.36
  -8   1  21   57.48   16.13
  -8  -1  21   63.20   14.77
   8   1  21   38.33    9.38
   8   1  22  199.14   26.75
   8  -1  22  147.38   23.43
  -8   1  22  132.52   22.97
  -8  -1  22  146.91   22.75
   8   1  22  170.06   24.36
   8  -1  22  112.60   22.42
   8   1  23    3.99    6.24
   8  -1  23    1.01    5.85
  -8   1  23    4.26    3.79
  -8  -1  23    3.25    5.64
   8   1  23   -3.14    5.69
   8  -1  23    7.44    7.30
   8  -1  24  155.25   24.93
   8   1  24  101.96   21.99
  -8   1  24   95.53   19.92
  -8  -1  24   91.02   20.37
   8  -1  24  135.46   23.56
   8   1  24   52.85   13.96
   8   1  25   89.63   18.64
   8  -1  25   56.29   12.70
  -8   1  25  105.35   21.49
  -8  -1  25   77.81   18.65
   8   1  25   62.58   16.82
   8  -1  25   83.88   19.03
   8  -2   0   57.45   10.71
   8  -2  -1  155.36   16.94
  -8  -2   1  171.09   20.07
  -8   2   1  156.85   21.05
   8  -2   1  143.41   16.11
   8  -2   2    7.22    3.90
  -8  -2   2   10.90    6.27
  -8   2   2   12.38    5.27
   8  -2  -2   12.00    4.30
   8  -2  -3  376.07   27.61
  -8   2   3  371.58   32.26
  -8  -2   3  452.77   33.36
   8  -2   3  454.30   29.58
   8  -2  -4   32.96    9.82
   8  -2   4   38.49    9.25
  -8   2   4   27.53    8.09
  -8  -2   4   38.06   10.17
   8  -2   5   33.13    8.14
   8  -2  -5   23.07    6.81
  -8   2   5   20.51    7.82
  -8  -2   5   37.05   10.04
  -8   2   6   95.16   16.65
  -8  -2   6  136.06   19.76
   8  -2   6  110.95   15.41
  -8   2   7  709.13   45.32
  -8  -2   7  692.17   42.61
   8  -2   7  650.10   37.90
   8  -2   8   23.22    9.22
  -8   2   8   27.47    8.93
  -8  -2   8   23.39    8.39
  -8   2   9   14.42    7.41
  -8  -2   9   19.32    8.52
   8  -2   9    3.35    6.77
  -8   2  10    7.21    7.33
  -8  -2  10    4.53    6.14
   8  -2  10   -2.97    4.67
   8   2  11  222.91   22.49
   8  -2  11  161.28   20.26
  -8   2  11  196.37   24.45
  -8  -2  11  177.95   21.78
   8   2  12   70.10   14.82
  -8   2  12   55.14   13.76
  -8  -2  12   77.81   15.07
   8  -2  12   61.38   13.13
   8   2  13   43.93   10.80
  -8   2  13   37.85   11.64
  -8  -2  13   56.99   13.23
   8  -2  13   27.56    8.33
   8   2  14   17.59    6.17
  -8   2  14   31.60   12.77
  -8  -2  14   60.37   14.90
   8  -2  14   49.97   13.50
   8   2  15    8.34    5.23
  -8   2  15   14.40    9.53
  -8  -2  15    2.77    6.39
   8  -2  15    0.54    3.76
   8   2  16    1.44    5.87
  -8   2  16    1.15    3.23
  -8  -2  16    4.35    7.76
   8  -2  16    9.12    2.94
   8   2  17    6.39    5.06
  -8   2  17    1.49    4.99
  -8  -2  17    8.04    8.93
   8  -2  17   -9.02    5.64
   8   2  18    8.27    6.52
  -8   2  18    2.87    5.19
  -8  -2  18   14.04    8.83
   8  -2  18    6.80    3.14
   8   2  18    3.25    6.62
   8   2  19   95.27   16.54
  -8   2  19   83.83   17.89
   8  -2  19  105.31   19.42
  -8  -2  19   43.61   13.18
   8   2  19   52.97   14.14
   8   2  20   29.71    8.03
   8  -2  20   51.99   13.61
  -8   2  20   26.41    9.92
  -8  -2  20   37.68   11.89
   8   2  20   28.70    8.13
   8   2  21  225.95   29.46
   8  -2  21  189.52   26.29
  -8   2  21  175.51   26.09
  -8  -2  21  202.63   28.01
   8   2  21  247.52   31.21
   8   2  22    7.07    6.35
   8  -2  22    1.12    6.03
  -8   2  22   -5.27    5.44
  -8  -2  22    1.81    5.37
   8   2  22   -8.09    6.26
   8   2  23    5.31    5.25
   8  -2  23   -5.33    4.38
  -8   2  23    0.53    6.30
  -8  -2  23   10.44   13.19
   8   2  23   -9.30    6.76
   8  -2  23   -2.60    5.82
   8   2  24   -7.31    6.66
   8  -2  24   -3.64    7.28
  -8   2  24   -4.57    4.79
  -8  -2  24   14.85    9.33
   8  -2  24   18.84   11.39
   8   2  25   -1.42    4.22
   8  -2  25    0.03    4.70
  -8   2  25   -0.46    5.14
  -8  -2  25  -11.94    8.27
   8  -2  25   -3.37    8.01
   8  -3   0   55.41   11.15
  -8   3   1   70.10   14.21
   8  -3   1   47.99   10.19
   8  -3  -1   49.73   10.78
   8  -3  -2   36.00    9.48
  -8  -3   2   40.44   12.02
  -8   3   2   21.50    8.71
   8  -3   2   29.47    7.72
   8  -3  -3  106.42   16.37
  -8   3   3  161.05   22.31
  -8  -3   3  133.91   18.00
   8  -3   3  157.09   18.25
  -8   3   4  120.13   18.47
   8  -3  -4   91.63   15.36
  -8  -3   4  102.53   16.17
   8  -3   4  109.24   15.36
   8  -3   5   37.55    9.19
  -8   3   5   42.14   11.68
  -8  -3   5   30.66    8.81
   8  -3  -5   27.27    9.65
  -8   3   6  378.24   33.51
  -8  -3   6  337.57   29.48
   8  -3  -6  372.73   29.95
   8  -3   6  408.52   31.02
  -8   3   7  155.50   22.29
  -8  -3   7  134.02   18.52
   8  -3   7  134.03   17.87
   8  -3  -7  135.63   18.62
  -8   3   8  194.08   24.42
  -8  -3   8  182.80   22.38
   8  -3   8  217.08   23.16
   8  -3  -8  183.07   20.95
   8  -3   9   -1.09    4.29
   8  -3  -9    0.38    4.56
  -8   3   9   -0.02    6.94
  -8  -3   9   -2.01    4.27
   8  -3  10    6.37    7.07
  -8   3  10    5.40    5.06
  -8  -3  10    4.38    3.53
   8  -3 -10    2.77    2.89
  -8   3  11  133.47   20.11
  -8  -3  11  151.88   20.30
   8  -3  11  189.70   23.26
  -8   3  12   -2.60    5.38
  -8  -3  12   -4.87    4.60
   8  -3  12   -0.24    2.89
  -8  -3  13    7.67    3.73
   8  -3  13    9.35    6.20
  -8   3  14   12.75    7.04
  -8  -3  14   27.64   10.54
   8  -3  14   14.22    6.36
   8   3  15   33.08    9.91
  -8   3  15   51.30   14.16
   8  -3  15   35.63   11.56
   8   3  16   37.46   10.05
  -8   3  16   15.95    8.14
   8  -3  16   33.68   10.71
   8   3  17  170.66   22.69
   8  -3  17  171.12   23.11
  -8   3  17  155.13   22.78
  -8  -3  17  180.62   25.37
   8   3  18   -1.48    4.14
  -8   3  18    1.16    6.82
  -8  -3  18    2.86    6.74
   8  -3  18   -1.58    4.98
   8   3  19  184.48   24.84
   8  -3  19  201.47   26.52
  -8   3  19  210.40   27.36
  -8  -3  19  149.79   23.17
   8   3  20    9.29    6.54
  -8   3  20    5.42    3.26
  -8  -3  20   -4.75    8.00
   8  -3  20   16.38    6.78
   8   3  21   63.48   16.61
   8  -3  21  129.00   21.93
  -8   3  21  118.38   20.05
  -8  -3  21   97.44   17.91
   8   3  22   61.13   13.30
  -8   3  22   65.30   17.63
   8  -3  22   54.67   13.71
  -8  -3  22   69.83   19.05
   8   3  23    4.72    8.65
   8  -3  23   -5.89    6.28
  -8   3  23   19.49    8.33
  -8  -3  23    1.63    6.70
   8   3  24   14.73    8.83
   8  -3  24    3.42    6.60
  -8   3  24    6.71    5.54
  -8  -3  24   11.02   12.76
   8  -3  24    0.03    5.36
   8   3  25   18.64    5.81
   8  -3  25   10.55    7.78
  -8   3  25   30.63   11.87
  -8  -3  25   26.48   11.74
   8  -4   0   18.29    7.76
   8  -4  -1   84.96   15.40
  -8   4   1   63.08   14.39
   8  -4   1   88.68   13.81
   8  -4   2  262.84   25.55
   8  -4  -2  277.90   27.49
  -8   4   2  253.92   27.68
   8  -4  -3    3.75    5.67
  -8   4   3    2.62    3.70
   8  -4   3   -2.03    4.87
   8  -4   4   21.52    7.22
  -8   4   4   20.99    8.58
   8  -4  -4   20.34    9.78
  -8   4   5  371.48   32.79
   8  -4  -5  319.08   29.36
   8  -4   5  341.57   28.90
  -8   4   6   98.74   17.03
   8  -4  -6  125.31   18.82
   8  -4   6  104.58   16.11
   8  -4  -7   80.82   14.16
  -8   4   7   99.57   16.88
   8  -4   7   88.63   15.43
  -8   4   8  189.72   24.55
   8  -4  -8  142.02   21.52
   8  -4   9   34.34    8.82
   8  -4  -9   21.60    8.38
   8  -4  10   40.02   11.84
  -8  -4  10   68.52   16.10
  -8   4  10   49.84   14.60
   8  -4 -10   77.53   14.38
   8  -4  11   26.59    8.67
   8  -4 -11   41.27   12.01
  -8   4  11   43.04   13.56
  -8  -4  11   26.43    8.33
   8  -4  12   11.85    6.93
   8  -4 -12   20.08    8.97
  -8   4  12   20.93    9.22
  -8  -4  12   20.53    8.77
   8  -4  13   15.22    8.35
  -8   4  13    2.62    3.18
  -8  -4  13   11.59    8.15
   8  -4 -13   13.93    6.62
   8  -4 -14   12.17    6.67
  -8   4  14    7.11    4.46
   8  -4  14    4.27    4.62
  -8   4  15   42.81   11.40
  -8  -4  15   48.29   14.69
   8  -4 -15   57.23   13.23
   8  -4  15   34.43   10.33
  -8   4  16    9.03    5.95
  -8  -4  16   -2.44    5.98
   8  -4  16    9.41    6.26
  -8   4  17   62.61   14.18
  -8  -4  17   39.74   10.76
   8  -4  17   48.06   13.22
  -8   4  18   89.50   17.55
  -8  -4  18  103.23   18.76
   8  -4  18   80.88   16.27
  -8   4  19   47.34   12.39
  -8  -4  19   60.51   13.66
   8  -4  19   75.45   15.98
  -8   4  20   13.77   10.13
  -8  -4  20   24.83   10.06
   8  -4  20   39.19   14.24
  -8   4  21    8.96    8.73
  -8  -4  21   -3.18    7.89
   8  -4  21    9.76    8.72
  -8   4  22    5.77    5.68
  -8  -4  22    1.32    4.63
   8  -4  22    4.03    6.45
  -8   4  23   -5.26    4.62
   8  -4  23    4.44    5.42
  -8  -4  23    1.79    3.75
  -8   4  24   13.47    8.33
   8  -4  24    4.47    3.89
  -8  -4  24    7.24    8.27
   8  -4  24    3.47    7.99
   8  -5   0 1404.97   63.45
   8  -5   1   94.22   16.63
   8  -5  -1   95.16   17.07
   8  -5  -2    6.03    6.72
  -8   5   2    3.12    3.55
   8  -5   2   11.19    7.14
   8  -5   3  116.07   17.80
   8  -5  -3  100.69   16.75
  -8   5   3  115.44   20.33
  -8   5   4  111.06   18.43
   8  -5  -4   80.00   16.77
   8  -5   4   83.51   14.88
  -8   5   5   62.76   13.62
   8  -5  -5   91.07   15.52
   8  -5   5   90.57   16.66
  -8   5   6  205.06   25.06
   8  -5  -6  161.64   21.80
   8  -5   6  181.21   22.20
  -8   5   7  106.90   18.37
   8  -5  -7   99.33   17.47
   8  -5   7   85.33   16.01
   8  -5   8   78.40   14.03
   8  -5  -8   74.66   14.99
  -8   5   8   65.43   15.18
   8  -5   9   27.08    9.63
   8  -5  -9   53.20   12.56
  -8   5   9   34.70   11.93
   8  -5 -10  129.76   19.41
   8  -5  10   87.60   15.33
  -8   5  10   86.32   17.90
   8  -5 -11   27.82    9.55
   8  -5  11   29.06    8.86
  -8   5  11   25.53   10.28
   8  -5  12   -0.37    2.85
   8  -5 -12   -1.23    3.42
  -8   5  12   -5.31    3.38
   8  -5  13   26.47    9.90
  -8   5  13   17.24   12.22
   8  -5 -13   24.35    9.87
   8  -5 -14   40.07   10.43
   8  -5  14   61.67   15.64
  -8   5  14   48.01   12.95
   8  -5  15    5.96    6.41
   8  -5 -15    6.54    7.75
  -8   5  15    1.73    5.54
  -8   5  16   -0.61    3.44
   8  -5 -16   -8.45    7.08
   8  -5  16   -5.32    6.78
  -8   5  17    9.22    5.51
   8  -5 -17   16.97   10.58
   8  -5  17   26.88    9.50
  -8   5  18  122.15   20.78
   8  -5 -18   98.70   18.99
   8  -5  18   78.66   15.46
  -8   5  19    1.13    7.58
   8  -5 -19   -4.86    5.57
   8  -5  19    3.52    2.78
  -8   5  20   31.46   11.73
   8  -5 -20   26.27   10.79
   8  -5  20   10.54    6.29
  -8   5  21   20.34    6.76
   8  -5 -21   10.57    5.83
   8  -5  21   11.98    8.88
  -8   5  22   55.59   16.31
   8  -5 -22   38.07   11.89
   8  -5  22   41.19   12.42
  -8   5  23   -0.32    7.19
   8  -5 -23    0.58    4.58
   8  -5  23   -7.22    7.51
   8  -6   0   -0.59    5.00
   8  -6   1    5.84    7.89
   8  -6  -1   26.19    9.40
   8  -6   2  611.96   43.10
   8  -6  -2  656.23   45.53
  -8   6   2  571.07   42.89
   8  -6   3  215.64   25.60
  -8   6   3  190.51   25.00
   8  -6  -3  193.55   25.69
  -8   6   4   -0.56    6.88
   8  -6  -4    5.04    5.08
  -8   6   5   -2.79    4.58
   8  -6   5    3.44    6.03
   8  -6  -5    1.96    3.88
   8  -6   6    2.06    3.77
  -8   6   6    0.83    4.86
   8  -6  -6    0.12    5.38
   8  -6  -7   19.42   10.81
   8  -6   7    1.82    5.89
  -8   6   7    2.50    5.33
   8  -6  -8    6.27    4.87
   8  -6   8    5.77    5.93
  -8   6   8    3.44    5.38
   8  -6   9    4.81    2.73
   8  -6  -9    2.57    5.12
  -8   6   9   10.34    9.38
   8  -6  10   19.64    7.42
  -8   6  10   17.30    6.97
   8  -6 -10   24.52    7.11
   8  -6  11   33.03   10.87
  -8   6  11   21.50    9.89
   8  -6 -11   21.05    6.34
   8  -6 -12   78.52   15.46
   8  -6  12   76.52   15.34
  -8   6  12  100.74   18.30
   8  -6  13   -6.19    5.79
   8  -6 -13   -4.06    5.61
  -8   6  13   -5.89    8.45
   8  -6  14   34.62   11.54
  -8   6  14   46.96   11.28
   8  -6 -14   60.19   14.07
   8  -6 -15   11.43    8.02
   8  -6  15    6.07    7.88
  -8   6  15    2.81    3.01
   8  -6  16    2.95    5.72
   8  -6 -16    7.48    7.72
  -8   6  16   -9.37    5.78
  -8   6  17   27.06   13.80
   8  -6 -17   41.24   13.42
   8  -6  17   24.17   10.04
   8  -6 -18   51.64   13.89
  -8   6  18   43.96   13.34
   8  -6  18   41.42   12.88
   8  -6 -19    8.19    8.35
  -8   6  19    3.78    5.30
   8  -6  19    1.07    4.23
  -8   6  20    1.66    5.49
   8  -6  20   -2.10    6.43
  -8   6  21   37.77   13.39
   8  -6  21   23.42    8.01
  -8   6  22   14.82    4.30
   8  -6  22   20.65   10.35
   8  -7   0   19.54    5.80
   8  -7   1  263.17   28.43
   8  -7  -1  245.79   29.34
   8  -7  -2   15.17    9.54
   8  -7   2   -3.01    2.90
   8  -7   3  475.18   38.48
  -8   7   3  412.11   36.61
   8  -7  -3  444.26   39.54
  -8   7   4   60.88   16.88
   8  -7  -4   30.23   11.21
   8  -7   4   36.18   11.35
  -8   7   5   -1.43    4.10
   8  -7   5   -1.55    5.31
   8  -7  -5    2.31    3.59
   8  -7   6   -5.78    3.10
   8  -7  -6   -3.07    5.05
  -8   7   7  121.14   19.90
   8  -7  -7  142.40   21.81
   8  -7   7  114.12   19.99
   8  -7   8   96.98   17.39
  -8   7   8   93.78   17.15
   8  -7  -8  116.64   20.39
   8  -7   9   29.44    9.61
   8  -7  -9   15.17    4.94
  -8   7   9   14.28    4.78
  -8  -7  10  120.25   21.41
   8  -7  10   83.99   17.01
  -8   7  10  104.15   19.95
   8  -7 -10  100.49   19.14
   8  -7 -11  276.18   31.05
  -8   7  11  348.56   34.79
   8  -7  11  246.74   28.43
  -8  -7  11  312.12   33.03
  -8  -7  12   -4.03    6.41
   8  -7  12    8.29    7.38
  -8   7  12    8.04    7.92
   8  -7 -12   -4.92    7.54
   8  -7 -13   24.89    8.86
   8  -7  13   51.48   12.17
  -8   7  13   24.17   10.27
  -8  -7  13   24.30    8.92
   8  -7  14   17.00    6.77
   8  -7 -14   22.91    9.93
  -8   7  14   18.49   10.25
   8  -7  15   11.72    5.47
  -8   7  15   15.26    4.95
   8  -7 -15   13.22    4.76
   8  -7  16   13.35    7.41
  -8   7  16   -4.11    7.36
   8  -7 -16   -0.99    5.83
   8  -7  17   76.69   14.53
   8  -7 -17   92.31   19.59
  -8   7  17   72.67   17.57
   8  -7  18   13.02    9.81
   8  -7 -18   22.37   12.41
  -8   7  18    1.42    6.53
  -8   7  19   89.59   18.99
   8  -7 -19   99.81   18.14
   8  -7  19   87.42   17.64
   8  -7 -20   15.71    9.85
  -8   7  20   13.02    7.91
   8  -7  20   11.72    7.25
   8  -7 -21   72.28   17.86
  -8   7  21   27.77   10.31
   8  -7  21   66.10   16.21
   8  -8   0  260.71   30.54
   8  -8   1   58.09   16.24
   8  -8  -1   79.01   17.75
   8  -8  -2    0.19    7.96
   8  -8   2   -7.66    6.30
   8  -8  -3   13.01    6.61
   8  -8   3    7.03    7.03
  -8   8   4    6.44    4.76
   8  -8  -4   -0.53    7.05
   8  -8   4   15.83    8.01
  -8   8   5   83.98   16.60
   8  -8   5   63.10   16.43
   8  -8  -5   69.27   16.30
  -8   8   6   71.02   14.99
   8  -8   6   24.01   11.53
   8  -8  -6   49.12   15.23
  -8   8   7  142.19   23.24
   8  -8   7  109.14   18.21
   8  -8  -7  108.56   20.46
   8  -8  -8    1.13    4.62
   8  -8   8    6.32    5.69
  -8   8   8   -0.38    7.29
   8  -8  -9    2.31    5.64
   8  -8   9    7.56    8.15
  -8   8   9    6.56    5.83
  -8  -8  10   13.25   11.04
   8  -8  10    1.20    5.18
   8  -8 -10    5.72    7.30
  -8   8  10   11.21    3.03
  -8  -8  11  183.21   26.06
  -8   8  11  155.96   22.50
   8  -8  11  183.03   24.91
   8  -8 -11  162.15   25.46
  -8  -8  12    2.47    4.07
   8  -8  12   22.15    9.72
  -8   8  12    8.57    6.31
   8  -8 -12   25.04    6.47
   8  -8 -13    0.69    5.73
  -8  -8  13   -2.39    3.40
   8  -8  13   -5.34    8.21
  -8   8  13    3.14    7.17
  -8  -8  14    7.80    4.21
   8  -8 -14   -1.79    5.95
   8  -8  14    9.86    8.88
  -8   8  14   15.98   10.14
   8  -8 -15  134.31   22.02
  -8   8  15  188.54   27.49
   8  -8  15  172.79   23.52
  -8  -8  15  135.45   23.49
   8  -8  16   -4.22    5.99
   8  -8 -16    4.73    5.44
  -8   8  16    1.97   10.23
   8  -8  17   99.13   18.00
   8  -8 -17  136.84   24.17
  -8   8  17  133.69   24.44
   8  -8 -18   18.33    8.66
   8  -8  18    0.95    5.59
  -8   8  18    9.70    5.55
   8  -8  19   78.34   17.97
   8  -8 -19   96.08   19.73
  -8   8  19   44.92   13.21
   8  -8 -20   14.83    9.33
  -8   8  20   13.65    8.85
   8  -8  20   27.94   11.80
   8  -9   0  157.19   25.23
   8  -9   1   87.68   18.12
   8  -9  -1   91.94   19.64
   8  -9   2   68.34   15.91
   8  -9  -2   46.11   13.78
   8  -9  -3   60.25   17.05
   8  -9   3   75.67   17.00
   8  -9  -4   -0.33    4.59
   8  -9   4    2.46    5.95
  -8   9   5   33.26   11.82
   8  -9   5   42.52   14.84
   8  -9  -5   46.22   12.61
  -8   9   6   65.73   15.23
   8  -9   6   43.00   13.81
   8  -9  -6   16.90    6.48
   8  -9   7  321.72   33.35
   8  -9  -7  305.36   34.03
   8  -9  -8  114.08   20.96
  -8   9   8  119.15   19.81
   8  -9   8  123.96   20.58
   8  -9  -9   -0.06    4.02
   8  -9   9    4.86    4.92
  -8   9   9    2.81    7.87
  -8  -9  10   35.70   13.08
   8  -9 -10   22.02   11.17
   8  -9  10    9.65    8.59
  -8   9  10    7.21    6.59
  -8  -9  11   66.82   17.67
   8  -9  11   87.73   17.89
  -8   9  11  116.40   21.18
   8  -9 -11   78.09   18.19
  -8  -9  12   26.76    9.83
   8  -9  12   26.91   10.94
  -8   9  12   37.77   12.08
   8  -9 -12   35.79   12.26
  -8  -9  13   84.47   18.42
   8  -9  13   70.71   15.78
  -8   9  13   83.90   17.75
   8  -9 -13   62.58   14.92
  -8  -9  14   27.60    9.71
   8  -9  14   37.11   11.18
  -8   9  14   24.88   10.05
   8  -9 -14   24.67   12.33
  -8  -9  15   46.27   14.32
   8  -9 -15   31.10   13.25
   8  -9  15   52.72   13.54
  -8   9  15   51.43   13.52
   8  -9  16   12.38    6.33
   8  -9 -16    1.35    8.47
  -8   9  16   12.91   10.49
  -8  -9  16    6.56    6.08
   8  -9  17   39.80   11.05
   8  -9 -17   41.21   11.88
  -8   9  17   58.11   15.41
   8  -9 -18  157.34   26.61
  -8   9  18   80.33   16.61
   8  -9  18  123.64   22.57
   8 -10   0   -0.21    8.56
   8 -10   1   20.68    5.65
   8 -10  -1   20.75    4.26
   8 -10   2    5.43    6.28
   8 -10  -2   -1.18    7.91
   8 -10  -3    1.84    5.19
   8 -10   3   20.92    8.89
   8 -10  -4   74.97   17.67
   8 -10   4  103.90   19.72
   8 -10  -5   13.36   11.19
   8 -10   5   12.16    5.43
  -8  10   6   -6.60    8.40
   8 -10   6   -7.15    6.92
   8 -10  -6    1.89    6.58
  -8  10   7   26.90    9.50
   8 -10   7   39.04   12.23
   8 -10  -7   32.62   13.12
   8 -10  -8   10.88    8.85
  -8 -10   8   16.81    8.69
  -8  10   8   12.96    7.81
   8 -10   8   14.35    8.35
   8 -10  -9   16.08   10.00
   8 -10   9    5.61    5.08
  -8  10   9   10.26    8.11
  -8 -10  10   15.21   10.00
   8 -10 -10    3.22    6.01
   8 -10  10   -3.29    5.12
  -8  10  10   -1.42    8.96
  -8 -10  11   16.22    9.36
   8 -10 -11   19.27    9.42
   8 -10  11   18.06   10.18
  -8  10  11   15.17    7.80
  -8 -10  12   16.84    7.77
   8 -10  12   12.22    6.24
   8 -10 -12   25.48   13.36
  -8  10  12   24.59   12.76
  -8 -10  13   -6.98    5.19
   8 -10  13    2.32    7.68
  -8  10  13   15.42    8.87
   8 -10 -13    2.93    7.67
  -8 -10  14   86.06   19.17
  -8  10  14  144.98   24.09
   8 -10 -14  119.22   20.61
   8 -10  14  145.74   24.31
  -8 -10  15   -3.79    5.11
   8 -10  15    9.60    7.24
  -8  10  15    2.58    3.58
   8 -10 -15   -7.56    7.00
  -8 -10  16    7.17    6.28
   8 -10 -16    5.23    7.85
   8 -10  16   10.40   12.68
  -8  10  16   14.26    8.35
   8 -11   0   66.01   16.38
   8 -11   1    2.76    5.71
   8 -11  -1    5.33    3.95
   8 -11   2    2.57    5.80
   8 -11  -2   -4.94    7.70
   8 -11  -3   15.81    9.10
   8 -11   3   14.74   10.00
   8 -11   4  192.46   27.43
   8 -11  -4  190.32   28.68
   8 -11  -5    5.42    5.33
   8 -11   5   -8.03    5.37
   8 -11   6    3.43    5.58
   8 -11  -6    6.44    6.70
   8 -11   7    3.97    6.18
   8 -11  -7    4.31    4.72
  -8 -11   8   20.51   11.95
  -8  11   8   10.71    7.30
   8 -11   8   15.96    8.79
   8 -11  -8   23.48   10.11
   8 -11  -9   59.50   16.77
  -8  11   9   25.61    8.21
   8 -11   9   44.51   12.76
  -8 -11  10  127.62   22.81
   8 -11  10   94.03   18.85
  -8  11  10  102.29   21.30
   8 -11 -10  136.59   24.96
  -8 -11  11   13.50    7.41
   8 -11 -11    7.67    9.13
   8 -11  11   -2.46    4.04
  -8  11  11   10.55    6.79
  -8 -11  12   40.17   13.99
   8 -11 -12   26.39   12.92
   8 -11  12   44.45   13.79
  -8  11  12   51.26   13.37
  -8 -11  13    9.85   10.04
   8 -11  13    8.55    8.34
   8 -11 -13   15.30   12.59
  -8  11  13    3.11    6.22
   8 -12   0   31.37   11.84
   8 -12   1   53.10   15.78
   8 -12  -1   17.34    9.78
   8 -12  -2   -4.57    6.45
   8 -12   2  -17.01    8.64
   8 -12  -3   16.18   10.66
   8 -12   3   -7.35    6.76
   8 -12  -4    8.53    6.38
   8 -12   4   10.95    7.18
   8 -12  -5    9.59    6.79
   8 -12   5   14.76   11.37
   8 -12   6   22.87   10.50
   8 -12  -6   15.34    5.19
   8 -12   7   -0.48    4.55
   8 -12  -7   13.70   10.41
   8 -12   8   16.46    9.15
   8 -12  -8    0.67    5.70
  -8 -12   9   44.85   15.08
   8 -12   9   11.53    7.57
   8 -12  -9   19.75   11.80
   8 -12 -10   27.09   12.66
   8 -12  10   37.34   13.00
   8 -13   0    1.32    6.48
   8 -13   1   -7.27    7.17
   8 -13  -1    3.92    7.63
  -9   0   2   31.86   10.68
  -9   0   3    7.82    7.74
  -9   0   4    7.43    7.95
  -9   0   5    2.70    4.07
  -9   0   6   87.62   16.65
  -9   0   7    3.65    7.42
  -9   0   8   50.24   13.52
  -9   0   9    1.29    3.64
  -9   0  10   18.47    8.13
  -9   0  11   -3.92    4.23
  -9   0  12    9.87    4.89
  -9   0  13    3.64    4.36
  -9   0  14   64.17   17.29
  -9   0  15    1.18    4.59
   9   0  16   33.11   12.86
  -9   0  16   42.16   11.01
   9   0  17    0.56    3.61
  -9   0  17   -2.03    6.12
   9   0  18  114.04   19.90
  -9   0  18  146.34   23.12
   9   0  19    1.32    8.97
  -9   0  19    4.97    6.21
   9   0  20   73.64   15.46
  -9   0  20   73.29   18.00
   9   0  21   14.17    9.32
  -9   0  21    2.99    8.33
   9   0  22    3.82    6.53
  -9   0  22   -0.22    4.84
   9   0  22    6.18    4.20
   9   0  23  -11.04    8.57
  -9   0  23   17.11    7.43
   9   0  23   -1.88    8.19
  -9  -1   2  820.46   49.29
  -9   1   2  766.74   49.14
  -9  -1   3    4.80    7.41
  -9   1   3   -2.77    3.66
  -9   1   4  266.53   29.50
  -9  -1   4  257.20   26.89
  -9   1   5   54.77   14.50
  -9  -1   5   63.52   14.31
  -9   1   6  167.14   23.18
  -9  -1   6  196.49   24.18
  -9   1   7   13.21    8.09
  -9  -1   7    1.24    5.12
  -9   1   8  267.01   28.98
  -9  -1   8  355.40   32.00
  -9   1   9  192.37   24.45
  -9  -1   9  193.32   23.67
  -9   1  10  257.15   29.53
  -9  -1  10  296.38   29.92
  -9   1  11   17.51    6.08
  -9  -1  11   37.58   11.76
   9  -1  11   22.02    9.22
   9  -1  12  188.68   23.17
  -9   1  12  264.80   29.63
  -9  -1  12  234.20   26.29
  -9  -1  13  115.40   19.13
  -9   1  13   99.69   17.18
   9  -1  13   91.60   16.99
  -9   1  14    0.47    3.02
  -9  -1  14    5.44    5.34
   9  -1  14    5.05    4.44
  -9   1  15    3.82    5.78
  -9  -1  15    8.14    7.79
   9  -1  15    0.05    7.30
   9  -1  16  177.14   24.51
  -9   1  16  171.59   24.75
  -9  -1  16  164.87   24.11
   9  -1  17   42.74   12.56
  -9   1  17   17.44    9.61
  -9  -1  17   34.87   10.33
   9  -1  18   13.51    5.92
  -9   1  18   -2.79    3.32
  -9  -1  18   15.97    9.86
   9  -1  19   -3.10    7.22
  -9   1  19    4.64    8.08
  -9  -1  19    3.86    5.51
  -9   1  20  102.07   20.94
  -9  -1  20  107.50   21.86
   9  -1  20  116.29   21.29
   9   1  20   82.11   19.98
   9  -1  21    7.05    6.25
  -9   1  21   -1.24    4.07
  -9  -1  21    0.79    4.79
   9   1  21   -1.89    5.73
   9  -1  22   19.13   10.77
  -9   1  22   -1.00    7.81
  -9  -1  22   11.29    9.88
   9   1  22   19.30   13.09
   9  -1  23   69.93   18.13
  -9   1  23   47.56   14.22
  -9  -1  23   41.90   11.97
   9   1  23   68.64   17.77
   9  -1  23   44.72   15.30
  -9  -2   2   -0.24    2.49
  -9   2   2   -2.63    3.98
  -9  -2   3    2.50    3.07
  -9   2   3    5.96    4.26
  -9   2   4   10.53    9.61
  -9  -2   4    3.29    4.38
  -9   2   5  115.17   18.74
  -9  -2   5   85.50   15.61
   9  -2   6    1.69    4.45
  -9   2   6   19.33    9.81
  -9  -2   6    7.48    7.49
   9  -2   7   55.39   12.35
  -9   2   7   73.67   15.25
  -9  -2   7   57.58   14.58
  -9   2   8    7.30    3.65
  -9  -2   8    2.74    5.94
   9  -2   8   -0.85    3.23
  -9   2   9   67.85   15.56
  -9  -2   9   47.82   11.94
   9  -2   9   54.69   13.72
  -9   2  10   44.90   12.13
  -9  -2  10   35.81   10.28
   9  -2  10   44.02   11.27
  -9   2  11   -1.11    2.52
  -9  -2  11    4.55    3.76
   9  -2  11    4.06    6.20
  -9   2  12   30.91   11.65
  -9  -2  12   12.59    5.54
  -9   2  13    0.36    5.13
  -9  -2  13    6.25    7.59
   9  -2  13   -0.55    5.66
  -9   2  14   17.64    7.76
  -9  -2  14   18.31    7.82
   9  -2  14    4.94    4.57
   9  -2  15  163.56   23.31
  -9   2  15  130.18   20.44
  -9  -2  15  158.58   22.69
  -9   2  16    0.67    2.90
  -9  -2  16   10.49    9.12
   9  -2  16   13.69    7.77
  -9   2  17   96.53   19.32
  -9  -2  17   89.06   18.61
   9  -2  17   90.09   18.31
  -9   2  18    4.02    5.38
   9  -2  18   -3.37    3.83
  -9   2  19   23.64   11.02
   9  -2  19    2.20    7.06
  -9  -2  19   12.61    7.50
   9  -2  20    3.37    4.28
  -9  -2  20   10.62    4.95
   9  -2  21    9.59    7.49
  -9   2  21   18.52    9.74
  -9  -2  21   15.73    8.45
   9  -2  22    5.01    8.77
  -9   2  22    4.57    9.03
  -9  -2  22    7.06    7.41
   9  -2  23    2.55    7.19
  -9   2  23   -1.64    5.67
  -9  -2  23   14.74   11.54
   9  -3   2   -2.77    5.62
  -9   3   2    7.96    6.07
   9  -3   3   74.29   11.85
  -9   3   3   68.06   14.71
   9  -3   4   23.90    8.18
  -9   3   4    9.26    7.33
  -9   3   5  297.23   31.26
   9  -3   5  224.24   23.47
   9  -3   6    7.37    6.20
  -9   3   6    0.12    2.74
  -9  -3   6    3.03    7.43
   9  -3   7   21.80    9.28
  -9   3   7   11.38    3.77
   9  -3   8   25.83    9.61
  -9   3   8   25.87   12.50
  -9  -3   8   14.68   10.71
  -9   3   9  389.36   36.70
  -9  -3   9  269.33   29.10
   9  -3  10   47.64   11.45
  -9   3  10   41.54   12.44
  -9  -3  10   13.82    3.08
  -9   3  11   38.94   11.46
  -9  -3  11   21.34    7.97
   9  -3  11   20.89    7.28
  -9   3  12   20.92    8.82
  -9  -3  12   31.22   13.59
   9  -3  12   26.37    9.88
  -9  -3  13   37.89   11.52
   9  -3  13   35.22   10.10
  -9   3  14   11.22    7.47
  -9  -3  14    9.83    7.86
   9  -3  14   16.53    9.40
   9  -3  15  142.21   21.06
  -9   3  15  170.94   24.36
  -9  -3  15  212.36   27.07
  -9   3  16   12.01    5.52
  -9  -3  16   10.01    5.37
   9  -3  16   17.28    8.76
  -9   3  17    2.81    4.66
  -9  -3  17    5.04    7.99
   9  -3  17    2.81    6.03
  -9   3  18   25.36   10.45
  -9  -3  18   13.37    8.68
   9  -3  18    7.96    8.14
   9  -3  19  153.30   22.90
  -9   3  19  156.12   24.20
  -9  -3  19  107.66   20.52
  -9   3  20   51.03   14.38
  -9  -3  20   57.65   15.80
   9  -3  20   73.93   17.10
  -9   3  21   10.26    4.56
   9  -3  21   21.88   10.13
  -9  -3  21   31.24   12.44
  -9   3  22   47.23   12.33
   9  -3  22   44.37   13.90
  -9  -3  22   22.21   10.22
   9  -4   0   -9.44    8.67
   9  -4   1   14.28    6.38
   9  -4  -1   27.06   12.16
  -9   4   2   48.96   12.24
   9  -4   2   27.17    9.01
   9  -4  -2   44.63   11.49
   9  -4   3    3.37    3.81
  -9   4   3   11.56    8.43
   9  -4   4   11.28    5.68
  -9   4   4    3.63    4.51
   9  -4   5   17.48    6.53
  -9   4   5   26.52   12.27
   9  -4   6   35.14   11.28
  -9   4   6   43.07   12.39
   9  -4   7   26.85    8.86
  -9   4   7   11.38    7.85
  -9   4   8  238.58   28.68
   9  -4   8  222.30   24.90
   9  -4   9   12.33    7.39
  -9   4   9   16.50    7.57
   9  -4  10   16.06    8.26
  -9   4  10   17.83    9.73
   9  -4  11    8.67    6.02
  -9   4  11   19.28    9.18
   9  -4  12   10.49    4.38
  -9   4  12   11.90    8.56
  -9   4  13    0.38    5.64
   9  -4  13   -1.24    6.03
  -9   4  14    7.63    3.96
   9  -4  14    2.91    5.65
  -9   4  15   14.31   12.24
   9  -4  15    9.84    8.42
  -9   4  16   -1.79    3.84
   9  -4  16    4.02    3.60
  -9   4  17   16.81    9.02
   9  -4  17    4.64    3.44
  -9   4  18    3.54    2.97
   9  -4  18   19.18    9.20
  -9   4  19    5.31    6.92
   9  -4  19   -0.12    5.47
  -9   4  20   12.88    5.51
   9  -4  20   30.45   11.37
  -9   4  21   -1.92    3.93
   9  -4  21   15.11    9.13
  -9   4  22   46.03   13.75
   9  -4  22   54.13   15.56
   9  -5   0    9.08    8.74
   9  -5   1   -4.61    8.09
   9  -5  -1   -1.89    4.82
   9  -5   2  141.25   20.72
   9  -5  -2  168.52   23.17
   9  -5  -3   15.58    9.51
  -9   5   3   16.97    8.50
   9  -5   3    5.86    2.98
   9  -5  -4   -6.94    6.80
   9  -5   4  -16.04    7.73
  -9   5   4    1.38    5.71
   9  -5   5    0.36    5.84
   9  -5  -5    7.31    5.26
  -9   5   5    1.41    6.06
   9  -5   6   72.52   15.29
  -9   5   6   84.01   18.36
   9  -5  -6   75.30   17.26
   9  -5   7    9.52    4.93
  -9   5   7   -2.11    7.43
  -9   5   8  223.05   27.28
   9  -5   8  221.12   26.01
   9  -5   9   14.66    8.08
  -9   5   9    0.08    2.89
  -9   5  10  146.14   23.45
   9  -5  10  128.65   20.11
   9  -5  11   26.66   10.68
  -9   5  11   36.63   11.69
  -9   5  12  127.73   22.01
   9  -5  12  153.66   22.58
   9  -5  13   25.15   10.02
  -9   5  13   59.13   15.94
   9  -5  14   73.15   17.02
  -9   5  14   71.42   16.96
  -9   5  15   37.55   10.97
   9  -5  15   30.03   10.37
   9  -5  16  272.21   31.26
  -9   5  17   -5.16    6.50
   9  -5  17    2.96    3.35
  -9   5  18   -1.15    6.25
   9  -5  18   22.92   10.56
  -9   5  19   13.61    9.34
   9  -5  19   15.74    8.26
  -9   5  20   35.24   12.61
   9  -5  20   53.71   15.05
  -9   5  21   44.82   13.43
   9  -5  21   42.26   11.98
   9  -6   0    1.70    3.75
   9  -6  -1   19.07    6.86
   9  -6   1    7.52    7.46
   9  -6  -2   24.97   10.62
   9  -6   2   23.49    9.18
   9  -6  -3   27.44   11.07
  -9   6   3   40.85   11.19
   9  -6   3   44.76   13.55
   9  -6  -4   19.03   10.15
  -9   6   4    5.99    7.72
   9  -6   4    2.06    6.05
   9  -6  -5   -7.86    5.93
   9  -6   5    6.97    3.75
  -9   6   5    3.94    6.82
   9  -6   6    0.02    4.35
  -9   6   6    4.64    7.16
   9  -6  -6    8.62    9.99
   9  -6   7   15.66    8.36
  -9   6   7   13.20    9.23
   9  -6  -7   -1.43    5.84
   9  -6   8   47.95   11.94
  -9   6   8   40.27   12.70
   9  -6  -8   23.87   10.17
   9  -6  -9   17.83    9.69
   9  -6   9   -2.82    4.64
  -9   6   9   10.09    8.36
   9  -6 -10   -6.96    7.48
   9  -6  10   -4.47    4.70
  -9   6  10   -1.20    5.50
   9  -6  11    1.05    3.51
  -9   6  11    2.07    5.67
   9  -6  12   -3.46    4.99
  -9   6  12   -8.77    8.31
   9  -6  13   13.57   10.62
  -9   6  13   30.20   12.81
   9  -6  14  -11.66    7.22
  -9   6  14    3.75    4.79
   9  -6  15   13.20    9.21
  -9   6  15    8.38    7.59
  -9   6  16   12.29    9.53
   9  -6  16    9.71    6.32
  -9   6  17   32.61   13.94
   9  -6  17   46.78   13.81
  -9   6  18   87.32   18.19
   9  -6  18   52.16   14.78
  -9   6  19   11.49    8.02
   9  -6  19   -1.72    8.43
  -9   6  20   -0.90    6.49
   9  -6  20    2.86    5.84
   9  -7   0    5.83    4.11
   9  -7  -1   15.53    4.88
   9  -7   1   16.88    9.85
   9  -7  -2   78.30   15.40
   9  -7   2   68.51   15.57
   9  -7   3  210.53   27.73
   9  -7  -3  208.83   28.29
   9  -7  -4   12.15   10.56
  -9   7   4   -6.17    7.85
   9  -7   4    1.93    5.33
   9  -7   5  161.16   22.85
  -9   7   5  155.94   22.85
   9  -7  -5  149.45   24.74
   9  -7   6   18.74    8.73
  -9   7   6   37.36   11.47
   9  -7  -6   36.88   12.59
   9  -7   7   18.38    7.06
  -9   7   7   12.70    7.07
   9  -7  -7    7.53    6.73
   9  -7   8   -0.81    5.25
  -9   7   8    4.21    4.59
   9  -7  -8   -4.33    7.64
  -9   7   9  208.80   27.05
   9  -7  -9  242.37   30.55
   9  -7   9  193.91   25.59
   9  -7 -10   59.90   14.32
   9  -7  10   65.33   13.88
  -9   7  10   82.52   17.58
   9  -7  11  -12.02    7.05
   9  -7 -11    5.38    3.92
  -9   7  11   -2.01    5.94
   9  -7  12   49.38   13.02
   9  -7 -12   36.06   10.55
  -9   7  12   56.46   13.28
  -9   7  13  246.22   29.27
   9  -7  13  274.95   30.21
   9  -7  14    3.93    6.65
  -9   7  14   -0.41    4.13
   9  -7  15   64.96   15.71
  -9   7  15   68.06   18.34
  -9   7  16   95.78   19.47
   9  -7  16  128.30   21.50
  -9   7  17  141.46   23.67
   9  -7  17  148.72   25.22
  -9   7  18   13.80    5.91
   9  -7  18   32.50   11.76
  -9   7  19   16.98    3.78
   9  -7  19   10.67    9.53
   9  -8   0   -2.92    4.23
   9  -8  -1   -7.88    9.33
   9  -8   1   13.87   10.50
   9  -8  -2   15.97    8.16
   9  -8   2   18.79   10.90
   9  -8  -3   20.64    7.51
   9  -8   3   17.01    8.20
   9  -8  -4   23.29    8.97
   9  -8   4   36.88   12.85
  -9   8   5   82.29   18.67
   9  -8  -5   61.47   15.42
   9  -8   5   63.98   15.09
  -9   8   6    3.72    5.07
   9  -8   6   14.94    5.25
   9  -8  -6   10.61    7.28
   9  -8   7    2.61    3.70
   9  -8  -7    3.43    6.73
   9  -8   8    2.91    3.66
  -9   8   8   18.80    8.63
   9  -8  -8   10.29    5.97
   9  -8  -9   -0.03    3.90
   9  -8   9   13.68    7.29
  -9   8   9   13.80    7.41
   9  -8 -10   15.47   10.98
   9  -8  10    1.21    4.48
  -9   8  10    5.46    7.56
   9  -8 -11    1.87    6.33
   9  -8  11   14.23    8.87
  -9   8  11    7.48    6.96
   9  -8 -12    6.09    3.66
  -9   8  12   -4.92    5.56
   9  -8  13   19.00    9.25
   9  -8 -13    5.45    7.65
  -9   8  13   -0.33    4.42
   9  -8  14   20.06    7.66
  -9   8  14   54.54   16.28
   9  -8 -14   28.02   12.83
   9  -8  15    1.74    3.69
  -9   8  15   18.37    9.97
   9  -8 -15    9.79    7.87
   9  -8  16   21.74   10.58
  -9   8  16   10.06    9.14
   9  -8  17   18.72    8.10
  -9   8  17   50.07   16.30
   9  -9   0    2.58    4.47
   9  -9  -1   99.22   19.86
   9  -9   1   82.98   16.59
   9  -9  -2   35.87   13.63
   9  -9   2   25.07    8.32
   9  -9  -3   12.97    6.35
   9  -9   3   19.07    9.26
   9  -9  -4  -11.19    9.49
   9  -9   4   16.76    6.45
   9  -9  -5   -3.39    7.39
   9  -9   5    6.98    2.96
   9  -9   6  239.25   29.56
  -9   9   6  162.20   25.71
   9  -9  -6  247.73   32.87
  -9   9   7   14.09    6.72
   9  -9   7    2.40    6.07
   9  -9   8   26.69   10.72
  -9   9   8   22.76    9.74
   9  -9  -8   27.82   10.20
  -9   9   9  245.09   31.55
   9  -9  -9  210.94   29.68
   9  -9   9  214.03   28.10
   9  -9 -10   16.37    8.15
   9  -9  10   -4.90    4.46
  -9   9  10   24.06   10.06
   9  -9 -11   15.15   10.23
   9  -9  11    7.12    6.86
  -9   9  11   12.45    9.74
   9  -9 -12   17.91    7.91
   9  -9  12   14.95    7.43
   9  -9 -13   81.51   18.13
  -9   9  13  130.67   22.26
   9  -9  13  129.45   22.29
   9  -9  14    4.22    5.94
   9  -9 -14   17.56   12.70
  -9   9  14    0.68    5.98
   9  -9  15   46.72   12.28
  -9   9  15   35.48   11.94
   9  -9 -15   41.04   13.17
   9 -10   0    1.69    5.24
   9 -10  -1  -10.59    9.30
   9 -10   1   11.97   11.35
   9 -10  -2   -2.63    5.42
   9 -10   2   10.05    8.97
   9 -10  -3    3.81    8.87
   9 -10   3    9.17    5.86
   9 -10  -4   56.60   17.50
   9 -10   4   41.97   12.97
   9 -10  -5   14.72    5.56
   9 -10   5   11.92    7.05
   9 -10  -6   10.53   10.51
   9 -10   6   14.40   11.83
   9 -10   7   14.65    9.28
   9 -10  -7   -9.17    5.04
  -9  10   8   27.28   10.03
   9 -10   8   35.89   11.91
   9 -10  -8   10.28    8.50
   9 -10   9   49.06   13.17
  -9  10   9   46.34   14.10
   9 -10  -9   13.34    6.82
   9 -10  10    9.67    7.47
  -9  10  10   -0.54    4.23
   9 -10 -10    0.27    4.34
   9 -10 -11   -1.89    5.22
   9 -10  11   11.29    6.32
  -9  10  11    5.19    6.39
   9 -10 -12    1.07    6.65
   9 -10  12    3.03    5.36
  -9  10  12    8.16    5.05
   9 -11   0   -2.68    3.93
   9 -11  -1   13.69    8.59
   9 -11   1   -4.13    5.13
   9 -11  -2  111.54   23.39
   9 -11   2  110.12   22.30
   9 -11  -3   40.24   15.22
   9 -11   3   15.38    5.95
   9 -11  -4   -2.61    6.47
   9 -11   4   17.14    8.23
   9 -11  -5    6.76    6.89
   9 -11   5   19.77    9.45
   9 -11  -6    7.27    6.14
   9 -11   6   -3.84    7.04
   9 -11   7    5.38    8.57
   9 -11  -7   11.82   11.79
   9 -11   8   35.80   11.98
   9 -11  -8   12.29    9.01
   9 -11   9   12.33    5.13
  -9  11   9   46.87   14.83
   9 -11  -9   46.59   15.90
 -10   0   3    4.53    8.76
 -10   0   4   55.62   15.37
 -10   0   5    3.11    3.90
 -10   0   6   -4.93    7.21
 -10   0   7    2.28    4.41
 -10   0   8   99.11   18.22
 -10   0   9  -12.24    7.23
 -10   0  10   14.14    7.03
 -10   0  11    5.65    3.81
 -10   0  12   73.49   15.89
 -10   0  13   -6.10    3.71
 -10   0  14   38.84   12.05
 -10   0  15   -9.89    6.82
 -10   0  16   20.39   11.75
 -10   0  17    3.94    6.38
 -10   0  18   47.08   15.44
 -10   0  19    9.23    9.14
 -10   0  20   -0.49    9.95
 -10  -1   3   11.57    6.70
 -10   1   3   19.32    9.99
 -10  -1   4  142.48   22.72
 -10   1   4  139.35   23.16
 -10  -1   5   32.45   10.02
 -10   1   5   28.19   11.79
 -10   1   6   39.59   11.10
 -10  -1   6   57.26   15.02
 -10   1   7   87.52   16.74
 -10  -1   7   70.68   16.86
 -10   1   8  133.30   21.89
 -10  -1   8  123.35   20.93
 -10   1   9   27.73   10.99
 -10  -1   9   20.05    8.65
 -10  -1  10  105.04   19.95
 -10   1  10   85.16   17.74
 -10   1  11  207.11   28.07
 -10  -1  11  220.36   27.70
 -10   1  12    9.72   11.68
 -10  -1  12   -1.47    3.27
 -10   1  13   19.56    9.28
 -10  -1  13   10.80    7.63
 -10   1  14   35.72   11.92
 -10  -1  14   40.97   12.31
 -10   1  15   16.66   10.57
 -10  -1  15   16.39    6.01
 -10   1  16    5.81    8.25
 -10  -1  16   17.33    9.72
 -10   1  17   -0.50    3.34
 -10  -1  17    4.19    3.75
 -10   1  18   78.23   17.49
 -10  -1  18   73.77   17.82
 -10   1  19   -7.15    3.95
 -10  -1  19  -10.26    9.80
 -10   1  20   27.91   11.30
 -10  -1  20    8.24    8.62
 -10  -2   3  -10.37    5.83
 -10   2   3    6.36    5.53
 -10  -2   4   47.94   13.79
 -10   2   4   69.68   15.02
 -10  -2   5   36.07   13.79
 -10   2   5    7.65    7.03
 -10   2   6   15.56   10.67
 -10  -2   6   22.76   11.76
 -10   2   7    8.41    6.34
 -10  -2   7    5.80    3.97
 -10   2   8   43.10   14.11
 -10  -2   8   27.96    8.32
 -10   2   9    9.30    2.73
 -10  -2   9    1.78    6.63
 -10  -2  10  115.63   21.62
 -10   2  10   85.91   18.48
 -10   2  11   65.06   15.28
 -10  -2  11   32.69    9.79
 -10   2  12   15.97    7.01
 -10  -2  12   17.91    9.75
 -10   2  13   16.70    7.33
 -10  -2  13   13.29    9.43
 -10   2  14   35.05   12.89
 -10  -2  14   25.90    8.07
 -10   2  15    8.08    6.69
 -10  -2  15  -10.87    8.56
 -10   2  16    8.69    9.88
 -10  -2  16   -2.19    4.85
 -10   2  17   13.53    6.67
 -10  -2  17   12.07    5.93
 -10   2  18   24.59   10.94
 -10  -2  18   23.33   10.58
 -10   2  19   46.13   13.44
 -10  -2  19   32.22   13.44
 -10   2  20    1.62    5.59
 -10  -2  20    9.66    6.38
 -10   3   3  234.15   28.73
 -10   3   4    1.92    4.79
 -10   3   5   70.71   15.26
 -10   3   6   24.22   11.11
 -10   3   7  434.83   38.24
 -10   3   8   17.18    7.95
 -10   3   9   18.12    3.77
 -10   3  10   -1.33    4.49
 -10   3  11   71.23   16.46
 -10   3  12    3.09    6.40
 -10   3  13   95.45   19.30
 -10   3  14   14.16   10.68
 -10   3  15   74.87   16.98
 -10   3  16   -1.94    5.75
 -10   3  17    3.41    6.97
 -10   3  18    2.00    6.20
 -10   3  19  106.92   20.32
 -10   4   4    2.13    3.94
 -10   4   5   11.62    9.06
 -10   4   6    4.56    4.93
 -10   4   7  126.59   21.30
 -10   4   8    2.25    3.10
 -10   4   9   -0.53    6.30
 -10   4  10    2.11    6.39
 -10   4  11    9.31    6.60
 -10   4  12    0.72    8.00
  10  -4  12    3.40    3.73
 -10   4  13   75.80   16.90
  10  -4  13   55.31   14.98
 -10   4  14   -0.68    3.25
  10  -4  14    6.07    3.77
 -10   4  15    9.44    4.74
  10  -4  15   10.59    7.95
 -10   4  16   11.70    7.75
  10  -4  16   26.77   11.11
 -10   4  17    5.41    6.11
  10  -4  17   33.72   11.82
 -10   4  18  -10.06    8.63
  10  -4  18   15.47   10.52
 -10   4  19   24.00   12.89
  10  -4  19   23.19   11.53
 -10   5   4  130.33   23.15
 -10   5   5    4.12    5.81
 -10   5   6   13.17    7.63
  10  -5   7    0.59    6.24
 -10   5   7   -8.36    8.90
  10  -5   8   54.49   12.59
 -10   5   8   66.55   16.01
  10  -5   9   49.04   14.96
 -10   5   9   41.23   12.11
 -10   5  10  158.72   23.61
  10  -5  10  157.56   24.07
  10  -5  11   20.42   11.50
 -10   5  11   40.43   13.83
  10  -5  12   14.51    8.40
 -10   5  12   -0.41    7.00
 -10   5  13   -5.58   10.38
  10  -5  13   -9.18    5.25
 -10   5  14   42.15   10.57
  10  -5  14   65.02   16.12
 -10   5  15   -1.82    3.20
  10  -5  15   -1.47    3.25
 -10   5  16   -3.56    4.63
  10  -5  16    9.62    7.65
 -10   5  17   10.36    5.44
  10  -5  17   28.45   13.04
 -10   5  18   39.08   12.17
  10  -5  18   44.15   14.31
  10  -6   3    6.89    6.95
  10  -6   4   64.43   14.47
  10  -6   5    6.58    4.39
 -10   6   5   14.57    6.03
  10  -6   6   10.75    7.11
 -10   6   6    9.55    6.35
  10  -6   7   13.55    9.16
 -10   6   7   -3.36    4.44
  10  -6   8   24.24    9.15
 -10   6   8   11.83    7.32
  10  -6   9   41.81   12.18
 -10   6   9   14.54    4.34
 -10   6  10  171.31   25.66
  10  -6  10  166.42   24.07
  10  -6  11    7.99    8.40
 -10   6  11   -3.92    5.51
  10  -6  12    5.75    7.55
 -10   6  12    7.21    5.65
  10  -6  13   -4.01    8.00
 -10   6  13   -5.44    7.24
  10  -6  14    4.17    6.72
 -10   6  14   23.41   12.08
 -10   6  15   45.42   15.57
  10  -6  15   -0.33    7.07
 -10   6  16   28.23    9.50
  10  -6  16   50.60   14.30
 -10   6  17    0.98   10.72
  10  -6  17   18.25   11.78
  10  -7   0   17.99    6.85
  10  -7   1  261.06   30.09
  10  -7  -1  165.71   25.40
  10  -7   2   51.59   14.85
  10  -7   3   70.74   15.90
  10  -7   4    3.46    6.11
  10  -7   5   17.39    8.01
 -10   7   5    4.66    4.44
  10  -7   6   22.29    8.99
 -10   7   6   34.57   11.35
  10  -7   7   79.03   17.00
 -10   7   7   64.67   18.18
  10  -7   8   14.08    8.79
 -10   7   8   13.00    7.38
  10  -7   9   14.90   10.41
 -10   7   9   -6.60    7.34
  10  -7  10    2.28    3.74
 -10   7  10   14.20    3.42
 -10   7  11  185.65   27.28
  10  -7  11  209.18   27.97
  10  -7  12    8.72    4.80
 -10   7  12   28.83   12.76
  10  -7  13   58.01   17.56
 -10   7  13   75.70   16.06
  10  -7  14   -6.30    8.82
 -10   7  14   16.52   11.31
  10  -7  15   72.45   17.20
 -10   7  15   63.95   17.54
  10  -8   0   57.40   15.81
  10  -8   1   12.99    5.45
  10  -8  -1    3.33    4.88
  10  -8  -2   11.13    9.71
  10  -8   2   24.06    9.94
  10  -8  -3    8.09    9.85
  10  -8   3   -6.57    5.29
  10  -8  -4    6.97    6.87
  10  -8   4  -10.13    4.23
  10  -8   5    6.68    5.01
  10  -8   6   42.27   12.79
 -10   8   6   37.63   12.73
  10  -8   7   79.35   16.11
 -10   8   7  152.85   24.32
  10  -8   8    0.85    4.22
 -10   8   8   -2.02    9.93
  10  -8   9   15.90    8.78
 -10   8   9   12.92    7.94
  10  -8  10   -7.72    4.20
 -10   8  10   -2.21    5.65
  10  -8  11  109.04   18.85
 -10   8  11   86.61   18.28
  10  -8  12   57.00   15.67
 -10   8  12   35.56   13.42
  10  -8  13   -0.39    5.51
 -10   8  13   24.50   12.32
  10  -9   0  122.39   22.70
  10  -9   1   29.61   10.29
  10  -9  -1   24.99    7.89
  10  -9  -2   16.77    9.28
  10  -9   2   22.23    9.28
  10  -9   3  124.88   22.96
  10  -9  -3   71.54   18.60
  10  -9  -4   45.60   14.68
  10  -9   4   68.81   16.40
  10  -9  -5   65.42   17.81
  10  -9   5   37.71   13.98
  10  -9  -6   11.19    8.03
  10  -9   6    4.05    6.45
  10  -9   7  149.10   24.79
  10  -9   8   14.19    7.90
 -10   9   8   14.64   10.21
  10  -9   9   11.68    6.51
 -10   9   9    5.95    8.97
  10  -9  10    3.34    7.42
 -10   9  10    0.39    7.37
  10 -10   0    8.28    6.70
  10 -10   1    4.24    6.58
  10 -10  -1   17.06    6.11
  10 -10  -2   16.18   10.76
  10 -10   2   -2.88    7.26
  10 -10  -3   24.02    9.23
  10 -10   3   -8.04    8.43
  10 -10  -4   13.29    4.87
  10 -10   4    7.29    7.27
  10 -10  -5   19.75   13.56
  10 -10   5   13.43   11.15
  10 -10  -6    7.78    8.57
  10 -10   6   -8.19    8.66
 -11   0   4   55.97   15.38
 -11   0   5    2.37    7.85
 -11   0   6   32.13   13.85
 -11   0   7   -4.14    8.82
 -11   0   8   16.68    9.57
 -11   0   9    1.40    3.92
 -11   0  10   94.69   16.70
 -11   0  11   -6.05    4.73
 -11   0  12   -3.14    4.66
 -11   0  13   -1.67    6.60
 -11   0  14   99.00   20.45
 -11   0  15    0.67    9.20
 -11   0  16  282.44   34.06
 -11   0  17   11.67    5.48
 -11   1   4   26.99   12.28
 -11  -1   5   21.73   14.26
 -11   1   5    0.68    3.75
 -11  -1   6   36.87   12.94
 -11   1   6   61.66   16.09
 -11   1   7   15.14    7.77
 -11  -1   7    5.65    4.56
 -11   1   8   -2.80    5.23
 -11  -1   8    3.57    5.82
 -11   1   9    5.13    4.97
 -11  -1   9    4.96    6.18
 -11   1  10   86.09   18.91
 -11  -1  10   42.91   12.10
 -11   1  11   -0.21    7.99
 -11  -1  11   19.32    9.91
 -11   1  12   28.46   10.49
 -11  -1  12   16.13    5.06
 -11   1  13   55.05   15.81
 -11  -1  13   18.02   10.74
 -11   1  14   49.76   13.92
 -11  -1  14   21.45   10.64
 -11   1  15   15.62    5.04
 -11  -1  15   14.12   10.62
 -11   1  16   61.00   16.29
 -11  -1  16   34.55    8.43
 -11   1  17   13.20   11.72
 -11  -1  17   -8.58   11.04
 -11   2   4   17.50    7.39
 -11   2   5   23.44    9.45
 -11   2   6   -9.70   10.49
 -11   2   7    5.02    5.30
 -11   2   8    7.43    9.12
 -11   2   9   52.74   16.32
 -11   2  10   38.74   11.21
 -11   2  11   86.17   20.14
 -11   2  12   16.29    7.66
 -11   2  13   33.03   10.89
 -11   2  14   -2.32    9.38
 -11   2  15    8.96    7.09
 -11   2  16   -1.18    9.31
 -11   3   5   74.52   16.86
 -11   3   6   15.19    9.27
 -11   3   7    8.15    7.32
 -11   3   8    8.56    4.53
 -11   3   9   20.30   11.24
 -11   3  10   38.56   11.36
 -11   3  11    7.74    6.18
 -11   3  12   -1.12    4.85
 -11   3  13   44.44   12.71
 -11   3  14    2.28    5.42
 -11   3  15   15.61   10.69
 -11   3  16   10.85   11.76
 -11   4   5    0.87    5.32
 -11   4   6    0.18    7.40
 -11   4   7   -1.61    5.32
 -11   4   8   32.75   12.42
 -11   4   9    9.51    4.79
 -11   4  10   97.25   20.01
 -11   4  11   -4.20   10.21
 -11   4  12    2.56    4.47
 -11   4  13   56.32   16.13
 -11   4  14   -0.65    4.64
 -11   4  15   23.73   14.35
 -11   5   6   51.23   14.90
 -11   5   7    0.34    7.17
 -11   5   8   19.25   10.60
 -11   5   9    6.80    7.86
 -11   5  10    5.83    7.36
 -11   5  11   22.55    8.95
 -11   5  12   29.30   11.43
 -11   5  13   -6.23    7.27
 -11   5  14   42.02   13.63
 -11   6   6   -2.68    4.95
 -11   6   7   -6.31    5.57
 -11   6   8    2.88    7.58
 -11   6   9   57.22   15.42
 -11   6  10   31.23   11.65
 -11   6  11    1.08    4.49
 -11   6  12  146.82   24.08
 -11   7   7   -0.03    6.30
 -11   7   8    5.33    3.70
 -11   7   9    5.89    7.96
 -11   7  10   -6.18    8.93
 -12   0   6   26.52   14.52
 -12   0   7   -0.46    5.40
 -12   0   8  157.93   26.56
 -12   0   9    3.58    5.29
 -12   0  10  241.79   31.52
 -12   0  11   -3.99    9.63
 -12   0  12   32.70   12.59
 -12   1   6   14.61   12.49
 -12   1   7   -1.08    6.44
 -12   1   8    0.80    6.17
 -12   1   9   17.28   11.60
 -12   1  10   18.88    9.76
 -12   1  11   17.24    6.77
 -12   1  12   19.11   12.31
 -12   2   6   34.47   12.51
 -12   2   7  135.12   24.07
 -12   2   8   34.45   11.18
 -12   2   9   31.74   12.72
 -12   2  10   26.62   12.14
 -12   2  11  104.76   21.01
 -12   3   6   42.10   15.33
 -12   3   7   -1.78    6.74
 -12   3   8  111.70   21.94
 -12   3   9   -0.63    5.58
 -12   3  10   13.03    6.42
 -12   3  11   32.28   15.95
 -12   4   7  125.26   23.51
 -12   4   8  106.16   21.88
 -12   4   9   87.91   19.89
 -12   5   7    3.29    3.76
   0   0   0    0.00    0.00

TITL 044_180K_SulfamerazineF2_ in Pbca
REM Pbca (#61 in standard setting)
CELL 0.68890   9.097248  11.575065  22.853058  90.0000  90.0000  90.0000
ZERR    8.00   0.000239   0.000184   0.000306   0.0000   0.0000   0.0000
LATT  1
SYMM -x+1/2,-y, z+1/2
SYMM -x, y+1/2,-z+1/2
SYMM  x+1/2,-y+1/2,-z
SFAC C H N O S
UNIT 88.00 96.00 32.00 16.00 8.00
TREF
HKLF 4
END
_computing_structure_solution     'SHELXT 2014/5 (Sheldrick, 2014)'
;
_shelx_hkl_checksum              63056
loop_
_space_group_symop_operation_xyz
'x, y, z'
'-x+1/2, -y, z+1/2'
'-x, y+1/2, -z+1/2'
'x+1/2, -y+1/2, -z'
'-x, -y, -z'
'x-1/2, y, -z-1/2'
'x, -y-1/2, z-1/2'
'-x-1/2, y-1/2, z'
loop_
_atom_site_label
_atom_site_type_symbol
_atom_site_fract_x
_atom_site_fract_y
_atom_site_fract_z
_atom_site_U_iso_or_equiv
_atom_site_adp_type
_atom_site_occupancy
_atom_site_site_symmetry_order
_atom_site_calc_flag
_atom_site_refinement_flags_posn
_atom_site_refinement_flags_adp
_atom_site_refinement_flags_occupancy
_atom_site_disorder_assembly
_atom_site_disorder_group
S1 S 0.33166(5) 0.34596(3) 0.38969(2) 0.02317(12) Uani 1 1 d . . . . .
O2 O 0.19650(14) 0.39701(11) 0.40966(5) 0.0290(3) Uani 1 1 d . . . . .
O1 O 0.34165(16) 0.22293(10) 0.38651(5) 0.0309(3) Uani 1 1 d . . . . .
N4 N 0.66689(17) 0.42609(13) 0.48540(6) 0.0260(3) Uani 1 1 d . . . . .
N3 N 0.65588(18) 0.28478(12) 0.40880(6) 0.0269(3) Uani 1 1 d . . . . .
N2 N 0.45135(18) 0.39512(13) 0.43725(6) 0.0255(3) Uani 1 1 d . . . . .
N1 N 0.4543(2) 0.53251(16) 0.15447(7) 0.0361(4) Uani 1 1 d . . . . .
C1 C 0.3745(2) 0.40360(14) 0.32150(7) 0.0246(4) Uani 1 1 d . . . . .
C2 C 0.4477(2) 0.33653(15) 0.28013(8) 0.0311(4) Uani 1 1 d . . . . .
H2 H 0.4769 0.2618 0.2895 0.040 Uiso 1 1 calc R U . . .
C3 C 0.4767(2) 0.38080(15) 0.22538(8) 0.0331(4) Uani 1 1 d . . . . .
H3 H 0.5270 0.3359 0.1982 0.043 Uiso 1 1 calc R U . . .
C4 C 0.4315(2) 0.49272(15) 0.20990(7) 0.0282(4) Uani 1 1 d . . . . .
C5 C 0.3580(2) 0.55928(14) 0.25229(8) 0.0296(4) Uani 1 1 d . . . . .
H5 H 0.3275 0.6337 0.2431 0.038 Uiso 1 1 calc R U . . .
C6 C 0.3307(2) 0.51548(14) 0.30748(7) 0.0266(4) Uani 1 1 d . . . . .
H6 H 0.2831 0.5607 0.3353 0.035 Uiso 1 1 calc R U . . .
C7 C 0.5980(2) 0.36592(14) 0.44309(7) 0.0234(3) Uani 1 1 d . . . . .
C8 C 0.8086(2) 0.40058(17) 0.49302(8) 0.0298(4) Uani 1 1 d . . . . .
H8 H 0.8611 0.4400 0.5216 0.039 Uiso 1 1 calc R U . . .
C9 C 0.8801(2) 0.31833(17) 0.46026(8) 0.0307(4) Uani 1 1 d . . . . .
H9 H 0.9791 0.3022 0.4662 0.040 Uiso 1 1 calc R U . . .
C10 C 0.7995(2) 0.26056(15) 0.41818(8) 0.0291(4) Uani 1 1 d . . . . .
C11 C 0.8670(3) 0.16732(18) 0.38135(10) 0.0411(5) Uani 1 1 d . . . . .
H11A H 0.8200 0.0949 0.3897 0.053 Uiso 1 1 calc R U . . .
H11B H 0.9700 0.1616 0.3901 0.053 Uiso 1 1 calc R U . . .
H11C H 0.8543 0.1858 0.3407 0.053 Uiso 1 1 calc R U . . .
H1N2 H 0.416(3) 0.4442(19) 0.4586(10) 0.035(6) Uiso 1 1 d . . . . .
H1N1 H 0.515(3) 0.493(2) 0.1338(11) 0.041(6) Uiso 1 1 d . . . . .
H2N1 H 0.447(3) 0.603(2) 0.1468(11) 0.054(8) Uiso 1 1 d . . . . .
loop_
_atom_site_aniso_label
_atom_site_aniso_U_11
_atom_site_aniso_U_22
_atom_site_aniso_U_33
_atom_site_aniso_U_23
_atom_site_aniso_U_13
_atom_site_aniso_U_12
S1 0.0240(3) 0.0243(2) 0.02115(18) -0.00167(13) -0.00034(15) -0.00280(16)
O2 0.0218(7) 0.0401(7) 0.0251(6) -0.0020(5) 0.0003(5) -0.0014(5)
O1 0.0408(9) 0.0238(6) 0.0282(6) -0.0005(4) -0.0012(6) -0.0052(5)
N4 0.0246(9) 0.0292(7) 0.0243(6) -0.0024(5) -0.0027(6) 0.0009(6)
N3 0.0275(9) 0.0263(7) 0.0270(7) -0.0011(5) 0.0024(6) 0.0033(6)
N2 0.0234(9) 0.0280(7) 0.0252(7) -0.0079(5) -0.0020(6) 0.0041(6)
N1 0.0470(12) 0.0318(8) 0.0293(8) 0.0043(6) 0.0112(7) 0.0029(8)
C1 0.0264(10) 0.0253(7) 0.0221(7) -0.0017(6) -0.0001(6) -0.0017(7)
C2 0.0376(12) 0.0274(8) 0.0282(8) -0.0003(6) 0.0055(8) 0.0069(8)
C3 0.0422(13) 0.0284(8) 0.0289(8) -0.0024(6) 0.0099(8) 0.0057(8)
C4 0.0301(11) 0.0286(8) 0.0257(8) -0.0004(6) 0.0034(7) -0.0048(7)
C5 0.0361(12) 0.0216(7) 0.0312(8) -0.0002(6) 0.0039(8) -0.0001(7)
C6 0.0289(10) 0.0228(7) 0.0280(8) -0.0037(6) 0.0037(7) -0.0011(7)
C7 0.0243(10) 0.0246(7) 0.0212(7) 0.0021(6) 0.0000(6) -0.0002(7)
C8 0.0223(10) 0.0398(10) 0.0273(8) 0.0015(7) -0.0033(7) 0.0000(8)
C9 0.0204(10) 0.0413(10) 0.0304(9) 0.0064(7) 0.0012(7) 0.0051(8)
C10 0.0294(11) 0.0283(8) 0.0297(8) 0.0064(6) 0.0060(7) 0.0064(7)
C11 0.0378(14) 0.0404(11) 0.0452(11) -0.0042(8) 0.0092(9) 0.0132(9)
loop_
_atom_type_symbol
_atom_type_description
_atom_type_scat_dispersion_real
_atom_type_scat_dispersion_imag
_atom_type_scat_source
C C 0.0033 0.0016 'International Tables Vol C Tables 4.2.6.8 and 6.1.1.4'
H H 0.0000 0.0000 'International Tables Vol C Tables 4.2.6.8 and 6.1.1.4'
N N 0.0061 0.0033 'International Tables Vol C Tables 4.2.6.8 and 6.1.1.4'
O O 0.0106 0.0060 'International Tables Vol C Tables 4.2.6.8 and 6.1.1.4'
S S 0.1246 0.1234 'International Tables Vol C Tables 4.2.6.8 and 6.1.1.4'
loop_
_geom_angle_atom_site_label_1
_geom_angle_atom_site_label_2
_geom_angle_atom_site_label_3
_geom_angle
_geom_angle_site_symmetry_1
_geom_angle_site_symmetry_3
O1 S1 O2 118.68(8) . .
O1 S1 N2 109.71(8) . .
O2 S1 N2 102.39(8) . .
O1 S1 C1 108.81(8) . .
O2 S1 C1 108.57(8) . .
N2 S1 C1 108.17(8) . .
C8 N4 C7 115.39(15) . .
C7 N3 C10 115.75(16) . .
C7 N2 S1 128.29(12) . .
C7 N2 H1N2 119.7(17) . .
S1 N2 H1N2 112.0(17) . .
C4 N1 H1N1 115.3(16) . .
C4 N1 H2N1 120.7(18) . .
H1N1 N1 H2N1 117(2) . .
C6 C1 C2 119.94(16) . .
C6 C1 S1 119.91(13) . .
C2 C1 S1 120.10(13) . .
C3 C2 C1 120.06(16) . .
C3 C2 H2 120.0 . .
C1 C2 H2 120.0 . .
C2 C3 C4 121.04(16) . .
C2 C3 H3 119.5 . .
C4 C3 H3 119.5 . .
N1 C4 C3 120.05(17) . .
N1 C4 C5 121.81(17) . .
C3 C4 C5 118.10(16) . .
C6 C5 C4 120.87(16) . .
C6 C5 H5 119.6 . .
C4 C5 H5 119.6 . .
C5 C6 C1 119.98(16) . .
C5 C6 H6 120.0 . .
C1 C6 H6 120.0 . .
N3 C7 N4 127.14(17) . .
N3 C7 N2 119.79(15) . .
N4 C7 N2 113.07(15) . .
N4 C8 C9 122.66(18) . .
N4 C8 H8 118.7 . .
C9 C8 H8 118.7 . .
C8 C9 C10 117.58(18) . .
C8 C9 H9 121.2 . .
C10 C9 H9 121.2 . .
N3 C10 C9 121.48(17) . .
N3 C10 C11 117.11(18) . .
C9 C10 C11 121.40(19) . .
C10 C11 H11A 109.5 . .
C10 C11 H11B 109.5 . .
H11A C11 H11B 109.5 . .
C10 C11 H11C 109.5 . .
H11A C11 H11C 109.5 . .
H11B C11 H11C 109.5 . .
loop_
_geom_bond_atom_site_label_1
_geom_bond_atom_site_label_2
_geom_bond_distance
_geom_bond_site_symmetry_2
S1 O1 1.4288(12) .
S1 O2 1.4386(14) .
S1 N2 1.6403(15) .
S1 C1 1.7395(17) .
N4 C8 1.334(2) .
N4 C7 1.346(2) .
N3 C7 1.332(2) .
N3 C10 1.353(3) .
N2 C7 1.383(2) .
N2 H1N2 0.82(2) .
N1 C4 1.364(2) .
N1 H1N1 0.86(3) .
N1 H2N1 0.84(3) .
C1 C6 1.392(2) .
C1 C2 1.392(2) .
C2 C3 1.378(2) .
C2 H2 0.9300 .
C3 C4 1.405(2) .
C3 H3 0.9300 .
C4 C5 1.406(2) .
C5 C6 1.382(2) .
C5 H5 0.9300 .
C6 H6 0.9300 .
C8 C9 1.375(3) .
C8 H8 0.9300 .
C9 C10 1.382(3) .
C9 H9 0.9300 .
C10 C11 1.500(3) .
C11 H11A 0.9600 .
C11 H11B 0.9600 .
C11 H11C 0.9600 .
loop_
_geom_hbond_atom_site_label_D
_geom_hbond_atom_site_label_H
_geom_hbond_atom_site_label_A
_geom_hbond_distance_DH
_geom_hbond_distance_HA
_geom_hbond_distance_DA
_geom_hbond_angle_DHA
_geom_hbond_site_symmetry_A
C6 H6 O1 0.93 2.49 3.389(2) 163.6 8_665
C8 H8 O2 0.93 2.51 3.231(2) 134.6 5_666
C9 H9 O2 0.93 2.61 3.233(2) 125.3 1_655
N2 H1N2 N4 0.82(2) 2.11(2) 2.927(2) 177(2) 5_666
N1 H1N1 O2 0.86(3) 2.22(3) 3.076(2) 171(2) 6_656
N1 H2N1 O1 0.84(3) 2.49(3) 3.030(2) 123(2) 3_655
N1 H2N1 N3 0.84(3) 2.63(3) 3.409(2) 155(2) 3_655
loop_
_geom_torsion_atom_site_label_1
_geom_torsion_atom_site_label_2
_geom_torsion_atom_site_label_3
_geom_torsion_atom_site_label_4
_geom_torsion
_geom_torsion_site_symmetry_1
_geom_torsion_site_symmetry_2
_geom_torsion_site_symmetry_3
_geom_torsion_site_symmetry_4
O1 S1 N2 C7 46.46(17) . . . .
O2 S1 N2 C7 173.38(15) . . . .
C1 S1 N2 C7 -72.09(17) . . . .
O1 S1 C1 C6 160.36(15) . . . .
O2 S1 C1 C6 29.87(17) . . . .
N2 S1 C1 C6 -80.52(17) . . . .
O1 S1 C1 C2 -17.20(19) . . . .
O2 S1 C1 C2 -147.68(16) . . . .
N2 S1 C1 C2 101.92(17) . . . .
C6 C1 C2 C3 0.0(3) . . . .
S1 C1 C2 C3 177.58(16) . . . .
C1 C2 C3 C4 -1.1(3) . . . .
C2 C3 C4 N1 -176.4(2) . . . .
C2 C3 C4 C5 1.2(3) . . . .
N1 C4 C5 C6 177.31(19) . . . .
C3 C4 C5 C6 -0.3(3) . . . .
C4 C5 C6 C1 -0.8(3) . . . .
C2 C1 C6 C5 0.9(3) . . . .
S1 C1 C6 C5 -176.68(15) . . . .
C10 N3 C7 N4 0.4(3) . . . .
C10 N3 C7 N2 -179.01(15) . . . .
C8 N4 C7 N3 0.2(3) . . . .
C8 N4 C7 N2 179.62(15) . . . .
S1 N2 C7 N3 -3.0(2) . . . .
S1 N2 C7 N4 177.49(12) . . . .
C7 N4 C8 C9 -0.2(3) . . . .
N4 C8 C9 C10 -0.3(3) . . . .
C7 N3 C10 C9 -0.9(2) . . . .
C7 N3 C10 C11 178.43(16) . . . .
C8 C9 C10 N3 0.9(3) . . . .
C8 C9 C10 C11 -178.44(18) . . . .
