#------------------------------------------------------------------------------
#$Date: 2017-09-28 16:23:48 +0300 (Thu, 28 Sep 2017) $
#$Revision: 201450 $
#$URL: file:///home/coder/svn-repositories/cod/cif/1/54/74/1547448.cif $
#------------------------------------------------------------------------------
#
# This file is available in the Crystallography Open Database (COD),
# http://www.crystallography.net/
#
# All data on this site have been placed in the public domain by the
# contributors.
#
data_1547448
loop_
_publ_author_name
'Anuradha R. Pallipurath'
'Jonathan M. Skelton'
'Mark R. Warren'
'Naghmeh Kamali'
'Patrick McArdle'
'Andrea Erxleben'
_publ_section_title
;
 Sulfamerazine: Understanding the Influence of Slip Planes in the
 Polymorphic Phase Transformation through X-Ray Crystallographic Studies
 and ab Initio Lattice Dynamics
;
_journal_name_full               'Molecular Pharmaceutics'
_journal_page_first              3735
_journal_page_last               3748
_journal_paper_doi               10.1021/acs.molpharmaceut.5b00504
_journal_volume                  12
_journal_year                    2015
_chemical_formula_moiety         'C11 H12 N4 O2 S'
_chemical_formula_sum            'C11 H12 N4 O2 S'
_chemical_formula_weight         264.31
_chemical_name_common            Sulfamerazine
_chemical_name_systematic        4-amino-N-(4-methylpyrimidin-2-yl)
_space_group_crystal_system      orthorhombic
_space_group_IT_number           61
_space_group_name_Hall           '-P 2ac 2ab'
_space_group_name_H-M_alt        'P b c a'
_symmetry_space_group_name_Hall  '-P 2ac 2ab'
_symmetry_space_group_name_H-M   'P b c a'
_atom_sites_solution_hydrogens   mixed
_cell_angle_alpha                90
_cell_angle_beta                 90
_cell_angle_gamma                90
_cell_formula_units_Z            8
_cell_length_a                   9.1311(3)
_cell_length_b                   11.6667(2)
_cell_length_c                   22.8800(4)
_cell_measurement_reflns_used    7669
_cell_measurement_temperature    260
_cell_measurement_theta_max      29.5360
_cell_measurement_theta_min      1.7270
_cell_volume                     2437.40(10)
_computing_cell_refinement
;
CrysAlisPro, Agilent Technologies,
Version 1.171.37.34 (release 22-05-2014 CrysAlis171 .NET)
(compiled May 22 2014,16:03:01)
;
_computing_data_collection
;
CrysAlisPro, Agilent Technologies,
Version 1.171.37.34 (release 22-05-2014 CrysAlis171 .NET)
(compiled May 22 2014,16:03:01)
;
_computing_data_reduction
;
CrysAlisPro, Agilent Technologies,
Version 1.171.37.34 (release 22-05-2014 CrysAlis171 .NET)
(compiled May 22 2014,16:03:01)
;
_computing_molecular_graphics    OSCAIL
_computing_structure_refinement  'SHELXL-2014/7 (Sheldrick, 2014)'
_computing_structure_solution    SHELXT
_diffrn_ambient_temperature      260
_diffrn_measured_fraction_theta_full 0.990
_diffrn_measured_fraction_theta_max 0.973
_diffrn_measurement_device       'CrystalLogic Kappa (3 circle)'
_diffrn_measurement_device_type  'Rigaku Saturn724+ (2x2 bin mode)'
_diffrn_measurement_method
;
omega rotation with 1 degree frames
;
_diffrn_measurement_specimen_support 'MiTeGen loop'
_diffrn_radiation_monochromator  'double crystal Silicon 111'
_diffrn_radiation_source         'Diamond Light Source Beamline I19'
_diffrn_radiation_type           Synchrotron
_diffrn_radiation_wavelength     0.68890
_diffrn_reflns_av_R_equivalents  0.0730
_diffrn_reflns_av_unetI/netI     0.0431
_diffrn_reflns_Laue_measured_fraction_full 0.990
_diffrn_reflns_Laue_measured_fraction_max 0.973
_diffrn_reflns_limit_h_max       11
_diffrn_reflns_limit_h_min       -12
_diffrn_reflns_limit_k_max       13
_diffrn_reflns_limit_k_min       -16
_diffrn_reflns_limit_l_max       32
_diffrn_reflns_limit_l_min       -31
_diffrn_reflns_number            21767
_diffrn_reflns_point_group_measured_fraction_full 0.990
_diffrn_reflns_point_group_measured_fraction_max 0.973
_diffrn_reflns_theta_full        24.415
_diffrn_reflns_theta_max         29.471
_diffrn_reflns_theta_min         1.725
_exptl_absorpt_coefficient_mu    0.266
_exptl_absorpt_correction_T_max  1.00000
_exptl_absorpt_correction_T_min  0.96325
_exptl_absorpt_correction_type   multi-scan
_exptl_absorpt_process_details
;
CrysAlisPro, Agilent Technologies,
Version 1.171.36.28 (release 01-02-2013 CrysAlis171 .NET)
Empirical absorption correction using spherical harmonics,
implemented in SCALE3 ABSPACK scaling algorithm.
;
_exptl_crystal_colour            Colourless
_exptl_crystal_density_diffrn    1.441
_exptl_crystal_description       Parallelepiped
_exptl_crystal_F_000             1104
_exptl_crystal_size_max          0.50
_exptl_crystal_size_mid          0.40
_exptl_crystal_size_min          0.20
_refine_diff_density_max         0.268
_refine_diff_density_min         -0.391
_refine_diff_density_rms         0.056
_refine_ls_extinction_coef       .
_refine_ls_extinction_method     none
_refine_ls_goodness_of_fit_ref   0.986
_refine_ls_hydrogen_treatment    mixed
_refine_ls_matrix_type           full
_refine_ls_number_parameters     176
_refine_ls_number_reflns         3617
_refine_ls_number_restraints     0
_refine_ls_restrained_S_all      0.986
_refine_ls_R_factor_all          0.0767
_refine_ls_R_factor_gt           0.0506
_refine_ls_shift/su_max          0.000
_refine_ls_shift/su_mean         0.000
_refine_ls_structure_factor_coef Fsqd
_refine_ls_weighting_details
'w=1/[\s^2^(Fo^2^)+(0.0463P)^2^+1.4827P] where P=(Fo^2^+2Fc^2^)/3'
_refine_ls_weighting_scheme      calc
_refine_ls_wR_factor_gt          0.1140
_refine_ls_wR_factor_ref         0.1323
_reflns_Friedel_coverage         0.000
_reflns_Friedel_fraction_full    .
_reflns_Friedel_fraction_max     .
_reflns_number_gt                2528
_reflns_number_total             3617
_reflns_threshold_expression     'I > 2\s(I)'
_cod_data_source_file            Exp_Form-II2FSynchrotron_Form-II_260K.cif
_cod_data_source_block           260k_smz-f2_a
_cod_database_code               1547448
_shelx_space_group_comment
;
The symmetry employed for this shelxl refinement is uniquely defined
by the following loop, which should always be used as a source of
symmetry information in preference to the above space-group names.
They are only intended as comments.
;
_shelx_estimated_absorpt_t_min   0.879
_shelx_estimated_absorpt_t_max   0.949
_shelx_res_file
;

    260k_smz-f2_a.res created by SHELXL-2014/7

TITL 260k_smz-f2_a.res in Pbca
REM Old TITL 034_260K_SulfamerazineF2_ in Pbca
REM SHELXT solution in Pbca
REM R1 0.123,  Rweak 0.299,  Alpha 0.024,  Orientation as input
REM Formula found by SHELXT:  C12 N3 O2 S
CELL  0.68890   9.1311  11.6667  22.8800   90.000   90.000   90.000
ZERR    8.000   0.0003   0.0002   0.0004    0.000    0.000    0.000
REM SG 61 8 8 Pbca P21/b21/c21/a PGmmm Orthorhombic
LATT 1
REM SG  ASUN  1  .5 .5 .5
REM SG  ORGN  at Inv.cen.
SYMM 0.5-X,-Y,0.5+Z
SYMM -X,0.5+Y,0.5-Z
SYMM 0.5+X,0.5-Y,-Z
SFAC C H N O S
UNIT 88 96  32  16  8
FMAP 2
PLAN -32
BOND $H
L.S. 12
SIZE    0.50  0.40  0.20
ACTA
CONF
REM Instructions for potential hydrogen bonds
EQIV $1 -x+1/2, y+1/2, z
HTAB C6 O1_$1
EQIV $2 -x+1, -y+1, -z+1
HTAB C8 O2_$2
EQIV $3 x+1, y, z
HTAB C9 O2_$3
HTAB N2 N4_$2
EQIV $4 x+1/2, y, -z+1/2
HTAB N1 O2_$4
EQIV $5 -x+1, y+1/2, -z+1/2
HTAB N1 O1_$5
HTAB N1 N3_$5
LIST 4
WGHT    0.046300    1.482700
FVAR       0.54303
S1    5    0.332596    0.346557    0.389766    11.00000    0.03604    0.03656 =
         0.03240   -0.00234   -0.00015   -0.00419
O2    4    0.197904    0.397075    0.409605    11.00000    0.03271    0.05783 =
         0.03856   -0.00241    0.00151   -0.00295
O1    4    0.342315    0.224685    0.386278    11.00000    0.06145    0.03479 =
         0.04232   -0.00133   -0.00045   -0.00861
N4    3    0.665789    0.426248    0.485413    11.00000    0.03630    0.04397 =
         0.03684   -0.00401   -0.00423    0.00313
N3    3    0.655365    0.286008    0.409100    11.00000    0.04110    0.03868 =
         0.04054   -0.00210    0.00378    0.00606
N2    3    0.451298    0.394722    0.437638    11.00000    0.03548    0.04093 =
         0.03870   -0.00979   -0.00391    0.00599
N1    3    0.456460    0.532912    0.155290    11.00000    0.07305    0.04963 =
         0.04400    0.00585    0.01962    0.00296
C1    1    0.375855    0.404261    0.321855    11.00000    0.03946    0.03611 =
         0.03237   -0.00309    0.00262   -0.00135
C2    1    0.448889    0.338411    0.280510    11.00000    0.05872    0.04038 =
         0.04351    0.00048    0.00848    0.01105
AFIX  43
H2    2    0.478346    0.264269    0.289712    11.00000   -1.30000
AFIX   0
C3    1    0.477758    0.382717    0.225917    11.00000    0.06486    0.04354 =
         0.04183   -0.00155    0.01489    0.00975
AFIX  43
H3    2    0.527673    0.338216    0.198705    11.00000   -1.30000
AFIX   0
C4    1    0.433337    0.493376    0.210714    11.00000    0.04557    0.04148 =
         0.03929    0.00042    0.00527   -0.00618
C5    1    0.360429    0.558905    0.253174    11.00000    0.05501    0.03162 =
         0.04644    0.00073    0.00750    0.00008
AFIX  43
H5    2    0.329878    0.632819    0.244064    11.00000   -1.30000
AFIX   0
C6    1    0.333428    0.515456    0.308116    11.00000    0.04396    0.03414 =
         0.03980   -0.00494    0.00711   -0.00229
AFIX  43
H6    2    0.286817    0.560524    0.336009    11.00000   -1.30000
AFIX   0
C7    1    0.597525    0.366381    0.443349    11.00000    0.03548    0.03544 =
         0.03199    0.00146    0.00176    0.00129
C8    1    0.807594    0.400955    0.492941    11.00000    0.03678    0.05753 =
         0.04229    0.00068   -0.00383    0.00183
AFIX  43
H8    2    0.859838    0.439875    0.521640    11.00000   -1.30000
AFIX   0
C9    1    0.878736    0.320323    0.460204    11.00000    0.03431    0.05676 =
         0.04615    0.00741    0.00223    0.00686
AFIX  43
H9    2    0.977630    0.304902    0.465921    11.00000   -1.30000
AFIX   0
C10   1    0.798398    0.262404    0.418227    11.00000    0.04230    0.04419 =
         0.04311    0.00756    0.01032    0.00752
C11   1    0.865598    0.169516    0.381820    11.00000    0.06053    0.05767 =
         0.06786   -0.00625    0.01199    0.01901
AFIX 137
H11A  2    0.820521    0.097487    0.391195    11.00000   -1.30000
H11B  2    0.968691    0.165306    0.389764    11.00000   -1.30000
H11C  2    0.850639    0.186238    0.341174    11.00000   -1.30000
AFIX   0
H1N2  2    0.417776    0.446532    0.459284    11.00000    0.04912
H1N1  2    0.511248    0.495369    0.135255    11.00000    0.05411
H2N1  2    0.453927    0.603344    0.148411    11.00000    0.06946
HKLF 4

REM  260k_smz-f2_a.res in Pbca
REM R1 =  0.0506 for    2528 Fo > 4sig(Fo)  and  0.0767 for all    3617 data
REM    176 parameters refined using      0 restraints

END

WGHT      0.0413      0.9994

REM Highest difference peak  0.268,  deepest hole -0.391,  1-sigma level  0.056
Q1    1   0.8241  0.2186  0.4009  11.00000  0.05    0.27
Q2    1   0.3714  0.3769  0.3504  11.00000  0.05    0.26
Q3    1   0.1584  0.5250  0.2266  11.00000  0.05    0.23
Q4    1   0.3924  0.3721  0.3035  11.00000  0.05    0.23
Q5    1   0.3708  0.4551  0.3204  11.00000  0.05    0.22
Q6    1   0.3234  0.5165  0.2678  11.00000  0.05    0.20
Q7    1   0.9283  0.0949  0.3910  11.00000  0.05    0.20
Q8    1   0.9366  0.1959  0.2874  11.00000  0.05    0.19
Q9    1   0.2310  0.3715  0.3970  11.00000  0.05    0.18
Q10   1   0.2928  0.3377  0.3011  11.00000  0.05    0.18
Q11   1   0.3981  0.2584  0.4008  11.00000  0.05    0.17
Q12   1   0.5190  0.3762  0.4366  11.00000  0.05    0.17
Q13   1   0.1664  0.4585  0.3917  11.00000  0.05    0.17
Q14   1   0.4994  0.3760  0.3154  11.00000  0.05    0.17
Q15   1   0.5429  0.3056  0.2890  11.00000  0.05    0.17
Q16   1   0.5287  0.6191  0.2679  11.00000  0.05    0.17
Q17   1   0.6224  0.2975  0.3674  11.00000  0.05    0.17
Q18   1   0.8424  0.2817  0.4365  11.00000  0.05    0.17
Q19   1   0.6142  0.3262  0.4173  11.00000  0.05    0.16
Q20   1   0.2779  0.4401  0.3174  11.00000  0.05    0.16
Q21   1   0.7500  0.3590  0.3072  11.00000  0.05    0.16
Q22   1   0.7077  0.2183  0.3302  11.00000  0.05    0.16
Q23   1   0.6868  0.5820  0.4987  11.00000  0.05    0.16
Q24   1   0.2503  0.5438  0.3312  11.00000  0.05    0.16
Q25   1   0.5424  0.3962  0.2403  11.00000  0.05    0.16
Q26   1   0.4785  0.4618  0.2237  11.00000  0.05    0.16
Q27   1   0.9421  0.2267  0.3463  11.00000  0.05    0.16
Q28   1   0.1082  0.5533  0.1914  11.00000  0.05    0.15
Q29   1   0.9525  0.1827  0.3611  11.00000  0.05    0.15
Q30   1   0.4173  0.3454  0.2419  11.00000  0.05    0.15
Q31   1   0.1420  0.3830  0.4074  11.00000  0.05    0.15
Q32   1   0.4539  0.3199  0.1421  11.00000  0.05    0.15
;
_shelx_res_checksum              40128
_shelx_hkl_file
;
   0   0   2  736.54   13.97
   0   0   2  596.56   13.11
   0   0   3   -0.88    0.91
   0   0   3   -0.36    0.16
   0   0   4 2666.38   39.20
   0   0   4 2763.47   39.06
   0   0   5    0.02    0.75
   0   0   5    3.22    2.10
   0   0   6 7412.00   77.79
   0   0   6 7516.18   78.96
   0   0   7    0.21    0.97
   0   0   7   -0.57    0.69
   0   0   8  981.73   33.16
   0   0   8  908.54   31.60
   0   0   9    0.48    1.50
   0   0   9    1.33    2.46
   0   0  10 4995.14   83.45
   0   0  10 5010.40   82.38
   0   0  11    2.12    1.87
   0   0  11    0.51    1.61
   0   0  12    0.49    1.69
   0   0  12    5.52    3.41
   0   0  13   -0.19    3.10
   0   0  13   -0.33    1.22
   0   0  14  757.45   38.34
   0   0  14  685.39   35.59
   0   0  15   -2.03    3.22
   0   0  15    0.61    1.88
   0   0  16   23.53    8.52
   0   0  16   15.77    6.90
   0   0  17   -0.88    3.19
   0   0  17   -3.08    5.19
   0   0  18 1221.49   54.20
   0   0  18 1165.49   53.30
   0   0  19    1.47    3.63
   0   0  19    1.46    0.34
   0   0  20  106.85   17.23
   0   0  20  135.98   19.23
   0   0  21   -0.72    4.77
   0   0  21    0.06    3.18
   0   0  22  149.50   19.88
   0   0  22  148.05   21.14
   0   0  23    5.67    3.11
   0   0  23    0.26    0.51
   0   0  24   49.90   12.54
   0   0  24   80.81   15.56
   0   0  25    4.07    5.91
   0   0  25   -0.39    5.44
   0   0  26   41.46   12.64
   0   0  26   36.62   10.98
   0   0  27   -0.95    3.50
   0   0  27   -1.09    6.12
   0   0  28   62.26   16.04
   0   0  28   39.62   11.70
   0   0  29   -1.88    1.24
   0   0  29   -3.91    1.36
   0   0  30  160.12   24.90
   0   0  30  191.80   27.01
   0   0  31    4.67    9.99
   0   0  31    3.60    3.71
   0   0  32    3.31    5.93
   0   0  32    1.55    2.08
   0  -1   0    0.14    0.53
   0  -1   0   -0.22    0.60
   0  -1  -1    1.02    1.00
   0   1   1    0.57    0.59
   0  -1   1   -0.03    0.65
   0  -1   1    0.33    0.87
   0  -1   2    0.04    0.26
   0   1   2   -0.05    0.38
   0  -1   2    0.01    0.79
   0   1   2    0.31    0.18
   0   1   3    0.69    1.10
   0  -1   3    1.79    0.98
   0   1   3    0.83    1.18
   0  -1   3    0.38    0.62
   0  -1   4    1.73    1.65
   0  -1   4    0.18    0.68
   0  -1   4    1.48    0.99
   0   1   4    0.24    0.66
   0   1   4   -1.20    1.04
   0   1   5    1.44    1.46
   0  -1   5    3.20    1.99
   0  -1   5    1.32    0.81
   0  -1   5   -0.14    0.79
   0   1   5   -0.66    0.76
   0   1   6   -1.31    0.30
   0  -1   6    0.81    0.63
   0  -1   6    0.60    1.83
   0   1   6    0.47    1.64
   0  -1   7   -0.94    1.62
   0   1   7    0.27    1.39
   0  -1   7   -2.12    1.49
   0   1   7    1.24    1.55
   0   1   8    0.56    2.03
   0  -1   8    0.26    0.46
   0   1   8    0.06    0.52
   0  -1   8    2.44    0.85
   0  -1   9    1.59    0.42
   0   1   9   -1.21    2.03
   0   1   9    1.48    0.25
   0  -1   9    2.76    2.82
   0   1  10   -3.39    2.96
   0  -1  10   -0.01    4.02
   0   1  10   -0.55    1.44
   0  -1  10   -0.65    2.82
   0   1  11    0.76    1.10
   0  -1  11    0.85    2.93
   0  -1  11    0.66    1.28
   0   1  11   -0.51    2.42
   0   1  12    0.41    1.96
   0  -1  12   -0.11    1.86
   0   1  12   -0.34    1.07
   0  -1  12   -0.49    2.91
   0  -1  13    1.14    1.56
   0  -1  13    1.47    5.10
   0   1  13    2.60    3.40
   0   1  13    0.60    1.62
   0   1  14   -0.49    1.66
   0  -1  14   -0.87    1.91
   0   1  14   -0.84    2.35
   0  -1  14   -0.46    2.10
   0   1  15   -0.12    3.62
   0  -1  15   -2.84    3.19
   0   1  15   -0.63    2.77
   0  -1  15   -1.07    2.54
   0  -1  16   -2.46    3.02
   0   1  16    4.08    2.66
   0   1  16    0.66    1.32
   0  -1  16   -3.39    4.47
   0  -1  17   -1.04    4.04
   0   1  17   -1.76    4.43
   0  -1  17   -0.68    3.72
   0   1  17    0.15    2.58
   0  -1  18    3.80    4.05
   0   1  18    1.26    0.96
   0  -1  18   -2.58    3.21
   0   1  18   -1.76    2.51
   0   1  19   -1.81    2.11
   0   1  19    1.51    2.01
   0  -1  19   -1.27    3.87
   0  -1  19    0.91    4.63
   0   1  20   -0.09    2.00
   0  -1  20    3.36    4.22
   0  -1  20    2.14    3.33
   0   1  20   -2.63    3.14
   0   1  21    1.00    2.25
   0  -1  21   -1.55    4.12
   0  -1  21    9.65    6.65
   0   1  21    2.06    4.36
   0  -1  22    1.10    3.74
   0   1  22    1.55    7.05
   0  -1  22    1.02    4.25
   0   1  22    0.23    4.02
   0   1  23    0.17    3.47
   0  -1  23   -2.32    3.44
   0  -1  23   -3.24    1.10
   0   1  23   -3.64    5.14
   0   1  24    6.17    3.66
   0  -1  24    1.57    5.34
   0   1  24    5.67    2.48
   0  -1  24    0.34    3.40
   0  -1  25   -1.28    3.84
   0   1  25    0.32    0.76
   0  -1  25   -2.03    3.28
   0   1  26   -1.28    3.74
   0   1  26   -1.40    1.30
   0  -1  26    3.63    5.68
   0  -1  26   -0.52    0.83
   0   1  27   -2.77    3.65
   0  -1  27   -2.08    3.63
   0   1  27    3.40    5.17
   0  -1  27    1.11    3.80
   0  -1  28    5.03    6.60
   0   1  28   -2.26    6.06
   0   1  28    3.77    8.34
   0  -1  28   -2.66    1.36
   0   1  29    6.59    6.89
   0   1  29   -0.98    4.87
   0  -1  29   -0.42    4.07
   0  -1  29    0.38    2.91
   0   1  30   -0.53    4.26
   0  -1  30    4.79    7.17
   0  -1  30   -7.24    9.00
   0   1  30   -7.50    7.60
   0  -1  31    1.57    1.23
   0   1  31    8.56    6.70
   0  -1  31   10.09    6.45
   0   1  31   -0.41    5.00
   0   1  32   -1.31    3.53
   0   1  32    4.93    6.18
   0  -1  32    1.85    3.81
   0  -1  32    2.16    6.07
   0  -2   0    1.93    1.84
   0  -2   0    1.49    1.42
   0  -2  -1 8422.62   69.52
   0  -2   1 8329.32   66.41
   0   2   2 4169.27   49.21
   0   2   2 4218.66   39.40
   0  -2   2 4250.76   48.25
   0  -2   2 4156.69   52.08
   0  -2  -2 4075.49   50.49
   0   2   3 9999.00   67.24
   0  -2  -3 9976.51   83.07
   0   2   3 9736.18   80.85
   0  -2   3 9807.58   83.75
   0   2   4 8050.29   68.08
   0   2   4 7924.82   77.49
   0  -2   4 7883.02   79.83
   0  -2   4 7935.49   74.97
   0  -2   5 8016.21   79.85
   0   2   5 7930.02   82.60
   0   2   5 7818.19   76.18
   0  -2   6 7235.26   81.66
   0  -2   6 7159.91   84.42
   0   2   6 7382.96   80.50
   0   2   6 7564.14   85.53
   0  -2   6 7513.45   83.64
   0   2   7   64.24    8.23
   0  -2   7   62.01    8.04
   0  -2   7   62.76    8.26
   0  -2   7   48.45    6.73
   0   2   7   69.53    8.45
   0   2   8  508.70   23.81
   0  -2   8  456.35   22.54
   0  -2   8  522.17   24.98
   0   2   8  503.16   24.71
   0  -2   8  505.52   24.23
   0   2   9 1657.92   47.20
   0  -2   9 1642.43   45.16
   0  -2   9 1586.91   45.88
   0   2   9 1566.41   44.21
   0  -2   9 1602.72   45.02
   0   2  10  784.03   33.22
   0  -2  10  827.03   35.09
   0   2  10  849.65   35.78
   0  -2  10  798.34   33.68
   0   2  11 1182.68   44.67
   0  -2  11 1187.96   44.29
   0  -2  11 1175.32   41.84
   0   2  11 1182.48   42.62
   0   2  12  563.80   31.40
   0   2  12  574.19   30.72
   0  -2  12  576.15   31.56
   0  -2  12  485.74   28.59
   0   2  13  132.34   15.68
   0   2  13  128.65   15.40
   0  -2  13  117.22   14.49
   0  -2  13  114.02   14.55
   0   2  14  548.41   32.77
   0  -2  14  576.52   33.69
   0  -2  14  556.89   32.51
   0   2  15   14.97    5.45
   0   2  15   21.77    7.03
   0  -2  15   11.10    5.07
   0  -2  15   10.28    5.19
   0  -2  16   83.33   13.83
   0  -2  16   66.45   11.75
   0   2  16   51.61   11.66
   0   2  16   56.82   11.57
   0   2  17  406.80   30.72
   0   2  17  427.83   31.37
   0  -2  17  392.90   30.31
   0  -2  17  394.70   30.29
   0  -2  18  174.62   21.18
   0   2  18  193.07   22.28
   0   2  18  224.65   24.44
   0  -2  18  188.42   22.12
   0   2  19  626.77   40.26
   0  -2  19  571.45   37.85
   0   2  19  553.30   37.27
   0  -2  19  591.90   39.91
   0  -2  20   59.33   12.29
   0   2  20   61.34   12.92
   0   2  20   56.78   11.42
   0  -2  20   53.08   12.59
   0   2  21   61.38   13.41
   0  -2  21   64.02   14.93
   0   2  21   68.21   13.61
   0  -2  21   46.65   10.63
   0   2  22    2.45    3.00
   0   2  22    1.15    2.67
   0  -2  22    2.59    2.31
   0  -2  22    3.44    4.76
   0  -2  23  322.41   31.56
   0   2  23  408.80   35.62
   0  -2  23  392.84   35.46
   0   2  23  363.02   33.28
   0  -2  24    9.01    7.10
   0   2  24    6.50    6.91
   0   2  24    7.64    6.65
   0  -2  24    2.90    3.97
   0  -2  25   16.85    9.18
   0   2  25   20.26    7.27
   0  -2  25   16.41    7.50
   0   2  25    6.84    3.06
   0   2  26   71.96   15.97
   0   2  26   50.05   12.88
   0  -2  26   75.53   16.51
   0  -2  26   47.85   11.69
   0   2  27   12.15    6.65
   0  -2  27    9.57    6.87
   0  -2  27    7.46    3.25
   0   2  27    3.99    6.99
   0  -2  28    8.40    4.07
   0  -2  28   17.72    8.20
   0   2  28    8.83    8.22
   0   2  28    8.06    5.78
   0  -2  29   40.73   12.11
   0   2  29   45.01   12.66
   0  -2  29   62.02   15.37
   0   2  29   62.66   14.87
   0   2  30    3.95    4.53
   0  -2  30   -5.21    7.19
   0  -2  30    2.25    5.12
   0   2  30   -1.41    2.24
   0   2  31    0.51    3.71
   0  -2  31   -1.36    6.04
   0   2  31    0.86    6.00
   0  -2  31   -0.21    5.06
   0   2  32   13.85    6.50
   0  -2  32   12.78    8.10
   0  -2  32   26.60    6.66
   0   2  32   13.04    8.03
   0  -3   0    0.50    1.22
   0  -3   0   -1.81    1.63
   0  -3   1   -1.31    0.42
   0  -3  -1    0.24    1.69
   0  -3   1   -1.68    1.39
   0   3   1   -1.29    1.27
   0  -3   2    0.15    0.09
   0  -3  -2    1.83    1.71
   0  -3   2   -0.78    2.13
   0   3   2    0.06    0.64
   0   3   2   -1.00    0.62
   0   3   3    0.72    0.76
   0  -3   3    0.29    0.92
   0  -3  -3    0.04    1.57
   0   3   3   -0.13    1.07
   0  -3   3    2.50    0.42
   0  -3   4    1.79    1.41
   0   3   4    0.82    1.08
   0  -3  -4    1.12    1.20
   0  -3   4    2.61    1.87
   0   3   4    0.12    1.28
   0  -3   5   -1.45    1.56
   0   3   5   -0.30    1.25
   0   3   5   -1.63    1.88
   0  -3   5   -0.04    0.98
   0  -3  -5    4.12    1.89
   0  -3   6    0.48    1.18
   0  -3   6    1.02    0.42
   0   3   6   -0.38    1.74
   0  -3  -6   -1.61    1.73
   0   3   6   -0.73    0.72
   0   3   7   -3.36    3.06
   0  -3   7   -0.73    2.16
   0  -3   7    1.08    1.12
   0   3   7   -1.47    1.82
   0  -3   8    1.92    1.22
   0  -3   8    1.98    2.04
   0  -3   8    0.35    1.97
   0   3   8   -0.88    1.11
   0   3   8    0.37    1.81
   0  -3   9   -1.55    1.56
   0   3   9   -0.68    1.13
   0  -3   9   -0.06    1.63
   0   3   9    1.01    3.88
   0  -3   9    3.14    2.69
   0  -3  10   -2.40    3.25
   0   3  10    0.28    2.54
   0  -3  10    0.09    2.04
   0   3  10    1.37    2.76
   0  -3  10    0.50    0.66
   0  -3  11    1.04    3.46
   0   3  11   -0.32    1.94
   0  -3  11   -1.63    1.70
   0  -3  11   -1.40    3.10
   0   3  11   -1.19    2.67
   0  -3  12    1.36    3.08
   0  -3  12    1.14    2.36
   0   3  12    0.88    1.65
   0   3  12    0.01    1.01
   0  -3  12    1.61    2.81
   0  -3  13   -2.55    2.29
   0   3  13    0.90    1.77
   0  -3  13    1.53    2.95
   0   3  13    1.21    0.56
   0   3  14    0.76    2.91
   0  -3  14   -1.60    3.81
   0  -3  14    1.94    5.18
   0   3  14   -0.74    0.93
   0   3  15    2.29    4.21
   0   3  15   -2.10    3.54
   0  -3  15    1.69    1.77
   0  -3  15    1.13    3.20
   0   3  16   -0.23    1.73
   0  -3  16   -1.30    2.65
   0  -3  16    4.25    4.12
   0   3  16    1.87    4.45
   0  -3  17    3.46    3.71
   0   3  17    2.03    3.87
   0   3  17    9.82    6.93
   0  -3  17   -2.44    5.98
   0  -3  18    1.75    4.16
   0   3  18   -1.09    2.34
   0  -3  18    2.24    4.28
   0   3  18   -1.99    5.48
   0  -3  19    1.56    4.45
   0   3  19   -1.02    2.76
   0   3  19    4.22    4.99
   0  -3  19   -0.37    1.18
   0   3  20    0.80    4.36
   0  -3  20    0.06    1.02
   0  -3  20   -1.08    1.86
   0   3  20   -2.30    2.77
   0   3  21    8.09    4.90
   0  -3  21    6.31    4.31
   0   3  21   -1.90    5.92
   0  -3  21   -1.13    3.62
   0   3  22   -2.14    2.66
   0   3  22    3.37    5.10
   0  -3  22   -1.25    1.21
   0  -3  22   -4.00    4.70
   0  -3  23    0.33    3.81
   0   3  23    0.45    2.87
   0  -3  23    0.45    3.30
   0   3  23   -2.27    2.04
   0  -3  24    4.52    2.01
   0   3  24    0.50    2.51
   0   3  24    0.71    3.66
   0  -3  24    5.87    6.01
   0  -3  25    0.19    3.02
   0   3  25   -1.03    1.67
   0  -3  25   -1.96    2.06
   0   3  25   -2.36    3.83
   0   3  26   -1.38    2.94
   0   3  26    1.34    4.54
   0  -3  26    0.40    0.39
   0  -3  26    4.28    2.90
   0   3  27    5.09    7.69
   0  -3  27   -2.20    3.77
   0  -3  27   -4.61    6.10
   0   3  27   -1.82    5.67
   0   3  28   -2.01    2.19
   0  -3  28    0.68    4.10
   0  -3  28   -7.89    8.29
   0   3  28   -0.27    3.67
   0  -3  29    1.98    4.60
   0  -3  29   -3.06    4.22
   0   3  29    1.90    1.07
   0   3  29   -1.47    3.49
   0  -3  30    0.71    2.84
   0  -3  30   -0.19    4.19
   0   3  30   -5.49    6.90
   0   3  30    1.38    2.02
   0  -3  31   -1.89    2.88
   0   3  31   -2.00    2.74
   0  -3  31    2.84    2.38
   0   3  31    3.83    5.31
   0  -3  32   -1.44    5.65
   0   3  32    1.45    7.03
   0   3  32    5.49    6.89
   0  -3  32   -2.28    3.12
   0  -4   0 3945.84   63.92
   0  -4   0 4284.78   69.61
   0  -4  -1 1363.95   37.13
   0  -4   1 1400.21   40.65
   0  -4  -1 1280.62   38.01
   0   4   1 1290.81   30.77
   0  -4   1 1350.81   37.46
   0  -4  -2 1606.25   42.76
   0  -4   2 1612.98   40.98
   0   4   2 1572.23   32.99
   0  -4   2 1664.01   45.26
   0  -4   3   94.86    9.91
   0   4   3   87.81    7.50
   0   4   3  105.71   10.59
   0  -4  -3   95.15   10.62
   0  -4   3   71.56    9.58
   0   4   4  203.70   15.46
   0  -4   4  222.69   17.13
   0   4   4  202.64   12.08
   0  -4   4  205.51   14.84
   0  -4  -4  175.78   14.55
   0   4   5  223.48   16.54
   0  -4   5  205.02   16.68
   0  -4   5  232.78   15.93
   0   4   5  230.39   13.79
   0  -4  -5  229.83   17.27
   0  -4   6  720.02   31.97
   0  -4  -6  705.18   31.39
   0  -4   6  697.26   28.76
   0   4   6  686.25   25.40
   0   4   6  780.98   31.50
   0   4   7  299.21   17.79
   0   4   7  284.95   19.65
   0  -4   7  294.30   19.64
   0  -4   7  293.70   20.76
   0  -4  -7  320.32   21.61
   0   4   8  238.37   18.57
   0  -4  -8  228.21   19.18
   0  -4   8  234.65   17.90
   0  -4   8  217.72   18.40
   0   4   8  203.62   15.41
   0  -4   9    6.56    3.02
   0   4   9    9.11    4.10
   0  -4   9    5.42    3.55
   0  -4   9    3.73    3.76
   0   4   9    3.47    1.61
   0  -4  -9   15.94    5.66
   0  -4 -10    4.90    3.31
   0  -4  10    0.20    3.15
   0   4  10    1.51    3.02
   0  -4  10   -1.82    3.45
   0   4  10    1.74    2.70
   0  -4  10    2.55    3.08
   0  -4  11   73.37   11.51
   0   4  11   88.30   11.55
   0  -4  11   79.76   11.91
   0   4  11   93.46   12.93
   0   4  12    2.36    2.35
   0  -4  12    3.50    4.20
   0   4  12    0.26    1.38
   0  -4  12    0.52    1.95
   0  -4  12    2.90    2.93
   0  -4  13    4.03    3.79
   0   4  13    4.77    4.22
   0  -4  13    4.54    2.81
   0   4  13    1.86    2.63
   0  -4  13   -1.36    1.87
   0  -4  14  130.87   16.63
   0   4  14  178.36   19.33
   0   4  14  134.68   17.42
   0  -4  14  130.73   16.46
   0  -4  14  164.86   17.98
   0  -4  15   72.42   12.49
   0  -4  15   55.87   11.66
   0   4  15   69.48   12.48
   0   4  15   70.93   12.40
   0  -4  16  114.20   16.77
   0   4  16  134.23   17.65
   0   4  16  149.40   18.66
   0  -4  16  137.78   18.01
   0   4  17  514.05   35.43
   0   4  17  505.79   34.16
   0  -4  17  484.48   35.24
   0  -4  17  505.15   34.55
   0   4  18 1151.81   54.30
   0  -4  18 1163.00   53.78
   0   4  18 1165.35   54.65
   0  -4  18 1191.46   55.57
   0   4  19  323.42   29.39
   0  -4  19  269.00   27.57
   0  -4  19  278.35   26.42
   0   4  19  271.56   26.88
   0   4  20    1.36    3.34
   0  -4  20   -3.29    2.08
   0   4  20    1.27    1.10
   0   4  21   49.57   12.65
   0  -4  21   69.02   14.72
   0  -4  21   39.82   10.84
   0   4  21   41.17   11.34
   0   4  22    0.59    1.27
   0  -4  22    8.01    6.27
   0   4  22   -0.21    4.33
   0  -4  22    1.10    3.11
   0   4  23   45.66   10.30
   0  -4  23   56.44   12.71
   0   4  23   81.83   14.65
   0  -4  23   82.43   16.31
   0   4  24  184.31   24.34
   0  -4  24  164.12   23.28
   0   4  24  228.89   26.46
   0  -4  24  174.16   24.25
   0   4  25   98.83   17.43
   0  -4  25   64.32   14.25
   0  -4  25   63.70   15.62
   0   4  25   88.34   17.70
   0  -4  26   -0.19    3.32
   0   4  26    9.58    8.08
   0  -4  26    1.53    2.17
   0   4  26   13.31    6.22
   0   4  27    1.15    2.50
   0  -4  27   -1.06    5.60
   0   4  27    0.80    3.80
   0  -4  27    3.07    2.91
   0   4  28   23.15    9.08
   0   4  28    4.07    6.20
   0  -4  28   27.90    9.56
   0  -4  28   25.59    9.33
   0  -4  29   12.24    5.41
   0   4  29   21.47    7.85
   0   4  29   14.04    8.85
   0  -4  29   11.09    7.51
   0  -4  30    2.56    5.96
   0   4  30    0.31    0.30
   0   4  30   -0.43    5.00
   0  -4  30    1.37    5.44
   0   4  31    1.20    4.74
   0  -4  31   -2.18    4.81
   0  -4  31   11.42    4.86
   0   4  31    0.03    4.69
   0  -5   0    1.09    1.48
   0  -5   0    4.73    3.51
   0  -5   1    0.97    0.69
   0  -5  -1   -1.03    0.94
   0  -5   1   -1.42    0.50
   0  -5  -1   -0.75    1.09
   0  -5   2    0.26    1.85
   0  -5  -2    0.23    0.78
   0  -5   2    0.79    2.25
   0  -5  -2   -1.32    1.80
   0   5   2   -1.22    1.14
   0  -5   3   -1.22    0.88
   0  -5   3   -2.23    3.56
   0  -5  -3   -1.45    1.57
   0   5   3    0.23    0.49
   0  -5   4    1.82    2.51
   0  -5   4    1.21    3.37
   0   5   4   -0.28    0.70
   0   5   4   -1.16    1.37
   0  -5  -4    3.20    3.87
   0   5   5    1.38    1.18
   0   5   5    0.79    0.43
   0  -5   5    1.94    2.77
   0  -5  -5   -1.30    2.30
   0  -5   5    2.99    3.82
   0   5   6    1.16    1.89
   0  -5  -6    4.30    3.48
   0  -5   6    0.97    1.44
   0  -5   6    1.37    2.33
   0   5   6    3.44    3.41
   0  -5   7    2.19    1.79
   0  -5  -7    2.50    3.52
   0   5   7   -1.45    1.56
   0   5   7   -0.66    0.64
   0  -5   7    0.12    1.85
   0   5   8    1.48    1.98
   0  -5  -8   -0.87    2.61
   0   5   8    1.20    3.29
   0  -5   8    1.21    1.55
   0  -5   8    1.95    3.32
   0  -5   9    0.81    3.64
   0  -5   9    3.77    3.30
   0   5   9    0.67    4.17
   0   5   9   -0.21    1.21
   0  -5  -9    5.53    4.64
   0  -5  10    1.13    1.66
   0  -5  10   -0.46    2.71
   0  -5  10    1.34    1.36
   0   5  10    4.41    3.02
   0   5  10   -1.10    2.41
   0  -5 -10    1.92    2.09
   0  -5  11    1.31    3.27
   0  -5 -11    2.72    2.99
   0  -5  11    0.19    1.93
   0   5  11    1.24    2.82
   0  -5  11    2.27    2.91
   0   5  11   -1.28    1.39
   0   5  12    1.39    2.75
   0  -5  12   -0.29    1.59
   0  -5  12    3.81    2.71
   0   5  12    0.76    3.05
   0  -5 -12    2.18    3.34
   0  -5  12    1.07    1.01
   0   5  13   -1.79    3.10
   0  -5 -13    0.02    1.96
   0  -5  13   -1.11    3.46
   0  -5  13    0.66    2.18
   0  -5  13    0.17    2.80
   0   5  13   -2.43    2.81
   0  -5 -14   -3.16    3.84
   0  -5  14    0.71    2.09
   0   5  14   -0.83    2.53
   0   5  14   -0.54    0.91
   0  -5  14   -1.03    4.29
   0  -5  14    1.12    2.32
   0  -5 -15   -0.70    3.01
   0  -5  15    3.83    4.21
   0   5  15   -2.91    5.26
   0  -5  15    3.56    3.58
   0   5  15   -0.10    2.09
   0  -5  15    5.59    4.91
   0   5  16    2.36    4.15
   0  -5  16   -1.22    1.82
   0  -5  16    3.21    0.71
   0  -5  16    1.76    5.16
   0   5  16    0.85    4.18
   0   5  17    5.90    4.56
   0  -5  17   -1.56    2.71
   0  -5  17    2.11    1.68
   0   5  17    3.55    5.28
   0   5  18   -1.36    4.94
   0  -5  18    2.23    3.28
   0   5  18   -2.63    2.05
   0  -5  18    0.21    1.57
   0  -5  19    1.97    4.07
   0   5  19    2.19    3.28
   0   5  19    1.11    3.20
   0  -5  19    1.60    2.77
   0  -5  20    0.70    4.00
   0   5  20    1.35    2.25
   0   5  20    1.03    1.79
   0  -5  20    0.33    3.18
   0   5  21    6.16    6.72
   0  -5  21    2.77    4.72
   0  -5  21    2.90    3.73
   0   5  21    0.90    2.11
   0  -5  22   -4.02    6.05
   0  -5  22   -0.94    2.24
   0   5  22    0.15    5.79
   0   5  22    5.60    8.57
   0  -5  23   -0.72    2.51
   0   5  23   -0.02    1.64
   0   5  23   -1.84    4.08
   0  -5  23    5.88    6.33
   0  -5  24   -0.26    2.23
   0   5  24    3.84    5.44
   0   5  24   -3.87    4.37
   0  -5  24   -0.48    1.47
   0  -5  25    2.21    3.49
   0   5  25    1.82    6.76
   0   5  25   -1.00    3.65
   0  -5  25   -2.45    2.78
   0   5  26    3.85    5.76
   0  -5  26   -0.73    5.65
   0  -5  26   -3.45    2.10
   0   5  26    4.65    4.02
   0   5  27   -0.02    6.30
   0   5  27    3.78    6.24
   0  -5  27   -2.77    2.85
   0  -5  27   -2.45    3.97
   0  -5  28    0.71    5.65
   0   5  28   -3.59    5.91
   0  -5  28   -2.36    3.76
   0   5  28   -4.84    6.57
   0  -5  29   -1.42    1.77
   0   5  29   -2.62    5.47
   0   5  29   -1.58    3.94
   0  -5  29    0.41    2.25
   0  -5  30   -6.85    6.47
   0  -5  30    7.78    3.62
   0   5  30    0.94    3.46
   0   5  30   -1.49    3.91
   0   5  31    2.12    0.88
   0   5  31   -5.88    6.42
   0  -5  31    4.03    6.27
   0  -5  31    3.51    5.18
   0  -6   0   21.22    7.19
   0  -6   0   17.25    4.89
   0  -6  -1 3741.70   76.12
   0  -6  -1 3596.80   78.27
   0  -6   2 1136.62   45.25
   0  -6  -2 1173.70   42.46
   0   6   2 1078.33   32.76
   0  -6  -2 1067.75   42.17
   0  -6   2 1183.48   43.41
   0  -6   3  210.81   18.23
   0  -6   3  226.08   19.89
   0  -6  -3  218.15   18.82
   0   6   3  203.90   14.97
   0  -6  -4  514.71   30.16
   0  -6   4  545.99   31.57
   0   6   4  544.63   24.65
   0  -6   4  532.90   28.67
   0   6   5   29.39    7.14
   0  -6   5   24.77    6.30
   0  -6  -5   22.45    6.18
   0   6   5   14.22    4.49
   0  -6   5   23.64    7.14
   0  -6   6    7.25    3.50
   0   6   6    1.35    1.56
   0  -6  -6    6.55    2.73
   0  -6   6    3.29    2.18
   0   6   7  227.44   16.66
   0  -6   7  286.18   23.23
   0  -6   7  280.35   21.47
   0  -6   8   39.38    7.92
   0  -6   8   40.93    8.57
   0   6   8   37.78    6.79
   0   6   8   24.74    6.64
   0  -6  -8   41.00    9.39
   0  -6  -9   49.67   10.14
   0   6   9   53.23    9.09
   0   6   9   46.53    9.71
   0  -6   9   54.45   10.34
   0  -6   9   56.09   10.36
   0  -6  10   70.41   12.33
   0  -6  10   47.32    9.31
   0   6  10   73.27   12.72
   0  -6 -10   39.02    9.49
   0   6  10   62.01    9.99
   0  -6  10   69.41   10.90
   0  -6 -11    2.88    3.11
   0   6  11   -0.56    1.83
   0  -6  11   -2.07    2.93
   0  -6  11   -0.53    1.95
   0   6  11   -0.22    3.30
   0  -6  11   -1.38    2.66
   0  -6 -12 2713.99   78.53
   0  -6  12 2824.54   79.24
   0  -6  12 2736.04   75.46
   0  -6  12 2642.14   74.22
   0   6  12 2822.72   78.22
   0   6  12 2796.18   71.49
   0   6  13    3.36    2.98
   0  -6 -13   -1.00    2.08
   0  -6  13    2.08    4.68
   0  -6  13   -0.25    2.95
   0   6  13   -0.32    1.68
   0  -6  13    3.91    3.55
   0  -6  14  225.68   23.15
   0  -6  14  245.59   23.63
   0  -6  14  204.97   22.81
   0  -6 -14  219.61   23.07
   0   6  14  268.97   23.68
   0   6  14  226.05   22.85
   0  -6  15  460.56   33.36
   0  -6  15  473.62   32.88
   0  -6  15  498.94   34.99
   0   6  15  503.54   34.92
   0  -6 -15  465.60   34.30
   0   6  15  487.93   32.54
   0  -6 -16   54.50   11.15
   0  -6  16   66.06   12.89
   0   6  16   64.03   13.36
   0  -6  16   36.96    9.21
   0  -6  16   61.16   12.74
   0   6  16   48.87    9.84
   0   6  17   68.52   13.69
   0  -6  17   94.25   15.76
   0  -6 -17   58.24   12.45
   0  -6  17   68.46   12.60
   0  -6  17   96.57   16.42
   0   6  17   72.12   13.95
   0  -6  18  377.07   31.39
   0   6  18  452.62   34.23
   0   6  18  373.32   32.32
   0  -6  18  335.96   29.57
   0  -6  18  364.37   32.51
   0  -6 -18  347.41   31.57
   0   6  19  239.93   25.37
   0   6  19  246.94   26.65
   0  -6  19  235.14   26.00
   0  -6  19  267.17   28.26
   0  -6 -20   65.33   14.56
   0  -6  20   56.14   13.75
   0   6  20   42.73   10.14
   0  -6  20   52.85   13.46
   0   6  20   66.10   13.98
   0  -6 -21  309.50   31.81
   0   6  21  277.02   29.25
   0   6  21  293.32   28.95
   0  -6  21  227.03   27.15
   0  -6  21  274.74   29.88
   0  -6 -22  182.50   24.41
   0  -6  22  184.36   23.85
   0  -6  22  195.82   25.06
   0   6  22  124.90   20.19
   0   6  22  176.18   23.60
   0  -6  23    5.79    5.12
   0   6  23   -2.69    4.81
   0  -6 -23    7.63    3.16
   0  -6  23    5.27    3.47
   0   6  23    2.10    5.63
   0  -6 -24   39.46   11.53
   0   6  24   65.76   15.01
   0   6  24   61.99   14.83
   0  -6  24   59.65   14.39
   0  -6  24   31.33   10.31
   0   6  25   72.60   15.97
   0  -6  25   78.98   16.33
   0  -6 -25   62.07   14.34
   0   6  25   74.85   17.58
   0  -6  25   67.79   15.29
   0   6  26  113.80   20.80
   0  -6 -26  102.56   19.49
   0  -6  26  107.30   19.78
   0  -6  26  102.77   19.88
   0   6  26  106.20   19.19
   0  -6 -27    9.89    5.29
   0  -6  27    7.04    5.57
   0  -6  27   -5.83    3.95
   0   6  27    2.87    4.94
   0   6  27   -6.00    8.34
   0   6  28   74.83   15.57
   0  -6  28   46.79   12.38
   0  -6 -28   51.04   14.24
   0  -6  28   79.77   18.39
   0   6  28   67.83   15.99
   0  -6 -29   -3.09    2.18
   0   6  29   15.29    6.20
   0  -6  29   18.28    9.51
   0   6  29   -0.50    1.07
   0  -6  29    8.86    5.47
   0   6  30    3.64    3.73
   0  -6 -30   -6.60    5.85
   0  -6  30   -2.96    6.21
   0   6  30    4.51    6.50
   0  -6  30    4.70    4.86
   0  -7   0    0.15    3.85
   0  -7   0   -0.65    2.43
   0  -7   1   -2.62    2.04
   0  -7  -1    0.73    3.46
   0  -7  -1   -0.23    3.21
   0  -7   1   -2.21    0.78
   0  -7   2    0.55    1.89
   0  -7  -2    0.12    1.06
   0  -7  -2   -1.40    2.27
   0  -7   2    5.11    4.15
   0  -7   3    0.59    0.75
   0  -7  -3    0.18    1.96
   0  -7  -3   -1.89    2.17
   0   7   3    1.66    2.38
   0  -7   3    1.90    1.96
   0  -7   4   -0.49    2.00
   0  -7   4    0.71    4.09
   0  -7  -4   -1.10    1.33
   0   7   4    0.29    0.62
   0  -7   5    0.14    1.62
   0  -7   5   -0.73    3.17
   0   7   5   -0.33    2.08
   0  -7  -5   -0.66    3.10
   0   7   6   -1.40    2.26
   0  -7   6   -0.87    2.59
   0  -7  -6    0.86    1.83
   0   7   6    3.09    3.95
   0  -7   6   -1.23    2.45
   0  -7   7    0.21    2.34
   0  -7   7   -1.14    1.94
   0  -7  -7    0.71    1.04
   0   7   7   -2.29    1.58
   0   7   7    1.40    3.23
   0  -7   8    3.63    5.08
   0  -7   8    3.76    3.93
   0  -7  -8   -1.02    3.17
   0   7   8   -1.21    1.72
   0   7   8   -0.31    2.45
   0  -7   9   -0.11    1.93
   0   7   9    1.11    2.27
   0  -7  -9    0.57    2.71
   0   7   9   -4.71    3.53
   0  -7   9   -3.93    5.83
   0  -7  10    0.08    4.84
   0  -7 -10    1.01    3.96
   0   7  10    1.06    1.95
   0  -7  10   -0.51    3.20
   0   7  10   -0.15    1.66
   0   7  11   -4.00    5.42
   0  -7  11   -2.02    2.12
   0  -7  11   -3.85    4.84
   0  -7  11    1.22    5.20
   0   7  11    0.04    2.67
   0  -7 -11    1.71    1.84
   0   7  12   -0.82    3.31
   0   7  12   -1.53    3.43
   0  -7  12    0.17    4.13
   0  -7  12   -1.46    0.75
   0  -7  12    2.06    2.79
   0  -7 -12    3.54    6.15
   0  -7  13   -1.12    1.93
   0  -7  13    0.93    1.79
   0  -7  13   -2.02    2.51
   0  -7 -13    1.52    2.25
   0   7  13   -1.24    3.25
   0   7  13    0.74    1.15
   0  -7 -14    5.30    3.37
   0  -7  14    1.85    3.11
   0  -7  14    0.22    3.31
   0  -7  14   -2.68    4.76
   0   7  14   -0.70    1.49
   0   7  14    1.65    3.06
   0  -7  15    0.94    5.85
   0  -7 -15    3.98    3.43
   0  -7  15    1.26    5.81
   0   7  15   -0.67    0.49
   0   7  15   -0.38    2.60
   0  -7  15   -1.29    0.52
   0  -7 -16   -0.53    4.36
   0   7  16    5.35    5.47
   0   7  16   -1.09    2.99
   0  -7  16    1.06    1.71
   0  -7  16    0.78    2.23
   0  -7  16   -0.05    2.86
   0   7  17    3.52    5.47
   0  -7  17    3.33    1.72
   0  -7  17   -4.36    5.65
   0  -7 -17    2.49    2.86
   0  -7  17    0.88    3.44
   0   7  17   -1.92    4.07
   0  -7  18    5.95    4.02
   0  -7  18    8.51    7.54
   0   7  18   -2.44    0.49
   0   7  18    0.52    3.04
   0  -7 -18    2.18    5.40
   0  -7  18    0.72    2.66
   0   7  19    2.02    5.44
   0   7  19   -2.53    1.20
   0  -7  19   -2.24    5.00
   0  -7 -19   -3.39    2.95
   0  -7  19   -4.08    2.89
   0  -7  19   -3.64    1.90
   0  -7  20    2.68    4.71
   0  -7  20   -2.10    4.76
   0  -7 -20   -1.26    2.16
   0  -7  20   -0.02    3.80
   0   7  20   -4.28    6.41
   0   7  20   -0.66    4.06
   0  -7 -21    0.81    3.50
   0   7  21   -0.28    2.28
   0   7  21    1.11    0.88
   0  -7  21    2.51    1.19
   0  -7  21   -1.87    2.79
   0   7  22    4.39    5.31
   0  -7 -22   -2.32    3.03
   0  -7  22   -2.49    3.71
   0  -7  22   -6.13    3.81
   0   7  22   -3.21    5.52
   0   7  23    2.59    4.49
   0   7  23    2.71    2.26
   0  -7  23   -2.90    5.42
   0  -7 -23    7.09    5.71
   0  -7  23    1.31    0.90
   0  -7 -24   -0.43    2.17
   0  -7  24   -3.68    3.47
   0   7  24   -1.33    3.03
   0  -7  24    2.81    4.97
   0   7  24   -0.53    4.21
   0   7  25    0.22    1.42
   0  -7  25   -1.77    4.55
   0  -7 -25   -4.02    3.16
   0   7  25   -5.82    6.92
   0  -7  25    0.10    4.35
   0   7  26    0.15    3.53
   0  -7  26    5.37    7.45
   0  -7 -26    7.42    7.38
   0   7  26    0.84    2.82
   0  -7  26    1.21    3.64
   0  -7 -27    6.67    6.56
   0  -7  27   -3.36    4.11
   0  -7  27   -5.55    7.17
   0   7  27    4.99    8.63
   0   7  27   -0.84    3.36
   0  -7  28    5.63    8.36
   0   7  28   -0.86    1.64
   0   7  28   -0.93    1.97
   0  -7  28   -1.43    5.84
   0  -7 -28   -2.87    3.98
   0  -7 -29    6.96    8.53
   0  -7  29   -2.72    2.79
   0  -7  29    2.30    6.33
   0   7  29    5.42    8.77
   0   7  29   -1.07    1.79
   0  -8   0  348.56   28.10
   0  -8   0  389.93   28.70
   0  -8   1   14.00    5.06
   0  -8  -1    9.08    5.64
   0  -8  -1   25.42    7.82
   0  -8   1   14.95    3.12
   0  -8  -2   26.65    6.71
   0  -8   2   32.65    8.11
   0  -8   2   35.45    9.75
   0  -8  -2   36.05    8.87
   0  -8   3   16.01    5.88
   0  -8  -3   15.72    6.06
   0  -8  -3   11.01    4.82
   0  -8   3   18.55    7.92
   0  -8   4  145.88   17.94
   0  -8  -4  171.51   19.47
   0  -8  -4  148.65   17.33
   0  -8   4  168.87   18.38
   0   8   4  173.15   15.96
   0  -8  -5   54.16   10.77
   0  -8   5   42.56   10.27
   0  -8  -5   69.66   13.36
   0   8   5   68.73    9.78
   0  -8   5   73.06   12.02
   0  -8   6  182.74   19.58
   0   8   6  202.34   18.19
   0  -8   6  182.61   20.75
   0  -8  -6  203.67   21.64
   0  -8  -7 1019.95   49.63
   0  -8   7  950.88   47.83
   0  -8   7  897.36   43.94
   0   8   7 1026.16   40.90
   0  -8   8  409.21   31.78
   0  -8   8  358.62   27.45
   0   8   8  359.23   24.68
   0  -8  -8  382.89   29.94
   0   8   8  398.13   30.07
   0  -8   9  177.07   21.28
   0  -8  -9  167.34   20.26
   0   8   9  189.36   20.49
   0  -8   9  157.93   18.23
   0   8   9  162.28   16.57
   0   8  10   89.66   14.19
   0  -8 -10  136.82   18.11
   0  -8  10  132.50   18.49
   0   8  10  100.31   13.81
   0  -8  10  109.05   15.73
   0  -8  11 1228.82   53.85
   0  -8  11 1221.47   51.88
   0   8  11 1227.67   54.71
   0   8  11 1236.53   48.69
   0  -8  11 1213.19   56.28
   0  -8 -11 1166.67   54.77
   0   8  12   60.17   13.52
   0  -8  12   60.90   12.82
   0   8  12   42.22    9.94
   0  -8  12   50.22   11.37
   0  -8  12   45.04   11.16
   0  -8 -12   38.83    8.54
   0   8  13  129.25   18.34
   0  -8  13  160.04   20.50
   0  -8 -13  156.25   20.65
   0   8  13  140.82   17.25
   0  -8  13  146.09   18.77
   0  -8  13  160.93   19.97
   0   8  14  126.22   17.29
   0  -8  14  119.45   16.92
   0   8  14  108.05   16.44
   0  -8  14  100.92   16.73
   0  -8 -14  138.67   19.45
   0  -8  14  138.86   19.56
   0  -8 -15  587.61   41.47
   0  -8  15  652.10   42.38
   0   8  15  647.26   39.27
   0  -8  15  567.98   39.19
   0   8  15  606.54   41.25
   0  -8  15  571.81   39.69
   0  -8  16    3.43    2.51
   0  -8  16    5.79    5.82
   0  -8  16    3.35    4.45
   0  -8 -16    8.83    5.99
   0   8  16    3.83    2.83
   0   8  16    6.70    5.04
   0  -8  17  469.28   37.66
   0  -8 -17  462.72   37.54
   0  -8  17  461.69   35.90
   0   8  17  508.86   36.73
   0   8  17  536.36   39.40
   0  -8  17  454.82   36.62
   0  -8  18   64.64   14.58
   0   8  18   75.23   14.51
   0  -8  18   78.63   14.59
   0  -8 -18   43.02   10.68
   0   8  18   56.63   12.97
   0  -8  18   63.45   13.30
   0   8  19  126.10   18.93
   0  -8  19  133.89   20.68
   0  -8  19  123.49   19.93
   0   8  19  130.84   20.75
   0  -8 -19  113.17   19.13
   0  -8 -20    3.60    4.04
   0  -8  20    6.56    5.66
   0   8  20    7.21    8.23
   0  -8  20   -2.96    5.21
   0  -8  20   -2.68    4.71
   0   8  20    5.83    5.34
   0   8  21  134.52   20.14
   0  -8  21  146.28   22.59
   0   8  21  174.45   23.96
   0  -8  21  123.62   20.12
   0  -8 -21  167.72   23.04
   0  -8  21  127.77   20.25
   0  -8  22    4.29    4.51
   0  -8 -22    9.55    7.67
   0  -8  22    3.41    3.11
   0   8  22    1.24    2.80
   0   8  22    1.09    6.30
   0  -8 -23   72.50   15.67
   0   8  23   66.25   15.16
   0   8  23   84.36   16.20
   0  -8  23   76.22   17.11
   0  -8  23   62.86   15.07
   0   8  24   10.95    5.65
   0  -8  24   15.57    6.76
   0  -8 -24    4.22    4.27
   0   8  24   15.62    7.40
   0  -8  24   10.59    9.02
   0  -8  25  153.41   23.96
   0  -8  25  172.11   25.15
   0  -8 -25  124.57   23.01
   0   8  25  152.04   22.60
   0   8  25  129.46   22.33
   0   8  26    3.24    7.11
   0   8  26    7.80    5.08
   0  -8 -26    3.34    3.32
   0  -8  26   -3.32    7.27
   0  -8  26   -0.95    5.27
   0  -8  27   14.80    7.69
   0  -8 -27   30.09    9.53
   0   8  27   13.79    7.17
   0  -8  27   34.14   11.85
   0   8  27   20.33   10.09
   0  -8  28   15.76    8.19
   0  -8  28    2.66    1.79
   0  -8 -28   -0.39    5.04
   0   8  28   -0.52    4.00
   0   8  28   -5.96    8.59
   0  -9   0   -2.43    1.00
   0  -9   0    2.78    2.32
   0  -9  -1   -1.89    1.16
   0  -9   1   -4.21    2.48
   0  -9  -1   -1.20    3.88
   0  -9   1   -0.88    1.96
   0  -9  -2    2.81    3.87
   0  -9  -2    5.30    5.58
   0  -9   2   -0.39    1.60
   0  -9   2   -1.09    3.43
   0  -9   3    0.16    1.87
   0  -9  -3   -3.14    2.90
   0  -9  -3    0.33    2.74
   0  -9   3    2.71    4.22
   0  -9  -4    0.66    3.64
   0  -9  -4   -1.70    0.93
   0  -9   4    3.16    4.31
   0  -9   4    4.75    6.63
   0   9   5    1.21    3.19
   0  -9  -5   -3.67    3.57
   0  -9  -5    1.12    2.38
   0  -9   5    5.90    6.13
   0  -9   5    3.17    2.51
   0  -9   6   -3.54    4.21
   0  -9  -6   -2.09    3.88
   0   9   6    4.38    2.96
   0  -9   6   -3.01    2.16
   0  -9  -6   -1.81    2.52
   0  -9   7   -0.93    4.72
   0   9   7    1.87    1.57
   0  -9  -7   -2.51    3.74
   0  -9   7    1.08    0.19
   0  -9   8    2.11    3.45
   0  -9  -8   -0.13    1.26
   0   9   8    3.05    3.54
   0  -9   8    2.58    4.83
   0  -9  -9    0.35    3.91
   0  -9   9   -4.64    5.83
   0  -9   9    0.97    0.89
   0   9   9   -4.48    4.39
   0   9  10    1.46    2.49
   0   9  10   -2.05    4.68
   0  -9  10   -1.46    0.90
   0  -9 -10   -3.58    2.76
   0  -9  10   -1.32    2.72
   0  -9  11    2.41    3.18
   0  -9  11   -4.00    4.14
   0   9  11    3.02    4.50
   0  -9  11   -1.90    1.88
   0   9  11    4.87    4.32
   0  -9 -11   -2.34    2.30
   0  -9  12   10.49    6.37
   0  -9 -12    1.91    1.90
   0  -9  12    3.14    1.35
   0  -9  12    0.58    4.14
   0   9  12   -1.82    2.47
   0   9  12    9.63    4.61
   0   9  13   -0.06    2.65
   0  -9  13    1.01    3.31
   0   9  13    2.51    3.90
   0  -9  13   -2.98    1.12
   0  -9 -13   -2.47    5.95
   0  -9  13   -3.56    5.56
   0   9  14    2.62    4.97
   0  -9  14    2.70    3.08
   0  -9 -14    1.98    5.48
   0  -9  14    0.14    3.63
   0  -9  14   -4.65    5.46
   0   9  14   -3.03    4.48
   0  -9  15    1.62    1.11
   0   9  15    3.12    3.19
   0  -9  15   -0.02    2.69
   0  -9  15    0.26    2.13
   0  -9 -15   -0.06    2.08
   0   9  15    0.02    3.28
   0  -9  16   -3.48    7.77
   0  -9  16    4.20    7.97
   0   9  16   -0.27    4.78
   0  -9  16    0.59    1.90
   0   9  16    1.48    1.97
   0  -9 -16   -1.98    2.57
   0   9  17   -3.32    5.31
   0  -9  17   -2.89    5.49
   0  -9 -17    1.73    5.54
   0  -9  17    6.73    4.26
   0  -9  17    6.48    3.05
   0   9  17    8.20    7.59
   0   9  18   -0.07    2.64
   0  -9  18   -0.13    2.84
   0   9  18    3.15    2.20
   0  -9  18    0.28    4.38
   0  -9 -18    5.63    2.40
   0  -9  18    6.00    6.14
   0  -9 -19    3.53    3.80
   0  -9  19    3.65    1.62
   0   9  19    1.47    2.26
   0  -9  19    8.96    7.76
   0   9  19    1.15    3.26
   0  -9  19   -4.16    5.35
   0  -9  20    5.54    5.34
   0  -9  20    1.29    5.87
   0   9  20    2.43    6.44
   0   9  20   -0.63    2.17
   0  -9  20    0.21    1.90
   0  -9 -20    3.27    4.81
   0  -9 -21    1.78    5.17
   0   9  21   -0.45    5.75
   0  -9  21   -1.56    3.78
   0   9  21    1.80    5.43
   0  -9  21    0.07    2.49
   0  -9  21    1.98    5.92
   0  -9 -22    0.42    3.63
   0   9  22   -5.38    4.28
   0   9  22   -3.16    6.79
   0  -9  22    1.98    4.13
   0  -9  22    0.26    3.65
   0  -9  22   -0.84    3.40
   0  -9 -23    0.10    4.26
   0  -9  23   -5.58    8.16
   0  -9  23    1.50    2.71
   0   9  23   -4.22    6.15
   0   9  24   -4.54    5.15
   0  -9 -24    1.28    1.72
   0  -9  24   -0.94    2.23
   0  -9  24   -6.42    5.25
   0   9  25    5.51    7.93
   0  -9  25   -0.46    2.65
   0  -9 -25    9.72    8.83
   0  -9  25   -8.77    8.76
   0   9  26   -7.04    5.32
   0  -9 -26   -0.62    3.55
   0  -9  26    4.32    6.70
   0  -9  26   -5.41    7.00
   0   9  27   -2.27    5.13
   0  -9  27   -6.80    7.65
   0  -9 -27   -3.28    4.69
   0  -9  27   -6.43    6.82
   0 -10   0   22.68    8.50
   0 -10   0   23.80    8.20
   0 -10  -1    9.18    6.91
   0 -10  -1    4.82    1.73
   0 -10   1   13.31    6.10
   0 -10   1   16.14    2.86
   0 -10  -2   13.04    5.08
   0 -10   2    7.16    4.60
   0 -10  -2    4.53    3.84
   0 -10   2    6.09    4.55
   0 -10   3    2.84    4.87
   0 -10  -3    3.91    5.14
   0 -10  -3   -2.24    4.30
   0 -10   3   -4.08    5.46
   0 -10  -4  156.84   20.29
   0 -10   4  205.91   22.88
   0 -10   4  201.83   24.19
   0 -10  -4  185.60   22.90
   0 -10   5  194.06   23.30
   0 -10   5  211.75   23.01
   0 -10  -5  223.91   25.43
   0 -10  -5  196.39   22.82
   0 -10   6  165.10   21.09
   0 -10  -6  188.95   22.36
   0 -10  -6  187.87   22.56
   0 -10   6  211.36   23.14
   0  10   6  169.06   17.38
   0 -10  -7   84.70   14.78
   0 -10  -7   68.82   13.96
   0  10   7   52.08   10.62
   0 -10   7   73.13   14.70
   0 -10   7   81.56   13.88
   0 -10  -8  556.32   38.91
   0 -10  -8  527.14   38.49
   0 -10   8  598.78   39.26
   0 -10   8  502.64   38.36
   0  10   8  509.94   33.70
   0 -10   9   50.11   11.71
   0 -10  -9   27.07    8.99
   0 -10   9   49.41   11.89
   0  10   9   32.66    8.41
   0 -10  10   -1.98    0.55
   0 -10 -10    6.62    5.93
   0 -10  10    0.73    5.16
   0 -10  11  240.94   26.02
   0 -10  11  253.05   27.46
   0 -10 -11  228.85   25.36
   0 -10  11  243.64   24.80
   0 -10  12   49.58   11.98
   0 -10  12   68.13   14.87
   0 -10 -12   97.72   17.57
   0 -10  12   72.44   13.66
   0  10  12   73.07   13.46
   0  10  13   47.96   11.16
   0 -10  13   43.94   12.07
   0 -10  13   61.88   13.36
   0 -10 -13   37.93   11.11
   0 -10  13   37.24   11.74
   0  10  14  229.14   26.43
   0 -10  14  258.05   27.57
   0 -10  14  232.83   26.75
   0 -10 -14  213.91   25.88
   0 -10  14  241.20   27.58
   0 -10  15   10.80    6.90
   0 -10  15    5.18    4.65
   0 -10 -15    9.22    6.39
   0  10  15   11.14    5.52
   0 -10  15    7.09    5.40
   0 -10 -16    3.79    4.84
   0 -10  16    4.24    4.39
   0 -10  16   -0.11    3.11
   0  10  16    0.50    4.16
   0 -10  16    4.01    5.37
   0 -10  17    4.03    6.77
   0 -10  17    4.44    4.46
   0 -10 -17    2.76    4.57
   0 -10  17   -3.40    4.45
   0  10  17   -0.49    3.60
   0  10  18   86.38   16.66
   0 -10 -18  126.61   20.36
   0 -10  18   90.91   17.78
   0 -10  18  102.35   18.78
   0 -10  18  100.74   18.78
   0 -10  19    7.03    5.85
   0 -10  19    2.23    2.83
   0  10  19    7.31    4.14
   0 -10  19    8.70    6.03
   0 -10 -19    1.77    0.94
   0 -10 -20    2.51    3.97
   0  10  20   13.06    7.62
   0 -10  20   13.65    7.64
   0 -10  20   12.22    7.43
   0 -10  20   -1.95    4.33
   0 -10 -21   26.54    8.83
   0  10  21   27.65    9.64
   0 -10  21   14.94    8.55
   0 -10  21   25.06    9.54
   0 -10  22  219.99   27.51
   0 -10 -22  200.71   26.59
   0 -10  22  215.81   28.22
   0 -10  22  199.00   27.82
   0 -10  23    8.36    8.41
   0 -10  23    8.80    5.89
   0 -10 -23    2.24    8.37
   0 -10  23   -6.41    6.56
   0  10  23   -2.52    3.05
   0  10  24    6.39    7.86
   0 -10  24   14.56   10.26
   0 -10  24   19.28    7.89
   0 -10 -24   13.29    8.22
   0 -10  25   42.43   13.22
   0  10  25   52.40   14.32
   0 -10 -25   46.00   13.24
   0 -10  25   53.54   14.69
   0  10  26   44.16   14.30
   0 -10  26   36.07   11.72
   0 -10 -26   38.74   11.49
   0 -10  26   31.03   11.76
   0 -11   0    2.93    6.57
   0 -11   0   -3.66    6.07
   0 -11  -1   -5.93    7.02
   0 -11  -1    2.75    1.86
   0 -11   1    3.62    4.90
   0 -11   1    2.89    4.60
   0 -11  -2    3.85    6.91
   0 -11  -2    0.77    4.06
   0 -11   2    1.97    2.58
   0 -11   2   -0.43    2.59
   0 -11   3   -0.45    5.38
   0 -11  -3    2.56    4.20
   0 -11  -3   -0.44    2.53
   0 -11   3    0.06    3.44
   0 -11  -4    1.97    4.41
   0 -11  -4   -2.96    6.32
   0 -11   4    2.70    4.48
   0 -11   4   -1.24    2.65
   0 -11   5   -0.69    1.04
   0 -11   5   -1.74    3.29
   0 -11  -5   -0.77    2.38
   0 -11  -5    2.94    2.67
   0 -11  -6   -3.20    5.04
   0 -11   6    3.06    2.93
   0 -11   6    1.61    5.01
   0 -11  -6   -0.02    4.38
   0 -11   7   -1.23    3.92
   0 -11  -7   -0.74    1.97
   0 -11  -7   -1.93    1.80
   0 -11   7    3.59    3.81
   0 -11  -8    2.61    5.15
   0 -11  -8    0.64    2.77
   0 -11   8   -5.62    4.43
   0 -11   8    6.15    6.31
   0 -11   9    0.98    3.89
   0 -11  -9    3.27    5.78
   0 -11  -9    0.60    3.17
   0 -11   9    5.82    5.90
   0 -11  10    2.76    4.44
   0 -11 -10    8.65    7.15
   0 -11  10   -3.20    2.17
   0 -11  11    2.27    3.11
   0 -11 -11    3.61    3.79
   0 -11  11    1.11    2.46
   0 -11 -12   -2.12    1.30
   0 -11  12   -0.50    2.64
   0 -11  12    2.84    1.25
   0 -11 -13    6.71    5.50
   0 -11  13    4.94    5.46
   0 -11  13   -1.53    4.23
   0 -11  14   -1.88    3.06
   0 -11  14   -2.50    4.88
   0 -11 -14   -0.61    4.19
   0  11  14   -5.08    3.61
   0 -11 -15    7.19    4.83
   0 -11  15    0.37    2.15
   0  11  15    1.61    5.67
   0 -11  15   -0.69    3.85
   0 -11  16   -0.49    4.66
   0  11  16   -2.98    4.69
   0 -11 -16   -2.85    3.75
   0 -11  16    1.14    4.36
   0  11  17    3.06    3.95
   0 -11 -17    6.24    4.87
   0 -11  17    6.53    4.98
   0 -11  17    1.56    2.17
   0 -11  18   -2.50    6.33
   0  11  18   -2.81    2.65
   0 -11  18  -11.71    6.45
   0 -11  18    1.45    4.58
   0 -11 -18    1.93    2.93
   0 -11  19    1.63    3.22
   0 -11  19   -8.26    5.50
   0  11  19    3.19    3.47
   0 -11  19   -2.71    3.23
   0 -11  20    0.96    1.82
   0 -11  20   -3.83    5.13
   0 -11  20  -10.64    6.29
   0 -11 -20    2.84    4.85
   0  11  20   -2.05    2.82
   0 -11  21   -2.12    2.73
   0  11  21    2.23    3.96
   0 -11 -21   -4.42    6.33
   0 -11  21   -0.53    4.84
   0 -11  22   -1.97    1.52
   0 -11  22  -13.15    3.00
   0  11  22    0.54    4.14
   0 -11 -22   -3.25    6.05
   0 -11  22    7.09    6.95
   0 -11  23   -5.57    4.71
   0 -11  23    6.23    7.14
   0 -11  23    4.55    3.42
   0 -11 -23    4.43    3.75
   0  11  23   -2.19    1.92
   0 -11  24    0.40    4.37
   0  11  24    5.91    7.16
   0 -11  24   -6.78    5.26
   0 -11 -24   -2.50    5.94
   0 -11  24    4.70    6.66
   0 -12   0  147.39   21.48
   0 -12   0   98.74   17.30
   0 -12   1   -2.58    3.14
   0 -12  -1   10.62    6.31
   0 -12  -1    5.61    2.27
   0 -12   1    1.79    3.62
   0 -12   2   -0.24    0.86
   0 -12   2   -1.75    5.76
   0 -12  -2    2.44    3.11
   0 -12  -2   -1.21    6.01
   0 -12   3  107.23   18.78
   0 -12  -3  122.46   20.00
   0 -12   3  101.31   18.49
   0 -12  -3  103.41   18.56
   0 -12   4    6.21    4.74
   0 -12  -4   -2.54    4.80
   0 -12  -4   -2.05    2.29
   0 -12   4    4.96    7.22
   0 -12  -5   66.13   16.03
   0 -12  -5   68.76   14.89
   0 -12   5   79.13   15.18
   0 -12   5   68.11   14.14
   0 -12  -6    2.79    5.60
   0 -12  -6    8.54    5.28
   0 -12   6    4.38    5.92
   0 -12   6    9.65    4.47
   0 -12  -7   17.47    5.64
   0 -12  -7   24.58   11.02
   0 -12   7   22.43    8.21
   0 -12   7   32.04   10.08
   0 -12   8   17.19    7.39
   0 -12  -8   24.30    9.29
   0 -12   8   35.77   10.61
   0 -12  -8   21.11    9.64
   0 -12   9   13.67    3.16
   0 -12  -9   14.77    7.26
   0 -12   9   27.55    9.21
   0 -12  -9   19.69    8.89
   0 -12 -10  254.19   27.92
   0 -12  10  213.20   26.09
   0 -12 -10  213.52   27.52
   0 -12  10  248.90   28.68
   0 -12 -11  113.61   18.56
   0 -12 -11  125.70   20.43
   0 -12  11  101.66   19.06
   0 -12  11  118.44   19.48
   0 -12 -12   32.39    9.96
   0 -12  12   39.66   10.93
   0 -12  12   29.11    9.16
   0 -12 -12   28.81    9.47
   0 -12  13    2.66    4.37
   0 -12  13   -1.97    1.41
   0 -12 -13    2.56    2.64
   0 -12  14    8.36    5.50
   0 -12  14   17.53    9.78
   0 -12 -14   11.20    7.16
   0 -12 -15   -3.01    6.03
   0 -12  15    3.55    5.84
   0 -12  15    0.87    3.32
   0 -12 -16   11.12    7.01
   0 -12  16    4.53    6.47
   0 -12  16    1.25    1.75
   0 -12  17   -0.40    4.43
   0  12  17   17.24    9.72
   0 -12 -17   16.08    7.84
   0 -12  17    0.91    1.29
   0 -12 -18   11.12    7.24
   0  12  18   13.18    7.20
   0 -12  18   17.27    9.86
   0 -12  18    5.89    5.32
   0 -12 -19   -1.67    2.67
   0 -12  19   -0.44    3.38
   0 -12  19    3.04    5.57
   0  12  19    0.16    1.05
   0 -12  20    7.56    7.66
   0 -12 -20    1.53    3.91
   0 -12  20   -1.79    4.15
   0  12  20   12.59    6.20
   0 -12 -21   28.90   10.53
   0 -12  21   27.58    5.67
   0 -12  21   18.99    8.27
   0  12  21   32.35   10.09
   0  12  22   15.21    7.36
   0 -12 -22    5.94    4.86
   0 -12  22    7.94    7.11
   0 -12  22   17.16    7.88
   0 -13   0    1.06    6.99
   0 -13   0    1.96    1.98
   0 -13  -1    5.56    6.56
   0 -13   1    0.89    7.99
   0 -13  -1    1.88    6.74
   0 -13   1    1.93    4.25
   0 -13  -2   -2.47    1.76
   0 -13   2   -0.21    3.38
   0 -13   2   -3.77    5.71
   0 -13  -2   -1.85    3.84
   0 -13  -3   -2.16    2.74
   0 -13  -3   -0.29    2.65
   0 -13   3   -3.82    5.76
   0 -13   3    0.58    2.58
   0 -13  -4    1.03    1.78
   0 -13  -4   -1.26    0.85
   0 -13   4   -0.92    5.05
   0 -13   4    3.51    7.36
   0 -13   5   -4.75    4.59
   0 -13  -5   -3.70    4.20
   0 -13  -5    2.49    5.18
   0 -13   5    2.14    5.98
   0 -13  -6    8.06    8.86
   0 -13  -6   -1.82    1.86
   0 -13   6   -6.27    5.79
   0 -13   6    1.60    4.51
   0 -13   7   -0.59    5.11
   0 -13   7    1.65    5.78
   0 -13  -7    4.09    3.91
   0 -13  -7   -3.57    5.07
   0 -13  -8  -10.41    7.92
   0 -13   8    2.01    3.52
   0 -13   8    1.00    3.42
   0 -13  -8    1.64    6.36
   0 -13   9   -0.71    5.98
   0 -13  -9    4.81    0.49
   0 -13   9   -2.79    3.94
   0 -13  -9    0.33    3.01
   0 -13  10    8.09    7.90
   0 -13 -10    4.53    4.04
   0 -13  10    0.56    3.89
   0 -13 -10   -4.41    6.25
   0 -13  11   -1.95    1.73
   0 -13  11    0.66    2.96
   0 -13 -11   -0.45    1.79
   0 -13 -11   -1.61    5.37
   0 -13 -12    0.68    5.79
   0 -13 -12    0.30    5.99
   0 -13  12    3.27    1.34
   0 -13  12    3.69    4.42
   0 -13  13   -7.11    5.57
   0 -13 -13    0.25    3.83
   0 -13 -13    1.15    2.41
   0 -13  13    6.78    6.82
   0 -13  14    2.70    2.96
   0 -13  14    3.74    3.31
   0 -13 -14   -0.16    6.02
   0 -13 -14    5.79    6.55
   0 -13  15   -0.92    6.39
   0 -13 -15    2.08    4.09
   0 -13  15   -2.26    1.56
   0 -13 -15    5.17    6.64
   0 -13  16   -0.37    5.95
   0 -13 -16   -4.94    6.38
   0 -13  16    0.74    3.62
   0 -13 -17   -1.09    4.91
   0 -13  17    8.71    7.70
   0 -13  17    3.55    6.89
   0 -13  18   -0.75    3.18
   0 -13 -18   -2.13    3.99
   0 -13  18    0.68    0.31
   0 -13 -19   -0.27    3.35
   0 -13  19    3.03    3.84
   0 -13  19    3.56    3.56
   0 -13  20   -1.63    3.19
   0 -13  20   -1.29    3.73
   0 -13 -20   -6.30    6.12
   0 -14   0   31.80   12.10
   0 -14   0   21.22    9.99
   0 -14   1   44.79   13.56
   0 -14  -1   55.23   15.03
   0 -14   1   43.53   13.20
   0 -14  -1   44.04   12.42
   0 -14   2    1.88    3.44
   0 -14   2   -2.71    0.53
   0 -14  -2   -0.89    1.62
   0 -14  -2   -1.08    4.28
   0 -14  -3    9.69    7.30
   0 -14   3   -6.26    3.75
   0 -14  -3   12.89    8.70
   0 -14   3    8.20    7.60
   0 -14   4   19.92    8.03
   0 -14   4   22.71   10.11
   0 -14  -4   25.33    9.21
   0 -14  -4   19.84    9.61
   0 -14   5    2.72    1.62
   0 -14  -5    5.57    6.12
   0 -14   5    9.09    8.44
   0 -14  -5    3.92    8.10
   0 -14  -6   27.11    8.49
   0 -14   6   17.70    7.82
   0 -14   6   36.05   10.59
   0 -14  -6   23.46    9.26
   0 -14   7   48.10   13.76
   0 -14   7   83.60   15.51
   0 -14  -7   51.88   14.14
   0 -14  -7   64.07   15.77
   0 -14  -8   59.06   15.62
   0 -14   8   55.21   14.42
   0 -14   8   55.06   13.48
   0 -14  -8   48.84   14.13
   0 -14   9   -0.97    4.92
   0 -14  -9    2.32    7.35
   0 -14   9    0.03    4.59
   0 -14  -9    1.66    5.07
   0 -14 -10   46.34   13.08
   0 -14 -10   42.04   11.08
   0 -14  10   42.40   11.68
   0 -14  10   75.24   17.05
   0 -14  11    4.78    6.92
   0 -14  11    3.52    6.18
   0 -14 -11    6.76    3.32
   0 -14 -11    5.54    6.22
   0 -14 -12   17.78    8.98
   0 -14  12    5.00    3.74
   0 -14 -12   15.60    6.69
   0 -14  12   14.97    7.92
   0 -14 -13   49.19   12.85
   0 -14  13   48.13   14.90
   0 -14 -13   33.93   11.61
   0 -14  13   65.62   14.98
   0 -14 -14   33.26   11.20
   0 -14  14   15.45    9.67
   0 -14  14   24.24    9.22
   0 -14 -14   43.28   13.92
   0 -14 -15   -0.74    2.63
   0 -14  15    4.70    6.98
   0 -14  15    4.43    2.32
   0 -14 -15   -3.34    1.74
   0 -14  16    3.72    4.29
   0 -14 -16    9.49    7.48
   0 -14 -16    2.78    3.85
   0 -14  16    2.11    1.66
   0 -14  17   -2.68    5.61
   0 -14  17    3.92    6.21
   0 -14 -17    5.48    5.33
   0 -14 -17    3.62    4.19
   0 -15   0    4.32    4.84
   0 -15   0    0.51    4.36
   0 -15   1   -4.99    6.13
   0 -15  -1   -2.65    6.68
   0 -15   1    7.36    7.24
   0 -15  -1   -1.51    4.50
   0 -15   2   -0.50    4.71
   0 -15  -2   -4.52    7.13
   0 -15  -2    0.03    2.11
   0 -15   2    3.28    2.70
   0 -15  -3    3.58    6.19
   0 -15   3   -1.50    5.69
   0 -15  -3    4.99    3.17
   0 -15   3    7.18    6.39
   0 -15  -4    8.66    4.97
   0 -15   4   -1.58    3.19
   0 -15   4    6.55    6.13
   0 -15  -4   -4.19    3.99
   0 -15   5    0.39    5.74
   0 -15  -5    2.52    4.06
   0 -15  -5   -0.69    3.04
   0 -15   5    5.94    6.56
   0 -15  -6    2.93    6.13
   0 -15  -6    1.42    5.38
   0 -15   6    3.22    7.14
   0 -15   6   -6.48    3.62
   0 -15  -7   10.01    2.87
   0 -15  -7    4.00    6.01
   0 -15   7   -0.08    3.90
   0 -15   7    1.00    2.68
   0 -15   8    3.04    5.77
   0 -15   8   -0.56    0.98
   0 -15  -8   -7.25    4.53
   0 -15  -8    2.20    6.23
   0 -15  -9   -1.90    4.69
   0 -15   9    2.12    5.59
   0 -15   9    3.35    5.56
   0 -15  -9    1.71    4.01
   0 -15  10   -0.41    1.81
   0 -15 -10   -6.00    5.16
   0 -15  10    5.72    6.89
   0 -15  11   -0.50    4.05
   0 -15 -11   -2.72    5.89
   0 -15 -11   -3.76    6.92
   0 -15  11   -1.86    5.43
   0 -15 -12   -0.69    2.32
   0 -15 -12   -0.11    2.21
   0 -15  12    4.47    5.90
   0 -15  12    6.60    4.42
   0 -15  13    2.14    6.54
   0 -15  13   -1.04    4.41
   0 -15 -13    8.48    9.50
   0 -15 -13    5.87    6.59
   0 -15 -14   -1.09    6.96
   0 -15 -14    2.69    3.50
   0 -15  14    4.86    4.32
   0 -15  14    1.55    1.57
   0 -16   0   80.66   19.05
   0 -16   0  100.13   19.96
   0 -16  -1   -6.90    8.48
   0 -16   1    1.37    1.60
   0 -16   1   -5.59    7.07
   0 -16  -1   -0.51    4.27
   0 -16  -2    1.40    1.11
   0 -16  -2    5.03    5.69
   0 -16   2   -0.06    4.25
   0 -16   2   -2.66    5.20
   0 -16  -3   -6.48    9.92
   0 -16  -3    1.63    4.17
   0 -16   3   12.82    7.34
   0 -16   3   -1.89    5.88
   0 -16   4  137.51   23.26
   0 -16  -4  161.44   26.12
   0 -16  -4  142.52   23.92
   0 -16   4  162.27   24.87
   0 -16  -5    5.70    5.24
   0 -16   5   -0.45    4.29
   0 -16  -5    1.47    2.00
   0 -16   5   12.59    9.12
   0 -16   6    4.55    6.76
   0 -16   6  -10.47    8.53
   0 -16  -6    3.95    3.22
   0 -16  -6    0.06    3.08
   0 -16   7   24.19   10.49
   0 -16  -7   15.63    9.25
   0 -16  -7   18.77    8.69
   0 -16   7    5.07    2.80
   0 -16   8   16.99    8.43
   0 -16   8    9.45    1.08
   0 -16  -8   26.96   11.94
   0 -16  -8   10.94    5.40
   0 -16   9    9.16    5.91
   0 -16   9   10.14    5.07
   0 -16  -9   11.93    7.69
  -1   0   0    1.26    0.97
   1   0   1   -0.24    0.41
  -1   0   1   -0.19    0.57
  -1   0   2 2472.24   25.09
  -1   0   2 2450.87   32.49
  -1   0   3    2.54    1.10
  -1   0   3    0.66    0.93
   1   0   3    0.15    0.87
   1   0   4 1695.08   32.40
  -1   0   4 1764.95   34.27
  -1   0   4 1689.42   29.32
  -1   0   5    2.01    1.37
   1   0   5    4.31    2.40
  -1   0   5   -1.58    1.48
  -1   0   6 3108.19   48.37
  -1   0   6 3035.77   53.23
   1   0   6 3012.00   51.27
  -1   0   7   -2.64    2.58
  -1   0   7    3.83    2.41
   1   0   7    2.83    2.31
   1   0   7   -0.05    0.68
  -1   0   8 2876.50   59.21
   1   0   8 3081.67   58.90
  -1   0   8 3002.01   55.42
   1   0   8 2918.26   57.25
   1   0   9   -2.11    3.01
  -1   0   9    0.68    1.37
   1   0   9   -0.64    1.09
  -1   0   9   -1.61    1.31
   1   0  10    5.32    4.17
  -1   0  10    2.20    2.30
  -1   0  10    1.64    1.83
   1   0  10    6.02    2.57
   1   0  11    2.25    4.12
  -1   0  11   -1.73    1.83
   1   0  11    0.99    3.00
  -1   0  11    0.64    2.09
   1   0  12 1516.41   50.27
  -1   0  12 1581.42   51.92
   1   0  12 1504.65   50.48
  -1   0  12 1483.74   48.30
   1   0  13   -1.27    2.56
  -1   0  13    0.96    1.94
   1   0  13   -2.45    2.18
  -1   0  13   -1.49    2.52
  -1   0  14  620.47   35.00
  -1   0  14  598.85   32.77
   1   0  14  576.35   33.24
   1   0  14  666.54   36.09
   1   0  15    0.88    2.93
  -1   0  15   -0.96    3.48
  -1   0  15    0.22    2.44
   1   0  15    1.55    3.52
   1   0  16 1709.96   60.92
   1   0  16 1775.36   62.62
  -1   0  16 1663.26   59.81
  -1   0  16 1906.04   65.72
   1   0  17    1.79    4.52
  -1   0  17   -1.08    0.60
  -1   0  17   -1.18    2.62
   1   0  17    2.85    5.18
   1   0  18    0.91    1.76
  -1   0  18    2.61    4.34
   1   0  18   -0.19    2.86
  -1   0  18   -0.43    4.25
   1   0  19   -3.04    5.05
  -1   0  19   -2.98    2.22
   1   0  19    1.14    3.53
  -1   0  19   -0.25    2.63
  -1   0  20   89.86   15.52
  -1   0  20   71.74   13.15
   1   0  20   77.87   15.04
   1   0  20   84.90   14.90
  -1   0  21    7.67    6.63
   1   0  21    0.21    2.35
   1   0  21   -5.28    6.69
  -1   0  21    3.81    4.77
  -1   0  22   43.13   11.21
   1   0  22   36.89    9.30
   1   0  22   48.86   12.02
  -1   0  22   48.91   12.58
  -1   0  23   -1.61    4.52
   1   0  23   -0.23    1.15
  -1   0  23    1.94    4.00
   1   0  23   -1.49    4.06
   1   0  24  240.73   27.65
  -1   0  24  212.72   25.89
   1   0  24  233.93   26.91
  -1   0  24  239.81   27.48
   1   0  25    2.10    4.16
   1   0  25   -2.28    1.19
  -1   0  25    3.61    5.40
  -1   0  25    3.06    5.60
   1   0  26  291.37   32.59
  -1   0  26  280.55   31.02
  -1   0  26  293.09   31.86
   1   0  26  264.49   29.38
  -1   0  27    7.06    8.87
   1   0  27   -5.64    5.62
   1   0  27    3.96    1.24
  -1   0  27    8.71    8.37
   1   0  28   10.94    8.11
   1   0  28    7.62    7.92
  -1   0  28    8.09    5.31
  -1   0  28    0.72    3.72
   1   0  29   -3.52    5.37
  -1   0  29   -6.63    6.49
   1   0  29   -8.21    3.96
  -1   0  29   -1.54    3.82
   1   0  30   16.77    5.98
   1   0  30   23.66    9.93
  -1   0  30   29.41   11.72
  -1   0  30   41.50   14.85
  -1   0  31    5.16    5.07
   1   0  31   -8.08    8.06
   1   0  31    4.53    5.82
  -1   0  31   -2.19    3.51
   1   0  32    5.19    7.71
  -1   0  32    1.51    2.28
   1   0  32    1.73    1.15
  -1   0  32    7.20    7.99
   1  -1   0    0.17    0.32
   1  -1   0    0.03    0.58
  -1   1   0   -0.42    1.35
  -1  -1   0    0.17    0.48
   1   1   1 1062.15   15.99
  -1  -1   1 1117.62   20.97
   1  -1   1  962.77   16.06
  -1  -1   1 1126.59   16.30
   1  -1  -1  985.69   17.83
   1  -1   1  976.96   20.60
  -1   1   1  937.02   21.09
  -1   1   2 2820.48   38.68
  -1  -1   2 2866.44   32.85
  -1   1   2 2782.78   35.96
  -1  -1   2 2865.80   37.04
   1  -1   2 2777.61   30.66
   1  -1   2 2820.41   37.28
   1   1   3  467.23   15.22
  -1   1   3  454.68   15.91
  -1  -1   3  464.71   15.52
   1  -1   3  479.40   14.02
  -1  -1   3  454.46   12.40
  -1  -1   3  465.54   16.02
   1  -1   3  460.24   16.61
  -1   1   3  474.41   16.94
  -1   1   4  157.47   10.72
  -1   1   4  159.25    9.97
  -1  -1   4  177.09   10.65
   1   1   4  145.80    8.89
   1  -1   4  139.34    8.52
  -1  -1   4  148.80    9.95
  -1  -1   4  140.79    8.16
   1  -1   4  157.40   10.50
   1   1   4  165.62   10.24
   1   1   5  628.45   22.00
   1  -1   5  515.95   18.19
  -1  -1   5  570.72   20.72
  -1   1   5  592.20   22.04
   1   1   5  562.65   19.44
  -1   1   5  589.71   20.92
   1  -1   5  577.93   21.37
  -1  -1   5  555.24   20.91
  -1  -1   5  572.31   18.51
  -1   1   6  123.80   10.69
   1  -1   6  114.20   10.23
   1   1   6  115.60   10.31
  -1  -1   6  111.15    9.81
  -1  -1   6  116.65   10.13
  -1  -1   6  122.80    9.42
   1   1   6  135.31   10.45
  -1   1   6  115.95   10.02
   1   1   7  362.57   19.34
  -1   1   7  315.06   19.01
  -1   1   7  352.88   19.01
   1   1   7  380.92   19.11
  -1  -1   7  327.91   16.94
   1  -1   7  331.36   18.60
  -1  -1   7  325.03   18.40
  -1   1   8  371.41   20.87
  -1  -1   8  353.00   19.14
  -1  -1   8  376.63   20.92
   1  -1   8  343.67   20.10
   1   1   8  364.14   19.91
  -1   1   8  319.55   19.91
   1   1   8  357.14   20.57
   1  -1   9   88.38   10.72
  -1   1   9   76.59    9.62
  -1  -1   9   83.79    9.75
   1   1   9   82.87   10.53
  -1   1   9   49.59    8.00
  -1  -1   9   88.29   10.66
   1  -1   9  102.21   11.57
   1   1   9   95.10   10.73
  -1  -1  10   21.86    5.74
  -1  -1  10   27.21    6.48
  -1   1  10   43.41    7.80
  -1   1  10   30.60    7.40
   1  -1  10   26.96    6.89
   1   1  10   34.25    6.96
   1  -1  10   37.26    6.89
   1   1  10   19.49    5.97
   1  -1  11  264.45   20.64
  -1  -1  11  292.32   20.54
  -1   1  11  245.02   19.97
  -1  -1  11  213.32   18.63
   1  -1  11  238.96   19.40
   1   1  11  249.99   19.94
  -1   1  11  240.71   19.26
   1   1  11  236.39   18.71
  -1   1  12   36.56    7.43
   1  -1  12   45.19    8.95
   1   1  12   43.96    8.56
   1   1  12   34.09    7.85
   1  -1  12   46.02    8.71
  -1  -1  12   37.03    8.43
  -1   1  12   46.87    8.76
  -1  -1  12   35.36    6.97
   1   1  13  600.91   32.62
   1   1  13  561.42   31.24
  -1   1  13  586.40   31.98
   1  -1  13  540.55   30.86
  -1   1  13  615.25   33.58
  -1  -1  13  612.70   33.62
  -1  -1  13  536.78   30.38
   1  -1  13  523.88   31.65
   1  -1  14   72.74   11.46
  -1  -1  14   66.66   10.74
   1  -1  14   66.80   11.95
  -1   1  14   77.35   12.40
   1   1  14   75.89   12.25
  -1  -1  14   59.45   11.11
  -1   1  14   70.91   11.41
   1   1  14   71.29   12.08
  -1  -1  15   79.87   12.78
  -1   1  15   66.71   11.07
   1   1  15   74.24   12.44
  -1  -1  15   62.74   10.85
  -1   1  15   74.19   11.84
   1  -1  15   53.81   10.78
   1  -1  15   90.28   13.29
   1   1  15   71.26   11.67
  -1  -1  16  120.80   15.86
  -1   1  16  101.84   14.91
   1   1  16  146.11   17.75
  -1   1  16  161.45   18.06
   1  -1  16  137.56   17.55
  -1  -1  16  167.60   18.05
   1   1  16  123.36   16.43
   1  -1  16  141.24   17.48
  -1  -1  17  623.04   36.49
   1   1  17  629.33   38.45
   1   1  17  639.85   38.06
  -1  -1  17  629.82   39.27
  -1   1  17  714.68   40.57
   1  -1  17  741.31   41.44
  -1   1  17  616.98   37.95
   1  -1  17  644.96   39.35
  -1   1  18    0.72    2.92
   1   1  18    0.66    4.10
  -1  -1  18    1.72    2.17
  -1   1  18    6.86    4.54
   1  -1  18    1.33    3.79
   1   1  18   -0.87    4.54
   1  -1  18    1.10    3.86
  -1  -1  18   -2.35    3.56
   1   1  19   16.87    7.15
   1   1  19    9.53    7.09
  -1   1  19    8.98    6.74
   1  -1  19   13.06    6.65
  -1  -1  19    9.06    5.39
  -1  -1  19    7.22    4.02
  -1   1  19    5.07    2.96
   1  -1  19   11.10    6.30
  -1   1  20  473.41   35.31
   1   1  20  383.49   32.11
  -1  -1  20  399.65   33.30
   1  -1  20  421.82   33.31
  -1  -1  20  420.68   32.94
   1  -1  20  442.93   35.31
  -1   1  20  410.41   33.60
   1   1  20  418.97   33.64
  -1   1  21   -1.51    1.98
   1   1  21    3.76    1.67
   1  -1  21    1.59    3.75
  -1   1  21    1.38    4.02
  -1  -1  21   -0.10    3.86
  -1  -1  21    7.02    5.11
   1  -1  21    5.00    7.77
   1   1  21   -2.38    4.27
   1  -1  22   70.48   14.61
  -1  -1  22   81.89   14.69
   1   1  22   64.35   14.41
  -1  -1  22   78.89   15.52
  -1   1  22   69.41   15.39
   1   1  22   60.81   13.33
  -1   1  22   88.46   17.19
   1  -1  22   61.38   13.21
  -1   1  23   82.70   14.71
   1   1  23   94.68   17.11
   1   1  23   96.35   17.17
   1  -1  23   62.71   13.83
  -1  -1  23   76.33   14.73
  -1  -1  23   60.63   13.32
   1  -1  23   80.77   15.72
  -1   1  23   82.86   15.87
  -1   1  24   -1.69    2.41
  -1  -1  24    2.39    2.07
   1   1  24    3.20    4.94
  -1  -1  24   -3.17    3.28
   1  -1  24    0.75    3.17
  -1   1  24    0.60    3.58
   1  -1  24    0.78    3.80
   1   1  24   -1.09    4.85
   1   1  25   56.25   13.20
  -1  -1  25   47.53   13.03
  -1  -1  25   61.13   14.93
  -1   1  25   63.22   15.00
   1   1  25   71.64   15.25
   1  -1  25   57.00   12.32
   1  -1  25   50.06   12.25
  -1   1  25   48.32   12.47
   1  -1  26   47.28   12.78
  -1   1  26   57.05   14.70
   1   1  26   49.08   13.82
  -1   1  26   47.09   11.44
   1   1  26   47.34   13.29
   1  -1  26   67.75   15.09
  -1  -1  26   46.96   13.40
  -1  -1  26   36.83   12.25
  -1   1  27    0.63    2.36
   1  -1  27   -1.05    5.04
   1  -1  27   -1.49    6.16
   1   1  27    0.10    2.18
  -1  -1  27    0.96    1.22
  -1  -1  27   -3.94    5.15
   1   1  27   -4.83    4.60
  -1   1  27   -1.98    5.16
   1   1  28   -6.77    7.80
   1  -1  28    0.56    2.62
  -1   1  28    0.82    3.57
  -1   1  28   -3.91    5.28
  -1  -1  28    0.25    1.85
   1   1  28    2.28    6.86
   1  -1  28   -0.17    2.11
  -1  -1  28    0.18    4.28
   1   1  29   -1.82    5.41
  -1   1  29    3.33    3.10
  -1   1  29   -2.36    4.47
   1  -1  29    7.54    3.14
  -1  -1  29    1.44    4.81
   1   1  29   -2.94    6.57
  -1  -1  29   -4.20    2.46
   1  -1  29   -1.11    2.24
   1  -1  30    8.21    7.84
  -1  -1  30    3.99    5.79
  -1  -1  30    1.64    3.47
  -1   1  30   -0.35    3.70
  -1   1  30   -3.19    4.76
   1  -1  30    2.14    3.02
   1   1  30   -2.77    2.73
   1   1  30   10.97    7.72
   1   1  31    1.14    4.06
   1  -1  31    3.10    0.44
   1  -1  31   11.58    9.51
  -1   1  31    1.03    3.54
  -1   1  31    8.05    9.07
   1   1  31   -5.94    8.64
  -1  -1  31   10.90    5.94
  -1  -1  31   17.35    8.35
  -1   1  32   11.04    9.54
  -1  -1  32   28.13   10.60
   1   1  32   14.17    7.81
  -1  -1  32    8.94    5.74
   1  -1  32   10.84    7.44
   1  -1  32   18.89   12.72
  -1   1  32   21.89   10.66
   1   1  32    9.41    5.85
  -1   2   0    0.74    1.53
  -1  -2   0   -1.20    1.01
   1  -2   0   -0.31    0.94
   1  -2   0    3.28    1.57
   1  -2   1  104.52    7.84
   1  -2   1  114.12    8.88
   1  -2  -1  119.95    8.88
   1  -2  -1  111.71    7.84
  -1  -2   1  109.91    8.60
  -1  -2  -1   97.37    7.72
  -1   2   1  123.72    9.08
  -1  -2   1  114.32    6.49
   1   2   1  108.25    6.77
   1  -2   2  449.89   16.37
   1   2   2  451.23   15.16
  -1  -2   2  415.10   17.53
   1  -2   2  438.62   17.66
  -1   2   2  461.51   17.79
  -1  -2   2  447.10   13.16
  -1  -2  -2  476.60   17.19
  -1   2   2  445.44   16.80
  -1  -2   2  424.77   12.57
  -1  -2   3 7635.58   78.58
   1   2   3 7044.88   49.33
  -1   2   3 7929.11   76.35
  -1   2   3 7711.97   74.26
   1  -2   3 7204.20   68.62
  -1  -2  -3 8314.96   76.08
  -1  -2   3 7158.09   60.61
   1   2   3 7762.48   68.96
  -1  -2   3 7791.21   60.02
   1  -2   3 7968.42   77.89
   1  -2   4  300.33   14.86
   1   2   4  291.09   11.77
  -1  -2   4  302.35   16.25
  -1   2   4  303.25   15.24
   1  -2   4  330.68   16.44
  -1  -2   4  320.29   14.38
  -1  -2   4  318.04   13.47
  -1  -2  -4  296.53   15.37
   1   2   4  307.35   15.17
  -1   2   5 6922.00   79.98
   1  -2   5 6632.68   74.26
   1  -2   5 6917.36   80.07
  -1  -2   5 6891.44   80.20
   1   2   5 6550.09   76.84
  -1  -2  -5 6005.25   73.63
   1   2   5 5933.76   61.49
  -1  -2   5 6886.80   67.02
  -1  -2   5 6920.09   74.11
  -1   2   5 6881.60   78.26
   1  -2   6  945.15   31.44
  -1   2   6  902.99   30.76
  -1   2   6  907.44   29.77
   1   2   6  866.50   29.77
  -1  -2   6  888.39   28.38
  -1  -2   6  876.66   30.11
   1   2   6  926.80   26.95
   1  -2   6  901.07   28.59
  -1   2   7  343.33   19.39
  -1  -2   7  319.45   17.13
   1   2   7  312.55   16.85
  -1   2   7  330.66   19.37
   1  -2   7  331.41   18.41
  -1  -2   7  345.60   19.00
   1   2   7  337.20   19.44
   1  -2   7  339.71   19.54
  -1  -2   7  280.48   18.59
  -1  -2   8   73.37    8.80
   1  -2   8   91.17    9.97
   1   2   8   78.88    8.99
   1   2   8   86.29   10.82
  -1   2   8  103.14   11.20
  -1  -2   8   86.90   10.13
   1  -2   8   69.40    9.06
  -1   2   8   86.24   10.22
  -1  -2   8   81.98   10.07
  -1  -2   9  463.30   25.07
  -1   2   9  502.24   25.85
   1   2   9  442.61   24.41
  -1  -2   9  483.13   25.13
   1  -2   9  504.71   25.61
  -1  -2   9  454.87   23.49
  -1   2   9  471.06   25.24
   1  -2   9  518.78   24.96
   1   2   9  521.80   24.90
   1   2  10 2341.69   56.26
  -1  -2  10 2417.19   56.61
   1  -2  10 2235.41   57.92
  -1  -2  10 2284.16   58.84
  -1   2  10 2232.73   57.52
   1   2  10 2301.58   59.14
  -1   2  10 2239.47   59.32
  -1   2  11  152.08   15.27
   1   2  11  169.38   16.59
   1  -2  11  186.06   17.65
   1  -2  11  173.90   16.42
  -1  -2  11  155.11   14.77
  -1   2  11  185.83   16.95
   1   2  11  168.22   15.89
  -1  -2  11  159.74   16.37
   1   2  12   32.03    7.15
  -1  -2  12   33.31    7.00
  -1   2  12   35.50    7.97
  -1   2  12   36.79    8.94
   1   2  12   32.16    7.43
  -1  -2  12   22.03    5.73
   1  -2  12   38.13    7.54
   1  -2  12   51.99    9.35
   1  -2  13  638.05   35.20
   1   2  13  488.22   29.77
  -1  -2  13  571.93   32.94
   1  -2  13  640.96   34.54
  -1  -2  13  591.76   31.58
  -1   2  13  564.92   32.88
  -1   2  13  606.95   33.23
   1   2  13  597.18   32.51
   1   2  14   53.73   10.13
   1  -2  14   53.31   10.59
  -1   2  14   52.45   10.77
  -1  -2  14   53.13   10.34
  -1   2  14   54.66    9.58
  -1  -2  14   61.54   10.69
   1  -2  14   50.90    9.71
   1   2  14   61.15   10.58
   1   2  15  472.72   31.33
   1   2  15  440.84   30.11
  -1  -2  15  476.04   30.86
  -1   2  15  536.75   33.43
  -1  -2  15  478.50   31.88
  -1   2  15  445.38   30.90
   1  -2  15  400.05   29.70
   1  -2  15  437.12   30.27
   1   2  16  135.20   17.44
  -1   2  16  123.60   16.78
   1  -2  16  127.00   16.74
   1  -2  16  111.90   15.61
  -1  -2  16  133.40   17.09
   1   2  16  135.90   17.56
  -1   2  16   87.10   14.29
  -1  -2  16  129.05   17.15
   1   2  17   62.88   12.32
  -1   2  17   62.21   12.59
  -1  -2  17   55.67   10.48
  -1  -2  17   71.43   13.86
  -1   2  17   46.93   11.22
   1  -2  17   64.32   12.53
   1   2  17   67.82   13.19
   1  -2  17   84.00   14.00
   1   2  18    0.36    3.30
   1  -2  18    5.83    3.64
  -1   2  18    8.86    5.88
   1  -2  18    7.02    5.90
  -1  -2  18   12.56    5.16
   1   2  18    9.67    4.80
  -1  -2  18    8.38    5.09
  -1   2  18   13.74    7.29
  -1  -2  19   77.78   14.11
  -1   2  19   85.69   15.24
   1  -2  19   78.14   14.47
   1   2  19   71.17   13.64
  -1   2  19   82.03   15.08
   1  -2  19   66.19   13.80
  -1  -2  19   91.92   14.83
   1   2  19   75.59   13.80
   1   2  20  835.48   47.52
  -1  -2  20  811.60   47.55
   1   2  20  804.04   47.75
  -1   2  20  838.79   47.62
  -1  -2  20  764.05   45.42
   1  -2  20  850.44   48.60
  -1   2  20  846.39   48.18
   1  -2  20  793.86   47.21
  -1   2  21   75.87   13.65
   1  -2  21   79.86   15.34
  -1  -2  21   51.16   11.94
   1   2  21   45.90   10.71
  -1   2  21   51.00   11.47
   1  -2  21   53.40   12.44
  -1  -2  21   56.75   13.64
   1   2  21   70.73   14.79
   1   2  22   43.74   12.05
  -1  -2  22   22.26    8.84
  -1   2  22   35.16    9.17
   1   2  22   16.33    5.86
  -1  -2  22   43.53   11.79
  -1   2  22   45.95   12.63
   1  -2  22   39.65   10.65
   1  -2  22   25.74    9.06
   1   2  23   76.04   15.07
   1  -2  23   70.23   14.20
  -1   2  23   66.23   14.52
  -1  -2  23   74.99   15.81
   1  -2  23   84.27   14.62
  -1  -2  23   87.41   16.80
  -1   2  23   58.81   13.86
   1   2  23   83.80   15.96
   1   2  24   18.01    9.03
  -1  -2  24   11.21    4.70
   1  -2  24   27.25    8.39
  -1   2  24   18.39    6.43
  -1   2  24   35.40   10.72
   1  -2  24   29.13    7.61
   1   2  24   17.26    7.51
  -1  -2  24   22.17    7.87
  -1   2  25   13.70    5.65
   1  -2  25   12.40    7.92
   1   2  25    6.39    6.65
  -1  -2  25   14.67    8.78
  -1  -2  25   10.84    9.35
  -1   2  25    2.79    3.84
   1  -2  25    6.03    6.00
   1   2  25    6.20    5.37
  -1  -2  26   34.84   10.69
  -1   2  26   50.63   13.36
  -1  -2  26   61.39   14.86
   1  -2  26   25.77    8.45
   1   2  26   31.55    8.43
   1   2  26   50.05   12.39
   1  -2  26   38.98   12.41
  -1   2  26   31.12    9.96
   1  -2  27  112.44   20.00
   1   2  27  104.06   19.17
  -1  -2  27   97.59   18.37
   1  -2  27   79.55   17.14
  -1  -2  27  126.15   21.07
  -1   2  27   89.93   17.51
   1   2  27   87.66   17.28
  -1   2  27   90.56   17.41
  -1   2  28    9.24    6.62
   1  -2  28    8.71    7.61
   1  -2  28    2.83    3.54
  -1   2  28    3.13    5.10
  -1  -2  28    6.69    7.28
   1   2  28    0.58    2.77
  -1  -2  28    3.79    4.74
   1   2  28    2.29    7.48
   1   2  29    7.86    7.82
  -1  -2  29   -0.25    2.01
  -1   2  29   11.91    8.55
   1  -2  29    9.87    7.64
  -1  -2  29    6.28    4.11
  -1   2  29    7.75    4.49
   1  -2  29    2.48    5.31
   1   2  29    6.65    4.86
   1   2  30   40.54   13.22
  -1  -2  30   10.27    6.72
  -1   2  30   37.32   12.48
   1  -2  30   39.04   13.94
  -1  -2  30   42.21   13.21
   1   2  30   33.03    8.68
  -1   2  30   40.89   12.78
   1  -2  30   44.98   14.17
   1  -2  31   31.95   11.10
  -1  -2  31   24.34    8.20
  -1   2  31   36.31   12.85
  -1  -2  31   25.41    8.70
   1  -2  31    7.94    4.42
   1   2  31   20.31   10.13
   1   2  31   13.56    9.29
  -1   2  31    5.29    5.06
  -1   2  32   -1.10    4.71
  -1  -2  32   10.91    8.83
  -1   2  32   -0.30    3.39
   1  -2  32   -4.88    4.63
  -1  -2  32    2.69    3.35
   1   2  32    1.36    3.55
   1  -2  32   -0.48    1.13
   1   2  32    2.45    4.35
  -1  -3   0    1.45    1.94
  -1  -3   0   -1.53    1.29
  -1   3   0    0.74    1.21
   1  -3   0   -0.07    1.54
   1  -3   0   -1.48    1.75
  -1  -3   1 1811.32   33.56
   1  -3  -1 1919.47   39.48
   1  -3   1 1818.40   40.95
  -1   3   1 1788.42   38.86
  -1  -3   1 1802.80   22.13
   1  -3   1 1836.67   38.94
   1   3   1 1847.28   34.68
  -1  -3  -1 1785.31   39.88
   1  -3  -1 1808.13   40.66
  -1  -3   1 1709.65   40.50
  -1   3   2  409.78   18.57
   1  -3  -2  402.43   18.46
  -1  -3   2  398.45   19.88
   1  -3   2  426.84   19.23
  -1  -3  -2  377.23   18.34
  -1  -3   2  394.31   12.75
   1  -3   2  420.75   20.00
   1   3   2  339.90   15.56
  -1  -3   2  409.68   16.10
   1  -3   3 2398.44   48.25
  -1  -3   3 2294.15   49.85
   1   3   3 2449.34   44.23
  -1   3   3 2322.78   44.69
  -1  -3   3 2414.17   36.72
   1  -3  -3 2407.52   47.09
  -1  -3  -3 2360.56   46.84
  -1  -3   3 2343.03   39.65
   1  -3   3 2301.97   46.64
  -1   3   3 2374.16   47.84
   1   3   3 2301.57   28.46
  -1   3   4  254.98   15.17
   1  -3  -4  214.18   14.78
   1  -3   4  263.87   16.52
   1  -3   4  233.97   15.25
   1   3   4  269.82   11.55
  -1  -3   4  216.26   12.41
  -1  -3   4  257.20   13.51
  -1   3   4  266.59   16.64
   1   3   4  265.96   15.15
  -1  -3   4  245.80   16.91
  -1  -3  -4  233.79   15.48
   1  -3   5  779.35   28.55
  -1   3   5  760.80   29.16
   1  -3   5  765.65   28.84
  -1  -3   5  772.59   29.80
  -1  -3   5  738.90   25.41
   1   3   5  806.55   23.14
   1   3   5  748.65   26.94
   1  -3  -5  743.72   28.90
  -1  -3   5  727.71   24.51
  -1   3   5  772.57   27.11
   1  -3   6  500.08   23.54
   1   3   6  471.09   22.59
  -1  -3  -6  421.35   22.08
   1  -3  -6  479.11   24.28
  -1  -3   6  462.61   24.23
   1  -3   6  444.83   22.63
  -1   3   6  432.09   22.58
  -1  -3   6  430.33   20.55
  -1  -3   6  436.41   19.98
   1   3   6  359.37   17.91
  -1   3   6  445.02   21.43
  -1  -3   7   70.53    9.04
   1   3   7   83.08    8.70
   1  -3   7   92.73   10.76
  -1  -3   7   68.76    8.24
  -1   3   7   65.56    8.75
  -1  -3   7   63.83    9.14
   1   3   7   78.24    9.77
   1  -3   7   79.06    9.76
  -1  -3  -7   83.46   10.39
  -1   3   7   61.75    8.64
   1  -3   8 2181.88   53.01
   1  -3   8 2463.22   57.76
  -1  -3   8 2401.45   51.17
  -1   3   8 2350.94   54.88
  -1   3   8 2419.79   57.30
  -1  -3   8 2455.98   55.29
   1   3   8 2298.18   56.10
  -1  -3   8 2520.91   58.86
   1   3   9  247.20   19.21
   1   3   9  237.64   16.96
  -1   3   9  250.79   18.52
  -1  -3   9  254.52   17.61
   1  -3   9  245.37   18.84
  -1  -3   9  238.79   17.86
  -1  -3   9  247.56   19.25
  -1   3   9  224.32   18.42
   1  -3   9  211.53   17.41
  -1   3  10  572.74   30.19
  -1   3  10  538.88   28.41
  -1  -3  10  566.78   27.85
   1  -3  10  520.41   27.70
  -1  -3  10  556.53   29.13
   1   3  10  531.48   26.95
   1   3  10  498.63   28.54
  -1  -3  10  587.26   30.29
   1  -3  10  540.26   29.12
  -1   3  11   68.97   10.49
   1  -3  11   56.99    9.66
  -1  -3  11   63.95   10.24
  -1  -3  11   60.58    9.66
  -1   3  11   54.80    9.38
   1   3  11   65.09   10.22
   1  -3  11   46.26    8.36
   1   3  11   59.38   10.07
  -1  -3  11   56.12    9.36
   1  -3  12  114.06   14.03
  -1   3  12  121.48   14.59
  -1  -3  12  106.16   13.33
   1  -3  12  113.19   14.34
  -1  -3  12  111.40   13.84
  -1   3  12  101.09   13.00
  -1  -3  12  103.35   14.02
   1   3  12  131.42   14.69
   1   3  12   94.83   12.96
   1  -3  12  114.79   13.68
   1  -3  13   -1.20    3.00
   1  -3  13    2.18    2.03
  -1  -3  13    2.12    3.79
   1   3  13    1.90    1.01
   1   3  13    7.11    3.60
  -1   3  13    3.22    4.89
  -1  -3  13    7.56    4.43
  -1   3  13    4.77    1.77
   1  -3  14   75.54   11.40
  -1  -3  14   97.73   13.67
  -1  -3  14   77.31   12.76
  -1   3  14   74.03   12.48
   1   3  14  104.00   14.12
   1  -3  14  104.81   14.95
  -1   3  14   86.90   12.75
   1   3  14   83.01   13.26
  -1   3  15    3.10    4.60
   1  -3  15    1.18    1.58
   1   3  15    0.08    1.95
  -1  -3  15   -4.30    4.29
  -1   3  15    1.20    3.06
   1   3  15   -1.54    2.74
   1  -3  15   -0.55    3.15
  -1  -3  15   -0.58    0.68
   1  -3  16    0.97    3.89
  -1   3  16    7.79    5.13
   1   3  16    1.72    2.49
  -1   3  16    3.35    6.12
   1   3  16   -2.26    2.57
   1  -3  16   -2.31    1.80
  -1  -3  16    2.99    3.37
  -1  -3  16    2.54    3.76
  -1   3  17   51.76   10.71
  -1  -3  17   38.40    9.73
   1   3  17   19.20    8.03
  -1  -3  17   27.31    8.91
   1   3  17   30.29    8.43
   1  -3  17   42.50   10.63
  -1   3  17   30.41    8.94
   1  -3  17   49.74   11.76
  -1   3  18   53.55   12.14
   1   3  18   20.45    7.21
   1   3  18   39.67   10.78
  -1  -3  18   35.09    9.61
   1  -3  18   52.56   11.57
   1  -3  18   31.68    8.13
  -1  -3  18   42.26    9.77
  -1   3  18   39.84    9.84
  -1   3  19  567.31   38.80
   1  -3  19  511.41   36.52
  -1  -3  19  581.14   39.53
  -1   3  19  540.14   37.75
   1   3  19  554.01   39.14
   1  -3  19  520.44   38.09
   1   3  19  489.48   36.38
   1  -3  20  148.14   20.35
  -1   3  20  104.24   16.77
  -1  -3  20   84.58   15.30
   1  -3  20   88.40   14.76
   1   3  20  116.50   18.38
  -1   3  20  103.94   17.15
   1   3  20   71.37   13.93
  -1  -3  20   89.06   16.58
   1  -3  21  134.96   19.74
  -1   3  21  122.75   17.81
  -1   3  21  132.19   19.69
   1  -3  21  140.68   20.78
  -1  -3  21  128.78   19.27
  -1  -3  21  113.48   18.31
   1   3  21  133.33   19.23
   1   3  21  107.51   17.87
  -1   3  22    6.97    5.86
   1  -3  22   19.26    8.35
   1   3  22   30.91   10.30
   1  -3  22    7.09    5.36
  -1   3  22   24.95    9.92
  -1  -3  22   22.04    8.00
  -1  -3  22   31.08   11.45
   1   3  22   20.32    8.72
   1   3  23   38.17   10.64
  -1   3  23   28.23    9.18
  -1  -3  23   35.14    9.83
  -1   3  23   28.11    9.12
   1   3  23   27.63    7.87
   1  -3  23   39.22   10.87
  -1  -3  23   30.99   11.71
   1  -3  23   20.93    7.92
  -1   3  24   -0.39    5.67
  -1   3  24    0.98    3.85
   1  -3  24   -4.48    6.04
  -1  -3  24    0.66    2.72
   1  -3  24   -0.74    1.90
  -1  -3  24   -4.17    4.37
   1   3  24   -4.29    5.00
   1   3  24   -0.22    2.13
  -1   3  25   37.63   11.72
   1   3  25   24.60    9.14
   1  -3  25   23.51    7.71
   1   3  25   29.56   10.43
  -1  -3  25   31.21    9.88
   1  -3  25   34.15   11.62
  -1   3  25   43.47   12.70
  -1  -3  25   27.28    8.81
   1  -3  26   17.94    7.32
  -1  -3  26    2.65    4.33
  -1   3  26    2.98    4.65
   1  -3  26   12.26    3.80
   1   3  26    2.93    1.65
   1   3  26   19.34    8.66
  -1  -3  26    9.43    5.26
  -1   3  26    2.50    4.73
  -1   3  27    5.17    5.29
   1   3  27    5.13    5.02
   1  -3  27    1.09    2.22
  -1  -3  27    2.79    4.77
   1   3  27    1.56    1.25
  -1   3  27    2.38    1.86
  -1  -3  27   -1.80    5.56
   1  -3  27    4.42    7.79
   1  -3  28   -0.26    3.98
  -1  -3  28    9.16    5.54
  -1  -3  28   -0.90    2.01
   1   3  28   -6.44    6.77
  -1   3  28    4.58    1.92
   1  -3  28    7.87    8.34
  -1   3  28    2.78    3.10
   1   3  28    6.57    5.37
  -1   3  29    5.77    5.51
   1  -3  29    4.53    6.01
  -1   3  29    1.10    2.31
  -1  -3  29    1.76    5.21
   1   3  29    4.09    6.45
  -1  -3  29   -0.62    1.25
   1   3  29    7.34    8.39
   1  -3  29   -3.40    6.64
   1   3  30    3.36    5.91
   1   3  30    3.54    3.83
  -1  -3  30   -1.01    0.80
  -1   3  30    0.21    2.43
  -1   3  30    6.02    3.59
  -1  -3  30    7.38    7.20
   1  -3  30   -3.35    1.89
  -1  -3  31   32.55   11.50
  -1  -3  31   10.97    5.26
   1  -3  31   18.26    9.87
   1   3  31   18.38    8.26
   1  -3  31   11.40    8.30
  -1   3  31   10.97    7.83
   1   3  31    8.55    7.28
  -1   3  31   19.28    7.05
  -1   3  32    1.15    3.75
   1   3  32    3.27    3.71
  -1   3  32    1.12    3.89
  -1  -3  32    7.40    6.98
  -1  -3  32    8.80    4.71
   1  -3  32    6.75    0.71
   1  -3  32    3.25    4.77
   1   3  32    9.01    8.62
  -1  -4   0    0.66    1.02
   1  -4   0   -2.68    2.40
  -1   4   0   -0.58    1.82
  -1  -4   0    0.71    1.43
   1  -4   0    0.57    1.12
  -1  -4  -1   13.20    4.02
  -1   4   1   11.47    3.27
   1  -4   1   16.12    4.47
  -1  -4   1    9.93    2.77
  -1  -4   1    4.70    1.54
   1  -4  -1   11.36    3.56
   1  -4  -1    7.55    2.55
   1  -4   1   19.91    5.06
   1   4   2 1800.32   41.21
  -1  -4   2 1817.58   48.17
   1  -4   2 1898.08   47.49
   1  -4  -2 1707.56   43.88
  -1  -4  -2 1794.88   46.02
   1  -4  -2 1841.82   46.00
   1  -4   2 1793.49   45.86
  -1   4   2 1904.95   44.04
  -1  -4   2 1865.32   41.21
   1   4   2 1839.71   25.17
   1  -4  -3   32.62    6.36
   1   4   3   44.66    6.47
  -1  -4   3   27.79    4.30
  -1  -4   3   30.53    5.88
   1  -4   3   34.62    6.47
   1   4   3   32.18    3.39
  -1   4   3   26.66    5.68
  -1  -4  -3   26.00    5.04
   1  -4   3   29.56    5.59
  -1  -4   3   25.18    4.70
   1  -4   4  652.63   28.13
  -1  -4   4  647.83   22.13
  -1  -4   4  646.46   24.69
   1  -4   4  611.11   27.47
  -1   4   4  635.97   25.47
  -1   4   4  668.10   28.25
   1   4   4  670.65   18.24
   1  -4  -4  609.18   27.66
  -1  -4   4  658.56   29.39
   1   4   4  664.65   26.50
  -1  -4  -4  599.33   26.73
   1  -4  -5  828.77   32.92
  -1  -4  -5  867.74   33.39
  -1  -4   5  849.66   29.15
  -1   4   5  832.58   29.83
   1   4   5  849.77   31.09
   1  -4   5  816.41   32.72
  -1  -4   5  801.52   27.15
   1   4   5  891.59   23.83
  -1   4   5  879.79   33.45
   1  -4   5  858.39   32.82
  -1  -4   5  853.54   34.25
  -1  -4  -6  444.81   24.66
  -1  -4   6  421.72   20.95
   1  -4  -6  405.28   23.82
   1  -4   6  464.60   25.12
  -1   4   6  421.43   22.05
   1   4   6  427.30   22.85
  -1  -4   6  467.67   26.05
   1   4   6  444.38   18.44
   1  -4   6  451.23   24.67
  -1   4   6  480.77   25.61
  -1  -4   6  454.72   22.18
  -1  -4   7 1076.96   36.04
  -1  -4   7 1006.78   39.67
   1  -4   7 1050.51   39.45
  -1   4   7 1024.60   38.61
  -1  -4  -7  947.94   37.39
   1  -4  -7 1044.58   39.26
  -1  -4   7  982.45   34.21
  -1   4   7 1076.36   36.20
   1  -4   7 1046.27   38.93
   1   4   7 1022.06   30.83
   1   4   7 1023.82   36.97
   1  -4  -8 1615.62   51.41
  -1  -4  -8 1553.24   49.91
   1   4   8 1821.01   44.23
  -1  -4   8 1661.13   46.67
  -1   4   8 1628.63   50.04
   1  -4   8 1788.24   52.03
  -1   4   8 1754.14   48.35
  -1  -4   8 1622.83   51.78
   1   4   8 1687.86   49.40
  -1  -4   8 1655.62   47.28
   1  -4   8 1689.54   50.22
  -1  -4   9 1625.18   48.88
   1   4   9 1542.29   49.28
  -1  -4   9 1494.11   49.90
  -1   4   9 1496.90   47.01
  -1   4   9 1472.54   48.87
  -1  -4   9 1456.14   44.79
   1   4   9 1515.53   43.04
   1  -4  -9 1392.08   48.96
  -1  -4  -9 1398.13   48.51
   1  -4   9 1506.19   49.05
   1  -4   9 1465.04   48.39
   1  -4  10  396.03   25.42
  -1  -4 -10  370.94   26.24
   1  -4  10  423.84   26.85
  -1  -4  10  382.89   23.49
  -1  -4  10  436.31   26.99
  -1   4  10  402.94   26.38
  -1  -4  10  403.67   25.76
   1   4  10  451.60   27.19
   1   4  10  431.84   24.50
  -1   4  10  421.79   26.92
   1  -4  11    6.56    2.33
  -1  -4  11    2.53    1.05
   1  -4  11    3.42    3.37
  -1  -4 -11    9.26    2.96
   1   4  11    1.86    1.25
   1   4  11    4.62    2.57
  -1  -4  11    4.46    2.57
  -1   4  11   -0.80    1.20
  -1  -4  11    9.36    3.05
  -1   4  11    5.09    3.51
   1  -4  12   64.92   11.02
   1   4  12   71.14   10.84
  -1  -4  12   54.65   10.46
  -1   4  12   62.88   10.49
  -1   4  12   75.11   12.15
   1   4  12   80.30   12.14
  -1  -4  12   75.00   12.01
  -1  -4 -12   88.86   13.20
  -1  -4  12   72.22   10.99
   1  -4  13   49.78   10.41
   1  -4  13   64.58   11.20
  -1   4  13   66.24   10.87
  -1  -4  13   86.79   13.39
  -1   4  13   64.70   10.98
   1   4  13   77.79   11.42
  -1  -4  13   56.33   11.37
   1  -4  13   53.47    9.55
  -1  -4  13   64.43   11.40
   1   4  13   81.95   12.51
  -1  -4  14  338.66   26.21
   1   4  14  354.45   26.33
   1  -4  14  376.54   27.46
   1   4  14  361.59   27.46
  -1  -4  14  413.93   29.88
  -1   4  14  327.91   26.65
   1  -4  14  354.42   27.58
  -1   4  14  348.40   26.49
   1  -4  14  397.06   27.91
  -1  -4  15   22.52    5.81
   1  -4  15   32.21    8.48
  -1   4  15   21.25    6.66
  -1   4  15   25.64    7.60
  -1  -4  15   15.24    6.09
   1   4  15   14.63    6.29
   1  -4  15   24.64    7.98
   1   4  15   33.76    8.70
  -1  -4  15   20.27    6.60
  -1   4  16   11.71    3.17
  -1   4  16   14.19    3.95
   1  -4  16   24.34    7.74
   1   4  16   42.74    9.84
  -1  -4  16   31.34    9.30
   1  -4  16   29.52    8.43
   1   4  16   32.52    8.14
  -1  -4  16   22.73    7.39
   1   4  17  259.77   25.87
   1  -4  17  239.54   23.98
  -1   4  17  260.37   25.59
   1  -4  17  237.31   24.71
  -1  -4  17  252.92   24.59
  -1   4  17  234.28   23.63
  -1  -4  17  274.01   26.72
   1   4  17  209.71   22.53
   1   4  18  130.98   18.24
   1   4  18  159.18   20.63
  -1  -4  18  177.43   21.82
   1  -4  18  172.56   21.06
  -1   4  18  132.21   18.72
   1  -4  18  144.46   19.99
  -1  -4  18  156.98   20.39
  -1   4  18  143.83   18.55
  -1   4  19   91.04   15.12
   1  -4  19   99.91   16.97
  -1  -4  19   97.22   16.83
   1   4  19   86.84   15.58
   1  -4  19  134.87   19.03
  -1   4  19   97.01   16.09
  -1  -4  19   66.13   14.19
   1   4  19  125.89   18.29
  -1  -4  20   -1.74    1.69
  -1   4  20   -1.63    3.54
  -1  -4  20   -0.64    3.11
   1   4  20    0.88    2.03
   1  -4  20    0.04    1.83
  -1   4  20   -2.14    2.81
   1  -4  20    4.42    3.49
   1   4  20    1.11    2.84
  -1  -4  21   45.91   12.49
   1   4  21   59.63   13.42
   1   4  21   64.57   13.50
   1  -4  21   60.23   13.38
   1  -4  21   56.96   12.74
  -1   4  21   56.52   13.14
  -1  -4  21   52.32   12.72
  -1   4  21   34.76    8.92
  -1   4  22   18.38    7.22
  -1  -4  22   35.83   10.81
   1   4  22   33.19   10.29
  -1  -4  22   29.43   10.16
   1   4  22   42.28   11.06
  -1   4  22   57.67   13.49
   1  -4  22   27.90    8.78
   1  -4  22   27.68    9.22
   1  -4  23  202.10   25.42
   1   4  23  180.22   23.98
  -1  -4  23  211.01   26.15
  -1  -4  23  179.13   23.42
   1   4  23  199.10   24.57
   1  -4  23  176.11   23.51
  -1   4  23  187.69   24.29
  -1   4  23  181.47   23.68
  -1  -4  24    3.64    7.56
   1   4  24   -1.07    3.38
   1   4  24    5.88    1.47
  -1   4  24    0.61    3.10
  -1   4  24   -1.40    3.00
   1  -4  24    4.43    3.02
  -1  -4  24    3.23    2.54
   1  -4  24    7.99    4.60
   1  -4  25   -4.03    4.21
   1   4  25    6.40    7.45
  -1  -4  25   -1.03    4.78
   1  -4  25   -2.09    5.41
  -1   4  25    7.71    5.88
  -1   4  25   -5.33    6.52
  -1  -4  25    0.98    5.25
   1   4  25   -1.15    3.31
  -1   4  26   26.90    9.65
  -1  -4  26   27.27    9.54
   1   4  26   10.16    5.44
  -1  -4  26   16.14    6.98
   1  -4  26   24.00    8.58
   1  -4  26   26.44    8.59
  -1   4  26   13.58    8.71
   1   4  26   23.50    8.74
  -1  -4  27   12.96    6.32
  -1  -4  27   36.85   11.54
  -1   4  27   16.84    6.59
   1  -4  27    9.38    1.62
   1   4  27   19.64    9.03
  -1   4  27   19.99    9.09
   1   4  27   17.23    8.66
   1  -4  27   26.02   10.55
  -1  -4  28   -2.90    5.23
   1   4  28   -0.87    2.75
   1   4  28   -2.11    5.26
   1  -4  28    3.66    7.57
  -1  -4  28    2.26    5.58
   1  -4  28   -5.92    6.61
  -1   4  28   -5.93    4.48
  -1   4  28   10.94    7.27
   1  -4  29    3.26    2.83
   1   4  29    4.12    6.65
  -1  -4  29   -1.56    5.61
   1  -4  29    0.05    7.49
  -1  -4  29    0.98    4.15
  -1   4  29    0.80    2.83
  -1   4  29   -7.00    6.54
   1   4  29    2.60    5.44
   1  -4  30   20.61    8.49
  -1   4  30   17.36    6.70
   1   4  30   20.53    9.01
   1   4  30    7.46    3.93
  -1   4  30   26.31   10.03
  -1  -4  30   13.69    8.42
  -1  -4  30   27.20   10.71
   1  -4  30    8.35    7.58
  -1  -4  31   10.78    6.76
  -1   4  31   14.06    6.15
   1   4  31   14.69    6.53
  -1   4  31   14.07    6.93
  -1  -4  31    7.73    1.75
   1  -4  31   25.60   10.05
   1   4  31   13.10    6.21
   1  -4  31   20.12   10.39
  -1  -5   0   -2.88    3.15
   1  -5   0   -0.84    2.88
   1  -5   0   -1.83    0.16
  -1  -5   0    1.08    0.80
   1  -5  -1  626.30   29.80
   1  -5  -1  637.85   29.50
  -1  -5  -1  601.13   26.25
   1  -5   1  560.88   27.79
   1  -5   1  615.53   29.78
  -1  -5   1  660.20   31.27
  -1   5   1  634.36   27.66
  -1  -5  -1  598.41   29.72
  -1  -5   1  619.44   26.76
   1  -5  -2    8.16    4.04
   1  -5   2    5.84    2.24
  -1   5   2    5.42    2.40
   1  -5  -2    8.47    4.39
   1   5   2    5.76    1.51
  -1  -5  -2    3.54    2.12
   1  -5   2    4.25    3.09
  -1  -5   2    4.13    3.29
  -1  -5   2    2.12    2.71
  -1  -5   3   21.86    6.21
   1  -5   3   33.27    7.30
   1   5   3   30.97    6.44
  -1   5   3   32.38    6.08
   1  -5   3   26.40    5.56
   1   5   3   25.35    3.76
   1  -5  -3   45.39    7.80
  -1  -5  -3   28.27    6.00
  -1  -5   3   26.23    5.57
  -1  -5   4   63.21    8.57
   1  -5  -4   82.01   10.52
  -1  -5  -4   73.18   10.39
   1  -5   4   75.21   10.40
   1   5   4   82.11   10.33
  -1  -5   4   67.25   10.01
   1  -5   4   61.23    9.52
   1   5   4   78.65    6.69
  -1   5   4   76.43    9.52
   1   5   5   77.73   10.08
  -1  -5   5   68.40    9.14
   1  -5  -5   64.67    9.87
  -1   5   5   60.68    9.73
   1  -5   5   76.44   10.40
  -1  -5   5   77.97   11.36
  -1   5   5   89.19   10.17
   1  -5   5   87.85   11.69
   1   5   5   67.10    6.93
  -1  -5  -5   75.56   10.62
  -1  -5   5   76.53    8.98
   1   5   6   64.59    7.19
  -1   5   6   81.58    9.83
   1  -5   6   75.22   10.63
  -1  -5  -6   67.47   10.37
   1  -5  -6   61.86    9.82
  -1  -5   6   66.91   10.88
  -1  -5   6   72.86    9.63
   1   5   6   60.00    9.41
   1  -5   6   62.50   10.19
  -1  -5   6   61.02    8.16
  -1  -5   7    1.08    1.39
   1  -5   7    1.87    5.23
  -1   5   7   -0.91    3.14
   1   5   7   -1.05    1.88
  -1  -5  -7   -0.54    1.36
   1   5   7    2.26    0.79
  -1   5   7    1.59    2.77
  -1  -5   7   -2.50    3.01
   1  -5   7    0.35    1.92
  -1  -5   7   -0.47    2.72
   1  -5  -7   -0.44    1.47
  -1  -5  -8  579.31   31.98
   1   5   8  656.56   32.53
  -1  -5   8  613.84   29.41
  -1  -5   8  633.52   30.41
  -1   5   8  692.96   34.46
   1   5   8  632.51   26.26
  -1   5   8  640.35   30.40
   1  -5   8  596.26   32.15
   1  -5   8  653.56   32.81
  -1  -5   8  590.60   32.80
   1  -5  -8  561.23   31.51
   1  -5   9  949.94   41.83
  -1  -5  -9  873.37   40.48
   1   5   9  977.04   34.45
  -1  -5   9  886.21   37.09
  -1   5   9  949.24   38.13
   1  -5  -9  982.95   42.46
  -1  -5   9  981.76   43.34
   1  -5   9  972.88   41.38
  -1  -5   9  910.43   37.77
   1   5   9  951.17   40.34
  -1   5   9  953.14   41.46
  -1   5  10   -2.11    2.63
  -1  -5  10    1.41    2.16
   1   5  10   -0.80    0.60
  -1  -5  10    3.20    3.15
  -1   5  10   -0.98    2.65
   1  -5 -10    1.50    2.75
   1  -5  10    2.53    2.59
  -1  -5 -10   -0.14    1.23
   1   5  10   -0.36    0.29
   1  -5  10   -1.67    2.03
  -1  -5  10    1.97    1.40
  -1   5  11  126.27   14.66
  -1  -5  11  132.16   15.16
   1  -5  11   95.52   14.05
   1  -5 -11   93.73   13.83
   1   5  11  125.92   13.52
  -1  -5  11  122.98   14.94
   1  -5  11  108.67   14.35
   1   5  11  124.58   16.30
  -1  -5  11  108.50   14.52
  -1  -5 -11  129.99   15.91
  -1   5  11  108.34   14.72
  -1  -5  12   -0.76    3.03
   1  -5  12    3.44    3.07
   1  -5  12    6.12    3.67
   1   5  12    2.62    2.03
  -1  -5 -12    3.91    3.62
  -1   5  12    4.97    4.71
  -1  -5  12    3.91    3.54
   1  -5 -12    6.05    5.82
  -1  -5  12    3.74    2.17
   1   5  12    1.44    1.78
  -1   5  12    0.62    0.41
   1  -5  13   28.66    7.86
  -1  -5  13   48.21   10.27
  -1  -5  13   28.16    9.27
   1  -5  13   35.85    8.38
   1  -5  13   50.62   10.58
   1   5  13   31.65    7.27
   1  -5 -13   35.80    9.14
  -1  -5 -13   53.35   11.48
  -1   5  13   40.72    9.47
  -1   5  13   46.43   10.34
   1   5  13   40.30    8.56
  -1  -5  13   39.13    9.38
  -1  -5 -14  184.93   21.01
   1   5  14  176.71   20.46
  -1   5  14  182.31   20.35
  -1  -5  14  142.84   17.93
   1  -5  14  176.53   19.66
   1  -5  14  168.76   19.19
  -1   5  14  173.20   19.45
   1   5  14  157.77   17.62
  -1  -5  14  192.17   19.64
   1  -5  14  134.73   17.43
  -1  -5  14  207.00   21.72
   1   5  15   84.61   13.80
  -1  -5  15   70.48   12.95
  -1  -5 -15   76.50   13.46
  -1   5  15   95.45   13.21
   1  -5  15   83.94   14.37
   1   5  15   81.41   14.33
  -1  -5  15   70.00   12.78
  -1   5  15   94.19   15.42
  -1  -5  15   66.50   11.86
   1  -5  15  113.69   16.72
   1  -5  16   71.04   13.28
   1  -5  16   72.96   13.18
   1   5  16   72.13   12.78
  -1  -5 -16   67.39   13.71
  -1   5  16   65.39   13.24
   1   5  16   69.43   13.34
   1  -5  16   53.43   11.23
  -1  -5  16   71.34   13.09
  -1  -5  16   72.62   14.04
  -1  -5  16   78.29   13.56
  -1   5  16   55.78   11.77
   1  -5  17   41.46    9.31
  -1   5  17   37.15    9.58
   1   5  17   51.38   10.79
  -1  -5  17   36.50    9.55
  -1  -5  17   34.50    9.15
   1   5  17   62.12   12.53
  -1   5  17   34.83    9.60
  -1  -5 -17   49.68   11.47
   1  -5  17   32.12    9.00
   1   5  18    5.50    4.19
   1  -5  18    1.90    3.40
  -1   5  18    0.84    3.22
  -1  -5  18    0.55    1.78
   1  -5  18    0.70    2.70
  -1  -5  18    0.11    2.72
  -1  -5 -18    5.36    4.80
  -1   5  18   -2.59    1.05
   1   5  18    2.49    4.37
   1   5  19   43.77   10.99
  -1   5  19   37.16    9.79
  -1  -5  19   49.79   12.09
   1  -5  19    9.95    5.22
   1  -5  19   57.75   12.52
   1   5  19   45.39   10.33
  -1  -5  19   37.56   10.04
  -1   5  19   48.59   12.33
  -1   5  20   71.22   14.21
   1   5  20   53.87   13.83
  -1  -5  20   73.96   15.71
   1  -5  20   79.29   15.02
   1  -5  20   58.23   12.17
  -1   5  20   56.15   13.13
  -1  -5  20   55.40   11.92
   1   5  20   70.89   14.01
  -1   5  21   50.22   12.25
   1  -5  21   30.89    9.47
   1   5  21   42.59   10.28
   1   5  21   61.86   13.74
   1  -5  21   52.41   13.84
  -1  -5  21   37.49   11.08
  -1  -5  21   40.85   10.58
  -1   5  21   46.97   12.43
  -1   5  22   14.52    8.33
   1   5  22   21.01    8.03
   1   5  22    7.73    6.18
   1  -5  22    8.79    4.71
  -1  -5  22    9.88    7.73
  -1  -5  22   14.94    7.24
   1  -5  22   15.38    6.41
  -1   5  22   26.14    9.10
   1  -5  23   30.70   10.82
  -1   5  23   18.64    9.45
   1   5  23    9.56    6.95
  -1  -5  23   16.57    8.62
  -1  -5  23   14.76    6.66
   1  -5  23    7.99    6.38
  -1   5  23   16.75    8.20
   1   5  23   27.60   10.48
   1   5  24    3.48    5.86
  -1  -5  24    0.33    2.06
   1  -5  24   -0.59    3.04
  -1  -5  24    2.16    3.86
  -1   5  24    6.35    8.37
   1  -5  24    4.94    5.80
  -1   5  24   -2.30    2.61
   1   5  24    1.40    2.72
  -1  -5  25    5.75    5.51
   1   5  25    6.27    5.52
   1  -5  25    9.35    7.38
  -1   5  25    0.68    2.07
  -1  -5  25    6.26    3.84
  -1   5  25   -0.64    2.86
   1  -5  25    5.44    5.32
   1   5  25    2.56    3.25
  -1  -5  26   29.12   10.48
  -1   5  26   19.26    8.65
   1   5  26   13.50    8.55
   1  -5  26   22.69    9.54
   1   5  26   33.50    8.54
  -1   5  26   18.60    6.65
  -1  -5  26   32.17   11.00
   1  -5  26   23.12    8.87
   1   5  27   -2.14    3.26
   1  -5  27   -1.29    1.67
  -1   5  27    2.04    4.27
   1   5  27    0.23    0.60
  -1   5  27    3.97    4.52
  -1  -5  27    2.35    7.78
   1  -5  27    5.34    3.92
  -1  -5  27   -3.44    2.85
   1  -5  28   -3.35    5.12
   1  -5  28    7.51    7.84
   1   5  28    2.05    2.16
  -1  -5  28    3.35    4.82
  -1   5  28    2.53    5.93
  -1   5  28    5.20    6.05
  -1  -5  28    1.00    0.43
   1   5  28   -4.52    6.61
   1  -5  29   21.77    8.97
  -1   5  29   25.79   10.15
  -1  -5  29   10.44    9.27
   1   5  29   14.38    8.03
  -1   5  29   12.65    6.70
   1   5  29   19.08    6.34
  -1  -5  29   20.20    7.90
   1  -5  29   16.01   10.71
  -1  -5  30   -7.39    8.19
   1  -5  30    8.38    8.79
  -1   5  30    9.04    2.57
   1  -5  30   18.36    9.69
  -1  -5  30   18.80    9.84
   1   5  30    4.43    2.87
  -1  -5 -30   -8.21    8.49
  -1   5  30   13.04    8.17
   1   5  30    2.80    3.31
  -1   5  31   15.01    8.23
   1  -5  31   12.92    6.80
   1  -5  31   18.27    8.52
  -1  -5  31   12.26    3.27
  -1   5  31   20.49    7.09
   1   5  31   26.87   11.36
   1   5  31   10.86    6.79
  -1  -5  31   33.31   12.33
  -1  -5 -31    2.83    9.73
   1  -6   0    0.13    2.72
   1  -6   0   -0.87    1.61
  -1  -6   0    0.29    1.59
  -1  -6   0   -3.50    2.07
   1  -6   1 1791.21   55.75
  -1  -6   1 1844.30   51.46
  -1  -6  -1 1804.20   56.82
   1  -6   1 1830.76   55.94
   1  -6  -1 1774.87   54.97
   1  -6  -1 1853.00   55.53
  -1   6   1 1836.02   48.10
  -1  -6  -1 1843.82   51.43
  -1  -6   1 1885.36   57.62
   1  -6  -2   26.37    6.81
   1  -6   2    6.55    3.45
  -1   6   2   26.99    6.68
   1  -6  -2    9.21    4.17
  -1  -6  -2   23.11    5.83
  -1  -6  -2   16.78    5.14
  -1  -6   2   20.74    5.63
  -1  -6   2   19.04    6.57
   1  -6   2   26.85    6.51
   1  -6  -3  467.52   27.91
   1  -6   3  444.72   27.91
  -1  -6  -3  414.03   26.76
   1  -6  -3  425.86   26.84
  -1  -6   3  471.07   29.42
   1  -6   3  433.10   26.93
   1   6   3  441.07   17.11
  -1  -6   3  454.95   25.41
  -1   6   3  452.23   25.33
  -1  -6   4   22.69    5.44
   1  -6   4   37.92    8.13
   1   6   4   28.45    4.31
   1  -6   4   17.26    5.31
  -1   6   4   31.25    6.80
  -1  -6  -4   30.09    7.33
   1   6   4   33.52    6.79
  -1  -6   4   33.45    8.77
   1  -6  -4   25.19    6.60
   1  -6   5 1231.38   45.92
  -1   6   5 1216.46   41.55
   1  -6  -5 1225.94   45.84
  -1  -6  -5 1086.24   44.49
  -1  -6   5 1165.44   46.90
   1   6   5 1241.92   43.64
   1   6   5 1253.40   31.59
  -1  -6   5 1221.58   42.43
   1  -6   5 1144.24   45.56
   1  -6  -6   26.63    6.80
  -1  -6   6   33.50    8.68
  -1   6   6   47.96    7.80
   1   6   6   25.25    4.66
   1   6   6   40.81    8.44
  -1  -6  -6   25.89    7.41
   1  -6   6   26.66    7.50
   1  -6   6   37.77    7.57
  -1   6   6   22.44    5.23
  -1  -6   6   46.33    8.51
  -1  -6   6   31.08    5.83
  -1  -6   7  228.57   17.51
   1  -6  -7  244.11   21.12
  -1  -6   7  210.24   20.18
  -1   6   7  224.44   19.86
  -1  -6  -7  224.40   21.03
   1  -6   7  206.76   19.44
   1   6   7  249.18   20.76
  -1   6   7  208.13   17.85
   1   6   7  234.94   15.42
  -1  -6   7  201.85   17.89
   1  -6   7  227.75   20.62
  -1  -6   8  120.08   13.98
  -1   6   8  109.89   14.21
  -1  -6  -8  112.12   14.69
  -1  -6   8  134.81   14.12
   1  -6   8  129.60   16.43
   1  -6  -8  123.30   15.74
   1   6   8  113.54   11.31
  -1  -6   8  153.48   17.97
  -1   6   8  149.25   14.96
   1  -6   8  144.52   16.23
   1   6   8  138.81   15.56
   1  -6  -9  541.89   32.96
  -1  -6   9  634.88   36.79
   1  -6   9  596.31   33.98
   1  -6   9  560.67   33.30
   1   6   9  574.38   32.98
  -1  -6  -9  586.63   34.71
  -1   6   9  553.80   30.36
  -1  -6   9  554.04   30.47
  -1   6   9  577.02   33.64
  -1  -6   9  537.68   30.07
   1   6   9  600.88   27.62
   1   6  10  119.99   12.86
  -1  -6  10  144.15   17.70
   1  -6 -10  107.85   14.98
  -1  -6 -10  119.72   16.57
  -1  -6  10  116.58   14.16
  -1   6  10  149.15   16.02
  -1  -6  10  140.93   15.68
   1  -6  10  115.11   14.95
  -1   6  10  131.87   15.89
   1   6  10  106.12   14.25
   1  -6  10  132.09   16.88
  -1  -6  11  341.85   25.82
   1  -6  11  353.02   27.49
   1   6  11  362.27   27.41
  -1  -6 -11  379.78   28.38
   1   6  11  343.87   22.77
  -1   6  11  323.39   25.83
   1  -6  11  386.49   28.31
  -1  -6  11  307.58   25.99
  -1   6  11  392.39   27.10
   1  -6 -11  352.10   27.64
  -1  -6  11  357.52   26.20
  -1   6  12  373.76   29.20
   1   6  12  378.40   25.45
   1  -6  12  368.82   28.30
   1  -6 -12  398.37   30.33
  -1  -6  12  356.54   26.87
   1  -6  12  349.88   27.60
   1   6  12  366.72   28.85
  -1  -6  12  412.81   30.24
  -1  -6  12  368.18   27.62
  -1   6  12  356.04   26.85
  -1  -6 -12  447.88   31.72
   1  -6 -13  183.24   21.14
  -1   6  13  171.04   20.07
   1  -6  13  184.56   20.46
   1   6  13  211.30   19.57
   1  -6  13  176.73   19.67
  -1  -6  13  187.34   19.59
  -1   6  13  197.97   20.27
  -1  -6 -13  189.04   21.46
   1   6  13  194.35   21.00
  -1  -6  13  188.19   20.58
  -1  -6  13  210.41   21.39
   1  -6 -14   33.14   10.15
   1  -6  14   29.44    8.89
   1  -6  14   19.47    6.69
  -1  -6  14   33.44    8.38
  -1  -6  14   27.72    8.46
  -1   6  14   33.98    8.66
  -1   6  14   30.61    8.97
   1   6  14   38.62    9.47
   1  -6  14   38.43    9.60
  -1  -6  14   25.60    7.54
   1   6  14   20.76    5.53
  -1  -6 -14   26.30    7.21
  -1   6  15  205.64   22.43
  -1   6  15  184.24   20.62
   1   6  15  193.01   22.13
   1  -6  15  153.39   19.15
   1   6  15  143.64   17.31
  -1  -6  15  169.89   19.90
  -1  -6 -15  162.64   20.58
   1  -6  15  174.10   20.54
  -1  -6  15  156.32   19.28
   1  -6  15  157.86   18.90
  -1  -6  15  142.07   18.84
   1  -6 -15  197.27   22.80
   1  -6  16   11.58    5.20
   1  -6  16    0.76    1.50
  -1  -6  16    9.60    4.57
  -1  -6 -16   14.64    7.53
   1   6  16   12.82    5.75
   1  -6 -16    5.05    3.35
  -1  -6  16   12.55    7.21
  -1   6  16    2.10    5.14
  -1   6  16    6.88    5.44
  -1  -6  16   11.19    5.34
   1  -6  16   11.05    6.86
   1   6  16   11.40    6.07
   1  -6 -17   -0.97    2.43
   1  -6  17    1.44    1.78
  -1  -6  17    2.36    0.31
  -1  -6  17   -0.56    3.19
   1   6  17    1.93    3.98
  -1   6  17    1.13    4.23
  -1  -6 -17   -0.88    1.11
  -1   6  17   -0.22    3.06
  -1  -6  17   -3.89    4.61
   1   6  17   -0.41    5.39
   1  -6  17    1.18    3.34
   1  -6  17   -1.58    3.66
  -1   6  18   11.64    2.70
  -1  -6  18   21.34    7.73
   1  -6  18   16.34    7.83
   1   6  18   19.40    7.11
  -1  -6  18   19.36    8.15
  -1  -6 -18   23.91    7.35
   1  -6  18   19.18    8.06
   1  -6 -18   14.07    8.66
   1   6  18   28.78    9.44
  -1  -6  18   11.95    2.61
   1  -6  18   25.51    8.94
  -1   6  18   29.92    9.15
  -1   6  19    8.78    6.58
  -1   6  19    1.58    4.06
   1  -6  19   -0.02    1.56
   1   6  19    0.32    1.96
   1  -6 -19    6.73    2.55
  -1  -6 -19    1.06    1.40
   1   6  19    2.59    3.02
  -1  -6  19    4.18    6.61
  -1  -6  19    4.32    4.54
   1  -6  19    3.80    3.42
  -1   6  20  130.24   19.96
  -1  -6  20  112.71   18.43
   1   6  20  124.58   18.71
  -1   6  20  117.96   18.31
  -1  -6 -20  134.83   20.26
  -1  -6  20  140.92   20.72
   1  -6 -20  128.84   19.27
   1  -6  20  119.50   18.60
   1  -6  20  139.08   20.98
   1   6  20  171.11   22.92
   1  -6 -21    1.95    4.85
   1  -6  21   -1.26    3.19
  -1  -6  21   -2.20    2.36
  -1   6  21    5.89    6.03
   1   6  21   -1.64    4.85
  -1   6  21    0.53    1.66
  -1  -6  21   -1.63    3.48
   1  -6  21    4.13    6.65
  -1  -6 -21   -1.32    4.44
   1   6  21   -0.97    1.07
   1   6  22  107.42   17.69
  -1  -6  22   85.89   15.52
   1   6  22   80.06   15.84
   1  -6  22  120.62   19.26
  -1  -6 -22   79.10   16.35
  -1   6  22   98.23   18.14
  -1  -6  22  102.34   18.22
   1  -6  22   84.04   16.97
  -1   6  22   82.23   16.78
   1  -6 -22  141.81   21.23
  -1  -6  23   14.83    6.61
   1  -6 -23   13.44    5.45
  -1  -6  23   15.88    7.59
  -1   6  23   12.47    4.25
  -1  -6 -23   20.24    8.64
   1   6  23   13.13    6.99
   1  -6  23    8.75    2.53
  -1   6  23   24.24   11.50
   1  -6  23   25.70    9.53
   1   6  23   19.77    6.33
   1  -6  24   15.33    7.14
   1   6  24   25.48    8.92
   1  -6  24   45.82   13.58
  -1  -6 -24    1.12    7.81
   1  -6 -24   18.83    7.08
  -1  -6  24   32.76   10.56
  -1  -6  24   29.22    8.66
  -1   6  24   47.88   12.23
   1   6  24   29.67   11.79
  -1   6  24   28.61   10.15
   1   6  25    2.86    6.25
  -1  -6  25    9.99    5.21
   1  -6  25    0.91    3.76
   1   6  25   -5.10    6.14
  -1  -6  25    1.16    2.13
  -1   6  25    5.33    5.03
   1  -6 -25    9.42    3.08
  -1   6  25   13.75    8.08
  -1  -6 -25    4.30    5.90
   1  -6  25    9.04    5.63
   1  -6 -26    6.22    2.77
  -1  -6  26    5.41    4.06
   1   6  26    2.31    3.97
  -1  -6 -26    3.73    1.62
  -1   6  26   21.44   12.01
  -1  -6  26   18.72   10.14
   1   6  26   16.21    7.04
   1  -6  26   12.46    6.84
   1  -6  26    6.81    6.84
  -1   6  26   12.19    6.37
   1  -6  27    7.27    3.70
  -1   6  27    9.15    9.05
  -1  -6  27    6.17    4.32
   1   6  27    8.92    4.01
   1  -6  27    3.80    3.42
   1   6  27    4.53    4.73
  -1   6  27    6.67    6.32
  -1  -6  27    8.87    7.36
   1  -6 -27   26.47   11.18
  -1  -6 -27   -1.16    1.92
  -1   6  28   58.07   15.38
  -1  -6 -28   32.98   12.07
  -1  -6  28   61.17   15.11
   1  -6  28   45.49   13.11
   1  -6 -28   38.00   12.48
   1   6  28   45.53   13.71
  -1   6  28   49.68   13.41
  -1  -6  28   30.30   10.23
   1   6  28   53.24   14.38
   1  -6  28   56.66   14.22
   1  -6 -29   -0.44    3.77
   1   6  29    5.28    5.57
  -1   6  29    9.15    9.29
   1  -6  29    6.24    8.65
   1  -6  29   -1.44    1.65
  -1  -6  29    1.27    5.52
  -1  -6 -29   -2.89    5.69
   1   6  29   -1.89    2.06
  -1   6  29   -1.24    2.38
  -1  -6  29    0.67    3.41
   1  -6  30   41.33   12.13
   1  -6  30    7.06    6.11
  -1  -6 -30   31.60   12.93
   1   6  30   20.65   11.36
  -1  -6  30   12.13    7.05
  -1  -6  30   21.93    9.93
  -1   6  30   16.71    8.69
   1   6  30   27.35   10.42
  -1   6  30   13.63    4.94
   1  -6 -30   21.28   10.06
   1  -7   0    3.72    4.11
  -1  -7   0    1.07    3.52
   1  -7   0    0.95    2.66
  -1  -7   0   -1.68    1.24
  -1  -7  -1  117.73   15.04
  -1  -7  -1  155.01   16.58
  -1  -7   1  143.96   15.90
   1  -7   1  140.45   16.66
   1  -7   1  150.90   17.18
  -1  -7   1  129.86   16.68
   1  -7  -1  148.74   17.05
   1  -7  -1  136.03   16.31
  -1  -7   2    9.39    5.17
   1  -7   2   11.83    4.32
  -1  -7  -2   13.88    6.02
   1  -7  -2   15.82    5.66
   1  -7  -2   12.33    5.17
  -1   7   2   12.60    4.59
   1  -7   2   11.78    6.35
  -1  -7   2   13.17    4.74
  -1  -7  -2    7.54    4.67
  -1   7   3   23.44    5.47
   1  -7   3   35.04    9.07
   1  -7  -3   17.35    4.77
  -1  -7  -3    9.78    4.69
   1  -7  -3   17.09    6.37
  -1  -7   3    9.28    3.61
  -1  -7  -3   20.78    5.76
  -1  -7   3   15.28    6.27
   1  -7   3   19.46    5.69
   1  -7   4  134.94   16.41
  -1  -7  -4  121.20   15.96
  -1  -7   4  167.38   16.68
  -1  -7   4  157.36   18.27
  -1   7   4  154.26   15.64
   1   7   4  119.03   10.76
   1  -7  -4  188.46   18.80
   1  -7  -4  148.33   17.15
   1  -7   4  147.24   16.46
   1   7   5  535.66   31.53
   1  -7   5  525.67   33.18
  -1  -7   5  521.84   29.88
   1  -7  -5  448.87   30.30
   1   7   5  509.73   23.22
   1  -7   5  518.12   31.40
  -1  -7   5  582.63   35.15
  -1  -7  -5  502.87   31.80
  -1   7   5  552.58   31.00
   1   7   6  141.00   12.19
  -1  -7   6  156.44   17.89
   1  -7   6  147.63   18.27
  -1  -7  -6  125.67   16.29
   1  -7  -6  160.22   18.21
   1   7   6  137.53   16.60
  -1  -7   6  157.66   16.68
   1  -7   6  148.73   16.81
  -1   7   6  147.47   15.80
  -1  -7   6  168.00   14.97
   1   7   7    0.41    1.32
  -1  -7   7    6.88    3.37
   1  -7  -7    3.40    4.29
  -1   7   7   -1.62    0.92
   1   7   7    3.54    3.83
   1  -7   7    1.48    1.40
  -1   7   7    0.01    2.25
  -1  -7   7    5.02    3.57
   1  -7   7   -2.42    3.90
  -1  -7  -7    0.12    3.31
  -1  -7   7    2.36    3.22
  -1  -7   8  142.26   17.77
  -1  -7  -8  135.01   17.24
  -1  -7   8  132.93   15.20
   1  -7   8  129.62   16.85
   1   7   8  132.19   16.16
  -1   7   8  140.72   17.61
   1  -7   8  132.24   15.89
   1   7   8  158.25   13.98
  -1   7   8  123.17   14.74
  -1  -7   8  123.09   14.63
   1  -7  -8  156.71   18.05
   1   7   9   57.64   10.46
  -1  -7   9   38.40    9.42
   1  -7   9   52.50   10.01
   1  -7  -9   38.50   10.08
  -1  -7   9   36.13    8.74
  -1  -7   9   39.31    8.84
   1   7   9   53.33    8.75
  -1  -7  -9   33.30    8.07
   1  -7   9   40.70    9.37
  -1   7   9   28.85    7.96
  -1   7   9   59.16   10.94
   1  -7  10   60.76   12.49
   1   7  10   90.74   11.39
  -1  -7  10   79.12   12.29
  -1  -7 -10   84.02   14.40
   1  -7  10   68.61   12.41
  -1  -7  10   85.51   14.46
   1  -7 -10   73.81   12.58
  -1   7  10  102.39   13.81
  -1   7  10  106.34   15.17
  -1  -7  10   77.72   12.53
   1   7  10   85.72   13.98
   1  -7 -11    4.15    1.09
   1   7  11   13.58    7.15
  -1  -7  11    8.56    3.26
   1   7  11    0.50    1.40
   1  -7  11    6.04    4.85
  -1  -7 -11   12.99    6.11
  -1   7  11    7.23    5.15
  -1  -7  11    5.97    3.48
  -1  -7  11    7.36    4.15
   1  -7  11    8.52    4.67
  -1   7  11    7.98    4.38
  -1   7  12   18.96    7.78
   1  -7 -12    5.18    5.95
   1   7  12    9.63    5.18
  -1  -7 -12   10.92    5.69
  -1  -7  12    9.99    1.27
  -1  -7  12   11.32    5.51
   1  -7  12    3.17    1.25
  -1  -7  12    0.70    2.43
   1  -7  12    8.48    3.16
   1   7  12    4.25    3.00
  -1   7  12   10.55    4.36
   1   7  13  311.09   27.56
  -1   7  13  301.16   28.02
   1  -7 -13  294.02   28.47
   1  -7  13  316.00   27.50
  -1   7  13  283.14   24.69
  -1  -7  13  173.32   20.94
   1  -7  13  350.04   29.44
  -1  -7 -13  280.70   26.47
  -1  -7  13  286.12   25.85
   1   7  13  277.19   23.66
  -1  -7  13  218.17   22.37
   1   7  14  416.89   29.43
  -1  -7  14  493.12   35.70
  -1  -7 -14  410.12   32.19
   1  -7  14  442.90   33.55
  -1  -7  14  456.53   32.39
   1   7  14  420.39   32.64
   1  -7 -14  450.98   34.35
  -1  -7  14  452.46   33.91
   1  -7  14  467.43   34.57
  -1   7  14  446.27   31.87
   1  -7  14  406.40   31.92
  -1   7  14  440.25   33.85
  -1  -7  15    1.72    3.04
  -1  -7  15    1.07    1.82
   1  -7  15    3.55    4.14
   1   7  15    3.59    1.38
  -1  -7 -15    2.33    3.51
   1  -7  15    3.73    5.03
  -1   7  15    5.00    3.82
  -1  -7  15    7.76    5.60
  -1   7  15    3.74    4.88
   1  -7  15    1.66    1.81
   1   7  15    5.68    4.85
   1  -7 -15   -0.48    4.33
  -1   7  16   -3.30    2.97
  -1  -7  16    9.74    7.15
  -1  -7  16    6.09    6.03
  -1  -7  16    3.78    2.18
  -1  -7 -16   14.95    7.44
   1   7  16    2.50    5.07
  -1   7  16    7.54    5.80
   1   7  16   -0.32    3.17
   1  -7 -16   -3.05    4.96
   1  -7  16    0.70    2.88
   1  -7  16   -0.98    1.06
   1  -7  16    0.81    3.22
   1  -7  17  184.70   22.67
   1   7  17  178.49   22.76
  -1  -7 -17  175.49   23.37
  -1   7  17  183.82   22.73
  -1   7  17  187.92   21.85
  -1  -7  17  163.62   21.44
  -1  -7  17  199.82   22.70
   1   7  17  213.35   22.55
   1  -7 -17  189.52   23.16
   1  -7  17  179.23   21.92
   1  -7  17  183.42   22.65
  -1  -7  17  172.83   21.68
  -1   7  18   67.11   14.38
  -1  -7  18   61.85   13.13
   1  -7 -18   68.35   14.02
   1   7  18   69.54   13.75
  -1   7  18   45.92   10.78
   1  -7  18   57.29   12.50
   1  -7  18   35.19    9.14
   1  -7  18   60.06   14.46
   1   7  18   73.41   14.06
  -1  -7  18   47.20   11.10
  -1  -7 -18   48.32   12.68
  -1  -7  18   62.13   14.15
  -1  -7 -19   76.76   15.23
  -1  -7  19  102.67   17.67
  -1   7  19   72.50   14.05
   1   7  19  100.38   16.87
   1  -7  19   83.08   15.43
   1   7  19   91.44   16.93
  -1  -7  19   77.98   15.25
   1  -7 -19   67.90   13.91
  -1  -7  19   77.36   14.44
  -1   7  19  106.33   18.64
   1  -7  19  105.25   17.60
   1  -7  19  101.45   17.32
  -1  -7  20    4.12    3.76
   1  -7  20    6.07    4.04
  -1   7  20    1.62    5.09
  -1  -7  20    9.52    8.57
  -1  -7 -20   12.06    5.94
  -1  -7  20    5.91    1.30
   1  -7 -20    2.04    3.52
   1  -7  20    3.43    5.06
   1   7  20    2.98    2.40
   1   7  20   10.60    6.39
  -1   7  20    1.15    4.37
   1  -7 -21    3.73    4.22
  -1   7  21   -1.29    2.06
  -1  -7 -21   10.87    1.04
  -1   7  21    4.99    6.70
   1  -7  21    5.93    4.25
  -1  -7  21    0.02    4.64
   1   7  21   10.16    7.55
   1  -7  21    4.53    6.54
  -1  -7  21    6.69    4.00
   1   7  21    7.93    6.47
   1   7  22   -0.67    1.68
   1  -7  22    9.17    8.93
  -1   7  22   -7.16    6.69
  -1  -7 -22    0.80    4.45
   1  -7 -22    5.01    6.58
  -1  -7  22    5.84    5.65
  -1  -7  22    7.99    4.69
  -1   7  22    5.22    0.91
   1  -7  22   -0.92    4.65
   1   7  22   -0.72    4.19
   1   7  23   45.99   12.21
  -1  -7 -23   51.84   13.47
   1   7  23   52.13   12.28
  -1  -7  23   66.71   14.84
   1  -7  23   73.19   15.90
  -1   7  23   57.42   13.80
   1  -7  23   45.38   12.14
  -1   7  23   44.89   13.11
  -1  -7  23   58.37   14.06
   1  -7 -23   77.29   16.96
  -1   7  24    1.06    1.86
   1  -7  24   -3.34    4.00
  -1  -7 -24   -2.37    5.10
  -1  -7  24   -1.41    3.15
  -1   7  24   -3.57    6.56
   1   7  24    1.45    4.05
   1  -7  24    5.29    7.21
  -1  -7  24   10.63    5.99
   1  -7 -24    3.59    3.62
   1   7  24    4.74    6.09
  -1  -7 -25    4.94    6.61
   1  -7  25   -0.22    3.93
   1   7  25    3.94    3.26
  -1  -7  25    1.65    5.48
  -1   7  25    2.53    4.30
   1  -7 -25   -2.08    3.42
  -1   7  25    4.46    3.84
  -1  -7  25    2.68    5.59
   1  -7  25    8.97    7.32
   1   7  25    0.18    5.42
   1  -7  26   -6.37    8.58
   1  -7 -26   -2.24    4.11
  -1  -7  26   -3.62    1.98
  -1  -7 -26    0.76    4.91
  -1  -7  26    2.04    2.45
  -1   7  26   -1.82    1.31
  -1   7  26    4.95    6.36
   1  -7  26   -0.51    3.16
   1   7  26   10.64    7.09
   1   7  26   -2.07    3.98
   1   7  27   44.40   13.88
   1  -7  27   31.33   10.69
   1   7  27   21.60    9.15
  -1  -7  27   27.36   10.01
  -1   7  27   25.55   10.05
  -1  -7  27    4.66    3.01
  -1  -7 -27   35.35   11.20
  -1   7  27   23.58   10.10
   1  -7 -27   26.31    8.30
   1  -7  27   38.87   13.41
  -1   7  28   34.20   11.70
   1   7  28   42.16   12.91
   1  -7  28   21.06    7.14
   1  -7 -28   17.98    5.46
  -1   7  28   39.21   13.06
  -1  -7  28   40.59   13.70
   1   7  28   19.15    9.24
   1  -7  28   36.79   13.16
  -1  -7  28   19.70    7.59
  -1  -7 -28   23.23   10.87
  -1   7  29    6.00    7.91
   1  -7 -29    5.56    4.69
   1  -7  29   -0.06    3.60
  -1  -7  29   -3.05    5.43
   1   7  29   17.97    7.68
  -1  -7  29   -1.39    3.72
  -1  -7 -29    2.56    5.52
   1  -7  29    6.54    4.94
   1   7  29    0.86    3.77
  -1   7  29    8.58    6.18
  -1  -8   0   -1.95    4.10
   1  -8   0   -1.00    3.38
   1  -8   0    1.53    3.54
  -1  -8   0    1.33    3.91
  -1  -8  -1  865.70   44.51
  -1  -8   1  901.81   46.34
  -1  -8  -1  973.46   43.98
   1  -8   1  872.45   44.24
   1  -8   1  928.72   44.88
  -1  -8   1  905.37   42.50
   1  -8  -1  945.84   46.31
   1  -8  -1  939.54   45.43
   1  -8  -2  150.94   18.17
   1  -8   2  107.76   15.54
  -1  -8  -2  105.76   14.25
  -1  -8   2  160.13   17.50
   1  -8  -2  146.77   17.77
  -1  -8   2  151.20   18.67
   1  -8   2  124.76   16.05
  -1  -8  -2  127.26   17.39
   1  -8  -3   18.01    6.37
   1  -8  -3   24.72    7.49
  -1  -8  -3   16.29    5.72
  -1  -8   3   18.90    5.18
  -1  -8  -3   32.13    8.55
  -1  -8   3   14.81    6.78
   1  -8   3   25.34    8.03
  -1   8   3   26.24    6.87
   1  -8   3   26.87    7.21
  -1  -8  -4   10.63    4.62
  -1   8   4   10.73    5.25
   1  -8   4   18.26    5.96
  -1  -8  -4   10.05    6.16
   1  -8   4    4.82    3.76
   1  -8  -4    0.73    2.05
   1  -8  -4   14.47    6.24
  -1  -8   4   16.52    6.23
  -1  -8   4   13.82    5.65
   1  -8  -5  775.72   41.40
  -1  -8   5  824.30   40.43
  -1  -8  -5  866.31   44.91
   1  -8  -5  837.66   42.61
  -1   8   5  824.73   39.51
  -1  -8   5  817.46   44.48
   1  -8   5  859.99   45.39
   1  -8   5  806.71   41.68
   1   8   5  794.65   29.97
  -1  -8   6   34.41    8.66
   1  -8   6   37.92    9.33
  -1  -8   6   34.69    6.77
  -1  -8  -6   27.73    9.55
   1  -8   6   41.84    9.78
   1  -8  -6   39.95    9.19
  -1   8   6   44.81   10.11
   1   8   6   41.83    6.73
  -1  -8   6   47.62   10.19
   1  -8   7  207.49   21.33
  -1  -8  -7  259.82   24.74
   1  -8  -7  256.22   24.80
  -1   8   7  243.74   21.68
  -1  -8   7  218.12   23.26
   1   8   7  233.88   17.78
   1   8   7  238.98   22.66
   1  -8   7  233.46   23.15
  -1  -8   7  208.69   18.41
  -1  -8   7  251.03   22.33
   1   8   8   16.34    5.09
   1  -8   8   27.90    8.85
   1  -8   8    9.70    4.90
  -1  -8   8    4.38    3.32
   1   8   8   27.16    8.63
  -1  -8  -8   14.24    6.37
   1  -8  -8   19.88    6.82
  -1  -8   8    8.25    4.58
  -1  -8   8   11.23    3.18
  -1   8   8    8.14    4.28
   1  -8   9 1520.67   62.14
  -1   8   9 1481.73   59.22
  -1   8   9 1472.17   54.66
   1  -8   9 1521.96   58.89
   1   8   9 1456.59   57.18
  -1  -8  -9 1427.22   60.47
   1  -8  -9 1468.61   59.20
   1   8   9 1382.36   45.58
  -1  -8   9 1534.60   62.52
  -1  -8   9 1482.57   55.83
  -1  -8   9 1526.48   54.26
   1  -8  10   35.46    9.01
  -1  -8  10   20.17    6.84
   1  -8 -10   54.58   11.52
   1   8  10   28.18    7.59
  -1  -8 -10   39.89   11.58
  -1   8  10   31.12    7.94
  -1   8  10   26.00    7.43
  -1  -8  10   40.33    9.40
   1   8  10   40.45    8.69
   1  -8  10   27.89    8.47
  -1  -8  10   26.67    7.87
   1  -8  11   20.00    7.02
   1   8  11   17.17    5.46
  -1  -8  11   12.94    6.26
  -1   8  11    9.08    1.73
  -1   8  11   16.32    6.60
  -1  -8 -11    9.62    4.46
  -1  -8  11   14.39    6.21
   1  -8  11   26.56    7.28
   1  -8 -11   25.44    8.11
  -1  -8  11   17.11    7.49
   1   8  11   21.24    6.58
  -1  -8 -12  214.53   23.45
   1   8  12  204.56   22.67
   1  -8 -12  191.44   22.29
  -1  -8  12  229.48   23.33
   1  -8  12  232.73   25.07
   1  -8  12  221.52   23.61
   1   8  12  192.60   19.24
  -1   8  12  210.97   22.20
  -1  -8  12  162.52   20.90
  -1  -8  12  176.63   20.29
   1  -8 -13   98.27   16.16
   1   8  13  106.68   17.00
   1  -8  13   88.03   15.27
  -1  -8  13   60.34   13.37
  -1  -8  13  106.61   16.74
  -1  -8 -13   78.63   14.22
  -1   8  13   97.15   15.31
   1   8  13   91.32   13.11
   1  -8  13   79.69   14.87
  -1   8  13   80.82   13.87
  -1  -8  13   99.50   17.66
  -1  -8  14   11.07    5.69
   1  -8  14   -3.22    4.46
  -1  -8  14    0.88    4.25
   1   8  14    4.36    2.33
  -1  -8 -14    1.59    3.30
   1  -8  14    6.85    6.09
   1   8  14    4.04    2.37
  -1  -8  14    9.01    3.90
  -1   8  14   13.14    7.47
   1  -8 -14    5.36    4.50
  -1   8  14    0.32    1.43
   1  -8  14   -0.58    2.21
   1  -8  15   55.16   12.09
  -1  -8  15   86.26   15.34
   1  -8 -15   35.14    9.63
   1   8  15   61.85   11.74
   1  -8  15   29.92    7.69
  -1   8  15   70.20   13.78
   1  -8  15   81.26   13.95
   1   8  15   52.99   11.99
  -1  -8 -15   50.13   12.65
  -1   8  15   75.60   15.18
  -1  -8  15   52.75   11.97
  -1  -8  15   67.83   14.33
  -1  -8  16   11.56    5.19
   1  -8 -16    2.31    3.15
   1  -8  16    7.52    4.48
  -1  -8  16   -1.38    2.67
  -1   8  16   -0.62    3.26
  -1  -8 -16    3.20    3.52
   1   8  16    3.17    3.93
  -1  -8  16    8.97    2.38
   1  -8  16    1.50    2.28
   1   8  16   -0.83    4.58
  -1   8  16    0.69    2.37
   1  -8  16    7.61    4.79
  -1   8  17  122.54   19.40
   1   8  17  100.36   17.38
   1  -8  17  139.13   20.72
  -1  -8  17  119.95   18.57
   1   8  17  141.88   19.81
  -1  -8 -17  134.56   20.51
  -1  -8  17  103.79   17.10
   1  -8  17  122.75   19.45
  -1   8  17  132.77   19.53
   1  -8  17  117.15   17.83
   1   8  18    6.37    3.46
  -1  -8  18    2.47    1.57
   1  -8 -18    2.12    3.74
   1   8  18   -3.42    5.76
   1  -8  18    0.81    3.80
  -1  -8 -18    9.43    7.99
   1  -8  18   15.44    6.03
  -1   8  18    4.55    1.28
  -1  -8  18   -0.37    5.17
   1  -8  18    0.24    2.68
  -1  -8  18    6.24    6.40
  -1   8  18    8.22    7.26
  -1  -8  19  184.06   24.09
   1  -8  19  194.93   24.69
  -1   8  19  146.86   21.51
   1  -8  19  215.30   25.83
   1   8  19  196.72   23.80
  -1  -8  19  252.73   27.30
  -1  -8  19  211.47   25.54
  -1   8  19  242.16   28.46
   1  -8  19  185.81   24.36
   1  -8 -19  218.31   26.70
   1   8  19  224.89   26.45
   1  -8  20   -2.28    3.15
  -1  -8  20   -2.38    4.03
  -1  -8 -20    7.18    6.65
  -1  -8  20   -1.35    3.99
  -1   8  20    0.11    4.15
   1   8  20    2.34    2.41
  -1  -8  20    6.91    8.21
   1  -8 -20    4.17    4.88
   1  -8  20    0.97    4.83
   1   8  20    1.06    4.53
  -1   8  20   -1.42    5.80
   1  -8  20   -1.58    1.52
  -1   8  21   29.27    9.73
   1  -8 -21   51.62   12.91
   1  -8  21   47.25   12.67
  -1   8  21   62.28   14.40
   1   8  21   47.34   12.56
   1  -8  21   61.92   14.19
  -1  -8 -21   76.49   16.83
   1  -8  21   73.53   14.90
  -1  -8  21   84.60   18.03
   1   8  21   67.80   14.94
  -1  -8  21   54.08   13.06
  -1  -8  21   67.16   14.56
  -1   8  22    7.17    7.01
  -1  -8  22    6.99    6.94
   1   8  22    1.24    3.93
  -1   8  22    8.40    3.85
  -1  -8 -22    2.03    4.31
   1  -8  22    5.99    1.91
   1   8  22    6.05    4.15
  -1  -8  22   12.90    6.63
   1  -8  22   16.75    9.87
   1  -8 -22   12.20    7.86
  -1  -8  23  119.93   20.90
   1  -8  23   65.87   15.73
   1   8  23   81.14   17.40
  -1  -8 -23   93.41   18.89
  -1  -8  23   55.45   13.66
  -1   8  23   67.71   15.29
   1  -8  23   70.30   15.42
   1   8  23   84.90   16.40
  -1   8  23   70.11   15.84
   1  -8 -23   76.08   16.14
  -1   8  24    8.81    5.33
  -1  -8  24   -0.11    2.07
   1  -8 -24    0.95    4.19
   1   8  24    5.87    4.45
   1   8  24    1.60    4.48
   1  -8  24    2.74    2.20
   1  -8  24    0.83    2.49
  -1   8  24    7.15    2.57
  -1  -8  24    5.18    4.19
  -1  -8 -24    5.53    6.58
  -1  -8 -25   11.94    3.12
  -1   8  25   14.66    5.66
  -1   8  25   20.19    9.32
  -1  -8  25   17.28    7.05
   1  -8  25    3.07    1.87
   1   8  25   32.04   11.95
   1  -8 -25   14.28    4.56
  -1  -8  25    8.65    4.99
   1  -8  25    1.35    4.22
  -1  -8  26   -7.14    7.20
  -1  -8  26   -8.24    9.60
   1  -8  26    8.08    6.65
   1  -8 -26    3.19    3.48
  -1   8  26   -0.64    1.68
   1  -8  26    2.36    2.75
  -1  -8 -26    9.57    9.70
  -1   8  26   -4.93    5.60
   1   8  26   -5.32    6.35
  -1   8  27   84.20   19.10
  -1  -8  27   81.49   18.59
   1  -8 -27   58.29   15.86
  -1  -8  27   72.23   16.81
   1  -8  27   85.82   18.06
   1  -8  27   69.65   15.95
  -1   8  27   85.49   17.29
  -1  -8 -27   61.93   16.38
   1   8  27   63.12   15.13
  -1  -8  28   13.79    7.33
  -1  -8 -28   15.25   10.59
  -1   8  28   -3.14    5.32
   1  -8  28    5.87    1.34
   1  -8 -28    4.66    1.17
   1  -8  28    3.80    7.48
  -1   8  28   -0.23    3.37
  -1  -8  28    4.29    3.10
   1   8  28    7.95    6.27
   1  -9   0    0.58    2.94
   1  -9   0    2.64    2.12
  -1  -9   0   -0.30    1.77
  -1  -9   0    4.04    1.30
   1  -9  -1   36.85    9.02
  -1  -9  -1   25.37    7.76
   1  -9  -1   35.34    8.64
   1  -9   1   32.78    9.93
  -1  -9   1   22.21    6.64
   1  -9   1   53.74   11.04
  -1  -9   1   34.24    8.68
  -1  -9  -1   21.47    6.59
  -1  -9   2   93.95   14.87
   1  -9   2   84.35   15.01
   1  -9  -2   98.98   15.76
  -1  -9   2   89.97   14.30
   1  -9   2  111.49   16.01
  -1  -9  -2  127.09   17.42
   1  -9  -2  104.27   16.33
  -1  -9  -2  107.60   15.57
   1  -9   3  157.58   19.17
   1  -9  -3  183.48   21.39
  -1  -9  -3  122.91   17.64
  -1  -9   3  141.25   19.26
   1  -9   3  173.81   20.79
   1  -9  -3  137.23   18.87
  -1  -9  -3  143.45   19.34
  -1  -9   3  149.16   18.21
  -1   9   4   42.33    9.42
  -1  -9  -4   42.82    9.81
   1  -9   4   48.88   10.15
  -1  -9  -4   47.74   10.87
  -1  -9   4   55.86   11.51
   1  -9   4   46.44   11.03
   1  -9  -4   69.55   12.86
   1  -9  -4   53.88   10.95
  -1  -9   4   67.87   12.74
  -1  -9  -5   10.45    8.70
  -1   9   5    2.45    1.18
  -1  -9  -5    1.67    3.52
   1  -9  -5    8.48    5.51
   1  -9   5    9.60    3.80
   1  -9  -5    9.27    5.18
  -1  -9   5   10.24    4.48
  -1  -9   5   16.12    6.20
  -1  -9  -6   62.48   12.27
  -1  -9   6   77.15   12.50
   1   9   6   71.74    9.87
  -1  -9   6   85.55   15.16
   1  -9   6   80.83   14.60
   1  -9   6   72.52   13.28
   1  -9  -6   86.20   14.99
  -1  -9   6   98.27   12.17
  -1   9   6   68.83   11.94
   1  -9  -6   62.43   12.78
   1  -9  -7    1.20    4.29
  -1   9   7    0.42    2.71
  -1  -9   7    1.53    3.51
   1  -9  -7    2.86    5.14
   1   9   7   -0.65    0.72
  -1  -9  -7    4.30    4.19
  -1  -9   7    0.02    5.61
   1  -9   7   -1.08    4.61
  -1  -9   7   -0.41    2.62
   1  -9   7    0.94    2.11
   1  -9   8   22.92    8.00
  -1  -9  -8   19.87    6.06
  -1  -9   8   29.36    7.05
   1   9   8   16.26    5.34
  -1  -9   8   17.13    6.57
   1  -9   8   21.28    7.40
   1  -9  -8   13.18    4.56
  -1  -9   8   11.26    4.30
  -1   9   8   10.51    4.00
  -1  -9   9 1054.00   47.37
  -1  -9   9 1180.73   57.66
   1   9   9 1056.64   42.48
  -1   9   9 1134.29   51.19
   1   9   9 1224.67   55.46
   1  -9   9 1313.97   59.99
  -1  -9  -9 1226.70   57.15
  -1  -9   9 1219.47   53.27
   1  -9  -9 1213.06   56.55
   1  -9   9 1143.10   53.69
   1  -9  10   42.31   10.25
   1   9  10   40.48    9.19
  -1  -9  10   41.56    9.59
  -1   9  10   41.53    9.19
  -1  -9  10   29.69    8.25
   1   9  10   37.16    8.04
   1  -9 -10   37.88   10.70
  -1  -9  10   28.40    8.85
   1  -9  10   23.38    7.90
  -1  -9 -10   47.11   11.46
   1  -9  11   45.07   10.11
   1  -9  11   58.67   12.33
  -1  -9  11   43.71   10.50
  -1   9  11   65.05   12.80
  -1   9  11   37.72    8.87
  -1  -9 -11   38.32   10.50
  -1  -9  11   34.29    9.49
   1  -9 -11   22.06    9.85
   1   9  11   40.21    9.03
   1   9  11   41.53   11.04
  -1  -9  11   40.50   10.06
  -1   9  12    2.29    4.93
  -1  -9  12   13.20    6.54
   1  -9  12    4.78    5.08
  -1  -9  12    5.63    3.92
   1  -9 -12    0.50    3.39
   1  -9  12    1.84    2.43
  -1  -9 -12    6.78    4.35
  -1   9  12    4.12    2.89
   1   9  12    8.88    4.95
   1   9  12    3.75    3.01
  -1  -9  12    8.94    5.86
   1  -9  13    2.18    3.99
  -1  -9  13    6.68    2.91
   1  -9 -13    0.72    3.38
   1   9  13    1.98    3.86
  -1   9  13    4.90    1.16
  -1  -9 -13    2.21    2.54
  -1  -9  13    7.79    5.74
   1  -9  13    2.76    3.57
  -1  -9  13    4.67    4.36
  -1   9  13    5.82    4.70
  -1   9  14   16.67    6.48
  -1  -9  14   11.63    7.14
  -1  -9  14   11.00    4.39
  -1   9  14   12.37    5.61
   1  -9  14   10.81    7.03
   1  -9 -14    7.15    2.08
   1  -9  14   10.71    6.58
   1   9  14   16.71    5.70
  -1  -9 -14    7.29    5.52
   1  -9  14   19.84    8.06
  -1  -9  14    6.40    4.72
  -1  -9  15   41.46   10.93
  -1   9  15   38.97   10.48
  -1  -9  15   12.44    6.55
   1  -9  15   41.98   10.10
  -1  -9 -15   30.00   10.68
  -1   9  15   34.50    9.61
   1  -9 -15   62.04   14.53
  -1  -9  15   34.69    9.38
   1  -9  15   28.43    9.04
   1  -9  15   47.16   11.28
   1   9  15   40.75   11.00
   1  -9  16   55.64   12.52
   1  -9 -16   70.88   14.09
  -1   9  16   80.03   14.37
  -1  -9  16   62.07   13.57
  -1  -9 -16   84.03   16.26
  -1   9  16   70.63   14.19
   1   9  16  102.88   17.72
  -1  -9  16   67.58   14.20
   1  -9  16  105.94   17.43
   1  -9  16   54.01   12.96
  -1  -9  16   73.88   15.39
   1  -9  17   -2.54    3.16
  -1  -9  17   13.76    6.60
   1   9  17    4.06    2.16
   1  -9 -17    3.39    4.07
  -1   9  17    7.04    3.87
  -1  -9  17    2.95    4.20
   1  -9  17    4.99    5.08
  -1  -9  17   10.76    4.23
  -1   9  17   10.81    6.55
   1  -9  17   -0.61    3.77
  -1  -9 -17    3.82    4.53
   1  -9  18   35.43   11.57
   1  -9  18   34.31   10.61
  -1  -9  18   29.21   10.43
  -1  -9 -18   44.02   11.65
   1  -9 -18   44.96   12.79
  -1   9  18   45.94   11.05
   1  -9  18   17.50    5.92
   1   9  18   33.75    9.22
  -1   9  18   29.63    9.72
  -1  -9  18   50.89   13.68
  -1  -9  18   45.54   11.28
   1  -9  19   27.30    8.38
   1  -9 -19   30.23    9.22
   1   9  19   47.57   12.77
  -1   9  19   27.07   10.65
  -1  -9  19   16.35    6.64
  -1   9  19   43.89   10.85
   1  -9  19   27.81    7.28
  -1  -9 -19   34.30   10.99
   1  -9  19   33.73   11.46
  -1  -9  19   42.00   12.18
  -1  -9  19   29.72   10.53
  -1  -9  20   22.57    8.00
   1  -9  20   25.75   10.82
  -1  -9  20   15.58    6.94
  -1  -9 -20   42.39   10.55
  -1  -9  20   35.58   10.39
   1  -9 -20   23.34    5.91
   1  -9  20   32.38   13.05
  -1   9  20   19.67    7.60
  -1   9  20   35.98   10.47
   1   9  20   28.75    9.17
   1  -9  20   31.87    9.56
   1  -9  21   53.18   13.88
   1  -9  21   63.07   14.20
   1  -9 -21   42.91   11.27
  -1  -9  21   60.12   13.95
  -1  -9  21   17.30    6.12
  -1  -9 -21   81.22   16.44
   1  -9  21   41.52   11.52
  -1   9  21   39.45   11.02
  -1  -9  21   53.47   12.37
  -1   9  21   37.75   10.52
   1   9  21   58.92   14.66
  -1   9  22   12.28    7.84
   1  -9  22   13.51    5.49
   1  -9  22    2.92    4.60
   1  -9  22   16.61    7.78
   1   9  22   17.68    8.63
   1  -9 -22    3.93    3.04
  -1   9  22   23.70    9.25
  -1  -9  22   22.58   11.02
  -1  -9  22   10.72    6.21
  -1  -9  22   11.19    5.20
  -1  -9 -22   13.97    8.20
  -1  -9  23    4.09    6.29
  -1  -9  23   -7.30    9.41
   1  -9  23   -2.66    1.77
   1  -9 -23    2.41    2.49
  -1  -9 -23   10.29    8.81
   1   9  23    2.43    5.83
  -1   9  23    4.48    3.08
  -1   9  23   12.53    8.18
   1  -9  23   -1.26    3.22
  -1  -9  24   27.46    9.53
  -1  -9  24   14.56    8.39
  -1   9  24   11.42    6.48
   1  -9 -24   21.68    8.10
  -1   9  24   13.61    6.46
   1   9  24   12.50    7.82
   1  -9  24   21.17    9.22
  -1  -9 -24    3.13    4.96
   1  -9  24   25.38    9.63
  -1  -9 -25    9.39    7.23
   1  -9  25   -6.55    7.41
  -1  -9  25   -0.11    1.14
  -1  -9  25   -1.51    5.88
  -1   9  25   -3.09    5.74
   1  -9  25   -1.79    7.98
  -1   9  25   -4.80    5.19
   1   9  25   -2.71    5.71
   1  -9 -25   -1.36    4.60
   1  -9 -26   -5.16    6.68
  -1  -9 -26   -1.81    5.19
  -1   9  26    3.66    3.39
   1   9  26    5.46    6.78
   1  -9  26   -3.70    7.02
  -1  -9  26    0.12    2.08
  -1  -9  26    2.06    4.71
   1  -9  26    0.88    3.26
  -1   9  26    2.13    4.35
  -1  -9 -27   49.73   14.14
   1  -9  27   28.29    9.23
  -1  -9  27   28.42   11.21
  -1  -9  27   24.32   10.82
  -1   9  27   39.24   14.54
   1  -9 -27   27.89   10.20
   1  -9  27   23.85    8.54
  -1   9  27   17.88    9.29
   1   9  27   28.66   11.01
   1 -10   0    1.88    4.34
   1 -10   0    1.93    1.94
  -1 -10   0    1.23    1.43
  -1 -10   0   -2.64    1.46
  -1 -10   1   85.05   14.57
   1 -10  -1   92.44   15.55
   1 -10   1   85.28   15.32
  -1 -10  -1   84.90   14.46
   1 -10   1   82.28   14.25
  -1 -10   1  109.83   17.27
   1 -10  -1   84.39   14.65
  -1 -10  -1   84.94   15.16
  -1 -10  -2   83.05   14.32
  -1 -10   2   58.66   11.94
   1 -10   2   45.99   11.78
   1 -10  -2   63.96   13.34
  -1 -10  -2   48.12   12.26
   1 -10   2   57.59   12.43
  -1 -10   2   65.14   14.08
   1 -10  -2   49.47   11.69
   1 -10   3  215.26   24.78
  -1 -10  -3  222.62   25.56
  -1 -10   3  213.81   25.06
   1 -10   3  215.31   23.63
  -1 -10   3  209.69   23.13
   1 -10  -3  210.85   23.62
  -1 -10  -3  222.46   24.16
   1 -10  -3  203.10   22.93
   1 -10  -4   12.37    8.60
  -1 -10  -4    9.15    3.63
   1 -10   4    7.45    5.66
  -1 -10   4   14.17    7.27
  -1 -10   4   13.33    7.91
   1 -10  -4   12.40    6.84
  -1 -10  -4    9.29    5.58
   1 -10   4   10.10    3.70
   1 -10  -5  226.67   25.13
   1 -10   5  206.33   24.53
  -1 -10   5  204.22   22.30
  -1 -10  -5  188.41   23.18
   1 -10  -5  173.66   21.69
  -1  10   5  159.48   18.31
  -1 -10   5  196.55   23.72
  -1 -10  -5  211.49   22.81
   1 -10   5  178.80   21.48
  -1 -10   6  190.57   21.46
  -1 -10   6  164.41   21.34
  -1 -10  -6  163.46   20.29
  -1  10   6  151.29   19.63
   1 -10   6  152.37   21.46
   1 -10  -6  175.26   22.12
   1 -10   6  181.84   21.89
  -1 -10  -6  174.38   21.85
   1 -10  -6  176.44   21.86
   1 -10   7   99.48   16.55
   1 -10  -7  115.20   17.18
  -1 -10   7  121.94   17.31
  -1 -10   7  128.64   19.13
  -1 -10  -7  107.74   16.57
   1 -10  -7  111.29   17.63
  -1 -10  -7  109.94   17.37
  -1  10   7   94.59   16.02
   1 -10   7  109.43   18.12
   1 -10   8  103.16   16.21
   1 -10   8   52.29   12.42
  -1  10   8   57.31   12.26
  -1 -10  -8   81.62   15.54
   1 -10  -8   84.22   15.83
   1 -10  -8   79.73   14.37
  -1 -10   8   87.02   14.76
  -1 -10   8   87.89   16.17
   1 -10   9   70.94   13.58
  -1  10   9   58.25   12.59
   1 -10   9   51.19   12.47
   1 -10  -9   58.68   12.82
  -1 -10   9   61.57   12.80
  -1 -10  -9   78.78   14.91
  -1 -10   9   75.16   14.67
   1 -10  10  388.56   34.50
   1 -10  10  370.62   31.81
  -1  10  10  384.71   32.23
  -1 -10 -10  392.83   33.95
   1 -10 -10  344.42   32.21
  -1 -10  10  348.02   32.69
  -1 -10  10  425.26   33.26
  -1 -10  11   21.84    9.72
   1 -10  11   15.66    6.51
  -1  10  11   23.52    6.76
   1 -10 -11   17.59    8.02
  -1 -10 -11   12.96    5.62
   1  10  11   20.60    8.43
   1 -10  11   24.37    8.05
  -1 -10  11   25.09    8.59
   1 -10  12   85.98   15.55
  -1 -10  12   69.88   15.09
  -1 -10  12  112.59   17.80
   1 -10  12   68.19   13.73
  -1 -10 -12   89.60   17.35
   1 -10 -12   52.24   12.57
   1  10  12   58.96   13.03
  -1  10  12   88.34   17.08
  -1 -10  13   65.23   13.94
   1 -10  13   63.75   14.30
  -1 -10  13   68.56   13.94
   1 -10 -13   55.00   12.92
   1 -10  13   54.09   11.92
  -1  10  13   76.10   15.09
  -1  10  13   57.52   12.82
   1  10  13   81.77   15.84
  -1 -10 -13   68.60   14.04
   1 -10  14    5.94    6.54
   1 -10  14    4.27    4.69
  -1 -10 -14    3.46    3.60
  -1 -10  14    0.81    4.69
  -1  10  14    0.86    1.97
   1 -10  14    7.47    6.77
  -1 -10  14   19.48    9.18
  -1  10  14    3.98    0.83
   1 -10 -14   19.60    7.89
  -1 -10  14   -2.83    3.68
   1  10  14    7.88    6.35
  -1 -10  15    3.58    5.65
   1 -10  15   -3.85    1.03
   1 -10  15    5.78    6.25
  -1 -10  15   -1.80    3.99
   1  10  15   -1.96    5.29
  -1 -10  15    4.29    5.92
   1 -10 -15   -0.77    3.53
  -1 -10 -15   -2.56    1.09
  -1  10  15   -5.79    5.14
  -1  10  15    5.57    4.55
   1 -10  15    4.52    3.53
  -1 -10 -16   76.70   15.22
   1 -10 -16  135.43   20.61
  -1  10  16   75.22   14.44
   1  10  16   84.55   15.76
   1 -10  16  103.13   18.33
  -1 -10  16  124.72   19.03
  -1 -10  16  117.91   19.94
   1 -10  16  110.60   19.69
   1 -10  16  114.13   19.11
  -1 -10  16   83.48   16.14
  -1  10  16  114.66   19.14
   1 -10  17   23.05    8.25
  -1 -10  17   22.72    6.34
   1 -10  17   13.26    4.50
  -1  10  17   22.69    9.42
  -1 -10  17   12.89    5.89
  -1  10  17   17.90    8.15
   1  10  17   13.32    5.69
  -1 -10 -17   13.42    6.90
   1 -10  17   16.05    8.16
   1 -10 -17   20.76    8.59
  -1 -10  17   19.91    8.26
  -1 -10  18    7.93    6.73
   1  10  18   11.57    6.46
   1 -10 -18   16.83    5.51
   1 -10  18   14.10    5.77
  -1 -10  18   -1.19    5.43
   1 -10  18   19.23    6.43
  -1  10  18   -0.62    2.30
   1 -10  18   22.41    9.12
  -1  10  18   24.77    8.80
  -1 -10 -18   20.27    9.15
  -1 -10  18   19.20    7.36
   1 -10  19   -4.53    5.98
  -1 -10 -19   19.55    8.83
  -1  10  19   -4.78    7.09
   1 -10 -19    0.05    1.30
  -1 -10  19    2.18    2.90
   1  10  19   -1.39    1.29
  -1  10  19    5.59    5.43
  -1 -10  19    9.13    5.78
  -1 -10  19   -1.11    5.24
   1 -10  19    6.26    5.35
   1 -10  19   10.70    7.02
   1 -10  20  131.23   21.79
   1 -10 -20  111.77   19.86
   1 -10  20  150.17   23.89
  -1 -10  20  120.66   20.46
  -1 -10 -20  121.74   21.95
  -1 -10  20  151.62   23.51
   1  10  20  134.11   21.73
  -1  10  20  133.53   21.39
  -1 -10  20  120.68   20.83
   1 -10  20  145.35   22.76
   1  10  21    6.40    6.41
  -1 -10  21    7.37    6.26
  -1  10  21    9.68    6.75
   1 -10 -21   -4.74    5.44
   1 -10  21   -5.59    5.71
  -1 -10  21    4.55    3.11
  -1 -10  21    1.25    3.91
   1 -10  21    2.28    5.67
  -1 -10 -21    0.41    1.42
   1 -10  21    4.22    4.41
  -1 -10  22   23.53    9.75
   1 -10  22    8.97    7.11
  -1 -10  22    7.05    8.15
  -1 -10  22    2.81    3.24
   1  10  22   13.96    7.46
   1 -10  22    8.82    4.26
   1 -10  22   15.62    9.26
  -1  10  22    8.47    7.47
  -1 -10 -22    7.17    6.91
   1 -10 -22   14.79    7.47
  -1  10  23    1.77    2.63
   1 -10  23    7.44    6.75
  -1 -10 -23    0.51    1.39
  -1 -10  23    6.44    6.21
   1 -10 -23    6.92    5.02
   1 -10  23    7.12    4.43
  -1 -10  23    0.08    1.57
  -1 -10  23   -0.34    5.39
   1 -10  24   36.35   12.11
   1 -10 -24   10.38    5.88
  -1 -10  24   35.72   14.09
   1 -10  24   20.70    9.62
  -1 -10 -24   23.85   10.43
  -1 -10  24   42.98   14.25
  -1  10  24   38.89   12.31
   1  10  24   24.92    9.68
  -1 -10 -25    4.97    4.60
   1 -10 -25    1.59    4.93
   1 -10  25   -0.11    1.37
  -1 -10  25    6.02    4.67
  -1 -10  25    4.20   10.03
  -1  10  25    6.45    4.37
   1 -10  25   -4.09    4.29
   1  10  25    9.71    7.63
   1 -10 -26    7.65    5.37
  -1 -10 -26    3.50    2.90
   1 -10  26   14.99    5.36
  -1 -10  26   14.78   10.02
  -1  10  26    2.30    3.28
   1 -10  26   11.62    4.79
   1  10  26   -0.33    0.55
   1 -11   0   -0.46    2.11
  -1 -11   0    3.10    1.26
   1 -11   0    0.47    1.89
  -1 -11   0   -0.61    1.48
  -1 -11  -1    4.53    5.17
   1 -11  -1    1.10    6.83
   1 -11  -1    7.90    6.20
  -1 -11   1    5.06    4.40
   1 -11   1    4.13    2.05
   1 -11   1   10.81    7.76
  -1 -11   1   -3.89    5.46
  -1 -11  -1    0.06    0.56
  -1 -11   2   -1.56    1.33
   1 -11   2    2.55    2.73
  -1 -11   2    5.93    4.42
   1 -11   2   11.34    6.60
   1 -11  -2   13.39    7.54
  -1 -11  -2   -0.44    4.40
  -1 -11  -2    1.48    1.80
   1 -11  -2    6.94    2.84
  -1 -11   3   51.26   12.42
  -1 -11  -3   42.73   10.51
   1 -11  -3   31.18    9.80
  -1 -11   3   65.15   14.53
   1 -11   3   44.24    9.61
   1 -11  -3   31.45    9.01
   1 -11   3   43.15   12.12
  -1 -11  -3   33.56    9.82
   1 -11  -4   27.01    7.76
  -1 -11   4   52.71   12.79
  -1 -11   4   31.96    9.13
   1 -11   4   44.45   11.27
   1 -11   4   23.86    9.80
  -1 -11  -4   30.96    8.81
   1 -11  -4   46.91   13.55
  -1 -11  -4   39.01   10.94
   1 -11   5    0.74    2.40
  -1 -11  -5    9.88    5.80
   1 -11   5    3.59    4.37
  -1 -11   5    3.36    5.86
  -1 -11  -5    0.42    1.86
   1 -11  -5    4.95    3.51
  -1 -11   5    2.16    3.81
   1 -11  -5    0.02    1.56
   1 -11  -6    1.60    1.91
   1 -11   6    2.15    5.26
   1 -11   6    4.02    2.90
  -1 -11  -6    3.25    1.07
   1 -11  -6    2.60    5.72
  -1 -11  -6    9.39    5.47
  -1 -11   6   -0.20    3.59
  -1 -11   6    9.34    5.84
   1 -11  -7   35.56    9.92
   1 -11   7   33.42   10.39
  -1 -11  -7   30.76    8.52
  -1 -11   7   16.63    6.55
   1 -11   7   24.88    8.24
   1 -11  -7   23.22    9.38
  -1 -11  -7   19.05    6.65
  -1 -11   7   17.53    7.97
  -1 -11   8  166.77   21.26
   1 -11   8  165.28   22.52
   1 -11  -8  148.21   21.26
  -1 -11  -8  128.55   19.63
  -1 -11  -8  145.40   20.61
   1 -11   8  138.85   20.06
  -1 -11   8  132.88   19.57
   1 -11  -8  122.02   18.90
  -1 -11  -9    7.60    5.78
   1 -11  -9    4.86    3.90
  -1 -11   9    6.57    6.05
   1 -11  -9   13.73    4.31
  -1 -11   9    8.14    4.82
   1 -11   9    4.98    5.92
   1 -11   9    0.47    1.70
  -1 -11  -9    9.36    4.06
  -1 -11  10  190.41   25.21
  -1 -11 -10  163.94   23.37
   1 -11  10  207.46   25.96
   1 -11  10  162.24   21.55
   1 -11 -10  164.82   22.96
   1 -11 -10  193.27   24.43
  -1 -11  10  133.91   20.44
  -1 -11 -11   13.97    5.40
   1 -11  11   10.38    3.90
  -1 -11  11   14.43    7.78
  -1 -11  11   11.28    7.38
   1 -11  11   13.12    7.45
   1 -11 -11    9.20    5.71
  -1 -11  12   65.86   14.76
   1 -11 -12   48.03   14.14
   1 -11  12   68.40   14.41
  -1 -11  12   41.61   11.67
  -1 -11 -12   43.63   13.12
   1 -11  12   37.55   11.62
   1 -11  13   12.34    3.77
  -1 -11  13    0.65    0.72
  -1 -11  13   12.79    6.60
   1 -11  13   11.54    3.26
   1 -11 -13   23.39    9.57
   1  11  13    4.14    2.91
  -1 -11 -13   12.89    7.46
  -1 -11  14   -1.67    3.53
   1 -11 -14    4.11    2.83
   1 -11  14    2.56    3.43
  -1 -11  14    9.05    7.04
  -1 -11 -14    5.13    5.29
   1  11  14   -1.41    5.91
   1 -11  14    0.85    3.02
   1 -11  14    3.53    7.13
  -1 -11  15   11.02    8.52
  -1 -11  15    0.02    3.96
   1 -11  15   -2.16    1.54
   1  11  15    6.13    5.37
   1 -11  15   -0.32    3.31
   1 -11  15    3.16    4.59
   1 -11 -15    2.47    2.30
  -1 -11 -15    4.28    0.74
  -1 -11 -16   10.81    6.75
   1 -11 -16    8.22    6.40
  -1 -11  16    9.85    4.24
  -1  11  16    9.12    4.98
   1 -11  16    6.63    6.76
   1 -11  16    6.80    8.30
   1 -11  16   16.61    4.54
   1  11  16   -0.39    4.59
  -1 -11  16    8.38    4.33
   1 -11  17   27.74   10.28
  -1 -11  17   16.71    8.07
   1  11  17   16.60    8.52
   1 -11  17   24.72    8.98
  -1  11  17   13.53    6.57
   1 -11 -17   20.71    6.54
  -1 -11 -17    4.89    2.84
  -1 -11  17   15.49    7.11
   1 -11  17   22.09    8.77
  -1 -11 -18    6.43    5.81
   1 -11  18    1.07    3.51
   1 -11  18    2.54    5.22
  -1 -11  18   -0.90    4.43
  -1  11  18    0.99    1.98
   1  11  18    2.20    2.85
   1 -11 -18    1.00    4.96
  -1 -11  18   -2.30    5.71
   1 -11  18    6.36    7.06
   1  11  19   25.62    8.17
   1 -11 -19   24.51    7.91
  -1  11  19   16.25    8.54
   1 -11  19   19.92    9.71
  -1 -11 -19   10.91    5.60
   1 -11  19   29.99    9.89
   1 -11  19   11.99    5.65
  -1 -11  19   16.71    9.47
  -1 -11  19   14.93    7.01
   1 -11  20    2.97    2.74
  -1 -11 -20    7.97    2.94
   1 -11  20    6.30    2.42
   1 -11  20    3.63    2.93
  -1 -11  20    8.02    5.33
  -1 -11  20   15.79   10.74
  -1  11  20   21.93    9.08
   1  11  20    4.99    5.30
   1 -11 -20    9.13    5.67
  -1 -11 -21    2.78    2.33
   1 -11  21    5.90    8.06
  -1 -11  21    9.31    6.93
   1 -11 -21   18.35    8.63
  -1 -11  21    6.20    3.93
  -1  11  21    3.42    3.69
   1 -11  21   -2.15    3.54
   1  11  21    4.16    3.29
   1 -11  21   21.17    9.00
  -1 -11  22   -0.25    3.11
   1  11  22    0.42    2.55
   1 -11 -22    8.77    6.58
   1 -11  22   -1.11    4.03
   1 -11  22    3.45    3.69
  -1 -11 -22    7.22    5.81
   1 -11  22    0.29    5.43
  -1  11  22    4.41    5.14
   1 -11 -23    1.92    4.59
   1 -11  23    0.91    0.48
  -1 -11  23    7.26    6.83
   1  11  23    0.26    2.49
  -1  11  23    9.02    4.36
   1 -11  23   14.70    8.03
   1 -11  23    0.90    3.94
  -1 -11 -23   -0.03    1.52
  -1 -11  24   -0.26    5.10
   1 -11 -24    1.46    2.42
   1  11  24   -7.27    6.19
  -1 -11 -24    5.44    5.90
   1 -11  24    4.55    5.28
  -1  11  24   -0.87    0.43
   1 -11  24   -9.57    8.66
   1 -12   0    1.05    1.69
   1 -12   0    2.58    5.23
  -1 -12   0    1.33    2.90
  -1 -12   0   -1.03    2.11
   1 -12   1    2.35    3.21
  -1 -12   1    3.62    6.20
   1 -12   1    3.82    4.92
   1 -12  -1   -5.25    5.59
   1 -12  -1    0.53    4.18
  -1 -12   1    4.58    5.97
  -1 -12  -1    1.36    3.10
  -1 -12  -1    3.23    8.20
   1 -12   2   54.44   13.34
  -1 -12  -2   42.68   11.87
   1 -12  -2   45.73   11.93
   1 -12  -2   35.19    9.23
  -1 -12  -2   37.48   11.12
   1 -12   2   55.79   13.93
  -1 -12   2   43.69   11.13
  -1 -12   2   55.89   12.56
  -1 -12  -3    2.57    1.78
  -1 -12   3   14.81    7.04
   1 -12   3   18.70    9.14
   1 -12   3    7.83    4.34
  -1 -12  -3   19.42    8.34
  -1 -12   3   15.48    7.19
   1 -12  -3    7.85    7.96
   1 -12  -3    8.73    2.91
  -1 -12  -4   -6.53    7.72
  -1 -12   4    6.29    7.17
  -1 -12  -4    5.81    5.28
   1 -12   4   -0.49    4.69
  -1 -12   4   -3.63    4.02
   1 -12  -4   -2.44    3.73
   1 -12   4   -4.19    3.55
   1 -12  -4    0.87    7.62
  -1 -12   5    1.65    3.03
   1 -12   5    6.07    7.94
  -1 -12   5    1.43    4.30
  -1 -12  -5    7.59    6.51
   1 -12  -5   13.86    7.44
  -1 -12  -5    2.26    2.71
   1 -12  -5   -0.58    4.22
   1 -12   5    1.93    3.74
  -1 -12  -6    1.49    2.05
  -1 -12   6   16.49    7.66
  -1 -12   6   -1.50    5.12
  -1 -12  -6    0.84    2.39
   1 -12  -6   13.91    5.70
   1 -12   6   21.92    9.78
   1 -12   6    7.45    5.21
   1 -12  -6   -3.25    1.90
   1 -12  -7   15.13    7.34
   1 -12   7   14.54    7.22
   1 -12  -7   11.36    4.34
   1 -12   7   15.91    7.45
  -1 -12  -7   12.37    5.81
  -1 -12  -7    8.20    2.05
  -1 -12   7    8.39    4.76
  -1 -12   7    6.36    8.20
  -1 -12  -8   46.59   13.03
   1 -12   8   21.83   10.07
   1 -12  -8   23.69    9.28
   1 -12   8   33.01   11.04
  -1 -12  -8   51.88   11.66
   1 -12  -8   20.86    8.83
  -1 -12   8   34.09   10.82
  -1 -12   8   24.64    8.91
  -1 -12  -9   55.25   13.16
   1 -12   9   67.89   14.42
   1 -12   9   48.01   12.84
   1 -12  -9   80.80   15.63
  -1 -12   9   76.36   16.67
  -1 -12  -9   95.96   17.94
  -1 -12   9   63.26   12.85
   1 -12  -9   66.39   14.26
   1 -12 -10    7.77    3.09
  -1 -12 -10   13.12    8.00
  -1 -12  10   13.39    4.62
   1 -12 -10    6.93    4.79
  -1 -12 -10    7.66    5.43
  -1 -12  10    4.54    3.62
   1 -12  10    0.46    2.10
   1 -12  10   12.02    7.75
  -1 -12 -11    1.12    1.27
  -1 -12  11    0.41    5.18
  -1 -12 -11   -1.00    3.03
   1 -12 -11    6.03    5.77
   1 -12  11    3.17    5.70
  -1 -12  11    1.69    5.01
   1 -12  11   -0.07    4.65
   1 -12 -11   17.28   10.16
   1 -12  12   13.01    9.54
  -1 -12  12   10.23    5.64
  -1 -12  12    9.19    4.59
  -1 -12 -12    7.06    5.48
   1 -12 -12   -1.35    5.11
   1 -12 -12    2.15    4.94
   1 -12  12   10.57    6.99
  -1 -12  13  135.19   21.46
   1 -12  13   72.10   16.09
  -1 -12  13  121.07   20.56
   1 -12  13  104.15   19.60
   1 -12 -13  140.55   21.53
  -1 -12 -13  139.78   21.89
   1 -12 -13  121.19   20.66
  -1 -12  14    6.59    4.07
  -1 -12  14    4.96    6.59
   1 -12  14    3.54    3.05
   1 -12 -14   12.93    8.46
  -1 -12 -14    6.01    3.21
   1 -12  14   -2.02    4.12
   1 -12  15    5.22    5.12
  -1 -12 -15    3.89    2.81
  -1 -12  15    3.08    5.16
   1 -12  15   -2.53    4.75
  -1 -12  15   -4.38    5.24
   1 -12 -15   -2.90    5.13
  -1 -12  16   56.08   14.32
  -1 -12  16   26.79    9.02
   1 -12  16   42.81   11.90
   1 -12 -16   49.23   13.52
   1 -12  16   56.54   15.42
   1  12  16   41.83   12.02
  -1 -12 -16   45.23   13.39
  -1 -12  17    3.76    2.48
   1 -12  17   20.25   10.53
   1 -12  17    5.30    3.97
   1 -12 -17   21.91    7.88
   1  12  17   10.78    6.66
  -1 -12  17    2.24    4.77
  -1 -12 -17    4.71    4.21
   1 -12  18    0.18    0.73
  -1 -12  18    4.64    3.92
   1 -12  18    6.29    3.75
  -1 -12  18   14.17    6.51
   1 -12 -18   -4.60    3.79
   1  12  18   10.12    7.17
  -1 -12 -18   -0.13    5.01
   1 -12  19   33.46   11.12
   1 -12 -19   41.32   13.69
  -1  12  19   44.58   13.27
   1  12  19   42.56   12.88
  -1 -12  19   35.39   13.80
  -1 -12 -19   29.27   11.37
   1 -12  19   41.41   13.26
  -1 -12  19   31.43   12.74
  -1 -12  20    0.47    5.86
  -1 -12 -20   -1.99    2.66
   1 -12 -20    4.21    2.90
   1  12  20   -0.18    4.27
  -1  12  20   -3.28    5.29
   1 -12  20   -3.93    4.87
   1 -12  20    0.72    3.36
   1 -12  21    7.09    7.23
  -1 -12  21   -1.78    5.57
  -1  12  21   12.35    8.14
  -1 -12 -21    7.02    7.39
   1 -12 -21   -7.66    6.94
   1 -12  21    1.33    5.68
   1  12  21   -5.33    2.00
   1 -12 -22    2.79    6.35
  -1 -12 -22    7.66    9.54
   1 -12  22   11.14    8.45
  -1  12  22   11.67    3.04
   1  12  22    6.95    5.87
  -1 -12  22   17.63    8.72
   1 -12  22   -3.11    3.61
  -1 -13   0    2.14    3.11
   1 -13   0   -4.34    5.99
   1 -13   0    0.68    4.46
  -1 -13   0    1.40    7.81
  -1 -13  -1   37.80   11.49
   1 -13  -1   15.28    8.21
  -1 -13  -1   26.55    9.31
   1 -13   1   40.49   11.86
   1 -13   1   30.27   10.44
  -1 -13   1   26.59    9.94
   1 -13  -1   48.43   13.09
  -1 -13   1   27.54   10.91
   1 -13   2   17.16    7.06
   1 -13   2   20.48    9.49
  -1 -13   2    8.61    5.42
   1 -13  -2    6.63    5.61
  -1 -13   2   13.60    8.32
   1 -13  -2   25.50    9.66
  -1 -13  -2   19.10    7.38
  -1 -13  -2    2.96    3.57
  -1 -13   3    9.38    6.56
   1 -13  -3   17.78    7.83
  -1 -13  -3   13.02    7.97
   1 -13   3   30.04   10.86
   1 -13  -3   12.36    4.85
  -1 -13  -3   14.96    6.61
   1 -13   3   20.03    9.80
  -1 -13   3    3.69    4.77
   1 -13  -4   40.92   11.51
  -1 -13   4   40.96   12.52
   1 -13   4   29.42   10.82
  -1 -13  -4   30.80   12.21
   1 -13  -4   37.72    9.97
  -1 -13  -4   25.79    9.40
   1 -13   4   24.98    9.76
  -1 -13   4   37.28   11.32
   1 -13   5    4.76    2.40
   1 -13  -5    7.97    7.25
  -1 -13  -5    6.81    6.44
   1 -13  -5   -3.20    3.77
  -1 -13  -5   -1.72    0.48
  -1 -13   5    2.67    2.23
   1 -13   5    4.88    4.86
  -1 -13   5   -3.15    4.00
   1 -13   6   -1.34    1.39
   1 -13  -6   -0.63    2.40
   1 -13  -6   -1.26    1.92
  -1 -13   6    4.08    4.14
  -1 -13  -6   -3.13    3.54
  -1 -13  -6    3.17    5.52
  -1 -13   6   -0.93    2.24
   1 -13   6   -4.04    6.26
  -1 -13  -7    7.93    6.04
   1 -13   7    9.15    5.27
  -1 -13  -7    8.88    8.12
   1 -13  -7   11.69    6.82
   1 -13  -7    3.51    0.94
  -1 -13   7    7.19    8.52
   1 -13   7   14.48    7.24
  -1 -13   8   -1.50    2.18
   1 -13   8    7.50    7.33
  -1 -13   8    7.42    7.77
   1 -13  -8    2.67    1.83
  -1 -13  -8    0.87    4.14
   1 -13  -8   -3.81    3.48
   1 -13   8    1.11    3.27
  -1 -13  -8    7.87    3.66
  -1 -13   9   35.02   11.86
   1 -13   9   66.96   14.62
  -1 -13  -9   49.14   13.73
   1 -13   9   42.91   11.52
  -1 -13  -9   49.27   12.45
   1 -13  -9   65.17   16.51
   1 -13  -9   67.95   16.03
  -1 -13   9   55.93   14.43
  -1 -13  10   13.94    9.83
   1 -13  10   20.77   10.52
  -1 -13  10   14.65    7.71
   1 -13 -10    6.87    6.82
  -1 -13 -10    4.56    6.38
  -1 -13 -10   -2.93    3.31
   1 -13 -10   15.55    9.93
   1 -13  10   12.23    9.37
   1 -13  11   -2.11    2.71
   1 -13  11    1.03    5.60
   1 -13 -11   -2.85    5.11
  -1 -13 -11    2.12    1.16
  -1 -13 -11   -0.20    1.66
  -1 -13  11    3.02    4.28
   1 -13 -11   -0.60    4.11
  -1 -13  11    2.08    3.64
  -1 -13 -12   15.01    7.16
   1 -13 -12   11.80    4.11
  -1 -13  12   15.50    6.41
   1 -13  12   11.18    6.80
   1 -13 -12   17.15    5.90
  -1 -13 -12   12.97    8.12
  -1 -13  12    6.16    5.05
   1 -13  12    4.69    2.18
   1 -13 -13    0.84    2.46
  -1 -13  13    5.30    1.65
   1 -13  13    1.49    1.36
  -1 -13 -13   -0.44    2.08
  -1 -13  13   -3.93    4.95
   1 -13 -13    4.22    5.52
  -1 -13 -13    0.75    5.74
   1 -13  13   -1.70    4.62
  -1 -13 -14   13.66    7.53
   1 -13 -14    9.50    3.88
  -1 -13  14    1.15    1.63
  -1 -13  14   18.06    8.84
   1 -13  14   12.95    6.03
   1 -13  14    4.40    3.91
  -1 -13 -14   15.28    6.27
   1 -13 -14    4.57    3.46
   1 -13  15   52.15   12.99
   1 -13 -15   49.35   15.20
   1 -13  15   43.01   11.57
  -1 -13 -15   31.49   12.49
  -1 -13  15   70.92   17.00
  -1 -13  15   61.02   16.30
   1 -13 -15   48.31   12.65
  -1 -13  16   -3.96    6.81
   1 -13  16   -1.96    2.00
   1 -13 -16   -1.20    3.77
   1 -13 -16    5.39    6.58
  -1 -13 -16   10.37    9.91
   1 -13  16    0.94    2.92
   1 -13  17   -0.19    2.74
  -1 -13  17    3.88    4.13
   1 -13 -17   -1.54    3.27
  -1 -13 -17   -1.56    4.27
   1 -13  18   13.05    6.31
   1 -13  18    2.97    6.37
  -1 -13  18    6.45    3.50
   1 -13 -18   19.38    8.74
  -1 -13 -18    3.87    3.94
   1 -13  19    3.20    4.92
   1 -13 -19    2.77    3.37
   1 -13  19    4.57    5.44
  -1 -13 -19    3.16    5.53
  -1 -13  19   -1.87    4.90
  -1 -13 -20    2.99    5.00
   1 -13 -20   -5.80    6.69
  -1 -13  20   -0.89    2.72
   1 -13  20    1.58    3.55
   1 -13  20    8.54    4.04
   1  13  20    2.32    3.29
   1 -14   0   -1.14    1.51
  -1 -14   0   -1.36    5.10
   1 -14   0    0.13    1.76
  -1 -14   0   -3.64    5.04
  -1 -14   1   22.52    8.05
   1 -14   1   15.37    6.08
  -1 -14  -1   20.52    9.93
  -1 -14   1    3.73    1.78
  -1 -14  -1   15.26    9.88
   1 -14   1    7.10    6.37
   1 -14  -1    0.50    2.74
   1 -14  -1    6.51    2.83
   1 -14   2   11.36    3.24
  -1 -14   2    5.91    1.15
  -1 -14  -2   15.53    8.87
  -1 -14  -2   14.64    1.82
  -1 -14   2    9.57    5.56
   1 -14   2   18.57    7.88
   1 -14  -2    7.03    4.37
   1 -14  -3   17.47    8.82
  -1 -14   3   16.02    8.45
   1 -14   3   11.27    5.55
   1 -14   3    6.86    4.35
   1 -14  -3   12.69    5.18
  -1 -14   3    5.12    6.38
  -1 -14  -3    3.15    4.57
  -1 -14  -3   10.67    7.34
   1 -14  -4   -2.27    3.68
   1 -14   4   -5.96    3.63
  -1 -14  -4    0.05    3.04
  -1 -14   4   -1.43    2.65
  -1 -14  -4   -1.51    4.34
   1 -14  -4   -1.46    2.15
   1 -14   4    1.30    0.57
  -1 -14   4   -1.79    6.54
   1 -14   5   49.40   12.99
  -1 -14   5   43.46   13.80
   1 -14   5   55.25   12.40
  -1 -14  -5   54.74   14.79
  -1 -14  -5   40.06   12.99
   1 -14  -5   25.00    9.43
   1 -14  -5   54.92   14.66
  -1 -14   5   44.10   11.58
  -1 -14   6   48.61   13.36
   1 -14   6   51.80   13.88
  -1 -14   6   72.56   17.49
   1 -14   6   57.62   13.83
  -1 -14  -6   71.06   16.48
   1 -14  -6   48.58   13.56
   1 -14  -6   66.45   15.72
  -1 -14  -6   65.00   15.62
   1 -14  -7   -1.30    1.17
  -1 -14   7    2.12    3.73
   1 -14  -7   -8.63    8.12
  -1 -14  -7   -0.90    1.07
  -1 -14  -7    1.33    3.39
  -1 -14   7   -4.77    4.77
   1 -14   7    2.04    3.89
   1 -14   8    4.59    6.49
   1 -14   8   -3.76    5.16
  -1 -14   8    4.20    1.45
  -1 -14   8  -11.77   10.31
   1 -14  -8    7.55    7.58
   1 -14  -8    5.31    4.08
  -1 -14  -8    6.24    5.82
  -1 -14  -8   -1.81    3.55
   1 -14  -9    9.99    7.66
  -1 -14  -9    7.06    6.99
   1 -14  -9   17.18    8.99
  -1 -14   9    8.88    7.63
   1 -14   9   11.08    8.27
  -1 -14  -9    9.59    4.44
  -1 -14   9   19.00    7.22
   1 -14   9   11.26    5.49
  -1 -14 -10   32.55   13.03
   1 -14  10   46.61   12.31
  -1 -14  10   38.84   10.14
   1 -14  10   30.41   10.47
   1 -14 -10   39.56   14.00
  -1 -14  10   35.42   10.99
   1 -14 -10   37.38   11.89
  -1 -14 -10   38.94   10.52
   1 -14 -11    4.83    4.42
   1 -14  11    4.33    3.68
  -1 -14  11    8.77    7.16
   1 -14  11   -2.06    3.95
  -1 -14 -11    1.09    6.00
  -1 -14 -11   -4.29    4.98
   1 -14 -11    4.01    1.48
  -1 -14  12   15.81    8.98
   1 -14  12    8.74    5.90
  -1 -14 -12    6.81    7.56
   1 -14 -12    2.16    2.64
   1 -14 -12    5.77    8.17
   1 -14  12    0.71    1.93
  -1 -14 -12    5.06    1.26
   1 -14  13   15.80    7.54
  -1 -14  13    6.50    5.28
  -1 -14 -13    8.39    7.49
   1 -14  13    5.27    3.47
  -1 -14 -13    6.32    4.42
   1 -14 -13   14.62    8.79
   1 -14 -13    9.53    8.36
   1 -14  14    8.05    5.15
  -1 -14 -14   12.06    6.15
   1 -14 -14   20.13    8.94
   1 -14 -14   21.63    9.12
  -1 -14 -14   16.80    7.34
   1 -14  14    7.89    4.40
  -1 -14  14   30.38   10.89
   1 -14  15   38.38   13.64
  -1 -14 -15   30.78   11.21
   1 -14 -15   31.57   11.35
  -1 -14 -15   26.16   10.91
   1 -14  15   16.22    5.77
  -1 -14  15   41.20   13.85
   1 -14 -15   14.21    6.66
   1 -14  16   15.32    7.94
  -1 -14  16   38.72   12.64
   1 -14 -16   21.76   10.74
   1 -14  16   28.19    9.96
  -1 -14 -16   23.48   10.35
   1 -14 -16   37.61   13.16
  -1 -14 -16   26.22   11.11
   1 -14  17    5.05    7.90
   1 -14  17   25.69   10.78
   1 -14 -17   34.55   11.59
  -1 -14 -17    4.90    4.06
  -1 -14  17   13.85    7.82
  -1 -14 -17   15.23    6.58
   1 -14 -17   18.67    8.09
  -1 -15   0   -6.38    7.78
  -1 -15   0    3.00    4.14
   1 -15   0    4.25    5.88
   1 -15   0   -4.88    1.72
   1 -15   1    0.87    2.35
   1 -15   1   14.27   11.74
   1 -15  -1   -2.53    2.49
  -1 -15   1   -0.08    4.90
  -1 -15  -1   11.72    8.10
   1 -15  -1    0.64    3.15
  -1 -15  -1   -1.78    1.87
  -1 -15   1    9.40    7.10
  -1 -15  -2   57.01   15.34
  -1 -15   2   36.94   10.63
   1 -15   2   44.24   12.65
  -1 -15  -2   30.65   10.26
   1 -15  -2   47.37   13.85
   1 -15  -2   28.60    9.58
   1 -15   2   36.25   11.79
  -1 -15   2   26.93   11.25
   1 -15   3   17.25   10.96
  -1 -15   3   13.06    6.40
  -1 -15  -3   14.40    7.70
   1 -15  -3   -5.19    6.42
  -1 -15   3   22.72    9.28
  -1 -15  -3    5.00    5.12
   1 -15  -3   15.83    7.23
   1 -15   3   13.71    7.68
  -1 -15  -4   -2.36    8.23
   1 -15   4    3.63    4.26
   1 -15   4    5.04    4.60
   1 -15  -4    2.62    5.81
  -1 -15   4   10.09    8.66
  -1 -15   4    7.96    0.98
  -1 -15  -4   -0.75    2.69
   1 -15  -4   -1.80    3.76
  -1 -15  -5    0.64    4.57
  -1 -15  -5   -0.08    1.08
   1 -15  -5   -0.31    1.37
   1 -15  -5    4.57    3.06
  -1 -15   5    3.01    4.33
   1 -15   5    1.64    5.20
  -1 -15   5    9.60    8.06
   1 -15   5   -4.70    6.17
   1 -15   6   20.46   11.20
   1 -15  -6   15.37    6.73
  -1 -15   6    5.97    2.67
  -1 -15  -6   15.55    8.46
  -1 -15  -6   30.97   11.55
  -1 -15   6   34.84   13.72
   1 -15   6   16.38    9.05
   1 -15  -6    9.65    5.68
  -1 -15  -7   14.54    8.01
   1 -15   7   31.54   12.25
   1 -15  -7   13.19    6.62
   1 -15  -7    6.66    5.54
  -1 -15  -7   21.80   11.29
   1 -15   7   13.35    7.24
  -1 -15   7   -4.75    4.15
  -1 -15   7   11.92    6.95
  -1 -15   8    7.16    5.28
  -1 -15  -8   27.08   10.77
  -1 -15  -8   11.18    3.76
   1 -15  -8   12.69    3.01
   1 -15   8   25.52    9.51
   1 -15  -8   19.11   10.59
   1 -15   8   27.45    9.43
   1 -15   9   19.03    9.01
   1 -15   9    9.04    7.26
  -1 -15  -9    6.83    1.75
   1 -15  -9    3.27    3.28
  -1 -15  -9    9.06    7.04
   1 -15  -9   -5.62    3.65
  -1 -15   9    1.61    2.78
  -1 -15 -10   34.53   11.89
   1 -15  10   33.47   12.24
  -1 -15 -10   30.54    8.85
   1 -15 -10   27.70    9.03
   1 -15  10   15.62    7.08
   1 -15 -10   20.53    8.04
  -1 -15  10   38.49   12.52
  -1 -15 -11   -4.73    7.39
  -1 -15  11    1.43    1.85
   1 -15  11    3.00    4.28
  -1 -15 -11    0.46    2.53
   1 -15 -11    0.68    4.01
   1 -15  11   -1.06    1.88
   1 -15 -11    4.60    7.45
   1 -15 -12    8.84    4.89
  -1 -15 -12    7.31    6.23
  -1 -15 -12   10.28    6.02
   1 -15 -12    9.10    5.84
   1 -15  12    3.03    4.87
   1 -15  12    1.38    3.01
  -1 -15  12    1.38    6.15
  -1 -15  13    0.40    1.20
   1 -15  13    5.81    7.08
   1 -15 -13    1.29    4.92
   1 -15 -13    6.41    6.26
   1 -15  13   -2.96    3.90
  -1 -15 -13    4.64    3.99
  -1 -15 -13   -0.06    4.68
  -1 -15  14    2.28    2.90
   1 -15  14    0.64    5.30
   1 -15 -14    1.28    2.97
  -1 -15 -14    9.90    8.60
   1 -15 -14   12.04    7.74
  -1 -15 -14    5.99    4.92
   1 -15  14   -0.79    3.83
  -1 -16   0    4.84    5.54
   1 -16   0   -2.14    1.61
  -1 -16   0   14.42   10.67
   1 -16   0    2.18    5.47
  -1 -16   1    4.15    4.53
   1 -16   1    3.56    4.26
   1 -16  -1   -5.37    4.68
   1 -16   1   -3.00    4.97
  -1 -16  -1    9.07    7.70
   1 -16  -1   -6.08    6.33
  -1 -16  -1   -2.21    0.48
  -1 -16   1   -1.55    7.69
   1 -16  -2   74.08   17.47
   1 -16   2   38.97   12.09
  -1 -16   2   41.02   12.21
  -1 -16  -2   63.75   16.72
  -1 -16  -2   68.47   16.45
   1 -16  -2   85.62   19.69
   1 -16   2   62.88   16.03
   1 -16   3   -0.86    3.07
   1 -16   3    9.67    4.83
  -1 -16  -3    2.42    2.36
   1 -16  -3    1.12    6.94
  -1 -16  -3    8.68    5.43
   1 -16  -3   -4.64    5.39
  -1 -16   3    8.25    6.21
  -1 -16  -4    3.56    8.12
   1 -16  -4   13.38    7.27
   1 -16   4    2.29    4.93
  -1 -16  -4   12.24   10.00
   1 -16  -4   11.81   10.08
   1 -16   4    1.10    1.37
  -1 -16   4    4.24    2.85
   1 -16   5   27.34   11.60
   1 -16  -5   16.08    9.08
  -1 -16  -5   10.77    4.66
   1 -16  -5   28.62   11.40
  -1 -16   5   16.95   10.12
   1 -16   5   13.13    5.62
  -1 -16  -5   12.02    5.10
  -1 -16  -6    6.07    3.64
  -1 -16   6    9.35    5.77
   1 -16  -6   -2.58    6.34
   1 -16   6    9.39    5.11
   1 -16  -6   -3.77    1.36
   1 -16   6   -0.91    6.09
   1 -16  -7   -2.43    2.88
   1 -16   7    3.13    6.22
  -1 -16   7    5.20    5.32
  -1 -16  -7   -1.11    1.67
  -1 -16  -7   -1.18    4.77
   1 -16  -7   12.05    4.88
   1 -16   7   11.77    7.67
  -1 -16  -8   15.92    8.00
  -1 -16  -8   20.25   11.83
   1 -16  -8   20.44    8.57
   1 -16   8   14.61    8.79
   1 -16   8   18.89   12.18
  -1 -16   8    1.02    3.81
   1 -16  -8    1.21    3.07
  -2   0   0  612.33   20.42
   2   0   0  621.53   14.18
  -2   0  -1   -0.52    0.34
   2   0  -1    0.22    0.38
   2   0   1    0.16    1.31
  -2   0   1    0.25    1.37
   2   0   2 5713.64   53.42
  -2   0   2 5841.08   44.21
   2   0   3    0.90    1.72
  -2   0   3   -0.37    0.48
  -2   0   3   -1.74    1.98
  -2   0   4 2888.66   38.82
  -2   0   4 2919.96   49.78
  -2   0   5   -0.08    1.07
  -2   0   5    3.33    2.08
   2   0   5    2.46    2.36
   2   0   6  472.01   21.26
  -2   0   6  481.06   22.30
  -2   0   6  441.50   18.29
  -2   0   7    0.91    2.07
   2   0   7    1.73    0.99
  -2   0   7    1.82    2.37
   2   0   8 1886.39   49.05
  -2   0   8 1843.86   48.67
  -2   0   8 1951.83   45.10
  -2   0   9    0.02    1.45
   2   0   9   -1.85    1.09
  -2   0   9   -0.23    0.38
   2   0  10 5043.30   85.14
  -2   0  10 4812.31   78.93
  -2   0  11   -1.01    0.51
   2   0  11   -1.26    2.08
  -2   0  11    1.16    0.86
   2   0  11    0.90    1.27
  -2   0  12  999.70   42.44
   2   0  12  935.52   41.02
   2   0  12  923.37   39.94
  -2   0  12  933.77   38.24
   2   0  13   -0.39    1.92
  -2   0  13   -0.41    2.78
   2   0  13    1.21    1.57
  -2   0  13   -2.27    1.99
  -2   0  14 1260.75   48.46
  -2   0  14 1340.87   52.19
   2   0  14 1347.32   51.25
   2   0  15   -1.62    2.27
   2   0  15    0.85    4.17
  -2   0  15    1.93    4.10
  -2   0  15    1.22    0.73
  -2   0  16   71.88   11.95
   2   0  16   42.59    9.73
  -2   0  16   56.57   11.78
   2   0  16   57.70   10.65
  -2   0  17    2.84    3.26
   2   0  17    0.05    1.20
  -2   0  17   -0.22    2.44
   2   0  17    4.07    4.92
   2   0  18  177.59   21.02
  -2   0  18  114.75   16.84
  -2   0  18  134.32   18.27
  -2   0  19    0.51    3.51
   2   0  19   -1.71    2.31
   2   0  19   -1.89    3.25
  -2   0  19    0.15    1.40
  -2   0  20   50.35   10.98
   2   0  20   44.54   11.56
   2   0  20   51.27   12.34
  -2   0  20   48.06   12.20
  -2   0  21   -2.15    2.33
   2   0  21   -2.40    3.21
   2   0  21    2.31    0.65
  -2   0  21   -3.29    2.77
   2   0  22   -0.02    1.87
  -2   0  22   -2.97    4.68
   2   0  22   -3.53    4.92
  -2   0  22    2.34    1.04
  -2   0  23    2.05    4.21
   2   0  23   -1.17    2.34
  -2   0  23   -1.71    2.21
   2   0  23    0.69    6.08
  -2   0  24   23.07    8.38
   2   0  24   10.34    5.60
  -2   0  24   11.25    9.52
   2   0  24   12.13    3.72
   2   0  25   -5.64    4.36
  -2   0  25    3.80    5.25
  -2   0  25   -0.16    2.65
   2   0  25   -9.58    7.97
   2   0  26   44.34   12.12
  -2   0  26   57.05   14.24
  -2   0  26   41.41   12.10
   2   0  26   45.17   11.72
   2   0  27    0.25    3.28
  -2   0  27    3.66    7.12
  -2   0  27   -3.07    7.60
   2   0  27   -0.14    3.32
  -2   0  28   -5.81    6.05
   2   0  28    1.13    3.97
  -2   0  28    4.12    5.48
   2   0  28   -5.44    5.79
   2   0  29   -4.26    8.51
   2   0  29   -0.77    3.15
  -2   0  29   -0.98    1.71
  -2   0  29    4.67    4.79
  -2   0  30   22.30    7.74
   2   0  30   31.41   11.58
  -2   0  30   -1.54    7.04
   2   0  30    6.46    5.11
  -2   0  31   -7.48    4.81
  -2   0  31   -0.80    2.81
   2   0  31   -1.12    1.79
   2   0  31   -5.68    2.45
  -2   0  32   56.42   13.20
   2   0  32   44.46   14.68
   2   0  32   36.69   11.51
  -2   0  32   38.28   12.86
   2  -1   0 8469.44   70.37
  -2   1   0 8497.09   84.61
   2   1   1 5777.99   41.24
   2  -1   1 6671.20   63.09
  -2   1   1 6866.19   75.79
  -2   1  -1 6168.16   70.31
   2  -1  -1 5850.80   58.76
  -2   1   2   46.26    6.17
   2  -1   2   46.67    3.40
   2   1   2   61.60    5.18
  -2  -1  -2   43.65    4.10
  -2  -1   2   43.78    4.93
   2  -1   2   43.97    5.37
  -2  -1   2   61.90    5.80
   2   1   3 2245.21   35.89
  -2   1   3 2706.89   47.64
   2  -1   3 2525.21   43.82
  -2   1   3 2545.98   39.89
  -2  -1  -3 2338.54   32.98
  -2  -1   3 2398.27   40.47
  -2  -1   3 2769.93   41.88
   2  -1   3 2519.13   28.93
  -2  -1   3 2530.42   26.22
  -2  -1   4 2605.50   32.06
  -2   1   4 2398.05   47.01
  -2   1   4 2531.05   42.59
  -2  -1  -4 2642.26   39.21
  -2  -1   4 2306.91   42.71
   2  -1   4 2548.46   33.92
   2  -1   4 2408.96   45.60
  -2  -1   4 2356.34   41.66
  -2  -1   5    8.56    2.47
   2  -1   5    4.52    2.87
  -2  -1   5   12.66    2.72
   2   1   5    6.30    1.73
  -2   1   5    9.49    2.65
  -2  -1   5   10.61    3.09
  -2   1   5   12.65    3.63
  -2  -1   6    8.13    2.53
   2  -1   6    8.82    3.16
  -2   1   6    7.72    2.22
   2   1   6    5.85    2.05
  -2   1   6    6.72    1.78
  -2  -1   6    7.59    3.56
   2  -1   7  113.20   11.60
  -2  -1   7  107.26    9.52
  -2   1   7  106.19   10.15
  -2  -1   7  119.57   11.62
  -2   1   7  107.69   11.41
   2   1   7  119.32   11.47
   2  -1   8 1054.38   37.15
  -2   1   8 1120.69   35.31
  -2   1   8 1073.24   37.46
  -2  -1   8 1012.32   36.73
  -2  -1   8 1096.97   32.73
   2   1   9    1.15    1.82
  -2   1   9    2.28    1.81
  -2  -1   9    4.37    1.89
   2  -1   9   -0.19    1.45
   2   1   9    4.37    2.16
  -2  -1   9    2.86    3.13
  -2  -1  10  603.67   27.65
   2  -1  10  619.49   30.45
  -2   1  10  581.50   28.20
  -2   1  10  614.88   30.81
  -2  -1  10  601.99   30.73
   2   1  10  631.89   30.30
   2   1  10  580.11   28.30
  -2  -1  11    1.60    1.56
   2  -1  11   -0.47    2.10
  -2  -1  11   -0.52    1.51
   2   1  11    0.61    1.13
  -2   1  11   -0.67    1.92
   2   1  11   -2.18    2.88
  -2   1  11    1.64    2.43
  -2   1  12 1840.29   57.22
  -2  -1  12 1567.29   53.56
   2  -1  12 1624.45   53.34
   2   1  12 1652.97   53.25
  -2  -1  12 1570.27   49.95
   2   1  12 1758.71   55.85
   2  -1  12 1730.40   54.66
  -2   1  12 1746.66   53.46
  -2  -1  13    1.31    2.73
   2   1  13    2.41    3.57
  -2   1  13    4.93    1.83
   2   1  13    0.42    2.26
  -2  -1  13    0.51    2.86
   2  -1  13    2.39    1.07
  -2   1  13   -1.23    0.88
   2  -1  13    1.94    2.92
  -2  -1  14  815.01   41.22
   2  -1  14  879.79   41.40
  -2  -1  14  764.39   37.31
  -2   1  14  828.22   39.59
   2  -1  14  817.52   40.88
  -2   1  14  764.47   39.83
   2   1  14  914.53   42.23
   2   1  14  871.38   42.02
  -2  -1  15  379.42   26.81
   2   1  15  371.80   28.01
   2  -1  15  396.14   28.38
  -2   1  15  423.20   30.40
  -2  -1  15  383.97   29.38
   2  -1  15  375.48   28.41
  -2   1  15  347.16   27.17
  -2   1  16   61.31   10.89
   2  -1  16   74.70   13.22
  -2  -1  16   75.90   13.49
  -2  -1  16   72.28   12.33
  -2   1  16   85.31   13.85
   2   1  16   72.78   12.70
   2  -1  16   95.94   14.77
   2   1  16  112.04   15.53
   2  -1  17   52.97   12.18
  -2  -1  17   42.82    9.77
   2  -1  17   57.05   11.80
  -2  -1  17   45.38   10.72
   2   1  17   59.43   12.21
  -2   1  17   43.75   10.36
   2   1  17   49.99   11.12
  -2   1  17   42.19   10.14
  -2   1  18  935.51   49.14
   2   1  18  945.06   48.52
   2  -1  18  996.41   50.24
   2   1  18  885.12   46.28
  -2  -1  18 1113.74   52.94
   2  -1  18  964.03   48.70
  -2  -1  18  965.61   47.70
  -2   1  18  954.40   48.17
  -2  -1  19    0.63    4.17
  -2   1  19    2.72    5.43
   2  -1  19   -0.53    0.60
  -2  -1  19   -0.79    2.01
   2   1  19   -0.76    2.78
   2   1  19   -3.08    5.52
  -2   1  19   -1.24    5.70
   2  -1  19   -1.54    2.35
  -2  -1  20   55.12   12.48
   2  -1  20   74.15   14.90
   2   1  20   85.66   15.69
   2  -1  20   69.88   14.33
   2   1  20   61.03   12.88
  -2   1  20   67.17   13.52
  -2  -1  20   72.14   13.70
  -2   1  20   51.90   11.90
  -2  -1  21   41.83   12.47
   2   1  21   52.42   11.81
  -2   1  21   54.52   13.17
  -2  -1  21   42.24   10.82
   2  -1  21   45.61    9.96
  -2   1  21   50.94   13.36
   2   1  21   36.13    7.86
   2  -1  21   45.58   13.01
  -2   1  22  193.19   24.22
   2   1  22  179.67   22.03
  -2  -1  22  213.19   24.55
  -2   1  22  190.57   23.47
   2  -1  22  193.65   23.78
  -2  -1  22  214.98   24.92
   2   1  22  189.93   24.18
   2  -1  22  190.20   23.94
  -2   1  23   37.91   10.30
   2  -1  23   36.05   11.06
  -2  -1  23   36.47   11.32
   2   1  23   30.14    8.70
   2  -1  23   40.29   10.74
  -2   1  23   44.24   11.68
   2   1  23   33.75   11.08
  -2  -1  23   27.39    9.31
   2  -1  24   17.68    7.35
  -2   1  24   24.71    8.40
  -2   1  24    8.03    5.39
   2  -1  24   26.53    8.39
   2   1  24   31.97   10.13
  -2  -1  24   23.60    8.87
  -2  -1  24   31.25    9.82
   2   1  24   17.94    8.23
  -2  -1  25   71.47   14.09
   2   1  25   71.38   15.93
   2   1  25   85.47   16.80
  -2   1  25   84.37   16.65
   2  -1  25   96.63   17.54
  -2   1  25  114.37   19.52
   2  -1  25   61.77   14.53
  -2  -1  25  106.07   19.27
   2  -1  26  231.96   27.49
  -2  -1  26  230.39   28.34
  -2   1  26  240.98   28.16
   2   1  26  260.66   29.56
  -2   1  26  248.03   29.51
   2   1  26  201.63   26.38
  -2  -1  26  262.82   29.99
   2  -1  26  230.75   28.31
  -2   1  27   28.11   10.23
  -2  -1  27   26.14    9.06
   2   1  27   19.32    5.58
   2  -1  27   29.90   10.57
  -2  -1  27   28.29   10.68
   2   1  27   42.33   11.50
  -2   1  27   41.60   13.08
   2  -1  27   43.30   12.23
   2   1  28  184.05   25.25
   2  -1  28  243.63   29.78
  -2   1  28  178.79   25.96
  -2   1  28  174.95   24.35
   2  -1  28  237.01   29.10
  -2  -1  28  277.27   31.52
  -2  -1  28  181.66   25.89
   2   1  28  250.71   30.22
  -2   1  29  114.71   20.88
   2  -1  29   84.06   17.25
  -2  -1  29   80.37   17.62
  -2   1  29  133.89   22.41
   2  -1  29  102.47   20.97
   2   1  29  124.54   22.30
  -2  -1  29   78.49   17.25
   2   1  29  137.40   22.18
  -2   1  30   11.53    8.16
  -2   1  30   -0.45    4.90
   2  -1  30    1.89    4.21
   2   1  30   -1.30    4.84
   2  -1  30   10.80    4.66
  -2  -1  30   15.50    9.31
  -2  -1  30    6.51    4.75
   2   1  30   19.57    9.16
   2  -1  31    0.55    2.27
  -2   1  31    2.99    5.05
   2   1  31    9.24    7.96
  -2  -1  31    4.14    6.36
  -2   1  31    3.52    7.59
   2   1  31    7.49    4.60
  -2  -1  31    6.66    8.66
   2  -1  31    4.37    2.37
   2  -1  32   40.02   12.41
  -2   1  32   46.18   11.26
  -2  -1  32   23.07    7.22
   2   1  32   33.27    9.63
  -2   1  32   45.39   13.74
   2   1  32   46.30   12.24
   2  -1  32   46.64   11.42
  -2  -1  32   50.40   14.45
  -2   2   0 1451.99   38.44
  -2  -2   0 1317.84   30.62
   2  -2   0 1410.88   26.44
   2   2   0 1361.82   18.18
   2  -2   0 1321.56   33.48
   2  -2  -1  216.15   13.18
  -2   2   1  235.38   15.40
   2  -2   1  207.52   13.39
   2   2   1  215.00    8.99
   2  -2  -1  211.22   10.83
  -2   2  -1  198.15   13.67
  -2  -2   1  227.40    9.45
  -2  -2   1  235.78   13.14
  -2  -2  -1  205.13   11.70
   2  -2   1  205.14   10.37
   2  -2  -2    1.06    0.96
  -2   2   2    0.71    0.61
   2  -2   2   -0.51    1.46
   2   2   2   -0.30    0.90
  -2  -2   2    3.42    1.58
  -2  -2   2    0.45    0.84
   2  -2   2    1.99    1.53
   2  -2  -2    1.06    1.86
  -2  -2  -2   -1.03    1.64
   2  -2  -3 3246.45   48.95
  -2  -2   3 3375.34   31.48
   2  -2   3 3244.88   55.28
  -2   2   3 3392.63   57.74
   2  -2   3 3402.26   44.81
  -2   2   3 3410.73   53.95
  -2  -2   3 3490.34   45.77
   2   2   3 3148.78   45.05
  -2  -2   3 3438.15   53.95
  -2  -2   4 2297.21   46.61
  -2  -2   4 2442.79   32.01
  -2  -2  -4 2385.35   43.35
  -2   2   4 2312.19   46.20
  -2   2   4 2355.34   48.82
  -2  -2   4 2405.91   42.28
   2  -2   4 2272.02   38.91
   2   2   4 2374.01   41.96
   2  -2   4 2341.08   47.57
   2   2   5 1600.76   37.19
  -2  -2   5 1462.20   28.79
   2  -2   5 1607.30   41.32
  -2   2   5 1581.11   41.50
  -2  -2   5 1566.29   37.64
  -2  -2   5 1584.71   40.52
  -2   2   5 1516.13   39.12
  -2  -2   6  479.48   18.36
   2   2   6  426.46   19.09
   2  -2   6  471.06   23.62
  -2  -2   6  427.74   20.87
  -2  -2   6  462.53   22.77
   2   2   6  444.11   20.73
  -2   2   6  445.45   21.78
   2  -2   6  392.18   18.44
  -2  -2  -6  404.26   20.17
  -2  -2   7  572.37   21.80
   2   2   7  616.17   24.08
  -2   2   7  569.48   27.05
   2  -2   7  584.59   27.56
   2  -2   7  689.03   25.53
  -2  -2   7  627.70   26.76
  -2   2   7  588.63   25.98
   2   2   7  582.50   25.38
  -2  -2   7  584.56   26.29
  -2  -2   8    0.79    2.96
   2  -2   8    2.99    1.41
  -2  -2   8    1.45    2.16
   2   2   8    0.56    1.12
  -2   2   8   -0.95    2.11
  -2   2   8    0.17    1.75
   2  -2   8    2.67    2.24
  -2  -2   8   -1.46    3.05
   2   2   8    0.43    0.72
  -2  -2   9   31.01    5.60
  -2  -2   9   25.73    5.93
   2   2   9   24.39    5.58
  -2  -2   9   32.65    6.87
  -2   2   9   33.27    6.77
   2   2   9   21.13    5.02
  -2   2   9   46.95    8.26
   2  -2   9   30.53    6.53
  -2   2  10    6.54    2.03
   2   2  10    5.65    3.74
  -2   2  10   11.33    3.78
   2   2  10   11.65    4.25
  -2  -2  10   12.25    4.30
  -2  -2  10   16.31    4.69
   2  -2  10    6.03    3.84
  -2  -2  11  462.59   25.44
   2  -2  11  464.95   27.62
  -2   2  11  480.62   28.41
   2   2  11  442.74   27.32
  -2  -2  11  476.29   28.52
  -2   2  11  450.19   26.63
  -2   2  12    5.46    4.41
  -2  -2  12    9.89    4.35
   2   2  12    6.81    3.19
  -2  -2  12    4.42    3.32
  -2   2  12    5.44    1.40
   2  -2  12    3.77    1.60
   2   2  12    5.07    3.62
  -2   2  13 1531.49   52.91
   2   2  13 1560.22   53.82
  -2  -2  13 1549.74   51.08
   2  -2  13 1491.51   54.03
  -2  -2  13 1496.49   54.45
   2   2  13 1596.11   53.11
  -2   2  13 1538.15   54.25
  -2   2  14    9.10    2.74
   2   2  14   12.65    5.06
  -2  -2  14   13.61    5.17
  -2   2  14   10.47    5.53
   2  -2  14    2.10    1.96
  -2  -2  14   10.28    3.81
   2   2  14   11.54    6.09
   2  -2  14   10.16    3.50
   2   2  15   16.74    5.93
  -2  -2  15   36.39    8.47
   2  -2  15   21.50    6.54
   2   2  15   20.71    5.57
  -2  -2  15   30.62    8.77
  -2   2  15   22.70    5.53
   2  -2  15   23.38    6.30
  -2   2  15   30.25    6.79
   2   2  16   72.69   12.37
  -2  -2  16   81.07   12.85
   2  -2  16   75.38   13.29
  -2   2  16   64.34   12.50
   2  -2  16   83.66   12.60
  -2   2  16   77.83   13.30
   2   2  16   80.53   13.26
  -2  -2  16   68.33   13.38
  -2  -2  17   -0.44    1.44
   2   2  17    1.27    2.52
  -2   2  17    0.53    2.50
   2  -2  17   -1.03    3.85
   2  -2  17    0.64    3.20
   2   2  17    1.15    3.94
  -2  -2  17   -1.53    3.04
  -2   2  17   -0.61    0.86
  -2  -2  18   32.03    9.27
   2  -2  18   30.79    8.74
   2  -2  18   28.04    8.75
  -2  -2  18   30.44    9.01
  -2   2  18   38.13    9.16
  -2   2  18   44.91   10.68
   2   2  18   39.81    9.70
   2   2  18   38.09    8.77
   2  -2  19   43.95   10.30
  -2  -2  19   50.15   11.21
   2   2  19   73.18   14.16
   2  -2  19   37.50   10.10
   2   2  19   44.43   10.85
  -2   2  19   54.93   12.85
  -2  -2  19   57.58   13.46
  -2   2  19   48.84   12.02
  -2   2  20    3.27    4.75
   2  -2  20   -0.59    4.07
  -2  -2  20    1.84    2.18
   2   2  20    2.29    3.98
   2   2  20    0.89    4.21
   2  -2  20    2.59    4.31
  -2   2  20    5.12    2.84
  -2  -2  20    1.46    3.63
  -2  -2  21   85.83   14.52
  -2  -2  21   88.89   16.04
   2  -2  21   52.00   13.34
   2   2  21   76.74   14.60
  -2   2  21   80.48   15.04
   2  -2  21   78.86   15.13
   2   2  21   83.02   15.32
  -2   2  21   59.37   11.70
  -2   2  22   42.56   10.36
   2   2  22   29.25   10.13
  -2   2  22   66.02   13.84
  -2  -2  22   40.37   10.14
   2   2  22   56.57   13.84
   2  -2  22   59.96   12.81
   2  -2  22   35.13   12.25
  -2  -2  22   50.02   12.71
  -2   2  23    5.48    4.40
   2  -2  23    3.35    4.74
   2  -2  23    3.53    3.71
   2   2  23    4.28    4.42
  -2  -2  23   -0.04    1.09
   2   2  23    3.84    7.22
  -2  -2  23    9.44    9.71
  -2   2  23    0.11    3.19
  -2   2  24    8.93    3.45
  -2  -2  24   -1.49    3.89
   2   2  24    0.69    3.74
   2   2  24    0.04    6.09
   2  -2  24    2.28    2.80
  -2  -2  24   -3.22    6.30
   2  -2  24   -2.52    4.75
  -2   2  24    2.96    5.00
  -2   2  25   -3.48    5.58
  -2  -2  25   -4.16    5.38
   2  -2  25    3.80    3.39
   2   2  25    5.43    6.13
   2  -2  25    0.46    2.81
  -2   2  25   -2.10    3.87
   2   2  25   -1.83    2.33
  -2  -2  25   -1.47    4.07
  -2   2  26   14.47    5.73
   2   2  26    6.21    3.71
  -2  -2  26   26.53    9.48
  -2  -2  26   14.05    7.44
   2  -2  26   10.41    7.56
   2   2  26    3.64    6.26
  -2   2  26   11.38    7.87
   2  -2  26    4.25    3.30
   2  -2  27   20.26    8.15
   2   2  27   25.94   10.90
  -2   2  27   17.81    7.63
  -2  -2  27    6.03    4.72
   2  -2  27   36.51   11.13
   2   2  27   31.67   10.85
  -2   2  27   18.49    7.90
  -2  -2  27   22.38    6.86
   2  -2  28    5.72    6.09
  -2  -2  28   -2.85    5.97
   2   2  28    4.40    4.49
   2   2  28    1.31    5.04
   2  -2  28   -5.45    7.30
  -2   2  28   12.40   10.16
  -2   2  28    8.36    3.72
  -2  -2  28    9.74    6.88
   2   2  29   38.61   13.04
  -2  -2  29   30.42    9.50
  -2  -2  29   24.11   10.05
   2  -2  29   39.90   11.73
  -2   2  29   20.70    9.52
   2   2  29    9.39    3.84
  -2   2  29   37.22   12.98
   2  -2  29   38.55   12.01
  -2   2  30    8.68    7.42
   2   2  30   -3.69    5.74
  -2  -2  30    6.56    8.21
   2   2  30    7.40    6.01
  -2   2  30    5.37    4.88
  -2  -2  30    3.92    3.33
   2  -2  30    3.03    2.51
   2  -2  30    1.12    2.89
  -2   2  31    2.19    3.74
   2   2  31    7.57    2.47
   2  -2  31    3.62    6.92
  -2   2  31    5.71    1.22
  -2  -2  31    2.92    9.65
   2  -2  31   17.07    9.38
   2   2  31   10.55    5.54
  -2  -2  31    9.93    6.31
  -2  -2  32    6.51    4.90
  -2  -2  32    2.86    3.57
   2  -2  32    1.87    3.26
   2  -2  32    0.94    4.08
   2   2  32    2.15    3.19
  -2   2  32   -4.39    6.37
   2   2  32   -5.75    6.32
  -2   2  32    1.41    6.12
  -2  -3   0  915.61   29.67
   2  -3   0  976.04   27.41
  -2   3   0  964.10   33.70
   2  -3   0  954.42   32.43
   2  -3  -1  465.27   19.39
   2  -3   1  489.14   23.59
   2   3   1  459.29   15.75
  -2  -3   1  487.19   11.85
   2  -3  -1  498.41   23.21
  -2   3   1  491.55   24.01
   2  -3   1  481.94   19.74
  -2  -3   1  489.86   15.09
  -2  -3  -1  483.73   21.72
  -2  -3   1  525.74   23.14
  -2   3   2   20.31    5.12
   2  -3   2   27.35    4.86
   2  -3  -2   17.84    4.22
   2  -3   2   24.16    5.33
  -2  -3   2   22.17    4.87
  -2  -3   2   19.81    3.11
  -2  -3  -2   21.33    4.61
   2  -3  -2   19.01    4.37
   2   3   2   20.94    3.70
  -2  -3   2   22.94    2.93
   2  -3   3  119.19   10.27
   2  -3   3   90.85    9.81
   2  -3  -3  114.49   10.40
  -2  -3   3  108.47    7.98
  -2  -3   3  102.63   10.60
   2   3   3  107.75    5.82
   2   3   3   94.94    8.31
  -2   3   3  123.04   12.00
  -2  -3   3  106.08    7.27
  -2  -3   4   27.13    5.72
   2  -3   4   28.36    4.97
  -2  -3   4   24.29    3.71
  -2  -3  -4   19.24    4.61
   2  -3  -4   27.10    5.57
  -2  -3   4   25.58    4.29
   2   3   4   28.34    3.64
  -2   3   4   18.93    4.80
   2   3   4   20.82    4.37
   2  -3   4   26.28    5.52
  -2   3   4   14.05    4.16
  -2  -3  -5  156.45   13.06
   2  -3  -5  164.79   13.56
  -2  -3   5  162.22   14.08
   2  -3   5  164.28   12.64
  -2  -3   5  179.72   10.99
  -2   3   5  158.79   13.83
  -2  -3   5  180.78   12.70
   2   3   5  176.87   10.34
  -2   3   5  155.15   13.36
   2   3   5  147.21   12.10
   2  -3   5  148.22   13.50
  -2   3   6  294.04   19.57
   2  -3   6  286.29   19.04
   2   3   6  322.88   15.95
  -2  -3  -6  248.01   17.02
  -2  -3   6  292.79   14.91
  -2   3   6  304.64   19.98
   2   3   6  272.59   17.46
  -2  -3   6  309.05   17.95
   2  -3   6  289.50   17.56
  -2  -3   6  316.61   20.38
  -2  -3   7   25.93    5.90
   2   3   7   22.23    4.67
   2  -3   7   31.29    6.88
  -2   3   7   16.83    4.49
   2   3   7   17.14    4.63
  -2  -3  -7   17.83    4.83
   2  -3   7   32.66    6.27
  -2  -3   7   22.79    5.40
  -2  -3   7   21.02    4.11
  -2   3   7   24.75    5.85
  -2  -3   8  614.97   24.86
  -2   3   8  576.53   28.71
  -2   3   8  522.98   27.02
   2  -3   8  596.80   29.57
  -2  -3   8  612.00   27.82
   2   3   8  576.35   24.73
  -2  -3  -8  591.33   28.59
   2  -3   8  612.33   27.78
   2   3   8  604.64   29.13
  -2  -3   8  579.03   29.43
  -2  -3  -9  284.44   20.60
   2  -3   9  295.67   22.04
  -2  -3   9  315.70   21.12
  -2   3   9  303.85   21.85
  -2  -3   9  292.34   18.55
  -2   3   9  319.48   22.21
   2  -3   9  311.81   20.00
   2   3   9  323.70   19.41
   2   3   9  368.00   23.78
  -2  -3   9  354.27   23.39
  -2   3  10  127.09   15.12
  -2   3  10  108.53   13.32
  -2  -3  10  111.07   13.49
  -2  -3  10  121.89   12.43
   2   3  10  141.16   13.35
  -2  -3  10   95.28   12.51
   2   3  10  120.73   14.31
   2  -3  10  117.83   12.44
   2  -3  11  372.22   25.31
  -2   3  11  350.52   24.61
  -2  -3  11  355.67   22.28
  -2   3  11  353.71   25.13
   2   3  11  365.92   25.54
  -2  -3  11  368.01   25.42
   2  -3  11  359.73   23.30
   2   3  11  365.54   23.05
  -2  -3  11  299.55   23.23
  -2   3  12    2.05    0.88
  -2  -3  12    2.28    2.00
   2   3  12    8.63    4.33
  -2  -3  12    3.31    2.97
  -2   3  12    1.93    3.41
   2   3  12    4.87    2.81
   2  -3  12    2.33    2.78
  -2  -3  12    2.25    2.27
  -2   3  13   83.42   12.37
  -2   3  13   83.56   12.63
   2   3  13   88.47   12.31
   2  -3  13   64.52   11.54
   2   3  13   69.42   11.88
  -2  -3  13   84.03   12.13
  -2  -3  13   76.86   11.76
  -2  -3  14    6.06    4.05
   2  -3  14    6.15    4.65
  -2  -3  14    2.81    2.97
  -2   3  14   10.73    4.48
   2   3  14   -0.19    0.57
  -2   3  14    5.30    4.96
   2   3  14    0.24    0.98
  -2  -3  15   81.77   13.02
  -2  -3  15   66.71   11.86
   2  -3  15   90.25   14.42
   2  -3  15   88.75   14.63
  -2   3  15   89.08   14.18
   2   3  15   83.98   12.64
  -2   3  15   80.60   13.44
   2   3  15   95.02   15.07
  -2  -3  16   -0.01    1.77
  -2   3  16    1.07    3.70
  -2   3  16    1.46    0.90
   2   3  16   -1.54    0.47
   2  -3  16    1.06    1.86
   2  -3  16    3.05    3.56
  -2  -3  16    1.12    3.52
   2   3  16    0.21    3.40
  -2  -3  17  272.25   26.81
   2   3  17  215.99   22.07
   2  -3  17  282.26   26.29
   2  -3  17  256.16   25.05
  -2  -3  17  279.33   25.60
  -2   3  17  272.37   25.74
  -2   3  17  247.17   24.57
   2   3  17  266.52   24.89
   2  -3  18   79.33   13.89
  -2  -3  18   94.31   15.17
  -2   3  18   62.60   12.27
  -2  -3  18   94.98   16.12
  -2   3  18   86.62   14.57
   2  -3  18  106.92   16.51
   2   3  18   76.00   13.63
   2   3  18  107.85   16.26
  -2   3  19  194.33   22.74
   2   3  19  188.17   21.91
  -2  -3  19  207.62   22.92
   2   3  19  209.14   23.34
   2  -3  19  200.85   22.65
  -2   3  19  187.85   22.48
  -2  -3  19  224.47   25.49
   2  -3  19  164.47   21.41
   2   3  20   52.98   12.41
  -2   3  20   25.57    8.02
  -2   3  20   25.32    7.90
   2  -3  20   39.48   10.72
  -2  -3  20   22.51    7.52
  -2  -3  20   28.26    9.03
   2   3  20   37.29   10.27
   2  -3  20   42.58   11.38
  -2   3  21    5.27    5.41
   2   3  21    5.66    3.17
   2   3  21    4.71    5.25
  -2  -3  21   14.52    4.77
  -2  -3  21    5.61    4.48
   2  -3  21    1.27    1.52
  -2   3  21    5.55    4.36
   2  -3  21   -0.67    4.26
  -2   3  22   49.72   12.14
  -2   3  22   54.94   12.07
   2  -3  22   66.49   14.59
  -2  -3  22   43.81   11.46
  -2  -3  22   73.38   15.25
   2   3  22   64.28   13.88
   2   3  22   71.87   15.46
   2  -3  22   78.99   16.97
   2  -3  23    3.71    5.12
   2   3  23    2.76    4.85
   2  -3  23    2.41    3.23
  -2   3  23    3.28    5.33
  -2   3  23    4.82    4.24
  -2  -3  23    3.55    2.44
  -2  -3  23    1.94    3.74
   2   3  23    0.59    5.31
   2   3  24   16.01    8.12
   2   3  24   15.53    7.96
  -2  -3  24    5.15    2.20
  -2   3  24    7.58    7.24
   2  -3  24    8.75    8.19
   2  -3  24    9.91    6.82
  -2   3  24   12.15    8.38
  -2  -3  24    9.79    5.56
   2  -3  25  137.97   21.75
   2   3  25  183.79   25.31
   2  -3  25  161.42   23.30
  -2   3  25  139.11   20.95
  -2  -3  25  151.70   22.99
  -2  -3  25  147.90   22.02
  -2   3  25  130.09   20.66
   2   3  25  165.49   23.67
  -2  -3  26    4.08    4.70
   2   3  26    2.56    2.50
   2   3  26   -0.70    1.15
  -2   3  26   -3.18    2.00
  -2  -3  26    2.72    0.41
  -2   3  26    3.46    0.55
   2  -3  26    8.14    7.12
   2  -3  26   -2.82    1.55
   2  -3  27   22.16    9.70
  -2   3  27    7.54    5.56
  -2  -3  27    5.45    4.61
   2  -3  27   13.60    7.06
  -2  -3  27   14.40    7.26
   2   3  27   10.70    5.66
  -2   3  27   11.84    8.18
   2   3  27    8.88    8.37
  -2   3  28   40.48   11.24
   2  -3  28   42.28   12.03
  -2  -3  28   40.07   12.96
   2   3  28   28.22   10.49
  -2   3  28   16.84    7.34
   2   3  28   25.42   10.76
  -2  -3  28   27.37    9.96
   2  -3  28   25.97   10.13
   2  -3  29   60.44   15.21
  -2  -3  29   81.48   17.70
  -2   3  29   95.45   19.23
  -2   3  29   98.27   19.24
   2  -3  29   79.92   17.58
  -2  -3  29   74.81   16.53
   2   3  29  114.85   20.36
   2   3  29   78.55   17.34
  -2   3  30   12.05    6.53
  -2   3  30   20.67   10.14
   2  -3  30    8.28    5.04
   2   3  30    7.96    9.96
  -2  -3  30    3.89    2.25
   2  -3  30   11.51    6.34
   2   3  30   25.32   12.29
  -2  -3  30   24.60   10.53
  -2   3  31   70.78   15.84
   2   3  31   56.43   17.07
  -2  -3  31   58.35   15.27
   2   3  31   64.98   16.00
  -2   3  31   56.13   14.21
   2  -3  31   67.15   17.42
   2  -3  31   47.76   14.18
  -2  -3  31   63.53   16.44
  -2  -4   0    0.85    1.54
   2  -4   0    3.57    1.52
   2  -4   0    3.70    1.96
  -2   4   0    1.75    0.81
  -2  -4   0    2.91    3.00
   2  -4   1    6.46    2.93
  -2  -4   1    2.33    2.01
  -2  -4   1    1.93    1.78
  -2  -4  -1    7.30    3.87
   2  -4   1    6.42    2.64
  -2   4   1    4.69    1.22
   2  -4  -1    4.95    2.26
   2  -4  -1    1.91    2.99
   2  -4  -2   96.29   11.04
  -2  -4  -2   73.60    9.57
  -2   4   2   82.54   10.35
   2  -4   2   95.83   10.14
   2  -4  -2   83.69    9.46
   2  -4   2   96.75   11.39
   2   4   2   73.33    7.65
  -2  -4   2   76.95    5.60
  -2  -4   2   81.85    7.99
  -2  -4   2   83.68   10.84
   2  -4  -3   93.63   10.31
  -2  -4   3  111.23   12.33
  -2  -4  -3  107.17   11.24
   2  -4   3   98.91   11.48
   2  -4  -3  101.25   11.56
  -2   4   3   90.10   11.23
  -2  -4   3  112.39    8.17
   2  -4   3  108.06   11.34
   2   4   3  100.57    9.72
  -2  -4   3  116.23    9.38
  -2   4   4  329.05   20.73
  -2  -4   4  315.27   20.78
   2  -4   4  360.70   20.64
   2   4   4  289.19   17.32
   2  -4   4  336.90   21.29
  -2  -4  -4  331.13   20.80
   2  -4  -4  340.77   20.74
   2   4   4  342.22   11.20
  -2  -4   4  313.87   15.45
  -2  -4   4  325.34   16.33
   2  -4   5   47.87    7.86
  -2  -4   5   25.09    5.19
   2   4   5   35.91    4.38
  -2  -4  -5   36.90    7.10
   2  -4   5   42.14    7.97
  -2  -4   5   29.30    5.05
  -2   4   5   31.90    6.95
   2  -4  -5   39.78    7.16
  -2   4   5   26.05    6.24
  -2  -4   5   29.16    6.71
   2   4   5   40.97    6.76
  -2  -4   6  541.61   28.85
   2  -4   6  605.54   28.07
  -2  -4  -6  472.35   25.81
   2  -4  -6  531.19   27.38
  -2   4   6  521.32   26.71
  -2  -4   6  554.60   22.79
  -2   4   6  546.38   27.88
  -2  -4   6  563.07   24.37
   2   4   6  539.86   25.82
   2   4   6  552.98   19.95
   2  -4   6  512.74   27.43
  -2  -4   7  269.12   20.98
   2  -4   7  298.44   20.44
  -2  -4   7  331.98   19.59
  -2   4   7  284.84   20.40
   2  -4  -7  332.03   22.63
  -2   4   7  313.18   21.83
  -2  -4   7  299.89   17.65
   2   4   7  298.15   19.86
   2  -4   7  330.66   22.39
  -2  -4  -7  251.70   19.45
   2  -4   8  791.87   34.25
  -2  -4  -8  756.80   34.74
  -2   4   8  811.35   36.33
  -2  -4   8  917.98   39.12
  -2   4   8  789.93   35.26
  -2  -4   8  805.81   32.76
   2  -4   8  730.19   35.78
  -2  -4   8  779.46   29.62
   2   4   8  893.99   35.92
   2  -4  -9  176.02   17.57
  -2   4   9  148.03   15.69
   2   4   9  172.67   14.07
  -2  -4  -9  138.49   15.62
   2  -4   9  164.24   16.56
  -2   4   9  190.09   17.94
   2  -4   9  154.93   15.23
  -2  -4   9  130.75   12.40
   2   4   9  155.69   15.36
  -2  -4   9  164.71   16.84
  -2  -4   9  174.55   15.88
   2   4  10  311.99   20.46
  -2   4  10  300.85   22.86
  -2  -4  10  303.04   20.49
  -2   4  10  312.60   23.38
   2  -4  10  311.97   24.19
  -2  -4  10  322.80   22.85
   2   4  10  326.59   23.56
  -2  -4 -10  316.48   23.54
   2  -4  10  279.14   21.03
  -2  -4  10  291.53   23.03
  -2  -4  11   -0.63    2.03
   2  -4  11   -0.32    0.72
   2  -4  11    0.53    3.77
   2   4  11    2.21    0.99
  -2   4  11   -2.14    2.63
  -2  -4 -11    6.50    4.07
  -2  -4  11    3.03    2.28
  -2  -4  11    2.97    2.80
   2   4  11    0.23    1.57
  -2   4  11   -1.43    2.02
  -2   4  12   26.50    7.69
   2  -4  12   20.94    5.86
   2  -4  12    8.81    4.82
   2   4  12   20.86    5.80
  -2  -4  12   22.86    6.90
  -2  -4 -12    2.75    5.84
  -2  -4  12   15.54    5.45
  -2   4  12   10.61    4.68
   2   4  12   13.84    5.22
  -2  -4  12   20.58    5.65
  -2   4  13    7.34    2.88
   2  -4  13   10.15    4.45
   2   4  13    3.07    1.66
  -2  -4  13    3.38    1.65
   2   4  13   11.78    3.41
  -2  -4  13    2.12    2.60
   2  -4  13    8.29    4.30
  -2  -4 -13    3.51    2.55
  -2   4  13    5.28    4.44
  -2  -4  13    5.96    4.34
  -2  -4  14   78.28   12.80
  -2  -4  14   96.99   13.32
   2   4  14   69.99   12.20
  -2   4  14   92.45   13.84
  -2   4  14   92.57   14.27
   2  -4  14   69.98   12.24
   2   4  14   97.85   13.43
  -2  -4  14   84.02   13.12
   2   4  15  222.08   22.26
   2   4  15  235.48   22.03
  -2   4  15  269.14   24.92
  -2  -4  15  218.74   21.83
  -2   4  15  239.31   23.46
  -2  -4  15  203.62   20.08
  -2   4  16   49.04   10.29
   2  -4  16   42.39   10.06
   2   4  16   55.75   11.86
  -2   4  16   56.53   11.57
   2   4  16   57.49   11.06
   2  -4  16   73.86   12.63
  -2  -4  16   41.52    9.65
  -2  -4  16   62.80   11.19
  -2   4  17   -0.72    1.24
  -2  -4  17    2.53    2.84
   2  -4  17    3.00    3.19
   2   4  17   -0.37    2.52
  -2   4  17    1.84    3.85
   2   4  17   -3.09    5.49
  -2  -4  17    1.44    3.61
   2  -4  17    1.46    1.77
  -2   4  18   11.98    6.09
   2   4  18    4.65    4.12
  -2  -4  18    7.41    5.47
   2   4  18    3.17    2.02
  -2   4  18   -2.88    4.77
   2  -4  18    4.63    3.81
  -2  -4  18   11.77    5.03
   2  -4  18   16.69    6.39
  -2   4  19    1.75    4.94
   2   4  19   -2.16    3.73
  -2  -4  19    0.76    1.28
  -2  -4  19   -0.75    3.42
   2  -4  19    1.31    4.92
  -2   4  19    2.66    4.69
   2  -4  19    2.65    6.84
   2   4  19    1.01    2.19
  -2  -4  20  121.19   18.74
  -2   4  20  101.75   17.14
   2  -4  20  111.02   18.23
  -2  -4  20   70.78   14.12
   2  -4  20   91.48   16.50
   2   4  20  114.82   17.99
   2   4  20  126.97   19.84
  -2   4  20   90.99   17.55
   2  -4  21    2.73    4.14
   2  -4  21   -0.98    2.33
   2   4  21    2.40    5.44
  -2  -4  21    6.19    4.73
  -2   4  21    3.02    3.35
   2   4  21    1.48    3.06
  -2  -4  21    4.01    3.88
  -2   4  21    2.54    0.63
  -2   4  22   59.21   12.52
  -2   4  22   38.83   11.30
  -2  -4  22   52.73   12.28
   2  -4  22   25.06    9.54
   2   4  22   31.45    9.22
  -2  -4  22   43.99   12.81
   2  -4  22   55.32   11.67
   2   4  22   46.10   11.95
   2   4  23   20.82    7.25
  -2   4  23    0.13    1.97
  -2  -4  23    4.60    2.10
   2  -4  23   10.59    6.18
  -2   4  23    8.50    5.73
  -2  -4  23    6.19    2.03
   2  -4  23    5.02    5.01
   2   4  23    8.50    7.23
   2   4  24   23.48    7.05
  -2   4  24   19.11    7.52
  -2  -4  24   14.95    7.43
   2  -4  24   23.32    9.61
  -2   4  24   26.76    9.49
   2   4  24   14.89    6.05
   2  -4  24    9.01    5.75
  -2  -4  24   22.58    9.46
   2  -4  25   30.23    9.90
  -2   4  25   24.13    7.96
  -2  -4  25   39.49   12.38
  -2  -4  25   32.82    9.87
   2  -4  25   25.63    9.59
  -2   4  25   49.02   12.42
   2   4  25   44.49   12.52
   2   4  25   48.64   13.14
  -2   4  26    3.53    4.85
  -2   4  26    4.05    5.49
  -2  -4  26   -3.57    2.45
   2  -4  26   -1.53    4.29
   2   4  26   -4.00    4.25
   2  -4  26    4.74    5.23
   2   4  26    4.29    5.63
  -2  -4  26   -4.67    8.01
  -2   4  27   10.17    8.10
   2   4  27    8.85    7.18
  -2   4  27   24.24   10.46
  -2  -4  27   14.62    8.55
   2  -4  27    9.31    1.15
   2  -4  27   22.69    9.79
  -2  -4  27    6.39    0.96
   2   4  27   12.30    9.51
  -2   4  28   24.93    9.98
   2   4  28   14.17    7.45
  -2  -4  28   24.13   10.48
   2  -4  28   24.33    9.65
  -2   4  28   25.01   11.65
   2   4  28   16.89    8.77
  -2  -4  28   14.51    7.95
   2  -4  28   13.67    4.52
  -2   4  29    4.24    6.44
   2   4  29    0.08    4.00
  -2   4  29   -1.01    5.71
  -2  -4  29    0.21    4.21
   2  -4  29   -7.16    4.52
   2  -4  29   -5.13    6.11
   2   4  29    2.59    4.99
  -2  -4  29    6.81    7.34
  -2  -4  30    6.17    6.83
   2  -4  30    8.36    8.45
   2   4  30    3.09    1.01
   2   4  30   -0.05    5.81
   2  -4  30   -0.78    3.70
  -2   4  30    3.09    4.01
  -2  -4  30   -2.50    6.31
  -2   4  30   -2.40    7.35
  -2   4  31    6.89    6.43
  -2   4  31    0.47    5.88
   2   4  31   10.62    3.80
  -2  -4  31   -0.31    1.96
   2  -4  31    2.17    4.97
   2   4  31    0.65    2.58
  -2  -4  31   -1.69    6.29
   2  -4  31   -1.63    3.97
  -2  -5   0 3316.12   58.75
  -2  -5   0 3421.37   72.17
   2  -5   0 3184.43   66.70
  -2   5   0 3261.61   68.12
   2  -5   0 3161.16   72.08
  -2  -5   1   20.51    6.24
  -2  -5  -1   23.60    5.21
   2  -5   1   26.91    6.22
  -2  -5  -1   14.83    5.08
   2  -5  -1   17.95    5.00
  -2   5   1   20.80    5.92
   2  -5   1   17.04    4.81
  -2  -5   1   21.88    5.14
   2  -5  -1   20.00    4.57
  -2  -5   2   96.40   12.50
   2  -5  -2   96.72   12.74
   2  -5   2  103.44   12.16
  -2  -5  -2   87.02   11.73
   2  -5  -2   73.61   10.09
  -2   5   2   99.03   12.15
   2  -5   2   85.38   12.20
  -2  -5   2   94.09    9.90
  -2  -5  -3   74.41   10.79
  -2  -5   3   75.57   11.03
   2  -5   3   99.63   12.15
   2  -5  -3   68.81   10.80
   2  -5  -3   68.12   10.06
  -2  -5   3   83.79    9.35
  -2   5   3   82.66   11.57
   2  -5   3   73.76   11.11
  -2  -5   3   72.73    6.72
   2   5   3   78.35    9.19
  -2  -5   4   71.16   10.74
   2  -5   4   81.30   10.92
  -2  -5   4   85.17    7.96
  -2  -5   4   71.39    8.24
   2  -5  -4   74.38   10.72
   2  -5   4   48.77    9.10
  -2  -5  -4   88.05   11.83
  -2   5   4   58.32    9.58
   2   5   4   68.06    9.27
   2  -5   5  327.42   22.23
   2  -5   5  312.74   22.83
   2   5   5  297.80   19.79
  -2   5   5  336.33   22.68
  -2  -5  -5  317.40   22.84
   2  -5  -5  384.29   24.13
  -2  -5   5  329.89   17.65
  -2  -5   5  330.74   23.59
   2   5   5  334.06   13.19
  -2  -5   5  350.02   18.99
  -2  -5   6   45.43    8.73
   2  -5   6   54.72    9.74
   2  -5  -6   46.71    8.79
  -2   5   6   70.93   10.51
  -2   5   6   65.18    9.99
  -2  -5   6   73.84    9.25
  -2  -5  -6   54.14    9.17
   2   5   6   59.91    6.17
   2   5   6   48.44    8.29
  -2  -5   6   69.47    8.80
   2  -5   6   59.19    9.44
  -2  -5   7  422.29   27.74
   2  -5   7  388.27   25.86
   2  -5  -7  372.54   25.51
  -2  -5   7  424.24   22.74
   2   5   7  364.66   17.30
  -2  -5  -7  394.43   25.73
  -2  -5   7  420.76   22.70
   2   5   7  461.82   26.20
   2  -5   7  422.38   26.01
  -2   5   7  352.50   23.53
  -2   5   7  400.16   25.87
  -2   5   8 1298.20   48.13
   2  -5  -8 1316.55   48.99
  -2  -5  -8 1254.91   47.42
  -2   5   8 1239.21   45.31
   2   5   8 1219.11   34.64
  -2  -5   8 1265.54   49.08
  -2  -5   8 1327.70   42.25
   2   5   8 1390.31   46.84
  -2  -5   8 1146.53   40.09
   2  -5   8 1353.64   47.30
   2  -5   8 1336.61   48.55
  -2  -5   9    2.45    2.03
  -2  -5   9    1.17    0.69
   2  -5   9    8.10    3.55
  -2   5   9    4.45    2.57
  -2  -5   9    2.34    1.35
   2   5   9    0.38    0.53
  -2   5   9    5.02    3.85
  -2  -5  -9    4.08    3.67
   2   5   9    0.28    0.50
   2  -5   9   -0.39    2.03
   2  -5  -9    1.46    2.30
  -2  -5  10  222.29   18.23
  -2   5  10  232.66   20.42
   2  -5  10  235.03   21.60
   2   5  10  226.04   16.99
  -2  -5 -10  238.85   21.54
  -2  -5  10  231.13   19.16
   2  -5 -10  222.60   21.60
  -2  -5  10  251.17   22.20
   2  -5  10  198.44   19.46
  -2   5  10  237.45   22.07
   2   5  10  239.69   20.91
   2  -5  11   85.15   13.23
  -2  -5  11   64.12   10.08
   2   5  11   59.26   10.56
  -2  -5 -11   77.36   12.37
  -2  -5  11   74.12   11.56
   2   5  11   69.55    9.89
  -2  -5  11   67.11   11.74
  -2   5  11   50.05    9.98
   2  -5 -11   71.55   12.60
  -2   5  11   69.74   11.92
   2  -5  11   71.31   11.47
  -2  -5  12   24.11    8.42
   2  -5  12   12.05    4.29
   2   5  12   23.11    6.00
   2  -5  12   13.72    5.18
  -2  -5 -12   12.97    5.62
  -2   5  12   17.55    5.12
   2  -5 -12   24.45    7.72
  -2  -5  12    8.61    4.07
  -2  -5  12   19.19    6.08
  -2   5  12   27.64    8.09
   2   5  12   14.23    5.08
  -2   5  13   94.18   14.66
   2  -5  13   50.37    9.97
  -2  -5  13   59.82   10.82
  -2   5  13   60.44   11.31
  -2  -5  13   53.79   10.63
  -2  -5 -13   59.71   12.00
   2   5  13   56.69   10.08
   2  -5 -13   58.93   11.08
   2   5  13   61.31   11.37
   2  -5  13   73.24   12.64
  -2  -5  13   90.93   14.25
  -2  -5  14  447.98   32.43
  -2  -5  14  486.18   31.25
  -2  -5 -14  457.09   32.73
  -2  -5  14  459.59   32.31
   2   5  14  567.24   35.23
  -2   5  14  496.42   32.77
   2  -5  14  434.56   30.26
   2   5  14  536.18   32.23
  -2   5  14  520.46   34.63
   2  -5  14  510.46   33.91
  -2  -5  15  136.81   16.95
  -2  -5  15  146.34   18.18
  -2  -5 -15  136.95   18.98
  -2   5  15  150.28   18.94
   2   5  15  148.24   19.44
   2   5  15  157.69   18.62
  -2   5  15  134.12   19.22
   2  -5  15  155.87   18.36
  -2  -5  15  136.93   17.90
  -2  -5  16   19.58    8.15
   2   5  16   10.35    3.49
  -2  -5  16   16.83    6.91
  -2  -5  16   19.49    7.44
   2  -5  16   22.89    8.56
  -2   5  16   13.80    6.51
  -2  -5 -16    6.54    6.49
  -2   5  16    9.90    4.54
   2   5  16   10.63    2.93
   2  -5  16   17.78    5.47
  -2   5  17   19.38    8.06
  -2  -5  17   17.66    6.17
  -2  -5 -17    5.51    4.55
   2   5  17    8.57    5.89
   2  -5  17   16.40    7.05
   2   5  17    4.14    5.03
   2  -5  17    7.42    7.66
  -2  -5  17   10.31    4.89
  -2   5  17    8.88    4.79
  -2   5  18   70.61   14.38
  -2  -5  18   98.58   16.73
   2  -5  18   66.67   14.04
  -2  -5 -18  105.28   17.03
   2   5  18   88.56   16.05
  -2   5  18   91.31   16.24
   2   5  18   98.12   15.94
   2  -5  18   67.79   14.71
  -2  -5  18   70.18   13.10
  -2  -5  19   95.33   16.01
   2  -5  19  128.22   19.21
  -2  -5  19   94.09   16.37
  -2   5  19   89.48   15.73
  -2   5  19  107.34   18.40
  -2  -5 -19  115.27   18.74
   2   5  19   83.49   15.39
   2  -5  19  112.38   17.77
   2   5  19  102.79   16.65
  -2   5  20   38.57   11.69
  -2  -5  20   33.61   10.25
   2   5  20   44.89   11.51
   2   5  20   33.48    9.31
  -2  -5 -20   36.15   10.78
  -2   5  20   35.55    9.64
   2  -5  20   31.15    8.69
   2  -5  20   45.57   11.19
  -2  -5  20   24.29    8.78
  -2   5  21    2.80    6.28
   2   5  21    3.95    0.81
  -2  -5  21    9.90    4.83
  -2  -5 -21   12.53    7.21
  -2  -5  21   10.37    5.01
   2  -5  21   12.32    4.85
   2   5  21    4.63    1.56
   2  -5  21    7.90    7.18
  -2   5  21    6.40    6.48
  -2  -5  22  133.23   20.25
  -2   5  22  122.10   19.60
   2  -5  22  138.14   20.98
   2   5  22  126.13   19.74
  -2   5  22  119.04   19.48
  -2  -5 -22  102.68   17.73
  -2  -5  22  104.21   18.43
   2  -5  22  161.44   22.55
   2   5  22  180.32   23.86
  -2   5  23    8.07    8.47
   2   5  23    0.67    4.04
   2  -5  23    8.72    7.71
  -2   5  23   -1.17    1.96
  -2  -5  23   -1.01    2.99
  -2  -5 -23    0.14    2.34
   2   5  23    4.96    5.98
  -2  -5  23    4.14    6.01
   2  -5  23    1.01    2.52
  -2   5  24    8.96    6.05
   2  -5  24   37.16   11.65
   2  -5  24   31.81    9.99
  -2  -5  24   36.38   11.78
  -2   5  24   41.10   11.80
   2   5  24   14.09    4.46
  -2  -5  24   34.66   11.42
  -2  -5 -24   28.62    9.91
   2   5  24   40.62   11.77
   2   5  25    3.84    3.56
  -2  -5  25   -0.03    4.50
  -2   5  25   10.57    5.59
  -2  -5  25   -1.21    3.45
  -2   5  25   -1.97    5.17
   2  -5  25   -1.06    1.77
  -2  -5 -25   -0.13    2.23
   2   5  25    5.97    7.34
   2  -5  25    2.95    4.28
  -2  -5 -26   46.40   12.57
   2   5  26   29.30    9.31
   2  -5  26   44.46   12.52
   2  -5  26   35.69   10.52
  -2  -5  26   34.35   10.94
  -2  -5  26   29.88    9.77
  -2   5  26   49.27   13.72
   2   5  26   19.16    8.39
  -2   5  26   30.39    8.69
   2   5  27   18.73    7.84
   2  -5  27    9.90    8.24
  -2  -5  27   13.92    7.97
  -2   5  27   11.79    6.56
   2   5  27    7.52    4.94
  -2  -5 -27   21.48    9.62
  -2   5  27    4.75    5.79
   2  -5  27    8.70    5.18
  -2  -5  27   22.39    9.92
   2  -5  28   39.26   11.18
   2  -5  28   35.20   10.48
  -2  -5  28   46.92   12.34
   2   5  28   42.74   13.65
  -2   5  28   47.51   14.13
  -2  -5 -28   44.08   13.08
   2   5  28   43.72   13.16
  -2  -5  28   35.62   11.40
  -2   5  28   55.71   14.41
   2   5  29    7.22    5.25
   2   5  29   -1.33    4.02
   2  -5  29   -0.46    3.39
  -2   5  29    1.62    3.34
  -2  -5  29    2.39    5.08
  -2   5  29   12.55    8.43
  -2  -5 -29    6.79    8.80
   2  -5  29    7.24    6.04
  -2  -5  29    0.67    3.35
   2   5  30   10.87    8.45
  -2  -5  30    7.80    5.30
  -2   5  30    6.80    2.96
   2   5  30    7.73    1.91
  -2   5  30   13.56    8.96
   2  -5  30    8.62    6.26
  -2  -5 -30   11.88    6.45
  -2  -5  30   24.42   10.29
   2  -5  30    5.72    4.06
  -2  -6   0  489.00   29.58
   2  -6   0  486.10   28.58
   2  -6   0  498.88   30.26
  -2  -6   0  516.24   25.92
  -2   6   1   39.16    7.84
  -2  -6  -1   48.72    7.68
  -2  -6   1   45.98    9.12
   2  -6   1   37.00    7.88
  -2  -6  -1   33.17    7.96
  -2  -6   1   30.32    3.37
   2  -6  -1   33.49    7.21
   2  -6   1   58.93   10.93
  -2  -6   1   32.62    6.44
   2  -6  -1   32.94    7.70
  -2   6   2   14.16    4.93
  -2  -6   2   20.88    7.24
   2  -6   2   25.52    7.06
  -2  -6   2   15.28    2.99
  -2  -6  -2   18.86    6.93
   2  -6   2   15.29    4.95
   2  -6  -2   14.98    5.43
  -2  -6   2   17.01    5.09
   2  -6  -2   22.30    6.04
  -2  -6   3   23.00    4.02
   2  -6  -3   30.60    6.73
   2  -6   3   25.97    6.99
  -2  -6   3   29.94    7.04
  -2  -6  -3   43.85    8.44
  -2  -6   3   27.91    6.04
   2  -6   3   37.14    8.47
  -2   6   3   25.82    6.45
   2  -6  -3   32.81    7.40
   2  -6  -4  219.04   19.93
  -2  -6  -4  180.16   18.08
  -2  -6   4  220.78   20.21
   2  -6   4  206.90   18.89
   2  -6   4  213.65   20.07
  -2  -6   4  185.20   15.37
   2  -6  -4  206.24   19.10
  -2   6   4  232.88   20.46
  -2  -6   4  178.22   12.84
   2   6   4  203.10   16.99
  -2  -6   5  120.15   15.13
   2  -6   5  142.07   15.82
   2  -6   5  159.15   17.08
  -2  -6  -5  119.69   15.01
   2  -6  -5  100.26   13.26
  -2   6   5  122.65   14.41
   2   6   5  116.78    7.64
  -2  -6   5  134.32   13.26
   2   6   5  150.32   15.33
  -2  -6   5  114.92   10.85
  -2  -6   6   12.67    5.43
  -2  -6   6   10.27    3.71
  -2  -6  -6   12.64    4.71
  -2   6   6   12.47    4.88
  -2  -6   6    9.56    3.86
   2   6   6   18.18    5.61
   2  -6   6   19.09    6.56
   2  -6   6   16.36    5.63
   2   6   6   11.36    2.80
   2  -6  -6   15.64    5.65
  -2  -6   7  145.76   17.20
   2  -6   7  160.83   17.50
   2   6   7  159.93   11.10
  -2  -6  -7  186.84   19.22
   2  -6  -7  202.17   19.39
  -2   6   7  174.30   17.33
  -2   6   7  149.15   16.66
  -2  -6   7  165.98   14.57
   2   6   7  157.40   16.49
  -2  -6   7  170.40   15.83
   2  -6   7  174.45   18.14
  -2  -6   8    3.35    4.71
   2  -6   8    3.68    4.53
   2   6   8    5.93    2.24
  -2  -6   8    7.69    3.08
   2   6   8    6.78    2.48
  -2   6   8    5.47    3.95
  -2  -6  -8   -0.91    4.34
   2  -6  -8    9.66    4.56
  -2   6   8    6.55    3.33
   2  -6   8    7.67    4.55
  -2  -6   8    1.52    1.03
  -2  -6   9   13.07    5.25
   2  -6   9    7.56    5.42
  -2  -6   9   14.01    4.38
   2   6   9   19.56    4.80
  -2   6   9   12.33    4.80
   2  -6  -9   25.26    8.30
   2  -6   9   12.71    5.87
  -2   6   9   16.89    5.55
  -2  -6   9   15.20    4.74
   2   6   9   16.00    5.62
  -2  -6  -9   17.00    5.91
  -2  -6  10   51.91   10.45
  -2  -6  10   47.11    8.97
  -2  -6  10   46.37    9.10
   2   6  10   50.55    7.88
   2  -6  10   49.95   10.28
  -2  -6 -10   47.13    9.98
  -2   6  10   46.15   10.27
  -2   6  10   33.02    8.14
   2  -6 -10   37.61    9.11
   2  -6  10   51.74   10.39
   2   6  10   59.92   10.54
  -2  -6 -11  412.14   30.34
   2  -6 -11  513.27   34.24
   2   6  11  480.19   26.50
  -2  -6  11  421.17   28.34
  -2   6  11  450.57   31.03
   2  -6  11  514.00   33.60
   2   6  11  500.11   32.81
  -2  -6  11  493.26   33.43
  -2  -6  11  472.94   28.53
  -2   6  11  525.28   32.89
   2  -6  11  428.46   30.31
   2  -6  12  133.71   16.90
  -2   6  12  119.17   16.78
  -2  -6 -12  118.25   16.37
   2  -6 -12  135.52   17.70
  -2   6  12  124.75   16.21
   2   6  12  103.56   12.97
  -2  -6  12  112.13   14.58
  -2  -6  12  117.66   15.71
   2  -6  12  108.82   15.25
   2   6  12  119.67   15.51
  -2  -6  12  113.41   15.92
  -2  -6  13   94.44   14.69
   2   6  13   79.46   12.00
  -2  -6 -13  101.00   15.71
  -2   6  13   88.59   13.27
  -2   6  13   69.34   14.12
   2   6  13   96.03   14.43
  -2  -6  13   83.44   12.59
   2  -6 -13   85.71   14.70
   2  -6  13   89.66   13.94
  -2  -6  13   86.09   14.09
   2  -6  13  109.48   16.58
   2  -6 -14  256.51   25.34
  -2  -6  14  222.91   23.20
  -2  -6  14  241.57   22.42
   2  -6  14  202.55   22.41
  -2   6  14  207.42   21.76
  -2  -6  14  225.82   23.42
   2   6  14  224.63   20.86
  -2   6  14  223.45   23.10
   2   6  14  212.60   22.98
   2  -6  14  233.53   22.84
  -2  -6  15   82.73   14.87
   2   6  15  114.46   15.74
  -2  -6  15   89.86   13.64
   2  -6 -15  107.09   16.68
   2  -6  15   99.97   16.16
   2  -6  15   89.45   14.24
  -2   6  15  106.26   16.41
  -2   6  15   80.35   13.68
   2   6  15   86.51   14.65
  -2  -6 -15   90.79   15.44
  -2  -6  15  110.05   16.86
  -2   6  16  146.32   19.32
  -2  -6  16  122.34   16.97
   2  -6  16  111.72   16.71
   2  -6 -16  168.84   21.92
   2   6  16  128.33   16.80
  -2  -6  16  141.79   19.34
  -2   6  16  120.84   17.63
   2   6  16  155.90   20.32
  -2  -6  16  144.91   19.73
  -2  -6 -16  156.31   21.76
   2  -6  16  134.95   18.38
  -2  -6  17    5.21    5.85
   2   6  17   -2.20    4.76
  -2   6  17   -0.42    0.60
   2  -6 -17    1.83    3.96
  -2  -6 -17   -0.77    1.15
   2  -6  17    2.58    1.44
  -2  -6  17   -0.68    3.18
   2  -6  17    2.70    1.54
  -2  -6  17   -0.25    1.90
   2   6  17    6.11    3.69
   2  -6  17   -0.33    2.94
  -2   6  17    1.18    0.62
   2   6  18   61.00   11.85
  -2  -6  18   62.08   12.66
   2  -6 -18   50.16   12.48
  -2  -6  18   70.98   14.11
   2   6  18   79.17   14.13
  -2  -6 -18   58.18   13.39
  -2  -6  18   66.74   12.90
  -2   6  18   60.86   12.93
   2  -6  18   70.29   15.34
   2  -6  18   26.46   10.81
  -2   6  18   59.64   12.21
   2   6  19   10.10    6.45
   2   6  19   12.23    5.29
  -2  -6  19   17.62    6.54
   2  -6 -19   11.00    5.57
   2  -6  19   15.45    8.16
  -2   6  19   25.15    8.18
  -2  -6 -19   15.82    7.58
  -2  -6  19   30.23   10.51
   2  -6  19   15.24    7.76
  -2   6  19   13.26    5.32
   2  -6 -20   13.81    7.54
   2   6  20    2.00    1.00
   2  -6  20    1.33    2.55
  -2  -6  20    6.11    5.76
   2   6  20    0.42    3.00
  -2  -6 -20   -0.26    3.86
  -2   6  20    3.49    2.42
  -2  -6  20    0.09    2.08
   2  -6  20    1.26    4.61
  -2   6  20    0.62    2.53
   2  -6 -21   15.78    5.13
   2  -6  21    4.49    7.06
   2   6  21    9.85    7.13
  -2   6  21    4.05    6.83
  -2  -6 -21   10.93    7.01
   2   6  21    8.35    5.27
   2  -6  21   11.76    5.84
  -2  -6  21    7.00    6.44
  -2  -6  21    1.87    4.37
  -2   6  21    9.58    7.05
  -2   6  22   42.56   11.51
  -2  -6  22   26.72    9.06
   2  -6 -22   45.72   11.96
  -2  -6 -22   59.43   13.92
   2  -6  22   58.24   14.22
   2   6  22   88.77   16.70
  -2  -6  22   57.24   14.04
   2  -6  22   65.07   14.85
   2   6  22   31.70   10.10
  -2   6  22   41.48   12.38
   2   6  23   15.20    7.30
  -2  -6 -23   21.68    9.87
  -2   6  23    9.48    5.12
  -2  -6  23   -0.33    3.90
   2  -6 -23   13.93    7.83
   2  -6  23    7.44    4.49
   2   6  23   18.75    7.85
  -2  -6  23    1.33    2.24
   2  -6  23   16.78    7.97
  -2   6  23   12.49    6.63
   2   6  24  106.83   19.12
  -2  -6  24   85.78   17.48
  -2   6  24  106.58   19.63
   2  -6  24   62.60   13.61
   2  -6 -24   46.87   18.22
  -2  -6  24   81.77   16.81
  -2   6  24   55.72   14.09
   2   6  24   90.47   17.80
   2  -6  24   78.45   16.38
  -2  -6 -24   94.81   19.32
  -2   6  25   -0.10    5.70
  -2  -6 -25    1.04    4.75
  -2  -6  25    3.62    1.41
   2  -6  25   -3.36    5.44
  -2   6  25    2.32    6.51
   2  -6 -25    4.32    2.50
   2   6  25   -2.33    1.33
  -2  -6  25    9.00    8.37
   2  -6  25   -3.88    5.60
   2   6  25    0.88    3.38
  -2   6  26   33.71   12.57
   2  -6  26   19.62    7.71
  -2   6  26   22.67   10.01
  -2  -6  26    8.43    5.34
   2  -6 -26   31.27   13.15
   2   6  26   22.21    9.84
   2   6  26   20.95    8.75
  -2  -6  26   24.06    8.09
   2  -6  26   28.01   10.36
  -2  -6 -26   40.44   10.91
  -2  -6  27    8.84    6.57
   2   6  27    3.93    5.80
   2  -6  27   -1.67    5.44
  -2  -6  27    4.31    5.29
  -2   6  27   -7.86    5.99
   2  -6  27    4.30    7.25
   2   6  27    1.00    5.15
  -2  -6 -27   -2.42    4.13
   2  -6 -27   -0.34    0.44
  -2   6  27   -0.20    3.79
  -2   6  28    5.57    7.57
   2  -6 -28    0.05    6.35
   2   6  28    5.92    3.26
  -2   6  28   21.65   10.66
   2  -6  28   12.57    8.39
  -2  -6  28    9.03    7.58
  -2  -6  28   10.44    2.71
  -2  -6 -28    5.58    3.72
   2   6  28    0.97    2.70
   2  -6  28    2.59    3.35
   2   6  29   15.36    7.32
   2  -6 -29    8.18    3.20
  -2  -6  29   18.31   10.74
  -2  -6 -29   24.78   12.19
   2  -6  29    6.25    8.03
  -2  -6  29   29.84   10.01
  -2   6  29   18.07    5.96
   2   6  29   23.30    9.21
   2  -6  29   40.54   11.93
  -2   6  29    8.46    5.14
   2   6  30   11.15    6.82
   2  -6  30    1.60    2.10
   2  -6 -30   -3.72    5.20
  -2  -6  30   27.11   12.69
  -2   6  30   29.39   11.30
   2   6  30    9.70    9.41
  -2  -6  30    2.31    3.91
   2  -6  30   10.03    7.27
  -2  -6 -30   17.59   10.47
  -2   6  30   21.49    9.40
   2  -7   0    3.67    3.12
   2  -7   0    0.01    4.15
  -2  -7   0   -2.15    2.31
  -2  -7   0    3.98    3.45
  -2  -7  -1  656.23   33.16
   2  -7   1  676.32   36.94
  -2  -7   1  817.15   41.51
   2  -7  -1  814.48   39.54
   2  -7   1  762.04   38.30
   2  -7  -1  689.45   37.62
  -2  -7   1  665.49   33.45
  -2  -7   1  714.51   16.96
  -2  -7  -1  795.35   40.48
  -2  -7   2  226.01   19.11
  -2  -7   2  211.47   21.12
   2  -7   2  253.89   22.20
  -2  -7  -2  203.51   20.89
   2  -7   2  238.68   21.85
  -2   7   2  210.10   19.59
   2  -7  -2  201.76   20.60
  -2  -7   2  216.80   11.20
  -2  -7  -2  231.99   19.47
   2  -7  -2  236.62   21.49
   2  -7  -3  631.83   35.79
   2  -7   3  612.99   35.10
  -2  -7  -3  606.46   35.18
   2  -7   3  644.45   36.01
  -2  -7   3  583.83   20.95
  -2  -7   3  608.55   30.66
   2  -7  -3  655.25   35.65
  -2   7   3  685.67   36.44
  -2  -7   3  605.86   35.99
   2  -7  -4   66.14   12.04
  -2  -7   4   99.03    9.69
   2  -7  -4   91.98   13.34
   2  -7   4   85.48   13.29
  -2   7   4   89.67   13.04
  -2  -7   4   90.18   14.32
   2  -7   4  124.38   15.91
  -2  -7   4   89.77   12.10
  -2  -7  -4  100.17   14.07
  -2  -7   5  144.44   18.13
  -2  -7   5  161.88   16.29
   2  -7   5  194.85   20.35
   2   7   5  157.10    9.09
  -2  -7  -5  183.31   19.59
   2  -7   5  169.33   18.55
   2  -7  -5  178.40   18.58
   2  -7  -5  192.31   20.07
  -2   7   5  155.77   17.33
   2   7   5  171.05   17.34
  -2  -7   5  146.96   12.70
  -2  -7   6  230.81   19.24
  -2  -7   6  232.28   22.74
   2  -7   6  246.33   22.30
   2   7   6  180.43   12.11
   2  -7   6  258.99   22.87
  -2  -7  -6  241.25   22.40
  -2   7   6  242.10   22.22
   2   7   6  227.69   20.03
   2  -7  -6  215.28   21.18
  -2  -7   6  220.18   16.79
  -2  -7   7  695.66   39.91
   2  -7   7  668.81   37.87
   2  -7   7  676.45   37.74
   2   7   7  774.85   38.49
  -2  -7  -7  787.79   41.34
   2  -7  -7  805.68   41.02
  -2  -7   7  627.57   29.86
   2   7   7  635.26   23.03
  -2   7   7  718.46   37.98
  -2  -7   7  678.20   33.91
   2  -7   8   96.71   14.63
   2  -7   8   90.88   14.41
   2  -7  -8  114.63   16.09
  -2   7   8  113.56   14.88
  -2  -7  -8  109.43   15.08
  -2  -7   8  107.27   13.05
  -2  -7   8   96.41   15.02
  -2  -7   8   94.01   12.75
   2   7   8  110.39   14.78
   2   7   8   91.27    9.99
   2  -7   9   82.83   13.70
  -2  -7   9   79.42   12.06
   2   7   9   92.55   13.56
   2  -7  -9   77.62   14.24
   2  -7   9  109.81   15.30
  -2   7   9   85.10   13.76
  -2   7   9   85.34   13.31
   2   7   9   65.20    9.13
  -2  -7   9   85.28   14.17
  -2  -7   9   90.85   12.63
  -2  -7  -9   65.97   12.13
  -2  -7  10   74.31   13.34
   2  -7  10   56.39   11.05
  -2  -7  10   38.43    8.41
   2  -7  10   64.92   12.37
  -2   7  10   43.24    9.79
   2   7  10   45.24    7.74
   2  -7 -10   47.08   10.48
  -2  -7  10   39.80    9.03
  -2   7  10   33.83    9.15
   2   7  10   41.25    9.48
  -2  -7 -10   43.81   10.39
  -2  -7  11 1738.30   66.05
   2   7  11 1694.81   50.64
  -2  -7  11 1779.14   60.68
   2  -7 -11 1744.10   64.87
  -2  -7  11 1817.45   60.05
  -2   7  11 1734.18   61.76
  -2  -7 -11 1797.58   65.71
  -2   7  11 1671.52   62.47
   2   7  11 1722.40   62.25
   2  -7  11 1699.33   63.19
   2  -7  11 1837.18   65.67
  -2  -7 -12  304.57   27.71
   2  -7 -12  280.23   26.46
  -2   7  12  254.35   23.39
  -2   7  12  325.11   28.34
  -2  -7  12  286.23   24.77
   2  -7  12  325.97   28.17
   2  -7  12  314.04   27.63
   2   7  12  289.10   25.60
   2   7  12  279.07   21.53
  -2  -7  12  266.33   23.51
  -2  -7  12  258.46   25.41
   2   7  13   84.50   12.21
  -2   7  13  111.85   15.47
  -2  -7 -13  125.94   18.10
   2  -7 -13   89.22   15.89
   2  -7  13  100.77   15.74
  -2  -7  13  112.24   16.92
  -2   7  13  156.38   19.40
   2   7  13  123.71   17.12
  -2  -7  13   91.28   14.29
   2  -7  13  150.44   19.19
  -2  -7  13  140.13   19.10
   2   7  14   54.49   12.10
   2  -7 -14   68.11   14.42
  -2  -7  14   55.58   12.00
  -2   7  14   76.46   14.49
   2  -7  14   60.72   12.22
  -2  -7 -14   53.58   11.63
   2   7  14   80.23   12.69
   2  -7  14   70.04   13.19
  -2   7  14   46.49   13.44
  -2  -7  14   51.44   11.38
  -2  -7  14   51.38   10.69
   2   7  15    2.65    2.59
  -2  -7  15    3.85    2.35
   2  -7  15    6.39    4.68
  -2  -7  15    8.10    5.31
   2  -7  15   -0.20    2.76
  -2   7  15   -3.91    5.79
  -2  -7  15   -4.24    3.50
  -2  -7 -15    2.30    3.12
   2   7  15    5.04    5.43
   2  -7 -15    2.04    1.16
  -2   7  15    3.08    2.83
   2   7  16  116.52   16.41
   2  -7 -16  139.05   19.79
  -2   7  16  120.57   18.78
   2  -7  16  125.22   18.70
  -2  -7  16  146.25   19.48
  -2  -7 -16  134.78   19.30
  -2   7  16  137.79   19.25
  -2  -7  16  127.51   18.49
   2   7  16  116.65   17.89
   2  -7  16  112.47   18.27
  -2  -7  16  146.09   19.68
  -2  -7  17  134.27   19.29
  -2  -7 -17  156.65   21.31
   2  -7 -17  136.67   20.52
   2   7  17  127.38   18.14
  -2   7  17  167.96   21.93
   2  -7  17  128.81   18.19
   2  -7  17  145.36   20.61
   2  -7  17  151.74   20.80
  -2  -7  17  154.64   20.87
  -2   7  17  134.58   19.88
   2   7  17  138.74   18.82
  -2  -7  17  134.79   19.41
   2  -7  18   44.06   11.73
  -2  -7  18   38.31   12.01
   2   7  18   63.28   12.87
  -2   7  18   47.40   12.21
   2  -7  18   42.98   10.51
  -2  -7 -18   40.58   12.19
  -2  -7  18   38.40   10.03
   2  -7 -18   64.02   14.57
   2   7  18   37.21    9.64
   2  -7  18   42.62   11.34
  -2   7  18   42.52   11.80
  -2  -7  18   31.16    9.40
  -2  -7  19   49.70   12.94
   2   7  19   49.69   12.58
  -2  -7  19   44.78   11.54
   2  -7 -19   57.18   14.04
  -2  -7  19   45.54   12.12
  -2  -7 -19   39.99   12.66
   2  -7  19   46.88   12.73
  -2   7  19   56.09   11.85
  -2   7  19   63.92   14.46
   2   7  19   31.33    9.25
   2  -7  19   69.69   15.23
   2  -7  19   40.53   11.18
  -2   7  20    7.81    7.31
   2   7  20   13.93    5.58
   2  -7 -20   -2.63    1.22
   2  -7  20    4.26    6.54
  -2  -7  20   -1.75    4.09
   2   7  20   16.22    8.52
   2  -7  20    0.97    3.26
  -2  -7 -20   10.70    7.80
  -2   7  20   -3.95    3.40
  -2  -7  20    7.17    4.85
   2   7  21   55.73   13.28
  -2   7  21   86.16   16.90
   2  -7  21   87.85   17.36
  -2  -7  21   82.64   16.23
   2  -7 -21   90.34   18.18
  -2  -7  21   96.95   16.67
  -2  -7 -21   82.78   16.50
   2   7  21   84.22   16.85
  -2   7  21   83.60   16.73
   2  -7  21   79.92   16.02
   2   7  22   -3.08    3.56
  -2   7  22    1.55    3.21
  -2  -7 -22   -2.64    6.73
   2  -7 -22   -1.26    1.72
   2   7  22   -4.02    5.75
  -2  -7  22   -2.87    3.18
   2  -7  22    0.09    3.11
  -2  -7  22   -0.46    4.67
   2  -7  22   -4.29    3.28
  -2   7  22   10.18    7.23
  -2  -7  23    2.87    4.96
  -2   7  23   -2.90    2.68
   2  -7  23   -2.23    3.57
   2   7  23   -3.34    5.98
   2  -7 -23    0.95    4.40
  -2  -7 -23    1.64    2.87
  -2  -7  23    4.01    6.00
   2   7  23   -3.10    6.03
   2  -7  23    1.43    5.77
  -2   7  23   -7.25    6.37
   2   7  24   -4.44    6.82
   2  -7 -24    1.53    4.37
  -2   7  24    1.42    1.86
   2   7  24   -1.77    3.63
  -2  -7  24    3.65    4.88
  -2   7  24    3.19    7.14
   2  -7  24    6.04    8.50
  -2  -7  24   -3.12    4.34
   2  -7  24    2.29    4.21
  -2  -7 -24    2.56    1.03
   2   7  25   45.17   11.33
  -2   7  25   76.39   16.45
  -2  -7  25   36.28   11.07
  -2  -7 -25   60.50   14.53
   2   7  25   60.30   13.70
   2  -7 -25   89.96   19.17
  -2  -7  25   46.73   13.80
   2  -7  25   56.04   15.15
   2  -7  25   74.59   16.43
  -2   7  25   49.77   13.81
   2  -7  26    2.11    3.85
  -2  -7 -26    7.34    4.27
  -2   7  26   17.10    7.39
   2  -7 -26    4.13    4.57
   2   7  26    2.00    2.63
   2   7  26   -1.72    2.72
   2  -7  26   11.58    9.73
  -2  -7  26    5.43    8.78
  -2  -7  26    1.71    3.69
  -2   7  26    2.87    4.90
  -2  -7 -27   15.54    7.61
  -2   7  27    6.28    6.28
  -2   7  27    2.86    4.10
   2  -7  27    9.38    7.75
  -2  -7  27   10.61    9.13
   2  -7 -27    3.54    6.88
   2   7  27   11.12    5.11
  -2  -7  27   12.67    8.29
   2  -7  27    6.78    4.07
   2   7  28   -2.98    4.91
  -2   7  28    1.42    5.13
   2  -7  28    4.59    8.01
   2  -7  28   -2.64    5.17
  -2  -7 -28   -0.42    4.02
   2  -7 -28    7.45    5.84
  -2  -7  28    5.51    7.51
  -2   7  28    3.69    4.75
   2   7  29   17.32    7.92
  -2   7  29   36.56   11.69
  -2  -7  29   26.95    9.55
   2  -7  29   33.25   11.91
  -2  -7 -29   36.32   12.05
   2  -7 -29    6.20    3.09
   2  -7  29   34.18   11.23
  -2   7  29   18.36    8.22
  -2  -8   0   24.48    7.51
   2  -8   0   18.91    6.68
  -2  -8   0    8.90    4.47
   2  -8   0   20.41    7.51
   2  -8   1   24.12    8.24
  -2  -8   1    8.07    4.07
  -2  -8   1   12.08    5.31
   2  -8   1   15.98    5.81
  -2  -8  -1   11.41    6.97
   2  -8  -1   21.57    7.43
   2  -8  -1   19.16    5.90
  -2  -8  -1   16.50    6.66
  -2  -8   2   37.54    8.81
   2  -8   2   30.27    8.18
  -2  -8  -2   30.12    8.83
  -2  -8  -2   32.18    7.35
   2  -8  -2   32.13    8.22
   2  -8   2   42.98    9.41
   2  -8  -2   12.23    3.55
  -2  -8   2   35.93    8.19
  -2  -8   3  118.60   16.97
  -2  -8  -3  130.43   17.67
   2  -8  -3  128.19   17.11
  -2  -8  -3  112.37   14.99
   2  -8   3  119.81   16.26
  -2  -8   3  114.08   14.29
   2  -8   3   98.43   14.22
  -2   8   3  124.96   16.01
   2  -8  -3  152.93   18.42
  -2  -8   4  233.54   23.77
   2  -8   4  207.93   21.83
   2  -8  -4  232.36   23.35
  -2  -8  -4  204.28   22.01
  -2  -8   4  227.16   20.35
   2  -8   4  177.23   20.70
  -2   8   4  241.02   22.81
  -2  -8   4  178.00   13.87
   2  -8  -4  212.88   21.80
  -2  -8  -4  176.55   18.72
  -2  -8   5  181.42   21.00
   2  -8   5  155.89   18.96
  -2  -8   5  188.33   18.50
   2  -8  -5  214.28   21.72
   2  -8   5  207.99   21.32
  -2   8   5  168.25   18.50
  -2  -8  -5  178.36   20.31
  -2  -8   5  169.98   14.37
   2  -8  -5  137.36   18.31
   2  -8   6    2.98    0.72
  -2   8   6    2.13    0.95
  -2  -8   6    1.03    2.33
   2  -8   6   -1.13    3.41
   2   8   6    0.48    0.71
   2   8   6    3.88    4.46
  -2  -8   6    0.36    3.01
  -2  -8   6    2.31    1.55
   2  -8  -6    9.32    5.33
   2  -8  -6    5.55    1.73
  -2  -8  -6    1.31    1.31
   2  -8  -7   57.71   10.70
   2   8   7   58.99    7.46
   2  -8   7   52.08   11.25
  -2  -8   7   56.09   11.22
   2  -8   7   42.70    9.89
  -2  -8  -7   63.54   11.92
  -2   8   7   54.25   10.41
   2   8   7   61.73   11.54
   2  -8  -7   55.00   10.53
  -2  -8   7   50.37    8.97
  -2  -8   7   68.99   11.74
  -2  -8   8    0.77    4.88
   2  -8  -8   -0.62    2.06
   2  -8   8    0.27    4.25
  -2  -8   8    0.96    1.45
   2   8   8    0.72    1.83
  -2  -8  -8    0.98    4.26
  -2  -8   8    1.35    2.22
   2   8   8    9.57    5.22
   2  -8   8    0.74    2.07
  -2   8   8    0.55    1.42
  -2  -8   9   84.21   15.52
  -2  -8  -9   73.84   12.72
   2  -8  -9   80.70   13.82
   2   8   9   61.95    8.74
  -2   8   9   78.53   13.31
   2   8   9   88.28   14.49
  -2  -8   9   57.24   10.28
  -2  -8   9   69.67   11.80
   2  -8   9  102.60   16.16
   2  -8   9   88.49   13.89
  -2   8  10   74.35   13.22
   2  -8  10   54.44   11.84
  -2  -8 -10   72.52   13.18
   2  -8 -10   50.03   11.59
  -2   8  10   56.18   11.85
   2  -8  10   69.94   13.47
  -2  -8  10   70.03   13.47
  -2  -8  10   69.13   12.04
  -2  -8  10   59.72   11.17
   2   8  10   65.06    9.23
   2   8  10   91.31   13.81
  -2  -8  11    0.90    3.19
   2  -8  11    0.82    3.51
   2  -8 -11    3.00    2.99
   2  -8  11   -0.04    1.05
   2   8  11   -0.95    1.48
   2   8  11    0.27    2.52
  -2   8  11   -3.55    7.10
  -2   8  11   -5.25    1.87
  -2  -8  11    3.16    2.69
  -2  -8 -11   -1.14    2.08
  -2  -8  11   -0.84    2.74
   2  -8 -12   20.80    9.66
  -2  -8  12   20.91    7.36
  -2  -8  12   14.41    5.55
   2  -8  12   22.08    5.64
   2  -8  12   21.96    7.70
  -2   8  12   19.35    5.93
  -2  -8 -12   25.70    7.68
  -2   8  12   13.47    6.92
  -2  -8  12   21.44    6.77
   2   8  12   21.24    5.87
   2   8  12   13.38    5.66
   2  -8 -13   -3.85    5.70
  -2  -8  13   -1.13    2.84
  -2  -8  13    2.66    1.17
   2  -8  13   -1.42    4.38
  -2   8  13    2.39    3.99
   2  -8  13    1.50    1.78
  -2  -8  13    5.25    2.93
   2   8  13    1.22    2.06
  -2  -8 -13   -0.55    4.03
  -2   8  13    6.43    5.86
   2   8  13    0.18    3.34
  -2  -8  14   34.47    9.56
   2  -8  14   42.46   10.31
   2   8  14   22.40    6.47
  -2  -8  14   31.01    9.82
   2  -8  14   32.98   10.07
  -2  -8  14   40.12   11.15
   2  -8 -14   28.77    8.77
  -2  -8 -14   27.67    8.33
  -2   8  14   34.87    9.19
  -2   8  14   28.29    7.70
   2   8  14   26.91    7.64
  -2   8  15  249.99   27.24
   2  -8  15  200.80   24.18
   2  -8  15  210.00   24.28
  -2   8  15  229.92   24.51
   2   8  15  175.13   20.60
  -2  -8 -15  246.37   26.89
   2  -8 -15  219.68   24.98
  -2  -8  15  229.32   24.34
  -2  -8  15  215.88   24.71
   2   8  15  214.19   24.94
  -2  -8  15  196.77   23.58
   2  -8  16   -2.06    5.32
  -2  -8  16   -1.33    2.62
  -2  -8  16    0.58    4.04
   2  -8 -16   -4.22    5.93
   2  -8  16    0.99    3.56
  -2  -8 -16   -2.40    4.59
  -2   8  16   -1.66    3.35
   2   8  16    2.41    3.09
   2   8  16    2.30    3.73
  -2  -8  16    0.06    3.56
  -2   8  16    2.28    4.35
  -2   8  17   88.67   17.15
  -2  -8  17   64.83   12.95
   2  -8  17   66.56   14.50
   2  -8  17   71.12   14.33
  -2  -8 -17   69.51   14.64
   2  -8 -17   68.02   15.10
  -2   8  17   75.78   14.37
   2   8  17   67.78   13.65
  -2  -8  17   71.96   14.77
   2  -8  17   54.25   13.17
  -2  -8  17   81.49   15.77
  -2  -8  18   27.87    9.28
   2  -8  18   28.47   10.06
   2  -8  18   26.29    9.86
  -2  -8 -18   19.65    9.74
   2  -8 -18   62.67   13.64
  -2   8  18   17.50    8.01
  -2  -8  18   43.32   11.88
  -2   8  18   33.14   10.07
  -2  -8  18   28.74    8.95
   2  -8  18   30.50   10.48
   2   8  18   31.79    9.85
  -2   8  19   71.82   16.28
   2  -8  19   69.53   13.66
   2  -8 -19   70.95   16.69
  -2  -8 -19   88.90   16.94
   2   8  19   75.50   16.58
  -2  -8  19   54.84   12.60
  -2  -8  19   47.07   12.88
  -2  -8  19   71.61   15.68
   2  -8  19   77.17   15.66
  -2   8  19   80.33   16.40
   2  -8  19   53.85   12.74
   2  -8 -20    1.72    3.71
  -2   8  20   -1.57    2.88
  -2  -8  20    1.94    2.63
   2  -8  20    9.17    9.35
  -2  -8  20    0.02    4.89
  -2  -8 -20   -1.41    3.87
   2  -8  20    2.68    7.26
  -2  -8  20   -6.80    5.62
  -2   8  20   -1.04    5.19
   2  -8  20    2.83    3.01
   2   8  20    4.48    5.04
   2   8  21   90.55   16.91
  -2  -8  21  115.07   19.15
  -2   8  21  117.86   19.62
   2  -8 -21   92.21   19.01
  -2  -8 -21   97.94   18.56
   2  -8  21  113.30   19.70
  -2  -8  21   86.36   17.87
   2  -8  21  102.60   19.62
  -2   8  21   90.04   17.01
  -2  -8  21   58.31   12.82
   2  -8  22    6.73    6.44
  -2  -8 -22    1.41    5.50
   2  -8 -22   -3.04    5.00
  -2  -8  22   -0.76    3.53
  -2   8  22   -8.63    6.62
  -2  -8  22    0.05    4.25
   2  -8  22    4.53    5.25
  -2   8  22   -1.70    0.68
   2   8  22   -3.11    1.54
   2   8  23    2.88    3.93
  -2  -8 -23   27.72    9.60
   2  -8 -23   13.35    6.66
  -2   8  23   11.00    6.10
   2  -8  23    1.84    3.12
  -2  -8  23   10.99    3.98
  -2  -8  23   13.78    7.15
  -2   8  23   12.08    7.88
   2  -8  23   10.30    5.44
   2   8  24    5.70    1.17
  -2   8  24   11.45    6.23
   2  -8  24   16.00    7.91
  -2  -8 -24   10.79    6.26
   2  -8 -24   16.91    7.48
  -2  -8  24   20.87    9.12
   2  -8  24    8.64    7.00
  -2   8  24    4.94    2.32
  -2  -8  24   13.19    9.06
   2  -8  25   88.08   18.91
   2   8  25  105.71   20.23
  -2  -8 -25   75.58   21.47
  -2  -8  25   85.18   18.98
   2  -8  25  103.65   20.06
  -2   8  25  108.09   19.71
  -2   8  25   78.00   18.03
   2  -8 -25   71.19   15.85
   2   8  26   21.11    7.72
  -2  -8 -26   11.61    4.10
  -2  -8  26   20.90    9.90
   2  -8  26   21.64    9.11
   2  -8 -26   12.32    6.41
  -2   8  26   18.09   11.49
   2  -8  26   19.43    8.40
  -2   8  26   12.04    4.97
   2  -8  27    5.92    5.49
  -2  -8 -27   12.47    7.75
   2  -8 -27    3.52    1.54
  -2   8  27    8.04    5.78
  -2   8  27   16.60   10.83
  -2  -8  27   -3.95    6.05
   2   8  27   -3.39    7.06
   2  -8  27   -1.80    5.18
   2   8  28   -6.14    6.34
   2  -8 -28   -0.39    5.30
  -2  -8 -28   -2.78    2.24
   2  -8  28   -0.33    3.24
  -2   8  28    1.41    2.66
  -2  -8  28   -0.09    5.22
   2  -8  28   -4.80    7.53
  -2   8  28   -3.70    4.64
  -2  -9   0   22.46    8.72
   2  -9   0   40.17   10.15
   2  -9   0   20.81    7.16
  -2  -9   0   36.55    9.75
  -2  -9   1  134.09   18.97
   2  -9   1  185.22   21.03
  -2  -9  -1  134.93   19.20
   2  -9  -1  165.62   19.63
  -2  -9   1  168.94   18.93
   2  -9   1  166.40   20.04
   2  -9  -1  145.23   19.63
  -2  -9  -1  152.81   18.43
  -2  -9   2   16.53    6.50
   2  -9   2   18.49    8.66
  -2  -9  -2   12.93    5.29
   2  -9  -2    9.31    2.44
   2  -9  -2   18.49    4.28
  -2  -9  -2   15.90    5.30
   2  -9   2   24.09    7.34
  -2  -9   2   13.73    3.80
  -2  -9   3  338.03   29.67
   2  -9   3  371.16   30.84
  -2  -9  -3  340.08   29.84
   2  -9  -3  426.77   31.98
  -2  -9   3  334.70   26.05
   2  -9   3  335.14   28.65
  -2  -9  -3  367.73   28.30
   2  -9  -3  342.27   29.43
   2  -9  -4  139.82   18.55
  -2  -9   4  122.94   18.26
   2  -9   4  116.42   17.34
  -2  -9  -4  109.89   16.23
  -2  -9  -4  114.81   17.51
   2  -9  -4  129.87   17.49
  -2  -9   4  100.04   14.77
   2  -9   4  108.32   16.18
  -2   9   4   72.30   12.44
  -2  -9   5   15.78    5.89
   2  -9  -5   12.92    5.08
   2  -9   5    9.38    3.41
  -2  -9   5   20.40    5.48
   2  -9   5    5.70    1.67
  -2  -9  -5    5.08    3.10
   2  -9  -5   15.01    6.49
  -2   9   5   18.88    6.96
  -2  -9  -5   11.55    3.95
  -2  -9   6  240.72   25.14
   2  -9   6  286.54   26.99
   2  -9  -6  271.95   26.38
  -2  -9  -6  244.61   25.09
   2  -9   6  234.92   24.25
  -2   9   6  280.99   26.25
  -2  -9   6  263.67   23.77
   2  -9  -6  240.79   24.65
  -2  -9   7  974.39   45.60
  -2  -9   7  991.47   52.85
   2  -9   7  937.43   50.15
   2  -9   7  973.97   49.63
  -2  -9  -7  987.63   50.59
   2  -9  -7 1149.72   54.06
   2  -9  -7  955.93   49.70
  -2   9   7 1007.92   51.15
  -2   9   8  472.36   34.88
  -2  -9   8  444.44   35.29
   2  -9   8  480.61   36.22
   2  -9   8  471.91   35.16
  -2  -9  -8  389.06   33.10
   2  -9  -8  477.26   35.02
   2   9   8  468.70   33.14
   2  -9  -8  413.79   32.42
  -2  -9   8  424.15   30.33
  -2  -9   9   26.92    8.93
   2  -9   9   12.52    5.41
  -2  -9  -9   27.84    9.58
   2  -9  -9   33.86    9.10
  -2  -9   9   16.44    6.08
   2   9   9   21.71    6.56
  -2   9   9   31.03    8.85
   2  -9   9   24.05    8.19
  -2  -9  10  363.12   32.22
  -2   9  10  289.40   27.79
  -2  -9 -10  307.51   29.20
   2  -9  10  320.09   29.72
   2   9  10  286.54   26.68
  -2  -9  10  309.77   27.66
   2  -9  10  333.95   29.73
   2  -9 -10  345.90   29.71
  -2  -9  11   63.36   14.86
   2  -9 -11   71.15   14.17
  -2  -9 -11   60.51   12.42
  -2  -9  11   57.85   11.56
   2   9  11   73.82   13.89
  -2  -9  11   37.02    9.99
   2  -9  11   47.71   11.32
   2  -9  11   72.78   14.69
  -2   9  11   61.69   13.15
  -2  -9  12    2.32    1.12
   2  -9  12    0.78    5.21
  -2  -9  12    0.35    2.67
   2  -9  12   -0.79    2.59
   2  -9 -12   -1.93    4.27
  -2  -9 -12   -2.76    3.40
  -2   9  12    0.37    2.19
  -2   9  12    2.00    3.97
   2   9  12    1.75    3.28
  -2  -9  12    6.14    5.25
   2  -9  13  132.48   19.09
  -2  -9  13  127.35   18.22
  -2   9  13  125.32   17.92
  -2  -9  13  112.82   18.69
  -2  -9 -13  105.02   17.73
   2  -9 -13  136.64   20.82
  -2  -9  13  102.10   15.45
   2   9  13  130.35   18.39
  -2   9  13  135.28   19.62
   2  -9  13  105.62   17.15
  -2  -9  14   15.11    7.26
   2  -9  14   15.33    7.65
   2  -9  14   26.33    8.16
   2  -9 -14   36.43    9.16
  -2  -9  14   44.66    9.84
  -2   9  14   21.26    5.60
  -2  -9  14   18.10    7.21
  -2   9  14   18.23    8.71
   2   9  14   18.03    8.34
  -2  -9 -14   29.95    9.97
  -2  -9 -15  118.11   18.82
   2  -9 -15   90.31   16.41
  -2   9  15   90.86   15.97
   2  -9  15  103.21   16.54
  -2   9  15   86.34   16.07
  -2  -9  15  109.10   17.51
   2   9  15  139.92   20.02
   2  -9  15   98.12   16.43
  -2  -9  15  114.04   19.13
   2  -9  16   40.80   10.83
  -2  -9  16   55.21   13.99
  -2   9  16   37.82   10.72
  -2  -9  16   37.22   10.50
   2  -9 -16   51.92   12.58
   2   9  16   39.45   10.94
  -2  -9 -16   39.98   11.71
  -2   9  16   39.95   10.58
   2  -9  16   67.01   13.92
  -2  -9  16   39.49   11.41
  -2   9  17  188.54   23.47
  -2  -9 -17  174.37   24.43
   2  -9 -17  153.00   21.76
  -2  -9  17  176.19   23.29
   2  -9  17  227.02   26.39
   2  -9  17  181.23   23.80
  -2   9  17  184.94   24.43
   2   9  17  189.40   24.31
   2  -9  17  196.18   24.53
  -2  -9  17  174.17   23.92
  -2  -9  17  179.96   23.45
  -2  -9  18   15.07    7.08
   2  -9  18   15.11    7.88
  -2  -9  18    7.76    5.52
  -2   9  18    3.41    5.04
   2  -9 -18    5.67    2.04
  -2  -9 -18   12.54    7.42
  -2   9  18   15.02    3.51
   2   9  18    9.94    4.44
   2  -9  18    6.62    3.51
  -2  -9  18    9.72    6.04
   2  -9  18    7.16    3.71
   2  -9  19   14.12    5.83
   2  -9  19    6.41    3.82
  -2  -9  19   14.86    6.41
  -2   9  19   19.08    7.72
  -2   9  19   16.91    7.48
   2  -9 -19   14.44    6.35
  -2  -9  19   18.41    8.33
  -2  -9 -19   23.43    8.15
  -2  -9  19   13.81    5.92
   2   9  19   21.14    9.87
   2  -9  19    8.61    1.68
   2  -9  20    4.38    4.39
  -2  -9  20    4.02    4.02
  -2  -9 -20   -2.69    1.94
   2  -9 -20    0.19    5.89
  -2   9  20   -0.21    1.37
   2   9  20    6.41    6.20
  -2  -9  20   -2.64    2.71
  -2  -9  20   -2.27    0.95
  -2   9  20   -4.37    5.71
   2  -9  20   -2.63    6.39
   2  -9  20    1.92    2.23
  -2   9  21   34.27   10.09
   2  -9  21   52.08   14.94
  -2  -9 -21   38.13   11.32
  -2  -9  21   21.20    6.68
   2  -9 -21   46.42   13.58
   2  -9  21   26.73   10.26
  -2   9  21   39.11   11.67
   2   9  21   55.59   13.47
  -2  -9  21   28.98    9.95
  -2  -9  21   17.00    7.23
   2  -9  21   20.94    8.54
   2  -9  22   57.88   15.75
   2  -9  22   60.42   14.49
  -2  -9 -22   49.39   12.41
   2  -9 -22   41.63   13.21
  -2   9  22   43.17   13.02
  -2  -9  22   74.74   13.95
  -2  -9  22   40.02   10.81
  -2   9  22   35.29    9.97
   2   9  22   27.29    8.60
   2  -9  23   21.11   10.10
  -2  -9 -23    5.09    4.27
  -2  -9  23   13.87    7.74
   2  -9 -23   19.36    9.64
   2  -9  23   16.85    9.51
  -2   9  23   20.92    9.23
  -2   9  23   12.36    8.34
   2   9  23    6.00    1.55
  -2  -9 -24    0.46    3.76
  -2   9  24    0.14    2.90
   2  -9 -24    3.33    6.66
  -2  -9  24   -2.47    3.41
  -2   9  24    6.30    7.72
   2  -9  24   -4.70    6.48
   2  -9  24    1.97    4.91
   2   9  24    2.75    1.64
  -2   9  25   11.88    9.49
   2   9  25    6.55    6.46
  -2  -9 -25    1.25    8.12
   2  -9 -25    9.99    6.69
  -2   9  25    1.01    3.66
   2  -9  25   32.87    9.86
  -2  -9  25    6.67    5.02
   2  -9  25   28.13   11.36
   2  -9 -26    4.34    6.99
   2  -9  26    5.78    1.86
  -2  -9 -26   -5.67    5.17
  -2   9  26    9.96    5.70
  -2  -9  26    3.96    9.46
  -2   9  26   10.84    8.59
   2  -9  26   14.06   10.75
   2   9  26    0.29    1.21
  -2   9  27    4.34    8.57
   2  -9 -27  -10.31    8.24
  -2  -9  27   -2.64    5.90
  -2   9  27    1.52    3.64
  -2  -9 -27    5.76    7.08
   2  -9  27    2.76    2.14
   2  -9  27    9.61    8.36
   2   9  27    0.82    2.75
  -2 -10   0   47.67   10.78
  -2 -10   0   67.17   14.51
   2 -10   0   72.12   14.44
  -2 -10  -1    4.06    2.57
  -2 -10   1    5.00    5.42
   2 -10   1    6.49    4.41
  -2 -10  -1    5.78    4.23
   2 -10  -1    5.49    4.80
   2 -10  -1   13.38    6.13
   2 -10   1   13.61    6.63
  -2 -10   1    9.53    3.54
  -2 -10   2    0.34    2.06
   2 -10  -2    2.00    1.33
  -2 -10  -2    1.62    4.85
   2 -10  -2   -2.24    5.68
  -2 -10   2    1.90    3.11
   2 -10   2   -2.08    3.25
  -2 -10  -2    0.30    2.31
   2 -10   2    2.08    3.93
   2 -10  -3   10.47    6.72
   2 -10   3    4.75    4.32
  -2 -10   3   13.22    8.80
   2 -10   3    9.03    4.86
  -2 -10  -3    5.12    5.19
   2 -10  -3   -0.89    4.62
  -2 -10   3    0.74    3.23
  -2 -10  -3   -0.09    1.96
  -2 -10   4   56.86   12.56
   2 -10   4   59.66   12.33
  -2 -10   4   53.42   11.43
  -2 -10  -4   73.80   13.05
   2 -10   4   69.83   13.67
  -2 -10  -4   60.07   13.11
   2 -10  -4   59.06   12.49
   2 -10  -4   55.17   11.02
  -2 -10   5   13.00    6.25
   2 -10  -5   17.00    8.33
   2 -10   5   17.83    8.16
  -2 -10   5   25.91    7.61
   2 -10   5   15.07    8.07
  -2  10   5   20.66    7.84
  -2 -10  -5   22.23    7.57
   2 -10  -5   16.67    7.34
  -2 -10  -5   11.92    6.14
   2 -10   6  102.08   15.87
  -2 -10   6  106.59   15.75
  -2  10   6   98.07   16.74
   2 -10   6  113.33   16.80
   2 -10  -6   70.37   14.51
   2 -10  -6   75.15   14.13
  -2 -10  -6  101.33   15.17
  -2 -10  -6  112.83   18.39
  -2 -10   6   96.69   15.89
  -2 -10   7   -3.17    2.95
   2 -10   7    1.81    3.46
   2 -10  -7   -0.22    2.50
  -2 -10  -7    6.78    7.53
  -2  10   7    1.11    1.44
   2 -10  -7   -2.25    2.91
  -2 -10   7   -1.69    3.22
   2 -10   7    2.52    3.55
  -2 -10   8    8.75    3.50
   2 -10   8   12.95    6.10
   2 -10  -8   13.36    7.06
  -2 -10   8   14.39    6.82
   2 -10  -8   25.08   10.17
  -2 -10  -8   13.86    7.80
   2 -10   8   13.61    6.83
   2 -10   9    4.48    5.17
   2 -10  -9    2.73    1.83
  -2 -10  -9   -1.36    4.14
   2 -10  -9    4.19    3.13
  -2 -10   9    4.28    3.63
   2 -10   9    4.16    5.05
  -2 -10   9   -3.68    1.31
  -2  10   9    3.57    2.75
  -2 -10  10    2.10    0.61
   2 -10 -10    5.05    4.69
   2 -10  10   -0.46    1.57
   2  10  10    1.20    5.70
  -2 -10  10    2.60    2.87
   2 -10 -10   -0.48    3.78
   2 -10  10   -0.51    2.71
  -2 -10 -10    3.57    1.45
  -2  10  10   -1.49    4.39
  -2 -10  11   85.35   16.75
  -2 -10 -11   82.65   16.33
   2 -10 -11   86.97   15.43
  -2  10  11   69.53   14.33
   2 -10  11   77.66   14.57
  -2 -10  11   86.29   15.28
   2  10  11   57.20   12.15
   2 -10  11   84.47   16.65
   2 -10 -12   23.93    9.16
   2 -10  12   68.23   14.49
   2  10  12   31.81    9.88
  -2 -10  12   52.41   11.00
  -2 -10 -12   51.77   13.73
   2 -10  12   64.07   14.51
  -2  10  12   43.89   11.10
  -2 -10  12   42.67   12.43
  -2 -10  13    4.70    4.08
   2 -10  13    1.55    2.81
  -2 -10  13    3.65    2.02
   2 -10  13   11.91    6.77
   2 -10 -13    4.81    5.47
  -2  10  13    9.33    7.59
  -2 -10 -13    6.54    3.77
   2  10  13    3.00    4.40
   2 -10  14   34.87   11.04
  -2 -10  14   25.25    9.11
  -2 -10 -14   13.63    8.96
   2 -10  14   39.73   11.01
  -2  10  14   32.85   10.51
   2  10  14   29.61   10.00
  -2 -10  14   16.81    7.41
   2 -10 -14   15.11    7.76
  -2 -10  15   24.28    9.91
  -2 -10  15   21.92   10.15
   2 -10  15   33.00    9.86
   2 -10  15   39.05   12.05
  -2 -10 -15   42.82   12.26
  -2  10  15   38.66   11.42
  -2  10  15   40.42   11.34
   2 -10 -15   34.04   11.01
   2  10  15   32.56   11.39
  -2 -10  16   22.32    7.69
   2 -10 -16   12.73    6.76
  -2 -10  16   12.60    7.44
   2 -10  16   18.34    8.23
  -2  10  16    4.88    4.87
   2 -10  16    7.90    7.29
  -2  10  16   17.48    6.38
  -2 -10 -16   12.27    6.48
   2  10  16   20.04    9.82
   2 -10  17    1.92    4.67
  -2 -10  17   -0.21    3.24
  -2 -10 -17   -4.40    7.33
   2 -10  17    2.04    2.62
  -2  10  17   -1.54    2.16
   2 -10 -17    3.85    4.61
  -2 -10  17    0.29    2.64
  -2  10  17   -3.23    5.52
   2  10  17    0.89    4.28
   2 -10  17    8.66    7.86
   2 -10  18   23.13    9.50
   2 -10  18   36.01   12.67
  -2 -10  18   31.95   12.02
  -2 -10 -18   31.96   10.23
   2  10  18   13.98    7.13
  -2  10  18   43.01   11.44
  -2 -10  18   45.04   12.48
  -2  10  18   29.25   10.00
   2 -10 -18   30.84   10.45
   2 -10  18   28.00    9.11
   2 -10  19   33.22   10.66
  -2 -10  19   19.99    9.91
   2 -10  19   26.44    8.22
   2  10  19   15.86    7.04
  -2 -10 -19   40.97   13.04
  -2  10  19   18.09    9.32
   2 -10 -19   13.43    3.68
  -2  10  19   32.91   11.57
   2 -10  19   26.16    9.45
   2 -10  20    4.86    3.83
   2  10  20   -1.03    4.53
   2 -10 -20    8.57    5.30
  -2 -10  20    2.40    3.50
  -2  10  20    7.65    6.32
   2 -10  20    1.91    1.83
  -2  10  20    9.68    7.65
   2 -10  20    5.29    6.86
  -2 -10 -20    6.06    6.48
   2 -10  21   19.36    6.92
  -2 -10  21   19.68   10.44
  -2 -10 -21    5.58    2.35
   2 -10 -21   26.67    9.56
  -2  10  21    3.40    6.88
  -2  10  21   17.39    8.68
   2  10  21   18.01    9.06
   2 -10  21   11.15    6.12
   2 -10  21   11.14    8.13
   2 -10  22   58.32   14.45
  -2 -10 -22   46.09   13.52
  -2  10  22   91.71   18.43
   2 -10 -22   46.77   13.01
   2 -10  22   45.70   13.22
  -2 -10  22   35.34   12.64
  -2  10  22   65.19   16.05
   2  10  22   67.74   14.57
   2 -10  22   49.20   14.31
   2 -10  23   19.08    9.56
  -2  10  23   31.03   12.26
  -2 -10  23   17.47    9.64
   2 -10 -23   11.97    6.39
  -2 -10 -23   36.51   12.57
  -2  10  23    2.66    5.11
   2 -10  23    8.99    6.01
   2  10  23    7.14    6.68
   2 -10  24   11.42    6.89
  -2  10  24    4.39    4.29
   2 -10 -24    2.97    1.20
  -2 -10 -24    9.31    7.80
  -2  10  24    9.78    4.86
   2 -10  24   15.06    7.41
   2  10  24   12.88    6.48
  -2 -10 -25   -1.21    6.36
   2 -10  25    0.19    0.45
  -2  10  25   -5.02    6.52
   2 -10 -25   -3.27    6.20
   2 -10  25    4.92    3.15
   2  10  25    6.45    6.31
   2 -11   0  208.67   25.29
  -2 -11   0  229.66   26.93
   2 -11   0  191.36   24.28
  -2 -11   0  243.37   25.14
  -2 -11  -1    5.30    2.61
  -2 -11   1   15.56    7.77
  -2 -11   1   15.72    8.36
  -2 -11  -1   15.74    7.50
   2 -11  -1    9.53    7.42
   2 -11   1   21.50    9.45
   2 -11   1   11.31    4.20
   2 -11  -1   15.70    6.48
   2 -11  -2   -2.04    2.81
   2 -11   2   -0.07    1.70
  -2 -11  -2    5.67    6.34
  -2 -11  -2    0.02    5.19
   2 -11  -2    7.10    5.88
  -2 -11   2    5.92    1.51
   2 -11   2    8.07    6.71
  -2 -11   2   -2.19    3.32
   2 -11   3    5.68    7.84
   2 -11  -3   14.39    7.35
  -2 -11  -3    1.37    3.89
  -2 -11   3    6.24    5.12
   2 -11  -3    0.59    0.78
   2 -11   3    3.78    4.72
  -2 -11  -3    1.26    1.77
  -2 -11   3    2.16    2.29
   2 -11   4  499.95   39.27
  -2 -11  -4  471.46   38.57
   2 -11  -4  466.64   38.81
  -2 -11   4  525.28   37.06
   2 -11   4  484.80   37.74
  -2 -11   4  550.48   41.89
   2 -11  -4  496.39   38.43
  -2 -11  -4  447.02   35.89
  -2 -11   5   15.08    7.16
  -2 -11   5   16.77    6.03
   2 -11  -5   27.85   10.41
   2 -11   5   14.17    7.54
  -2 -11  -5   13.48    4.80
  -2 -11  -5   12.60    5.24
   2 -11  -5    4.52    3.02
   2 -11   5   12.68    4.67
   2 -11  -6  114.10   18.37
  -2 -11   6   96.48   16.66
  -2 -11   6   92.33   15.14
  -2 -11  -6   98.86   17.40
   2 -11   6   78.95   14.96
   2 -11   6   47.10   11.46
   2 -11  -6   91.92   17.26
  -2 -11  -6   71.79   13.44
  -2  11   6   65.49   14.88
  -2 -11   7  168.00   21.00
   2 -11   7  180.58   23.63
   2 -11   7  170.63   22.58
  -2 -11  -7  174.46   24.19
   2 -11  -7  151.88   20.77
  -2 -11  -7  164.10   21.98
  -2  11   7  184.43   22.80
  -2 -11   7  128.43   20.11
   2 -11  -7  184.73   23.66
   2 -11   8    5.23    7.28
  -2 -11   8   21.59    8.13
  -2 -11  -8    5.35    4.27
  -2 -11   8   13.87    7.23
   2 -11  -8   11.84    1.44
  -2  11   8   13.91    6.91
  -2 -11  -8   13.94    7.35
   2 -11   8   12.76    6.59
   2 -11  -8    6.12    3.78
   2 -11  -9   26.22    8.57
   2 -11  -9   27.03   10.36
  -2 -11   9   45.41   12.63
   2 -11   9   30.96    8.84
  -2 -11  -9   58.96   13.36
  -2  11   9   34.06   10.61
   2 -11   9   44.15   10.55
  -2 -11   9   36.90   11.67
  -2  11  10  182.25   24.63
   2 -11  10  196.88   25.34
   2 -11 -10  186.71   24.96
   2 -11 -10  242.50   27.84
   2 -11  10  203.54   24.84
  -2 -11 -10  211.70   26.02
  -2 -11  10  214.42   25.97
  -2 -11  10  181.91   23.24
   2 -11  11    1.82    6.19
  -2 -11  11    4.89    4.57
   2 -11 -11    1.37    3.46
  -2 -11  11    0.91    4.40
   2 -11 -11   -0.09    3.19
   2 -11  11    0.13    2.30
  -2 -11 -11   -0.48    6.02
  -2  11  11    0.36    2.83
   2 -11 -12   46.66   11.88
   2 -11  12   37.94   11.12
  -2 -11 -12   38.00   11.57
   2 -11 -12   28.78   10.62
  -2 -11  12   45.00   12.81
   2  11  12   51.22   13.48
  -2 -11  12   48.07   11.20
   2 -11  12   65.49   14.50
  -2  11  12   50.78   12.13
  -2 -11 -13   23.26    8.80
  -2 -11  13   24.86   10.61
   2 -11  13   46.79   13.29
  -2 -11  13   26.94   10.13
   2 -11  13   35.40   10.70
   2 -11 -13   30.05   10.63
  -2  11  13   21.69    9.26
   2  11  13   19.63    6.58
   2 -11  14  103.90   17.76
  -2 -11 -14   83.94   16.88
  -2 -11  14   46.30   13.84
  -2  11  14   50.68   12.62
  -2 -11  14   85.32   18.52
   2 -11  14   81.03   16.18
   2  11  14   76.79   15.73
   2 -11 -14   74.25   16.13
  -2 -11  15   -1.55    2.48
   2  11  15   12.35    6.72
   2 -11  15    5.57    2.18
   2 -11  15   -0.33    1.47
  -2  11  15   11.45    7.24
  -2 -11 -15    9.26    2.32
   2 -11 -15    0.05    2.94
   2 -11  16   17.58    7.82
  -2 -11  16   26.24   10.68
   2  11  16   26.47    9.13
   2 -11  16   23.83    9.22
  -2 -11 -16   24.87    9.78
  -2  11  16   17.97    6.70
   2 -11 -16    6.95    2.13
   2 -11  16   38.14   11.94
   2 -11  17   -2.52    4.39
   2 -11 -17    0.61    4.14
  -2 -11  17   -3.64    5.60
  -2 -11 -17   -0.84    3.90
   2  11  17    5.30    6.10
   2 -11  17   -0.19    2.92
   2 -11  17    7.29    5.54
  -2 -11  18   19.10    7.44
   2 -11  18   16.30    8.67
   2 -11  18   37.75   12.00
   2 -11  18   48.03   15.62
  -2  11  18   21.71    9.01
  -2 -11 -18    6.67    4.87
   2 -11 -18   31.03   10.98
   2  11  18    7.50    3.49
   2 -11  19    2.39    6.86
  -2 -11  19   11.35    8.85
   2 -11  19    1.89    4.97
   2 -11  19    6.57    6.11
  -2 -11 -19    3.29    4.10
  -2  11  19    7.05    6.04
   2  11  19    5.14    6.75
   2 -11 -19   -0.48    3.25
   2 -11  20   10.32    5.64
  -2 -11  20    0.42    2.81
  -2 -11 -20   10.68    7.84
   2 -11 -20   -1.44    4.64
   2 -11  20    1.03    3.08
  -2  11  20    7.35    2.78
   2  11  20    3.33    6.26
   2 -11  20   14.27    7.84
   2 -11  21   12.94    8.78
  -2 -11 -21   10.23    4.16
   2  11  21    8.70    3.67
   2 -11 -21    0.58    3.40
  -2 -11  21    8.95    7.77
  -2  11  21   10.33    6.01
   2 -11  21   10.47    5.39
   2 -11  21    0.31    2.60
   2 -11  22   -1.58    2.93
   2 -11 -22   -3.09    4.20
  -2 -11  22    0.94    3.11
  -2 -11 -22   -4.55    4.51
   2 -11  22    7.68    2.48
  -2  11  22   -1.48    4.34
   2  11  22    4.38    3.44
   2 -11  22    2.36    4.31
   2 -11 -23   16.06    8.51
   2 -11  23   14.41    6.33
  -2  11  23    6.56    3.38
   2  11  23   11.31    3.31
   2 -11  23   14.19    9.80
   2 -11  23    5.82    7.23
  -2 -11  23    5.07    5.35
  -2 -11 -23    9.71    5.37
   2 -11 -24    5.73    3.90
   2  11  24   22.02    9.67
   2 -11  24   18.28    8.61
  -2 -11 -24   15.83    8.93
  -2  11  24   19.60   10.86
   2 -11  24   15.04    7.76
  -2 -12   0   37.00   11.00
  -2 -12   0   58.54   13.64
   2 -12   0   37.06   11.12
   2 -12   0   43.83   12.64
   2 -12   1   17.46    8.35
  -2 -12   1   20.27    8.66
   2 -12   1   13.46    8.12
   2 -12  -1   33.07   10.84
  -2 -12   1   19.33    8.89
  -2 -12  -1   12.54    3.36
  -2 -12  -1   27.65    9.44
   2 -12  -1   31.76   11.17
   2 -12  -2    5.33    6.14
  -2 -12  -2   15.78    7.48
  -2 -12   2   24.83    8.03
   2 -12   2   24.39   10.45
  -2 -12  -2   11.87    0.96
   2 -12  -2    6.50    4.87
  -2 -12   2   16.69    7.52
   2 -12   2   10.48    5.36
   2 -12  -3   19.03    8.27
   2 -12   3   11.68    8.18
  -2 -12   3   10.59    6.54
  -2 -12  -3   19.86    7.62
   2 -12  -3   11.61    5.24
  -2 -12  -3    6.95    5.26
   2 -12   3   11.64    4.47
  -2 -12   3   22.41    8.16
  -2 -12  -4   -1.12    4.62
  -2 -12   4    8.29    5.71
  -2 -12   4   22.13    8.87
   2 -12   4   15.03    8.08
   2 -12   4    7.63    4.92
   2 -12  -4   13.09    6.67
  -2 -12  -4   18.67    9.94
   2 -12  -4   16.19    6.78
  -2 -12   5    3.24    1.28
   2 -12   5    4.67    5.66
  -2 -12  -5    8.95    6.28
  -2 -12   5   18.75    9.19
   2 -12   5    0.42    5.30
  -2 -12  -5   15.76    8.02
   2 -12  -5    4.73    4.39
   2 -12  -5    8.51    7.99
  -2 -12  -6    5.34    1.32
   2 -12  -6   -0.05    2.92
  -2 -12   6   -0.80    5.02
  -2 -12  -6   10.85    7.51
   2 -12  -6    2.31    4.34
   2 -12   6    2.67    4.07
   2 -12   6    5.68    4.34
  -2 -12   6   -3.53    5.98
  -2 -12   7    1.86    2.56
   2 -12   7    0.07    4.44
  -2 -12  -7    2.60    3.99
   2 -12  -7   -0.14    3.42
  -2 -12  -7    7.50    6.23
   2 -12   7   -0.39    2.90
  -2 -12   7    8.35    7.76
   2 -12  -7    4.99    4.51
   2 -12  -8   12.04    6.86
  -2 -12   8   -2.45    3.09
   2 -12   8    0.96    5.85
  -2 -12   8    0.50    1.96
  -2 -12  -8   14.75    5.72
   2 -12  -8    7.25    5.59
  -2 -12  -8    7.53    3.98
   2 -12   8    9.54    6.16
  -2 -12   9   16.16    5.54
   2 -12   9   24.84    9.50
  -2 -12  -9   13.73    8.13
   2 -12  -9   13.97    7.02
   2 -12  -9   19.32    7.07
  -2 -12  -9    5.70    3.68
   2 -12   9   20.29    9.34
  -2 -12   9   15.79    5.96
  -2 -12  10   -0.68    4.78
  -2 -12 -10   -3.92    1.29
  -2 -12  10   12.91    8.76
   2 -12 -10   -2.14    3.66
   2 -12  10    1.88    4.47
  -2 -12 -10    1.61    2.54
   2 -12  10    5.86    6.43
   2 -12 -10   -1.76    2.01
  -2 -12  11   18.91    8.85
   2 -12  11   18.38    9.67
   2 -12 -11   24.80   11.35
  -2 -12 -11    8.63    4.47
   2 -12  11   30.21   10.44
   2 -12 -11    3.84    2.67
  -2 -12  12   -3.58    6.27
   2 -12  12    3.45    3.91
   2 -12  12    8.19    7.56
  -2 -12 -12    2.96    3.19
   2 -12 -12    9.05    6.06
   2 -12 -12    8.54    6.06
   2 -12  13    3.99   11.56
  -2 -12  13    2.07    2.25
   2 -12 -13   -0.38    4.05
  -2 -12 -13   -2.51    4.49
   2 -12  13    3.39    6.21
   2 -12 -13    3.02    3.30
   2 -12 -14    7.51    6.57
  -2 -12  14    0.65    2.72
   2 -12  14    1.79    3.12
   2 -12  14    1.19    2.14
   2 -12 -14   12.83    7.85
  -2 -12 -14    4.90    3.85
  -2 -12  15    3.21    4.10
   2 -12  15    9.47    5.96
   2 -12  15    3.67    4.97
   2 -12 -15   13.79    6.69
  -2 -12 -15   12.00    7.23
   2 -12 -15    2.81    4.84
   2  12  15   18.61    9.52
   2 -12 -16   -0.75    6.90
  -2 -12  16    6.25    6.97
   2 -12  16    3.79    3.59
  -2 -12 -16    0.59    2.70
   2  12  16    7.74    4.28
   2 -12  16    9.18    6.14
   2 -12  16   -0.57    4.15
   2 -12  17   -0.74    1.52
  -2 -12  17   -5.86    7.88
   2 -12  17   -3.29    4.61
   2 -12 -17   11.68    7.70
   2 -12  17    1.41    2.65
  -2 -12 -17    7.93    7.58
   2  12  17   -2.61    3.46
   2 -12  18    5.83    5.23
   2  12  18  -10.92    8.71
  -2 -12 -18   15.45    5.33
   2 -12 -18   15.30    8.38
  -2 -12  18    8.45    6.37
   2 -12  18    2.89    4.54
   2 -12  18    1.15    5.79
   2 -12  19    9.78    6.92
  -2 -12 -19    9.80    4.91
  -2 -12  19   11.05    9.64
   2 -12 -19   16.45    8.17
   2 -12  19   14.84    7.69
   2  12  19   17.71    9.98
   2 -12  19   10.82    6.78
  -2 -12  20    2.19    4.33
   2 -12  20   -2.08    6.15
   2 -12  20   -1.35    2.56
   2 -12 -20   -0.51    1.74
  -2 -12 -20   -0.83    1.77
   2 -12  20   -3.65    3.86
   2  12  20    1.20    3.59
  -2 -12 -21    3.22    5.71
   2 -12  21   -3.18    4.55
   2 -12 -21    3.96    2.95
   2 -12  21    1.83    1.41
  -2 -12  21    8.21    7.79
   2  12  21   13.93   10.40
   2 -12  21    1.54    0.69
   2 -12  22    3.72    1.81
   2 -12 -22    7.69    4.89
  -2 -12 -22   -0.11    3.21
   2 -12  22   -4.51    8.70
  -2  12  22   -0.57    5.24
   2  12  22   -2.96    2.00
  -2 -12  22    4.17    1.07
   2 -12  22    3.23    5.90
  -2 -13   0  162.33   24.29
   2 -13   0  191.92   26.15
   2 -13   0  154.60   22.49
  -2 -13   0  122.27   19.66
   2 -13   1   25.23    9.91
  -2 -13   1   59.15   14.43
   2 -13   1   42.45   12.90
  -2 -13  -1   61.08   15.04
   2 -13  -1   39.52   12.21
  -2 -13   1   41.56   11.38
   2 -13  -1   58.65   13.74
  -2 -13  -1   44.37   12.28
   2 -13   2    1.30    1.54
  -2 -13  -2   12.96    8.31
   2 -13  -2    6.34    4.74
  -2 -13   2    9.04    6.37
   2 -13   2   -1.29    4.40
   2 -13  -2    2.45    1.25
  -2 -13   2   -0.76    5.38
  -2 -13  -2    2.45    5.29
   2 -13  -3    2.56    3.28
  -2 -13  -3    7.06    6.29
  -2 -13   3    2.13    1.93
   2 -13   3    2.36    1.49
   2 -13   3   13.37    8.03
   2 -13  -3   -4.31    2.84
  -2 -13  -3   14.11    6.09
  -2 -13   3   17.47    8.85
   2 -13  -4   23.33    9.14
   2 -13   4   10.09    6.40
  -2 -13   4   14.49    5.99
   2 -13   4   22.31    9.70
  -2 -13  -4   15.79    7.90
  -2 -13   4   19.36    7.42
  -2 -13  -4   29.50   10.44
   2 -13  -4   32.02   12.64
  -2 -13   5   13.89    7.46
   2 -13   5   10.13    6.06
   2 -13  -5    4.92    6.92
  -2 -13  -5   -0.07    3.28
  -2 -13  -5   11.59    9.19
   2 -13  -5    2.96    1.88
   2 -13   5   17.19    7.45
  -2 -13   5    4.83    6.09
  -2 -13   6   34.07   11.46
   2 -13   6   32.94   10.63
  -2 -13  -6   26.82   11.02
  -2 -13  -6   12.44    6.12
   2 -13  -6   18.15    8.78
   2 -13  -6   16.46    9.25
  -2 -13   6   -3.38    1.61
   2 -13   6   17.39    8.40
  -2 -13   7   96.86   17.22
  -2 -13  -7   81.59   17.47
   2 -13   7   55.73   13.89
   2 -13  -7   61.07   14.88
  -2 -13  -7   96.35   18.50
   2 -13  -7   94.53   18.40
   2 -13   7   66.46   14.05
  -2 -13   8    1.35    4.40
   2 -13   8   -5.67    6.73
  -2 -13  -8    4.73    4.41
  -2 -13  -8    0.23    5.65
   2 -13  -8   -6.67    7.85
   2 -13   8    5.22    4.27
   2 -13  -8    8.98    7.92
   2 -13  -9   26.47   10.11
  -2 -13   9   33.83   12.04
   2 -13   9   19.76    8.45
  -2 -13  -9   36.96   12.97
   2 -13  -9   36.96   12.82
  -2 -13  -9   22.75    8.22
   2 -13   9   16.35    6.88
  -2 -13  10    8.56    2.08
   2 -13  10   17.50    8.98
  -2 -13 -10   15.54    6.97
   2 -13 -10   12.18    7.63
   2 -13  10   14.64    6.68
  -2 -13 -10   29.18    9.32
   2 -13 -10   21.74    9.72
  -2 -13  11   27.55    9.31
   2 -13  11   41.37   12.99
   2 -13 -11   45.85   12.30
  -2 -13 -11   28.03   10.64
   2 -13 -11   26.60    9.32
  -2 -13 -11   30.01    9.51
   2 -13  11   30.91   10.96
   2 -13  12    1.91    3.50
  -2 -13  12   34.47   11.90
  -2 -13 -12   16.22    7.70
   2 -13  12   23.77   10.82
  -2 -13 -12   15.53    9.35
   2 -13 -12    5.33    4.42
   2 -13 -12   14.20    5.97
   2 -13 -13    7.93    7.47
  -2 -13  13   -1.49    4.81
   2 -13  13    5.48    4.91
   2 -13  13    5.28    6.55
  -2 -13 -13    6.41    7.26
  -2 -13 -13    6.88    6.51
   2 -13 -13    8.38    8.07
  -2 -13  14    2.46    5.41
   2 -13  14    1.82    4.79
   2 -13  14    5.61    5.37
   2 -13 -14   -2.29    4.98
  -2 -13 -14   -4.86    6.58
   2 -13 -14    6.99    5.55
  -2 -13  15   15.12    6.84
   2 -13  15   26.36   10.03
  -2 -13 -15    8.68    3.74
   2 -13 -15   20.09    9.43
   2 -13 -15    8.32    3.60
   2 -13 -16   -0.77    2.27
  -2 -13  16    4.53    5.07
   2 -13  16   -1.56    3.48
   2 -13 -16   -1.52    4.03
   2 -13  16   -2.37    5.16
  -2 -13 -16   -0.87    4.10
   2 -13  17   15.35    8.22
  -2 -13  17   22.92   11.02
   2 -13 -17    9.90    6.53
   2 -13  17    5.79    5.18
  -2 -13 -17   11.88    5.85
   2 -13 -17    7.82    4.38
   2 -13  18    9.33    7.60
  -2 -13  18   -1.21    1.53
   2 -13 -18    3.05    5.22
  -2 -13 -18    9.27    5.73
   2 -13  18    2.67    4.02
   2 -13 -18   -1.42    3.19
   2 -13  19   -1.27    1.25
  -2 -13 -19   -1.37    1.87
   2  13  19    0.37    1.77
   2 -13  19    3.41    4.32
   2 -13 -19    1.20    2.16
  -2 -14   0   50.87   14.16
   2 -14   0   41.10   12.42
   2 -14   0   42.26   12.37
  -2 -14   0   40.91   13.42
   2 -14   1    6.50    5.89
  -2 -14   1   -0.13    4.28
   2 -14   1   -2.24    4.22
   2 -14  -1   -4.05    4.94
   2 -14  -1    1.01    1.98
  -2 -14   1   -1.39    4.17
  -2 -14  -1    3.30    2.88
  -2 -14  -1    0.37    3.41
   2 -14  -2   -3.55    5.05
  -2 -14   2    0.08    7.12
   2 -14   2    5.39    7.22
   2 -14  -2   -5.67    3.61
   2 -14   2   -0.42    4.19
  -2 -14  -2    1.19    3.16
  -2 -14  -2   -4.98    6.25
   2 -14   3   27.19    9.09
  -2 -14   3   35.10   11.59
   2 -14   3   31.44   13.18
  -2 -14  -3   20.15    8.62
   2 -14  -3   17.20   10.31
   2 -14  -3   13.08    7.12
  -2 -14  -3   14.75    8.47
   2 -14  -4   16.95    8.52
  -2 -14  -4    6.82    4.22
   2 -14   4    4.79    4.52
  -2 -14   4    2.53    5.92
   2 -14   4   11.88    6.88
  -2 -14  -4    3.21    4.69
   2 -14  -4   14.89    8.23
   2 -14   5    4.16    6.16
   2 -14  -5    4.76    3.07
  -2 -14   5   -2.20    5.28
   2 -14   5    5.15    3.19
  -2 -14  -5    7.54    4.69
  -2 -14  -5   -3.23    5.07
   2 -14  -5    2.70    3.24
  -2 -14   6    5.63    6.63
   2 -14   6   -1.98    1.31
   2 -14  -6    2.67    5.39
  -2 -14  -6    2.79    2.77
   2 -14  -6   -6.46    5.09
  -2 -14  -6   -0.13    2.64
   2 -14   6    7.51    8.52
  -2 -14   7   25.75    9.67
   2 -14   7   23.62   11.81
   2 -14   7   23.24    8.72
  -2 -14  -7   22.13   10.14
  -2 -14  -7   -0.37    5.87
   2 -14  -7   15.46    7.93
   2 -14  -7   24.47    9.35
   2 -14  -8    9.82    4.62
  -2 -14   8    7.32    5.08
   2 -14   8   10.97    8.87
  -2 -14  -8    9.60    7.74
   2 -14  -8    2.39    4.66
   2 -14   8   12.95    6.37
  -2 -14  -8   15.73    9.07
  -2 -14   9   11.09    8.93
  -2 -14  -9   -1.76    6.11
  -2 -14  -9   -0.96    3.74
   2 -14   9    5.28    5.59
   2 -14  -9   -2.28    3.56
   2 -14   9   -3.62    4.25
   2 -14  -9   -0.84    1.84
  -2 -14  10   -1.21    4.96
   2 -14  10   -2.09    1.76
  -2 -14 -10   -4.52    7.73
  -2 -14 -10    1.13    5.60
   2 -14 -10    0.05    7.07
   2 -14  10    3.65    2.77
   2 -14 -10    0.19    1.11
  -2 -14 -11    1.48    4.02
   2 -14 -11    0.51    5.52
  -2 -14  11    5.16    4.15
   2 -14  11   -1.09    1.19
   2 -14  11    1.30    2.58
  -2 -14 -11   -5.01    6.28
   2 -14 -11   -0.44    4.26
  -2 -14  12   -1.17    5.52
   2 -14 -12    0.54    2.10
  -2 -14 -12   -4.38    6.19
   2 -14 -12    5.17    7.38
  -2 -14 -12   -2.24    3.33
   2 -14  12   -5.89    6.04
   2 -14  12    7.41    5.42
  -2 -14 -13    1.49    1.14
  -2 -14  13    4.65    2.98
   2 -14  13   14.95    6.97
  -2 -14 -13    3.63    2.48
   2 -14  13    1.26    1.53
   2 -14 -13    9.99    7.09
   2 -14 -13   10.93    7.64
   2 -14 -14   15.29    7.14
  -2 -14  14   -0.79    2.45
   2 -14  14   10.30    7.24
   2 -14  14    9.62    5.19
  -2 -14 -14    5.13    1.24
   2 -14 -14   16.75    8.54
  -2 -14 -14    2.98    7.53
  -2 -14  15   -4.78    6.80
   2 -14  15   -5.05    7.91
   2 -14  15    2.29    1.80
  -2 -14 -15   -0.61    1.65
  -2 -14 -15   12.34   10.50
   2 -14 -15   -4.06    5.10
   2 -14 -15   10.56    7.87
  -2 -14  16    4.09    5.43
   2 -14  16    4.46    3.44
   2 -14 -16    2.94    4.12
   2 -14 -16   -3.40    3.23
   2 -14  16   -0.65    6.43
  -2 -14 -16    6.28    5.91
  -2 -14 -16   -8.09    4.27
   2 -14  17    1.10    2.86
  -2 -14  17   -4.41    6.26
   2 -14  17    2.36    4.30
   2 -14 -17    8.00    7.44
  -2 -14 -17    2.17    4.84
   2 -14 -17   -3.76    2.28
   2 -15   0   28.53    9.36
   2 -15   0   19.61    6.55
  -2 -15   0   36.57   10.93
  -2 -15   1    9.91    7.48
   2 -15   1    4.01    4.34
  -2 -15  -1   15.60   10.75
   2 -15  -1   -5.41    4.70
   2 -15   1   -1.77    3.31
   2 -15  -1    4.17    3.53
  -2 -15   2   -1.27    5.05
   2 -15   2   -5.62    6.52
   2 -15  -2   10.39    6.01
   2 -15   2   -1.14    5.37
   2 -15  -2   -1.08    1.29
  -2 -15  -2    8.93    6.77
  -2 -15   3   29.88    9.98
   2 -15   3   29.63   11.50
  -2 -15  -3   26.98   11.32
   2 -15  -3   26.60    9.26
   2 -15  -3   21.82   10.50
   2 -15   3   24.60    9.58
  -2 -15   4   61.23   15.52
   2 -15   4   27.08   10.01
  -2 -15  -4   24.08    9.01
   2 -15   4   41.66   12.69
   2 -15  -4   39.83   13.48
   2 -15  -4   43.94   12.84
   2 -15   5    5.10    4.08
  -2 -15   5    4.55    5.91
   2 -15   5    4.37    5.61
  -2 -15  -5    4.13    3.67
   2 -15  -5   -1.51    2.47
  -2 -15  -5    9.99    8.66
   2 -15  -5    4.21    2.02
   2 -15  -6   21.69    8.41
  -2 -15   6   15.53    8.70
  -2 -15  -6   16.38   10.78
   2 -15   6    9.66    4.12
  -2 -15  -6   12.11    4.04
   2 -15  -6   29.22   11.21
   2 -15   6   22.93   10.22
  -2 -15   7   34.32   12.42
   2 -15  -7   30.49   11.84
   2 -15   7   25.35    9.70
  -2 -15  -7   17.31    7.72
  -2 -15  -7   27.43   13.03
   2 -15  -7    8.72    8.72
   2 -15   7   27.99   11.00
   2 -15   8   72.90   17.30
  -2 -15   8   97.30   20.57
  -2 -15  -8   70.88   16.52
   2 -15  -8   64.58   16.01
  -2 -15  -8   43.51   13.40
   2 -15   8   43.99   12.91
   2 -15  -8   88.26   18.81
  -2 -15   9    1.24    1.58
  -2 -15  -9    1.62    5.22
   2 -15  -9    6.32    6.27
   2 -15  -9    9.11    6.58
   2 -15   9    0.78    2.22
   2 -15   9   -0.92    5.93
  -2 -15  -9    2.78    3.03
   2 -15 -10    8.33    5.93
  -2 -15 -10    3.94    2.10
   2 -15 -10   -1.19    4.43
  -2 -15 -10   12.14    8.52
   2 -15  10   19.91   10.73
  -2 -15  10   -3.51    7.01
   2 -15  10    7.30    4.84
  -2 -15 -11    6.97    8.66
   2 -15  11    4.01    2.75
  -2 -15  11    4.37    5.24
  -2 -15 -11   -8.89    4.83
   2 -15 -11    3.18    5.55
   2 -15  11   -0.19    0.63
   2 -15 -11    8.16    7.41
  -2 -15  12    3.86    2.98
  -2 -15 -12    8.73    7.82
  -2 -15 -12   11.67    8.81
   2 -15 -12   14.91    9.83
   2 -15  12    9.40    8.48
   2 -15  12    6.93    9.32
   2 -15 -12    4.06    3.72
   2 -15 -13   -3.53    5.06
   2 -15  13    1.30    5.66
  -2 -15  13    1.74    6.61
  -2 -15 -13   -7.02    7.77
   2 -15  13   -4.72    6.64
   2 -15 -13   -4.95    4.38
  -2 -15 -13   -2.17    2.37
  -2 -16   0   19.88    9.09
   2 -16   0   22.51    9.45
   2 -16   0   14.30    9.47
  -2 -16   1    3.91    3.91
   2 -16   1   -4.33    4.93
   2 -16  -1   -2.08    4.74
   2 -16   1   -3.90    3.82
   2 -16  -1    2.10    5.23
  -2 -16  -1    3.47    1.24
   2 -16   2   -4.37    4.71
  -2 -16   2   -6.41    7.96
   2 -16   2   -5.37    4.43
  -2 -16  -2    3.68    4.21
   2 -16  -2    3.27    5.80
   2 -16  -2    4.33    2.99
   2 -16   3    2.85    6.03
  -2 -16   3    0.26    5.47
   2 -16   3    2.38    4.53
  -2 -16  -3   -4.30    6.16
   2 -16  -3    0.60    2.64
   2 -16  -3    0.34    0.47
   2 -16   4   14.36    7.91
   2 -16   4    2.81    4.31
  -2 -16  -4   -0.06    4.19
  -2 -16   4    0.86    3.47
   2 -16  -4    2.78    3.55
  -2 -16   5    8.92    6.47
   2 -16   5   -9.41    7.46
  -2 -16  -5    7.54    5.40
   2 -16  -5   -0.60    1.82
   2 -16   5   -2.05    4.01
   2 -16  -5    1.63    7.39
  -2 -16   6    0.53    4.96
  -2 -16  -6    0.60    5.95
   2 -16  -6   11.74    3.61
   2 -16   6    3.42    5.38
   2 -16   6    3.52    3.70
   2 -16  -7    2.81    1.66
  -2 -16   7    8.11    5.07
  -2 -16  -7    3.22    3.60
   2 -16  -7   -5.40    7.26
   2 -16   7   -5.69   10.63
   2 -16   7    6.07    3.97
  -3   0   0   -0.15    2.19
   3   0   0    0.17    0.11
  -3   0  -1   -0.15    0.24
   3   0  -1    0.59    0.98
   3   0   1   -0.26    0.26
   3   0   2  683.71   20.85
  -3   0   2  728.29   26.99
   3   0   3    0.18    0.92
  -3   0   3    1.22    2.08
   3   0   4   50.37    6.60
  -3   0   4   48.77    5.37
  -3   0   4   55.66    8.08
  -3   0   5    2.82    2.25
  -3   0   5   -0.66    1.39
   3   0   5   -1.15    1.93
   3   0   6   37.67    6.61
  -3   0   6   35.77    6.55
  -3   0   6   46.12    6.03
  -3   0   7   -0.01    1.49
  -3   0   7    0.95    3.28
   3   0   7    0.86    1.23
  -3   0   8   11.37    3.83
   3   0   8    7.41    2.29
  -3   0   8    8.06    4.36
  -3   0   9    4.20    3.04
  -3   0   9   -0.63    1.29
   3   0   9   -2.63    3.39
   3   0  10  118.98   13.69
  -3   0  10  135.01   12.88
  -3   0  11   -0.01    1.39
   3   0  11   -1.20    2.14
  -3   0  11    0.92    3.89
  -3   0  12   16.49    5.29
   3   0  12   14.12    5.07
  -3   0  12   15.26    5.77
  -3   0  13   -0.65    2.02
   3   0  13    0.17    2.05
  -3   0  13    0.58    1.73
  -3   0  14    0.71    2.89
   3   0  14   -0.03    3.06
  -3   0  14   -0.98    2.77
   3   0  14    1.41    2.44
   3   0  15    3.44    5.20
  -3   0  15   -0.46    1.91
  -3   0  15    0.08    1.12
   3   0  15    0.48    2.11
  -3   0  16    0.05    3.40
  -3   0  16    2.90    3.05
   3   0  16    0.29    1.32
   3   0  16    1.60    2.96
  -3   0  17   -2.88    3.46
   3   0  17    4.45    6.62
   3   0  17    1.11    4.81
  -3   0  17    2.83    1.65
   3   0  18  539.08   37.88
  -3   0  18  538.28   35.63
  -3   0  18  472.35   34.78
   3   0  18  448.43   34.03
  -3   0  19   -0.85    3.53
  -3   0  19    2.71    4.40
   3   0  19   -3.98    5.02
   3   0  19    0.32    2.30
   3   0  20    5.06    5.54
  -3   0  20    0.32    0.57
  -3   0  20    1.59    2.80
   3   0  20   -2.32    3.65
   3   0  21    5.13    5.80
  -3   0  21   -2.22    2.32
  -3   0  21    4.36    1.04
   3   0  21   -1.60    3.43
  -3   0  22    1.14    2.78
   3   0  22    0.93    1.55
  -3   0  22    9.87    7.10
   3   0  22    0.66    5.35
   3   0  23    7.12    6.93
  -3   0  23   -0.47    4.57
   3   0  23    1.43    1.71
  -3   0  23   -0.48    3.90
  -3   0  24    0.71    2.89
  -3   0  24   -1.61    2.72
   3   0  24    6.82    7.17
   3   0  24    1.47    3.47
   3   0  25   -2.38    6.09
  -3   0  25    0.81    3.51
   3   0  25   -1.03    4.39
  -3   0  25   -4.05    6.29
  -3   0  26   14.65    9.06
   3   0  26    6.00    7.31
  -3   0  26   11.10    7.31
   3   0  26   19.68    8.64
  -3   0  27   -0.87    1.45
   3   0  27   -1.17    3.82
   3   0  27    2.86    4.27
  -3   0  27   -2.48    5.55
  -3   0  28   -2.85    0.99
   3   0  28   -0.73    3.11
   3   0  28    0.44    1.61
  -3   0  28   -0.03    5.78
  -3   0  29   -0.74    3.06
   3   0  29   -0.30    4.43
  -3   0  29    2.62    2.46
   3   0  29   -2.12    5.02
  -3   0  30   -0.73    6.08
   3   0  30   14.29    7.59
   3   0  30    6.50    5.98
  -3   0  30   13.60    6.58
  -3   0  31    5.40    5.07
   3   0  31   10.61    7.39
   3   0  31   -1.41    1.89
  -3   0  31   -8.67    8.02
  -3   1   0   -0.51    0.75
  -3  -1   0   -1.39    1.18
  -3  -1   0    0.65    1.04
   3   1   0   -0.11    0.57
   3  -1   0    1.90    1.33
  -3  -1   1  923.82   21.95
   3  -1   1  740.86   23.82
   3   1   1  959.91   19.16
  -3   1  -1  688.74   28.02
  -3   1   1  770.60   30.21
  -3  -1  -1  866.12   26.27
   3  -1  -1  816.24   24.43
  -3  -1  -1  818.57   18.72
  -3  -1   1  871.21   27.53
   3  -1   2 1593.69   35.91
  -3   1   2 1289.18   39.59
  -3  -1  -2 1397.53   24.47
  -3  -1   2 1640.95   31.70
   3   1   2 1280.16   26.19
  -3  -1   2 1629.90   37.75
   3  -1  -2 1509.89   32.97
   3   1   3 3304.94   46.66
  -3  -1  -3 3232.76   39.12
   3  -1  -3 3319.22   50.40
  -3   1   3 3503.08   63.22
   3  -1   3 3379.92   56.64
  -3  -1   3 3617.40   50.61
   3   1   4   17.78    3.83
  -3  -1  -4   16.60    2.85
  -3   1   4   11.94    3.80
  -3  -1   4   18.85    3.86
   3  -1   4    8.11    2.34
  -3  -1   4   15.86    4.29
  -3   1   4   10.89    2.93
  -3  -1   4    7.19    1.90
  -3  -1   5  467.51   22.47
   3   1   5  524.89   22.68
  -3  -1  -5  524.53   19.01
  -3   1   5  463.89   24.17
   3  -1   5  464.99   22.61
  -3  -1   5  485.60   15.98
  -3  -1   6 1952.17   48.88
   3   1   6 2013.12   46.07
  -3   1   6 1903.55   50.31
   3  -1   6 1955.42   48.37
  -3   1   6 1885.73   42.91
  -3  -1   6 1816.56   34.84
   3   1   7  277.03   17.86
   3  -1   7  246.52   17.91
  -3   1   7  249.06   19.02
  -3  -1   7  242.39   17.50
  -3   1   7  280.00   17.19
  -3  -1   7  290.80   15.23
   3   1   8  652.52   30.63
  -3   1   8  680.13   32.34
  -3  -1   8  854.49   34.91
  -3  -1   8  817.48   28.02
  -3   1   8  718.62   28.65
   3  -1   8  780.89   32.78
   3   1   9  283.93   21.58
   3  -1   9  346.07   22.72
  -3   1   9  315.07   22.69
  -3   1   9  319.05   20.21
  -3  -1   9  320.08   21.97
  -3  -1   9  306.02   18.67
   3   1  10  824.61   37.20
   3  -1  10  815.31   36.85
  -3   1  10  747.35   35.75
  -3  -1  10  847.01   37.35
  -3   1  10  799.45   33.52
  -3  -1  10  841.36   32.48
  -3   1  11    6.07    2.87
  -3  -1  11    5.33    3.13
   3   1  11    4.98    4.07
  -3   1  11    7.34    2.34
  -3  -1  11    7.56    3.55
   3  -1  11    6.64    2.00
   3   1  12 1300.22   50.29
   3  -1  12 1489.92   52.82
  -3  -1  12 1361.88   50.55
  -3   1  12 1618.84   55.19
   3   1  12 1361.07   48.71
  -3   1  12 1415.87   47.99
  -3  -1  12 1545.71   48.31
  -3  -1  13  368.70   24.93
   3   1  13  318.61   25.33
   3  -1  13  323.56   25.54
  -3   1  13  346.60   26.39
   3   1  13  363.59   25.83
  -3   1  13  344.32   24.39
  -3  -1  13  354.84   27.12
  -3   1  14   25.98    6.14
   3   1  14   24.26    8.44
  -3  -1  14   14.15    5.95
   3  -1  14   22.27    7.30
  -3   1  14   16.54    6.43
  -3  -1  14   15.22    5.37
   3   1  14   10.70    4.60
  -3   1  15  121.95   17.38
  -3  -1  15  144.61   18.06
   3   1  15  109.52   15.51
   3  -1  15  124.28   16.53
  -3   1  15  123.82   16.38
   3  -1  15  159.66   18.18
   3   1  15   91.63   14.35
  -3  -1  15  115.95   15.47
   3   1  16  853.61   44.94
   3  -1  16  791.11   42.93
  -3   1  16  804.25   43.86
  -3  -1  16  871.76   46.41
   3  -1  16  813.72   43.23
  -3   1  16  863.47   43.08
  -3  -1  16  857.61   42.62
   3   1  17  123.25   17.08
   3  -1  17  140.61   18.58
  -3   1  17  130.95   17.44
  -3  -1  17  133.91   16.80
  -3  -1  17  157.36   20.20
   3  -1  17  133.94   18.37
   3   1  17  130.24   17.52
  -3   1  17  115.60   17.12
  -3   1  18    2.62    1.98
  -3  -1  18   11.06    5.52
   3   1  18   -0.07    2.78
   3  -1  18   18.09    6.70
  -3   1  18    4.15    4.40
  -3  -1  18   11.63    5.45
   3   1  18    5.09    3.58
   3  -1  18    1.40    1.94
  -3   1  19   17.97    7.20
  -3  -1  19    7.91    2.22
   3   1  19   17.67    6.94
   3   1  19   22.80    7.42
   3  -1  19   27.25    9.16
  -3   1  19   32.62    8.57
  -3  -1  19   12.38    3.96
   3  -1  19   15.33    5.74
  -3   1  20  266.74   27.51
   3   1  20  262.31   27.01
   3  -1  20  294.87   28.53
  -3  -1  20  310.50   29.99
   3  -1  20  297.04   29.26
   3   1  20  308.02   29.58
  -3   1  20  311.30   29.03
  -3  -1  20  339.41   30.22
  -3   1  21   24.32    7.82
  -3  -1  21   19.49    7.04
   3   1  21   23.86    9.58
   3  -1  21   22.30    7.46
  -3   1  21   27.68    8.31
  -3  -1  21   25.22   10.04
   3  -1  21   25.26    9.06
   3   1  21   15.29    7.22
   3   1  22  124.06   19.51
   3  -1  22   95.32   17.09
  -3   1  22  109.29   17.50
   3  -1  22   99.11   19.07
  -3  -1  22  112.33   18.06
  -3   1  22   74.54   14.82
  -3  -1  22   99.02   17.87
   3   1  22  109.08   18.37
   3   1  23  188.07   24.08
   3  -1  23  219.52   26.72
  -3   1  23  177.51   23.98
  -3  -1  23  236.78   26.67
  -3  -1  23  194.56   24.25
   3   1  23  181.05   23.96
   3  -1  23  187.46   24.55
  -3   1  23  227.97   26.58
  -3  -1  24   44.86   12.45
  -3   1  24   31.34   10.04
  -3  -1  24   47.40   12.51
   3   1  24   61.19   14.27
   3  -1  24   42.25   11.56
  -3   1  24   40.65   10.81
   3   1  24   54.32   13.35
   3  -1  24   50.79   13.00
   3  -1  25    1.01    3.26
  -3   1  25    1.99    3.03
  -3  -1  25    3.06    1.53
   3   1  25    1.94    3.65
   3  -1  25    6.55    6.84
  -3   1  25    2.85    4.27
  -3  -1  25    2.31    3.22
   3   1  25    9.48    3.79
   3   1  26  103.19   18.67
   3  -1  26   79.95   15.89
  -3  -1  26   87.42   18.38
   3   1  26   91.53   16.67
  -3   1  26   91.61   16.83
   3  -1  26   77.90   14.95
  -3  -1  26   97.01   17.61
  -3   1  26  104.98   19.05
  -3   1  27   35.01   11.02
  -3  -1  27   31.84   10.71
   3   1  27   39.49   11.29
   3  -1  27   24.08   10.03
  -3   1  27   33.30   11.17
  -3  -1  27   48.31   12.43
   3   1  27   31.65   10.55
   3  -1  27   39.41   12.13
  -3   1  28    5.28    3.69
  -3  -1  28    8.36    3.44
   3   1  28   28.63    9.82
   3  -1  28   17.08    7.03
   3  -1  28   25.70   11.28
  -3   1  28    0.15    3.03
  -3  -1  28    6.46    4.04
   3   1  28   30.68   11.43
   3   1  29    9.32    5.03
  -3   1  29   -4.00    3.31
  -3  -1  29    1.64    5.82
   3  -1  29    1.32    3.70
  -3  -1  29    7.18    3.62
  -3   1  29    8.65    5.67
   3   1  29   -5.07    9.46
   3  -1  29    1.74    3.17
  -3   1  30   36.44   11.70
  -3   1  30   17.58    7.23
  -3  -1  30   25.24    9.06
   3   1  30   39.34   12.92
   3   1  30   44.49   13.06
   3  -1  30   40.71   13.84
  -3  -1  30   24.72    7.74
   3  -1  30   32.32   10.31
  -3   1  31   10.71    4.00
  -3  -1  31   23.57    9.53
   3   1  31   35.00   12.75
   3  -1  31   38.95   11.76
  -3   1  31   38.04   12.72
  -3  -1  31   23.00   10.22
   3   1  31   12.51    2.33
   3  -1  31   25.38   10.19
  -3  -2   0   -0.73    0.90
   3  -2   0    0.31    1.09
  -3   2   0    0.88    2.40
  -3  -2   0   -0.21    0.85
   3  -2   0   -0.52    1.80
   3   2   1    0.90    0.46
  -3  -2   1    0.03    0.92
  -3  -2  -1    2.85    0.47
   3  -2  -1   -1.30    0.74
   3  -2   1    2.11    1.06
   3  -2   1    2.40    1.99
  -3   2  -1    3.70    2.80
  -3   2   1   -1.04    1.04
  -3  -2   1    3.28    1.65
   3  -2  -1    2.04    1.62
  -3  -2  -2  185.17   11.57
   3  -2  -2  214.43   14.50
   3  -2   2  200.43   14.36
   3  -2  -2  181.55   11.01
  -3   2   2  183.31   15.85
  -3  -2   2  215.13   12.62
  -3  -2   2  200.80   13.03
   3   2   2  190.74    9.98
  -3  -2   3  495.25   21.75
   3  -2   3  515.46   16.20
   3   2   3  447.01   16.82
   3  -2   3  484.13   22.85
  -3  -2  -3  551.88   20.22
  -3  -2   3  484.52   20.14
   3  -2  -3  487.40   22.10
  -3   2   3  486.57   25.22
   3  -2  -3  504.02   19.97
   3   2   4  553.52   20.56
  -3  -2   4  554.46   23.80
  -3  -2   4  622.33   23.74
  -3   2   4  612.76   27.87
   3  -2   4  601.79   26.30
  -3  -2   4  599.74   13.30
   3  -2   4  609.39   18.67
  -3  -2   5  292.83   11.53
  -3  -2  -5  319.35   16.90
  -3   2   5  317.83   20.57
  -3  -2   5  310.62   18.90
   3   2   5  252.64   15.59
  -3   2   5  327.94   18.63
   3  -2   5  304.91   19.58
  -3  -2   5  286.74   17.46
   3  -2   5  293.80   14.08
   3  -2   6   -0.34    0.89
   3  -2   6    3.27    2.68
  -3  -2   6   -1.17    0.75
   3   2   6    0.75    1.30
  -3  -2   6    0.48    1.11
  -3  -2   6   -0.42    1.27
  -3  -2  -6    1.27    0.64
  -3   2   6   -0.13    1.61
  -3   2   6    0.65    1.85
  -3  -2   7  196.54   12.10
  -3   2   7  202.33   17.47
  -3  -2   7  175.59   15.01
   3  -2   7  209.49   17.18
  -3   2   7  208.87   15.96
  -3  -2  -7  170.26   13.83
  -3  -2   7  218.87   16.56
   3   2   8  381.76   22.26
  -3  -2   8  380.30   23.06
  -3  -2  -8  336.85   20.17
  -3   2   8  338.14   23.40
   3  -2   8  343.66   23.18
  -3   2   8  301.46   20.35
  -3  -2   8  283.09   19.74
   3  -2   9    3.94    2.71
  -3   2   9    7.98    2.32
  -3  -2   9    5.09    2.33
   3   2   9    0.66    3.30
  -3   2   9    7.90    3.24
  -3  -2   9    7.21    3.38
   3  -2  10   -0.88    1.75
  -3  -2  10    0.51    1.31
   3   2  10    2.52    3.54
  -3   2  10   -2.02    2.14
  -3   2  10    0.38    1.22
  -3  -2  10    1.28    1.82
   3   2  10    2.11    2.38
  -3   2  11   23.20    5.75
   3   2  11   31.72    7.79
  -3  -2  11   27.43    5.80
  -3   2  11   28.39    8.16
   3   2  11   33.69    7.81
   3  -2  11   10.83    5.02
  -3  -2  11   30.98    7.29
  -3  -2  12   71.85   10.58
   3   2  12   50.98    9.28
  -3   2  12   52.37    9.89
   3  -2  12   63.09   11.01
  -3   2  12   69.76   11.22
  -3  -2  12   65.24   11.03
   3   2  12   72.75   11.16
  -3   2  13   40.37    8.67
   3   2  13   41.32    9.20
  -3   2  13   35.47    9.04
  -3  -2  13   39.55    7.53
   3   2  13   51.80    9.89
  -3  -2  13   54.40   11.24
   3  -2  13   38.11    8.71
  -3  -2  14   64.61   10.63
   3   2  14   61.57   11.13
  -3   2  14   79.32   12.31
   3  -2  14   80.95   13.03
  -3   2  14   59.30   11.06
  -3  -2  14   73.95   12.44
   3   2  14   75.06   13.09
   3   2  15   63.59   12.10
  -3  -2  15   57.54   10.99
  -3   2  15   65.21   11.50
  -3   2  15   55.03   10.67
   3  -2  15   72.71   12.20
  -3  -2  15   47.44   10.57
   3   2  15   71.13   12.68
   3   2  16   95.06   14.71
  -3  -2  16  109.55   14.77
  -3  -2  16  113.11   16.63
   3  -2  16  115.53   16.63
  -3   2  16  105.22   15.58
   3  -2  16  102.16   15.39
  -3   2  16  107.80   15.84
  -3  -2  17   47.16   10.49
   3   2  17   65.53   13.17
   3  -2  17   56.48   12.33
   3  -2  17   60.32   12.66
  -3   2  17   45.89   10.94
   3   2  17   63.80   12.58
  -3  -2  17   48.73   11.30
  -3   2  17   57.95   11.19
  -3  -2  18   84.53   14.02
   3   2  18  103.45   15.21
   3  -2  18   75.61   14.07
   3  -2  18   95.33   15.24
  -3  -2  18   84.74   14.60
  -3   2  18   97.33   16.72
   3   2  18   98.59   14.84
  -3   2  18   75.59   13.81
  -3   2  19   -2.52    2.49
  -3   2  19    0.61    6.11
  -3  -2  19   -1.14    3.65
   3   2  19   -0.27    2.00
   3  -2  19   -0.53    3.51
  -3  -2  19    0.74    0.56
   3   2  19    2.90    5.95
   3  -2  19    0.65    1.28
  -3   2  20   29.62    8.67
  -3   2  20   17.86    7.09
  -3  -2  20   30.83    8.19
   3   2  20   24.47    8.30
   3  -2  20   35.94    9.67
   3  -2  20   28.68    8.86
  -3  -2  20   26.98    8.44
   3   2  20   28.00    8.98
   3  -2  21   35.59   10.43
  -3   2  21   43.37   10.76
  -3  -2  21   44.10   11.84
   3   2  21   44.86   10.83
  -3   2  21   51.57   12.00
  -3  -2  21   41.33   11.96
   3   2  21   35.44   10.30
   3  -2  21   38.39   11.11
   3  -2  22   17.69    8.87
   3   2  22   12.90    7.21
  -3  -2  22   32.56    9.65
   3   2  22   13.95    5.85
   3  -2  22   32.09    9.99
  -3   2  22    3.30    2.42
  -3   2  22   26.41    8.05
  -3  -2  22   11.83    7.65
  -3   2  23    8.80    7.05
  -3  -2  23    4.16    5.35
   3   2  23    0.04    3.05
  -3   2  23    5.78    4.93
   3  -2  23    0.33    3.05
  -3  -2  23    0.02    2.66
   3   2  23   -3.56    5.43
   3  -2  23    7.85    7.33
  -3   2  24    6.85    5.84
  -3  -2  24    2.97    4.77
   3   2  24   -2.57    5.05
  -3  -2  24    5.55    6.16
   3  -2  24    0.64    2.57
  -3   2  24    0.57    1.58
   3   2  24    3.72    6.51
   3  -2  24   -0.68    4.65
  -3   2  25    0.78    2.20
  -3  -2  25    6.75    6.05
   3   2  25   10.23    8.03
  -3  -2  25   11.38    8.95
   3  -2  25    7.28    4.12
  -3   2  25   -0.35    3.42
   3   2  25    6.44    5.42
   3  -2  25    5.01    4.08
  -3   2  26   -4.50    8.67
  -3  -2  26    2.41    5.30
   3   2  26   -4.67    6.24
   3  -2  26   -2.51    4.04
  -3   2  26   -7.69    7.13
  -3  -2  26    0.32    1.89
   3   2  26    0.89    3.88
   3  -2  26   -2.72    7.99
  -3  -2  27   15.27    7.56
   3   2  27   32.78   10.84
  -3   2  27   17.94    8.13
   3  -2  27   23.61    9.04
  -3   2  27   14.60    6.55
  -3  -2  27   13.89    8.22
   3   2  27   17.48    6.82
   3  -2  27   24.07    9.14
  -3   2  28    6.64    2.20
  -3  -2  28    3.55    5.27
   3   2  28   14.96    7.72
   3  -2  28    8.26    6.01
  -3   2  28    0.36    4.54
  -3  -2  28    3.19    3.75
   3   2  28   -0.95    2.76
   3  -2  28   14.39    8.15
  -3   2  29    8.26    6.32
  -3  -2  29    5.37    7.19
   3   2  29    3.92    2.64
   3  -2  29    3.29    2.98
  -3   2  29    2.41    4.08
   3  -2  29    4.99    6.59
  -3  -2  29    8.27    6.38
   3   2  29    4.27    3.81
  -3   2  30   -4.20    3.80
  -3  -2  30   -4.94    6.18
   3   2  30    2.37    3.13
   3  -2  30    6.63   10.01
   3  -2  30    4.09    4.12
   3   2  30   10.67    9.07
  -3   2  30   -1.38    1.45
  -3  -2  30   -6.14    6.17
  -3   2  31   -5.27    6.45
  -3  -2  31   -0.03    5.90
   3   2  31    3.53    6.50
   3  -2  31   -3.46    5.05
  -3  -2  31   -5.39    6.54
  -3   2  31    6.69    5.99
   3   2  31    4.89    7.46
   3  -2  31    1.58    5.06
  -3  -3   0    1.73    2.33
   3  -3   0    0.01    0.63
  -3   3   0   -0.34    0.89
  -3  -3   0    0.54    0.74
   3  -3   0    2.20    2.46
  -3  -3   1   82.58    9.61
  -3  -3  -1   85.44    9.40
   3  -3   1   95.93    8.71
   3  -3  -1  103.06    9.13
  -3   3   1  110.13   12.68
  -3  -3   1   86.73    7.34
   3  -3   1   84.82   10.29
   3   3   1   89.31    6.41
   3  -3  -1   86.67   10.47
  -3   3  -1   75.61   10.56
   3  -3  -2  776.56   31.25
  -3  -3   2  781.56   29.82
   3  -3   2  736.29   25.19
  -3  -3  -2  792.71   28.42
   3   3   2  803.28   21.71
  -3   3   2  804.38   34.65
   3  -3   2  769.22   31.48
   3  -3  -2  776.37   26.28
  -3  -3   2  665.52   20.98
  -3  -3   3  115.82   11.40
   3  -3   3  107.14    9.41
   3  -3   3  112.88   12.36
   3  -3  -3  142.91   13.13
  -3  -3  -3  141.21   11.83
   3  -3  -3  130.45   11.30
  -3  -3   3  121.24    5.74
  -3  -3   3  117.94    9.81
   3   3   3  123.18    9.55
  -3   3   3  101.50   11.99
   3  -3  -4  451.56   21.93
   3  -3   4  436.42   20.02
   3  -3   4  424.79   23.73
  -3  -3   4  367.81   18.26
  -3   3   4  377.49   23.61
  -3  -3  -4  382.41   20.23
  -3  -3   4  426.39   12.92
   3   3   4  424.37   19.06
  -3  -3   4  450.61   23.70
  -3  -3   5 3128.16   64.31
  -3   3   5 3242.27   69.18
   3   3   5 3361.33   59.82
  -3  -3   5 3368.29   41.85
   3  -3  -5 3490.71   64.80
   3  -3   5 3260.09   54.69
  -3  -3   5 2983.41   53.83
  -3   3   5 3182.78   64.15
   3  -3   5 3273.45   67.26
  -3   3   6  686.45   32.86
  -3   3   6  651.99   29.62
  -3  -3   6  645.22   20.58
  -3  -3  -6  741.23   30.01
  -3  -3   6  683.12   30.60
   3  -3   6  717.19   32.41
   3   3   6  666.42   28.11
   3  -3   6  677.97   26.38
  -3  -3   7   60.75    8.68
  -3  -3   7   78.37    7.77
  -3  -3   7   84.64   10.95
  -3   3   7   92.98   11.78
  -3   3   7   67.48   10.18
   3   3   7   84.81   10.35
   3  -3   7   79.29   11.12
   3   3   7   84.54    9.00
   3  -3   7   70.96    8.62
  -3  -3  -8  396.12   23.68
  -3  -3   8  332.49   21.81
  -3  -3   8  323.60   17.34
   3  -3   8  332.02   23.40
  -3   3   8  347.34   22.80
  -3   3   8  365.60   24.69
   3   3   8  307.89   18.44
   3  -3   8  292.57   18.40
  -3  -3   8  312.58   22.13
   3   3   8  375.72   22.74
  -3  -3   9 1143.03   35.39
  -3   3   9 1141.57   44.82
   3  -3   9 1143.99   44.53
  -3  -3   9 1142.54   41.67
   3   3   9 1202.36   39.20
  -3   3   9 1120.61   42.32
  -3  -3  -9 1317.71   44.46
   3  -3   9 1223.02   38.83
  -3  -3   9 1100.51   42.71
   3   3   9 1038.82   39.63
   3   3  10  201.71   18.23
  -3  -3  10  178.22   15.04
  -3   3  10  196.45   18.82
  -3  -3 -10  176.43   17.20
   3  -3  10  193.92   18.66
  -3  -3  10  203.67   18.67
  -3   3  10  185.31   17.54
   3   3  10  167.29   15.74
   3  -3  10  155.18   14.71
  -3  -3  10  141.40   16.00
   3   3  11   44.95    8.65
  -3  -3 -11   15.11    8.29
  -3  -3  11   45.57    7.86
   3  -3  11   40.56    8.79
  -3   3  11   48.67    9.08
  -3  -3  11   38.38    8.61
  -3   3  11   48.57    8.97
   3   3  11   39.61    8.27
  -3  -3  11   38.46    8.87
  -3   3  12    1.51    1.50
   3  -3  12    0.43    1.95
   3   3  12   -1.88    1.54
  -3  -3  12    1.63    2.10
  -3   3  12   -4.54    4.47
  -3  -3 -12    1.28    0.81
  -3  -3  12    2.05    4.96
   3   3  12    2.36    1.71
   3   3  13  449.51   30.09
  -3  -3  13  380.64   25.46
   3  -3  13  398.27   29.32
  -3   3  13  437.48   30.39
  -3  -3  13  475.41   31.07
  -3   3  13  393.94   28.07
   3   3  13  402.41   27.29
   3  -3  14    4.82    5.06
  -3   3  14    2.90    2.14
   3   3  14    0.41    2.43
  -3  -3  14   -0.14    2.07
  -3  -3  14    1.74    3.38
  -3   3  14    1.55    1.02
   3   3  14    0.26    1.21
   3   3  15  299.01   26.35
  -3  -3  15  279.80   23.63
   3  -3  15  230.63   23.66
  -3  -3  15  288.21   26.01
  -3   3  15  269.39   24.90
  -3   3  15  254.52   23.41
   3   3  15  295.06   24.42
  -3   3  16    0.56    5.46
  -3  -3  16    1.64    1.62
   3   3  16    3.57    1.20
  -3   3  16   -3.34    4.74
  -3  -3  16    0.03    0.40
   3  -3  16   -4.02    5.68
   3   3  17  306.34   27.92
  -3  -3  17  273.56   24.87
  -3  -3  17  310.38   28.63
   3  -3  17  282.37   26.45
  -3   3  17  314.35   28.30
   3   3  17  311.61   26.90
  -3   3  17  324.70   28.45
   3  -3  17  325.95   28.64
   3   3  18   97.80   16.16
  -3  -3  18   85.27   13.81
   3  -3  18  125.52   18.36
  -3   3  18   81.82   14.32
  -3   3  18  115.51   16.82
   3   3  18   91.18   15.02
  -3  -3  18  123.00   18.85
   3  -3  18   98.92   15.95
  -3  -3  19  110.63   17.30
  -3   3  19  105.61   17.55
   3  -3  19  131.51   19.63
  -3  -3  19  131.95   18.66
   3   3  19   98.14   16.26
  -3   3  19  141.03   19.09
   3  -3  19  144.73   19.40
   3   3  19  129.38   18.93
   3   3  20   11.05    3.36
  -3  -3  20    2.29    2.83
  -3   3  20   -3.47    3.10
   3  -3  20    7.73    4.64
  -3   3  20   15.21    7.86
  -3  -3  20   22.10    7.87
   3   3  20   -0.82    3.75
   3  -3  20   17.87    8.28
  -3   3  21   33.98   10.49
   3  -3  21   37.55   11.62
   3   3  21   34.77   10.11
  -3  -3  21   41.48   11.11
  -3  -3  21   36.31   10.39
   3  -3  21   39.28   10.85
  -3   3  21   55.46   12.14
   3   3  21   41.25   11.48
  -3   3  22   14.72    6.81
   3  -3  22   13.49    6.19
   3   3  22   15.59    6.45
  -3  -3  22    9.26    4.55
  -3   3  22   10.18    6.93
  -3  -3  22   15.42    6.27
   3   3  22   12.14    5.08
   3  -3  22   11.51    5.69
  -3  -3  23   99.70   16.91
   3  -3  23  121.12   19.43
  -3   3  23  115.81   19.65
  -3  -3  23   95.84   17.48
   3   3  23  121.82   20.43
   3  -3  23  113.64   19.06
  -3   3  23  117.24   19.13
   3   3  23  112.46   19.37
  -3   3  24   -2.42    4.12
   3   3  24    6.79    3.65
  -3   3  24    0.45    2.26
  -3  -3  24    4.16    4.72
   3  -3  24   12.28    8.53
  -3  -3  24    3.03    3.11
   3   3  24    0.37    1.67
   3  -3  24   -1.04    3.42
  -3   3  25    3.56    5.37
  -3   3  25    3.39    6.24
   3   3  25    0.92    2.39
  -3  -3  25   11.66    7.05
   3   3  25    7.09    7.11
   3  -3  25    5.23    3.81
  -3  -3  25    6.56    2.12
   3  -3  25   -6.53    8.44
  -3   3  26   13.27    7.33
   3   3  26   13.31    7.08
  -3  -3  26   38.63   12.46
  -3  -3  26   32.48   11.26
   3  -3  26   22.95    8.26
  -3   3  26   13.51    7.62
   3   3  26   22.74    7.98
   3  -3  26   30.21   10.23
  -3   3  27   42.14   11.26
   3   3  27   60.39   15.22
  -3  -3  27   47.73   13.72
   3  -3  27   36.17   11.61
  -3   3  27   61.86   14.55
  -3  -3  27   54.96   14.61
   3   3  27   34.13    9.13
   3  -3  27   36.14   11.66
  -3   3  28   20.70    9.09
   3   3  28   19.59    9.95
  -3  -3  28    8.06    7.41
  -3   3  28    9.68    7.74
  -3  -3  28   12.65    7.09
   3   3  28   10.75    6.83
   3  -3  28   19.41    7.85
   3  -3  28   19.90    8.85
  -3   3  29   23.93   11.62
   3   3  29    1.01    4.92
  -3  -3  29   13.61    8.45
   3  -3  29   10.92    4.31
  -3   3  29   16.94    9.37
  -3  -3  29   14.03    8.81
   3   3  29   10.01    8.59
   3  -3  29   26.32   10.64
  -3  -3  30   16.32    9.13
   3   3  30   30.83   10.65
  -3  -3  30   27.85    9.48
  -3   3  30   25.65   10.48
   3  -3  30   23.88    7.47
  -3   3  30   41.49   13.26
   3   3  30   56.24   17.53
   3  -3  30   24.96   10.34
  -3   3  31   35.14   11.18
  -3   3  31   34.73   10.61
  -3  -3  31   41.54   15.16
   3   3  31   27.45   11.10
   3  -3  31   48.47   13.81
   3   3  31   31.53   11.55
  -3  -3  31   45.53   13.83
   3  -3  31   19.22    7.51
  -3   4   0    3.26    3.19
  -3  -4   0    0.27    1.43
   3  -4   0    1.71    2.39
  -3  -4   0    0.05    0.41
  -3  -4   0    2.82    1.05
   3  -4   0   -0.91    2.42
  -3  -4   1  272.11   19.45
  -3  -4  -1  275.12   19.20
   3  -4   1  302.07   17.99
   3  -4  -1  307.84   17.98
   3   4   1  271.40   13.62
   3  -4   1  304.59   21.08
  -3   4   1  289.74   21.65
  -3  -4   1  293.10   13.14
   3  -4  -1  271.60   20.17
  -3  -4   1  257.59   10.72
   3  -4  -2    1.46    1.80
   3  -4   2   -0.54    1.49
  -3  -4   2    0.55    0.48
  -3  -4   2    0.48    2.42
   3  -4   2   -0.54    0.63
  -3  -4  -2    0.25    0.88
  -3  -4   2    1.20    0.90
   3  -4  -2    1.28    1.91
  -3   4   2    4.76    3.65
   3   4   2   -0.30    0.84
  -3  -4   3   81.81   10.61
   3  -4   3   55.02    8.22
   3  -4  -3   58.93    8.84
  -3  -4   3   54.89    5.95
  -3  -4  -3   62.37    8.76
   3  -4  -3   51.59    7.58
  -3   4   3   59.09    9.59
   3  -4   3   55.31    9.23
   3   4   3   62.13    7.09
   3   4   3   50.10    4.24
  -3  -4   3   64.67    5.80
  -3  -4   4 1206.89   42.52
   3  -4   4  971.70   33.64
   3  -4   4 1043.87   40.37
  -3  -4  -4  863.48   34.00
   3  -4  -4  849.85   32.96
   3  -4  -4  944.16   37.51
  -3   4   4  974.66   40.50
  -3  -4   4 1096.94   29.97
  -3  -4   4  979.20   24.51
   3   4   4  854.10   28.94
   3   4   4  991.69   21.34
   3  -4   5   45.23    7.72
   3  -4   5   32.63    7.38
  -3   4   5   35.73    7.64
  -3  -4  -5   51.45    8.27
   3  -4  -5   27.65    6.35
  -3  -4   5   39.30    5.13
  -3  -4   5   40.66    6.18
  -3  -4   5   30.07    6.67
   3   4   5   32.81    6.17
   3   4   5   34.49    4.75
  -3  -4   6  167.93   16.69
   3  -4   6  149.02   13.71
   3   4   6  154.91   13.72
  -3   4   6  167.57   16.64
  -3  -4  -6  164.45   15.46
  -3  -4   6  143.58   10.47
  -3   4   6  167.81   16.40
  -3  -4   6  118.54   11.44
   3   4   6  203.08   12.35
   3  -4  -6  177.89   15.84
   3  -4   6  164.24   16.28
  -3  -4   7  108.26   13.54
   3  -4  -7  135.15   14.71
  -3  -4  -7  143.38   14.80
  -3  -4   7  104.85    9.66
   3  -4   7  109.27   11.83
   3   4   7  110.38   12.22
  -3   4   7  128.23   14.49
   3   4   7  101.27    9.53
  -3  -4   7  120.54   11.95
  -3   4   7  138.80   15.07
   3  -4   7  134.31   14.82
  -3  -4   8   64.76    8.02
   3  -4   8   29.99    7.10
  -3   4   8   47.10    8.64
   3  -4  -8   44.80    8.62
  -3  -4  -8   36.47    7.31
  -3  -4   8   58.21    8.92
  -3   4   8   39.53    8.29
   3   4   8   52.07    7.38
   3   4   8   43.39    7.63
  -3  -4   8   43.74    8.42
   3  -4   8   50.61    8.10
  -3  -4   9  690.64   28.13
  -3  -4  -9  654.76   33.11
  -3   4   9  694.84   35.83
  -3  -4   9  625.92   31.66
  -3   4   9  651.70   33.82
   3  -4   9  705.92   36.12
   3   4   9  665.59   28.52
   3   4   9  734.23   34.62
   3  -4   9  632.13   30.55
  -3  -4   9  740.53   36.59
   3  -4  10    8.34    3.42
  -3  -4  10    7.44    1.26
  -3  -4 -10    0.10    1.35
   3   4  10    7.70    4.62
   3  -4  10    1.74    2.24
  -3  -4  10    9.60    3.94
  -3   4  10    7.80    4.81
  -3  -4  10    3.25    4.09
   3   4  10    2.29    1.07
  -3   4  10    7.10    3.19
   3  -4  11   -0.62    0.60
  -3  -4  11   -0.15    2.41
   3  -4  11    1.83    2.72
   3   4  11   -0.88    2.27
  -3  -4  11    1.63    2.52
  -3   4  11    4.51    4.61
  -3  -4  11   -1.05    1.21
  -3  -4 -11    0.45    1.82
   3   4  11   -0.20    1.37
  -3   4  11    1.41    3.31
   3  -4  12   11.53    4.13
  -3  -4  12   12.64    5.09
   3  -4  12    6.84    0.91
   3   4  12   25.61    7.00
  -3  -4 -12   15.55    5.79
  -3  -4  12   14.33    5.08
  -3   4  12   20.05    6.54
  -3  -4  12   13.48    3.98
   3   4  12   13.62    4.97
  -3   4  12    7.76    4.31
   3  -4  13   10.79    5.56
  -3  -4  13    7.62    3.47
   3   4  13    5.92    2.25
  -3  -4  13    6.78    3.05
  -3  -4 -13    7.98    4.69
  -3   4  13   18.55    8.02
  -3  -4  13    8.61    4.47
   3   4  13   14.32    5.46
  -3   4  13    4.52    2.05
   3  -4  14    1.52    2.81
  -3  -4 -14    3.17    5.30
   3   4  14    2.80    4.51
  -3   4  14    2.12    4.53
  -3  -4  14    6.08    5.04
  -3  -4  14    5.90    4.18
   3   4  14    2.71    3.31
  -3  -4  14    4.81    4.44
  -3   4  14   -0.79    2.49
   3   4  15   -0.14    3.32
   3   4  15    2.40    5.24
  -3  -4  15   -1.50    2.66
  -3  -4 -15   -0.17    1.32
  -3   4  15    6.41    5.71
  -3  -4  15    1.72    1.09
   3  -4  15    3.27    3.36
  -3   4  15    5.05    5.65
  -3   4  16   24.13    8.36
   3   4  16   24.88    7.24
  -3  -4 -16   21.27    7.52
  -3  -4  16   21.30    8.67
  -3   4  16   19.72    5.97
  -3  -4  16   16.74    6.06
   3   4  16   18.58    6.90
   3  -4  16   15.25    7.93
   3   4  17    6.03    3.95
   3   4  17    4.54    1.19
  -3  -4  17    8.30    4.02
  -3  -4 -17   13.16    6.64
  -3   4  17   20.58    9.42
  -3  -4  17    9.39    4.68
   3  -4  17   11.75    5.90
  -3   4  17   10.67    5.46
  -3   4  18   -0.79    2.04
   3   4  18   -0.65    4.83
  -3  -4  18   -1.79    3.02
  -3  -4 -18    0.29    3.11
  -3   4  18    2.07    4.50
  -3  -4  18   -0.98    3.37
   3  -4  18    5.01    5.06
   3   4  18    5.15    6.17
   3  -4  18   -0.15    1.54
   3   4  19    3.19    0.46
  -3  -4  19    1.26    3.03
  -3   4  19    2.72    3.44
   3  -4  19    4.51    6.93
  -3  -4  19    7.90    5.28
   3   4  19    5.19    2.22
   3  -4  19    0.16    5.82
  -3   4  19    6.38    5.59
  -3   4  20   47.06   11.87
   3   4  20   56.56   13.58
  -3  -4  20   62.49   12.22
  -3  -4  20   19.27    8.53
   3  -4  20   45.08   11.46
   3   4  20   35.04    9.73
  -3   4  20   46.13   11.32
   3  -4  20   48.57   13.02
  -3   4  21    9.52    5.80
   3   4  21    5.90    3.53
   3   4  21   15.44    7.71
  -3  -4  21    5.67    4.46
  -3   4  21    6.63    5.22
   3  -4  21   13.92    6.60
  -3  -4  21    6.75    6.35
   3  -4  21   20.18    8.44
  -3   4  22    1.64    4.22
  -3   4  22   -1.84    2.92
   3   4  22   -6.53    6.29
  -3  -4  22   -1.00    3.41
   3  -4  22   -1.26    5.33
  -3  -4  22   -0.81    1.63
   3   4  22    3.86    4.18
   3  -4  22   -2.77    5.14
  -3   4  23   -0.88    3.94
   3   4  23    3.91    3.48
  -3  -4  23   12.63    5.37
   3  -4  23   -4.00    5.82
  -3   4  23    4.49    2.70
  -3  -4  23    3.70    2.61
   3   4  23   -1.75    2.54
   3  -4  23   -4.99    4.16
  -3   4  24   -5.22    5.07
   3  -4  24   -0.39    3.77
   3   4  24   -2.38    5.45
  -3  -4  24    1.15    4.17
  -3   4  24    2.01    4.93
  -3  -4  24    5.06    4.15
   3   4  24    3.00    5.49
   3  -4  24   -3.19    4.44
  -3  -4  25   -1.45    3.41
   3   4  25    0.26    3.58
  -3  -4  25    1.21    4.79
  -3   4  25    0.36    4.00
   3   4  25   -0.75    0.82
   3  -4  25   -0.30    3.96
   3  -4  25   -0.24    4.40
  -3   4  26    0.85    2.79
   3   4  26   -2.00    5.43
  -3  -4  26    5.88    1.18
  -3   4  26   15.62    9.25
  -3  -4  26   10.61    6.96
   3   4  26    0.60    3.20
   3  -4  26   18.06    9.95
   3  -4  26   -5.06    4.04
  -3   4  27    7.00    5.55
  -3  -4  27    4.01    6.09
  -3   4  27   -2.71    4.20
   3  -4  27   -1.44    7.68
   3   4  27   -4.56    5.89
  -3  -4  27    4.73    2.41
   3   4  27    8.19    5.53
   3  -4  27   -5.07    8.00
  -3   4  28   -1.10    4.28
   3   4  28    6.11    5.53
   3  -4  28    5.30    5.66
  -3  -4  28    1.55    3.36
  -3  -4  28    0.79    5.65
  -3   4  28    8.62    6.27
   3   4  28   -0.91    2.01
   3  -4  28    8.11    8.06
  -3   4  29   -4.28    4.59
   3   4  29    5.04    3.23
  -3  -4  29   -0.70    4.84
  -3   4  29   -4.44    2.51
   3  -4  29    7.23    4.82
  -3  -4  29    2.00    4.79
   3   4  29    6.13    5.94
   3  -4  29    3.61    4.00
  -3   4  30    6.83    6.76
  -3  -4  30   13.03    8.49
   3   4  30   -1.94    2.57
  -3  -4 -30    3.53    6.14
   3  -4  30   17.04    9.25
  -3   4  30   11.56    4.42
   3  -4  30    9.19    5.60
   3   4  30    7.54    8.06
  -3  -5   0    1.18    0.88
   3  -5   0    0.47    4.08
  -3  -5   0    2.96    0.64
   3  -5   0    0.51    1.03
  -3   5   0   -2.47    2.24
  -3  -5   1  282.09   21.84
   3  -5   1  293.76   22.54
  -3  -5  -1  309.81   22.04
   3  -5   1  298.63   20.08
   3  -5  -1  252.91   18.46
  -3  -5  -1  344.96   17.89
  -3   5   1  320.33   23.98
  -3  -5   1  291.74   16.18
   3  -5  -1  281.18   22.36
  -3  -5   2  532.92   29.92
   3  -5   2  533.83   27.28
  -3  -5  -2  495.95   28.40
   3  -5  -2  561.90   31.47
   3  -5  -2  535.19   26.99
  -3  -5   2  548.73   22.08
  -3   5   2  583.83   32.59
  -3  -5   2  493.60   14.99
   3  -5   2  517.30   30.13
   3   5   2  520.99   24.91
  -3  -5   3   35.18    8.12
   3  -5   3   21.77    4.96
   3  -5  -3   32.40    7.00
   3  -5   3   29.51    7.68
  -3  -5   3   19.55    3.89
  -3  -5  -3   30.15    7.22
  -3   5   3   20.32    6.33
   3  -5  -3   18.57    4.95
  -3  -5   3   31.26    4.31
   3   5   3   23.40    5.04
   3  -5   4   10.45    3.76
  -3  -5   4   14.82    4.39
   3  -5   4    6.95    4.58
   3  -5  -4   17.41    5.41
  -3  -5  -4   13.91    4.50
   3  -5  -4    9.99    3.92
  -3  -5   4   14.95    3.60
  -3   5   4    5.11    2.76
  -3  -5   4   20.35    3.91
   3   5   4   21.12    5.33
   3  -5   5  309.13   21.18
   3  -5   5  306.50   23.30
  -3  -5  -5  323.29   22.67
  -3  -5   5  336.39   24.15
   3  -5  -5  282.02   21.07
  -3   5   5  312.55   24.21
  -3  -5   5  255.29   15.91
   3   5   5  315.95   11.59
   3   5   5  303.36   19.59
  -3  -5   5  299.30   17.05
   3  -5  -5  289.46   21.97
   3  -5   6  275.56   21.10
   3  -5   6  261.92   21.29
  -3  -5  -6  246.83   20.67
   3  -5  -6  321.81   22.87
  -3   5   6  321.12   24.16
  -3  -5   6  290.89   18.18
  -3  -5   6  258.07   15.87
  -3  -5   6  335.45   24.66
   3   5   6  331.71   21.36
  -3  -5   7  118.34   15.13
   3  -5   7  121.43   13.98
  -3   5   7  121.04   14.68
  -3   5   7  135.27   15.79
   3  -5   7  148.12   16.79
  -3  -5   7  127.86   11.82
  -3  -5  -7  125.56   14.91
   3  -5  -7   97.58   12.85
  -3  -5   7  151.14   14.02
   3   5   7  120.77   13.42
  -3  -5   8  336.18   25.85
  -3   5   8  338.20   25.22
   3  -5  -8  277.21   22.98
  -3  -5  -8  260.06   21.77
  -3   5   8  287.03   23.43
   3  -5   8  297.83   22.10
  -3  -5   8  289.88   20.23
   3   5   8  362.01   18.51
  -3  -5   8  273.48   18.00
   3   5   8  310.16   22.40
   3  -5   8  308.16   23.80
   3   5   9    2.78    4.77
  -3  -5   9   -1.21    3.48
   3  -5   9    4.56    2.60
   3  -5   9    2.10    3.18
  -3   5   9   -3.53    4.59
  -3  -5  -9    0.93    2.35
   3  -5  -9   -3.95    2.24
  -3  -5   9    0.52    1.35
  -3   5   9    0.86    0.86
   3   5   9    2.68    2.79
  -3  -5   9    2.43    2.27
   3  -5  10   17.38    5.90
  -3  -5  10   14.38    5.88
   3   5  10   18.47    6.08
   3  -5  10   14.65    5.45
  -3  -5 -10   39.91    9.53
  -3   5  10   16.88    5.85
   3  -5 -10   25.75    7.49
   3   5  10    9.57    3.52
  -3  -5  10   28.01    7.37
  -3   5  10   17.90    5.60
  -3  -5  10   16.02    4.02
  -3  -5  11  413.61   25.36
   3  -5 -11  423.12   30.96
  -3  -5 -11  383.14   27.86
   3  -5  11  382.13   26.83
  -3   5  11  408.35   29.63
  -3  -5  11  472.38   29.99
   3   5  11  489.70   30.73
   3  -5  11  408.59   29.66
  -3   5  11  400.74   29.47
  -3  -5  11  444.02   30.75
   3  -5  12   27.65    7.17
  -3  -5 -12   28.75    7.76
   3   5  12   30.70    8.44
   3  -5  12   34.60    9.11
   3  -5 -12   25.70    5.82
  -3   5  12   19.62    7.65
  -3  -5  12   25.73    8.06
  -3  -5  12   20.41    6.02
  -3  -5  12   26.60    7.04
   3   5  12   25.87    6.47
  -3   5  12   28.67    6.76
  -3  -5  13   22.13    7.04
   3   5  13   16.77    6.37
   3  -5  13   27.77    7.09
  -3   5  13   44.69    9.73
  -3  -5 -13   44.50   10.38
  -3  -5  13   49.88   10.44
   3  -5 -13   33.19    9.71
  -3  -5  13   25.27    6.78
   3   5  13   35.22    7.83
  -3   5  13   33.63    9.52
   3  -5  13   41.97    9.09
  -3  -5  14    9.21    4.17
   3  -5  14   11.15    5.40
   3   5  14   14.57    5.68
  -3  -5  14   14.07    5.99
   3  -5  14    6.63    3.95
  -3  -5 -14    6.38    1.31
  -3   5  14    0.21    2.45
  -3  -5  14    8.06    4.97
   3   5  14    6.10    3.68
  -3   5  14    8.68    5.96
  -3  -5 -15   54.13   12.43
  -3  -5  15   51.36   11.25
  -3   5  15   44.43   11.08
  -3  -5  15   40.70    9.29
   3  -5  15   54.01   11.54
  -3  -5  15   53.90   10.87
   3   5  15   35.81    7.82
   3   5  15   55.95   11.82
  -3   5  15   51.01   11.47
   3  -5  15   45.13    9.69
  -3  -5 -16  273.09   26.30
  -3   5  16  302.76   27.92
  -3  -5  16  293.28   25.49
   3  -5  16  311.94   29.14
  -3  -5  16  294.88   27.71
  -3   5  16  255.60   26.57
   3   5  16  345.45   29.78
  -3  -5  16  276.93   26.49
  -3  -5  17  113.45   16.99
   3  -5  17  129.17   18.90
  -3  -5 -17  112.15   17.53
  -3   5  17  115.23   17.75
  -3  -5  17  116.49   17.47
   3   5  17  115.39   16.47
   3   5  17  105.51   16.48
   3  -5  18   20.86    8.91
   3   5  18    6.76    4.49
  -3   5  18   16.69    6.84
  -3  -5  18   21.39    8.67
   3   5  18   22.04    7.28
  -3  -5 -18   21.76    8.66
  -3  -5  18   18.75    7.95
   3  -5  18   13.32    8.30
  -3   5  18   14.82    6.06
  -3  -5  19   17.56    7.58
   3   5  19   19.81    8.00
  -3  -5  19   25.81    9.76
   3   5  19   11.98    6.68
  -3   5  19   22.27    8.29
   3  -5  19   19.19    6.57
   3  -5  19   15.67    6.65
  -3  -5 -19   25.91    8.45
  -3   5  19   18.91    4.55
  -3  -5  20   86.34   16.50
   3  -5  20   80.19   15.68
  -3  -5 -20   59.51   14.87
  -3   5  20   48.40   11.41
   3   5  20   53.11   13.16
  -3   5  20   49.55   14.28
  -3  -5  20   43.66   12.39
   3   5  20   59.98   14.45
   3  -5  20   57.45   14.05
  -3  -5  21   73.00   15.25
   3  -5  21   73.01   15.29
   3   5  21  103.73   17.57
  -3   5  21   92.33   17.31
  -3  -5 -21   71.18   14.73
  -3  -5  21   75.45   15.97
  -3   5  21   72.10   16.26
   3   5  21  102.95   17.69
   3  -5  21   75.59   14.86
   3  -5  22   63.48   13.86
   3  -5  22   90.42   16.86
   3   5  22  106.90   17.54
  -3  -5  22   48.40   12.95
  -3   5  22   77.87   15.85
  -3  -5 -22   65.30   14.42
  -3  -5  22   76.87   16.48
  -3   5  22   67.69   14.78
   3   5  22   47.01   12.69
  -3   5  23   -4.06    2.91
   3   5  23   -2.81    4.40
  -3  -5  23   -1.75    1.95
   3  -5  23   -1.40    1.98
   3  -5  23    6.67    7.54
  -3  -5 -23    2.09    2.92
  -3   5  23   -2.97    4.55
  -3  -5  23    1.61    3.83
   3   5  23   -7.14    5.42
  -3  -5  24  165.75   23.60
   3  -5  24  173.13   24.18
  -3   5  24  137.15   21.37
   3   5  24  139.00   20.95
  -3   5  24  178.72   24.79
  -3  -5  24  209.85   26.94
   3  -5  24  174.28   24.86
   3   5  24  169.37   24.84
  -3   5  25    2.00    2.01
   3   5  25   11.17    7.80
  -3   5  25   -3.80    6.13
  -3  -5  25    3.89    4.50
   3  -5  25    6.04    4.21
  -3  -5 -25   11.98    6.34
  -3  -5  25    6.02    3.84
   3   5  25    3.20    4.35
   3  -5  25   -0.86    3.74
  -3   5  26   54.10   14.83
   3   5  26   48.35   13.88
  -3  -5  26   46.47   16.07
  -3   5  26   34.21   10.37
  -3  -5 -26   12.88    7.12
   3  -5  26   33.58   12.66
   3  -5  26   63.31   17.14
  -3  -5  26   51.85   14.07
   3   5  26   48.09   13.39
  -3   5  27    7.95    6.36
   3   5  27   24.97   10.55
  -3   5  27   11.69    5.69
  -3  -5  27   18.49    6.64
   3   5  27   14.91    7.56
   3  -5  27   10.84    6.04
  -3  -5 -27   23.61   11.16
   3  -5  27   22.83   10.70
  -3   5  28   16.40    9.43
   3   5  28    8.90    1.61
   3  -5  28   17.62    8.88
  -3   5  28    2.36    2.52
  -3  -5  28    7.91    5.74
   3   5  28    8.88    4.32
   3  -5  28    6.84    5.52
  -3  -5 -28   -2.93    5.09
  -3   5  29    2.17    6.45
   3   5  29   -2.25    6.03
   3  -5  29    0.96    3.41
  -3  -5 -29    5.49    6.78
  -3   5  29   -1.61    3.18
  -3  -5  29   -6.52    5.63
   3   5  29    0.94    6.23
   3  -5  29   -1.92    3.58
   3   5  30   18.65   10.59
   3  -5  30   24.99   10.13
   3   5  30   12.03    8.02
  -3  -5 -30   50.78   14.95
  -3   5  30   14.82    8.13
  -3  -5  30   40.93   14.28
   3  -5  30   21.14    8.40
  -3   5  30   25.30    9.70
   3  -6   0    1.68    2.47
  -3  -6   0    3.97    3.52
   3  -6   0    1.94    2.72
  -3  -6   0   -0.50    1.32
  -3  -6   1    6.59    2.00
  -3   6   1    3.81    3.74
  -3  -6   1    3.66    2.46
  -3  -6  -1   14.18    5.11
   3  -6   1    7.63    1.95
   3  -6  -1    9.99    5.30
   3  -6  -1    8.69    3.24
   3  -6   1   11.97    4.98
  -3  -6  -1    7.27    2.82
  -3   6   2  348.62   26.45
  -3  -6   2  411.68   28.00
   3  -6   2  328.80   23.67
  -3  -6  -2  348.29   25.91
   3  -6  -2  327.50   23.39
  -3  -6   2  335.17   19.76
  -3  -6   2  343.26   10.65
   3  -6  -2  330.82   25.21
   3  -6  -3   23.49    7.52
  -3  -6   3   26.38    5.57
  -3  -6   3   29.11    8.17
   3  -6  -3   39.31    8.51
   3  -6   3   21.41    5.92
   3  -6   3   37.02    9.19
  -3  -6  -3   34.77    8.03
  -3   6   3   26.37    8.15
  -3  -6   3   29.62    4.06
   3   6   3   25.56    5.71
  -3  -6   4   41.36    6.91
  -3  -6  -4   41.57    9.03
   3  -6   4   20.60    6.41
   3  -6   4   36.15    7.64
   3  -6  -4   42.70    8.89
  -3  -6   4   45.56    9.53
  -3  -6   4   29.36    5.14
   3   6   4   37.87    7.04
   3  -6  -4   32.17    8.42
  -3   6   4   35.71    8.75
  -3  -6   5   39.86    6.58
   3  -6   5   35.95    8.43
   3  -6   5   44.15    8.95
  -3  -6   5   46.95    9.29
   3  -6  -5   50.42   10.25
   3  -6  -5   50.50    9.43
  -3  -6  -5   43.49    8.91
  -3   6   5   42.78    9.24
  -3  -6   5   48.91    6.88
   3   6   5   54.14    9.27
  -3  -6   6  129.53   16.21
   3  -6   6  130.90   15.28
   3  -6   6  105.60   14.75
  -3  -6  -6  138.36   16.61
   3  -6  -6  125.59   15.07
   3   6   6   99.28    6.60
  -3   6   6  148.01   17.41
  -3  -6   6  108.11   10.92
   3  -6  -6  128.46   15.33
   3   6   6  135.33   14.81
  -3  -6   6  125.18   12.43
  -3  -6   7    0.64    0.90
   3  -6   7   -0.77    1.90
  -3  -6   7    0.98    1.30
   3   6   7   -0.33    1.09
  -3  -6  -7   -1.33    2.59
  -3   6   7    1.04    2.51
   3  -6  -7    3.08    2.09
  -3  -6   7    0.20    0.76
   3   6   7    1.42    3.03
   3  -6   7    2.95    2.76
  -3  -6   8   53.56   10.82
   3  -6   8   57.55   10.40
  -3  -6  -8   50.80   10.20
   3  -6  -8   51.07   10.28
  -3   6   8   46.24    9.71
  -3  -6   8   53.67    8.49
   3   6   8   55.80    6.89
  -3  -6   8   47.53    8.73
   3  -6   8   58.37   11.14
   3   6   8   32.88    7.98
   3   6   9   14.48    5.57
   3  -6   9   19.59    7.12
  -3  -6   9   12.39    4.22
  -3  -6   9   15.71    5.23
   3  -6   9   16.39    5.46
   3   6   9   19.37    4.65
  -3  -6   9   15.66    3.87
  -3  -6  -9   18.29    5.87
  -3   6   9   14.70    5.38
   3  -6  -9   17.92    7.61
  -3   6   9    8.20    4.57
  -3  -6  10    3.29    1.50
   3   6  10    6.45    4.21
  -3  -6  10    7.06    4.84
   3  -6  10    8.46    4.12
  -3  -6 -10   18.72    7.43
   3  -6  10    7.23    2.50
  -3   6  10   10.58    6.49
   3  -6 -10    2.26    3.36
  -3   6  10    3.12    4.01
  -3  -6  10    9.77    4.02
   3   6  10    7.52    3.55
   3  -6  11    1.71    1.23
  -3  -6  11   11.38    6.53
   3   6  11    7.95    4.63
   3  -6  11   11.16    6.69
  -3  -6 -11    4.31    2.93
   3  -6 -11    9.96    4.98
  -3   6  11   10.96    5.61
   3   6  11   11.83    4.24
  -3  -6  11    8.79    3.63
  -3   6  11    3.57    3.05
  -3  -6  11    6.69    2.56
   3   6  12   -0.23    3.88
   3  -6  12    5.55    4.48
  -3  -6  12   -1.29    3.65
   3  -6  12   -0.87    2.44
  -3  -6 -12    6.43    4.77
  -3   6  12   -1.18    3.24
   3  -6 -12   -3.07    5.40
   3   6  12   -0.55    2.35
  -3  -6  12   -1.18    1.43
  -3   6  12    0.47    4.21
  -3  -6  12   -0.50    3.40
  -3  -6 -13   33.38    8.11
  -3  -6  13   19.36    6.60
   3   6  13   26.36    8.39
   3  -6  13   33.90    9.50
   3  -6 -13   21.21    6.54
   3   6  13   33.10    7.73
  -3  -6  13   29.03    7.43
  -3  -6  13   23.81    8.71
  -3   6  13   16.80    4.75
   3  -6  13   42.38   10.58
  -3   6  13   25.08    8.86
  -3  -6  14   40.92   10.67
   3   6  14   62.87   11.94
  -3  -6  14   64.05   12.21
  -3  -6  14   55.64   10.52
   3  -6 -14   32.78    9.81
  -3  -6 -14   61.30   12.44
   3  -6  14   82.37   15.48
   3   6  14   45.13    9.68
  -3   6  14   44.89   10.52
  -3   6  14   70.76   13.19
   3  -6  14   62.73   12.58
   3  -6  15    0.92    2.14
  -3  -6  15   13.42    7.21
   3   6  15   10.94    5.10
   3  -6  15    1.69    1.81
  -3  -6 -15   14.49    7.56
   3  -6 -15    0.90    3.94
  -3  -6  15    8.09    5.34
   3   6  15    4.66    3.54
  -3  -6  15    2.36    3.19
  -3   6  15    5.56    3.03
  -3   6  15    4.57    3.33
   3  -6  16    6.19    3.59
   3   6  16    5.53    4.58
  -3  -6  16   -0.24    1.37
   3  -6  16    2.67    4.13
  -3  -6 -16    0.90    3.09
  -3   6  16    2.43    3.93
   3  -6 -16   -1.07    3.26
  -3  -6  16    0.87    2.04
   3   6  16   -1.22    2.52
  -3  -6  16    1.80    2.99
  -3   6  16   10.54    7.63
  -3  -6  17    6.20    4.54
   3   6  17   12.79    6.68
  -3   6  17    9.37    5.13
   3  -6 -17   18.99    7.54
  -3   6  17   13.10    4.72
  -3  -6 -17   17.05    6.95
   3  -6  17    4.08    4.47
  -3  -6  17   12.61    5.67
  -3  -6  17   14.09    7.26
   3   6  17   13.65    5.09
   3   6  18   11.37    4.59
   3  -6 -18    2.82    2.37
  -3  -6  18    6.83    4.55
  -3  -6 -18    6.96    3.93
  -3   6  18    9.58    6.21
   3   6  18   -1.05    2.67
  -3  -6  18    5.71    1.83
  -3   6  18   14.44    7.83
   3  -6  18   -1.25    5.82
  -3  -6  18   10.40    6.87
   3   6  19    2.61    1.69
  -3  -6  19   -0.30    5.21
   3  -6  19    0.78    3.75
  -3   6  19    9.13    5.70
   3  -6 -19    5.22    5.74
   3   6  19   14.69    4.93
  -3  -6 -19    1.71    4.98
  -3  -6  19    3.75    1.66
  -3   6  19    1.46    0.93
   3  -6  19    7.95    5.53
   3   6  20   14.66    7.24
  -3   6  20    7.48    5.19
  -3  -6  20    2.84    0.49
  -3   6  20    6.31    6.31
  -3  -6 -20   16.99    8.76
   3  -6 -20    2.95    1.75
  -3  -6  20    6.36    4.57
   3   6  20    6.89    3.60
   3  -6  20    3.35    4.24
   3  -6  20    3.33    1.35
   3   6  21   -2.52    2.13
  -3  -6  21    3.23    3.46
  -3  -6 -21    1.11    3.53
  -3   6  21   -3.80    6.42
   3  -6 -21   -2.56    4.15
   3   6  21    4.74    5.67
  -3  -6  21   -5.55    5.21
   3  -6  21    4.20    5.19
   3  -6  21   -0.70    2.51
  -3   6  21   -1.71    4.33
   3   6  22   -4.10    3.08
  -3  -6 -22    1.25    3.10
  -3  -6  22    2.38    5.98
  -3   6  22    3.82    6.00
   3  -6 -22   -1.26    5.76
   3   6  22    4.67    4.83
   3  -6  22   -0.16    0.27
  -3  -6  22   -1.05    4.29
   3  -6  22    1.60    3.71
  -3   6  22   -3.61    3.80
   3   6  23   -4.27    5.09
  -3  -6  23   17.08   10.66
  -3   6  23   -2.54    4.48
  -3  -6 -23    3.95    5.86
   3  -6 -23    5.70    5.72
   3  -6  23   -3.50    5.56
   3   6  23   -5.83    5.97
  -3  -6  23    5.68    6.01
   3  -6  23    1.99    3.95
  -3   6  23    1.09    2.55
   3   6  24    4.03    5.99
   3  -6  24    2.83    5.05
  -3  -6 -24    4.13    4.54
   3  -6 -24    1.50    2.43
  -3   6  24    5.19    3.20
   3   6  24    3.29    3.91
  -3  -6  24    4.24    4.71
   3  -6  24    1.81    6.46
  -3   6  24    5.22    1.74
   3   6  25   -5.35    7.54
  -3  -6  25   11.24    6.10
  -3  -6 -25   -0.13    4.27
  -3   6  25    4.65    7.12
   3  -6  25    0.32    2.60
   3  -6 -25    7.40    4.04
   3   6  25    0.34    1.32
   3  -6  25    9.01    8.48
  -3   6  25    1.18    0.90
   3   6  26    0.03    3.85
  -3  -6 -26   -0.37    4.66
   3  -6  26    2.97    3.81
  -3   6  26   -2.80    5.85
   3  -6 -26    3.34    2.75
   3   6  26    9.45    1.61
  -3  -6  26   -3.31    3.72
   3  -6  26   -2.95    4.65
  -3   6  26   -3.62    5.56
   3   6  27    0.29    2.84
  -3   6  27    7.29    7.95
   3  -6  27   -0.39    4.17
  -3  -6 -27    3.10    4.91
   3  -6 -27   -0.40    3.03
   3   6  27   -2.13    3.27
  -3  -6  27    2.06    6.23
   3  -6  27   -1.44    5.28
  -3   6  27   -6.08    7.40
  -3  -6 -28   -1.69    5.94
  -3   6  28    9.18    7.94
   3   6  28   14.81    8.40
   3  -6  28    2.77   11.45
   3  -6 -28   -5.86    6.13
  -3  -6  28    0.49    5.08
   3  -6  28   -3.08    8.07
  -3   6  28   -1.37    1.66
   3   6  29   26.52   10.34
   3  -6  29   17.65    9.45
  -3  -6 -29   11.62    4.99
   3  -6 -29   14.73    7.09
   3  -6  29   19.48    7.96
  -3   6  29   35.95   12.56
  -3  -6  29   10.84    5.57
  -3   6  29   12.33    5.12
   3  -7   0   -0.94    2.21
  -3  -7   0   -1.53    1.15
   3  -7   0    0.86    2.73
  -3  -7   0    1.54    0.86
  -3  -7  -1  417.49   25.42
  -3  -7   1  476.58   32.49
  -3  -7  -1  505.90   32.56
   3  -7   1  413.89   28.31
   3  -7  -1  396.35   28.00
   3  -7  -1  436.87   30.94
   3  -7   1  458.32   31.09
  -3  -7   1  432.29   25.05
  -3   7   1  474.78   30.69
  -3   7   2   14.41    5.73
  -3  -7  -2   15.93    5.76
  -3  -7   2   25.41    8.72
   3  -7   2   22.84    6.20
  -3  -7  -2   14.36    3.91
   3  -7  -2   11.77    3.93
   3  -7  -2    8.57    4.31
   3  -7   2   12.94    5.75
  -3  -7   2   20.39    5.68
  -3  -7   3  654.72   38.11
   3  -7   3  554.21   33.56
  -3  -7  -3  590.03   35.72
   3  -7  -3  644.96   35.63
  -3  -7   3  535.23   27.54
  -3   7   3  611.07   36.66
   3  -7   3  622.50   36.92
   3  -7  -3  600.08   36.03
  -3  -7   4  849.60   44.14
   3  -7  -4  841.98   42.79
   3  -7   4  829.74   40.98
  -3  -7   4  904.15   35.91
  -3  -7  -4  908.02   44.10
   3  -7  -4  922.82   42.69
  -3  -7   4  947.52   27.57
   3  -7   4  866.94   43.16
  -3   7   4  889.39   44.89
  -3  -7   5  812.17   34.50
  -3  -7   5  877.10   44.40
   3  -7   5  844.56   41.88
   3  -7  -5  721.30   39.30
  -3  -7  -5  701.73   38.96
   3  -7   5  817.05   42.54
   3  -7  -5  766.87   39.79
   3   7   5  795.36   36.90
  -3  -7   5  809.92   29.10
  -3   7   5  795.67   43.00
  -3  -7   6  105.44   15.82
   3  -7   6  132.75   16.63
   3  -7   6  144.25   17.95
  -3  -7  -6  130.71   16.49
   3  -7  -6  147.88   17.87
   3  -7  -6  126.86   16.57
  -3  -7   6  128.63   13.53
  -3   7   6  128.97   17.24
   3   7   6  134.51   15.71
  -3  -7   7    1.58    2.31
   3  -7   7   -0.12    1.86
   3  -7  -7    2.36    0.67
  -3  -7   7   -0.23    1.09
  -3  -7  -7    4.63    3.80
   3  -7  -7    0.50    2.45
  -3   7   7    4.96    5.34
   3   7   7   -0.01    0.26
  -3  -7   7    5.28    3.35
   3  -7   7   -1.71    2.36
   3   7   7   -0.91    2.29
   3  -7   8  226.37   22.70
  -3  -7   8  251.99   24.12
   3  -7   8  251.48   23.05
   3   7   8  198.32   12.16
  -3  -7  -8  222.76   22.49
   3  -7  -8  233.38   22.46
   3   7   8  204.15   20.41
  -3   7   8  252.93   24.56
  -3  -7   8  218.77   19.03
  -3  -7   8  239.98   19.86
  -3  -7   9  500.15   34.96
   3  -7   9  519.21   33.51
  -3  -7  -9  526.00   35.26
   3  -7  -9  516.38   34.52
  -3  -7   9  485.87   28.92
   3   7   9  479.64   21.88
  -3  -7   9  461.97   28.40
   3   7   9  503.30   31.93
  -3   7   9  466.78   33.02
   3  -7   9  564.20   35.88
  -3  -7  10   67.62   13.07
  -3  -7  10   42.05    8.49
   3  -7  10   42.97    9.47
  -3  -7 -10   54.17   11.53
   3  -7 -10   55.63   12.02
   3   7  10   48.08    7.54
  -3   7  10   50.73   11.02
  -3   7  10   59.64   12.24
  -3  -7  10   57.43   10.57
   3   7  10   72.89   12.09
   3  -7  10   71.34   13.22
  -3  -7  11   -2.01    2.02
   3  -7  11    1.16    3.40
  -3  -7 -11    1.55    3.32
   3  -7  11   -3.89    5.34
  -3  -7  11    3.18    2.16
   3  -7 -11    4.33    2.37
  -3   7  11   -0.94    6.24
   3   7  11    1.07    2.06
  -3   7  11   -1.24    1.33
  -3  -7  11    0.14    1.32
   3   7  11    8.55    5.46
  -3   7  12   89.79   14.92
  -3  -7 -12   76.20   13.59
  -3  -7  12   83.55   13.35
  -3   7  12   56.99   12.85
   3  -7 -12   77.51   13.98
  -3  -7  12   44.19   10.95
   3   7  12   64.82    9.71
   3  -7  12   98.93   15.63
   3   7  12   80.29   14.20
   3  -7  12   65.61   12.95
  -3  -7  12   86.57   14.77
  -3  -7 -13  617.44   40.51
   3   7  13  580.12   31.93
  -3  -7  13  664.03   37.90
  -3   7  13  654.55   40.62
  -3   7  13  630.09   39.51
  -3  -7  13  672.74   39.46
   3  -7  13  635.22   40.21
   3  -7  13  649.99   39.88
  -3  -7  13  644.87   41.62
   3   7  13  645.42   39.34
   3   7  14   17.88    7.66
   3  -7  14   17.79    8.04
  -3  -7  14   15.16    6.72
   3  -7  14   25.91    7.60
  -3   7  14   16.52    4.63
   3  -7 -14   16.53    6.58
   3   7  14   12.12    4.90
  -3  -7  14   12.95    6.26
  -3   7  14    5.99    0.71
  -3  -7  14   20.54    7.42
  -3  -7 -14    7.94    4.59
   3   7  15    6.01    3.97
   3  -7  15    3.09    3.29
  -3  -7  15   13.86    7.10
   3  -7  15    2.21    1.99
  -3  -7 -15    3.78    5.46
   3  -7 -15    4.19    2.33
  -3   7  15    5.41    3.40
   3   7  15    5.84    4.03
  -3  -7  15   10.31    5.73
  -3  -7  15    7.17    3.64
  -3   7  15    3.11    4.51
   3  -7  16   37.24   10.21
   3   7  16   17.06    6.43
  -3  -7  16   28.34    9.77
  -3  -7  16   25.45    8.43
   3  -7  16   32.27    9.65
  -3  -7 -16   26.61    8.95
   3  -7 -16   13.24    6.68
  -3   7  16   30.24    9.08
   3   7  16   16.06    6.09
  -3  -7  16   21.99    7.85
  -3   7  16   30.30    9.31
  -3  -7  17  235.75   26.04
  -3  -7  17  223.34   24.43
  -3  -7 -17  261.40   28.30
   3  -7 -17  254.04   28.05
  -3   7  17  299.45   29.82
   3   7  17  204.67   22.43
  -3  -7  17  245.13   27.16
  -3   7  17  282.57   28.66
   3  -7  17  250.79   26.79
   3   7  17  268.17   27.39
   3  -7  17  211.62   24.31
  -3  -7 -18   13.32    5.69
   3  -7  18   -0.53    3.54
  -3  -7  18    4.66    3.99
   3   7  18   11.36    4.98
   3  -7 -18    0.39    2.31
  -3   7  18    6.20    1.95
  -3  -7  18   -0.31    1.91
   3   7  18    6.76    6.02
  -3  -7  18   10.52    6.18
  -3   7  18    2.86    3.30
   3  -7  18    6.28    3.20
   3  -7  19  199.75   24.63
  -3  -7  19  155.12   21.22
  -3  -7 -19  160.95   23.28
  -3   7  19  170.97   22.89
   3  -7  19  167.94   22.65
   3  -7 -19  149.51   22.09
   3   7  19  167.83   21.18
  -3  -7  19  141.71   21.51
  -3   7  19  187.23   24.28
   3   7  19  192.67   24.44
  -3  -7  19  158.53   22.13
   3   7  20   20.91    7.70
   3  -7 -20   28.86    9.59
  -3  -7 -20   30.30   10.08
  -3   7  20   26.81   11.93
  -3  -7  20   17.98    8.18
  -3   7  20   33.30    9.99
   3  -7  20   18.91    7.18
   3  -7  20   29.00    8.45
   3  -7 -21   21.52    9.31
   3  -7  21   57.92   14.73
   3   7  21   56.35   13.39
   3  -7  21   33.92    9.75
  -3  -7 -21   28.33    9.30
  -3   7  21   29.32   10.84
  -3  -7  21   30.42   10.20
  -3   7  21   50.53   13.06
   3   7  22   21.06    7.92
  -3   7  22   12.85    5.09
  -3  -7 -22   21.40   10.46
   3  -7 -22   25.98    8.61
  -3  -7  22   33.17    9.18
   3  -7  22   19.16    8.01
  -3   7  22   10.48    6.39
   3  -7  22   23.18    9.35
   3  -7  23  147.43   23.82
  -3  -7 -23  225.93   28.46
   3  -7 -23  173.03   25.17
  -3   7  23  166.88   23.91
  -3  -7  23  141.39   22.87
  -3   7  23  165.66   23.11
   3   7  23  186.46   24.63
   3  -7  23  179.14   25.61
   3   7  24   -1.29    5.00
   3  -7  24   -2.14    5.30
   3  -7 -24    1.35    3.69
  -3   7  24    2.74    5.87
  -3  -7 -24    0.24    2.26
  -3  -7  24    3.30    3.30
   3  -7  24    3.71    4.81
  -3   7  24    2.26    5.00
   3   7  25   38.09   11.60
  -3  -7 -25   18.67    7.59
  -3   7  25   23.04    9.12
  -3   7  25   33.65   10.77
   3  -7 -25   17.77    9.84
  -3  -7  25   36.62   13.13
   3  -7  25   25.25   10.91
   3  -7  25   25.65   11.43
   3   7  26    4.52    5.96
   3  -7  26    6.98    5.54
  -3  -7 -26   -2.02    4.28
  -3   7  26    3.16    3.90
   3  -7 -26    6.73    9.21
   3  -7  26    4.57    6.07
  -3  -7  26    8.93    7.32
  -3   7  26    1.91    3.20
   3  -7  27  146.37   23.20
   3  -7 -27  162.56   25.54
  -3   7  27   88.82   18.80
  -3  -7  27  128.74   22.16
  -3   7  27  151.49   24.83
   3  -7  27  149.61   25.36
   3   7  27  150.36   23.91
   3   7  28   -4.59    6.26
  -3   7  28    4.85    5.57
  -3  -7 -28    3.72    6.91
   3  -7  28    2.54    4.50
  -3   7  28   12.21    7.34
   3  -7 -28    2.73    3.04
  -3  -7  28    3.01    3.15
   3  -7  28    2.57    0.81
  -3  -8   0    1.69    3.13
  -3  -8   0   -1.15    4.03
   3  -8   0    2.03    4.33
   3  -8   0   -0.12    1.17
   3  -8  -1    7.69    4.37
  -3  -8   1   17.81    7.44
  -3  -8  -1   24.85    6.96
   3  -8   1   15.01    6.71
   3  -8  -1   18.63    6.85
  -3  -8  -1    8.48    4.18
   3  -8   1   17.89    7.52
  -3  -8   1   18.84    5.67
  -3  -8   2   -1.22    0.82
  -3  -8   2   -2.36    1.82
   3  -8   2    2.90    4.95
   3  -8   2    2.87    2.43
  -3  -8  -2    1.35    3.07
  -3  -8  -2    4.02    3.33
   3  -8  -2    0.34    2.58
   3  -8  -2    2.72    2.79
  -3   8   2   -0.70    0.53
  -3  -8   3   97.30   15.91
   3  -8   3   99.19   15.11
  -3  -8  -3  124.42   17.39
   3  -8  -3  108.55   15.80
  -3  -8  -3  115.22   14.67
  -3   8   3   98.93   15.30
   3  -8   3   98.63   15.37
   3  -8  -3   95.52   15.33
  -3  -8   4   25.29    6.30
   3  -8  -4   46.29   10.12
  -3  -8   4   36.20    9.70
   3  -8   4   41.27   10.06
   3  -8   4   36.83    9.05
  -3  -8  -4   37.58    9.11
   3  -8  -4   23.79    6.46
  -3   8   4   42.29   10.57
  -3  -8   5   49.81    9.42
   3  -8   5   42.38   10.14
  -3  -8   5   29.33    8.39
   3  -8   5   30.54    7.75
   3  -8  -5   61.47   12.55
  -3  -8  -5   38.47    9.62
   3  -8  -5   42.34   10.17
  -3   8   5   28.35    8.09
  -3  -8   6   64.63   13.29
   3  -8   6   59.24   12.30
   3  -8   6   33.50    8.73
  -3  -8  -6   51.52   10.77
  -3   8   6   53.14   11.49
   3  -8  -6   43.66    9.71
   3   8   6   40.32    8.45
  -3  -8   6   42.09    8.94
   3  -8  -6   28.83    8.21
  -3  -8   7   16.06    5.30
   3  -8   7   14.98    6.84
  -3  -8  -7    7.94    3.50
  -3  -8   7   12.90    4.93
  -3   8   7    6.83    4.34
   3  -8  -7   12.73    5.01
   3  -8  -7   14.55    5.39
   3   8   7   24.33    7.46
   3  -8   7    7.21    2.13
  -3  -8   8   89.46   15.12
   3  -8   8   84.10   14.14
   3  -8   8   76.77   13.07
   3   8   8   77.63   13.31
  -3  -8  -8   79.23   14.02
   3  -8  -8   63.00   12.53
   3  -8  -8   96.74   15.30
  -3   8   8   85.15   15.34
  -3  -8   8   85.00   12.48
  -3  -8   9  135.65   19.49
   3  -8   9  138.65   18.20
  -3  -8  -9  147.24   19.08
   3  -8  -9   92.04   15.08
  -3   8   9  126.60   17.96
  -3  -8   9  122.73   15.00
   3   8   9  135.30   17.34
   3  -8   9  149.31   19.41
  -3  -8  10   29.12    8.63
   3  -8  10   23.00    8.13
  -3  -8  10   33.26    8.59
  -3  -8 -10   16.83    6.51
   3  -8 -10   18.94    8.39
  -3   8  10   42.24   10.07
   3  -8  10   23.88    9.13
  -3  -8  10   27.97    9.16
   3   8  10   31.08    9.22
  -3  -8  11    5.33    3.91
  -3  -8  11    4.89    3.97
   3  -8  11    3.14    0.86
   3   8  11   10.65    6.42
   3  -8  11    4.83    0.68
  -3  -8 -11    2.06    4.64
   3  -8 -11    5.68    5.09
  -3   8  11   10.37    6.20
  -3  -8  11    4.45    2.56
  -3  -8  12   15.22    6.22
  -3  -8  12   10.30    5.53
   3  -8  12   24.85    7.67
  -3   8  12   16.56    8.09
   3  -8  12   10.54    5.05
  -3   8  12   39.28    9.36
  -3  -8 -12   15.31    6.75
  -3  -8  12   15.68    4.96
   3  -8 -12   32.20    8.12
   3   8  12   16.56    5.74
  -3   8  13   10.64    4.95
   3  -8  13    1.69    3.27
  -3  -8  13    3.98    2.65
   3  -8  13    2.09    3.96
  -3  -8 -13    6.96    4.07
   3  -8 -13    4.31    4.56
  -3   8  13    8.56    4.73
  -3  -8  13    5.58    3.29
   3   8  13    9.26    7.46
  -3  -8  13    4.56    5.18
   3  -8  14    5.12    2.84
  -3  -8  14   -2.89    5.27
   3   8  14    1.72    4.67
   3  -8  14   -1.37    1.91
  -3   8  14   -1.03    5.14
   3  -8 -14    0.14    3.73
  -3  -8 -14    4.73    6.16
  -3   8  14    7.67    7.24
  -3  -8  14    2.26    2.07
  -3  -8  14    2.17    2.42
   3  -8  15   59.74   12.68
  -3  -8  15   56.32   13.14
   3  -8  15   38.67   11.81
  -3  -8  15   52.33   12.17
  -3  -8 -15   60.93   12.82
   3  -8 -15   36.22   11.81
  -3   8  15   49.74   12.97
  -3   8  15   35.44    9.62
  -3  -8  15   57.58   12.85
   3   8  15   66.91   13.44
   3  -8  16    2.73    6.20
  -3  -8  16    3.11    5.18
   3  -8 -16    3.08    1.78
   3  -8  16    1.18    4.77
  -3  -8 -16    6.29    5.26
  -3   8  16   -0.41    4.63
  -3  -8  16    5.50    7.27
  -3  -8  16   -1.85    1.80
  -3   8  16    0.04    2.90
   3   8  16    3.63    3.56
  -3  -8  17   56.75   12.71
   3  -8  17   40.69   11.06
  -3   8  17   49.20   12.06
   3  -8 -17   59.80   13.58
  -3  -8 -17   68.60   14.71
  -3  -8  17   50.62   12.86
  -3   8  17   24.06   13.33
   3  -8  17   56.18   11.76
   3   8  17   45.44   12.53
   3   8  18    2.15    2.55
   3  -8  18    1.57    5.56
  -3  -8  18    0.56    2.94
   3  -8  18    5.79    5.97
  -3   8  18    6.87    6.16
  -3  -8 -18   10.01    5.45
   3  -8 -18   13.88    6.96
  -3  -8  18   -1.46    3.63
  -3   8  18   12.13    6.49
   3   8  19    5.98    5.04
   3  -8  19    4.30    6.17
   3  -8  19    0.39    4.27
  -3  -8  19   -3.20    4.51
  -3  -8 -19    0.78    3.48
   3  -8 -19   -2.48    3.42
  -3   8  19    3.12    2.54
  -3  -8  19    5.19    3.11
  -3   8  19    1.95    2.91
   3  -8  19    2.83    1.03
   3   8  20   14.65    4.88
   3  -8 -20   26.69    9.61
  -3  -8  20   45.12   13.23
  -3  -8 -20   40.60   11.75
   3  -8  20    8.46    4.55
  -3   8  20   13.42   10.09
  -3  -8  20   17.85    8.36
  -3   8  20   21.66    9.32
   3  -8  20   12.88    3.79
   3   8  21    4.97    3.71
  -3  -8 -21    1.88    2.68
   3  -8 -21   -0.79    1.31
  -3   8  21    2.18    6.47
  -3  -8  21   -3.02    3.10
  -3   8  21   -1.73    0.98
   3  -8  21    1.03    3.95
   3  -8  21    2.85    4.14
   3   8  22   12.84    6.69
  -3  -8 -22   10.43    7.60
   3  -8 -22    0.40    4.94
  -3   8  22    2.26    0.77
  -3  -8  22   -0.47    1.66
  -3   8  22    1.58    3.69
   3  -8  22    5.14    5.27
   3  -8  22   10.19    7.54
   3   8  23    2.21    6.67
  -3  -8 -23   -2.79    3.70
   3  -8 -23    2.77    4.99
  -3  -8  23   -2.92    3.91
   3  -8  23   -3.53    5.71
  -3   8  23   -3.74    5.34
   3  -8  23    4.05    5.45
  -3   8  23   -3.84    6.20
   3   8  24    8.89    1.33
   3  -8 -24   -4.12    5.89
  -3  -8 -24    6.71    3.69
  -3   8  24   17.03    9.18
  -3  -8  24    8.91    7.81
   3  -8  24    2.65    3.13
  -3   8  24   10.11    8.41
   3  -8  24    2.79    2.90
   3   8  25   -0.05    1.92
  -3   8  25   -1.85    5.30
  -3  -8 -25    2.48    3.87
   3  -8  25   11.36    4.70
   3  -8 -25   -2.23    4.47
   3  -8  25    0.68    1.58
  -3  -8  25    3.96    4.65
  -3   8  25    6.10    5.75
   3   8  26   -7.68    7.40
  -3  -8 -26   13.43    7.92
  -3   8  26   -7.39    2.90
  -3   8  26    1.53    3.83
   3  -8 -26   -4.98    2.47
   3  -8  26    1.74    5.25
  -3  -8  26    0.82    2.52
   3  -8  26    2.89    7.48
   3   8  27    3.51    2.36
  -3  -8 -27    5.93    5.88
   3  -8 -27    3.63    2.09
  -3   8  27   -0.03    1.71
   3  -8  27    2.68    2.69
  -3  -8  27    9.18    6.70
  -3   8  27    3.78    5.48
   3  -8  27    7.73    7.64
  -3  -9   0    2.98    4.64
  -3  -9   0   -4.11    5.07
   3  -9   0   -2.17    4.83
   3  -9   0    3.44    0.21
  -3  -9   1  575.15   40.12
  -3  -9  -1  570.69   39.35
   3  -9   1  596.33   38.58
   3  -9  -1  660.41   41.04
   3  -9   1  532.85   37.47
  -3  -9   1  541.41   33.55
   3  -9  -1  507.05   36.59
  -3  -9  -1  569.56   34.71
   3  -9   2   80.01   13.82
  -3  -9  -2   85.16   15.47
  -3  -9   2   61.88   12.55
   3  -9  -2   50.94   12.25
   3  -9  -2   52.42   10.83
   3  -9   2   46.97   11.26
  -3  -9   2   61.98   11.09
  -3  -9  -2   50.12   10.24
  -3  -9   3    3.99    4.04
   3  -9   3    4.25    2.33
  -3  -9   3    0.70    1.17
  -3  -9  -3    6.72    6.55
   3  -9  -3    3.52    4.97
  -3  -9  -3    3.64    2.59
   3  -9   3    0.16    4.25
  -3   9   3   -0.12    0.85
   3  -9  -3   -1.74    1.42
  -3  -9   4  169.66   22.12
  -3   9   4  156.55   19.58
  -3  -9  -4  135.93   19.83
   3  -9  -4  178.42   21.23
  -3  -9  -4  183.95   20.24
  -3  -9   4  183.69   18.91
   3  -9   4  156.20   19.46
   3  -9   4  167.62   20.80
   3  -9  -4  171.95   21.49
   3  -9  -5  801.22   46.41
  -3  -9   5  724.11   44.38
   3  -9   5  786.27   46.07
  -3  -9   5  711.53   38.32
  -3  -9  -5  732.62   44.80
   3  -9  -5  764.48   44.65
   3  -9   5  693.56   42.83
  -3  -9  -5  822.20   42.98
  -3   9   5  792.19   45.62
  -3  -9   6  172.75   18.53
  -3  -9   6  188.52   22.71
   3  -9   6  197.51   23.04
   3  -9  -6  179.17   21.87
   3  -9   6  199.99   22.68
  -3  -9  -6  209.79   24.28
   3  -9  -6  147.07   19.53
  -3   9   6  190.18   22.84
  -3  -9   7  132.95   19.33
   3  -9   7  129.14   18.74
   3  -9   7  162.07   20.93
   3  -9  -7  119.16   18.07
  -3  -9  -7  120.13   18.05
   3  -9  -7  110.99   17.00
  -3   9   7  127.45   18.43
  -3  -9   7  112.54   15.14
  -3  -9   8  124.31   19.17
   3  -9   8   88.99   15.25
  -3  -9  -8   88.75   16.28
   3  -9  -8   87.71   15.51
   3  -9   8  143.06   19.91
   3  -9  -8  110.35   16.72
  -3   9   8  103.17   16.10
   3   9   8  116.07   16.01
  -3  -9   8  126.27   16.16
  -3  -9   9  334.16   31.16
   3  -9   9  335.67   29.63
  -3  -9  -9  303.19   28.47
   3  -9  -9  328.52   29.42
   3  -9  -9  343.86   30.85
  -3   9   9  297.24   29.22
   3   9   9  342.95   29.24
  -3  -9   9  331.39   26.84
   3  -9   9  328.45   29.47
  -3  -9  10  144.37   21.03
   3  -9  10  165.35   21.35
  -3  -9 -10  163.78   21.74
   3  -9 -10  147.26   20.34
   3  -9 -10  121.96   18.77
  -3   9  10  149.14   21.27
  -3  -9  10  116.31   16.30
   3   9  10  162.99   20.56
   3  -9  10  145.58   19.42
   3  -9  11   60.23   13.73
  -3  -9  11   58.65   12.89
  -3  -9 -11   64.34   14.26
   3  -9  11   58.71   12.08
  -3   9  11   50.65   12.34
   3  -9 -11   44.03   11.76
  -3  -9  11   60.42   12.42
   3   9  11   55.79   13.24
  -3  -9  12   -3.42    1.16
  -3  -9  12    0.40    3.32
   3  -9  12    9.47    2.63
   3  -9  12    9.57    4.27
   3  -9 -12    2.71    1.19
  -3  -9 -12    4.56    3.46
  -3   9  12   -0.64    2.70
   3   9  12    1.48    1.84
  -3  -9 -13   92.64   16.67
   3  -9 -13   87.69   17.20
  -3   9  13  116.16   19.11
   3   9  13  110.64   17.21
   3  -9  13   97.43   16.83
  -3  -9  13   82.10   16.35
   3  -9  13   70.32   14.51
  -3   9  14   43.18   11.11
   3  -9  14   53.43   12.86
  -3  -9  14   49.37   13.28
   3  -9  14   50.61   12.53
  -3  -9 -14   44.93   11.27
   3  -9 -14   55.15   13.38
  -3   9  14   55.08   12.81
   3   9  14   91.77   16.58
   3  -9 -15    9.47    5.37
  -3  -9 -15    0.81    2.49
   3  -9  15    8.92    5.08
  -3  -9  15    7.92    4.15
   3  -9  15    7.85    5.17
  -3   9  15   -1.35    0.66
  -3   9  15    2.99    1.01
   3   9  15    7.99    7.38
  -3   9  16  178.00   23.75
   3  -9  16  182.74   24.34
  -3  -9 -16  164.11   21.86
   3  -9 -16  192.61   24.90
  -3   9  16  203.55   25.38
   3   9  16  175.11   23.19
   3  -9  16  194.46   23.90
  -3  -9  16  156.31   23.42
   3  -9 -17  124.58   20.26
  -3   9  17  135.61   21.38
  -3   9  17  122.88   20.06
   3   9  17  161.12   22.08
   3  -9  17  123.37   19.99
  -3  -9  17  139.17   21.48
   3  -9  17  148.84   21.99
   3  -9  18   -3.02    5.38
  -3  -9  18    5.53    5.96
   3  -9  18   -2.08    3.93
  -3   9  18    1.76    3.13
  -3  -9 -18    9.60    6.03
   3  -9 -18    0.69    2.02
  -3   9  18   -1.35    3.10
   3   9  18    7.18    2.28
  -3  -9 -19   86.71   18.30
   3  -9 -19  102.18   18.30
  -3   9  19   63.11   16.33
  -3   9  19   89.12   17.29
   3  -9  19   82.63   16.88
   3   9  19   70.11   15.08
   3  -9  19   92.66   17.62
   3  -9  19   90.96   17.86
  -3  -9  19   74.03   15.37
   3  -9  20   52.67   14.14
  -3  -9 -20   85.33   16.43
   3  -9  20   74.09   15.53
   3  -9 -20   53.89   12.08
  -3   9  20   80.35   17.19
  -3   9  20   68.68   16.02
   3  -9  20   52.30   12.12
   3   9  20   42.61   13.30
  -3  -9  20   69.85   16.67
  -3  -9  21   30.15    9.60
   3  -9  21   31.95   12.65
   3  -9 -21   35.29   11.99
  -3  -9 -21   32.72   11.63
  -3   9  21   35.60   10.52
  -3   9  21   50.84   12.87
   3  -9  21   33.02   11.61
   3   9  21   41.26   11.93
  -3   9  22   -0.13    3.20
  -3  -9 -22   -0.05    3.96
   3  -9 -22   -4.33    7.76
  -3   9  22   -3.77    4.16
   3  -9  22   -2.37    2.20
   3  -9  22    6.34    5.13
   3   9  22   10.34    8.24
  -3  -9 -23  131.25   22.63
   3  -9  23  128.75   20.67
   3  -9 -23  106.09   21.04
  -3   9  23  150.44   23.27
   3   9  23  130.15   22.50
   3  -9  23  109.50   20.12
  -3   9  23  133.86   22.46
  -3  -9 -24   24.18    9.56
   3  -9 -24   17.58    6.24
  -3   9  24   20.89   10.74
   3  -9  24   23.28   10.64
  -3   9  24   30.35    8.26
   3  -9  24   13.95    6.86
   3   9  24   12.47    6.40
  -3  -9 -25   15.77    7.99
  -3   9  25    4.13    2.38
   3  -9  25   13.62    7.43
   3  -9 -25    0.22    4.65
  -3   9  25   21.76    9.21
   3  -9  25   16.18    9.32
   3   9  25    0.43    5.42
  -3  -9 -26   14.99    7.20
   3  -9 -26   10.06    6.66
  -3   9  26   25.45   11.43
   3  -9  26   11.30    7.95
  -3   9  26   15.98    7.04
   3  -9  26   20.04    8.71
   3   9  26   24.15   10.86
  -3 -10   0   -0.92    1.32
   3 -10   0   -0.74    3.96
   3 -10   0    1.28    4.62
  -3 -10   0    0.40    0.68
  -3 -10  -1    3.98    3.45
  -3 -10   1    0.35    2.48
  -3 -10  -1    0.56    3.90
   3 -10   1    7.97    6.44
   3 -10  -1    1.38    0.99
   3 -10   1    2.26    3.27
  -3 -10   1    1.64    2.05
   3 -10  -1    4.27    5.06
  -3 -10  -2   -0.15    4.03
   3 -10  -2    2.55    4.88
  -3 -10   2    2.39    5.28
   3 -10   2    0.18    1.04
  -3 -10  -2    5.51    7.36
   3 -10  -2   -2.63    1.74
  -3 -10   2    1.39    1.04
   3 -10   2    2.47    3.80
  -3 -10   3    5.78    5.69
   3 -10   3    3.58    4.70
  -3 -10   3   14.71    6.35
   3 -10  -3   14.89    7.83
  -3 -10  -3    6.67    3.41
   3 -10  -3   18.44    7.96
   3 -10   3    4.51    1.64
  -3 -10  -3   13.38    6.22
  -3 -10   4   16.13    6.33
  -3 -10   4   14.91    6.30
   3 -10   4   19.41    8.01
   3 -10   4    3.85    1.74
  -3 -10  -4   14.34    7.28
  -3 -10  -4    7.78    4.53
   3 -10  -4    8.53    5.38
  -3  10   4    0.40    2.60
   3 -10  -4   11.82    5.24
  -3 -10  -5   -2.29    4.44
  -3  10   5   -3.82    3.63
   3 -10   5    1.55    3.32
  -3 -10   5    2.69    4.83
   3 -10   5    3.29    3.95
  -3 -10  -5    1.35    4.96
   3 -10  -5    1.27    5.24
   3 -10  -5    2.71    2.15
  -3 -10   5   -0.73    1.82
  -3 -10  -6    4.68    4.89
   3 -10  -6    8.51    4.09
  -3 -10   6    1.05    2.29
   3 -10   6    3.79    3.64
  -3 -10  -6    3.61    2.44
   3 -10  -6    6.63    3.04
  -3  10   6    9.16    4.61
  -3 -10   6    9.62    5.42
   3 -10   6    5.64    1.40
  -3 -10   7   28.35    9.84
   3 -10   7   34.53   11.15
   3 -10  -7   33.82   10.14
  -3 -10  -7   59.96   13.49
   3 -10  -7   42.47   11.10
  -3  10   7   44.95   12.33
   3 -10   7   25.45    7.92
  -3 -10   7   65.02   13.31
  -3 -10   8  144.60   21.64
   3 -10   8  134.16   19.47
   3 -10   8  112.79   18.50
   3 -10  -8   89.35   16.51
  -3 -10  -8  118.68   18.40
   3 -10  -8  110.34   18.36
  -3  10   8  144.03   20.70
   3 -10   9   81.28   16.04
  -3 -10   9   62.17   14.33
  -3 -10  -9   68.31   15.42
   3 -10  -9   39.63   11.38
  -3  10   9   64.19   14.46
   3 -10   9   35.69   11.10
   3 -10  -9   47.35   11.94
  -3 -10  10   52.45   12.95
   3 -10  10   60.52   12.62
  -3 -10 -10   52.85   13.91
   3 -10 -10   50.52   13.31
  -3  10  10   57.94   13.91
   3  10  10   48.72   11.70
   3 -10 -10   41.87   11.70
   3 -10  10   62.93   13.63
   3 -10  11    2.65    1.85
  -3 -10  11   -0.24    2.65
   3 -10 -11    2.42    3.51
   3 -10  11   -1.53    1.53
  -3 -10 -11    1.09    2.29
   3  10  11    1.01    4.43
   3 -10 -11    0.88    4.84
  -3  10  11   -4.85    5.63
  -3  10  12    0.16    4.94
  -3 -10  12   -3.20    3.70
   3 -10  12    4.70    5.64
   3 -10  12    2.10    5.87
  -3 -10 -12    5.92    5.98
   3 -10 -12    0.86    3.78
   3  10  12    0.79    3.12
  -3 -10  13    5.20    6.32
   3 -10  13    1.68    5.55
   3 -10  13    0.64    1.74
  -3 -10 -13   16.05    9.46
  -3  10  13   -1.34    2.52
   3 -10 -13    7.97    5.40
   3  10  13    5.70    2.58
  -3 -10 -14   22.59    8.23
  -3 -10  14   19.76    7.99
   3 -10  14   30.10    9.80
   3 -10  14   24.16    8.78
   3 -10 -14   15.09    6.53
   3  10  14   23.87    9.32
  -3  10  14   16.81    9.98
   3 -10  15   -5.00    7.81
  -3 -10  15    2.44    2.74
   3 -10  15   -0.96    4.19
  -3 -10 -15    6.67    5.38
   3 -10 -15   -1.14    4.23
  -3  10  15    4.69    7.58
   3  10  15    0.95    3.33
   3 -10  16   17.29    7.35
  -3 -10  16   21.72    8.67
   3 -10  16   12.18    7.15
  -3 -10 -16   29.78   10.56
   3 -10 -16   22.84    9.17
  -3  10  16   24.21    7.80
   3  10  16   27.75    9.26
   3 -10  17   28.68    9.57
  -3 -10  17    4.82    3.09
   3 -10  17   12.20    4.01
  -3  10  17   13.79    7.33
   3  10  17   32.78   11.57
   3 -10 -17   12.65    7.39
  -3  10  17   13.42    6.83
  -3 -10 -17   11.12    4.74
   3 -10  18   50.99   13.30
   3 -10 -18   30.00   10.47
  -3 -10  18   37.85   11.37
   3 -10  18   33.54   11.39
  -3 -10 -18   34.68   11.54
  -3  10  18   45.94   13.28
  -3  10  18   58.52   14.27
   3  10  18   29.98   10.44
   3 -10  19    4.12    2.53
  -3 -10  19    0.96    3.12
   3 -10  19    0.73    3.80
  -3  10  19    4.25    3.49
  -3 -10 -19    8.03    6.81
  -3  10  19    5.18    1.43
   3  10  19    3.23    5.78
   3 -10  19   15.53    8.32
   3 -10  20   14.10    7.68
  -3 -10  20   15.32    7.69
   3 -10  20   19.45    9.04
   3 -10 -20    7.77    2.95
  -3  10  20   21.92    9.76
  -3 -10 -20   10.38    4.51
  -3  10  20   12.69    7.11
   3  10  20    7.95    7.12
   3 -10  20    5.48    6.34
   3 -10  21   13.61    8.14
  -3 -10  21    3.28    5.19
  -3 -10 -21    1.72    9.62
   3 -10 -21   11.07    6.52
  -3  10  21   -2.64    5.54
  -3  10  21    7.70    5.59
   3  10  21   -1.08    3.26
   3 -10  21    4.74    3.47
   3 -10  21    8.76    7.19
  -3 -10  22    6.82    2.41
   3 -10 -22   10.31    4.66
  -3 -10 -22   13.47    7.19
  -3  10  22   29.12   12.80
  -3  10  22   25.34    7.48
   3  10  22   12.91    0.43
   3 -10  22   11.67    9.56
   3 -10  22   20.59    8.48
  -3  10  23    1.83    3.25
  -3 -10 -23    0.19    2.93
   3 -10 -23   -2.83    5.84
  -3  10  23   -0.72    4.39
   3 -10  23    4.05    5.17
   3  10  23    0.67    2.49
   3 -10  23    2.98    6.35
  -3 -10 -24   -0.92    0.57
   3 -10 -24    7.72    6.08
  -3  10  24    3.80    4.17
  -3  10  24   -6.37    5.03
   3 -10  24    8.33    8.41
   3 -10  24    5.73    6.15
   3  10  24    9.12   10.42
  -3  10  25   28.92   11.01
  -3 -10 -25   20.14    7.30
   3 -10 -25   14.63    7.76
  -3  10  25   11.97    5.68
   3 -10  25   20.95    7.96
   3 -10  25   11.92   11.53
   3  10  25   13.50    6.37
  -3 -11   0    1.70    3.03
   3 -11   0    7.22    5.80
   3 -11   0    1.16    1.85
  -3 -11   0    1.61    2.02
  -3 -11  -1   31.48    8.92
  -3 -11   1   21.93    8.89
  -3 -11  -1   37.01   10.62
   3 -11   1   22.38    9.18
   3 -11  -1   27.90    8.90
  -3 -11   1   22.51    8.51
   3 -11   1   33.95    9.71
   3 -11  -1   31.92   11.73
  -3 -11   2  165.32   23.10
   3 -11   2  172.91   23.30
  -3 -11  -2  139.47   21.01
   3 -11  -2  114.54   18.90
  -3 -11   2  128.08   18.61
   3 -11   2  144.74   20.56
   3 -11  -2  147.35   21.20
  -3 -11  -2  142.94   20.78
   3 -11  -3   16.09    6.83
  -3 -11   3   29.61    9.15
   3 -11   3   23.49    8.40
  -3 -11   3   46.76   11.75
  -3 -11  -3   20.38    6.24
   3 -11  -3   23.21    8.97
   3 -11   3   24.92    7.72
  -3 -11  -3   13.27    7.22
  -3 -11   4   -5.65    3.74
  -3 -11   4   37.89   11.79
   3 -11   4   33.91   10.42
   3 -11   4   28.14   10.12
  -3 -11  -4   34.87   10.41
   3 -11  -4   21.08    8.74
   3 -11  -4   29.25    9.88
  -3 -11  -4   31.47    9.47
   3 -11   5   33.74   10.56
  -3 -11   5   48.44   11.80
   3 -11   5   32.90   10.68
  -3 -11  -5   30.88    9.16
  -3 -11  -5   47.72   12.39
   3 -11  -5   38.42   10.14
   3 -11  -5   25.33    9.23
  -3 -11   6   72.62   15.08
  -3 -11  -6   66.90   13.95
  -3 -11  -6   85.18   16.63
   3 -11   6   82.89   16.68
   3 -11  -6   69.75   15.37
   3 -11   6   61.23   13.80
  -3  11   6   43.17   12.55
   3 -11  -6   56.47   12.97
   3 -11  -7    2.31    5.14
  -3 -11   7   11.99    6.39
   3 -11   7   -2.47    4.01
  -3 -11  -7    2.96    2.14
   3 -11  -7    2.10    2.49
  -3 -11  -7   -1.81    3.34
  -3  11   7    4.83    7.24
   3 -11   7   10.48    6.14
  -3  11   8   -1.20    3.96
  -3 -11   8   -4.12    6.17
   3 -11   8    9.18    6.18
   3 -11  -8    2.19    4.38
   3 -11   8   -3.10    4.70
  -3 -11  -8    2.26    2.02
   3 -11  -8   -5.44    5.96
  -3 -11  -8   -0.43    0.58
  -3 -11   9    0.21    5.85
   3 -11   9    3.38    3.40
  -3 -11  -9   -0.60    2.41
   3 -11  -9    5.47    5.41
  -3  11   9    1.01    3.97
   3 -11  -9    1.91    4.08
   3 -11   9   10.11    6.46
   3 -11 -10    2.60    3.91
  -3 -11  10   12.87    7.90
   3 -11  10   23.79    8.68
  -3 -11 -10    7.97    6.12
   3 -11  10   10.41    6.86
  -3  11  10    3.38    3.07
   3 -11 -10    8.52    3.75
  -3  11  11   -0.68    3.39
  -3 -11  11    5.06    2.27
   3 -11  11    3.38    1.01
   3 -11 -11    4.39    5.28
  -3 -11 -11   -3.21    5.72
   3 -11 -11   -4.80    5.38
   3 -11  11   -2.29    0.85
  -3 -11  12  239.51   28.07
   3 -11  12  211.65   26.00
  -3 -11 -12  231.84   28.33
   3 -11 -12  207.86   26.86
   3 -11 -12  227.03   26.76
  -3  11  12  226.78   28.43
   3  11  12  205.05   25.54
   3 -11  12  203.29   24.98
  -3 -11  13    2.80    3.58
   3 -11  13   19.24    6.62
   3 -11  13    8.92    4.16
  -3  11  13    0.87    3.20
   3 -11 -13    3.05    5.36
   3 -11 -13   12.02    8.49
   3  11  13    2.77    3.14
  -3 -11 -13    2.71    3.80
  -3 -11  14   23.53    9.55
   3 -11  14   29.55   10.44
   3 -11  14   45.23   12.70
  -3 -11 -14   28.22    9.92
   3 -11 -14   40.11   10.64
   3 -11 -14   26.07    9.10
  -3  11  14   26.82    8.33
   3  11  14   34.89   11.72
  -3 -11 -15   10.75    8.56
   3 -11  15   28.51   10.15
  -3 -11  15   21.59    9.99
   3 -11  15   23.10    9.91
   3 -11 -15   10.07    7.86
  -3  11  15   12.15    7.30
   3  11  15    8.30    3.87
   3 -11  16   11.62    9.86
  -3 -11  16   16.02    5.49
   3 -11  16   31.08    9.87
   3 -11 -16    6.33    4.69
  -3  11  16   12.73    4.77
  -3 -11 -16   11.05    6.79
   3  11  16    4.83    3.26
   3 -11  17    7.42    8.17
  -3 -11  17    2.87    4.37
   3 -11  17    3.96    3.47
   3 -11 -17    0.47    2.14
  -3 -11 -17   -1.23    2.35
  -3  11  17   -0.60    4.21
   3  11  17   -2.54    5.14
   3 -11  18    4.04    6.36
  -3 -11  18    1.49    3.80
   3 -11  18    1.52    1.08
   3  11  18    2.38    5.79
  -3 -11 -18    1.66    4.17
  -3  11  18    2.54    5.13
   3 -11 -18    4.08    5.53
   3 -11  19   12.95    4.76
  -3 -11  19   18.94    9.36
   3 -11  19   19.68   10.24
  -3 -11 -19   52.04   14.21
   3 -11 -19   29.52   10.44
  -3  11  19   38.97   11.31
   3  11  19   22.20    9.85
   3 -11  19    7.72    6.61
   3 -11  20   74.17   15.80
   3 -11 -20   82.08   16.74
  -3  11  20   87.33   17.67
  -3 -11 -20   84.14   17.12
   3  11  20   76.76   16.22
   3 -11  20   59.72   14.15
   3 -11  20   87.17   18.55
  -3 -11  20   87.28   18.09
   3 -11  21   -0.89    0.78
   3 -11  21   -5.39    5.91
  -3 -11  21    9.34    6.68
   3 -11 -21   -3.61    5.47
  -3  11  21   -2.31    3.17
  -3  11  21    1.81    6.24
  -3 -11 -21    4.03    4.63
   3  11  21    7.54    5.55
   3 -11  21    0.19    4.84
  -3  11  22   83.79   18.17
  -3 -11 -22   47.63   14.64
   3 -11 -22   48.55   14.50
   3  11  22   80.96   16.33
   3 -11  22   51.75   14.17
   3 -11  22   57.87   14.74
  -3  11  22   98.16   19.07
  -3 -11  22   90.88   19.14
   3 -11  22   64.13   16.07
  -3 -11 -23    7.90    6.57
   3 -11 -23    2.41    3.14
  -3  11  23   -5.37    5.16
   3  11  23    3.93    0.92
   3 -11  23   10.34    5.62
   3 -11  23   -0.30    4.33
  -3 -11  23   -1.07    2.07
  -3 -12   0   -1.60    3.33
   3 -12   0    1.30    3.76
   3 -12   0    5.17    6.41
  -3 -12   1   10.95    7.76
  -3 -12  -1    8.53    4.33
   3 -12   1   13.97    6.51
   3 -12  -1   29.10    8.71
   3 -12   1   14.08    7.71
   3 -12  -1   26.69    9.55
  -3 -12  -2   11.85    6.22
  -3 -12   2   27.22    9.41
   3 -12   2   18.41    9.87
  -3 -12  -2    8.53    6.77
   3 -12  -2    7.98    1.35
   3 -12   2    8.44    6.04
   3 -12  -2    4.20    2.14
   3 -12  -3    3.97    6.66
  -3 -12   3   -7.32    5.04
   3 -12   3   -0.40    1.81
  -3 -12  -3   -5.60    3.59
  -3 -12  -3   -0.34    4.42
   3 -12   3   -2.96    4.67
   3 -12  -3   -2.28    0.47
   3 -12   4   -4.63    6.43
   3 -12  -4    1.73    4.03
  -3 -12   4    8.63    7.54
   3 -12   4   -3.73    4.80
  -3 -12  -4    2.89    6.00
   3 -12  -4    8.52    7.43
  -3 -12  -4    1.76    4.43
   3 -12   5    0.67    4.14
  -3 -12   5   -1.69    2.39
   3 -12   5   -5.62    6.40
  -3 -12  -5   -5.97    3.13
   3 -12  -5    0.72    1.95
   3 -12  -5    6.82    6.51
  -3 -12  -5   -3.65    3.26
   3 -12   6    8.30    5.02
  -3 -12  -6   -3.27    4.87
  -3 -12   6    9.74    7.61
   3 -12   6   -0.36    3.12
  -3 -12  -6    7.01    4.97
   3 -12  -6    1.54    1.04
   3 -12  -6    4.54    5.11
  -3 -12  -7    1.89    5.18
  -3 -12   7   -2.46    7.47
   3 -12   7    0.57    4.30
  -3 -12  -7   -0.42    2.52
   3 -12  -7   10.36    6.74
  -3  12   7    6.62    1.65
   3 -12  -7    6.64    4.58
   3 -12   7    5.65    3.62
  -3 -12  -8    2.19    4.05
  -3 -12   8    5.29    7.19
   3 -12   8    4.22    6.24
  -3  12   8    0.21    2.18
   3 -12  -8    8.47    5.87
  -3 -12  -8   -0.82    3.63
   3 -12  -8    5.15    7.46
   3 -12   8    4.95    3.86
   3 -12  -9    9.30    5.62
  -3 -12   9   16.37    7.97
   3 -12   9   24.88    8.27
  -3 -12  -9   18.81    7.30
   3 -12  -9   10.94    4.00
  -3  12   9   28.63    9.36
  -3 -12  -9   19.42    8.24
   3 -12   9    9.22    2.99
  -3 -12  10    5.31    5.20
   3 -12  10    9.90    7.69
   3 -12 -10   10.74    9.62
  -3 -12 -10   25.62   10.36
  -3  12  10   14.83    7.40
   3 -12 -10   20.83    9.42
   3 -12  10   16.20    7.83
  -3 -12 -10   12.70    8.38
  -3 -12  11   -4.70    5.58
   3 -12  11    2.63    6.68
   3 -12 -11   -5.20    6.60
  -3 -12 -11   -3.09    4.96
  -3  12  11   -2.26    3.00
   3 -12  11   -2.08    2.50
   3 -12 -11    2.07    5.87
  -3 -12  12    9.10    5.10
   3 -12  12    8.23    4.96
   3 -12 -12   11.23    6.55
  -3 -12 -12   18.58    7.36
   3 -12  12   22.38    8.28
  -3  12  12   21.10    9.52
   3 -12 -12   18.37    9.92
  -3 -12  13    2.71    2.42
   3 -12  13   -0.51    3.32
   3 -12 -13   -3.72    1.57
   3 -12  13    2.86    5.39
  -3 -12 -13    3.49    6.90
  -3  12  13    1.87    0.85
   3 -12 -13    6.98    6.90
  -3 -12  14    6.51    6.03
   3 -12  14   14.25    8.42
   3 -12 -14    8.05    6.24
   3 -12  14   14.22    9.05
  -3 -12 -14   25.25    9.36
   3 -12 -14    1.33    2.05
  -3 -12  15   -1.01    3.13
   3 -12  15   -3.93    4.17
   3 -12 -15   10.85    7.89
   3 -12  15    7.72    6.32
   3 -12 -15    3.40    4.17
  -3 -12 -15    9.03    5.39
   3  12  15    1.55    5.47
   3 -12  16   -2.97    5.21
  -3 -12  16    7.97    5.64
   3 -12 -16   -1.96    2.54
   3 -12  16    3.32    3.82
  -3 -12 -16    1.70    3.89
   3 -12 -16    5.57    4.74
   3  12  16   -1.66    4.42
   3 -12  17   48.11   14.06
  -3 -12  17   51.96   13.61
   3 -12  17   44.43   11.43
   3 -12 -17   54.90   13.55
  -3 -12 -17   43.35   13.07
   3 -12 -17   33.80   11.99
   3  12  17   39.62   11.72
   3 -12  18   -0.96    3.53
  -3 -12  18    1.11    4.72
   3 -12  18    7.52    3.94
   3 -12 -18    5.26    5.01
  -3 -12 -18    2.14    3.68
   3  12  18    9.59    4.45
   3 -12  18   16.35    8.47
   3 -12  19    2.00    3.45
  -3 -12  19   14.45   10.77
   3 -12  19    2.34    2.90
   3 -12 -19    5.23    3.92
   3  12  19   -1.80    3.28
  -3 -12 -19    4.23    2.98
   3 -12  19   -7.40    7.62
   3 -12  20    5.79    5.55
  -3 -12  20    0.86    4.34
   3 -12 -20   -3.38    6.96
   3 -12  20   -3.02    4.32
  -3 -12 -20    4.91    1.22
   3  12  20   -6.97    4.99
   3 -12  20   -4.77    5.84
   3 -12  21    2.89    5.13
   3 -12  21   -0.03    2.87
  -3 -12  21   -1.64    3.55
   3 -12 -21   -4.06    4.94
  -3 -12 -21   11.03    7.04
   3  12  21    2.98    5.61
   3 -12  21    1.12    3.58
  -3 -13   0    2.23    5.50
   3 -13   0    4.86    6.28
   3 -13   0   -3.83    4.48
  -3 -13   1   88.13   18.47
  -3 -13  -1  110.55   20.63
   3 -13   1   96.00   19.44
   3 -13  -1  109.46   20.16
   3 -13   1  106.76   18.86
   3 -13  -1  118.14   19.94
  -3 -13   2  127.40   21.60
   3 -13   2  117.22   21.56
  -3 -13  -2  113.68   18.99
   3 -13  -2   72.60   15.45
   3 -13   2  132.19   21.08
   3 -13  -2   89.46   17.36
  -3 -13   3    0.67    4.09
   3 -13   3   -1.38    2.05
   3 -13   3    5.48    7.35
  -3 -13  -3   -4.07    4.65
   3 -13  -3   -1.42    1.89
   3 -13  -3    2.47    0.40
   3 -13  -4   47.34   11.09
   3 -13   4   55.96   12.46
  -3 -13   4   31.15   11.00
   3 -13   4   55.52   16.05
  -3 -13  -4   39.89   12.84
   3 -13  -4   28.70    9.77
   3 -13  -5   50.80   11.48
  -3 -13   5   40.71   10.50
   3 -13   5   73.82   15.37
   3 -13   5   78.15   17.26
  -3 -13  -5   68.95   16.04
   3 -13  -5   47.11   12.07
  -3 -13   6   -1.83    4.64
   3 -13   6   -2.83    3.89
   3 -13  -6    3.41    1.59
  -3 -13  -6    1.87    2.87
   3 -13  -6   -4.14    4.40
   3 -13   6   -2.07    5.96
  -3 -13   7    8.31    8.13
   3 -13   7   22.48   11.65
  -3 -13  -7   10.90    7.16
   3 -13  -7   12.44    7.25
   3 -13  -7    0.15    2.60
   3 -13   7   13.48    9.13
  -3 -13  -7   13.48    9.39
  -3 -13   8   30.68    8.63
   3 -13   8   16.40    7.15
  -3 -13  -8   22.15    8.74
  -3 -13  -8   12.56    7.82
   3 -13  -8   26.10    9.40
   3 -13  -8   19.56    7.31
   3 -13   8   20.25    8.26
  -3 -13   9   44.60   14.39
   3 -13   9   69.25   16.62
  -3 -13  -9   54.64   14.02
   3 -13  -9   82.42   16.85
   3 -13   9   69.32   14.87
   3 -13  -9   44.93   13.31
  -3 -13  -9   50.51   14.27
  -3 -13 -10   -7.37    6.57
  -3 -13  10   -2.51    2.38
   3 -13  10    4.84    2.88
  -3 -13 -10   -1.51    2.25
   3 -13 -10   -1.59    4.38
   3 -13  10    1.39    6.60
   3 -13 -10    0.20    4.12
  -3 -13  11   27.41    9.57
   3 -13  11   43.24   11.75
   3 -13 -11   25.70    9.91
   3 -13  11   24.19    8.50
  -3 -13 -11   55.90   14.63
   3 -13 -11   13.50    7.19
  -3 -13 -11   21.94    7.55
  -3 -13  12   11.03    5.78
   3 -13  12   13.84    6.65
   3 -13  12    5.13    5.30
  -3 -13 -12    2.19    3.51
   3 -13 -12   20.71    7.07
  -3 -13 -12   10.00    8.04
   3 -13 -12    9.05    6.46
  -3 -13  13   96.84   19.07
  -3 -13 -13   53.61   13.73
   3 -13  13   88.70   18.05
   3 -13 -13   99.10   19.77
  -3 -13 -13   80.27   17.55
   3 -13 -13   66.95   15.70
   3 -13  13  104.78   19.28
   3 -13 -14    6.83    4.08
  -3 -13  14    0.11    2.76
   3 -13  14    9.10    7.04
   3 -13  14    4.86    6.18
  -3 -13 -14   11.02    8.92
   3 -13 -14   -1.99    3.26
  -3 -13  15   -3.23    2.88
   3 -13  15    2.85    4.44
   3 -13 -15    7.52    6.84
   3 -13  15    8.76    7.13
  -3 -13 -15    4.33    2.93
   3 -13 -15    0.64    3.36
   3 -13  16    2.09    2.79
  -3 -13  16    6.60    5.00
   3 -13  16    5.12    5.11
   3 -13 -16    4.07    5.99
  -3 -13 -16    8.27    4.94
   3 -13 -16   14.67    8.99
   3 -13  17    6.94    7.15
  -3 -13  17   15.68    8.81
   3 -13  17   14.65    7.25
  -3 -13 -17   22.08    8.56
   3 -13 -17   26.43   10.64
   3 -13 -17   18.69    9.32
   3 -13  17   -9.38    6.02
   3 -13  18   -5.44    6.99
  -3 -13  18    6.15    6.29
   3 -13  18    0.43    3.44
   3 -13 -18   -8.07    5.00
  -3 -13 -18    7.54    5.73
   3 -13 -18   -7.32    8.48
   3 -13  19   20.38    9.72
  -3 -13  19   34.67   12.29
   3 -13  19   22.48    8.28
  -3 -13 -19   25.88    8.90
   3 -13 -19   13.29    6.71
   3  13  19   15.02    6.03
   3 -13 -19    6.77    2.33
  -3 -14   0    4.22    3.45
   3 -14   0   -0.66    4.89
   3 -14   0    6.59    6.00
  -3 -14   1   15.21    7.59
   3 -14   1    4.46    3.65
  -3 -14  -1   18.68    9.35
   3 -14  -1    5.83    2.75
   3 -14   1    6.02    6.51
   3 -14  -1   12.63    6.66
  -3 -14   2   -4.11    4.06
   3 -14   2    5.98    5.02
  -3 -14  -2   -2.75    3.33
   3 -14   2    2.55    2.72
   3 -14  -2    2.21    4.75
   3 -14  -2    3.20    4.20
   3 -14   3   -4.85    1.26
  -3 -14   3    2.01    4.55
   3 -14   3   -3.38    5.04
  -3 -14  -3   -0.75    6.53
   3 -14  -3    3.49    6.16
   3 -14  -3    2.75    7.60
   3 -14   4   -0.97    3.32
  -3 -14   4  -10.40    5.79
   3 -14   4    3.10    0.45
  -3 -14  -4    3.14    5.25
   3 -14  -4   -1.59    5.85
   3 -14  -4    4.71    3.83
   3 -14   5    0.37    3.55
   3 -14  -5   -1.83    3.49
  -3 -14   5   -5.39    5.49
   3 -14   5    1.96    1.23
  -3 -14  -5    5.95    5.28
   3 -14  -5    0.62    1.50
   3 -14  -6   15.57    7.95
  -3 -14   6   36.37   11.60
   3 -14   6   28.01   12.29
  -3 -14  -6   11.23    5.29
   3 -14  -6   21.14    9.24
   3 -14   6   17.18    4.22
  -3 -14   7   12.75    6.21
   3 -14   7    7.72    3.54
   3 -14  -7   19.68    7.83
  -3 -14  -7   15.57    9.40
   3 -14  -7   11.89    5.42
   3 -14   7    4.23    4.57
  -3 -14   8    3.98    7.36
   3 -14   8    7.02    6.60
  -3 -14  -8    6.28    5.86
   3 -14  -8   -4.93    4.54
   3 -14  -8    3.97    7.25
   3 -14   8    4.83    4.28
  -3 -14   9   -1.09    3.27
   3 -14   9   -2.56    1.88
  -3 -14  -9   -0.56    3.42
   3 -14  -9   -4.11    4.76
   3 -14  -9   -3.59    4.48
   3 -14   9    6.90    7.56
  -3 -14  10    7.77    5.77
   3 -14  10   21.35   10.85
  -3 -14 -10    5.00    5.83
   3 -14 -10    6.02    5.78
   3 -14  10   17.89    9.70
   3 -14 -10    0.99    1.84
  -3 -14  11   -5.07    5.67
   3 -14  11   -1.10    4.05
  -3 -14 -11    3.50    4.37
   3 -14 -11   -4.85    6.88
   3 -14  11    7.18    4.92
   3 -14 -11   -1.83    4.54
  -3 -14  12    9.60    8.98
   3 -14  12   12.11    9.26
  -3 -14 -12   -1.50    3.90
   3 -14 -12   -3.92    2.34
   3 -14  12    1.68    4.95
   3 -14 -12    3.67    5.47
  -3 -14  13    5.45    6.05
   3 -14  13    6.75    5.56
   3 -14 -13   -2.44    3.92
  -3 -14 -13  -12.49    6.99
  -3 -14 -13    3.55    2.19
   3 -14  13    7.55    7.96
   3 -14 -13    0.58    3.70
  -3 -14  14    0.91    1.29
   3 -14  14    3.94    0.82
   3 -14 -14    1.60    7.95
   3 -14  14    5.20    6.32
  -3 -14 -14    0.29    5.69
   3 -14 -14    2.60    3.42
  -3 -14 -14   19.98   11.77
  -3 -14  15   -1.76    2.43
   3 -14  15    5.06    8.17
   3 -14  15    0.51    4.69
  -3 -14 -15    2.14    6.70
   3 -14 -15   -7.30    4.41
   3 -14 -15   -6.05    6.75
  -3 -14 -15   16.61   12.77
   3 -14  16   -0.20    3.85
  -3 -14  16    3.04    3.27
   3 -14  16    2.94    6.06
  -3 -14 -16  -10.27    8.10
   3 -14 -16    4.45    6.62
   3 -14 -16   10.25    6.05
  -3 -14 -16    0.06    1.61
  -3 -15   0   -3.47    5.09
   3 -15   0   -2.71    3.55
   3 -15   0    8.98    6.03
  -3 -15   1   29.91   11.51
   3 -15   1    6.59    8.02
  -3 -15  -1    9.48    3.81
   3 -15  -1   14.92    6.35
   3 -15   1   15.33    6.75
   3 -15  -1    3.32    4.18
  -3 -15   2   99.37   20.40
  -3 -15  -2  107.59   20.49
   3 -15  -2  105.80   21.76
   3 -15   2   83.19   18.09
   3 -15   2  120.07   21.11
   3 -15  -2  103.98   20.39
   3 -15   3   11.56    4.69
  -3 -15   3    9.34    6.18
   3 -15   3   18.36    7.96
  -3 -15  -3   11.64    6.13
   3 -15  -3   19.86    8.30
   3 -15  -3   27.95    9.46
   3 -15   4   53.94   14.65
  -3 -15   4   72.53   16.58
   3 -15   4   73.06   17.95
  -3 -15  -4   69.09   17.67
   3 -15  -4   67.52   16.16
   3 -15  -4   57.82   15.05
  -3 -15   5    4.31    4.52
   3 -15   5    1.71    1.20
  -3 -15  -5   -0.52    6.38
   3 -15  -5   -6.49    2.30
   3 -15  -5    0.52    2.99
   3 -15   5   -0.94    3.06
  -3 -15   6   74.12   18.23
   3 -15   6   71.25   16.91
  -3 -15  -6   83.00   18.29
   3 -15  -6   72.25   17.96
   3 -15  -6   97.32   19.45
   3 -15   6   85.01   16.55
   3 -15  -7   17.50    8.94
  -3 -15   7    1.19    5.44
   3 -15   7    9.02    3.09
  -3 -15  -7    3.35    2.01
   3 -15  -7    7.98    5.76
   3 -15   7   10.00    7.52
  -3 -15   8   12.53    8.30
   3 -15   8    5.71    6.60
   3 -15  -8    9.34    5.06
   3 -15  -8   22.90    9.71
   3 -15   8   20.26    7.72
  -3 -15   9    2.29    6.39
   3 -15   9    7.46    7.05
   3 -15  -9    4.18    5.40
  -3 -15  -9    0.81    1.88
   3 -15  -9   13.29    9.42
   3 -15   9    6.65    7.82
   3 -15  10   23.37    8.31
  -3 -15  10   13.59    8.40
   3 -15  10   16.28    8.40
  -3 -15 -10   19.80    9.39
   3 -15 -10   26.42   10.93
   3 -15 -10    0.03    4.36
  -3 -15  11    1.20    2.83
   3 -15  11   -5.57    6.31
  -3 -15 -11    4.15    6.39
   3 -15 -11   15.72   10.27
   3 -15  11    2.27    3.63
   3 -15 -11    5.52    4.93
  -3 -15  12   72.84   18.32
   3 -15  12   41.54   13.12
   3 -15  12   82.96   17.28
  -3 -15 -12   48.22   15.00
   3 -15 -12   38.02   14.35
   3 -15 -12   48.26   14.43
  -3 -16   0    9.91    9.33
   3 -16   0   -4.18    4.31
   3 -16   0   -1.78    5.71
  -3 -16   1    0.75    8.35
   3 -16   1    4.26    4.82
   3 -16   1   -5.44    4.72
  -3 -16  -1   21.71   10.30
   3 -16  -1   13.29    3.08
   3 -16  -1   11.83    7.02
   3 -16   2    7.44    9.42
   3 -16  -2    1.49    1.27
  -3 -16   2    6.83    6.85
   3 -16   2   -1.74    3.96
  -3 -16  -2   15.01    6.75
   3 -16  -2   13.27    8.01
   3 -16   3   -2.36    1.28
  -3 -16   3   -2.27    3.13
   3 -16   3   -1.56    2.59
  -3 -16  -3   10.73    4.91
   3 -16  -3    4.60    7.02
   3 -16  -3    0.68    3.20
   3 -16   4    2.95    3.73
  -3 -16   4   -1.11    3.42
   3 -16   4    7.06    6.68
  -3 -16  -4    1.00    5.68
   3 -16  -4   -3.06    6.07
   3 -16  -4    0.06    0.81
  -3 -16   5    2.81    8.36
   3 -16   5    5.73    4.67
  -3 -16  -5    2.79    2.73
   3 -16  -5    8.69    7.48
   3 -16  -5   -6.58    8.18
   3 -16   5    2.90    6.32
   4   0   0 5736.73   62.33
  -4   0   0 5103.83   84.04
   4   0  -1   -0.65    0.45
   4   0   1    0.01    0.73
  -4   0  -1   -0.45    0.41
  -4   0   1    0.57    0.16
  -4   0   2  539.71   27.16
   4   0  -2  505.95   17.59
   4   0   2  523.34   20.31
   4   0   3   -1.08    1.14
   4   0  -3   -0.41    1.13
   4   0   4  396.40   19.39
   4   0  -4  401.44   16.60
  -4   0   4  395.55   23.18
  -4   0   5   -0.30    0.84
  -4   0  -5    0.63    0.97
  -4   0   5    0.86    0.75
   4   0   5    0.71    3.12
   4   0   6   62.52    8.88
  -4   0   6   63.60   10.16
  -4   0   6   66.31    7.48
  -4   0   7   -2.06    3.00
   4   0   7   -1.00    0.21
  -4   0   7    0.71    1.48
   4   0   8  343.11   22.33
  -4   0   8  352.98   24.17
  -4   0   8  377.37   20.16
  -4   0   9   -0.73    0.62
  -4   0   9   -0.73    1.77
   4   0   9    0.20    2.94
   4   0  10  194.99   18.10
  -4   0  10  216.96   20.38
  -4   0  10  221.06   17.21
  -4   0  11    3.37    2.31
  -4   0  11    1.96    3.70
   4   0  11   -0.98    1.80
   4   0  12  200.41   19.54
  -4   0  12  178.46   19.74
  -4   0  12  193.70   17.74
  -4   0  13   -1.15    2.41
  -4   0  13   -1.08    1.76
   4   0  13   -1.24    2.07
   4   0  14 1761.00   60.99
  -4   0  14 1697.16   61.65
  -4   0  14 1723.54   56.66
  -4   0  15   -0.78    1.07
  -4   0  15    0.55    5.81
   4   0  15    0.58    1.55
   4   0  16  307.42   27.97
  -4   0  16  301.60   27.51
   4   0  16  331.10   28.40
  -4   0  16  319.97   26.05
  -4   0  17    0.71    2.83
   4   0  17   -2.33    4.19
  -4   0  17   -1.59    1.61
   4   0  17   -0.85    3.79
  -4   0  18   52.03   10.90
  -4   0  18   47.84   11.37
   4   0  18   64.74   12.75
   4   0  18   61.31   12.41
  -4   0  19   -0.74    2.29
  -4   0  19    2.54    6.17
   4   0  19    6.65    6.34
   4   0  19    3.40    3.76
  -4   0  20   36.46    9.01
   4   0  20   72.74   14.16
  -4   0  20   40.06   11.30
   4   0  20   38.66    9.91
  -4   0  21    4.05    4.65
   4   0  21   -1.84    4.56
  -4   0  21    5.74    3.85
   4   0  21   -1.71    2.83
  -4   0  22   35.15   11.13
  -4   0  22   66.55   14.35
   4   0  22   41.71   11.85
   4   0  22   52.59   12.69
  -4   0  23    0.41    4.39
  -4   0  23    1.73    6.38
   4   0  23   -5.18    5.57
   4   0  23    3.00    2.52
  -4   0  24    0.07    1.99
   4   0  24    3.14    1.80
  -4   0  25    0.52    4.67
   4   0  25   -6.14    2.98
  -4   0  25   -0.21    2.30
   4   0  25    2.62    5.08
  -4   0  26   10.92    9.31
   4   0  26   -6.28    7.48
  -4   0  26    4.00    4.73
   4   0  26    1.79    6.50
  -4   0  27   -3.00    3.67
   4   0  27   -0.89    1.80
  -4   0  27    2.50    1.79
   4   0  27   -0.72    3.62
  -4   0  28   38.15   10.87
   4   0  28   38.48   12.41
  -4   0  28   32.64    8.98
   4   0  28   28.27   11.56
  -4   0  29   -2.22    5.81
   4   0  29    0.87    4.44
  -4   0  29    1.05    3.62
   4   0  29    1.46    5.88
  -4   0  30    9.88    5.99
   4   0  30   23.41    6.91
  -4   0  30   44.19   13.45
   4   0  30   33.47   11.42
  -4   0  31   -6.09    6.28
  -4   0  31   -4.51    4.51
   4   0  31    2.57    6.24
   4   0  31    4.86    6.81
   4  -1   0  161.25   12.26
  -4  -1   0  162.69   14.33
  -4   1   0  178.55   16.35
   4   1   0  192.15    8.69
  -4  -1  -1  531.29   15.31
   4  -1   1  433.82   20.04
   4   1   1  340.53   13.38
  -4  -1   1  317.36   20.03
  -4   1  -1  351.33   22.45
   4  -1  -1  407.78   19.09
  -4  -1  -1  427.45   22.07
  -4   1   1  430.13   25.21
   4  -1  -1  396.07   12.39
   4   1  -1  426.50   11.72
  -4  -1   1  337.42   13.94
   4   1  -2  230.46    7.93
  -4  -1  -2  182.54    9.59
  -4   1   2  247.51   19.32
   4   1   2  177.74   10.57
   4  -1  -2  259.15   15.33
   4  -1   2  247.29   15.34
  -4  -1   2  238.68   12.42
  -4  -1  -3   62.41    5.27
   4   1   3   94.46    8.48
   4   1  -3   79.63    5.02
  -4  -1   3   76.36    9.89
  -4   1   3   70.84   10.32
   4  -1   3   94.56    9.98
   4  -1  -3   88.42    8.91
  -4  -1   3  111.51    9.23
   4   1  -4 1925.64   27.88
  -4  -1  -4 1707.21   30.07
   4  -1  -4 1925.51   42.45
   4   1   4 2013.71   42.17
  -4   1   4 2006.91   54.56
  -4  -1   4 1959.73   49.75
   4  -1   4 1764.56   45.77
   4   1   5  244.46   15.67
  -4  -1  -5  285.29   13.03
  -4   1   5  212.82   18.23
  -4  -1   5  208.75   16.68
  -4  -1   5  239.20   10.94
   4  -1   5  263.80   18.14
  -4   1   6   19.59    5.19
   4  -1   6   14.88    3.50
  -4  -1  -6   20.28    4.09
  -4  -1   6   24.89    4.13
  -4   1   6   20.00    4.31
  -4  -1   6   28.07    5.98
   4   1   6   23.81    5.25
  -4   1   7  130.46   11.95
   4  -1   7  105.62   12.29
   4   1   7  117.63   12.39
  -4  -1  -7   76.62    8.39
  -4   1   7  118.70   13.85
  -4  -1   7  101.65   12.10
  -4  -1   7  116.37    9.63
   4  -1   8  830.53   34.77
   4   1   8  692.54   31.34
  -4   1   8  758.95   36.78
  -4  -1   8  746.33   34.84
  -4  -1   8  764.26   26.52
  -4  -1   9    8.21    2.52
   4   1   9    8.77    3.07
  -4   1   9    2.10    2.77
  -4  -1   9    6.13    3.59
  -4   1   9    1.10    2.17
   4  -1   9    4.71    2.56
  -4  -1  10  205.68   19.58
   4   1  10  217.03   19.20
   4  -1  10  164.61   17.06
  -4   1  10  191.57   19.24
  -4  -1  10  163.00   14.23
   4   1  11  133.68   15.77
  -4   1  11  120.04   16.15
   4  -1  11  102.46   13.76
  -4  -1  11  126.16   15.38
  -4   1  11  121.68   13.56
  -4  -1  11  133.44   13.20
   4   1  12  136.99   16.01
   4  -1  12  146.39   17.29
  -4   1  12  141.46   17.01
  -4  -1  12  147.00   16.98
  -4   1  12  148.23   15.75
  -4  -1  12  160.14   15.62
   4   1  13   66.19   11.90
   4  -1  13   85.06   12.47
  -4   1  13   82.54   13.68
  -4  -1  13   48.59   10.60
  -4   1  13   47.56    9.21
  -4  -1  13   70.36   10.98
   4   1  14  476.61   32.23
   4  -1  14  441.07   31.49
  -4   1  14  429.82   31.71
  -4  -1  14  411.43   30.45
  -4   1  14  399.83   27.74
   4   1  14  467.40   31.94
  -4  -1  14  388.30   26.96
   4   1  15 1180.70   52.15
   4   1  15 1165.41   50.83
   4  -1  15 1007.33   48.75
  -4   1  15 1076.02   51.37
  -4  -1  15 1242.42   53.83
  -4   1  15 1078.55   47.84
  -4  -1  15 1099.73   46.41
  -4   1  16  204.19   21.55
   4   1  16  216.63   22.95
   4  -1  16  220.35   22.78
  -4   1  16  228.74   23.69
  -4  -1  16  202.03   22.40
   4   1  16  218.45   22.87
  -4  -1  16  223.88   21.76
  -4   1  17   25.56    8.01
  -4  -1  17   31.44    9.40
   4   1  17   12.38    6.99
  -4   1  17   25.07    6.81
   4  -1  17   40.55    9.80
  -4  -1  17   37.04    8.98
   4   1  17   26.41    9.08
   4  -1  17   24.79    7.44
   4   1  18  306.48   29.47
   4  -1  18  314.74   28.97
  -4   1  18  279.30   27.51
  -4  -1  18  304.62   28.33
   4   1  18  313.94   28.61
  -4   1  18  292.72   26.80
   4  -1  18  284.28   27.70
  -4  -1  18  294.64   27.15
  -4   1  19   -0.45    4.09
  -4  -1  19    0.57    3.21
   4   1  19    5.26    3.73
   4  -1  19   -0.85    2.96
  -4   1  19   -1.30    3.86
   4   1  19    3.64    4.39
   4  -1  19   -0.18    2.40
  -4  -1  19    0.18    1.40
  -4   1  20   23.19    7.14
  -4  -1  20   19.75    7.39
  -4   1  20   18.50    7.17
   4   1  20   24.44    9.49
  -4  -1  20   19.17    6.86
   4  -1  20   26.22    8.66
   4   1  20   18.83    6.59
   4  -1  20    9.19    3.00
   4   1  21   56.00   13.79
  -4   1  21   53.70   12.66
  -4  -1  21   55.80   12.60
   4   1  21   61.38   13.64
   4  -1  21   32.81   13.54
  -4  -1  21   64.91   14.86
  -4   1  21   47.97   11.73
   4  -1  21   60.80   14.53
   4   1  22  243.97   27.24
   4  -1  22  239.78   27.71
  -4   1  22  213.11   25.57
  -4  -1  22  204.97   24.70
   4   1  22  208.94   25.54
   4  -1  22  293.47   30.42
  -4   1  22  260.48   27.71
  -4  -1  22  232.66   27.38
   4   1  23    5.09    5.08
  -4   1  23   -4.34    5.43
  -4  -1  23   12.18    8.58
   4   1  23    9.35    7.09
   4  -1  23   -0.52    5.51
  -4   1  23   -1.51    3.40
  -4  -1  23   -0.45    5.60
   4  -1  23    1.94    4.36
  -4   1  24    1.90    2.73
  -4  -1  24   10.80    7.21
   4   1  24   -0.09    6.24
   4  -1  24   12.98    5.71
  -4   1  24    5.88    6.20
  -4  -1  24   17.84    8.25
   4   1  24    3.53    1.34
   4  -1  24    7.14    3.48
   4  -1  25   65.51   14.70
   4   1  25   74.12   15.35
  -4   1  25   70.26   15.66
  -4  -1  25   59.45   13.92
   4  -1  25   97.99   18.85
  -4   1  25   72.38   15.68
   4   1  25   69.54   14.87
  -4  -1  25   93.44   17.46
   4   1  26  123.89   21.46
   4   1  26  123.95   19.71
   4  -1  26  143.06   21.85
  -4   1  26  123.16   21.01
  -4  -1  26  107.27   19.81
   4  -1  26  121.68   20.24
  -4   1  26  130.90   21.12
  -4  -1  26   88.19   17.65
  -4  -1  27    7.58    7.02
  -4   1  27    1.75    1.67
  -4  -1  27   11.62    8.65
   4   1  27    5.60    6.89
   4  -1  27   15.50    9.19
  -4   1  27    3.03    2.07
   4   1  27   -1.28    4.83
   4  -1  27    2.34    5.81
  -4   1  28   51.77   13.76
  -4  -1  28   44.95   14.77
   4   1  28   37.08   10.48
   4  -1  28   42.65   12.91
   4  -1  28   34.69   10.79
  -4   1  28   41.46   12.59
  -4  -1  28   53.15   14.62
   4   1  28   46.95   14.16
  -4   1  29   19.58    9.10
  -4  -1  29   18.97   10.66
   4   1  29   17.64    9.63
   4  -1  29   18.60    8.43
  -4   1  29   11.44    6.00
  -4  -1  29   17.02    9.16
   4   1  29   23.83   10.34
   4  -1  29   23.04   10.23
  -4   1  30    4.74    2.10
  -4  -1  30   -7.91    5.56
   4   1  30    1.11    3.48
   4  -1  30    1.81    5.05
  -4   1  30    0.51    2.99
  -4  -1  30   11.53    8.50
   4   1  30    7.37    6.10
   4  -1  30   11.96    3.28
  -4   1  31   16.42    6.47
   4   1  31   22.15    9.53
   4  -1  31   29.42   10.68
  -4   1  31   30.72   11.13
  -4  -1  31   20.28    9.70
   4   1  31   22.51   11.14
   4  -1  31   32.09   11.05
   4  -2   0  443.73   14.29
   4  -2   0  463.88   23.23
  -4   2   0  473.68   27.82
  -4  -2   0  450.64   22.07
  -4  -2   1    2.13    0.89
   4  -2   1    4.83    1.63
  -4  -2  -1    3.67    1.90
   4  -2   1    7.00    1.41
   4   2   1    3.87    1.42
  -4   2  -1    5.66    2.77
  -4   2   1    5.22    2.81
  -4  -2   1    5.54    2.80
   4  -2  -1    4.24    1.52
   4  -2  -1    3.42    1.51
  -4  -2   2  449.59   20.39
   4   2   2  387.13   14.64
  -4  -2  -2  388.64   17.68
   4  -2   2  484.53   24.17
  -4  -2   2  426.63   22.03
   4  -2  -2  390.59   16.56
  -4   2   2  398.02   26.14
   4  -2   2  368.82   11.81
   4  -2  -2  426.61   22.31
   4  -2   3  932.26   34.38
  -4   2   3  915.17   39.38
  -4  -2  -3 1035.05   28.50
  -4  -2   3  869.06   30.69
   4  -2  -3  876.71   26.87
   4  -2  -3  951.99   33.84
  -4  -2   3  903.85   29.94
   4  -2   3  993.82   19.12
   4   2   4 1630.81   37.15
  -4   2   4 1768.54   54.27
   4  -2  -4 1606.05   43.87
  -4  -2  -4 1739.79   38.06
  -4  -2   4 1676.66   43.76
   4  -2   4 1637.39   46.13
   4  -2   4 1717.45   27.45
  -4  -2  -5   91.54    8.86
  -4   2   5   92.32   11.60
  -4  -2   5   98.68   11.54
  -4  -2   5   94.47    5.31
   4  -2   5  107.44   12.20
  -4  -2   5  101.87   10.74
   4   2   6  186.69   14.52
  -4  -2  -6  150.92   12.38
  -4   2   6  208.03   18.82
  -4  -2   6  193.08   16.32
  -4   2   6  197.47   15.91
   4  -2   6  212.89   17.77
  -4  -2   6  187.72    9.98
  -4  -2   6  169.26   14.75
   4   2   7  610.67   27.93
  -4  -2  -7  513.29   23.54
  -4  -2   7  805.69   34.24
  -4   2   7  600.23   31.92
  -4   2   7  696.05   30.10
  -4  -2   7  670.86   20.95
   4  -2   7  646.53   31.84
  -4  -2   7  649.62   30.30
  -4  -2   8  139.16   14.91
  -4  -2  -8  137.39   12.91
  -4   2   8  114.58   12.72
  -4   2   8  113.48   14.54
   4  -2   8  139.95   14.95
  -4  -2   8  117.54   10.09
   4  -2   9    3.75    2.85
  -4  -2   9    6.79    2.89
  -4   2   9    6.43    5.28
  -4  -2  -9   12.43    4.00
   4   2   9    1.47    0.48
  -4  -2   9    3.40    2.43
  -4   2   9   10.52    3.53
   4  -2  10    7.62    4.44
  -4  -2  10    8.40    3.52
   4   2  10   15.95    5.22
  -4   2  10    7.54    1.77
  -4  -2 -10    8.15    3.81
  -4  -2  10   11.63    4.87
  -4   2  10   12.75    5.36
   4   2  11   52.71    9.56
  -4   2  11   47.14    9.66
  -4  -2 -11   55.08    9.79
  -4  -2  11   58.28   10.44
  -4  -2  11   58.19    8.71
   4   2  12   86.94   13.02
   4  -2  12  109.15   14.90
  -4  -2  12  108.71   14.43
  -4   2  12  100.03   13.36
  -4   2  12  114.27   15.59
  -4  -2  12  102.75   12.70
   4   2  12   88.40   12.46
   4   2  13  107.34   15.19
   4  -2  13   63.30   10.88
  -4   2  13   77.75   13.25
  -4  -2  13   81.03   13.92
  -4   2  13  107.81   14.56
   4   2  13   89.97   13.06
  -4  -2  13   81.92   11.65
   4  -2  14   57.55   12.13
   4   2  14   44.65    9.95
  -4   2  14   68.85   12.87
  -4  -2  14   43.55    9.54
   4   2  14   58.69   11.22
  -4   2  14   36.68    8.42
  -4  -2  14   50.31    9.37
  -4  -2  15  128.35   16.92
   4   2  15  116.60   16.98
   4  -2  15  127.16   17.10
  -4   2  15  110.43   16.09
  -4   2  15  156.54   18.36
   4   2  15  100.08   15.48
  -4  -2  15  112.55   14.62
  -4  -2  16   48.31   10.11
   4   2  16   52.48   10.80
  -4   2  16   92.14   15.75
  -4  -2  16   64.80   13.20
   4  -2  16   54.85   11.85
  -4   2  16   52.34   10.87
   4   2  16   71.70   13.49
   4   2  17   71.86   13.92
   4  -2  17   66.83   12.95
  -4  -2  17   79.53   14.23
  -4   2  17   68.78   13.03
  -4   2  17   58.31   11.74
   4   2  17   54.14   11.19
  -4  -2  17   85.43   14.46
   4   2  18  146.38   19.88
   4  -2  18  165.38   21.57
  -4   2  18  162.70   21.29
  -4  -2  18  137.43   19.27
  -4   2  18  154.14   20.14
   4   2  18  123.22   18.05
   4  -2  18  145.54   19.76
  -4  -2  18  151.63   19.13
  -4   2  19   13.56    7.55
  -4  -2  19    9.99    6.08
   4   2  19    5.08    4.50
   4  -2  19    6.11    5.65
  -4   2  19    7.17    1.50
  -4  -2  19    6.51    4.78
   4   2  19    4.36    1.36
   4  -2  19   14.46    7.22
  -4   2  20    5.26    5.57
  -4  -2  20    4.13    3.85
   4   2  20    5.81    4.47
  -4   2  20   -0.06    1.46
  -4  -2  20    3.51    1.60
   4   2  20    3.36    3.52
   4  -2  20   -2.66    3.96
   4  -2  20    8.34    5.41
  -4   2  21   26.69    8.99
  -4  -2  21   18.35    6.85
   4   2  21   18.70    5.11
   4  -2  21   13.81    7.30
  -4   2  21   39.71   10.64
  -4  -2  21   28.57   10.16
   4   2  21   29.61    8.93
   4  -2  21   25.07   11.18
  -4   2  22    2.11    2.47
  -4  -2  22   11.46    7.27
   4   2  22   18.56    9.32
   4  -2  22   10.13    6.57
  -4   2  22   -0.81    3.05
  -4  -2  22    6.79    5.33
   4   2  22   -2.90    6.57
   4  -2  22   10.88    4.82
  -4   2  23    8.81    6.15
  -4  -2  23    5.64    1.78
   4   2  23    6.79    0.36
   4  -2  23    2.15    3.81
  -4   2  23   12.80    8.11
  -4  -2  23    8.33    7.11
   4   2  23    1.42    1.69
   4  -2  23   14.52    7.72
  -4   2  24   13.77    6.62
  -4  -2  24   -0.30    3.85
   4   2  24   -1.28    1.27
   4  -2  24    3.04    3.58
  -4   2  24   -0.30    4.06
  -4  -2  24    5.55    3.69
   4   2  24    0.69    5.66
   4  -2  24   -6.41    8.00
  -4   2  25    4.65    5.90
  -4  -2  25   -2.97    4.34
   4   2  25    3.98    2.43
   4  -2  25    5.32    3.89
  -4  -2  25    0.70    2.79
   4   2  25   -4.24    3.59
   4  -2  25    3.64    4.43
  -4   2  25   -0.93    4.40
  -4   2  26   13.68    7.79
  -4  -2  26   25.23    9.48
   4   2  26   21.71    8.62
   4  -2  26   27.69   10.62
  -4   2  26   39.27   13.06
  -4  -2  26   15.22    8.40
   4   2  26   30.84    9.37
   4  -2  26    7.81    7.69
  -4   2  27    1.27    5.00
  -4  -2  27   28.90   13.56
   4   2  27   12.62    7.55
  -4   2  27    0.68    5.44
  -4  -2  27    7.88    7.28
   4   2  27    3.87    7.13
   4  -2  27    1.22    3.07
   4  -2  27    6.82    6.33
  -4   2  28    3.38    4.48
  -4   2  28   -5.59    6.53
   4   2  28    6.87    5.90
   4  -2  28    4.58    3.63
  -4  -2  28   -0.08    3.68
   4   2  28   -1.79    2.10
   4  -2  28    4.99    6.11
  -4   2  29   10.57    5.67
   4   2  29   12.97    9.49
   4  -2  29   10.40    7.76
  -4   2  29   13.17    6.58
  -4  -2  29    9.33    4.94
   4   2  29    8.48    2.85
   4  -2  29   11.91    8.89
  -4   2  30   -0.03    4.13
   4   2  30   10.06    4.45
   4  -2  30    3.93    8.06
  -4   2  30    1.53    4.74
  -4  -2  30    5.37    6.86
   4   2  30   -4.38    5.96
   4  -2  30   15.85   11.14
  -4  -3   0 1249.54   38.68
  -4  -3   0 1187.73   33.16
  -4   3   0 1167.80   46.26
   4  -3   0 1208.42   41.39
  -4  -3   1   13.86    4.02
   4  -3  -1   23.36    4.45
  -4  -3  -1   21.38    5.33
   4  -3   1   15.61    3.64
   4  -3   1   24.62    6.55
  -4   3  -1   20.27    6.09
  -4   3   1   20.97    5.65
  -4  -3   1   18.03    4.13
   4  -3  -1   17.99    5.31
   4   3   1   20.19    2.76
  -4  -3   2   39.44    7.29
   4  -3   2   43.49    5.54
  -4  -3  -2   45.71    7.12
  -4   3   2   42.97    8.81
   4  -3   2   64.67    9.70
   4  -3  -2   60.65    7.31
  -4  -3   2   50.74    7.08
   4   3   2   47.67    5.19
   4  -3  -2   45.81    7.79
  -4  -3   3  440.71   23.78
   4  -3   3  480.54   18.64
   4  -3   3  455.23   25.74
  -4  -3  -3  450.47   22.49
   4  -3  -3  395.72   19.98
  -4   3   3  408.96   27.68
  -4  -3   3  530.94   23.05
   4   3   3  436.80   17.90
   4  -3  -3  414.69   24.15
  -4  -3   4    1.36    1.78
   4  -3   4    1.84    0.92
   4   3   4    1.81    1.23
  -4  -3  -4    3.17    2.65
  -4  -3   4    0.69    1.88
   4  -3  -4    1.51    0.76
   4  -3  -4    6.69    2.39
   4  -3   4    3.17    3.46
  -4   3   4    4.87    3.31
  -4  -3  -5  264.31   17.47
   4  -3  -5  217.93   17.61
   4  -3  -5  209.15   16.28
  -4  -3   5  246.43   17.07
  -4   3   5  223.59   19.99
   4  -3   5  206.98   17.78
   4   3   5  217.13   16.42
  -4  -3   5  237.90   17.87
   4  -3   5  200.73   12.74
  -4  -3  -6  904.42   33.00
  -4   3   6  924.42   40.66
  -4  -3   6 1035.79   36.70
   4  -3   6  845.65   37.24
  -4  -3   6  829.02   19.60
   4  -3   6  797.93   26.58
  -4  -3   6  730.28   32.59
   4   3   6  758.68   30.32
  -4  -3   7   98.12    8.24
   4   3   7  141.70   13.96
  -4  -3  -7   77.78    9.73
  -4   3   7   84.30   12.42
  -4  -3   7  113.99   12.79
  -4   3   7  127.29   13.97
   4  -3   7   94.85   12.66
   4  -3   7   85.47    9.29
  -4  -3   7  101.88   12.80
   4   3   8  141.92   14.41
  -4  -3   8   99.05    8.98
  -4  -3  -8   98.66   11.87
  -4  -3   8  129.74   14.59
  -4   3   8  118.68   15.10
  -4   3   8  124.63   13.98
   4  -3   8  127.29   15.13
   4  -3   8  120.60   11.49
  -4  -3   8  145.38   15.20
   4   3   9  106.01   13.22
  -4  -3   9   98.65   10.34
  -4  -3  -9   91.79   11.55
  -4   3   9   97.83   13.83
  -4  -3   9  113.81   13.31
   4  -3   9  123.84   15.35
  -4   3   9   92.86   12.31
  -4  -3   9  113.26   13.19
  -4  -3  10   29.32    7.25
  -4  -3  10   30.61    5.69
   4   3  10   18.92    5.84
  -4  -3 -10   28.31    8.38
   4  -3  10   35.09    8.63
  -4   3  10   33.35    8.09
  -4  -3  10   36.52    8.22
   4   3  10   35.39    7.28
  -4   3  10   39.47    8.36
   4   3  11  227.68   20.23
  -4  -3  11  219.86   16.63
  -4   3  11  223.82   22.13
   4  -3  11  214.30   20.81
  -4  -3  11  186.03   19.06
  -4   3  11  250.22   21.87
   4   3  11  251.54   20.28
  -4  -3 -11  173.28   17.34
  -4  -3  11  195.97   19.34
   4  -3  12   25.34    7.74
   4   3  12   25.95    7.82
  -4  -3  12   31.36    6.77
  -4  -3 -12   15.55    5.75
  -4   3  12   43.26   10.22
  -4  -3  12   35.53    7.91
  -4   3  12   34.22    8.41
   4   3  12   30.30    8.33
   4   3  13   11.21    4.81
  -4  -3  13   10.24    4.10
  -4  -3 -13    4.64    4.46
  -4   3  13    9.81    3.61
  -4  -3  13    9.65    6.42
   4   3  13   10.29    4.59
  -4   3  13    2.12    2.07
   4  -3  13   15.65    6.92
   4   3  14    0.55    3.44
  -4  -3  14    7.78    4.50
  -4   3  14    1.90    1.83
  -4  -3 -14    1.94    0.43
  -4  -3  14    4.44    4.06
   4   3  14    5.22    3.02
   4  -3  14   -1.28    2.73
  -4   3  14    5.95    4.54
   4   3  15   77.08   12.44
  -4  -3  15   72.29   11.62
   4  -3  15   78.75   13.93
  -4  -3 -15   73.89   13.98
  -4   3  15   79.57   14.23
  -4  -3  15   82.74   13.98
  -4   3  15  100.17   15.18
   4   3  15   81.84   13.83
   4   3  16   -0.19    2.99
  -4  -3  16   -1.91    3.51
   4   3  16    0.30    1.07
  -4   3  16   -0.97    0.68
  -4  -3 -16    2.18    3.55
  -4  -3  16   -0.94    2.88
   4  -3  16    3.23    3.46
  -4   3  16   -1.04    3.76
   4   3  17  122.97   18.67
  -4  -3  17  115.55   16.13
   4  -3  17  138.89   19.09
  -4   3  17  134.32   18.84
  -4  -3  17  134.21   18.32
  -4   3  17  108.49   17.30
   4   3  17  155.60   19.73
   4   3  18   71.02   13.37
  -4  -3  18   59.15   11.77
   4  -3  18   84.93   15.52
  -4   3  18   79.60   14.48
  -4  -3  18   60.13   13.22
   4   3  18   69.07   13.66
  -4   3  18   83.31   15.19
   4   3  19   74.40   14.42
  -4  -3  19   57.30   12.42
  -4   3  19   82.69   15.23
  -4  -3  19   95.68   16.44
   4  -3  19   41.48   10.31
   4   3  19   83.56   14.87
  -4   3  19  102.71   16.33
   4  -3  19   87.08   15.91
  -4  -3  20   70.31   13.86
  -4   3  20   60.44   12.87
   4   3  20   62.41   13.62
  -4   3  20   63.44   14.90
   4  -3  20   53.24   12.23
  -4  -3  20   48.95   12.01
   4   3  20   50.02   13.17
   4  -3  20   50.75   12.18
  -4  -3  21  392.45   33.98
   4   3  21  382.50   34.53
   4  -3  21  371.10   32.87
  -4   3  21  397.16   34.74
  -4  -3  21  384.26   34.97
   4   3  21  355.63   33.94
  -4   3  21  390.74   33.85
   4  -3  21  364.13   33.24
  -4   3  22    0.19    4.32
  -4  -3  22    0.53    1.95
   4   3  22   -0.11    1.53
   4  -3  22   -0.28    2.31
  -4  -3  22    0.44    3.44
  -4   3  22   -0.94    2.66
   4   3  22    6.78    5.42
   4  -3  22    0.72    4.21
  -4   3  23   42.11   12.01
  -4  -3  23   32.74   10.55
   4   3  23   32.82   10.88
   4  -3  23   47.27   13.03
  -4   3  23   41.55   11.15
  -4  -3  23   49.91   14.36
   4   3  23   39.50   10.96
   4  -3  23   18.85    9.01
  -4   3  24    2.05    2.52
  -4   3  24    1.31    5.04
  -4  -3  24   12.29    9.60
   4   3  24   -0.94    3.21
  -4  -3  24    3.82    7.13
   4  -3  24   -3.76    6.86
   4   3  24    2.25    0.63
   4  -3  24    1.82    3.94
  -4   3  25   31.49   11.40
   4   3  25   33.52   10.64
   4  -3  25   27.93   10.24
  -4   3  25   38.33   12.30
  -4  -3  25   47.63   14.52
   4   3  25   34.49   11.31
   4  -3  25   42.79   13.51
  -4   3  26   12.82    6.49
   4  -3  26    3.34    6.44
   4   3  26   26.19   10.60
   4  -3  26   -1.18    3.76
  -4   3  26   21.72    7.82
  -4  -3  26   25.57    8.03
   4   3  26   29.72    9.60
  -4   3  27    6.72    4.03
   4   3  27   -1.78    4.91
   4  -3  27   10.78    6.78
  -4   3  27   10.58    7.78
  -4  -3  27    9.40    7.09
   4   3  27    2.62    8.04
   4  -3  27    4.03    7.07
  -4   3  28    7.72    5.20
   4   3  28   19.77    9.69
   4  -3  28    7.59    7.36
  -4   3  28   17.87    7.99
  -4  -3  28   11.44    4.56
   4   3  28   13.03    9.07
   4  -3  28    9.28    5.42
  -4   3  29   31.88   10.60
   4  -3  29   76.81   16.86
   4   3  29   45.57   13.10
  -4   3  29   65.51   15.58
  -4  -3  29   81.62   17.98
   4   3  29   52.51   16.15
   4  -3  29   59.23   17.32
  -4   3  30    0.81    0.92
   4   3  30    5.30    4.85
   4  -3  30    0.41    4.84
  -4   3  30   -1.93    1.88
  -4  -3  30   13.49   10.08
   4   3  30    4.68    5.77
   4  -3  30    1.47    2.29
  -4  -4   0   23.13    3.33
  -4  -4   0   25.63    5.90
   4  -4   0   13.48    4.02
  -4   4   0   10.96    5.34
   4  -4   0   19.72    5.56
  -4  -4   0   16.58    3.70
   4  -4  -1   25.24    6.05
   4  -4   1   25.35    5.72
  -4  -4   1   34.38    7.00
   4  -4  -1   24.71    5.16
  -4  -4  -1   24.93    5.65
  -4  -4   1   25.56    4.38
  -4  -4   1   19.95    2.63
   4  -4   1   14.02    4.98
  -4   4   1   25.89    7.14
   4   4   1   24.11    3.85
   4   4   2  127.51    9.51
  -4  -4   2  134.01   13.83
   4  -4   2  133.40   12.59
  -4  -4  -2  130.02   13.28
   4  -4  -2  150.39   13.16
   4  -4   2  109.56   13.13
  -4   4   2  110.17   14.47
  -4  -4   2  144.37   11.19
   4  -4  -2  117.19   14.02
  -4  -4   3   41.46    7.77
   4  -4   3   46.04    7.11
  -4  -4  -3   42.05    7.99
   4  -4   3   47.71    8.10
   4  -4  -3   58.58    8.41
  -4   4   3   60.47   11.50
  -4  -4   3   50.12    6.96
   4   4   3   44.53    6.09
   4  -4  -3   43.63    8.58
  -4  -4   4  150.14   15.32
   4  -4   4  119.46   11.91
   4  -4  -4  127.29   14.66
   4  -4   4  128.30   14.61
  -4  -4  -4  119.25   12.85
  -4  -4   4  142.28    6.52
   4  -4  -4  142.15   13.53
  -4   4   4  137.01   16.64
  -4  -4   4  147.17   12.37
   4   4   4  138.62   11.91
  -4  -4   5  808.10   36.37
   4  -4   5  846.38   31.30
   4  -4   5  830.37   37.74
  -4  -4   5  825.73   18.41
  -4  -4  -5  671.32   31.11
   4  -4  -5  784.77   36.31
   4  -4  -5  844.59   34.65
  -4   4   5  799.51   39.83
  -4  -4   5  803.45   30.10
   4   4   5  826.84   31.49
  -4  -4   6  124.44   14.48
   4  -4   6  119.14   12.05
  -4  -4  -6  111.02   12.96
   4  -4  -6  120.57   13.22
  -4   4   6  113.60   15.15
  -4  -4   6  136.84   13.01
   4   4   6  143.11   13.40
   4  -4   6  131.04   15.42
  -4  -4   7  201.55   12.58
   4  -4  -7  207.49   18.69
  -4  -4  -7  242.13   19.37
  -4  -4   7  204.80   16.80
  -4   4   7  239.18   21.96
   4   4   7  208.01   14.22
   4  -4   7  228.22   20.73
   4   4   7  226.06   18.66
  -4  -4   7  238.23   20.32
   4  -4   7  219.66   16.69
   4  -4   8    1.51    2.37
  -4  -4   8    5.25    3.64
   4   4   8    3.87    3.05
  -4  -4   8    3.02    3.36
   4  -4   8    1.97    1.09
  -4  -4   8    0.11    1.44
  -4  -4  -8    0.67    3.64
  -4   4   8    0.03    3.92
   4  -4  -8    1.90    2.21
  -4   4   8   -1.17    3.06
   4   4   8    2.16    1.00
   4  -4   9   -0.44    1.82
  -4  -4  -9   -0.96    1.22
  -4  -4   9    4.48    4.30
   4   4   9    0.02    1.56
   4  -4  -9   -0.37    0.87
   4  -4   9   -0.26    2.68
  -4  -4   9    2.81    1.83
  -4  -4   9    2.10    4.11
  -4   4   9    0.76    2.71
  -4   4   9    7.47    5.22
   4   4   9   -0.75    2.64
  -4  -4  10   37.07    8.30
  -4  -4  10   35.10    7.46
  -4  -4  10   37.41    6.70
   4   4  10   39.79    8.00
  -4  -4 -10   42.44    8.57
  -4   4  10   39.86    8.58
   4  -4  10   48.52   10.46
  -4   4  10   42.66    9.78
   4   4  10   46.11    8.32
   4  -4  10   39.17    7.56
  -4  -4  11   15.69    6.19
   4  -4  11   11.16    5.88
   4   4  11    2.89    1.63
  -4  -4  11   12.16    4.09
  -4  -4 -11   14.48    5.61
  -4   4  11    7.72    2.48
  -4  -4  11    6.78    4.43
  -4   4  11    8.12    3.41
   4   4  11    8.63    4.12
   4  -4  11   19.21    5.84
  -4  -4  12    2.51    3.25
   4  -4  12    4.35    3.16
   4   4  12    2.33    3.50
  -4  -4 -12    3.15    3.51
  -4  -4  12   -0.37    0.65
  -4   4  12    0.14    3.71
  -4  -4  12   -1.08    3.06
  -4   4  12    1.56    3.45
   4   4  12    3.29    4.38
   4  -4  13    1.87    2.80
   4   4  13    7.13    3.41
  -4   4  13    0.53    2.61
  -4  -4  13    9.23    4.52
  -4  -4 -13   14.85    5.19
  -4  -4  13   10.40    3.92
  -4   4  13    7.20    3.40
   4   4  13    1.04    3.57
  -4  -4  13    7.60    4.66
  -4  -4  14   82.53   11.95
  -4  -4 -14  124.57   17.44
  -4   4  14   96.51   15.00
   4  -4  14  113.06   16.52
  -4  -4  14   89.94   14.73
  -4   4  14   83.20   14.37
   4   4  14   95.98   13.61
   4   4  14   92.46   15.48
   4   4  15   43.31   10.25
  -4  -4  15   33.07    7.62
  -4  -4 -15   42.11   10.16
  -4   4  15   28.32    9.08
  -4  -4  15   30.73    8.71
   4   4  15   14.73    4.40
  -4   4  15   37.03   10.11
   4  -4  15   13.73   10.26
   4   4  16   24.30    8.39
  -4  -4  16   13.08    5.65
  -4  -4 -16   17.03    7.59
  -4   4  16   30.34    7.93
  -4  -4  16   21.54    6.58
   4   4  16   19.06    6.76
   4  -4  16   16.04    6.55
  -4   4  16   20.17    7.74
   4   4  17   20.97    7.87
  -4  -4  17    1.43    2.47
  -4  -4 -17   22.22    7.06
  -4   4  17   26.85    8.39
  -4  -4  17   15.30    8.63
   4   4  17   33.99    9.92
   4  -4  17   11.33    4.75
  -4   4  17   22.70    8.11
   4   4  18   52.77   12.45
  -4  -4  18   31.74    9.60
  -4  -4 -18   20.41    9.08
  -4   4  18   57.09   12.30
  -4  -4  18   33.46   10.73
   4  -4  18   49.63   12.76
   4   4  18   42.80   10.09
  -4   4  18   41.10   12.09
  -4  -4  19  138.17   18.42
   4  -4  19   85.82   16.16
  -4  -4 -19  115.18   18.21
  -4   4  19  109.88   17.00
   4   4  19  131.32   19.06
  -4   4  19  121.29   18.25
  -4  -4  19  117.15   18.81
   4   4  19  146.73   21.26
   4   4  20   -5.50    5.00
  -4   4  20    1.89    2.51
  -4  -4  20    0.67    2.24
  -4  -4 -20    1.91    1.12
  -4  -4  20   -0.92    2.77
   4  -4  20    2.22    2.47
   4   4  20    2.50    3.87
   4  -4  20    5.70    6.53
  -4   4  20    1.68    1.71
   4   4  21   13.27    4.30
  -4  -4  21   18.17   10.69
  -4  -4 -21   -2.59    2.40
   4  -4  21   11.38    6.53
  -4  -4  21   11.74    7.29
  -4   4  21   12.13    6.43
   4   4  21   18.80    8.95
   4  -4  21    5.97    7.17
  -4   4  21    2.26    4.31
   4  -4  22   22.28    9.06
   4   4  22   23.27    9.66
  -4   4  22   22.53    8.78
  -4  -4 -22   17.61    7.49
  -4  -4  22   30.29    9.39
   4   4  22   13.52    4.98
   4  -4  22   49.55   12.05
  -4   4  22   35.14   11.19
   4   4  23    2.51    4.34
  -4   4  23    0.92    3.98
  -4  -4 -23    2.73    3.23
   4  -4  23   -3.56    0.88
  -4  -4  23    2.47    3.35
   4   4  23    2.03    3.13
   4  -4  23    3.36    2.39
  -4   4  23    1.64    5.75
   4   4  24    0.87    3.91
  -4   4  24    3.32    1.26
   4  -4  24   -4.27    7.65
  -4  -4 -24    3.76    3.70
  -4  -4  24   -2.64    0.49
   4   4  24   -1.44    3.48
   4  -4  24    4.33    5.45
  -4   4  24   -1.23    5.33
   4   4  25    7.15    6.15
   4  -4  25    9.62    7.18
  -4  -4 -25   -1.95    3.70
  -4   4  25   11.32    7.68
  -4  -4  25   10.31    6.88
   4   4  25   -2.61    0.93
   4  -4  25    5.21    5.15
  -4   4  25   -4.68    3.75
   4   4  26    4.85    2.48
   4  -4  26   -0.43    5.17
  -4  -4 -26    6.73    6.52
  -4   4  26    3.81    3.56
  -4  -4  26   -1.44    4.01
   4   4  26   -5.57    8.03
   4  -4  26   -0.16    3.40
  -4   4  26    2.91    5.32
  -4   4  27   -8.63    6.15
   4   4  27    1.28    0.30
   4  -4  27    1.70    1.89
  -4  -4 -27   16.52    8.72
  -4  -4  27   -1.16    3.61
   4   4  27    2.31    5.38
   4  -4  27   12.99    4.78
  -4   4  27    4.37    4.71
   4   4  28    3.58    5.24
   4   4  28    5.50    7.44
   4  -4  28   -1.63    6.19
  -4  -4 -28   10.96    7.76
  -4   4  28   12.58    6.15
  -4  -4  28   17.09    9.37
   4  -4  28   20.49   10.88
  -4   4  28   18.47   11.17
   4   4  29   -2.81    6.16
   4  -4  29   -3.65    5.73
  -4   4  29    0.51    2.00
  -4  -4  29    4.17    7.42
   4   4  29   -4.68    5.39
   4  -4  29   -4.66    6.03
  -4  -4 -29   -1.12    1.24
  -4   4  29    0.87    3.23
   4   4  30    5.23    2.43
   4  -4  30    2.28    2.72
  -4  -4 -30    1.28    5.19
  -4   4  30   -2.44    2.86
  -4  -4  30   14.02   11.04
   4   4  30   -1.85    1.42
   4  -4  30    2.73    5.19
  -4   4  30   -1.65    5.16
  -4  -5   0  300.26   22.73
   4  -5   0  258.76   18.63
   4  -5   0  286.62   23.33
  -4   5   0  292.49   23.78
  -4  -5   0  281.99   14.83
   4  -5  -1    2.33    1.99
  -4  -5   1   -0.35    2.59
  -4  -5  -1    1.57    2.49
   4  -5   1   -0.26    1.27
   4  -5  -1    0.64    1.72
  -4   5   1    2.47    1.98
  -4  -5   1    1.51    1.43
   4  -5   1    1.69    2.57
  -4  -5   1   -0.24    0.88
  -4  -5  -1   -0.11    0.44
  -4  -5   2  167.57   17.26
   4  -5   2  153.84   14.74
  -4  -5  -2  146.64   15.45
  -4   5   2  157.21   18.17
  -4  -5   2  150.87    9.37
   4  -5  -2  150.92   14.50
   4  -5   2  156.98   17.01
  -4  -5   2  164.73   10.82
   4   5   2  146.60   11.56
   4  -5  -2  150.74   17.34
  -4  -5   3  255.52   21.04
   4  -5   3  225.12   17.68
  -4  -5  -3  192.43   18.58
   4  -5   3  271.52   22.31
   4  -5  -3  260.48   19.47
  -4  -5   3  204.85   12.74
  -4   5   3  284.83   24.65
   4   5   3  272.80   16.61
   4   5   3  220.45    8.34
  -4  -5   3  238.05   11.48
   4  -5  -3  230.36   20.72
  -4  -5   4  106.52   13.94
   4  -5   4  105.03   12.11
   4  -5  -4  113.46   14.99
  -4  -5  -4   85.96   12.12
   4  -5   4  121.39   14.74
  -4  -5   4  116.87   10.17
   4  -5  -4   88.73   11.64
  -4   5   4  121.93   15.97
  -4  -5   4   87.53    7.40
   4   5   4  132.16   12.47
   4   5   4   76.93    5.85
  -4  -5   5  107.42   13.83
   4  -5   5   93.11   11.14
   4  -5   5  103.45   13.91
   4  -5  -5  107.31   14.42
  -4  -5  -5  101.63   12.70
   4  -5  -5  101.11   12.67
  -4   5   5   95.36   14.39
  -4  -5   5   80.98    7.35
  -4  -5   5   75.53    9.52
   4   5   5   76.07    9.55
   4   5   5  101.74    7.77
   4   5   6   12.31    3.69
   4  -5  -6    8.76    5.11
  -4  -5   6    9.97    2.66
  -4  -5   6   14.74    4.67
   4  -5   6   15.59    5.22
   4  -5  -6    8.29    4.69
  -4  -5  -6   10.17    4.71
   4   5   6   16.61    3.56
  -4   5   6   19.98    8.44
   4  -5   6    7.16    4.44
  -4  -5   6   14.53    3.38
   4   5   7    4.57    1.48
  -4  -5   7    2.04    3.54
  -4  -5   7    4.30    1.77
   4  -5   7    9.72    4.95
  -4   5   7    1.91    4.79
   4  -5   7    0.67    0.91
   4  -5  -7    5.12    3.84
  -4  -5   7    4.69    1.83
  -4  -5  -7    6.31    3.68
   4   5   7    3.40    2.15
   4  -5   8  211.52   18.11
  -4  -5  -8  163.27   17.08
  -4  -5   8  194.77   13.91
   4  -5  -8  179.14   18.23
  -4   5   8  214.26   21.42
  -4  -5   8  206.27   17.99
   4   5   8  186.15   17.51
   4  -5   8  229.32   21.69
  -4  -5   8  207.84   20.93
  -4  -5   9  132.93   12.65
  -4  -5  -9  214.39   20.36
   4  -5  -9  124.00   16.08
  -4   5   9  174.45   19.58
  -4  -5   9  132.06   15.27
  -4   5   9  157.68   18.50
   4   5   9  169.21   14.32
   4  -5   9  154.15   18.39
   4   5   9  167.57   17.27
   4  -5   9  151.75   15.95
  -4  -5   9  155.73   18.36
   4  -5 -10  323.88   26.62
  -4  -5  10  295.95   19.27
  -4  -5 -10  292.80   23.99
  -4  -5  10  308.93   23.69
  -4   5  10  305.90   25.84
   4   5  10  290.46   20.21
   4  -5  10  368.84   28.61
   4   5  10  357.32   25.96
  -4   5  10  324.87   27.02
   4  -5  10  264.63   21.23
  -4  -5  10  266.70   23.91
  -4   5  11   38.26    9.08
   4  -5  11   32.80    7.64
  -4  -5  11   30.50    9.29
   4   5  11   29.28    7.64
  -4  -5  11   36.08    7.61
   4  -5  11   38.00    9.00
  -4  -5 -11   34.58    8.45
  -4  -5  11   42.25    9.53
   4  -5 -11   25.04    6.47
   4   5  11   40.23    7.48
  -4   5  11   28.17    8.27
  -4  -5  12   72.50   10.93
  -4  -5 -12  100.81   14.81
  -4   5  12   74.69   13.22
  -4  -5  12   89.08   13.47
   4  -5  12   99.60   15.59
  -4   5  12   44.80   12.31
   4   5  12   64.95   11.08
   4   5  12  106.56   15.28
   4  -5  12   92.42   12.77
  -4  -5  12   67.90   12.76
   4  -5  13   17.05    5.38
  -4  -5  13   17.99    5.45
   4   5  13   21.80    6.36
   4  -5  13   32.19    9.13
  -4  -5 -13   23.08    6.44
  -4  -5  13   21.66    5.82
  -4   5  13   24.76    7.70
   4  -5 -13   24.64    6.73
  -4  -5  13   13.36    5.20
  -4   5  13   21.84    6.52
   4   5  13   24.77    6.59
  -4  -5  14  402.54   27.87
  -4   5  14  398.78   31.94
  -4  -5 -14  390.08   30.11
   4  -5  14  484.32   35.03
  -4  -5  14  428.12   31.55
   4   5  14  440.70   29.82
  -4   5  14  451.65   33.52
   4   5  14  483.56   34.28
  -4  -5  14  399.47   31.39
  -4  -5  15    2.64    1.96
   4  -5  15    2.05    1.93
   4   5  15   -1.35    2.69
  -4  -5  15    8.91    4.60
  -4  -5 -15    4.35    3.06
  -4   5  15    5.51    5.64
  -4  -5  15    2.42    2.87
   4   5  15    5.24    3.06
  -4   5  15   -1.91    4.01
  -4  -5  16  128.92   17.67
  -4  -5 -16  131.76   18.31
   4  -5  16  121.08   17.68
  -4   5  16  141.63   20.00
  -4  -5  16  128.03   18.30
   4   5  16  100.10   15.61
   4   5  16  127.07   18.47
  -4  -5 -17   20.81    6.85
   4   5  17   69.38   13.73
  -4  -5  17   54.99   12.57
  -4   5  17   47.58   11.28
   4   5  17   83.26   15.42
  -4   5  17   45.34   11.49
   4  -5  17   14.42   11.26
   4  -5  18   56.30   14.84
  -4  -5 -18   85.55   16.00
  -4   5  18   86.05   16.25
  -4  -5  18   66.27   13.91
   4   5  18  100.94   16.66
  -4   5  18   98.13   16.12
   4   5  18   89.48   16.62
   4   5  19   -1.12    1.89
  -4  -5 -19    6.29    5.63
  -4   5  19    3.60    6.79
  -4  -5  19    0.06    2.58
   4   5  19   -4.22    4.25
   4  -5  19   -2.16    4.25
  -4   5  19    0.27    1.93
  -4  -5 -20   73.96   15.58
   4  -5  20   76.91   15.10
   4  -5  20   71.42   14.92
  -4   5  20   67.88   13.91
   4   5  20   73.68   15.32
  -4  -5  20   55.52   13.66
   4   5  20   69.43   15.49
  -4   5  20   57.72   13.90
   4   5  21    5.76    5.68
  -4  -5 -21    4.95    3.00
  -4   5  21    4.96    2.10
  -4  -5  21    7.09    4.60
   4  -5  21    9.03    5.23
   4   5  21    1.75    3.10
  -4   5  21    0.79    3.42
   4  -5  21    3.44    4.43
  -4  -5 -22  129.24   20.96
   4  -5  22  109.12   19.09
  -4   5  22  107.16   18.65
  -4  -5  22   93.38   18.11
   4   5  22  128.75   20.88
  -4   5  22  112.55   19.38
   4  -5  22  150.76   21.57
   4   5  22  126.60   19.90
   4  -5  23   21.42    7.74
   4   5  23   29.98   11.79
  -4  -5 -23   24.12    9.80
  -4   5  23   14.26    6.05
  -4  -5  23   29.02   11.14
   4   5  23    5.99    2.31
   4  -5  23   18.66    7.86
  -4   5  23   22.19    9.88
   4   5  24   53.60   13.65
   4  -5  24   35.30   11.55
  -4  -5 -24   47.47   14.75
  -4   5  24   42.72   11.95
  -4  -5  24   59.13   13.96
   4   5  24   44.13   12.59
   4  -5  24   46.03   13.89
  -4   5  24   57.95   13.90
   4   5  25   11.77    7.33
   4  -5  25   18.41    8.96
  -4   5  25   22.65    8.57
  -4  -5 -25    4.95    4.93
  -4  -5  25    5.26    3.04
   4   5  25   19.09    8.69
   4  -5  25   10.08    5.05
  -4   5  25   19.32    9.07
   4   5  26    2.43    2.65
   4  -5  26   -6.51    8.12
  -4  -5 -26   -0.58    3.44
  -4  -5  26   -3.53    1.98
   4   5  26    0.49    2.81
  -4   5  26    8.34    6.43
   4  -5  26   -2.83    3.55
  -4   5  26   -1.22    3.78
   4   5  27    5.40    6.83
  -4  -5 -27    6.75    7.88
   4  -5  27   -1.72    3.89
  -4   5  27    5.65    1.21
  -4  -5  27    2.48    6.02
   4   5  27   -8.66    8.90
   4  -5  27   -6.23    7.32
  -4   5  27   -0.21    4.57
   4   5  28   18.00    9.90
   4  -5  28    4.08    4.14
  -4  -5 -28   -2.17    3.21
  -4   5  28    8.47    2.59
  -4  -5  28   13.78    5.71
   4   5  28   19.52    9.83
   4  -5  28    4.64    6.99
  -4   5  28   15.94    9.02
   4   5  29    8.91    7.22
   4  -5  29    5.16    4.07
  -4  -5 -29   13.76    9.49
  -4   5  29   10.98    7.54
  -4  -5  29   17.47    9.19
   4  -5  29   19.07    9.11
  -4   5  29   16.16    6.73
  -4  -6   0  214.94   20.38
   4  -6   0  228.00   19.57
   4  -6   0  230.14   21.68
  -4  -6   0  208.45   14.92
  -4  -6  -1   37.15    6.48
   4  -6  -1   29.33    8.06
  -4  -6  -1   36.24    9.87
   4  -6   1   52.70    9.30
   4  -6  -1   50.89    9.92
  -4  -6   1   33.35    7.72
   4  -6   1   44.22    9.20
  -4   6   1   40.88   10.02
  -4  -6   1   34.43    5.44
  -4  -6   2  127.31   16.35
   4  -6   2  124.50   14.74
  -4  -6  -2  136.15   16.36
  -4   6   2  143.10   18.42
   4  -6  -2  135.18   15.19
  -4  -6   2  125.71   10.82
   4  -6   2  132.68   16.76
   4  -6  -2  144.87   17.16
  -4  -6   2  128.17    8.09
  -4  -6   3    3.83    3.01
   4  -6   3   10.18    5.78
   4  -6   3    2.18    2.91
  -4  -6  -3    5.67    3.64
   4  -6  -3    5.52    4.61
  -4   6   3   11.05    5.09
  -4  -6   3    1.60    0.74
   4  -6  -3    4.21    4.35
   4   6   3    5.39    3.15
  -4  -6   3    4.68    1.84
   4  -6  -4  211.36   20.95
  -4  -6   4  180.85   19.11
   4  -6   4  201.85   18.86
  -4  -6  -4  201.47   20.33
   4  -6   4  211.22   21.26
   4  -6  -4  206.65   19.31
  -4   6   4  201.87   22.06
  -4  -6   4  197.38   13.52
   4   6   4  212.83   16.77
  -4  -6   4  208.82   13.89
  -4  -6   5   24.71    7.74
   4  -6   5   30.40    7.50
  -4  -6   5   20.32    4.49
  -4  -6  -5   27.69    7.70
   4  -6  -5   15.18    4.96
  -4   6   5   25.28    8.66
   4  -6  -5   17.21    5.13
  -4  -6   5   33.42    5.70
   4   6   5   35.38    7.26
   4  -6   5   21.41    6.68
  -4  -6   6  206.99   20.83
   4  -6   6  236.84   20.45
   4  -6   6  191.54   20.00
   4  -6  -6  207.74   21.07
  -4  -6  -6  194.30   19.08
   4  -6  -6  213.66   20.02
  -4   6   6  207.19   21.95
  -4  -6   6  188.85   14.09
  -4  -6   6  214.53   15.97
   4   6   6  167.49    8.74
   4   6   6  235.36   19.16
   4  -6   7   35.87    8.72
  -4  -6   7   31.13    8.76
   4   6   7   25.68    4.46
   4  -6  -7   22.69    6.17
  -4  -6   7   37.86    6.82
  -4  -6  -7   36.02    9.24
  -4  -6   7   30.10    5.75
  -4   6   7   27.54    7.66
   4  -6  -7   29.86    7.94
   4  -6   7   26.67    7.99
   4   6   7   38.49    8.22
   4  -6   8   -0.17    1.31
  -4  -6   8    7.17    6.69
   4  -6   8    3.43    3.06
  -4  -6  -8    0.61    3.85
  -4   6   8    8.28    6.64
   4  -6  -8   -0.51    2.04
  -4  -6   8    2.38    2.81
  -4  -6   8    0.23    1.21
   4   6   8    0.04    0.76
   4   6   8    0.35    1.38
   4   6   9   14.29    5.73
   4  -6   9   19.30    6.47
   4  -6   9    9.37    3.66
  -4  -6  -9   15.27    5.76
  -4   6   9   13.38    5.44
   4  -6  -9    7.86    3.12
  -4  -6   9    4.58    1.38
   4   6   9    8.15    3.37
  -4  -6   9    3.59    2.56
  -4  -6  10   36.36    9.22
   4  -6  10   35.45    8.47
  -4  -6 -10   51.65   10.70
   4  -6  10   36.17    9.19
  -4   6  10   43.27   10.40
   4  -6 -10   19.89    4.79
  -4  -6  10   31.57    7.28
   4   6  10   41.62    9.29
  -4  -6  10   31.56    7.02
   4   6  10   32.30    6.33
   4   6  11   21.92    6.97
   4  -6  11   15.18    5.64
  -4  -6  11   38.20    9.98
  -4   6  11   24.76    7.65
  -4  -6  11   36.65    9.05
   4  -6  11   26.13    7.16
  -4  -6 -11   10.55    3.59
   4  -6 -11   19.43    6.41
  -4  -6  11   24.70    7.06
  -4   6  11   32.13    8.33
   4   6  11   30.49    6.43
  -4  -6 -12  185.75   20.42
   4  -6 -12  156.82   19.12
  -4  -6  12  153.44   18.62
   4   6  12  167.99   16.97
   4  -6  12  166.77   20.83
  -4   6  12  159.96   20.01
   4   6  12  202.17   20.72
   4  -6  12  174.75   19.75
  -4  -6  12  195.57   23.86
   4  -6  13   -1.03    1.06
  -4  -6  13    0.77    1.87
   4   6  13   -4.42    4.50
   4  -6  13   -0.09    3.49
  -4  -6 -13    0.78    2.20
  -4   6  13   -2.25    1.53
   4  -6 -13    1.05    3.12
  -4  -6  13    5.83    4.30
  -4   6  13   -5.62    5.39
   4   6  13    0.68    1.87
   4  -6  14   12.61    4.99
  -4  -6  14   19.62    6.06
   4   6  14   22.59    7.22
   4  -6  14   17.99    6.74
  -4  -6 -14   19.48    8.37
   4  -6 -14    3.45    4.66
  -4   6  14   22.10    8.53
  -4  -6  14    9.87    6.46
   4   6  14   19.37    7.24
  -4   6  14   21.77    6.54
  -4   6  15  326.51   29.93
   4  -6  15  288.53   27.84
   4  -6 -15  345.79   31.96
  -4  -6 -15  320.49   29.93
  -4  -6  15  254.60   26.29
   4   6  15  269.77   24.49
   4   6  15  312.71   27.98
   4  -6  15  235.88   23.84
  -4  -6  15  340.61   29.75
  -4  -6  16    5.63    5.46
   4  -6  16    2.04    2.54
   4   6  16    3.72    3.72
  -4  -6 -16    1.97    2.09
  -4   6  16   -1.09    0.72
   4  -6 -16   -0.10    1.91
  -4  -6  16    4.04    1.95
   4   6  16   -4.56    5.02
  -4   6  16    0.12    2.72
   4  -6  17   12.58    7.03
   4   6  17   13.74    7.06
  -4  -6 -17   26.21    7.64
  -4   6  17   29.54    9.14
   4  -6 -17   33.42    9.99
  -4  -6  17   23.75    7.34
   4   6  17   15.89    7.20
  -4   6  17   11.70    4.39
  -4  -6  17   20.48    8.62
   4   6  18   57.57   12.15
  -4   6  18   45.57   11.10
  -4  -6 -18   12.33   11.81
   4  -6 -18   36.78   13.03
  -4  -6  18   38.80   11.13
   4   6  18   21.38    8.23
  -4   6  18   49.10   12.45
   4  -6  18   47.63   11.84
   4   6  19   10.21    6.50
  -4  -6 -19   -1.19    4.63
  -4   6  19    8.96    4.33
   4  -6 -19   21.26    7.97
  -4  -6  19   15.40    6.26
   4   6  19   10.09    4.62
  -4   6  19   14.04    5.31
   4  -6  19   22.41    7.59
   4   6  20    6.43    6.94
   4  -6 -20    3.40    5.03
  -4  -6 -20    3.72    4.65
  -4   6  20    9.44    7.09
  -4  -6  20    0.46    3.25
   4   6  20    9.17    5.33
   4  -6  20    6.34    3.46
  -4   6  20    5.51    7.64
   4   6  21   59.17   14.39
  -4   6  21   52.62   13.30
  -4  -6 -21   49.51   13.65
  -4   6  21   53.93   14.59
   4  -6 -21   44.77   12.03
  -4  -6  21   57.77   13.18
   4   6  21   39.35   11.59
   4  -6  21   66.85   15.04
   4  -6  21   48.04   12.81
   4   6  22   13.15    6.86
  -4  -6 -22   11.12    6.60
  -4   6  22    7.67    4.31
   4  -6 -22    9.97    4.14
  -4  -6  22   18.02    9.28
   4  -6  22    6.47    2.79
  -4   6  22   15.09    8.21
   4  -6  22   17.25    9.11
  -4  -6 -23    5.83    2.97
   4   6  23    3.12    0.79
  -4   6  23    2.59    3.02
   4  -6 -23    6.18    4.96
   4  -6  23    3.69    7.65
  -4  -6  23    7.88    5.88
  -4   6  23   14.65    7.40
   4  -6  23    4.12    0.95
   4   6  24    8.37    5.77
  -4   6  24    2.96    4.68
   4  -6 -24    2.80    4.53
   4  -6  24    9.35    8.40
  -4  -6  24    6.56    7.09
  -4  -6 -24    9.20    3.67
  -4   6  24   -3.07    5.69
   4  -6  24   16.49    8.06
  -4   6  25   10.09    7.45
   4   6  25    0.94    4.52
  -4  -6 -25   -3.90    3.74
   4  -6 -25    4.27    7.51
   4  -6  25   10.72    6.46
  -4  -6  25   13.65    7.52
  -4   6  25    2.76    2.89
   4  -6  25   -1.07    4.64
   4   6  26   40.99   12.57
  -4  -6 -26   32.89   10.34
  -4   6  26   58.97   14.75
   4  -6  26   31.05   12.30
   4  -6 -26   22.62    9.82
  -4  -6  26   41.75   14.03
   4  -6  26   38.26   13.21
  -4   6  26   58.22   14.94
   4   6  27   -0.53    4.86
  -4  -6 -27    3.36    1.30
   4  -6  27    6.60    5.47
  -4   6  27    1.23    6.93
   4  -6 -27    9.26    4.83
  -4  -6  27    7.01    5.15
   4  -6  27   12.16    7.47
  -4   6  27   16.11    8.38
   4   6  28    7.90    8.67
   4  -6  28    2.83    6.85
  -4  -6 -28   -2.69    3.12
  -4   6  28   -4.18    7.36
   4  -6 -28    2.73    5.60
  -4  -6  28   -4.08    5.39
   4  -6  28    6.84    5.32
  -4   6  28   -1.55    1.80
  -4  -7   0   32.07    8.50
   4  -7   0   42.81    9.36
  -4  -7   0   37.31    7.11
   4  -7   0   46.79   10.60
  -4  -7   1  125.26   17.12
  -4  -7  -1  131.16   16.85
   4  -7   1  114.00   14.68
   4  -7  -1  113.88   15.21
  -4   7   1  115.14   15.96
  -4  -7   1  132.10   13.45
   4  -7   1  112.92   16.52
   4  -7  -1  128.48   16.91
  -4  -7  -1  122.70   13.38
  -4  -7   2   20.15    6.05
   4  -7  -2   12.18    3.33
   4  -7   2   20.62    5.45
  -4  -7  -2   23.71    7.55
  -4  -7   2   13.13    4.53
   4  -7  -2   24.27    7.72
  -4   7   2   23.38    7.50
   4  -7   2   20.46    5.82
  -4  -7  -2   17.41    5.77
  -4  -7   3 1240.21   54.52
   4  -7   3 1408.51   53.53
  -4   7   3 1257.84   55.86
  -4  -7  -3 1336.46   55.04
  -4  -7   3 1283.75   39.35
   4  -7  -3 1337.96   52.82
   4  -7   3 1386.37   56.55
   4  -7  -3 1406.74   57.60
  -4  -7   4  335.32   20.93
  -4  -7   4  375.45   29.43
   4  -7   4  438.40   29.81
  -4  -7  -4  388.31   29.58
   4  -7  -4  358.55   26.89
   4  -7   4  345.94   27.66
  -4   7   4  380.32   30.27
   4  -7  -4  370.79   29.81
  -4  -7   5   52.12   11.20
   4  -7  -5   46.66    9.71
   4  -7   5   62.91   11.87
   4  -7   5   45.42    9.30
  -4  -7  -5   43.02    9.61
   4  -7  -5   36.95    8.89
  -4   7   5   57.78   12.11
   4   7   5   57.33   10.27
  -4  -7   5   49.62    8.25
  -4  -7   6   64.17   12.82
   4  -7   6   83.25   13.11
   4  -7  -6   66.78   11.76
   4  -7   6   82.29   14.07
  -4  -7  -6   84.74   14.12
   4  -7  -6   90.17   13.79
  -4   7   6  104.22   16.74
   4   7   6   86.98   12.90
  -4  -7   6   90.69   11.17
  -4  -7   7  228.62   23.67
   4  -7   7  233.65   22.55
   4  -7   7  248.47   24.38
   4  -7  -7  242.16   24.19
  -4  -7  -7  214.36   22.78
   4  -7  -7  256.18   23.31
  -4   7   7  239.00   25.11
   4   7   7  259.42   22.38
  -4  -7   8   -3.04    1.22
   4  -7   8   -0.64    0.92
   4  -7  -8   -2.24    2.36
  -4   7   8    1.05    2.91
  -4  -7  -8    2.50    4.79
   4  -7  -8   -0.88    2.07
   4  -7   8   -1.18    2.09
  -4  -7   8    7.53    4.46
   4   7   8    0.54    3.06
   4  -7   9   14.72    7.47
  -4  -7   9    4.80    3.49
   4  -7   9    4.78    4.16
  -4  -7  -9    8.48    4.56
  -4   7   9    1.87    7.79
   4  -7  -9    0.28    3.28
  -4  -7   9    9.95    3.35
   4   7   9    5.22    3.59
  -4  -7  10    8.73    6.62
   4  -7  10   20.20    6.53
   4  -7 -10   21.72    6.75
  -4  -7 -10   20.52    8.88
  -4   7  10    4.51    4.35
   4  -7  10   17.91    4.52
  -4  -7  10   12.36    4.81
   4   7  10   20.05    7.47
  -4  -7 -11  379.40   31.49
   4  -7 -11  362.42   30.36
  -4   7  11  335.21   30.42
  -4  -7  11  332.03   27.32
   4   7  11  300.30   26.48
   4  -7  11  414.20   31.97
  -4  -7  11  366.64   30.82
   4  -7  11  328.00   27.51
   4   7  12    8.48    3.82
   4  -7  12    1.22    3.33
  -4  -7  12   -1.06    2.54
   4  -7  12    3.58    3.41
  -4  -7 -12   11.14    4.44
  -4   7  12    1.96    3.09
   4  -7 -12    0.07    3.37
  -4   7  12    4.57    5.68
  -4  -7  12    6.61    4.15
  -4  -7 -13  243.28   24.92
   4  -7 -13  219.73   23.61
  -4   7  13  210.96   23.43
  -4  -7  13  193.74   22.15
   4  -7  13  241.41   25.53
  -4   7  13  187.73   21.84
   4   7  13  203.03   22.93
   4  -7  13  199.72   22.34
  -4  -7  13  208.67   24.40
   4   7  14   41.08   10.44
   4  -7  14   29.74    8.55
  -4  -7  14   16.20    4.74
   4  -7 -14   14.33    5.72
   4  -7  14   22.97    9.93
  -4  -7 -14   24.65    8.59
  -4  -7  14   17.14    5.83
  -4   7  14   18.09    8.15
  -4   7  14   21.93    8.06
   4  -7 -15  292.24   29.26
  -4  -7 -15  365.52   32.95
  -4   7  15  271.06   27.92
   4  -7  15  257.47   26.91
  -4  -7  15  234.40   25.17
  -4   7  15  291.47   28.78
   4   7  15  264.98   27.01
   4  -7  15  234.14   24.70
  -4  -7  15  244.25   26.48
   4  -7  16   14.22    5.51
  -4  -7  16   32.71    9.98
   4   7  16    9.72    4.98
   4  -7  16   29.33    8.94
  -4   7  16   19.47    7.50
  -4  -7 -16   20.58    7.90
   4  -7 -16   20.03    8.56
  -4  -7  16   29.63    9.82
  -4   7  16   25.84    8.46
  -4  -7  17   20.92    7.99
   4   7  17   10.94    6.40
   4  -7  17   17.45    6.76
  -4  -7 -17   18.68    8.38
  -4   7  17   11.34    4.59
   4  -7 -17   17.22    6.35
  -4  -7  17    5.57    4.48
  -4   7  17    1.75    2.67
   4  -7  17    5.84    4.75
  -4  -7  18   38.03   10.74
   4  -7  18   26.03    8.26
   4   7  18   28.56    8.85
   4  -7 -18   24.97    8.41
  -4  -7 -18   24.84   10.23
  -4   7  18   21.95    9.79
  -4  -7  18   28.28   10.83
  -4   7  18   33.10   10.62
   4   7  19   42.03   11.90
   4  -7 -19   25.46    9.94
  -4  -7 -19   41.86   12.16
  -4   7  19   35.38   10.57
  -4  -7  19   30.34   10.85
  -4   7  19   39.65   12.50
   4  -7  19   36.37   12.86
   4   7  20   10.19    6.84
  -4  -7 -20    6.37    9.57
  -4   7  20    6.93    5.42
   4  -7 -20   10.52    6.11
  -4  -7  20   19.27    8.29
  -4   7  20   -1.78    5.09
   4  -7  20    6.06    4.73
  -4  -7 -21  144.95   22.69
   4  -7  21  159.20   24.31
   4  -7 -21  172.13   24.14
  -4   7  21  147.84   22.98
  -4  -7  21  154.63   23.54
  -4   7  21  141.67   21.16
   4   7  21  125.45   20.54
   4  -7  21  161.88   23.60
  -4  -7 -22   16.01    7.43
   4   7  22   10.52    7.67
  -4   7  22   12.58    5.60
  -4  -7  22    9.31    8.58
   4  -7  22   17.71   10.70
  -4   7  22   29.83    9.43
   4  -7 -22    9.63    3.17
   4  -7  22   15.46    6.22
   4   7  23    5.48    1.05
  -4   7  23    6.51    4.00
  -4  -7 -23   14.19    8.87
   4  -7 -23   16.09    8.85
  -4  -7  23   11.88    8.15
   4  -7  23    0.59    5.66
  -4   7  23    4.45    1.52
   4  -7  23   26.22   10.79
   4   7  24   36.24   11.09
  -4   7  24   40.17   14.40
  -4  -7 -24   21.08    9.17
   4  -7 -24   46.85   13.29
  -4  -7  24   26.03   10.63
   4  -7  24   33.16   11.28
  -4   7  24   36.68   12.13
   4  -7  24   35.33   11.93
   4   7  25   50.65   14.41
  -4  -7 -25   24.44   12.66
  -4   7  25   59.51   15.30
   4  -7 -25   63.55   15.19
   4  -7  25   52.39   15.34
  -4  -7  25   68.82   17.73
   4  -7  25   79.02   18.00
  -4   7  25   56.95   15.38
   4   7  26    2.33    2.38
  -4  -7 -26   -2.02    4.54
  -4   7  26   12.15    9.67
   4  -7 -26    4.30    2.80
   4  -7  26    8.33    7.30
  -4  -7  26    2.03    6.50
  -4   7  26    5.82    7.53
   4  -7  26    6.48    6.28
   4   7  27    8.64    7.16
  -4  -7 -27   12.88    9.34
  -4   7  27    2.39    6.73
   4  -7 -27   13.19    7.42
   4  -7  27    6.34    4.43
  -4  -7  27    7.10    6.62
  -4   7  27    2.09    1.05
   4  -7  27    3.33    1.47
  -4  -8   0  181.23   21.25
   4  -8   0  202.73   21.59
   4  -8   0  178.59   21.36
  -4  -8   0  160.89   16.67
  -4  -8   1   11.33    5.44
  -4  -8  -1    8.07    3.97
   4  -8   1    0.06    2.40
   4  -8  -1    5.04    3.40
  -4  -8  -1   10.11    4.22
   4  -8   1    4.07    2.69
  -4  -8   1    2.31    1.26
   4  -8  -1    9.05    4.72
  -4  -8  -2    2.52    2.80
   4  -8  -2   -4.34    4.38
  -4  -8   2    4.00    4.21
   4  -8   2   -4.95    4.19
  -4  -8  -2   -2.18    2.83
  -4  -8   2    3.69    4.14
  -4   8   2   -0.79    0.98
   4  -8  -2   -2.15    1.23
   4  -8   2    1.85    2.90
  -4  -8   3  240.44   25.10
   4  -8   3  248.54   23.48
  -4  -8  -3  269.55   26.16
  -4  -8  -3  256.45   21.90
   4  -8  -3  197.11   21.10
   4  -8   3  205.13   23.16
  -4   8   3  212.28   23.57
   4  -8  -3  236.06   24.30
  -4  -8   4   74.31   14.00
   4  -8   4   78.49   12.91
  -4  -8  -4   94.72   15.04
   4  -8  -4   75.85   12.53
   4  -8   4   90.31   15.01
  -4  -8  -4   70.42   11.12
  -4   8   4   64.12   13.04
   4  -8  -4   73.53   14.38
   4  -8   5    3.51    5.59
  -4  -8   5   -2.11    4.22
   4  -8   5   -1.28    3.55
  -4  -8  -5    1.13    4.68
   4  -8  -5    1.45    3.21
  -4   8   5   -2.06    5.65
   4  -8  -5    3.46    2.46
  -4  -8   6   72.51   13.57
   4  -8   6   67.51   12.93
   4  -8   6   71.55   13.37
  -4  -8  -6   62.98   13.14
   4  -8  -6   50.30   12.22
  -4   8   6   37.46    9.70
   4  -8  -6   48.29   10.63
   4   8   6   48.77    9.97
  -4  -8   7  166.95   20.37
   4  -8   7  113.80   16.76
   4  -8   7  133.09   18.25
   4  -8  -7  171.32   21.23
  -4  -8  -7  163.22   20.62
   4  -8  -7  120.68   17.17
  -4   8   7  131.25   19.47
   4   8   7  190.22   19.76
  -4  -8   8  120.02   18.11
   4  -8   8  104.82   16.17
   4  -8   8  113.30   16.98
   4  -8  -8  116.77   17.72
  -4  -8  -8  116.62   17.71
   4  -8  -8  120.28   17.23
  -4   8   8  117.13   18.67
   4   8   8  109.73   15.54
   4  -8  -9   20.00    5.96
  -4  -8   9   28.29    8.62
   4  -8   9   22.46    6.41
   4  -8  -9   34.45    9.85
  -4   8   9   21.14    9.78
   4  -8   9   28.60    8.94
   4   8   9    7.37    3.99
  -4  -8  -9   30.60   10.24
  -4  -8  10    7.09    4.90
   4  -8  10   11.01    5.76
  -4  -8 -10   10.62    5.51
   4  -8 -10    4.10    3.72
  -4   8  10    2.20    5.13
   4  -8 -10   11.72    7.56
   4  -8  10    1.21    3.14
   4   8  10    4.03    3.22
  -4  -8 -11   25.26    7.73
  -4  -8  11   20.05    8.18
   4  -8  11   31.29    9.29
   4  -8  11   19.71    7.03
   4  -8 -11   32.66    9.43
  -4   8  11   33.45   10.18
   4   8  11   24.55    7.85
  -4  -8  12   11.36    7.23
   4  -8  12   13.47    7.77
   4  -8  12    9.88    4.61
  -4  -8 -12    6.74    5.15
  -4   8  12   21.00    9.41
   4  -8 -12   22.18    8.37
   4   8  12   11.26    3.53
   4  -8  13    5.33    5.46
  -4  -8  13   17.02    5.87
   4  -8 -13   11.96    5.83
   4  -8  13   14.36    6.22
  -4  -8 -13   12.28    5.20
  -4   8  13   11.91    7.27
   4   8  13   19.09    7.86
  -4  -8 -14    1.13    1.65
  -4   8  14   10.01    6.30
   4  -8  14    3.28    2.62
  -4  -8  14   14.63    7.14
   4  -8 -14    9.02    7.66
   4  -8  14    8.09    5.88
  -4   8  14   12.85    7.10
   4   8  14    4.41    3.57
   4  -8  15   30.47    9.13
  -4  -8  15   24.91    8.23
   4  -8  15   21.43    7.85
  -4  -8 -15    7.13    6.87
  -4   8  15   27.46    8.99
   4  -8 -15   37.17   11.17
  -4   8  15   21.94    8.65
   4   8  15   28.82   10.43
   4  -8  16   12.21    6.79
  -4  -8  16    3.72    5.44
  -4  -8 -16    6.56    5.10
   4  -8  16   17.47    8.18
   4  -8 -16    9.29    3.84
  -4   8  16   18.84    6.93
  -4   8  16   10.98    5.87
   4   8  16   11.11    6.70
   4  -8  17   56.52   12.64
   4  -8 -17   68.43   13.90
  -4   8  17   75.13   15.75
  -4  -8 -17   44.19   11.72
   4  -8  17   73.60   15.57
  -4   8  17   69.74   14.91
   4   8  17   72.33   15.26
  -4  -8  17   75.31   15.23
   4   8  18   13.53    8.03
   4  -8  18    9.15    5.41
  -4  -8  18   18.97    8.00
   4  -8  18   16.69    8.64
  -4  -8 -18   10.78    5.86
  -4   8  18    6.75    7.01
   4  -8 -18    7.57    5.05
  -4   8  18    4.86    5.63
   4   8  19   19.88    7.70
  -4  -8  19   23.24    9.50
   4  -8  19   19.79    7.21
   4  -8 -19   11.45    4.83
  -4  -8 -19   14.56    7.24
  -4   8  19   37.58   11.46
  -4   8  19   19.13    7.47
   4   8  20    0.40    4.47
  -4  -8 -20    8.02    6.95
  -4   8  20    1.07    1.69
   4  -8 -20   -0.35    3.61
  -4  -8  20   -7.51    5.06
  -4   8  20    6.00    7.36
  -4  -8  20   -0.37    2.88
   4  -8  20    2.46    7.27
  -4  -8 -21   88.87   18.07
   4  -8  21   51.22   16.82
  -4   8  21   60.37   13.04
   4   8  21   95.85   18.08
  -4  -8  21   16.05   10.70
  -4   8  21   65.23   14.29
   4  -8 -21   71.43   16.18
   4  -8  21   62.45   14.26
   4   8  22    3.15    4.28
  -4  -8 -22   -0.81    0.92
  -4   8  22    4.58    2.63
   4  -8 -22    2.40    2.89
  -4  -8  22   -0.64    4.58
  -4   8  22   -1.07    3.10
   4  -8  22    7.35    6.01
   4  -8  22    9.59    7.58
   4   8  23    5.57    1.67
  -4  -8 -23   14.34    7.95
  -4   8  23   14.41    7.68
   4  -8 -23   28.00    8.49
  -4  -8  23   10.72    9.60
  -4   8  23   13.92    6.03
   4  -8  23   17.56    8.48
   4  -8  23   11.39    7.47
   4   8  24   11.25    7.23
  -4  -8 -24   14.28    6.53
  -4   8  24   12.35    4.78
   4  -8 -24    6.14    3.93
  -4  -8  24    3.91    8.98
   4  -8  24    4.86    4.07
  -4   8  24   12.23    7.93
   4  -8  24    2.95    2.58
   4   8  25   51.78   15.38
  -4  -8 -25   40.52   11.74
  -4   8  25   52.84   14.83
   4  -8 -25   35.67   12.34
  -4  -8  25  -10.58    8.97
   4  -8  25   45.12   13.34
  -4   8  25   50.15   15.70
   4  -8  25   48.92   13.53
   4   8  26    0.36    4.55
  -4  -8 -26   -4.21    5.71
   4  -8 -26    1.91    5.96
  -4   8  26   -2.08    3.64
   4  -8  26    0.54    2.41
  -4  -8  26   -5.80    4.84
  -4   8  26   -5.61    2.23
   4  -8  26    0.20    2.66
  -4  -9   0  517.02   38.39
   4  -9   0  443.29   33.55
   4  -9   0  565.27   38.81
  -4  -9   1  208.24   24.70
  -4  -9  -1  222.23   24.80
   4  -9   1  178.69   21.38
   4  -9  -1  199.09   22.99
   4  -9   1  174.26   21.38
   4  -9  -1  194.05   23.13
  -4  -9  -1  213.04   21.29
  -4  -9   2  214.92   24.46
   4  -9   2  180.67   22.16
  -4  -9  -2  201.00   23.84
   4  -9  -2  211.98   23.51
   4  -9   2  184.10   22.77
   4  -9  -2  213.14   23.98
  -4  -9  -2  160.56   18.34
  -4  -9  -3  335.04   27.09
  -4  -9   3  353.42   31.45
   4  -9   3  331.52   29.04
  -4  -9  -3  344.75   30.41
   4  -9  -3  334.99   28.86
   4  -9   3  382.87   32.57
  -4   9   3  308.30   28.98
   4  -9  -3  395.48   32.71
  -4  -9   4  429.97   33.79
   4  -9   4  357.31   31.01
  -4  -9  -4  321.03   30.21
  -4  -9  -4  361.02   27.88
   4  -9  -4  441.34   33.28
   4  -9   4  341.98   29.88
  -4   9   4  402.59   33.56
   4  -9  -4  412.91   33.52
   4  -9   5    1.96    3.85
  -4  -9   5    2.95    4.62
   4  -9   5    7.78    5.68
  -4  -9  -5   -0.83    3.11
   4  -9  -5    0.13    3.86
  -4   9   5   -0.50    3.97
  -4  -9  -5    3.92    3.41
   4  -9  -5    0.33    4.32
  -4  -9   6  171.92   22.59
  -4   9   6  130.27   20.07
   4  -9   6  155.78   19.98
   4  -9   6  151.21   20.59
  -4  -9  -6  159.52   21.06
   4  -9  -6  134.18   19.06
   4  -9  -6  160.40   21.83
  -4  -9   7  521.40   39.52
   4  -9   7  495.04   36.42
   4  -9  -7  467.65   36.17
   4  -9   7  507.61   37.81
  -4  -9  -7  492.27   37.51
   4  -9  -7  485.55   36.15
  -4   9   7  430.30   36.36
   4  -9   8   67.81   13.76
  -4  -9   8   56.97   13.05
   4  -9   8   58.12   12.34
  -4   9   8   46.84   12.40
  -4  -9  -8   57.68   12.76
   4  -9  -8   51.62   11.12
   4  -9  -8   60.72   12.55
   4   9   8   58.17   11.51
  -4  -9   9   71.99   15.09
   4  -9   9   70.20   14.08
  -4   9   9   62.35   14.40
   4  -9  -9   57.05   12.94
  -4  -9  -9   44.36   10.73
   4  -9  -9   67.05   12.73
   4  -9   9   48.08   12.26
   4   9   9   54.59   12.41
   4  -9 -10    4.49    5.06
  -4  -9  10   11.84    5.14
   4  -9  10    5.89    1.33
  -4  -9 -10    6.69    3.70
   4  -9  10    9.55    6.21
   4  -9 -10   11.62    5.76
  -4   9  10    5.95    3.92
   4   9  10    9.35    6.52
  -4  -9  11   94.49   17.29
   4  -9  11   68.75   14.89
  -4  -9 -11   73.28   14.67
   4  -9 -11   65.39   14.21
   4  -9 -11   57.49   13.49
  -4   9  11   90.34   16.55
   4   9  11   93.05   15.66
   4  -9  11   65.82   14.90
  -4  -9  12    5.99    2.68
   4  -9 -12    3.19    1.63
   4  -9  12    3.69    4.04
   4  -9  12    3.56    1.28
  -4  -9 -12   10.30    7.25
   4  -9 -12    6.18    4.56
  -4   9  12   -2.09    3.00
   4   9  12    4.76    5.60
   4  -9  13    7.90    2.30
  -4  -9  13   10.71    5.80
   4  -9  13   -0.90    3.97
  -4  -9 -13   15.64    7.20
   4  -9 -13   14.18    7.39
  -4   9  13    9.79    6.14
   4   9  13   20.94    8.94
   4  -9  14   46.97   12.48
   4  -9  14   60.65   13.77
  -4   9  14   52.80   13.39
  -4  -9 -14   37.92   11.33
   4  -9 -14   58.06   13.84
   4   9  14   62.37   13.57
  -4  -9  14   71.35   14.79
  -4  -9 -15   84.75   15.94
   4  -9 -15   94.50   16.48
   4  -9  15   97.05   17.38
   4   9  15   94.65   16.41
  -4   9  15  106.30   18.35
   4  -9  15   90.93   17.02
  -4  -9  15   78.18   15.63
   4  -9  16    5.91    6.19
  -4  -9  16    3.51    3.24
   4  -9  16   12.34    8.03
  -4  -9 -16    2.14    4.87
   4  -9 -16   -1.14    4.76
  -4   9  16    7.11    2.32
   4   9  16    1.97    0.82
  -4  -9 -17   96.38   18.18
   4  -9 -17  103.59   18.61
   4  -9  17   90.15   16.73
  -4   9  17   69.55   15.30
  -4   9  17  111.18   19.26
   4   9  17   94.31   16.86
   4  -9  17  100.47   17.91
  -4  -9  17  113.62   19.52
   4  -9  18   44.71   11.30
  -4  -9  18   29.09   11.53
   4  -9  18   36.69   10.78
  -4  -9 -18   47.28   11.54
   4  -9 -18   53.82   13.98
  -4   9  18   53.21   13.26
  -4   9  18   30.23    7.83
   4   9  18   29.47    9.58
   4  -9  19   -2.30    3.56
  -4  -9  19   -1.62    1.47
   4  -9  19    1.16    3.68
   4  -9 -19   -2.79    0.70
  -4  -9 -19    1.46    4.90
  -4   9  19    1.78    3.06
  -4   9  19    0.85    4.09
   4   9  19    2.93    2.73
   4  -9  20    0.61    3.55
  -4  -9  20    0.12    2.00
  -4  -9 -20    6.88    4.59
   4  -9 -20   -0.10    3.56
  -4   9  20    4.46    2.06
  -4   9  20   -0.25    5.33
   4   9  20    8.02    3.87
  -4  -9 -21   32.76   10.93
   4  -9 -21   53.13   14.21
  -4   9  21   85.93   17.04
  -4   9  21   63.46   16.11
   4  -9  21   48.27   14.28
  -4  -9  21   59.22   14.36
   4   9  21   46.31   11.43
   4  -9  21   39.06   11.67
  -4  -9 -22   48.57   13.77
   4  -9 -22   55.70   12.97
  -4   9  22   29.03    8.81
  -4   9  22   22.95   11.15
   4  -9  22   52.80   13.25
   4  -9  22   49.34   12.78
   4   9  22   52.35   11.83
  -4  -9 -23   16.00    8.87
   4  -9 -23   -1.33    3.82
  -4   9  23   10.67    7.07
  -4   9  23    8.79    8.68
   4  -9  23    1.20    3.13
   4  -9  23    1.99    2.11
   4   9  23   -0.24    2.19
  -4  -9 -24    1.94    7.62
   4  -9 -24   12.38    9.34
  -4   9  24   12.24    7.12
  -4   9  24    8.08    8.09
   4  -9  24   13.66    7.85
   4  -9  24    0.25    3.85
   4   9  24   10.77    2.15
  -4  -9 -25   -0.09    3.89
   4  -9 -25    3.50    1.60
  -4   9  25   -0.48    3.68
   4  -9  25    5.73    5.48
  -4   9  25    6.75    5.77
   4   9  25    8.70    7.02
  -4 -10   0   39.32   10.60
   4 -10   0   45.45   10.53
   4 -10   0   23.81    7.72
  -4 -10   1   15.91    6.96
  -4 -10  -1   10.10    7.42
   4 -10   1    1.68    2.76
   4 -10  -1   15.32    8.34
   4 -10   1   16.17    7.72
   4 -10  -1    7.69    5.76
   4 -10  -2   17.11    6.43
   4 -10   2   19.47    7.04
  -4 -10   2   11.52    8.02
   4 -10   2    1.47    3.23
  -4 -10  -2   16.56    5.30
   4 -10  -2    8.04    3.84
   4 -10  -3    2.83    4.97
  -4 -10   3   -3.00    6.78
   4 -10   3    0.85    2.26
  -4 -10  -3   -0.34    1.50
   4 -10   3   -3.10    6.36
   4 -10  -3    2.85    3.28
   4 -10   4    0.02    3.28
  -4 -10   4   -0.90    1.26
   4 -10   4    5.65    5.76
   4 -10  -4    7.27    1.60
  -4 -10  -4    4.27    5.44
   4 -10  -4    4.67    4.58
  -4  10   4    3.01    1.89
   4 -10   5    8.27    7.49
  -4 -10   5    0.82    5.14
   4 -10   5    4.26    4.78
  -4 -10  -5   -3.48    5.06
   4 -10  -5    1.54    5.59
  -4  10   5    4.89    6.20
   4 -10  -5   -1.65    3.24
  -4 -10  -5    7.45    5.56
  -4 -10   6  126.92   19.74
   4 -10   6  142.92   20.51
   4 -10   6  111.07   18.06
  -4 -10  -6  150.19   21.88
   4 -10  -6  154.46   20.81
  -4 -10  -6  151.45   19.43
  -4  10   6  104.54   18.02
   4 -10  -6  112.06   18.51
  -4 -10   7    3.11    4.94
   4 -10   7    5.93    3.53
  -4 -10  -7   -2.71    2.94
   4 -10  -7    5.46    4.93
  -4  10   7    7.98    4.49
   4 -10   7    2.39    1.80
   4 -10  -7    1.84    1.69
  -4 -10   8  126.61   20.01
   4 -10   8  109.46   18.71
   4 -10  -8  121.90   19.77
   4 -10   8  134.89   19.47
  -4 -10  -8  131.10   20.31
   4 -10  -8  152.69   22.35
  -4  10   8  198.95   25.62
  -4 -10   9   -1.74    3.34
   4 -10   9    2.10    4.52
  -4 -10  -9    5.02    6.88
   4 -10  -9    1.28    3.07
  -4  10   9    2.25    5.87
   4 -10  -9    0.39    3.07
   4 -10   9    3.36    3.64
  -4 -10  10    1.88    1.24
   4 -10  10    1.59    3.42
  -4 -10 -10    6.59    5.88
   4 -10 -10    2.77    5.10
  -4  10  10   -3.27    3.88
   4 -10  10   -2.69    2.66
   4  10  10    0.50    1.88
   4 -10 -10    0.20    2.72
  -4 -10  11   95.70   17.80
   4 -10  11  118.46   19.89
  -4 -10 -11  113.56   17.89
   4 -10 -11   87.50   16.84
   4 -10 -11  107.25   18.56
  -4  10  11   68.57   17.34
   4  10  11   60.80   12.65
   4 -10  11   68.24   14.72
  -4 -10  12   17.54    9.32
   4 -10  12   11.01    2.64
   4 -10  12   19.08    7.64
  -4 -10 -12   10.94    7.35
   4 -10 -12   11.34    3.20
  -4  10  12   16.44    7.89
   4  10  12    6.44    4.84
  -4 -10  13    4.92    6.76
   4 -10  13   -0.02    5.56
   4 -10 -13    4.15    1.81
   4 -10  13    7.49    3.62
  -4 -10 -13    1.71    1.06
  -4  10  13    9.89    7.00
   4 -10 -13    2.64    2.40
   4  10  13    0.17    3.26
   4 -10 -14    1.46    2.47
   4 -10  14   -4.30    7.18
  -4 -10  14    6.53    3.66
   4 -10  14    6.13    3.35
  -4 -10 -14    7.61    3.33
   4 -10 -14    4.88    2.77
   4  10  14    8.18    4.91
  -4  10  14   14.19    6.36
   4 -10  15   -1.81    6.13
  -4 -10  15   -3.41    6.16
   4 -10  15   -3.42    5.30
  -4 -10 -15   11.41    8.53
  -4  10  15   -3.04    5.41
   4 -10 -15   -8.86    5.82
   4  10  15   -3.72    5.13
   4 -10 -16    0.12    1.83
   4 -10  16   15.71    7.54
  -4 -10  16   13.20    8.08
   4 -10  16   14.24    4.53
  -4 -10 -16   22.02   10.68
  -4  10  16   16.81    9.08
   4  10  16   10.49    4.13
   4 -10  17   -2.80    4.69
  -4 -10  17    3.95    2.54
   4 -10  17    3.85    5.06
  -4 -10 -17    7.28    1.39
   4 -10 -17    8.63    8.48
  -4  10  17    5.83    6.99
   4  10  17    5.07    7.60
   4 -10  18   29.11   10.94
  -4 -10  18   24.18    8.53
   4 -10  18   23.47   10.30
  -4 -10 -18   27.94   10.71
   4 -10 -18   26.03    8.92
  -4  10  18    9.74    3.94
   4  10  18   33.78   10.48
  -4 -10 -19    1.01    5.67
   4 -10  19   14.90    8.86
  -4 -10  19    5.92    4.62
   4 -10  19   10.43    5.56
   4 -10 -19   11.81    5.00
  -4  10  19   15.21    9.48
   4  10  19    5.27    2.62
   4 -10  20    9.13    6.13
  -4 -10  20   11.08    7.73
   4 -10  20    5.31    5.81
  -4  10  20   15.09    5.98
  -4 -10 -20   13.14    8.97
  -4  10  20   15.63    7.79
   4  10  20    6.57    5.47
   4 -10  21   -2.20    5.17
  -4 -10  21   -3.68    2.16
  -4 -10 -21   -5.77    2.13
   4 -10 -21   14.01    6.51
  -4  10  21   -9.01    9.00
  -4  10  21    5.86    4.99
   4  10  21   11.83    9.98
   4 -10  21   -6.53    6.77
   4 -10 -22   45.66   13.30
  -4 -10 -22   33.48   10.95
  -4  10  22   43.10   11.45
  -4  10  22   37.31   12.32
   4  10  22   34.20   10.90
   4 -10  22   38.68   12.13
   4 -10  22   13.66   11.75
  -4 -10  22   35.60   11.04
  -4  10  23    2.21    3.85
  -4 -10 -23    3.74    2.80
   4 -10 -23   -0.23    4.60
  -4  10  23    1.11    5.01
   4 -10  23    2.37    3.43
   4  10  23    5.31    2.30
   4 -10  23   -3.80    4.57
  -4 -10 -24    8.68    5.09
   4 -10 -24    8.77    6.61
  -4  10  24   16.84    8.01
  -4  10  24   16.57    6.74
   4 -10  24   36.97   11.17
   4 -10  24    9.29    6.08
   4  10  24   11.05    6.17
  -4 -11   0  245.54   27.88
   4 -11   0  311.85   31.71
   4 -11   0  279.12   29.83
   4 -11   1   26.06    8.58
  -4 -11   1   28.04    8.99
  -4 -11  -1   43.24   12.58
   4 -11   1   16.11    6.21
   4 -11  -1   22.73    6.02
   4 -11  -1   27.57    9.01
  -4 -11   2   17.93    8.33
   4 -11   2    4.74    5.02
  -4 -11  -2   12.24    6.69
   4 -11  -2    6.63    6.13
   4 -11  -2    8.80    5.87
   4 -11  -3   44.50   11.73
  -4 -11   3   42.71   12.86
   4 -11   3   36.66   10.78
   4 -11   3   45.91   12.13
  -4 -11  -3   33.24   10.22
   4 -11  -3   52.31   13.11
  -4 -11   4  270.58   29.94
   4 -11   4  319.63   32.51
  -4 -11  -4  299.51   31.79
   4 -11  -4  304.09   30.57
   4 -11   4  310.39   30.55
   4 -11  -4  321.22   32.22
   4 -11   5   53.72   12.08
  -4 -11   5   52.57   14.47
   4 -11   5   38.11   10.85
  -4 -11  -5   47.21   12.40
   4 -11  -5   57.48   14.07
   4 -11  -5   48.25   12.97
  -4 -11   6  233.25   28.14
   4 -11   6  170.34   23.52
   4 -11   6  200.02   24.21
  -4 -11  -6  226.75   27.81
   4 -11  -6  212.20   25.63
  -4  11   6  232.72   27.40
   4 -11  -6  194.16   25.10
  -4 -11   7    9.91    6.45
   4 -11   7   -5.31    6.96
  -4 -11  -7    9.78    3.01
   4 -11  -7   10.99    7.93
  -4  11   7    7.18    3.05
   4 -11  -7    7.03    3.70
   4 -11   7    5.33    3.05
  -4 -11   8    4.17    7.04
   4 -11   8    8.31    5.41
  -4 -11  -8   -2.78    4.10
  -4 -11  -8    9.19    7.09
   4 -11  -8   -4.80    8.27
  -4  11   8    3.14    3.42
   4 -11   8    7.81    6.97
   4 -11  -8    4.07    6.27
   4 -11  -9    7.98    2.11
  -4 -11   9    5.85    1.97
   4 -11   9   18.96    9.95
  -4 -11  -9   18.71    6.66
   4 -11  -9   15.46    6.31
  -4  11   9   26.00   10.64
   4 -11   9   16.43    7.36
  -4 -11  10  146.70   22.77
   4 -11  10  179.67   24.02
   4 -11 -10  186.83   24.71
  -4 -11 -10  182.28   25.13
   4 -11 -10  167.50   23.00
  -4  11  10  146.27   23.60
   4 -11  10  135.60   21.26
  -4 -11  11   -2.19    3.55
  -4  11  11   -0.47    5.50
   4 -11  11    2.82    3.04
  -4 -11 -11    2.30    3.51
   4 -11 -11   -0.09    3.51
   4 -11  11   -0.58    2.96
   4 -11 -11    0.68    3.92
   4 -11 -12   17.39    7.07
  -4 -11  12   18.11    9.91
   4 -11  12   14.35    7.46
  -4 -11 -12   22.95   11.38
   4 -11 -12   27.97   11.12
   4 -11  12   26.99    7.98
  -4  11  12   34.95   11.38
   4  11  12   19.63   10.12
  -4 -11  13    9.92    6.57
   4 -11  13    0.75    4.58
   4 -11 -13    4.44    2.38
   4 -11  13   17.11    8.19
  -4 -11 -13   15.37    6.81
   4 -11 -13   11.41    6.92
  -4  11  13    8.73    2.10
   4  11  13    5.30    6.29
   4 -11  14   68.31   15.00
  -4 -11 -14   82.40   17.94
   4 -11 -14   84.46   17.01
   4 -11 -14   72.06   15.60
  -4  11  14   92.63   19.68
   4 -11  14   84.28   16.91
   4  11  14   87.23   16.15
  -4 -11  14   67.30   16.20
   4 -11 -15   -4.29    5.52
   4 -11  15    3.25    3.54
  -4 -11  15   -0.12    2.31
   4 -11  15    6.06    3.52
  -4 -11 -15    3.26    4.20
  -4  11  15    8.62    9.34
   4 -11 -15   -1.73    3.56
   4  11  15   -2.87    6.92
   4 -11  16   -1.61    4.84
  -4 -11  16    4.29    6.91
   4 -11  16    3.67    6.60
   4 -11 -16    5.00    6.60
   4 -11 -16    5.66    3.63
  -4  11  16    3.51    3.16
  -4 -11 -16    4.63    5.81
   4  11  16   -1.40    2.53
   4 -11  17   -3.14    4.86
  -4 -11  17    4.11    4.55
   4 -11  17   -0.20    4.09
   4 -11 -17   -4.52    7.24
  -4  11  17   -0.34    5.46
  -4 -11 -17   -0.89    4.34
   4  11  17    1.84    2.60
   4 -11  18    4.11    4.24
  -4 -11  18   11.48    7.94
   4 -11 -18   24.10    8.87
   4 -11  18   17.22    9.14
  -4 -11 -18   19.10   10.65
  -4  11  18   21.42    9.41
   4  11  18   16.61    8.60
   4 -11  19    8.02    7.11
  -4 -11  19   14.05    9.16
   4 -11  19    3.65    5.85
   4 -11 -19    8.45    6.38
  -4 -11 -19    1.07    0.90
  -4  11  19    9.62    8.19
   4  11  19   -0.48    5.69
   4 -11  20    9.65    1.50
  -4 -11  20    6.25    6.61
   4 -11  20    9.76    6.07
  -4  11  20    2.50    3.91
   4 -11 -20   -3.77    8.38
  -4 -11 -20    9.71    7.02
   4 -11  20    3.08    5.42
  -4 -11  21   15.09    9.24
   4 -11  21   -3.05    2.67
  -4 -11 -21    1.35    5.43
   4 -11 -21    3.70    1.69
  -4  11  21    2.97    5.15
   4  11  21    7.74    4.70
   4 -11  21    1.97    1.77
   4 -11  21    8.98    8.47
  -4 -11  22    4.25    5.28
  -4 -11 -22    8.53    6.76
   4 -11 -22   19.67   10.08
  -4  11  22    3.56    7.99
   4  11  22    3.34    3.08
   4 -11  22   -5.26    5.98
   4 -11  22    9.86    7.37
  -4 -12   0   19.31    8.33
   4 -12   0   37.80   11.73
   4 -12   0   37.35   11.70
  -4 -12   1   -1.55    4.26
  -4 -12  -1    1.22    2.65
   4 -12   1    3.08    6.16
   4 -12  -1   12.47    5.92
   4 -12   1   -3.56    4.89
   4 -12  -1    1.14    4.55
  -4 -12   2    2.12    1.46
   4 -12   2    7.04    5.58
  -4 -12  -2    0.68    3.35
   4 -12  -2   -0.72    0.97
   4 -12   2   13.04    7.22
   4 -12  -2    7.06    4.96
  -4 -12   3   62.70   15.09
   4 -12   3   45.72   12.68
   4 -12   3   28.75   10.13
  -4 -12  -3   44.42   13.18
   4 -12  -3   41.63   11.68
   4 -12  -3   29.77   10.31
   4 -12  -4    8.13    6.99
   4 -12   4   -3.68    4.16
  -4 -12   4   11.36    7.48
   4 -12   4    2.06    5.67
  -4 -12  -4    1.01    4.94
   4 -12  -4    0.56    3.90
   4 -12   5   -2.17    2.96
   4 -12  -5   -5.30    4.84
  -4 -12   5   -2.89    5.41
   4 -12   5    2.25    2.95
  -4 -12  -5   -1.52    4.67
   4 -12  -5   -1.75    3.63
  -4 -12   6   41.33   12.94
   4 -12   6   17.82    8.34
   4 -12  -6   18.38    6.98
  -4 -12  -6   24.75    9.75
   4 -12  -6   34.51    9.02
   4 -12   6   14.08    6.24
  -4 -12   7    6.83    4.18
   4 -12   7   12.86    7.33
  -4 -12  -7    4.33    0.66
   4 -12  -7   19.83   10.03
  -4  12   7    9.33    6.04
   4 -12  -7   26.78   11.49
   4 -12   7    2.10    2.86
  -4 -12   8    9.40    7.59
   4 -12   8    4.90    0.92
  -4 -12  -8    4.31    3.58
   4 -12  -8   21.57   10.46
  -4  12   8   11.06    3.84
   4 -12  -8   12.53    6.16
   4 -12   8    7.94    4.04
  -4 -12   9   -2.32    6.82
   4 -12   9   22.89   10.68
  -4 -12  -9   16.13    7.66
   4 -12  -9    5.26    6.32
  -4  12   9   20.00    7.94
   4 -12   9   16.26    8.32
   4 -12  -9    9.93    4.53
   4 -12 -10   13.87    7.75
  -4 -12  10   18.60    8.81
   4 -12  10   10.94    6.59
  -4 -12 -10   17.32    8.15
   4 -12 -10    5.47    3.27
  -4  12  10    6.11    6.37
   4 -12  10    9.55    5.76
  -4 -12  11   23.56    9.27
   4 -12  11   15.70    7.65
   4 -12 -11   14.82    7.81
  -4 -12 -11   11.58    2.91
   4 -12 -11   36.38   13.62
  -4  12  11   13.69    7.76
   4 -12  11   32.46   11.08
  -4 -12  12    3.59    3.97
   4 -12  12    2.43    4.68
  -4  12  12    1.48    0.33
  -4 -12 -12   -2.69    6.70
   4 -12  12   -3.05    2.62
   4 -12 -12   -1.87    5.05
   4 -12 -12    7.73    6.85
  -4 -12  13   10.56    9.87
   4 -12  13   13.23    8.59
   4 -12  13    8.79    6.48
  -4 -12 -13   -4.31    7.85
   4 -12 -13    9.69    5.37
   4 -12 -13    7.82    6.23
  -4 -12  14   16.60    7.34
   4 -12  14   21.36    9.73
   4 -12  14   15.03    8.86
  -4 -12 -14   21.80    9.79
   4 -12 -14   19.96    9.56
  -4  12  14   22.09    9.88
   4 -12 -14   29.10   11.19
   4 -12  15    0.26    1.48
  -4 -12  15    1.01    1.91
   4 -12 -15   -0.03    2.94
   4 -12  15    1.05    2.82
  -4 -12 -15   -6.20    7.42
   4  12  15    0.76    1.19
  -4  12  15   12.22    8.64
   4 -12 -15   -3.78    7.13
   4 -12  16   13.03    6.86
  -4 -12  16    1.58    5.08
   4 -12  16   -0.83    3.53
  -4 -12 -16    7.56    3.86
  -4  12  16   -4.99    5.75
   4 -12 -16    4.60    5.45
   4 -12 -16   -0.75    2.35
   4  12  16    6.98    5.26
   4 -12  17    2.72    5.20
  -4 -12  17    0.88    4.79
   4 -12  17   -3.47    5.59
  -4 -12 -17   -2.09   11.93
   4 -12 -17    7.13    6.69
  -4  12  17   -6.34    7.32
   4  12  17   -0.63    5.08
   4 -12 -17    8.67    5.66
   4 -12  18    4.22    7.56
  -4 -12  18   12.68    5.73
   4 -12  18   11.18    7.32
   4 -12 -18   10.39    7.82
  -4  12  18   10.22    7.86
   4 -12 -18    8.08    4.65
  -4 -12 -18   17.36    7.46
   4  12  18   15.99    8.94
   4 -12  19    4.51    7.00
  -4 -12  19    4.18    5.27
   4 -12  19   11.09    8.47
   4 -12 -19   13.75    7.40
  -4  12  19   15.88    9.99
   4 -12 -19   10.34    7.68
  -4 -12 -19   15.38    9.64
   4  12  19    5.78    6.56
   4 -12  20    9.70    6.91
  -4 -12  20    7.33    6.28
   4 -12  20    5.93    6.83
   4 -12 -20   16.22    9.09
  -4 -12 -20    9.59    8.33
   4 -12 -20    4.28    2.26
   4  12  20    3.47    5.90
   4 -12  20    6.68    6.43
  -4 -13   0   17.66    7.08
   4 -13   0   24.99    9.91
   4 -13   0   27.76   10.79
  -4 -13   1   25.84    8.67
  -4 -13  -1   19.96   10.76
   4 -13   1   46.17   13.68
   4 -13  -1   35.18   10.42
   4 -13   1   20.16    8.76
   4 -13  -1   46.28   11.16
  -4 -13   2    6.95    7.43
   4 -13   2    1.97    3.29
  -4 -13  -2    6.56    4.49
   4 -13   2    0.82    2.86
   4 -13  -2    7.84    3.45
   4 -13  -2   -3.48    4.03
  -4 -13   3  128.80   22.88
   4 -13   3  109.81   20.14
  -4 -13  -3   91.87   18.44
   4 -13  -3  123.66   20.87
   4 -13   3  124.08   20.32
   4 -13  -3  120.81   20.97
   4 -13   4    4.44    0.56
  -4 -13   4   -2.13    4.04
   4 -13   4   -2.19    4.18
  -4 -13  -4    4.32    0.31
   4 -13  -4    6.43    4.75
   4 -13  -4    5.98    6.60
   4 -13   5    3.80    5.62
   4 -13  -5    5.43    3.74
  -4 -13   5    3.50    0.87
   4 -13   5   11.21    8.07
  -4 -13  -5   12.68    7.72
   4 -13  -5    1.02    2.82
   4 -13  -6    2.86    1.89
  -4 -13   6    6.57    5.77
   4 -13   6   11.83    6.13
  -4 -13  -6    1.63    1.29
   4 -13  -6    2.89    2.36
   4 -13   6    1.94    6.77
  -4 -13   7   47.27   12.97
   4 -13   7   65.47   15.22
   4 -13  -7   39.71   11.78
  -4 -13  -7   47.97   13.70
   4 -13  -7   40.35   11.72
   4 -13   7   41.13   11.36
  -4 -13   8   32.81    9.47
   4 -13   8   60.99   14.20
  -4 -13  -8   39.89   11.90
   4 -13  -8   40.94   12.51
   4 -13  -8   51.69   15.67
   4 -13   8   39.92   12.50
  -4 -13   9   11.12    7.91
   4 -13   9   12.05    3.26
  -4 -13  -9   15.61    9.22
   4 -13  -9    9.43    1.87
  -4  13   9   -7.26    3.33
   4 -13  -9   12.19    8.14
   4 -13   9    4.60    0.57
  -4 -13  10   -6.21    7.22
   4 -13  10    2.30    6.05
  -4 -13 -10   -3.47    1.73
   4 -13 -10    6.95    7.10
   4 -13  10    9.70    6.80
   4 -13 -10   -5.30    7.44
  -4 -13  11    4.19    3.63
   4 -13  11   -1.83    4.31
  -4 -13 -11   12.73    8.78
   4 -13 -11   -1.27    3.03
   4 -13  11   -5.72    8.22
   4 -13 -11   -1.85    4.73
   4 -13 -12   26.68    8.41
  -4 -13  12   62.74   15.99
   4 -13  12   53.70   14.49
  -4 -13 -12   33.38   12.67
   4 -13 -12   64.95   16.67
   4 -13  12   33.68   11.11
  -4 -13  13    8.02    6.65
   4 -13  13    8.56    7.13
   4 -13 -13   10.04    5.33
  -4 -13 -13   17.25    6.93
   4 -13  13    6.50    6.29
   4 -13 -13   18.22    9.26
  -4 -13  14    1.30    2.83
   4 -13  14    0.98    2.87
   4 -13 -14    5.15    7.58
   4 -13  14   -4.72    5.51
   4 -13 -14   -2.96    1.52
  -4 -13 -14    6.47    4.98
   4 -13  15   35.18   12.41
  -4 -13  15   43.42   13.68
   4 -13  15   38.81   12.23
  -4 -13 -15   34.57   12.40
   4 -13 -15   12.40    7.89
   4 -13 -15   16.43    7.89
   4 -13  16    9.17    7.13
  -4 -13  16   12.21    5.76
   4 -13  16   19.23   10.12
  -4 -13 -16   13.44    4.50
   4 -13 -16   10.56    8.16
   4 -13 -16   12.85    7.61
   4 -13 -17    8.12    1.87
   4 -13  17   21.61   10.59
  -4 -13  17   13.55    9.35
   4 -13  17    4.04    1.18
  -4 -13 -17    1.43   13.97
   4 -13 -17   10.41    7.34
  -4 -14   0   48.44   14.01
   4 -14   0   64.48   16.92
   4 -14   0   60.44   14.70
  -4 -14   1   10.15    7.59
  -4 -14  -1   10.72    2.64
   4 -14   1   17.47   10.52
   4 -14  -1   11.34    4.72
   4 -14   1    4.52    2.86
   4 -14  -1    8.11    6.19
  -4 -14   2    6.96    6.68
   4 -14  -2    4.02    4.25
   4 -14   2   -0.05    3.15
   4 -14   2    0.84    2.02
  -4 -14  -2    3.00    7.55
   4 -14  -2   -1.04    4.53
   4 -14   3   14.94    8.55
  -4 -14   3    1.96    2.06
   4 -14   3    1.01    4.63
  -4 -14  -3    7.49    2.06
   4 -14  -3    1.41    4.59
   4 -14  -3    9.15    7.80
   4 -14   4    4.33    1.62
  -4 -14   4    0.71    1.92
   4 -14   4    7.10    2.25
  -4 -14  -4   -2.92    4.08
   4 -14  -4   -0.97    5.56
   4 -14  -4   -3.23    6.58
  -4 -14   5   -3.66    2.33
   4 -14   5    0.78    0.79
  -4 -14  -5   -0.77    5.00
   4 -14  -5   -4.92    5.44
   4 -14  -5   -2.79    5.41
   4 -14   5    1.96    4.63
   4 -14  -6   20.36    8.91
  -4 -14   6   34.81   10.95
   4 -14   6   29.01   10.82
  -4 -14  -6   22.34    7.91
   4 -14  -6    6.90    4.52
   4 -14   6   19.41    7.86
   4 -14  -7   11.77    4.57
  -4 -14   7    6.39    6.30
   4 -14   7   25.98   11.40
  -4 -14  -7   -2.77    5.78
   4 -14  -7   12.51    5.10
   4 -14   7   19.06    9.35
  -4 -14   8   15.02    9.47
   4 -14   8    0.94    7.65
   4 -14  -8    5.35    2.94
  -4 -14  -8   -1.03    2.20
   4 -14  -8    6.18    6.69
   4 -14   8   15.64    7.43
  -4 -14   9   15.49    8.73
   4 -14   9   -2.71    4.60
  -4 -14  -9    5.48    8.73
   4 -14  -9    5.44    4.92
   4 -14  -9    1.96    5.28
   4 -14   9   -1.70    5.69
  -4 -14  10   -2.74    6.12
   4 -14  10   15.26   10.04
  -4 -14 -10    0.63    1.96
   4 -14 -10    2.37    5.84
   4 -14 -10    4.55    6.67
   4 -14  10   -0.03    1.08
  -4 -14  11   -9.28    7.21
   4 -14  11   -0.35    2.19
   4 -14  11    3.86    7.32
  -4 -14 -11    1.32    7.07
   4 -14 -11    6.91    8.57
   4 -14 -11    3.80    5.04
  -4 -14  12    6.90    7.26
   4 -14  12   -1.50    5.32
  -4 -14 -12    1.51    4.17
   4 -14 -12    5.21    5.93
   4 -14  12   11.52    8.34
   4 -14 -12    5.38    4.36
  -4 -14  13   20.06    9.38
   4 -14  13   20.91    9.38
  -4 -14 -13   10.52    7.55
   4 -14  13   18.84    9.85
   4 -14 -13   44.02   15.66
   4 -14 -13   31.60   11.38
   4 -14 -14    0.70    1.82
  -4 -14  14   -1.38    3.07
   4 -14  14    0.15    4.93
   4 -14  14    6.73    8.38
  -4 -14 -14   -1.43    7.42
   4 -14 -14    4.57    6.48
  -4 -15   0   17.63    9.44
   4 -15   0   20.88    9.17
   4 -15   0   24.76   10.36
  -4 -15   1    1.43    6.73
  -4 -15  -1    1.36    2.23
   4 -15   1    6.30    2.65
   4 -15   1   12.95    7.90
   4 -15  -1    0.03    4.04
   4 -15  -1    2.77    6.28
   4 -15   2   13.14    7.77
  -4 -15   2    6.48    4.72
   4 -15   2    1.95    7.11
  -4 -15  -2   10.02    5.89
   4 -15  -2   -4.91    6.79
   4 -15  -2   -1.87    5.52
   4 -15   3   -5.71    7.05
  -4 -15   3   10.63    8.41
   4 -15   3   -2.54    4.55
  -4 -15  -3    1.77    8.46
   4 -15  -3   -3.32    5.93
   4 -15  -3   -4.79    6.67
   4 -15   4   44.07   12.65
  -4 -15   4   39.24   11.80
   4 -15   4   25.23   10.66
  -4 -15  -4   53.38   15.39
   4 -15  -4   26.60   10.54
   4 -15  -4   45.85   11.76
  -4 -15   5    0.84    5.42
   4 -15   5    0.35    2.15
  -4 -15  -5    0.54    2.02
   4 -15  -5   -5.18    6.91
   4 -15  -5    3.33    4.78
   4 -15   5   -0.42    1.23
  -4 -15   6   20.17   10.10
   4 -15   6   30.13   11.68
  -4 -15  -6   15.41    3.71
   4 -15  -6    9.08    7.65
   4 -15   6   25.42    9.79
   4 -15  -6   21.39    9.12
  -4 -15   7    0.73    5.20
   4 -15   7    2.80    7.19
  -4 -15  -7    5.20    6.30
   4 -15  -7   -0.91    5.68
   4 -15   7    2.51    2.90
   4 -15  -7    0.78    3.85
   4 -15  -8   22.71    9.95
  -4 -15   8   41.54   13.58
   4 -15   8   68.52   16.95
  -4 -15  -8   31.37   10.41
   4 -15  -8   48.50   13.93
   4 -15   8   46.17   13.31
  -4 -15   9    5.45    3.85
   4 -15   9    4.47    7.01
   4 -15  -9    8.87    7.20
  -4 -15  -9    6.18    2.72
   4 -15  -9   11.54    7.03
   4 -15   9    0.79    2.98
  -4 -15  10   -3.39    3.81
   4 -15  10   -3.21    5.26
   4 -15 -10    2.54    4.50
  -4 -15 -10   -5.99    5.32
   4 -15 -10    5.08    7.15
   4 -15  10    2.73    3.47
  -5   0   0   -1.16    2.76
   5   0   0    1.35    1.80
   5   0   1   -0.66    1.44
  -5   0  -1    1.28    1.68
  -5   0   1    3.99    2.70
   5   0  -1   -1.47    2.06
   5   0  -2  978.18   27.32
   5   0   2  906.32   29.63
   5   0   3    1.32    2.40
  -5   0   3   -0.11    0.73
   5   0  -3   -0.55    0.58
  -5   0   4 1587.95   52.68
   5   0  -4 1620.63   36.23
   5   0  -5   -0.34    0.83
  -5   0   5   -1.16    2.19
   5   0   5    2.24    2.54
   5   0  -6 1141.84   31.94
   5   0   6 1114.20   38.93
  -5   0   6 1122.95   44.62
  -5   0   7   -0.73    2.90
  -5   0  -7    0.80    0.69
  -5   0   7   -0.87    1.36
   5   0   7   -0.63    1.48
  -5   0   8  266.33   17.42
  -5   0   8  267.51   22.44
  -5   0   9   -1.83    1.66
   5   0   9    0.65    1.88
  -5   0   9    0.58    0.91
  -5   0  10  129.49   16.70
   5   0  10   89.13   12.63
  -5   0  10  124.52   13.15
  -5   0  11   -0.36    1.85
   5   0  11    1.96    3.29
  -5   0  11   -0.58    1.03
   5   0  12  482.84   31.70
  -5   0  12  486.34   32.78
  -5   0  12  486.47   28.08
  -5   0  13    3.29    2.66
   5   0  13   -1.99    0.46
  -5   0  13   -4.44    4.92
   5   0  14  130.62   17.40
  -5   0  14   78.99   13.10
  -5   0  14  109.86   14.25
  -5   0  15   -1.44    4.14
   5   0  15   -1.74    2.50
  -5   0  15    2.32    5.00
   5   0  16  636.42   41.30
  -5   0  16  570.22   38.76
  -5   0  16  582.79   35.98
  -5   0  17   -0.23    2.66
   5   0  17   -0.44    2.96
  -5   0  17   -3.20    1.65
   5   0  17    1.32    3.42
  -5   0  18   25.89    9.13
   5   0  18   24.31    9.13
  -5   0  18   44.80   12.26
   5   0  18   43.76   11.03
  -5   0  19   -0.48    2.29
   5   0  19    2.22    7.10
  -5   0  19   -2.88    4.04
   5   0  19    0.04    2.92
   5   0  20  110.73   18.82
  -5   0  20  104.44   17.32
  -5   0  20   97.28   16.78
   5   0  20  120.59   18.56
  -5   0  21    4.62    5.18
  -5   0  21    1.37    6.38
   5   0  21    0.41    2.53
   5   0  21    4.42    2.21
  -5   0  22   22.33    7.20
   5   0  22   26.86    9.88
  -5   0  22   16.24    5.29
   5   0  22   18.66    7.69
  -5   0  23    6.31    6.32
   5   0  23    2.07    4.61
  -5   0  23    1.54    2.70
   5   0  23    4.33    5.25
   5   0  24  219.88   27.24
  -5   0  24  219.85   28.12
   5   0  24  226.69   29.16
  -5   0  24  230.94   27.34
   5   0  25   -1.31    5.27
  -5   0  25    1.24    4.79
   5   0  25   -6.56    4.51
   5   0  26  108.76   19.43
  -5   0  26   78.26   17.21
   5   0  26   90.77   18.58
   5   0  27   -3.92    6.43
  -5   0  27   -1.04    4.37
   5   0  27   -0.11    3.13
   5   0  28   41.81   12.76
  -5   0  28   30.40   10.47
   5   0  28   37.77   12.32
   5   0  29   -6.31    7.97
  -5   0  29    1.31    1.80
   5   0  29    7.19    5.81
   5   0  30   45.28   12.46
  -5   0  30   63.56   17.19
   5   0  30   47.42   15.13
   5   1   0   -1.32    1.03
  -5  -1   0    1.30    1.09
  -5   1   0   -0.56    2.01
  -5  -1   0   -0.27    2.58
   5  -1   0    0.56    2.11
   5  -1   1  127.04   11.81
  -5   1   1  167.38   17.96
  -5  -1   1  127.73   14.45
   5  -1  -1  140.08   12.14
   5   1   1  131.29    9.36
   5  -1  -1  126.61    6.88
  -5  -1  -1  109.65   12.72
  -5   1  -1  109.29   13.29
   5   1  -1  131.70    7.60
  -5  -1  -1  121.95    7.08
  -5  -1  -2    4.27    0.98
   5   1  -2    4.88    1.35
   5  -1   2    8.87    3.74
  -5   1   2   11.87    5.33
  -5  -1   2    9.31    4.82
   5  -1  -2    5.41    1.72
   5   1   2    3.44    2.23
   5  -1  -3   14.08    4.02
  -5  -1  -3   12.57    2.31
   5   1  -3   10.83    2.22
   5  -1   3   13.29    3.84
  -5  -1   3   22.22    6.00
  -5   1   3   19.44    6.52
   5   1   3   14.65    3.88
  -5  -1  -4   15.38    2.55
   5  -1   4   10.13    4.09
   5  -1  -4   18.76    4.73
  -5   1   4   20.86    7.21
  -5  -1   4   21.89    5.22
   5   1  -4   11.10    2.35
   5   1   4   15.10    4.24
   5  -1   5    5.77    3.44
  -5  -1  -5    7.42    2.05
   5  -1  -5    8.05    3.24
  -5   1   5    9.69    3.36
  -5  -1   5    6.64    4.35
   5   1  -5    9.13    2.09
   5   1   5    5.77    2.68
   5   1   6  376.49   22.23
   5  -1  -6  307.11   18.97
  -5   1   6  317.05   23.93
  -5  -1   6  304.36   22.43
   5  -1   6  305.34   21.29
   5  -1   7   30.99    6.45
  -5  -1  -7   34.48    5.44
  -5   1   7   33.16    9.16
   5   1   7   31.39    6.25
  -5  -1   7   29.84    5.08
  -5  -1   7   45.01    8.73
   5  -1   8   17.92    4.75
  -5  -1  -8   24.17    5.05
  -5  -1   8   26.74    7.26
   5   1   8   13.17    4.20
  -5  -1   8   20.74    4.85
  -5   1   8   20.55    5.08
  -5   1   8   15.72    5.45
  -5   1   9   51.96    9.92
   5   1   9   62.32   10.27
   5  -1   9   63.28   11.11
  -5  -1  -9   46.49    7.22
  -5  -1   9   60.20   10.51
  -5  -1   9   50.99    7.16
   5   1  10  502.00   30.34
   5  -1  10  471.23   30.46
  -5   1  10  496.19   31.90
  -5  -1  10  503.91   31.70
  -5   1  10  487.81   27.02
  -5  -1  11   30.62    5.98
  -5  -1 -11   41.38    7.56
  -5  -1  11   38.03   10.38
   5   1  11   31.37    7.86
  -5   1  11   38.22    9.11
  -5   1  11   35.30    8.01
   5  -1  11   38.45    8.74
   5   1  12  243.40   22.48
   5  -1  12  195.34   20.41
  -5   1  12  172.22   19.61
  -5  -1  12  172.98   19.76
  -5   1  12  167.04   17.41
  -5  -1  12  173.36   16.34
   5   1  13  390.46   29.42
   5  -1  13  339.31   27.92
  -5   1  13  330.50   27.73
  -5  -1  13  286.21   25.74
  -5   1  13  298.91   23.43
  -5  -1  13  289.82   22.20
   5   1  14  136.66   17.95
   5  -1  14  110.98   16.36
  -5   1  14  119.54   17.24
  -5  -1  14  141.01   18.85
  -5   1  14  114.17   15.17
  -5  -1  14  138.11   15.57
  -5  -1  15    7.10    4.22
   5   1  15   12.58    6.10
  -5   1  15   14.17    7.36
  -5  -1  15   25.41    7.94
   5  -1  15   10.09    5.23
  -5   1  15    7.85    5.42
   5   1  16  126.92   19.59
   5  -1  16  142.18   18.91
  -5   1  16  132.83   18.16
  -5  -1  16  195.52   22.26
  -5   1  16  150.81   18.89
  -5  -1  16  113.82   15.40
   5   1  16  175.10   21.55
  -5   1  17   26.67    8.75
  -5  -1  17   19.59    6.17
   5   1  17   33.05    9.80
   5  -1  17   25.28    7.35
  -5   1  17   17.43    7.36
  -5  -1  17   16.24    6.77
   5   1  17   27.93   10.00
  -5   1  18   23.94    6.66
  -5  -1  18   21.99    7.76
   5   1  18   11.80    4.89
   5  -1  18   24.22    8.86
  -5   1  18    9.66    6.20
  -5  -1  18   18.58    6.81
   5   1  18   21.58    7.46
  -5   1  19   23.69    8.60
  -5  -1  19   10.10    4.13
   5   1  19   15.82    7.53
   5  -1  19   30.57    9.28
  -5   1  19   19.39    8.30
  -5  -1  19   16.96    8.43
   5   1  19    5.46    6.23
   5  -1  19    4.55    3.71
   5   1  20   64.25   14.35
   5  -1  20   79.59   15.69
  -5   1  20   88.88   16.80
  -5  -1  20   64.02   14.92
  -5   1  20   76.49   14.14
   5   1  20  106.81   17.40
   5  -1  20  105.51   17.60
  -5  -1  20   85.80   14.89
  -5   1  21   36.31    9.37
  -5  -1  21   44.84   11.07
   5   1  21   44.92   12.30
   5  -1  21   56.80   13.02
  -5   1  21   43.22   11.85
  -5  -1  21   51.99   12.89
   5   1  21   40.74   10.70
   5  -1  21   32.37   10.46
  -5   1  22    1.61    1.12
  -5  -1  22   14.08   10.45
   5   1  22    4.37    4.72
   5  -1  22    2.12    6.34
  -5   1  22    9.22    7.00
  -5  -1  22    5.83    4.82
   5   1  22   -3.83    6.07
   5  -1  22   -1.44    4.15
  -5   1  23   72.60   14.94
   5  -1  23   58.49   18.29
   5   1  23   68.79   14.73
  -5   1  23   91.23   17.72
  -5  -1  23   48.02   14.40
   5   1  23   78.27   15.94
   5  -1  23   64.22   14.52
   5   1  24  128.79   21.35
   5  -1  24  104.33   18.69
  -5  -1  24   87.39   16.87
  -5   1  24  120.48   20.40
   5   1  24   95.91   17.98
  -5   1  24  115.82   18.46
   5  -1  24  110.70   18.82
  -5   1  25   -5.88    7.87
   5  -1  25    0.76    0.75
   5   1  25    9.32    7.29
  -5   1  25   -1.32    3.20
  -5  -1  25   -2.47    4.92
   5   1  25   11.17    7.65
   5  -1  25    4.82    5.14
  -5   1  26    0.84    2.89
   5   1  26   19.21    8.02
   5  -1  26   32.93   12.18
  -5  -1  26   25.98   10.49
  -5   1  26   22.40    9.49
   5   1  26   42.06   13.30
   5  -1  26   18.62    8.70
  -5   1  27    4.29    3.20
   5   1  27   20.09    8.65
   5  -1  27   24.87   10.54
  -5   1  27   10.25    5.85
  -5  -1  27   29.88   10.51
   5   1  27    7.70    3.15
   5  -1  27   31.25   10.12
  -5   1  28  -10.15    6.09
   5   1  28    2.21    3.84
   5  -1  28   -1.36    3.15
  -5   1  28   12.69    8.49
  -5  -1  28   -8.32    7.93
   5   1  28   21.27   12.19
   5  -1  28    4.12    6.01
   5   1  29    6.92    7.43
   5  -1  29   14.11    8.41
  -5   1  29   -1.12    4.69
  -5  -1  29    7.83    8.54
   5   1  29    7.85    5.10
   5  -1  29   10.54    8.29
   5   1  30   29.29    9.32
   5  -1  30   37.79   11.98
  -5   1  30   39.52   10.88
  -5  -1  30   43.53   13.63
   5   1  30   29.28    6.62
   5  -1  30   31.61   11.37
  -5  -2   0   -0.45    1.67
   5  -2   0   -1.09    1.60
   5   2   0   -0.66    0.62
   5  -2   0   -0.69    0.83
  -5  -2   0    1.36    2.21
  -5   2   0    4.86    3.88
  -5  -2  -1   86.13    8.22
   5   2   1   78.70    6.02
   5  -2   1   77.57   10.14
   5  -2  -1   76.35    6.48
   5  -2  -1   88.21   10.58
  -5   2   1   78.24   12.49
  -5  -2   1   80.92   10.86
  -5   2  -1   84.47   12.64
  -5  -2   1   71.52    8.22
  -5  -2  -2   68.18    7.70
   5  -2   2  102.94   12.06
   5   2   2   79.71    7.02
   5  -2  -2   94.23    7.97
  -5   2   2   89.95   13.35
  -5  -2   2   81.66   11.21
   5  -2  -2   75.50   10.14
  -5  -2   2   82.72    8.68
   5   2   3  899.47   26.80
  -5  -2  -3  934.71   27.68
  -5   2   3  874.95   42.76
  -5  -2   3 1019.76   39.72
   5  -2  -3  816.17   27.02
   5  -2  -3  933.04   35.94
   5  -2   3  987.73   37.64
  -5  -2   3  957.59   32.54
  -5  -2  -4  730.31   24.70
  -5  -2   4  597.23   29.74
   5  -2   4  662.08   31.44
   5  -2  -4  666.91   30.28
  -5  -2   4  656.17   27.33
   5  -2  -5  696.44   31.12
  -5  -2  -5  599.84   22.97
  -5   2   5  661.60   36.60
  -5  -2   5  645.30   31.66
   5  -2   5  651.40   32.47
  -5   2   6  630.14   35.87
   5   2   6  562.93   26.38
  -5  -2  -6  527.97   22.25
   5  -2  -6  557.99   28.36
  -5  -2   6  672.81   32.30
   5  -2   6  688.50   33.06
  -5  -2   6  580.04   27.98
  -5  -2  -7   78.15    8.78
  -5   2   7   87.92   13.22
  -5  -2   7   89.57   12.44
   5  -2   7   93.37   12.60
   5  -2   8    0.49    2.89
   5   2   8    2.90    2.99
  -5  -2  -8    1.58    0.69
  -5   2   8   -1.24    1.08
  -5  -2   8    5.26    4.06
  -5  -2   8    0.29    1.59
   5   2   9  414.76   26.37
  -5  -2  -9  347.60   22.27
  -5   2   9  453.70   30.85
   5  -2   9  447.42   29.30
  -5  -2   9  486.95   29.98
  -5   2   9  433.05   27.22
  -5  -2   9  402.94   20.00
   5   2  10  118.77   14.81
  -5  -2 -10  185.76   16.20
   5  -2  10  125.15   15.38
  -5   2  10  156.08   18.12
  -5  -2  10  185.78   19.00
  -5   2  10  166.22   16.85
  -5  -2  10  137.87   12.37
   5   2  11   56.21   10.12
  -5  -2 -11   49.54    8.99
   5  -2  11   59.32   11.14
  -5  -2  11   51.38   10.29
  -5  -2  11   46.33    7.56
  -5   2  11   31.74    7.76
  -5   2  11   56.09   11.59
   5   2  12   97.52   14.02
   5  -2  12  101.80   16.10
  -5   2  12  150.34   18.60
  -5  -2  12  128.17   16.82
  -5  -2  12  135.24   13.43
   5   2  13  573.26   35.18
   5  -2  13  550.90   36.12
  -5   2  13  582.98   37.85
  -5  -2  13  623.72   38.17
  -5   2  13  560.70   34.24
  -5  -2  13  540.22   29.49
  -5  -2  14   30.22    7.35
   5   2  14   38.62    9.92
  -5   2  14   31.78    9.61
  -5  -2 -14   37.25    8.10
  -5  -2  14   37.84    9.93
   5  -2  14   32.09    8.51
  -5   2  14   36.24    9.55
   5   2  14   30.04    8.29
   5   2  15  174.93   21.40
   5  -2  15  137.36   19.50
  -5   2  15  179.42   21.23
  -5   2  15  126.00   16.74
   5   2  15  123.77   17.51
  -5  -2  15  168.92   17.82
   5   2  16   91.24   15.78
   5  -2  16   92.98   15.87
  -5   2  16   77.40   14.08
  -5  -2  16   92.99   15.00
  -5   2  16  105.43   16.46
   5   2  16   96.93   14.70
  -5  -2  16   89.72   13.85
   5   2  17  134.49   20.12
   5  -2  17  145.38   19.93
  -5   2  17  160.03   21.31
  -5  -2  17  132.20   19.46
  -5   2  17  146.19   19.19
   5   2  17  129.19   18.56
  -5  -2  17  162.87   19.26
   5   2  18  101.25   16.33
   5  -2  18  127.01   18.62
  -5   2  18  109.23   17.47
  -5  -2  18  140.96   19.49
  -5   2  18   91.60   15.57
   5   2  18  116.88   18.44
  -5  -2  18  105.17   16.17
   5   2  19   29.17    9.95
   5  -2  19   27.71    8.05
  -5   2  19   28.46    8.87
  -5  -2  19   21.39    6.27
   5   2  19   39.40   10.77
  -5   2  19   15.44    8.38
   5   2  20  129.95   18.97
   5  -2  20  110.01   18.54
  -5   2  20  139.36   20.92
  -5  -2  20  130.38   19.69
  -5   2  20  166.81   21.98
   5   2  20  116.43   18.94
   5  -2  20  164.06   22.11
  -5   2  21   30.33   10.16
  -5   2  21   30.00    9.95
   5   2  21   27.23    8.23
   5  -2  21    9.05    5.97
  -5  -2  21   22.96    8.90
   5   2  21   40.02   12.11
   5  -2  21   46.16   12.68
  -5   2  22   17.20    7.88
   5   2  22   20.94    8.97
   5  -2  22   20.47    8.96
  -5   2  22   12.75    5.94
  -5  -2  22   10.93    5.87
   5   2  22   22.95    7.89
   5  -2  22    7.35    7.07
  -5   2  23   17.74    6.35
   5   2  23   22.45    5.03
   5  -2  23   22.11   10.22
  -5   2  23   38.57   12.51
  -5  -2  23   11.97    8.30
   5   2  23   26.78   10.48
   5  -2  23   22.07   10.27
  -5   2  24   10.33    7.33
   5   2  24    6.55    3.33
  -5   2  24    4.75    5.06
  -5  -2  24   16.69    6.64
   5   2  24   15.87    7.25
   5  -2  24    2.81    1.38
  -5   2  25    1.19    4.27
   5   2  25    2.43    6.38
   5  -2  25    3.25    5.56
  -5   2  25    2.26    4.81
  -5  -2  25   -1.86    5.26
   5   2  25    3.70    2.54
   5  -2  25   -2.09    4.28
  -5   2  26    1.33    3.98
   5   2  26    3.56    5.33
   5  -2  26   10.55    6.48
  -5   2  26    9.16    5.84
  -5  -2  26    4.82    5.25
   5   2  26   12.76    7.95
   5  -2  26    0.87    6.92
  -5   2  27   66.26   15.23
   5   2  27   76.75   16.55
   5  -2  27   58.85   14.46
  -5   2  27   62.58   14.91
  -5  -2  27   63.24   14.76
   5   2  27   59.00   15.61
   5  -2  27   79.71   17.98
  -5   2  28    0.90    5.25
   5   2  28   -4.57    2.75
   5  -2  28   -6.03    6.38
  -5   2  28    0.95    7.58
  -5  -2  28    8.67    7.46
   5   2  28   -5.75    2.21
   5  -2  28    1.35    5.03
  -5   2  29   -2.06    6.07
   5   2  29    8.29    7.86
   5  -2  29   15.07    9.03
  -5   2  29   19.65    8.96
  -5  -2  29    3.94    5.25
   5   2  29    2.87    3.38
   5  -2  29   11.54    8.56
  -5  -3   0    0.01    0.32
   5  -3   0    0.64    1.07
   5  -3   0    0.11    1.44
  -5  -3   0   -1.12    1.27
  -5   3   0    0.03    2.07
   5  -3  -1    8.58    2.67
  -5  -3   1    8.93    2.69
  -5  -3  -1    5.92    2.57
   5  -3   1   15.86    5.26
   5  -3   1    5.45    1.76
  -5   3  -1    1.01    1.98
  -5   3   1   11.84    7.01
  -5  -3   1    5.73    2.51
   5  -3  -1    8.27    3.75
   5   3   1    4.68    1.38
  -5  -3   2  189.63   15.63
   5  -3   2  183.91   11.66
  -5  -3  -2  251.85   17.22
   5  -3   2  195.63   17.76
  -5   3   2  206.37   21.21
   5  -3  -2  230.31   14.22
  -5  -3   2  172.71   15.20
   5  -3  -2  231.73   19.50
   5   3   2  237.20   11.64
  -5  -3   3    0.66    2.00
   5  -3   3    0.99    0.99
   5   3   3   -0.80    1.46
   5  -3  -3    3.11    1.18
  -5  -3  -3    1.14    1.96
  -5  -3   3    2.61    1.75
   5  -3  -3   -1.09    1.13
   5  -3   3    2.07    1.22
   5  -3   4   -0.03    0.30
  -5  -3   4    0.31    0.11
   5   3   4   -1.19    0.76
  -5  -3  -4   -0.64    1.08
  -5   3   4    0.26    2.01
  -5  -3   4    0.84    1.73
   5  -3  -4   -0.96    1.00
   5  -3   4   -1.18    2.37
   5  -3  -4   -2.24    0.18
   5  -3  -5  263.69   21.02
  -5  -3  -5  255.19   17.80
  -5   3   5  262.45   24.30
   5  -3  -5  297.15   19.60
  -5  -3   5  204.30   17.26
   5  -3   5  301.02   22.60
   5  -3   5  273.17   13.34
  -5  -3   5  254.31   19.66
   5   3   5  263.39   17.21
   5   3   6   44.48    7.54
  -5  -3  -6   29.77    6.46
   5  -3  -6   29.69    7.20
  -5  -3   6   40.93    8.30
  -5   3   6   38.67    9.10
   5  -3  -6   44.82    7.97
   5  -3   6   46.89    9.15
   5  -3   6   32.00    5.03
  -5  -3   6   43.53    9.09
   5   3   7  155.68   15.06
  -5  -3  -7  136.96   13.76
   5  -3  -7  201.03   18.29
  -5   3   7  212.24   21.09
  -5  -3   7  211.32   18.49
   5  -3   7  214.54   20.19
  -5  -3   7  190.68   17.66
  -5  -3   8    8.74    4.42
   5  -3   8   13.75    6.04
   5   3   8   15.27    5.32
  -5  -3  -8    5.67    1.44
  -5   3   8    9.93    4.56
  -5  -3   8   10.38    5.28
  -5  -3   8   12.13    3.21
  -5  -3   9   28.00    7.69
   5   3   9   28.63    7.54
   5  -3   9   22.66    7.69
  -5  -3  -9   36.20    7.80
  -5   3   9   26.73    8.54
  -5  -3   9   29.33    8.16
  -5   3   9   30.33    8.45
  -5  -3   9   27.60    5.46
   5  -3  10   14.14    5.71
  -5  -3  10   16.08    5.91
   5   3  10   15.19    5.18
  -5  -3 -10   12.04    5.38
  -5   3  10   14.99    6.49
  -5   3  10    1.96    3.92
  -5  -3  10   16.74    4.88
   5  -3  11   10.49    7.06
   5   3  11    4.65    3.54
  -5  -3 -11    1.81    3.37
  -5   3  11    8.41    4.45
  -5  -3  11   -0.42    2.80
  -5   3  11   10.84    4.75
   5  -3  12   -2.02    1.13
  -5  -3  12   -2.48    1.30
   5   3  12    3.29    3.72
  -5  -3 -12    2.41    2.50
  -5   3  12   -1.23    2.91
  -5  -3  12    2.54    2.70
  -5   3  12    1.11    1.33
   5   3  12    3.72    3.20
   5   3  13  166.11   18.95
   5  -3  13  147.19   18.75
  -5   3  13  186.05   21.77
  -5  -3 -13  135.76   16.59
  -5  -3  13  178.65   20.23
  -5   3  13  161.01   19.27
   5   3  13  139.46   16.56
   5   3  14    1.57    4.00
  -5  -3 -14    0.98    2.14
  -5   3  14    0.55    3.05
  -5  -3  14    5.40    4.80
  -5   3  14    2.51    3.69
   5   3  14    2.73    2.25
   5  -3  14    4.87    3.48
   5   3  15  152.14   18.67
  -5   3  15  130.42   18.93
  -5  -3 -15  122.18   16.58
  -5  -3  15  139.50   18.59
  -5   3  15  153.09   19.22
   5   3  15  144.89   18.59
   5   3  16   38.51    9.97
  -5  -3 -16   19.21    6.11
  -5   3  16   29.27    8.79
  -5  -3  16   33.38   10.22
   5  -3  16   17.16    8.21
  -5   3  16   20.10    8.58
   5   3  16   29.07    8.61
   5   3  17    3.06    0.89
  -5   3  17    4.79    4.89
  -5  -3 -17    4.71    5.27
  -5  -3  17    1.36    1.99
   5  -3  17    9.59    7.10
   5   3  17    0.61    2.72
  -5   3  17   -1.00    3.78
   5   3  18    3.10    4.11
  -5   3  18   -1.17    3.44
  -5  -3 -18    2.51    3.82
  -5  -3  18   -3.36    0.77
   5  -3  18    1.28    3.04
   5   3  18    1.83    3.67
  -5   3  18   -1.32    2.43
   5   3  19   22.13    7.08
  -5   3  19   17.19    7.49
  -5  -3 -19   10.65    4.85
  -5  -3  19   26.44    6.61
   5  -3  19   27.79    9.27
   5   3  19   23.34    9.01
  -5   3  19   18.29    7.75
   5   3  20   12.02    4.85
  -5   3  20    8.86    5.07
  -5  -3 -20   13.42    6.08
   5  -3  20    7.00    5.14
  -5  -3  20   14.73    7.06
   5   3  20    6.65    5.39
  -5   3  20   -3.35    1.70
   5   3  21    7.71    5.55
  -5  -3 -21   15.35    7.47
  -5   3  21   16.32    7.91
   5  -3  21    6.49    4.84
  -5  -3  21   17.74    8.88
   5   3  21   15.84    6.58
   5  -3  21    7.37    5.74
  -5   3  21    9.80    6.21
   5   3  22    1.70    3.00
   5  -3  22    3.73    5.65
  -5   3  22    0.47    1.71
  -5  -3 -22    4.22    7.44
  -5  -3  22    9.02    5.95
   5   3  22    6.33    5.17
   5  -3  22    4.45    2.42
  -5   3  22   -1.00    4.90
   5   3  23   17.73    6.77
   5  -3  23   17.72    7.60
  -5   3  23   11.03    3.19
  -5  -3 -23   26.88    8.88
  -5  -3  23   10.77    7.43
   5   3  23   27.17   11.09
   5  -3  23   18.97    8.18
  -5   3  23   13.73    7.06
   5  -3  24   91.08   17.35
  -5  -3 -24   84.64   17.42
  -5   3  24   46.99   13.44
  -5  -3  24   45.22   13.50
   5   3  24   67.73   16.71
   5  -3  24   54.44   14.16
  -5   3  24   65.81   15.30
   5   3  24   83.93   18.12
   5   3  25   -3.07    3.79
   5  -3  25   11.60    8.17
  -5   3  25    7.51    7.78
  -5  -3  25    9.28    3.79
   5   3  25    7.87    3.79
   5  -3  25    5.04    5.65
  -5   3  25    8.35    4.92
   5   3  26   -5.72    6.69
   5  -3  26   -3.43    1.25
  -5   3  26    6.90    6.90
  -5  -3  26   -5.53    8.69
   5   3  26    1.02    2.43
   5  -3  26    4.80    6.84
  -5   3  26   -1.46    4.74
   5   3  27   46.78   13.69
   5  -3  27   25.68    9.64
  -5   3  27   38.14   13.76
  -5  -3  27   34.23   11.22
   5   3  27   41.67   11.50
   5  -3  27   38.90   11.24
  -5   3  27   18.94    8.87
   5   3  28   -2.02    5.74
   5  -3  28   -1.85    4.37
  -5   3  28    8.14    6.73
  -5  -3  28   -0.90    4.02
   5   3  28    8.34    6.65
   5  -3  28    3.07    5.74
  -5   3  28    3.20    7.57
   5   3  29   22.33   10.28
  -5   3  29   11.90    5.51
   5  -3  29   13.82    5.54
  -5  -3  29   11.16    7.29
   5   3  29    0.53    3.55
   5  -3  29   13.44   10.03
  -5   3  29    7.72    5.62
  -5  -4   0    3.07    2.79
   5  -4   0    1.22    2.14
   5  -4   0    0.44    1.55
  -5   4   0   -3.14    4.26
  -5  -4   1  292.41   21.46
  -5  -4  -1  269.82   19.77
   5  -4   1  289.01   17.26
  -5   4   1  274.05   24.76
   5  -4  -1  293.10   17.76
   5  -4   1  259.57   21.37
  -5  -4   1  270.04   17.81
   5  -4  -1  281.64   22.65
   5  -4  -2    2.80    1.65
  -5   4   2    5.40    4.32
   5  -4   2    3.38    2.71
  -5  -4   2    5.53    2.51
   5  -4   2    8.00    3.44
  -5  -4  -2    2.72    1.47
   5  -4  -2    2.01    1.45
  -5  -4   2    9.41    3.79
   5   4   2    1.86    1.06
  -5  -4   3    6.15    3.48
   5  -4   3    5.24    1.95
  -5  -4  -3    2.21    2.75
   5  -4  -3    4.08    3.28
  -5   4   3    0.54    1.31
   5  -4  -3    0.43    1.65
  -5  -4   3    3.97    1.19
   5   4   3    2.91    0.65
   5  -4   3    1.92    1.80
  -5  -4   4   86.02   11.79
   5  -4   4   67.84    8.26
   5  -4   4   64.67   10.78
  -5  -4  -4   73.23   10.53
   5  -4  -4   81.33   10.34
  -5  -4   4   66.62    9.43
  -5   4   4   51.58   11.05
   5   4   4   44.30    6.78
   5  -4  -4   63.02   10.93
   5  -4   5   31.85    5.74
   5  -4   5   43.31    8.58
  -5  -4   5   17.23    4.92
   5  -4  -5   33.36    7.80
  -5  -4  -5   26.08    6.40
   5  -4  -5   31.28    7.04
  -5   4   5   36.50    9.35
  -5  -4   5   30.99    6.35
   5   4   5   30.32    5.89
   5  -4  -6  476.20   30.20
  -5  -4  -6  577.79   29.70
  -5  -4   6  418.14   24.90
   5  -4  -6  429.00   26.20
  -5   4   6  540.19   35.60
   5   4   6  369.24   23.67
   5  -4   6  443.12   29.76
   5  -4   6  463.14   22.65
  -5  -4   6  434.97   28.00
  -5  -4  -7  414.16   25.78
   5  -4  -7  380.34   27.20
   5  -4  -7  399.75   25.63
  -5   4   7  326.74   27.78
  -5  -4   7  372.01   24.41
   5  -4   7  337.21   26.70
   5   4   7  359.88   22.91
   5  -4   7  362.27   20.64
  -5  -4   7  285.65   23.21
  -5  -4  -8  131.26   15.31
  -5   4   8  100.42   15.40
   5  -4  -8   78.25   11.71
  -5  -4   8   71.89   10.69
   5  -4   8   95.91   13.92
   5   4   8   90.64   11.98
   5  -4   8  102.25   11.11
  -5  -4   8   88.26   13.46
  -5   4   9   40.15    8.97
   5  -4  -9   74.05   11.56
  -5  -4  -9   35.84    8.32
   5  -4   9   52.79   10.72
   5   4   9   64.55   11.12
   5  -4   9   56.69    8.70
  -5  -4   9   56.25   10.75
  -5  -4  10    4.10    4.27
   5   4  10    1.89    2.66
   5  -4  10   -0.56    2.82
  -5  -4 -10   -1.85    2.07
  -5   4  10   -3.63    4.88
  -5  -4  10   -1.01    1.10
   5  -4 -10    3.29    2.35
  -5   4  10    2.15    4.84
   5   4  10    2.12    2.78
  -5  -4  11   -0.26    4.15
   5  -4  11    3.71    1.78
   5   4  11    3.04    1.81
  -5  -4 -11    8.66    4.51
  -5   4  11    3.47    5.08
  -5  -4  11    4.89    3.59
  -5   4  11    3.93    4.66
   5   4  11    5.65    4.15
  -5  -4 -12  185.63   19.37
   5  -4  12  150.75   18.54
  -5  -4  12  130.80   17.65
  -5   4  12  135.36   18.85
  -5   4  12  137.85   17.55
   5   4  12  138.41   15.80
   5   4  12  145.62   17.93
  -5  -4  12  119.00   16.50
   5  -4  13   14.67    6.78
  -5   4  13   16.01    6.53
   5   4  13    9.03    4.83
  -5  -4 -13   10.42    6.17
  -5  -4  13    7.92    3.48
  -5   4  13    9.61    4.93
   5   4  13   19.78    6.74
   5  -4  14   35.29    8.85
   5   4  14   40.89   10.01
  -5  -4 -14   45.14   10.04
  -5   4  14   33.78   10.57
  -5  -4  14   32.03    9.29
  -5   4  14   32.82    9.32
   5   4  14   41.28    9.32
   5   4  15    5.97    1.38
  -5  -4 -15    7.42    3.59
  -5   4  15   -1.17    3.28
  -5  -4  15   11.03    5.46
  -5   4  15   13.41    8.51
   5   4  15    6.71    3.90
   5  -4  15    2.34    4.43
   5  -4  16  188.08   23.31
  -5  -4 -16  168.08   20.81
  -5   4  16  193.82   23.30
  -5  -4  16  205.34   23.49
  -5   4  16  150.05   20.06
   5   4  16  199.37   22.16
   5   4  16  222.17   24.43
   5  -4  17   98.24   16.29
  -5  -4 -17  107.94   16.67
  -5  -4  17  111.52   17.46
  -5   4  17   60.70   13.06
  -5   4  17   88.16   15.65
   5   4  17  110.74   17.46
   5   4  18    5.55    3.56
  -5  -4 -18   -2.78    4.64
  -5   4  18    0.60    3.59
  -5  -4  18   -1.64    3.26
   5  -4  18    0.37    3.96
   5   4  18    4.20    2.98
  -5   4  18    8.10    6.33
   5   4  19   53.46   13.07
  -5  -4 -19   30.84    9.19
  -5   4  19   54.41   13.43
  -5  -4  19   47.81   11.36
   5  -4  19   52.50   11.41
   5   4  19   40.48    9.88
  -5   4  19   49.80   12.65
   5   4  20    5.98    2.13
  -5  -4 -20   12.37    7.52
  -5   4  20   14.73    6.92
  -5  -4  20   -2.45    5.27
   5  -4  20    4.37    2.82
   5   4  20    6.43    3.43
  -5   4  20    5.55    4.52
   5   4  21   12.61    6.32
  -5  -4 -21    4.93    3.06
  -5   4  21   11.17    9.02
  -5  -4  21    8.32    6.69
   5  -4  21    7.99    5.66
   5   4  21    5.66    2.28
  -5   4  21    5.60    4.85
   5  -4  21    3.25    3.70
   5   4  22    8.53    7.23
  -5  -4 -22   -0.63    4.86
  -5   4  22    3.39    6.31
   5  -4  22    1.21    4.80
  -5  -4  22    0.94    3.45
   5   4  22   -2.35    4.92
  -5   4  22    0.11    4.68
   5  -4  22    4.69    4.99
   5  -4  23  214.44   26.69
  -5  -4 -23  206.65   27.34
  -5   4  23  251.35   29.31
  -5  -4  23  218.81   27.89
   5   4  23  249.07   29.58
  -5   4  23  280.08   31.35
   5  -4  23  243.66   28.97
   5   4  23  233.12   28.71
   5   4  24   10.43    8.03
   5  -4  24   -1.20    4.05
  -5  -4 -24    2.28    7.14
  -5   4  24   12.86    8.79
  -5  -4  24    2.26    0.66
   5   4  24   -4.93    7.33
   5  -4  24   -0.68    3.94
  -5   4  24    3.03    7.35
   5   4  25    4.67    5.86
   5  -4  25    1.61    7.38
  -5   4  25   -2.80    2.42
  -5  -4  25    4.19    8.17
   5   4  25   -3.46    2.95
   5  -4  25    2.49    2.36
  -5   4  25   -0.30    3.48
   5   4  26    8.98    6.85
   5  -4  26   26.67    9.10
  -5   4  26   14.96    7.00
  -5  -4  26    0.77    4.62
   5   4  26    4.25    4.44
   5  -4  26   20.41   10.16
  -5   4  26   10.31    7.99
   5   4  27    8.10    5.55
   5  -4  27    3.58    5.25
  -5   4  27    9.81    2.73
  -5  -4  27    0.63    3.83
   5   4  27    3.74    5.17
   5  -4  27    4.71    3.18
  -5   4  27    5.04    5.57
   5   4  28    2.79    3.69
   5  -4  28   -4.83    6.07
  -5   4  28    0.16    2.74
  -5  -4  28    0.25    4.14
   5   4  28    8.71    8.76
   5  -4  28   -3.61    2.94
  -5   4  28   -2.45    2.36
   5   4  29    0.62    0.47
   5  -4  29    8.10    9.20
  -5   4  29   -5.68    5.81
  -5  -4  29   -3.92    7.28
   5   4  29   -1.10    5.87
   5  -4  29   -2.89    3.86
  -5   4  29   -2.04    4.59
  -5  -5   0   -0.19    1.39
   5  -5   0    0.30    0.77
  -5   5   0   -0.11    1.89
   5  -5   0    0.08    3.14
  -5   5   1  350.54   28.42
  -5  -5   1  299.44   23.82
  -5  -5  -1  312.27   23.74
  -5  -5  -1  247.59   12.93
   5  -5   1  347.29   22.14
   5  -5  -1  336.73   21.97
   5  -5   1  354.37   26.60
  -5  -5   1  326.11   17.53
   5  -5  -1  344.68   26.87
  -5  -5   2  209.26   19.51
   5  -5   2  157.92   14.88
  -5  -5  -2  155.53   17.30
   5  -5  -2  155.46   15.05
   5  -5   2  180.68   19.23
  -5   5   2  172.10   20.55
  -5  -5   2  169.74   12.89
   5  -5  -2  148.34   17.51
   5  -5   3    6.87    5.25
  -5  -5   3    4.59    0.88
   5  -5   3   -0.26    2.32
   5  -5  -3    7.33    4.54
  -5  -5  -3    9.63    4.40
   5  -5  -3    4.81    2.52
  -5   5   3    2.16    1.88
  -5  -5   3    3.41    2.45
   5   5   3    5.15    2.80
  -5  -5   4   35.00    8.09
   5  -5   4   29.80    6.02
  -5  -5   4   22.66    4.90
  -5  -5  -4   33.08    7.81
  -5   5   4   31.93    8.91
   5  -5  -4   14.66    4.66
   5  -5  -4   19.27    6.69
   5   5   4   22.52    5.26
   5  -5   4   26.62    7.59
  -5  -5   5   45.79    9.63
   5  -5  -5   82.24   13.35
   5  -5   5   81.41   10.82
   5  -5   5   52.62   10.56
  -5  -5  -5   54.07    9.97
   5  -5  -5   75.16   11.30
  -5   5   5   61.94   12.77
  -5  -5   5   59.18    9.13
   5   5   5   63.97    9.31
  -5  -5   6  227.95   21.66
   5  -5   6  168.81   18.97
   5  -5   6  173.16   16.06
   5  -5  -6  188.58   20.31
  -5  -5  -6  138.76   16.18
   5  -5  -6  207.21   19.04
  -5   5   6  195.32   22.14
  -5  -5   6  177.33   15.85
   5   5   6  185.26   16.35
   5  -5  -7  164.74   18.87
  -5  -5  -7  189.52   18.46
   5  -5  -7  150.49   16.58
  -5   5   7  152.54   19.56
  -5  -5   7  181.27   16.71
   5   5   7  151.14   15.73
   5   5   7  172.99   13.21
   5  -5   7  185.89   20.46
  -5  -5   7  167.42   19.04
   5  -5   7  187.12   16.42
  -5  -5  -8   78.54   12.19
   5  -5  -8  105.70   15.50
   5  -5  -8  100.52   14.42
  -5   5   8   98.07   15.65
  -5  -5   8   91.34   12.74
   5   5   8  101.50   11.34
   5   5   8   89.29   12.32
   5  -5   8  102.19   15.27
   5  -5   8  111.81   12.91
  -5  -5   8   89.52   13.88
   5  -5   9   10.42    4.41
  -5  -5   9    7.74    4.52
   5   5   9   14.78    4.78
   5  -5   9   14.33    6.45
  -5  -5  -9   11.52    5.50
  -5   5   9   -3.06    5.91
   5  -5  -9    8.25    3.28
  -5  -5   9    1.08    0.90
   5   5   9    5.66    3.40
   5  -5  10   10.68    3.86
  -5  -5  10   12.38    5.04
   5   5  10   12.57    4.69
   5  -5  10   11.72    4.84
  -5   5  10    9.00    5.12
   5  -5 -10   10.37    4.79
  -5  -5 -10   14.62    6.48
  -5  -5  10   10.38    5.02
   5   5  10    5.65    3.52
  -5  -5  11   49.77   10.92
   5  -5  11   49.54   11.63
  -5  -5 -11   65.38   12.03
  -5   5  11   59.74   13.20
   5  -5 -11   43.20   10.32
  -5  -5  11   45.09    9.87
   5   5  11   48.03    9.22
   5   5  11   45.25    9.79
   5  -5  11   45.53    9.40
  -5   5  12  226.97   24.49
   5  -5 -12  204.30   22.82
  -5  -5  12  199.18   21.42
   5  -5  12  247.29   25.03
  -5   5  12  263.83   25.11
   5   5  12  251.89   21.93
   5   5  12  246.88   23.25
   5  -5  12  203.85   19.61
  -5  -5  12  181.82   21.30
  -5  -5  13    3.10    2.56
   5  -5  13    8.51    7.52
   5   5  13    2.56    5.43
  -5  -5 -13    5.07    4.79
  -5   5  13    8.39    4.52
   5  -5 -13   -1.27    3.35
  -5   5  13    8.56    5.67
   5   5  13    0.33    2.10
   5  -5  14    1.04    4.37
   5   5  14    3.63    4.51
  -5  -5 -14    5.10    5.53
  -5   5  14    9.09    6.45
   5  -5 -14   12.11    6.49
  -5  -5  14    3.53    3.29
  -5   5  14    2.21    3.27
   5   5  14    9.73    5.83
  -5  -5  14   -2.13    4.53
   5  -5  15   17.97    7.36
   5   5  15   18.04    6.71
  -5  -5 -15   10.74    4.80
  -5   5  15    8.98    4.12
   5  -5 -15   12.42    6.49
  -5  -5  15    6.12    4.12
  -5   5  15   13.41    6.28
   5   5  15    6.87    2.78
   5  -5  16   18.79    7.59
   5   5  16   39.74    9.80
  -5  -5 -16   18.31    7.37
  -5   5  16   39.50   11.36
  -5  -5  16   27.27    8.80
  -5   5  16   21.55    6.50
   5   5  16   11.00    4.96
   5   5  17    5.94    6.20
  -5  -5 -17   -2.41    3.31
  -5   5  17    1.02    5.87
  -5  -5  17    6.73    6.52
  -5   5  17    0.81    0.61
   5   5  17    2.83    5.65
   5  -5  17   -3.40    5.66
   5   5  18   17.90    6.93
  -5  -5 -18   29.35    9.63
  -5   5  18   14.63    6.14
  -5  -5  18    7.89    5.32
   5   5  18   17.13    6.71
  -5   5  18   14.03    7.38
   5  -5  18   12.85    7.45
   5   5  19   13.03    5.35
  -5  -5  19    5.83    6.35
  -5  -5 -19    4.77    5.72
  -5   5  19   -0.53    4.82
   5   5  19    3.98    2.14
   5  -5  19   -0.83    2.93
  -5   5  19    5.14    5.21
   5   5  20    0.63    2.05
  -5  -5 -20    0.34    3.08
  -5   5  20    0.02    4.17
  -5  -5  20   -2.86    4.69
   5  -5  20   -0.95    5.57
   5   5  20    0.19    1.40
  -5   5  20    1.24    5.57
  -5   5  21   40.37   11.50
   5   5  21   63.95   14.04
  -5  -5 -21   52.96   15.51
  -5  -5  21   56.57   12.60
  -5   5  21   85.46   16.66
   5  -5  21   70.09   14.86
   5   5  21   60.30   13.40
   5   5  22   -0.17    1.08
  -5  -5 -22    7.48    5.63
  -5   5  22    8.37    6.38
  -5  -5  22   13.53    7.24
   5  -5  22   20.53    8.15
   5   5  22    1.31    4.42
  -5   5  22    1.68    3.34
   5  -5  22   10.37    2.63
   5   5  23   36.90   11.82
  -5  -5 -23   17.35    5.59
  -5   5  23   29.60    9.38
   5  -5  23   35.28   11.59
  -5  -5  23   27.62    9.23
   5   5  23    9.86    1.45
  -5   5  23   27.22   10.60
   5  -5  23   28.92    9.58
   5   5  24   36.78   11.09
  -5  -5 -24   34.27   11.66
  -5   5  24   16.11    6.00
   5  -5  24   34.54   11.10
  -5  -5  24   30.72   12.16
  -5   5  24   27.29    9.98
   5  -5  24   30.08    9.52
   5   5  25    1.97    3.21
  -5  -5 -25   -1.49    3.99
  -5   5  25    2.03    5.06
   5  -5  25    5.35    5.71
  -5  -5  25   -1.71    2.34
  -5   5  25    0.83    5.77
   5  -5  25   -0.36    2.47
   5   5  26   24.87    9.11
   5  -5  26   20.41    8.25
  -5   5  26   18.04    8.02
  -5  -5  26   28.96   10.73
  -5   5  26   14.59    8.97
   5  -5  26   15.44   10.27
   5   5  27   -8.75    7.57
   5  -5  27    3.89    2.74
  -5   5  27   -3.07    6.53
  -5  -5  27    3.66    5.88
  -5   5  27   -0.57    5.66
   5  -5  27   -1.30    4.52
   5   5  28    4.33    2.91
   5  -5  28    4.44    3.59
  -5   5  28   20.19   10.81
  -5  -5  28   16.98    9.36
   5  -5  28   15.87    9.30
  -5   5  28   21.76    9.03
  -5  -6   0    4.03    3.66
   5  -6   0    3.62    1.27
   5  -6   0   -0.72    3.58
  -5  -6   1  480.82   31.56
  -5  -6  -1  471.27   31.74
   5  -6   1  490.54   28.50
   5  -6  -1  435.42   27.62
   5  -6   1  485.52   33.01
  -5   6   1  488.91   34.05
   5  -6  -1  462.89   32.74
  -5  -6   2  172.34   19.95
   5  -6   2  203.24   18.38
  -5  -6  -2  197.28   20.58
   5  -6  -2  209.00   19.08
  -5  -6  -2  206.31   14.64
   5  -6   2  233.63   23.17
  -5   6   2  211.76   23.40
   5  -6  -2  211.10   21.90
  -5  -6   3  265.86   24.15
   5  -6   3  263.25   21.30
  -5  -6  -3  265.96   23.86
   5  -6  -3  266.23   21.35
   5  -6   3  251.20   23.85
  -5   6   3  281.16   27.49
   5  -6  -3  265.71   24.60
  -5  -6   4   69.02   12.48
   5  -6   4   92.53   12.56
  -5  -6  -4   73.47   12.42
   5  -6   4  105.63   15.04
   5  -6  -4   80.13   11.89
  -5   6   4   84.74   14.90
   5   6   4   81.02   10.01
   5  -6  -4   62.14   12.61
  -5  -6   5  140.54   17.51
   5  -6   5  137.91   15.72
   5  -6   5  141.26   18.09
  -5  -6  -5  134.84   17.62
   5  -6  -5  172.36   18.34
  -5   6   5  151.13   20.22
   5   6   5  134.31   14.09
   5  -6  -5  118.07   16.71
  -5  -6   6   17.23    6.65
   5  -6   6   10.28    3.09
   5  -6  -6   19.49    6.83
  -5  -6  -6   16.77    5.76
  -5  -6   6   23.78    7.09
   5  -6   6    9.02    6.07
   5  -6  -6    6.91    3.78
  -5   6   6   16.35    6.52
   5   6   6   13.78    4.49
  -5  -6   7   19.82    7.21
   5  -6   7   19.23    6.04
  -5  -6  -7   15.28    5.61
  -5   6   7    2.42    4.32
   5  -6  -7   21.96    6.99
  -5  -6   7   18.56    5.86
   5  -6   7   24.54    8.70
   5  -6  -7   14.49    5.87
   5   6   7   17.00    5.56
  -5  -6   8   37.92    9.14
   5  -6   8   38.16    7.85
  -5  -6  -8   49.22   10.44
   5  -6  -8   33.25    8.45
  -5   6   8   50.40   12.15
   5  -6   8   42.99   10.50
   5  -6  -8   36.93    8.76
  -5  -6   8   30.01    6.91
   5   6   8   44.56    8.91
  -5  -6  -9  225.87   23.28
   5  -6  -9  233.87   23.85
   5  -6  -9  261.75   24.89
  -5   6   9  249.69   25.92
  -5  -6   9  225.05   20.29
   5   6   9  221.77   20.90
   5  -6   9  232.60   23.98
   5  -6   9  201.61   19.71
  -5  -6   9  262.50   24.92
   5   6  10    0.01    2.66
   5  -6  10    3.40    3.78
  -5  -6  10    2.21    2.60
   5  -6  10   -3.00    4.05
  -5  -6 -10   -0.05    3.70
  -5   6  10   10.30    6.10
   5  -6 -10   12.21    6.26
  -5  -6  10   -1.45    2.18
   5  -6  11   37.26    8.31
   5   6  11   29.86    8.24
  -5  -6  11   33.77    9.72
  -5  -6 -11   55.87   11.99
   5  -6  11   41.29   10.79
  -5   6  11   41.79   10.43
   5  -6 -11   52.58   11.25
  -5  -6  11   31.69    8.71
   5  -6 -12  151.16   20.09
  -5   6  12  157.31   19.93
  -5  -6 -12  117.08   17.46
  -5  -6  12  134.46   17.15
   5  -6  12  158.28   20.23
   5   6  12  144.01   18.81
   5  -6  12  138.10   16.92
  -5  -6  12  188.15   22.15
   5  -6  13   44.05    9.56
   5   6  13   44.90   10.05
  -5  -6 -13   56.72   12.21
  -5   6  13   41.44   10.29
   5  -6  13   61.78   13.61
   5  -6 -13   38.86   10.03
  -5   6  13   35.48    9.71
  -5  -6  13   39.80    9.78
  -5  -6  13   66.05   12.69
  -5  -6  14    5.16    1.65
   5   6  14   -0.70    2.35
   5  -6  14   10.20    6.59
  -5   6  14    2.82    5.03
  -5  -6 -14    8.28    6.23
   5  -6 -14    7.60    5.09
  -5  -6  14    5.58    4.62
  -5   6  14    1.11    3.11
   5  -6  14    3.24    1.02
  -5  -6 -15   92.36   16.50
  -5   6  15  163.00   22.80
   5  -6  15  160.44   22.43
  -5  -6  15  160.19   20.02
  -5   6  15  142.32   20.68
   5   6  15  167.14   22.18
   5  -6 -15  147.05   21.49
  -5  -6  15  144.76   20.21
   5  -6  16   -0.64    2.83
   5   6  16    1.48    2.66
  -5  -6 -16   -3.66    0.47
  -5   6  16    1.97    1.40
   5  -6 -16   -0.96    3.32
  -5  -6  16   -0.43    2.19
  -5   6  16   -1.55    1.92
  -5  -6  16   -0.88    2.59
   5  -6  17    2.46    4.08
   5   6  17    9.62    6.09
  -5  -6 -17    3.90    3.92
  -5   6  17   11.22    9.26
  -5  -6  17    3.37    1.69
   5  -6 -17    2.86    3.74
  -5   6  17    1.47    2.58
   5   6  18   -0.51    3.49
  -5  -6 -18    5.54    5.57
  -5   6  18   -1.17    3.22
   5  -6 -18    1.82    3.94
  -5  -6  18    1.77    1.57
  -5   6  18   -5.96    6.80
   5  -6  18    5.41    4.03
   5   6  19   18.21    8.96
   5  -6 -19    7.58    4.93
  -5  -6 -19    8.96    7.76
  -5   6  19    1.41    1.59
  -5  -6  19   16.98    8.19
  -5   6  19   26.28   10.53
   5  -6  19   10.52    7.47
  -5  -6 -20  149.81   23.08
   5  -6  20  155.72   22.22
  -5   6  20  159.60   22.95
  -5  -6  20  166.57   23.13
  -5   6  20  145.98   22.80
   5   6  20  175.18   23.49
   5  -6 -20  129.89   22.37
   5   6  21    0.38    5.31
  -5  -6 -21    1.71    4.75
  -5   6  21   -4.12    6.42
   5  -6 -21    7.92    9.10
  -5  -6  21   -2.44    6.33
   5  -6  21    7.05    6.78
  -5   6  21   -0.44    3.21
   5  -6  22  125.61   20.52
  -5  -6 -22  110.24   19.30
   5  -6 -22  119.23   20.85
  -5   6  22  112.70   19.35
  -5  -6  22  108.80   18.96
  -5   6  22  145.87   22.11
   5   6  22  142.29   21.96
   5  -6  22  120.63   20.72
   5   6  23   11.08    7.69
  -5  -6 -23   10.99    6.96
  -5   6  23   19.50    7.62
   5  -6 -23   15.44    4.41
  -5  -6  23   33.16   10.74
   5  -6  23   29.20    9.35
  -5   6  23    7.84    5.07
   5  -6  23   17.10    9.28
   5   6  24   27.31   10.15
  -5  -6 -24   14.33    7.92
  -5   6  24   27.34   10.28
   5  -6 -24   17.46   11.02
  -5  -6  24   18.20    7.64
   5  -6  24   20.11    9.03
  -5   6  24    2.91    4.69
   5  -6  24   26.28   10.51
   5   6  25    6.95    7.78
  -5   6  25    2.72    4.67
   5  -6 -25   -2.27    2.80
   5  -6  25    5.22    3.72
  -5  -6  25   10.68    5.15
  -5   6  25    8.70    6.26
   5  -6  25    7.14    6.74
   5   6  26    2.72    4.43
   5  -6 -26   10.79    9.08
  -5   6  26    0.57    5.38
   5  -6  26    3.54    4.26
  -5  -6  26    2.06    4.67
  -5   6  26    4.03    1.66
   5  -6  26    0.68    1.82
   5   6  27   15.27    7.47
  -5   6  27   16.46    8.91
   5  -6  27    9.20    4.39
   5  -6 -27   24.60   10.44
  -5  -6  27   10.20    8.01
  -5   6  27   20.29    9.78
   5  -6  27   32.46   12.40
  -5  -7   0   -0.02    1.79
   5  -7   0   -1.90    2.81
   5  -7   0   -0.79    2.02
  -5  -7  -1   55.70   12.09
   5  -7  -1   46.79   10.42
  -5  -7   1   32.01    8.34
   5  -7   1   29.74    7.89
   5  -7   1   49.23   10.78
   5  -7  -1   55.66   12.24
  -5  -7   2  436.74   32.41
   5  -7   2  478.65   31.54
  -5  -7  -2  460.64   33.00
   5  -7  -2  400.64   29.14
   5  -7   2  470.90   33.87
   5  -7  -2  416.84   32.87
  -5   7   2  443.85   34.08
  -5  -7   3  154.27   19.17
   5  -7   3  169.02   18.32
  -5  -7  -3  190.30   21.05
   5  -7  -3  165.15   18.43
   5  -7   3  167.50   19.93
  -5   7   3  173.26   21.55
   5  -7  -3  149.07   19.59
  -5  -7   4  164.79   20.33
   5  -7   4  152.29   17.46
  -5  -7  -4  138.12   18.03
   5  -7   4  143.33   18.41
   5  -7  -4  137.32   16.67
  -5   7   4  171.07   21.96
   5  -7  -4  138.49   19.31
  -5  -7   5   51.98   12.36
   5  -7   5   54.07   10.41
   5  -7  -5   47.06   10.58
  -5  -7  -5   34.74    8.97
  -5   7   5   65.38   13.63
   5  -7  -5   38.17    9.39
   5   7   5   37.20    7.99
   5  -7   5   33.39    9.25
   5  -7  -6    6.36    5.20
  -5  -7   6    6.65    4.78
   5  -7   6    6.67    4.87
  -5  -7  -6    2.52    3.30
   5  -7  -6   -2.08    3.98
  -5   7   6   -0.02    3.90
   5  -7   6    2.49    3.43
   5   7   6    0.41    0.60
  -5  -7   7    0.61    2.16
   5  -7   7   -1.68    1.95
   5  -7  -7   -1.29    4.86
  -5  -7  -7    2.39    3.45
   5  -7  -7   -0.68    1.50
  -5   7   7   -2.65    3.15
   5  -7   7   -0.14    1.39
   5   7   7   -2.15    3.32
  -5  -7   8   70.43   13.02
   5  -7   8   55.77   11.28
  -5  -7  -8   54.22   11.44
   5  -7  -8   43.62   10.40
  -5   7   8   22.06    7.38
   5  -7   8   41.66    9.62
   5   7   8   51.11   10.35
   5  -7  -8   62.06   11.75
  -5  -7   9  166.52   20.85
   5  -7   9  169.39   19.13
  -5  -7  -9  203.68   22.51
   5  -7  -9  183.78   21.87
   5  -7  -9  188.40   21.73
  -5   7   9  183.49   23.09
   5   7   9  150.65   18.58
   5  -7   9  193.72   21.80
  -5  -7 -10   11.27    5.18
  -5  -7  10    3.86    4.90
   5  -7  10   -0.86    2.80
   5  -7 -10    6.24    6.81
   5  -7  10    6.07    5.67
  -5   7  10    5.67    6.57
   5  -7 -10   -0.84    3.92
   5   7  10    0.28    2.87
   5  -7  11   46.56   10.47
  -5  -7  11   55.48   11.09
   5  -7 -11   80.92   14.41
  -5  -7 -11   53.95   12.81
   5  -7 -11   79.39   14.62
  -5   7  11   58.02   13.58
   5   7  11   65.42   12.28
   5  -7  11   72.76   14.19
   5   7  12   20.14    8.14
   5  -7  12   21.33    6.67
  -5  -7  12   18.85    6.75
   5  -7  12   31.99    8.21
  -5  -7 -12   21.67    7.75
  -5   7  12   15.44    5.53
   5  -7 -12   23.84    7.66
   5  -7  13   93.40   17.23
  -5  -7 -13   59.85   13.60
  -5   7  13   97.90   17.57
   5  -7 -13   73.18   14.56
   5   7  13   90.79   15.34
   5  -7  13   72.49   13.80
  -5  -7  13   75.34   14.63
  -5  -7  14   56.03   13.11
   5  -7 -14   60.97   14.78
  -5   7  14   56.39   14.68
  -5  -7 -14   48.03   11.18
   5  -7  14   67.94   14.42
   5   7  14   69.98   13.61
   5  -7  14   84.62   14.34
   5  -7  15   24.83    9.99
  -5  -7  15   19.22    8.45
   5   7  15   24.63    8.60
   5  -7  15   29.50   10.79
  -5  -7 -15   11.33    4.76
  -5   7  15   19.20    9.37
   5  -7 -15   18.12    8.21
  -5   7  15   21.21    8.40
  -5  -7  16   24.87    9.69
   5   7  16   26.02    9.85
   5  -7  16   15.25    6.77
  -5  -7 -16   19.91    7.99
  -5   7  16   23.55    8.15
   5  -7 -16   21.50    6.87
  -5   7  16   18.96    4.92
  -5  -7  17    7.56    5.21
   5   7  17    1.50    3.41
   5  -7  17    0.40    0.78
  -5  -7 -17    2.54    5.40
  -5   7  17   -1.39    4.36
   5  -7 -17    5.82    3.23
  -5  -7  17   12.66    9.22
  -5   7  17    4.68    1.95
   5  -7  18   -1.62    4.50
   5   7  18   -0.71    4.19
  -5  -7 -18   -1.47    5.23
   5  -7 -18    9.98    5.39
  -5   7  18    5.18    6.65
  -5  -7  18   15.38    9.22
  -5   7  18   -2.46    3.82
  -5  -7  18    0.04    4.45
   5   7  19   -1.82    6.38
  -5  -7 -19    7.51    5.62
  -5   7  19    1.66    5.61
   5  -7 -19    5.00    5.83
  -5  -7  19   11.22    8.25
  -5   7  19    2.57    4.00
   5  -7  19    0.40    2.96
   5   7  20   -5.05    7.49
  -5  -7 -20   -1.04    6.26
  -5   7  20    1.90    5.02
   5  -7 -20    3.21    2.72
  -5  -7  20    1.52    4.27
  -5   7  20    1.98    6.36
   5  -7  20    0.67    5.08
   5   7  21   16.44    7.62
  -5  -7 -21   11.38    6.84
  -5   7  21    3.55    4.43
   5  -7 -21    9.68    8.08
  -5  -7  21    5.34    3.05
  -5   7  21    5.56    6.68
   5  -7  21   13.65    8.35
   5   7  22   -2.48    6.63
  -5  -7 -22    8.65    5.66
  -5   7  22    1.66    1.19
   5  -7 -22  -11.22    8.64
  -5  -7  22    8.50    8.71
  -5   7  22    3.89    3.45
   5  -7  22    3.90    8.48
   5  -7  22    9.60    8.94
   5   7  23    0.99    2.25
  -5  -7 -23   -2.79    3.36
  -5   7  23   -2.24    4.46
   5  -7 -23    9.32    8.38
  -5  -7  23   -2.19    5.99
   5  -7  23   15.39    8.67
  -5   7  23    2.42    3.73
   5  -7  23   -1.63    5.80
   5   7  24   -3.36    6.67
  -5  -7 -24   11.18    5.76
  -5   7  24   21.27    9.28
   5  -7 -24    9.16    5.10
  -5  -7  24    8.24    7.26
   5  -7  24   18.98    9.53
  -5   7  24   -0.03    3.71
   5  -7  24   16.73    6.37
   5   7  25   17.55    6.19
  -5  -7 -25   26.76   13.94
  -5   7  25   10.14    6.67
   5  -7 -25   -4.02    3.78
  -5  -7  25    7.39    4.06
   5  -7  25    9.26    4.53
  -5   7  25   13.64    7.69
   5  -7  25    7.03    3.37
   5   7  26    6.32    1.52
  -5   7  26   10.85    5.54
   5  -7 -26   -0.49    0.89
   5  -7  26    0.75    5.47
  -5  -7  26   -6.14    8.23
  -5   7  26   10.67    7.81
   5  -7  26    1.77    2.72
  -5  -8   0    2.73    1.85
   5  -8   0   -2.97    3.82
   5  -8   0   -0.74    3.80
  -5  -8   1  607.00   40.40
  -5  -8  -1  601.28   40.07
   5  -8   1  636.83   39.03
   5  -8  -1  624.68   38.33
   5  -8   1  645.34   41.06
   5  -8  -1  664.41   41.83
  -5  -8   2  132.16   19.04
   5  -8   2  111.96   15.84
  -5  -8  -2  103.83   16.76
   5  -8  -2  105.04   15.79
   5  -8   2  121.49   18.64
  -5   8   2  108.35   17.37
   5  -8  -2  120.52   18.68
   5  -8  -3   -0.76    2.85
  -5  -8   3    1.04    1.46
   5  -8   3    3.41    3.68
   5  -8   3   -3.22    3.67
  -5  -8  -3    4.54    5.57
   5  -8  -3    1.72    3.43
  -5   8   3    0.04    2.27
   5  -8   4   21.16    9.24
  -5  -8   4   19.15    8.87
   5  -8   4   29.49    7.48
   5  -8  -4   24.37    9.44
  -5  -8  -4   23.86    8.87
   5  -8  -4   17.82    6.50
  -5   8   4   20.80    8.45
  -5  -8   5 1073.16   54.73
   5  -8   5 1082.28   50.64
  -5  -8  -5  945.94   50.70
   5  -8   5 1036.03   52.47
   5  -8  -5 1042.87   51.14
  -5   8   5 1024.95   55.96
   5  -8  -5 1104.29   55.28
  -5  -8   6   30.23    8.98
   5  -8   6   23.85    6.87
  -5  -8  -6   20.35    7.15
   5  -8  -6   16.18    6.54
  -5   8   6   22.31    8.27
   5   8   6   11.49    5.12
   5  -8  -6   24.67    8.21
   5  -8   6   27.02    8.62
   5  -8  -7   -1.88    4.81
  -5  -8   7   12.95    6.01
   5  -8   7    1.38    3.45
  -5  -8  -7    8.37    5.84
   5  -8  -7    3.28    3.65
  -5   8   7    6.38    5.90
   5  -8   7    1.14    0.38
   5   8   7    0.98    2.11
  -5  -8   8   14.97    7.25
   5  -8   8   30.01    7.74
   5  -8  -8   28.53    8.69
  -5  -8  -8   19.11    8.48
   5  -8  -8   24.72    7.69
  -5   8   8   26.93    9.19
   5  -8   8    8.04    3.24
   5   8   8   21.58    7.30
  -5  -8   9  546.07   39.58
   5  -8   9  561.83   38.03
   5  -8  -9  544.75   39.40
  -5  -8  -9  479.07   36.95
   5  -8  -9  496.60   35.72
  -5   8   9  524.69   40.65
   5   8   9  511.04   34.66
   5  -8   9  504.30   37.49
  -5  -8  10   74.80   14.34
   5  -8  10   77.94   14.64
   5  -8 -10   70.73   14.52
  -5  -8 -10   76.93   14.95
  -5   8  10   83.08   16.36
   5  -8 -10   53.67   13.11
   5   8  10   92.04   15.29
   5  -8  10   72.92   13.97
  -5  -8  11   56.46   12.24
   5  -8  11   30.71    8.95
   5  -8  11   37.57   10.60
  -5  -8 -11   24.45    9.02
  -5   8  11   29.02   10.08
   5  -8 -11   51.05   12.44
   5   8  11   40.79    9.91
   5  -8 -11   37.92   10.55
   5  -8  12   27.97    8.66
  -5  -8  12   57.62   13.04
   5  -8 -12   54.24   13.23
   5  -8  12   54.23   11.65
  -5  -8 -12   30.64    8.42
  -5   8  12   66.68   16.13
   5  -8 -12   51.59   13.00
   5   8  12   39.94   10.80
  -5  -8 -13  193.30   24.44
   5  -8 -13  158.35   22.32
  -5   8  13  121.86   19.70
   5  -8  13  170.51   22.82
   5   8  13  156.38   21.51
   5  -8  13  148.96   20.68
  -5  -8  13  185.21   23.07
   5  -8  14   -8.15    7.85
  -5  -8  14   -4.62    6.18
   5  -8  14    2.01    3.71
  -5  -8 -14    1.24    0.92
  -5   8  14    2.09    4.16
   5  -8 -14    2.12    4.24
   5   8  14    0.06    4.30
   5  -8  15    2.36    2.79
  -5  -8  15    3.15    1.17
  -5   8  15   16.11    7.49
   5  -8  15   14.19    7.03
  -5  -8 -15    8.75    6.56
   5  -8 -15    9.05    7.62
   5   8  15   10.92    3.70
   5  -8  16    7.41    2.79
  -5  -8  16    4.54    2.18
   5  -8  16    5.39    6.98
  -5  -8 -16   -0.76    6.51
  -5   8  16    6.75    6.39
   5  -8 -16   -3.06    2.66
   5   8  16    0.28    0.25
  -5  -8 -17  129.32   20.57
   5  -8 -17  100.89   18.11
  -5   8  17  107.16   18.92
   5  -8  17  134.71   20.79
   5   8  17  108.37   18.60
   5  -8  17  104.81   17.99
  -5  -8  17  115.79   18.85
   5   8  18    4.18    2.78
  -5  -8  18    1.28    4.64
   5  -8  18    2.57    4.54
  -5   8  18    1.91    3.50
   5  -8 -18   -5.66    5.48
  -5   8  18    2.76    1.94
  -5  -8 -18   -0.02    5.42
  -5  -8 -19   89.97   18.01
   5  -8 -19   83.49   18.35
  -5   8  19  100.30   19.24
   5  -8  19   89.63   17.17
  -5   8  19  111.07   19.76
   5   8  19  120.41   20.17
  -5  -8  19  107.02   19.36
   5   8  20   -0.10    4.00
  -5  -8 -20    4.23    5.02
  -5   8  20    7.08    2.11
   5  -8 -20    9.50    9.40
  -5   8  20    7.90    5.23
   5  -8  20    2.22    5.78
   5   8  21   41.25   12.26
  -5  -8 -21   17.89    9.63
  -5   8  21   33.50   10.95
   5  -8 -21   34.72   11.28
  -5   8  21   34.96   12.38
   5  -8  21   28.08    9.92
   5   8  22   16.15    7.28
  -5  -8 -22    1.70    4.27
  -5   8  22    1.07    3.20
   5  -8 -22    9.20    5.01
  -5   8  22    7.17    6.68
   5  -8  22   11.83    9.84
   5  -8  22    0.54    5.49
  -5   8  23  106.94   20.37
  -5  -8 -23   62.29   17.18
   5  -8 -23   87.92   18.72
   5   8  23   96.04   19.59
  -5   8  23   73.33   15.13
   5  -8  23   87.19   18.42
   5  -8  23   75.46   15.62
  -5  -8 -24   -1.83    3.18
  -5   8  24    4.03    2.50
   5  -8 -24   -3.21    3.29
  -5   8  24    0.45    2.54
   5  -8  24   -0.87    3.35
   5  -8  24    5.71    5.25
   5   8  25   15.88    9.11
  -5  -8 -25   28.19   15.56
  -5   8  25   -0.89    4.88
   5  -8 -25    8.71    6.90
   5  -8  25    4.45    6.39
  -5   8  25    6.95    7.39
   5  -8  25    7.01    6.95
  -5  -9   0   -1.57    2.52
   5  -9   0   -1.38    3.31
   5  -9   0   -2.99    3.91
  -5  -9   1  259.35   27.89
  -5  -9  -1  280.25   28.76
   5  -9   1  240.02   25.27
   5  -9  -1  259.30   25.88
   5  -9  -1  220.11   24.89
   5  -9   1  281.42   28.48
  -5  -9   2   18.79    8.87
   5  -9   2    5.83    1.53
  -5  -9  -2    1.69    4.00
   5  -9  -2    9.65    5.94
   5  -9   2    5.59    5.97
   5  -9  -2   16.21    7.03
   5  -9  -3    7.52    4.68
  -5  -9   3    3.62    1.66
   5  -9   3    5.33    3.64
   5  -9   3    9.00    3.67
  -5  -9  -3    7.86    5.63
   5  -9  -3   12.12    3.86
  -5   9   3    4.79    5.40
   5  -9   4   44.81   11.30
  -5  -9   4   45.02   11.44
   5  -9  -4   51.88   12.91
   5  -9   4   49.73   12.25
  -5  -9  -4   42.66   10.91
   5  -9  -4   41.69   11.40
  -5   9   4   37.21   10.84
   5  -9   5   45.99   10.52
   5  -9   5   63.93   13.33
  -5  -9  -5   61.72   14.02
  -5  -9   5   48.73   12.50
   5  -9  -5   60.73   13.69
   5  -9  -5   43.03   11.17
  -5   9   5   27.85    8.03
  -5  -9   6  144.61   20.17
   5  -9   6  132.93   18.63
   5  -9   6  107.42   17.28
  -5  -9  -6  137.46   20.17
   5  -9  -6  134.17   19.06
  -5   9   6  149.78   22.89
   5  -9  -6  105.74   17.14
  -5  -9   7   -1.34    3.60
   5  -9   7    0.10    0.92
  -5  -9  -7   -1.87    1.59
   5  -9  -7    5.67    6.25
  -5   9   7    5.28    4.48
   5  -9   7   -3.38    0.40
   5  -9  -7    2.19    2.60
   5  -9  -8   16.71    8.31
  -5  -9   8    4.80    4.37
   5  -9   8   16.69    6.00
  -5  -9  -8   17.52    6.16
   5  -9  -8   10.23    6.51
  -5   9   8   22.79    7.57
   5  -9   8   13.08    6.33
   5   9   8   17.17    6.96
  -5  -9   9   26.35    9.50
   5  -9   9   31.80    9.25
   5  -9  -9   24.20    9.02
  -5  -9  -9   26.14    7.78
   5  -9  -9   37.26   11.42
   5  -9   9   25.95    8.16
   5   9   9   17.20    8.15
  -5   9   9   23.71   10.77
  -5  -9  10   16.04    6.81
   5  -9  10    8.99    5.04
  -5  -9 -10    6.75    2.38
   5  -9 -10    9.23    5.74
  -5   9  10   14.28    8.98
   5  -9  10   18.03    8.92
   5  -9 -10   14.65    5.86
   5   9  10    8.61    4.99
  -5  -9  11   30.99    9.70
   5  -9  11   22.96    8.71
   5  -9 -11   24.66    8.91
  -5  -9 -11   11.16    6.14
   5  -9  11   28.16    9.41
   5  -9 -11   18.47    5.74
  -5   9  11   24.26    9.22
   5   9  11   44.79   11.70
   5  -9  12   62.62   13.31
  -5  -9  12   48.47   13.62
   5  -9 -12   83.43   17.10
   5  -9 -12  102.97   18.32
  -5  -9 -12   44.01   12.68
  -5   9  12   92.18   17.43
   5  -9  12  104.34   18.57
   5   9  12   68.16   13.73
   5  -9  13   -2.76    2.34
  -5  -9  13    7.30    4.79
   5  -9 -13   -1.16    2.91
   5  -9  13    1.22    5.11
  -5  -9 -13   -2.19    4.98
   5  -9 -13    4.38    4.09
  -5   9  13    7.77    5.23
   5   9  13   -0.67    2.48
   5  -9  14    3.44    4.91
  -5  -9  14    2.76    1.96
   5  -9  14    8.07    4.35
   5  -9 -14    0.56    4.35
  -5  -9 -14   15.56    6.95
   5  -9 -14   22.14    7.83
  -5   9  14    2.33    4.85
   5   9  14   -2.57    2.20
   5  -9  15   29.96    8.91
  -5  -9  15   21.10    9.58
   5  -9  15   29.25   10.78
  -5  -9 -15   37.94   13.03
  -5   9  15   24.31    7.63
   5  -9 -15   29.52    9.62
   5   9  15   20.41    9.27
   5  -9  16   43.44   12.09
  -5  -9  16   24.58    8.27
  -5   9  16   28.13    7.79
   5  -9  16   25.09    7.20
  -5  -9 -16   42.77   13.12
   5  -9 -16   27.50    8.98
   5   9  16   27.15    8.41
   5  -9  17   14.24    8.26
  -5  -9  17    9.37    5.73
   5  -9  17   12.82    6.40
  -5  -9 -17   10.39    4.99
   5  -9 -17    6.65    3.24
  -5   9  17    3.65    6.04
   5   9  17    2.11    2.60
  -5  -9  18    1.07    1.78
   5  -9  18   -1.53    2.36
  -5  -9 -18   -0.16    0.52
  -5   9  18   -3.81    5.62
   5  -9 -18    2.52    7.44
   5   9  18   -4.15    5.07
   5  -9  18    3.31    5.69
  -5  -9  19    3.23    2.64
   5  -9  19    0.78    4.46
  -5  -9 -19    3.01    6.14
  -5   9  19    5.20    0.87
   5  -9 -19    1.43    2.28
   5   9  19    5.29    7.63
   5  -9  20   14.18    5.92
  -5  -9 -20   18.84    8.39
  -5   9  20   19.57    7.81
   5  -9 -20   18.57    9.45
  -5  -9  20   26.44    9.83
   5   9  20   21.75    9.50
  -5  -9 -21    5.60    5.95
  -5   9  21    2.36    5.79
   5  -9 -21    1.60    1.79
  -5   9  21    2.40    6.13
   5   9  21   15.85    8.11
   5  -9  21   -1.14    0.50
  -5  -9 -22   -5.02    3.65
  -5   9  22    5.20    8.54
   5  -9 -22    0.51    3.97
  -5   9  22    1.25    5.95
   5  -9  22   -1.62    4.42
   5  -9  22   -0.74    4.64
   5   9  22   -0.03    3.75
  -5  -9 -23    0.65    1.82
  -5   9  23   -1.42    1.98
   5  -9 -23    5.49    5.49
  -5   9  23   13.95   10.45
   5  -9  23    0.73    2.43
   5  -9  23   -2.14    2.84
   5   9  23    7.49    6.93
  -5   9  24    5.56    7.53
   5  -9 -24    9.72    7.91
  -5   9  24   -5.16    6.85
   5  -9  24   10.43    7.38
  -5  -9 -24    4.75    5.58
   5  -9  24    0.50    2.29
   5   9  24    4.35    5.52
  -5 -10   0    3.42    3.09
   5 -10   0   -0.59    2.39
   5 -10   0   -0.21    5.19
  -5 -10   1   62.61   14.51
  -5 -10  -1   54.68   14.22
   5 -10   1   46.13   12.95
   5 -10  -1   55.90   12.01
   5 -10   1   43.45    9.77
   5 -10  -1   45.68   13.13
  -5 -10   2  147.47   22.33
   5 -10   2  172.59   22.67
  -5 -10  -2  120.06   20.13
   5 -10  -2  118.87   18.85
   5 -10   2  187.48   24.11
   5 -10  -2  130.06   20.07
  -5 -10   3  138.45   21.06
   5 -10   3  132.62   20.36
  -5 -10  -3  124.98   19.95
   5 -10  -3  124.17   19.22
   5 -10   3  123.96   19.34
   5 -10  -3  106.06   18.59
  -5 -10   4  258.83   29.01
   5 -10   4  243.44   26.75
  -5 -10  -4  250.36   29.38
   5 -10  -4  259.18   27.91
   5 -10   4  331.61   30.57
   5 -10  -4  262.15   29.17
  -5 -10   5  198.37   25.51
   5 -10   5  208.55   24.31
  -5 -10  -5  260.14   28.61
   5 -10   5  192.42   24.19
   5 -10  -5  237.36   27.38
  -5  10   5  217.73   24.96
   5 -10  -5  230.68   26.31
  -5 -10   6  151.79   21.86
   5 -10   6  170.24   22.17
   5 -10   6  195.84   24.18
  -5 -10  -6  173.74   23.42
   5 -10  -6  192.73   24.41
  -5  10   6  190.04   24.63
   5 -10  -6  159.66   22.36
  -5 -10   7   -0.78    4.11
   5 -10   7    4.16    0.56
  -5 -10  -7    5.03    6.20
   5 -10  -7    1.15    3.85
  -5  10   7   -0.41    5.10
   5 -10  -7    0.18    1.72
   5 -10   7    2.76    3.29
  -5 -10   8   18.30    5.04
   5 -10   8   18.11    8.51
  -5 -10  -8    7.97    6.94
   5 -10  -8   12.31    6.07
  -5  10   8   15.95    8.85
   5 -10   8   20.55    9.43
   5 -10  -8   17.06    7.19
   5 -10  -9   -0.54    5.48
   5 -10  -9    1.66    4.64
  -5 -10   9   -0.16    4.02
   5 -10   9    8.03    6.45
  -5 -10  -9    0.62    4.69
  -5  10   9    1.42    6.78
   5 -10   9   -1.60    5.48
  -5 -10  10    3.80    6.60
   5 -10  10    3.53    3.05
   5 -10 -10   -2.04    3.22
  -5 -10 -10   -0.31    3.00
  -5  10  10    7.80    7.75
   5 -10  10    6.78    7.21
   5 -10 -10   -1.14    3.61
   5  10  10   -1.72    6.43
  -5 -10  11   41.38   11.09
   5 -10  11   41.34   11.71
  -5 -10 -11   33.46   10.32
   5 -10  11   42.77   12.80
   5 -10 -11   35.50   11.22
  -5  10  11   63.19   14.91
   5 -10 -11   42.11   11.81
   5  10  11   56.74   13.98
  -5 -10  12   12.32    5.25
   5 -10  12   29.61   10.43
  -5 -10 -12   19.34    7.90
   5 -10  12   17.83    6.93
   5 -10 -12    5.72    1.94
  -5  10  12    2.57    4.81
   5  10  12   25.06    8.57
   5 -10 -12   16.72    7.82
   5 -10  13   40.01   10.82
  -5 -10  13   65.82   15.03
   5 -10 -13   58.60   14.39
   5 -10  13   46.31   12.84
  -5 -10 -13   56.83   15.07
  -5  10  13   74.64   16.72
   5 -10 -13   77.81   14.61
   5  10  13   51.27   13.56
   5 -10  14    3.70    4.24
  -5 -10  14   -2.95    4.46
   5 -10  14    4.93    7.53
  -5 -10 -14   -0.92    7.35
   5 -10 -14    4.83    5.67
  -5  10  14    3.50    5.36
   5 -10 -14   -3.35    1.49
   5  10  14    4.67    4.00
   5 -10  15   -2.53    4.01
  -5 -10  15    0.12    5.05
   5 -10 -15   -0.19    4.64
   5 -10  15    0.19    5.32
  -5 -10 -15    3.09    4.89
   5 -10 -15   -1.26    1.47
  -5  10  15   -5.69    6.31
   5  10  15    1.69    3.47
   5 -10  16   53.82   13.24
  -5 -10  16   45.18   14.02
   5 -10 -16   60.57   15.89
  -5 -10 -16   51.14   14.24
   5 -10 -16   52.44   14.89
  -5  10  16   58.08   15.89
   5 -10  16   70.80   16.68
   5  10  16   68.56   15.60
   5 -10  17    2.14    3.07
  -5 -10  17    9.05    7.43
   5 -10  17   10.45    5.87
  -5 -10 -17    0.05    5.10
   5 -10 -17   10.79    7.65
  -5  10  17   -0.89    5.12
   5 -10 -17   13.35    6.51
   5  10  17    9.87    5.67
  -5 -10  18    7.84    6.77
  -5 -10 -18   -6.54    7.27
   5 -10  18   -4.46    6.31
   5 -10 -18    3.82    5.70
  -5  10  18    2.45    6.77
   5  10  18    2.64    4.62
  -5 -10  19    3.57    7.72
   5 -10  19    2.80    2.33
  -5 -10 -19   -2.79    4.87
   5 -10 -19   -1.44    3.36
  -5  10  19    0.17    6.82
   5  10  19   12.44    7.03
  -5 -10  20   47.95   12.53
   5 -10  20   30.97   11.25
  -5 -10 -20   22.03    8.80
   5 -10 -20   35.54   11.46
  -5  10  20   39.34   12.32
   5  10  20   29.32    8.46
   5 -10  21    6.79    5.52
  -5 -10 -21    2.20    4.34
   5 -10 -21    6.62    5.63
  -5  10  21    7.83    4.79
   5  10  21    5.58    6.46
  -5 -10  21    0.41    2.26
  -5 -10 -22   49.98   14.87
   5 -10 -22   25.70   11.69
  -5  10  22   53.06   14.34
   5  10  22   38.10   11.79
   5 -10  22   32.52   11.35
   5 -10  22   29.54   13.33
  -5 -11   0    7.13    6.25
   5 -11   0   -0.18    4.51
   5 -11   0   -2.60    3.80
  -5 -11   1   -0.44    4.16
  -5 -11  -1    0.80    4.12
   5 -11   1   -1.02    5.06
   5 -11  -1    2.32    4.75
   5 -11   1    0.16    3.21
   5 -11  -1   -6.34    5.31
  -5 -11   2   84.74   16.25
  -5 -11  -2  100.06   18.41
   5 -11  -2   81.14   16.22
   5 -11   2   79.78   15.22
   5 -11   2   58.44   12.84
   5 -11  -2   89.62   15.99
   5 -11   3   15.38    7.23
  -5 -11   3   24.69   10.58
   5 -11   3   13.70    6.04
  -5 -11  -3   26.11   10.31
   5 -11  -3   17.61    8.30
   5 -11  -3   22.98    9.54
   5 -11  -4    0.42    2.95
   5 -11   4    3.21    5.78
  -5 -11   4    0.58    1.58
   5 -11   4    1.81    4.39
  -5 -11  -4    4.72    2.53
   5 -11  -4    3.85    4.26
   5 -11   5    1.51    1.00
   5 -11  -5    6.05    0.67
  -5 -11   5   -1.98    5.94
   5 -11   5    7.04    4.85
  -5 -11  -5    4.46    5.18
   5 -11  -5    5.01    5.26
  -5 -11   6    3.06    2.45
   5 -11   6    2.68    3.94
   5 -11  -6    9.71    6.16
  -5 -11  -6    0.78    2.28
   5 -11  -6    2.54    1.06
  -5  11   6    3.66    6.75
   5 -11   6    3.69    1.84
  -5 -11   7   43.82   11.84
   5 -11   7   51.65   13.58
  -5 -11  -7   40.95   12.23
   5 -11  -7   35.07   11.36
   5 -11  -7   47.35   11.53
  -5  11   7   39.12   11.76
   5 -11   7   52.96   12.25
  -5 -11   8   12.10    6.55
   5 -11   8   18.60    9.50
  -5 -11  -8   13.38    5.85
   5 -11  -8   15.31    7.22
  -5  11   8   25.02   10.38
   5 -11  -8   17.34    7.55
   5 -11   8   18.53    7.53
  -5 -11   9   42.83   12.27
   5 -11   9   56.80   14.05
   5 -11  -9   72.72   15.56
  -5 -11  -9   49.70   11.96
  -5  11   9   68.31   15.60
   5 -11   9   55.14   13.50
   5 -11  -9   37.95   10.16
  -5 -11  10   56.03   15.42
   5 -11  10   48.43   12.58
  -5 -11 -10   23.02    8.51
   5 -11 -10   23.46    8.47
   5 -11  10   41.54   11.55
   5 -11 -10   25.30   10.41
  -5 -11  11   52.50   13.47
   5 -11  11   51.30   14.84
   5 -11 -11   67.93   15.49
   5 -11 -11   18.31    7.64
  -5 -11 -11   41.47   13.07
   5 -11  11   45.73   11.35
  -5  11  11   53.03   15.02
  -5 -11  12   40.17   12.77
   5 -11  12   49.67   13.42
   5 -11 -12   19.00    6.71
  -5 -11 -12   32.95   11.65
   5 -11 -12   26.35    8.48
   5 -11  12   26.60   10.24
  -5  11  12   30.23   10.85
  -5 -11  13    8.27    8.23
   5 -11  13    1.12    5.95
   5 -11  13    1.68    4.62
  -5 -11 -13    3.43    7.79
   5 -11 -13   -2.48    2.29
  -5  11  13    2.46    4.96
   5 -11 -13    1.37    5.67
   5 -11  14    1.95    3.36
  -5 -11  14    1.08    4.58
   5 -11  14    3.67    6.01
  -5 -11 -14    0.61    4.24
   5 -11 -14   -0.41    1.41
  -5  11  14   11.35    6.83
   5  11  14    9.91    8.34
   5 -11 -14   -2.25    3.29
   5 -11  15    9.70    1.18
  -5 -11  15   16.05    8.36
   5 -11 -15    1.85    3.23
   5 -11  15    4.33    3.57
  -5 -11 -15   -0.08    6.91
   5 -11 -15   14.69    8.59
  -5  11  15    2.57    2.67
   5  11  15    7.68    0.42
  -5 -11  16   20.40    8.98
   5 -11  16   42.65   11.47
  -5 -11 -16   31.36    8.89
   5 -11 -16   24.22    9.46
   5 -11 -16   35.05   11.94
  -5  11  16   21.78    9.72
   5  11  16   41.50   12.35
  -5 -11  17    0.96    5.85
   5 -11  17    5.37    4.52
  -5 -11 -17   -2.17    2.69
   5 -11 -17   -3.76    5.32
  -5  11  17    9.24    4.19
   5  11  17    7.23    6.55
   5 -11 -17    3.06    4.12
  -5 -11  18   -2.63    5.38
   5 -11  18   -1.62    3.51
  -5 -11 -18    3.62    5.62
   5 -11 -18   11.44    7.70
   5 -11 -18    7.09    6.13
  -5  11  18    7.76    4.80
   5  11  18    3.84    3.22
  -5 -11  19   -3.06    3.88
   5 -11  19   -4.72    2.02
   5 -11 -19   -0.21    1.37
  -5 -11 -19    0.80    4.55
   5 -11 -19    2.94    4.87
  -5  11  19    5.24    7.25
   5  11  19    0.66    3.16
  -5 -11  20   14.33    9.09
   5 -11  20    8.03    4.93
  -5 -11 -20   11.34    8.10
   5 -11 -20   23.58    8.00
  -5  11  20   -8.66    9.13
   5  11  20  -10.55    8.59
   5 -11 -20    0.83    2.09
   5 -11  21   -3.69    6.60
  -5 -11 -21    3.79    5.91
   5 -11 -21   -4.13    6.96
  -5  11  21   -7.66    5.98
   5  11  21    2.34    4.31
  -5 -12   0   -2.37    4.21
   5 -12   0   -9.14    9.67
   5 -12   0    6.48    5.51
  -5 -12   1    8.52    3.03
  -5 -12  -1   27.12   10.58
   5 -12   1   26.07    9.48
   5 -12  -1   23.43   10.35
   5 -12  -1   22.22    8.47
  -5 -12   2   11.09    7.38
   5 -12   2   25.36    8.81
  -5 -12  -2   15.85    6.29
   5 -12   2   19.55    9.25
   5 -12  -2   16.42    6.32
   5 -12  -2   26.48   10.53
   5 -12   3   -8.72    8.50
  -5 -12   3    5.21    6.66
   5 -12   3    2.84    3.16
  -5 -12  -3    0.34    6.27
   5 -12  -3    6.50    5.93
   5 -12  -3   -2.23    5.90
   5 -12   4   10.73    4.08
  -5 -12   4    3.34    4.82
   5 -12   4   -0.91    3.09
  -5 -12  -4    5.51    3.01
   5 -12  -4    4.09    0.93
   5 -12  -4    9.94    2.73
   5 -12  -5   33.74   11.76
  -5 -12   5   39.03   12.11
   5 -12   5   26.55    9.26
  -5 -12  -5   31.93   11.51
   5 -12  -5   52.30   14.10
   5 -12   5   33.75   11.59
   5 -12  -6    0.15    5.20
  -5 -12   6   13.04    8.30
   5 -12   6   16.47    7.28
  -5 -12  -6    8.47    7.70
   5 -12  -6   27.33   10.11
   5 -12   6   11.37    7.83
  -5 -12   7    0.91    1.79
   5 -12   7   -1.20    3.82
   5 -12  -7    0.88    5.42
  -5 -12  -7    2.76    6.30
   5 -12  -7    0.10    5.51
   5 -12   7   -1.31    2.99
  -5 -12   8   31.49   12.57
   5 -12   8   29.39   10.92
  -5 -12  -8   28.52   11.34
   5 -12  -8   40.11   11.94
   5 -12  -8   27.55    9.98
   5 -12   8   37.34   11.19
  -5  12   8   27.98    9.44
  -5 -12   9    3.92    4.46
   5 -12   9   -1.55    3.57
  -5 -12  -9    0.56    2.09
   5 -12  -9    5.87    6.83
  -5  12   9    2.30    3.20
   5 -12  -9   10.43    5.49
   5 -12   9   -4.99    6.79
  -5 -12  10   20.77   11.90
   5 -12  10   27.53   12.34
  -5 -12 -10   13.26    9.55
   5 -12 -10   16.27    6.89
  -5  12  10   16.03    7.80
   5 -12  10   10.39    5.61
   5 -12 -10    8.41    5.06
  -5  12  11    4.39    4.26
  -5 -12  11    6.49    5.42
   5 -12  11    0.32    3.17
  -5 -12 -11    3.67    7.62
   5 -12 -11   -5.38    7.36
   5 -12  11   -1.34    3.97
   5 -12 -11    3.72    4.35
   5 -12 -12   56.61   13.21
  -5 -12  12   47.92   12.26
   5 -12  12   41.39   12.66
  -5 -12 -12   43.68   14.29
   5 -12  12   46.57   13.67
   5 -12 -12   37.76   12.38
  -5  12  12   31.77   11.20
  -5 -12  13   16.62    7.55
   5 -12  13   37.72   12.35
   5 -12 -13   29.12    9.49
  -5 -12 -13   43.00   13.63
   5 -12  13   33.98   10.71
   5 -12 -13   40.15   11.79
  -5  12  13   26.82   10.95
   5 -12  14    2.70    1.18
  -5 -12  14    5.11    5.52
   5 -12  14    0.15    5.69
   5 -12 -14    2.19    6.25
  -5 -12 -14    0.34    1.00
   5 -12 -14    9.02    8.66
  -5  12  14    5.26    3.92
  -5 -12  15   -0.42    4.22
  -5  12  15    4.45    5.11
   5 -12 -15   -3.75    2.76
   5 -12  15   -1.75    4.00
  -5 -12 -15    0.32    3.87
   5 -12 -15   -3.38    6.61
  -5 -12  16    1.37    4.92
   5 -12  16    5.92    6.96
  -5 -12 -16    0.46    2.25
   5 -12 -16    3.96    4.57
  -5  12  16   11.24    8.90
   5 -12 -16   20.39    7.38
  -5 -12  17    6.46    3.95
   5 -12 -17    6.91    6.36
   5 -12  17   20.39   10.48
  -5 -12 -17   25.43   11.46
   5 -12 -17   11.80    6.06
  -5  12  17   21.55   10.58
  -5 -12  18   -1.08    5.48
   5 -12  18   14.76   10.54
   5 -12 -18    4.75    5.89
  -5 -12 -18    5.34    3.85
   5 -12 -18    2.52    6.06
  -5  12  18    8.82    2.39
  -5 -13   0   -1.10    2.96
   5 -13   0    3.23    4.65
   5 -13   0   -0.65    5.47
  -5 -13   1   23.45   10.91
  -5 -13  -1   29.59   11.47
   5 -13   1   28.11    9.65
   5 -13  -1   27.72   11.67
   5 -13   1   14.39    7.88
   5 -13  -1   24.11   11.36
  -5 -13   2    8.53    6.32
   5 -13   2    7.45    4.46
   5 -13   2    8.65    7.60
  -5 -13  -2    8.61    7.77
   5 -13  -2   10.12    1.35
   5 -13  -2   13.81    8.96
   5 -13   3    6.61    6.75
  -5 -13   3    4.67    4.56
   5 -13   3    1.48    4.29
  -5 -13  -3   16.69    7.54
   5 -13  -3    5.53    2.04
   5 -13  -3    1.17    4.90
   5 -13   4   14.05    6.37
  -5 -13   4    1.03    2.10
   5 -13   4   15.11    8.91
  -5 -13  -4   15.61    7.04
   5 -13  -4   19.65    9.48
   5 -13  -4   17.83    8.62
  -5 -13   5    2.31    6.57
   5 -13   5    1.48    4.10
  -5 -13  -5   -1.72    1.14
   5 -13  -5    0.30    1.09
   5 -13  -5   -4.30    5.79
   5 -13   5    4.31    2.21
   5 -13  -6   -5.61    5.35
  -5 -13   6    7.16    6.21
   5 -13   6    2.06    0.55
  -5 -13  -6    6.64    9.32
   5 -13  -6    4.64    7.46
   5 -13   6   -2.91    1.51
   5 -13  -7   -0.45    2.33
  -5 -13   7    0.03    6.60
   5 -13   7    0.47    4.94
  -5 -13  -7   -1.38    3.89
   5 -13  -7    5.95    5.55
   5 -13   7    2.95    2.22
  -5 -13   8   19.12   12.10
   5 -13   8   16.44    9.31
   5 -13  -8   -0.32    3.36
  -5 -13  -8    7.99    5.53
   5 -13  -8    7.39    2.78
   5 -13   8   11.94    5.92
  -5 -13   9   46.96   13.31
   5 -13   9   35.69   10.68
  -5 -13  -9   42.69   13.73
   5 -13  -9   38.11   12.88
   5 -13  -9   49.74   14.47
  -5  13   9   47.07   15.30
   5 -13   9   43.19   11.73
  -5 -13  10   18.68    8.97
   5 -13  10    0.62    4.03
  -5 -13 -10    2.22    5.49
   5 -13 -10   11.29    6.07
   5 -13 -10    5.80    5.08
  -5  13  10    4.90    2.06
   5 -13  10   10.19    6.71
  -5 -13  11   -1.08    1.21
   5 -13  11    5.52    9.07
  -5 -13 -11   -3.94    5.65
   5 -13 -11    1.41    4.50
  -5  13  11    4.40    7.83
   5 -13  11   -3.07    5.25
   5 -13 -11   -1.85    3.78
  -5 -13  12    0.86    3.02
   5 -13  12   28.58   11.53
  -5 -13 -12   18.71    8.95
   5 -13 -12   26.45    8.79
   5 -13  12   13.27    6.68
  -5  13  12   22.23    7.94
   5 -13 -12   18.67    8.71
  -5 -13  13    4.05    3.00
  -5 -13 -13    1.16    3.82
   5 -13  13    8.45    6.41
   5 -13 -13    7.33    6.34
  -5  13  13    8.05    4.65
   5 -13 -13   -2.02    4.43
   5 -13 -14   42.27   12.66
  -5 -13  14   19.32   10.03
   5 -13  14   23.67    9.01
  -5 -13 -14   35.66   13.51
   5 -13 -14   13.14    4.37
  -5  13  14   22.53   11.59
  -5 -13  15    4.27    5.22
   5 -13 -15    0.08    6.09
   5 -13  15   -1.77    5.17
  -5 -13 -15    1.70    4.61
  -5  13  15   -8.27    7.72
   5 -13 -15   -0.17    2.89
  -5 -13  16   10.83    4.88
   5 -13  16    3.66    6.75
   5 -13 -16   -7.45    4.12
  -5 -13 -16   -4.25    4.92
   5 -13 -16   -5.22    4.98
  -5 -14   0   -2.57    6.21
   5 -14   0   -1.37    0.90
   5 -14   0    1.98    6.46
  -5 -14   1   11.47    7.39
  -5 -14  -1   -0.03    4.96
   5 -14   1   14.23    4.20
   5 -14   1    9.65    7.90
   5 -14  -1   -4.14    8.29
   5 -14  -1   15.74    8.09
   5 -14   2   16.98    4.89
  -5 -14   2   17.84   10.24
   5 -14   2    3.17    3.41
  -5 -14  -2   10.00    7.25
   5 -14  -2   15.91    8.82
   5 -14  -2   10.27    6.60
   5 -14   3    2.47    2.12
  -5 -14   3    6.52    6.19
   5 -14   3   -1.41    6.20
  -5 -14  -3    8.31    6.71
   5 -14  -3   -1.53    5.68
   5 -14  -3    1.01    6.05
   5 -14   4    4.32    4.59
  -5 -14   4    2.00    4.71
   5 -14   4    1.68    5.82
  -5 -14  -4   -1.96    4.25
   5 -14  -4    5.07    7.00
   5 -14  -4    2.38    1.32
  -5 -14   5   39.68   12.56
   5 -14   5   50.46   13.87
  -5 -14  -5   13.87    2.75
   5 -14  -5   29.83   10.42
   5 -14  -5   51.16   14.76
   5 -14   5   44.90   12.80
  -5 -14   6   -0.03    4.65
   5 -14   6   -2.79    5.22
  -5 -14  -6   -2.30    2.78
   5 -14  -6    5.04    7.09
   5 -14   6   -1.53    4.04
   5 -14  -6    0.44    1.23
  -5 -14   7    2.43    6.17
   5 -14   7    8.35    7.72
  -5 -14  -7    7.03    4.59
   5 -14  -7    8.12    7.05
   5 -14   7    3.52    5.60
   5 -14  -7    2.82    7.11
   5 -14  -8    1.05    1.33
  -5 -14   8    9.91    4.53
  -5 -14  -8    3.38    4.49
   5 -14  -8    0.85    3.11
   5 -14   8   12.08    5.28
  -5 -14   9    7.96    6.73
   5 -14   9    7.82    4.65
   5 -14  -9   11.66    5.12
  -5 -14  -9   10.29    6.02
   5 -14  -9    5.97    2.68
   5 -14   9    8.81    5.73
  -5 -14  10   12.23    6.66
   5 -14 -10   11.73    6.97
  -5 -14 -10   14.65    7.62
   5 -14 -10   21.77    6.14
   5 -14  10   22.40   10.40
  -5 -14  11    1.67    6.41
  -5 -14 -11    4.47    7.35
   5 -14 -11    2.13    3.61
   5 -14 -11    7.32    4.72
   5 -14  11   -7.25    7.26
  -5 -14  12   -1.75    5.25
  -5 -14 -12    0.55    4.89
   5 -14 -12   -4.08    1.53
   5 -14  12   -0.03    0.70
   5 -14 -12    0.23    4.11
  -5 -15   0    3.14    1.54
   5 -15   0    1.27    5.12
   5 -15   0    1.73    3.96
   5 -15   1   10.67    6.86
  -5 -15   1    4.10    0.60
  -5 -15  -1    9.23    8.97
   5 -15  -1   -1.58    5.43
   5 -15  -1    0.36    3.52
   5 -15   2   10.23    5.51
  -5 -15   2    8.82    7.35
   5 -15   2   21.57   10.85
  -5 -15  -2   -0.03    6.27
   5 -15  -2   14.53    9.06
   5 -15  -2   13.95    8.54
   5 -15   3   14.16    7.63
  -5 -15   3    8.25    7.87
   5 -15   3   -0.53    2.14
  -5 -15  -3    5.09    4.49
   5 -15  -3    9.75    7.23
   5 -15  -3    2.98    3.39
  -5 -15   4    3.73    2.17
   5 -15   4   14.08    9.13
  -5 -15  -4   11.05    6.07
   5 -15  -4    0.37    1.26
   5 -15  -4    3.46    5.56
   5 -15   4    0.59    4.13
  -5 -15   5    5.62   10.01
   5 -15   5    8.00    9.35
  -5 -15  -5    5.03    7.34
   5 -15  -5   -5.27    4.50
   5 -15  -5   -7.25    9.10
   5 -15   5   -3.93    6.61
  -5 -15   6    7.28    8.72
   5 -15   6    4.24    6.34
  -5 -15  -6   10.97    6.98
   5 -15  -6    7.47    6.11
   5 -15  -6    3.76    0.80
   5 -15   6    8.28    5.24
  -6   0   0 4087.57   90.95
   6   0   0 4247.50   63.73
   6   0   1   -0.79    2.42
  -6   0   1   -2.49    2.04
   6   0  -1    4.79    2.82
   6   0  -2  168.68   12.07
   6   0   2  142.58   12.55
   6   0   3   -0.43    1.28
   6   0  -3   -1.97    1.98
  -6   0   3    1.56    2.03
   6   0  -4  824.29   28.01
  -6   0   4  881.00   43.02
   6   0   4  913.84   34.53
  -6   0   5    0.28    2.98
   6   0  -5   -0.12    2.55
   6   0   5    0.12    1.75
   6   0   6  213.09   18.06
  -6   0   6  249.94   22.77
   6   0  -6  216.06   16.10
   6   0  -7   -0.35    1.52
  -6   0   7   -2.61    1.73
   6   0   8 1476.74   51.40
  -6   0   8 1532.89   57.65
  -6   0   9    2.11    3.60
   6   0   9   -0.60    1.02
   6   0  10 1737.93   59.78
  -6   0  10 1766.36   50.27
  -6   0  11    1.23    2.23
   6   0  11    2.01    3.50
  -6   0  11    1.65    2.37
   6   0  12   30.19    7.18
  -6   0  12   37.24    8.72
  -6   0  13   -3.45    3.30
   6   0  13   -1.06    4.07
  -6   0  13   -2.99    2.79
   6   0  14  756.94   44.52
  -6   0  14  760.99   39.70
  -6   0  15   -3.11    4.21
   6   0  15    0.77    2.90
   6   0  16   13.04    6.55
  -6   0  16    7.10    4.24
   6   0  17   -0.85    3.93
  -6   0  17   -2.42    1.84
   6   0  18   70.70   13.32
  -6   0  18   68.15   15.03
   6   0  19   -3.10    4.65
  -6   0  19    3.67    4.74
   6   0  19   -1.37    4.83
   6   0  20    2.02    4.46
  -6   0  20   17.06    8.29
   6   0  20   30.62   10.84
   6   0  21   -3.73    3.84
  -6   0  21    6.20    4.41
   6   0  21    1.17    2.28
   6   0  22   73.21   15.49
  -6   0  22   97.75   17.63
   6   0  22   70.20   15.90
   6   0  23    0.82    2.87
  -6   0  23    1.53    1.68
   6   0  23    5.26    6.87
   6   0  24   51.62   12.57
  -6   0  24   42.01   12.61
   6   0  24   37.91   12.56
   6   0  25   -0.68    1.94
  -6   0  25    0.38    1.56
   6   0  25   -1.73    5.67
   6   0  26   85.46   17.68
  -6   0  26   73.26   16.91
   6   0  26   69.71   16.66
   6   0  27   -1.38    3.31
  -6   0  27    2.37    5.42
   6   0  27    6.34    6.37
   6   0  28   13.96    6.52
  -6   0  28    4.47    4.41
   6   0  28   -5.10    3.39
   6   0  29   -0.19    5.11
  -6   0  29   -1.10    1.32
   6   0  29   -2.18    6.11
   6  -1   0   26.68    5.97
   6   1   0   34.64    5.02
  -6  -1   0   26.37    7.55
  -6   1   0   47.42    9.34
   6  -1  -1   43.61    7.04
   6   1   1   34.34    5.29
  -6   1   1   48.49   10.64
  -6  -1   1   24.80    8.30
   6   1  -1   39.02    4.60
   6  -1   1   40.29    7.20
   6   1  -2   -0.23    0.38
   6  -1  -2    1.20    1.01
   6  -1   2    1.60    1.26
  -6  -1   2    1.01    1.55
   6  -1  -2   -0.88    0.76
   6   1   2    2.04    1.95
   6  -1   3    6.67    4.08
   6   1  -3    3.23    1.18
   6  -1  -3    2.88    2.63
  -6   1   3    3.22    1.62
  -6  -1   3    7.47    4.37
   6   1   3    2.62    1.42
   6   1  -4  254.06   11.30
   6   1   4  238.68   16.94
  -6   1   4  335.24   27.44
  -6  -1   4  210.35   20.68
   6  -1  -4  226.85   17.52
   6  -1   4  324.59   22.05
   6  -1   5    7.34    3.85
   6  -1  -5    3.03    2.40
  -6   1   5    6.51    4.82
  -6  -1   5    7.08    5.00
   6   1   5    3.66    3.01
   6   1   6  152.22   15.17
  -6  -1   6  217.35   21.11
   6  -1   6  196.28   18.28
   6   1  -6  149.56   10.66
   6  -1  -6  167.68   15.26
   6  -1   7   27.22    7.15
   6  -1  -7   39.73    7.57
  -6   1   7   50.28   11.34
  -6  -1   7   28.96    8.21
   6   1   7   35.30    7.05
   6   1  -7   36.28    5.19
  -6   1   8   13.90    4.63
  -6  -1   8   18.09    6.01
   6   1   8    4.09    1.26
   6   1  -8    7.16    2.35
   6  -1  -8   13.19    4.65
   6  -1   8    9.21    2.99
  -6   1   9   18.74    6.99
   6   1   9   19.04    6.40
  -6  -1   9   17.44    7.26
   6  -1   9    3.76    1.75
   6   1  10    0.73    1.68
  -6   1  10    5.11    6.42
  -6  -1  10    4.95    4.75
  -6   1  10    1.69    1.54
   6  -1  10    0.51    1.21
   6   1  11    8.05    4.58
  -6   1  11   -1.22    3.54
  -6  -1  11    1.20    1.60
  -6   1  11    4.06    3.41
   6  -1  11   11.72    5.07
   6   1  12   44.25   10.21
  -6   1  12   42.78   11.08
  -6  -1  12   40.47    9.98
   6  -1  12   32.44    8.93
  -6   1  12   33.09    8.26
   6  -1  13  367.60   31.33
  -6   1  13  359.89   30.73
  -6  -1  13  352.90   29.58
  -6   1  13  295.36   24.60
   6   1  14  347.22   29.08
   6  -1  14  303.44   28.35
  -6   1  14  328.82   29.71
  -6  -1  14  267.35   26.48
  -6   1  14  331.93   26.11
   6   1  15   90.41   14.89
  -6   1  15   86.88   16.35
  -6  -1  15   70.00   13.75
   6  -1  15   62.34   11.71
  -6   1  15   80.45   13.31
   6   1  16    3.15    3.76
  -6   1  16    9.54    7.70
  -6  -1  16    2.00    1.60
   6  -1  16    1.64    1.37
  -6   1  16    4.59    3.36
   6   1  17   32.79   10.06
   6  -1  17   26.40    8.26
  -6   1  17   21.10    8.03
  -6  -1  17   33.78    9.43
  -6   1  17   31.07    8.93
   6   1  18   -2.02    4.85
   6  -1  18   12.26    6.11
  -6   1  18   11.21    6.58
  -6  -1  18   12.69    5.44
  -6   1  18    6.21    2.61
   6   1  18    6.55    3.69
   6  -1  19  128.35   19.61
  -6   1  19  119.99   18.74
  -6  -1  19  123.92   19.51
  -6   1  19  138.41   20.02
   6   1  19  136.08   20.49
   6   1  20    0.24    1.27
   6  -1  20   -1.76    3.21
  -6   1  20    1.37    3.53
  -6  -1  20    8.96    7.76
   6   1  20   10.45    8.29
   6  -1  20   -1.91    3.18
   6   1  21  104.53   18.11
   6  -1  21  118.62   19.39
  -6   1  21   87.15   17.55
  -6  -1  21   94.20   17.57
   6   1  21  100.02   17.33
   6  -1  21   76.99   15.43
   6   1  22    1.50    3.32
   6  -1  22   -0.91    2.11
  -6   1  22    3.96    7.84
  -6  -1  22    5.71    6.76
   6   1  22    1.23    4.82
   6  -1  22   -0.81    0.87
   6   1  23    5.05    4.06
   6  -1  23    8.64    5.50
  -6   1  23   -2.81    5.52
  -6  -1  23   -1.68    4.14
   6   1  23   -2.51    6.49
   6  -1  23    9.37    6.89
   6   1  24    0.30    4.48
   6  -1  24   11.28    7.39
  -6   1  24    8.44    7.02
  -6  -1  24    3.94    2.26
   6   1  24    3.86    5.84
   6  -1  24    4.56    5.27
   6   1  25   20.73    8.48
   6  -1  25    8.25    7.15
  -6   1  25    7.84    6.38
  -6  -1  25   34.46   11.34
   6   1  25   17.51    8.45
   6  -1  25   16.54    7.90
   6   1  26    2.89    1.37
   6  -1  26    3.45    4.16
  -6   1  26    9.82    3.25
  -6  -1  26   -0.13    8.01
   6   1  26    2.89    3.70
   6  -1  26    0.74    1.59
   6   1  27   15.85   10.00
   6  -1  27    6.51    4.13
  -6   1  27   14.91    7.82
  -6  -1  27    2.44    5.12
   6   1  27    1.68    5.58
   6  -1  27    4.45    7.99
   6   1  28   -6.82    8.10
   6  -1  28    2.47    1.38
  -6   1  28   -3.13    5.74
  -6  -1  28    0.03    5.24
   6   1  28    1.34    4.00
   6  -1  28    0.60    1.00
   6   2   0  193.35    7.74
   6  -2   0  236.38   18.66
  -6  -2   0  226.10   20.18
  -6   2   0  240.93   22.66
  -6  -2   0  277.45   15.21
   6  -2   1  164.13   15.79
   6   2   1  160.53    9.34
   6  -2  -1  137.46    7.94
   6  -2  -1  152.03   14.85
  -6   2   1  125.52   16.86
  -6  -2   1  158.03   16.82
  -6  -2   1  146.98   11.53
  -6  -2  -1  147.10   10.93
  -6  -2   2    8.01    3.28
  -6  -2  -2    9.51    2.73
   6   2   2   11.10    2.91
   6  -2  -2   11.89    4.06
  -6   2   2   14.65    5.63
  -6  -2   2    4.46    2.57
   6  -2  -2   12.66    2.74
   6  -2   2    8.07    3.87
  -6  -2  -3  384.18   17.30
   6   2   3  408.03   19.00
   6  -2  -3  415.05   19.19
  -6   2   3  484.34   33.83
   6  -2  -3  477.69   26.92
   6  -2   3  501.86   28.26
  -6  -2   3  451.93   30.12
  -6  -2   3  531.01   24.37
  -6   2   4  903.67   46.80
  -6  -2   4  763.72   38.23
   6  -2  -4  815.23   29.75
   6  -2  -4  827.20   36.36
   6  -2   4  767.94   35.95
  -6  -2  -5   88.70    8.82
   6   2   5   67.44    9.43
  -6   2   5   78.46   13.54
  -6  -2   5   84.12   12.54
   6  -2   5   78.91   11.34
   6  -2  -5   67.90   10.48
   6   2   6  358.07   23.10
  -6  -2  -6  356.46   18.39
  -6  -2   6  337.45   25.24
   6  -2   6  387.37   26.51
   6  -2  -6  350.26   23.80
   6  -2  -7  569.95   30.90
   6   2   7  515.59   27.87
  -6  -2   7  588.56   34.25
   6  -2   7  625.06   34.73
  -6   2   7  691.16   40.35
   6  -2   8   39.71    8.89
   6   2  -8   50.36    5.34
   6  -2  -8   57.61   10.38
   6   2   8   34.72    7.49
  -6   2   8   47.44   10.93
  -6  -2   8   59.27   10.58
   6  -2   9    0.42    2.18
   6   2   9    4.59    3.26
  -6   2   9    7.63    5.85
  -6  -2   9    1.58    4.14
   6   2  10  108.65   14.97
  -6   2  10  114.21   17.20
   6  -2  10  109.29   15.77
  -6  -2  10  112.59   15.79
   6   2  11  762.43   40.03
   6  -2  11  754.83   41.29
  -6  -2  11  695.37   40.63
  -6   2  11  758.29   38.15
   6   2  12   75.80   12.55
   6  -2  12  106.72   15.70
  -6   2  12   91.84   15.29
  -6  -2  12   90.92   15.18
  -6   2  12   85.58   13.32
   6   2  13  374.59   29.24
   6  -2  13  439.33   32.70
  -6   2  13  428.94   33.89
  -6  -2  13  387.02   31.34
  -6   2  13  387.23   28.80
   6   2  14   22.12    7.84
  -6   2  14   40.44   11.27
  -6  -2  14   29.73    9.60
   6  -2  14   23.81    7.44
  -6   2  14   11.52    6.93
   6   2  15   17.17    6.25
  -6   2  15   10.14    4.86
  -6  -2  15   10.58    5.08
   6  -2  15    1.21    3.48
  -6   2  15   14.44    6.73
   6   2  16   41.95   12.38
  -6   2  16   30.48    9.86
  -6  -2  16   25.39    6.58
   6  -2  16   42.28   11.56
  -6   2  16   32.65    9.62
   6   2  16   39.60   10.33
   6   2  17   55.07   12.33
  -6   2  17   51.58   12.45
  -6  -2  17   28.91    8.08
   6  -2  17   33.42   10.20
  -6   2  17   19.43   11.60
   6   2  17   55.42   12.34
   6   2  18   65.10   13.67
  -6  -2  18   59.24   14.05
  -6   2  18   57.10   13.75
   6  -2  18   54.64   13.16
  -6   2  18   83.36   15.15
   6   2  18   74.75   15.50
   6   2  19   74.70   14.42
  -6   2  19   69.66   14.05
   6  -2  19   34.51   10.25
  -6  -2  19   77.16   14.90
  -6   2  19   59.61   13.16
   6   2  19   38.85   11.35
   6   2  20   -0.35    4.44
   6  -2  20    1.05    2.38
  -6   2  20    3.47    6.52
  -6  -2  20    2.14    3.32
   6   2  20   -0.11    2.64
  -6   2  20   -2.47    5.01
   6  -2  21   71.82   16.24
   6   2  21   44.01   11.69
  -6   2  21   57.32   13.98
  -6  -2  21   68.71   14.11
  -6   2  21   76.38   15.70
   6   2  21   48.75   11.96
   6  -2  21   67.22   14.73
   6   2  22   45.04   11.16
   6  -2  22   28.75    9.00
  -6   2  22   33.19    9.91
  -6  -2  22   37.43   11.43
   6   2  22   30.32   10.40
  -6   2  22   33.08   11.24
   6  -2  22   25.35    8.69
   6  -2  23    4.18    4.63
   6   2  23    1.14    2.92
  -6   2  23   -1.74    4.00
  -6  -2  23    5.50    4.80
   6   2  23    3.78    5.73
   6  -2  23    1.35    3.71
   6   2  24    2.15    2.76
   6  -2  24    5.28    4.83
  -6   2  24   -3.38    3.98
  -6  -2  24    3.26    5.40
   6   2  24   13.15   10.30
   6  -2  24    9.93    9.45
   6   2  25   35.93   12.61
   6  -2  25   41.99   13.96
  -6   2  25   31.84    9.18
  -6  -2  25   48.72   13.25
   6   2  25   42.74   13.24
   6  -2  25   50.38   14.58
   6   2  26    6.61    6.29
   6  -2  26    1.72    2.56
  -6   2  26   -0.44    3.79
  -6  -2  26    5.56    4.34
   6   2  26    2.71    0.78
   6  -2  26   -6.36    9.38
   6   2  27   11.00    5.83
   6  -2  27   -0.46    3.53
  -6   2  27    2.38    1.57
  -6  -2  27    4.14    4.95
   6   2  27    6.58    5.23
   6  -2  27    1.26    2.06
   6   2  28   44.99   11.78
   6  -2  28    7.53    4.22
  -6   2  28   41.12   10.61
  -6  -2  28   19.17   10.11
   6   2  28   24.63   10.37
   6  -2  28   10.07   10.93
  -6  -3   0    0.23    1.10
   6  -3   0    0.47    2.11
   6  -3   0   -0.79    0.86
  -6  -3   0    0.67    0.44
  -6   3   0   -3.04    1.09
   6  -3   1   28.13    6.78
   6  -3   1   25.69    3.62
  -6  -3   1   23.68    5.77
  -6  -3  -1   24.41    5.88
   6  -3  -1   27.99    4.61
   6  -3  -1   25.07    6.97
  -6   3   1   26.69    5.99
  -6  -3   1   28.40    6.70
  -6  -3   2    9.32    3.78
   6  -3   2    7.75    1.62
   6   3   2    9.13    2.22
  -6  -3  -2   12.12    4.08
   6  -3  -2    7.96    2.74
  -6   3   2   10.19    0.67
  -6  -3   2   10.00    4.88
   6  -3  -2    5.76    3.87
   6  -3   2    7.73    4.88
  -6  -3   3   -1.16    0.79
   6   3   3   -0.02    0.95
  -6  -3  -3    1.72    1.11
  -6   3   3    1.29    5.42
  -6  -3   3    1.66    1.08
   6  -3  -3   -0.18    0.98
   6  -3   3   -0.56    1.65
   6  -3  -3   -2.42    3.01
  -6  -3  -4  499.61   25.36
   6  -3  -4  521.19   24.93
  -6  -3   4  539.00   31.55
   6  -3  -4  529.87   31.08
   6  -3   4  568.01   32.44
   6   3   4  572.46   24.87
  -6  -3   4  542.31   28.58
  -6  -3  -5   34.45    6.57
   6  -3  -5   40.38    7.66
  -6  -3   5   81.09   12.58
   6  -3   5   40.34    8.65
  -6   3   5   61.67   11.10
   6  -3  -5   55.35   10.83
  -6  -3   5   54.26    9.02
   6   3   5   58.38    8.26
  -6  -3   6    2.24    1.94
   6   3   6    6.56    3.15
  -6  -3  -6    2.47    1.81
   6  -3   6    1.38    1.69
  -6   3   6   -0.12    3.01
  -6  -3   6    1.24    1.28
   6  -3  -6    1.30    1.80
   6  -3  -6    5.88    3.13
   6   3   7  148.37   14.76
   6  -3  -7  193.38   19.41
  -6   3   7  226.75   24.34
  -6  -3   7  216.76   20.37
   6  -3  -7  176.38   17.08
   6  -3   7  205.85   20.67
  -6  -3   7  209.91   19.27
   6   3   8  102.84   12.71
   6  -3  -8  131.27   15.83
  -6   3   8  105.22   16.99
  -6  -3   8  136.90   16.18
   6  -3   8  131.87   16.99
   6  -3   9   -3.07    4.24
   6   3   9   -0.27    2.22
  -6  -3  -9    2.09    3.24
  -6   3   9    5.25    4.14
  -6  -3   9   -0.16    2.08
   6  -3  -9    3.54    3.55
   6   3  10  115.82   14.76
  -6  -3 -10  136.03   15.28
  -6   3  10  114.69   17.11
  -6  -3  10   84.82   13.34
   6  -3  10  117.97   15.70
   6  -3  11   11.82    5.89
   6   3  11    1.90    2.48
  -6  -3 -11   -5.39    2.96
  -6   3  11    4.49    3.47
  -6  -3  11    2.65    3.87
   6   3  12  152.13   18.30
  -6   3  12  171.94   22.33
  -6  -3  12  154.35   18.78
   6  -3  12  208.86   21.94
  -6   3  12  203.71   21.17
   6   3  13   12.42    2.15
  -6   3  13   19.32    7.91
  -6  -3  13   10.02    4.13
  -6   3  13   14.41    5.04
   6  -3  13   10.96    7.37
   6   3  14   21.06    6.39
  -6   3  14   37.22   10.78
  -6  -3  14   20.88    7.46
  -6   3  14   32.01    9.07
   6  -3  14   15.23    6.94
   6   3  14   32.13    7.69
   6   3  15   18.18    7.18
  -6   3  15   13.98    6.53
  -6  -3  15   14.04    7.34
  -6   3  15   25.48    7.38
   6  -3  15   21.08    6.66
   6   3  15   16.21    6.50
   6   3  16  165.33   20.67
   6  -3  16  185.99   22.76
  -6  -3  16  203.29   23.83
  -6   3  16  187.34   22.12
   6   3  16  171.12   21.51
  -6   3  16  199.61   24.12
   6   3  17   14.25    5.26
  -6   3  17   17.21    4.35
   6  -3  17   10.91    4.25
  -6   3  17    7.78    2.37
   6   3  17   -3.83    6.18
   6   3  18  145.44   20.81
   6  -3  18  154.42   21.22
  -6   3  18  165.93   22.64
  -6  -3  18  142.47   20.64
   6   3  18  133.42   19.47
   6   3  19   95.87   17.70
   6  -3  19  110.67   18.52
  -6  -3  19  100.93   18.51
  -6   3  19   63.67   14.09
  -6   3  19   73.59   15.09
   6   3  19   94.83   17.28
   6   3  20    1.38    4.75
  -6   3  20    5.24    4.03
  -6  -3  20    4.53    4.10
   6  -3  20   23.63    9.51
  -6   3  20    8.96    5.21
   6   3  20   22.06    6.75
   6   3  21   15.49    7.60
  -6   3  21    9.35    7.30
   6  -3  21    4.67    6.20
  -6  -3  21    3.06    3.90
   6   3  21   -5.11    5.34
  -6   3  21    4.21    3.60
   6   3  22   46.51   11.99
  -6   3  22   43.15   12.14
   6  -3  22   34.13    9.64
  -6  -3  22   58.14   14.60
   6   3  22   30.27    9.47
  -6   3  22   54.44   13.95
   6  -3  22   64.65   13.83
   6  -3  23    9.96    6.67
   6   3  23    2.68    6.40
  -6   3  23   12.60    6.81
  -6  -3  23    4.66    6.87
   6   3  23   15.51    6.34
  -6   3  23   13.56    8.69
   6  -3  23    8.64    6.66
   6   3  24   10.19    8.83
   6  -3  24    7.92    5.05
  -6   3  24   18.83    9.35
  -6  -3  24    5.28    3.70
   6   3  24   14.87    7.67
  -6   3  24    3.95    5.22
   6  -3  24    6.42    3.14
   6   3  25   -1.68    2.75
   6  -3  25   -1.34    2.46
  -6   3  25   -4.67    6.16
  -6  -3  25   -1.17    6.83
   6   3  25    5.50    6.32
   6  -3  25   -7.02    8.22
   6   3  26   -5.45    6.96
   6  -3  26   -2.85    3.51
  -6   3  26    1.15    2.98
  -6  -3  26   -0.46    2.32
   6   3  26    7.58    8.24
   6  -3  26   -1.51    4.46
   6   3  27   -3.16    4.07
   6  -3  27    7.49    7.50
  -6   3  27    5.86    4.05
  -6  -3  27   -0.73    3.58
   6   3  27    7.77    8.58
   6  -3  27    0.87    1.66
   6   3  28   -0.23    4.88
   6  -3  28    8.49    3.73
  -6   3  28    8.17    8.70
  -6  -3  28    1.46    1.97
   6   3  28    6.59    3.35
   6  -3  28   10.66    9.27
  -6  -4   0   86.04   11.55
   6  -4   0  108.08   10.53
   6  -4   0  106.43   14.72
  -6   4   0   95.01   15.27
  -6  -4   1   80.25   11.30
  -6  -4  -1  110.44   13.33
   6  -4   1  122.06   10.48
   6  -4  -1  116.63   11.62
   6  -4   1  122.35   15.76
   6  -4  -1  120.12   15.26
  -6  -4   1  117.28   13.40
  -6   4   1  114.99   17.58
   6  -4   2   10.88    5.33
  -6  -4   2    6.15    4.10
   6  -4   2    4.96    2.26
  -6  -4  -2    8.89    4.22
   6  -4  -2    6.38    3.12
  -6  -4   2    6.17    3.24
  -6   4   2    1.69    3.66
   6  -4  -2    0.31    1.24
   6   4   2    5.77    1.84
  -6  -4   3   76.77   11.32
   6  -4   3   76.39    7.97
   6  -4   3   78.26   12.56
  -6  -4  -3   66.21   10.22
   6  -4  -3   75.15   10.02
  -6   4   3   79.07   14.59
   6  -4  -3   77.42   12.91
  -6  -4   3   73.28   10.86
   6   4   4   12.64    3.44
  -6  -4   4   25.45    6.11
   6  -4   4   19.11    3.89
   6  -4  -4   20.64    6.89
  -6  -4  -4   17.50    5.40
  -6   4   4   15.17    5.38
   6  -4  -4   25.67    6.21
  -6  -4   4   11.07    3.71
   6  -4   4   24.25    7.41
   6  -4   5   15.06    3.54
  -6  -4   5    7.41    2.22
   6   4   5    5.94    2.71
  -6  -4  -5   10.33    4.02
   6  -4  -5   12.40    5.79
  -6   4   5   15.74    6.40
  -6  -4   5   12.11    5.32
   6  -4  -5   11.81    4.29
   6  -4   5    9.45    4.50
   6  -4   6    2.78    1.77
  -6  -4   6    7.96    4.02
   6   4   6    3.42    2.05
  -6  -4  -6    6.61    3.21
   6  -4   6    1.72    1.44
  -6   4   6    9.96    7.58
  -6  -4   6    4.55    3.69
   6  -4  -6    5.19    2.21
   6  -4  -6    5.23    2.27
   6  -4  -7  286.01   24.78
  -6  -4  -7  281.68   22.23
  -6  -4   7  218.56   19.97
   6  -4  -7  207.73   19.16
   6  -4   7  251.38   23.12
   6   4   7  218.24   18.84
   6  -4   7  210.40   14.27
  -6  -4   7  286.24   23.84
   6  -4  -8  548.81   34.60
  -6  -4  -8  675.15   34.15
  -6   4   8  591.60   39.89
   6  -4  -8  528.98   32.24
  -6  -4   8  630.22   35.16
   6  -4   8  638.95   38.17
   6   4   8  606.08   32.37
  -6  -4   8  557.20   34.16
  -6  -4  -9   94.98   12.75
   6  -4  -9   98.62   14.46
  -6   4   9  161.70   20.50
  -6  -4   9  116.99   15.81
   6  -4  -9  109.88   14.87
   6  -4   9  146.45   18.44
   6   4   9  110.66   15.08
  -6  -4   9  123.93   15.85
  -6  -4 -10  156.71   17.65
  -6   4  10  183.89   22.31
   6  -4 -10  250.49   23.78
  -6  -4  10  214.57   21.70
   6  -4 -10  253.35   23.67
   6  -4  10  201.71   22.68
   6   4  10  244.04   22.06
  -6  -4  10  239.61   23.31
   6  -4  11   19.81    7.71
   6   4  11    8.44    4.89
  -6  -4 -11   11.91    5.02
  -6   4  11   14.87    5.67
  -6  -4  11    8.52    4.43
   6  -4 -11   11.68    5.11
   6  -4  12   19.77    7.10
   6   4  12    8.96    5.02
  -6  -4 -12   23.14    8.65
  -6   4  12   18.63    7.74
  -6  -4  12   20.22    6.93
   6   4  12   15.62    5.25
   6  -4  13   28.78    8.05
   6   4  13   33.50   10.38
  -6  -4 -13    1.13    2.96
  -6   4  13   25.27    8.06
  -6  -4  13   39.30   10.23
  -6   4  13   14.54    6.96
   6   4  13   30.12    7.51
   6  -4  14   28.91    9.57
   6   4  14   30.77    7.71
  -6   4  14   22.84    8.63
  -6  -4  14   30.72    8.83
  -6   4  14   31.81    8.28
   6   4  14   43.20   10.25
   6  -4  15  142.52   19.72
  -6  -4  15  148.61   20.51
  -6   4  15  164.23   20.45
   6   4  15  166.07   19.95
   6   4  15  148.60   19.88
   6   4  16   33.47   10.22
  -6   4  16   32.41    9.10
  -6  -4  16   31.72    9.71
  -6   4  16   31.85    9.21
   6   4  16   35.33    8.42
   6  -4  16   31.83    9.57
   6   4  17   54.75   12.15
  -6   4  17   40.48   10.99
  -6  -4  17   56.23   13.43
  -6   4  17   25.98    7.92
   6  -4  17   47.98   12.35
   6   4  17   57.27   12.43
   6  -4  18   89.05   16.31
  -6   4  18   89.08   15.78
  -6  -4  18   99.81   18.06
  -6   4  18  115.42   18.64
   6   4  18   77.23   16.14
   6   4  18   95.71   17.01
   6   4  19   25.51    9.44
  -6   4  19   25.15    9.21
  -6  -4  19   18.70    5.19
   6  -4  19   26.05    9.25
  -6   4  19   13.21    4.76
   6   4  19   24.96    8.88
   6   4  20    5.32    6.42
  -6   4  20   -1.57    3.01
  -6  -4  20    0.26    5.53
   6  -4  20    1.10    6.13
  -6   4  20   10.34    6.89
   6   4  20    2.87    4.97
   6   4  21   39.25   11.83
  -6   4  21   21.91    8.11
  -6  -4  21   22.22    9.43
   6  -4  21   21.13    8.63
  -6   4  21   23.60    9.44
   6   4  21    8.58    4.03
   6   4  22   29.14   10.42
  -6   4  22   36.89   11.39
  -6  -4  22   41.99   10.93
   6  -4  22   37.66   10.31
   6   4  22   32.42   11.23
  -6   4  22   25.21    8.74
   6  -4  22   36.84   11.44
   6   4  23   24.30    5.98
  -6   4  23    7.39    5.41
   6  -4  23   20.06    8.44
  -6  -4  23   42.02   14.11
   6   4  23   29.49   10.86
  -6   4  23   25.40   10.66
   6  -4  23   24.10    7.85
   6   4  24    7.50    6.93
  -6   4  24    2.47    1.08
   6  -4  24    7.07    8.44
  -6  -4  24    4.28    1.38
   6   4  24    8.52    4.26
  -6   4  24   -2.43    4.51
   6  -4  24    5.70    7.52
   6   4  25   16.99    7.68
   6  -4  25   21.77    9.55
  -6   4  25   32.90   11.47
  -6  -4  25   56.04   15.83
  -6   4  25   17.64    9.38
   6  -4  25   45.36   14.71
   6   4  26   -4.07    7.35
   6  -4  26   13.21    7.73
  -6   4  26    6.29   10.39
  -6  -4  26    9.91    7.70
  -6   4  26   15.57    9.11
   6  -4  26    3.01    1.61
   6   4  27   -3.72    4.00
   6  -4  27    3.94    6.61
  -6   4  27    6.34    1.96
  -6  -4  27    2.93    1.82
   6  -4  27    5.75    7.59
  -6  -5   0    5.99    3.86
   6  -5   0    1.31    2.78
   6  -5   0   -0.43    2.69
  -6  -5   1  173.46   18.55
  -6  -5  -1  180.39   18.66
   6  -5   1  195.77   16.12
   6  -5  -1  172.35   15.49
   6  -5   1  173.39   19.64
  -6   5   1  184.20   21.64
   6  -5  -1  204.16   21.42
   6  -5   2   36.08    8.98
  -6  -5   2   42.59    8.89
   6  -5   2   18.27    5.09
  -6  -5  -2   27.37    6.90
   6  -5  -2   32.37    7.24
  -6   5   2   32.75    8.36
   6  -5  -2   38.28   10.12
  -6  -5   3   -1.15    3.70
   6  -5   3   -1.21    0.60
  -6  -5  -3    6.55    4.72
   6  -5  -3    3.21    0.89
  -6   5   3    4.29    4.69
   6   5   3    1.56    0.86
   6  -5  -3   -4.28    5.34
   6  -5   3   -0.53    3.05
  -6  -5   4   -0.01    2.30
   6  -5   4    0.90    1.81
   6  -5  -4    5.72    6.07
  -6  -5  -4   -1.94    1.81
   6  -5  -4    0.13    0.82
  -6   5   4    0.61    3.74
  -6  -5   4   -2.76    2.12
   6  -5   4    4.02    3.57
   6   5   4    2.29    2.50
  -6  -5   5  205.42   21.00
   6  -5   5  170.83   14.67
   6  -5   5  198.91   21.28
  -6  -5  -5  176.36   18.47
   6  -5  -5  194.74   18.56
  -6   5   5  163.06   20.76
  -6  -5   5  187.26   17.47
   6   5   5  163.89   14.88
   6  -5  -5  170.93   19.81
  -6  -5  -6  102.16   14.50
   6  -5  -6   79.99   12.26
  -6   5   6  104.24   16.04
  -6  -5   6   87.95   12.29
   6   5   6   90.70   12.05
   6  -5  -6   98.08   15.03
   6  -5   6   95.01   15.19
   6  -5   6  104.83   11.38
  -6  -5   6  118.25   15.99
   6  -5  -7  131.61   17.47
  -6  -5  -7  131.11   16.28
   6  -5  -7  124.70   15.34
  -6   5   7  143.45   20.30
   6   5   7  159.29   15.88
   6  -5   7  148.31   18.81
   6  -5   7  161.68   14.71
  -6  -5   7  129.63   17.27
   6  -5   8    7.75    3.35
  -6  -5   8    4.57    3.85
   6   5   8   10.36    4.95
  -6  -5  -8   10.70    4.40
   6  -5   8    9.88    5.47
   6  -5  -8   10.77    5.82
  -6   5   8    9.87    4.00
   6  -5  -8   16.97    6.08
  -6  -5   8   15.54    5.70
   6  -5  -9  141.75   18.51
  -6  -5  -9  148.68   17.58
   6  -5  -9  117.53   15.70
  -6  -5   9  117.39   15.33
   6  -5   9  146.23   18.61
   6   5   9  160.25   17.88
   6   5   9   98.99   12.30
   6  -5   9  160.80   15.55
  -6  -5   9  105.75   16.06
  -6  -5  10   16.90    6.10
   6   5  10   10.79    4.67
   6  -5  10    5.95    3.16
  -6  -5 -10    7.33    1.65
  -6   5  10   25.37    8.57
   6  -5 -10    4.41    4.68
  -6  -5  10   16.05    6.81
   6   5  10    8.08    3.35
   6  -5 -10   14.49    7.26
  -6  -5  11    4.32    4.65
   6   5  11    6.00    3.60
   6  -5  11    0.62    2.65
   6  -5 -11    3.03    5.01
  -6  -5 -11    0.28    3.77
  -6   5  11   10.53    3.01
   6  -5 -11   15.30    6.38
  -6  -5  11    4.33    2.79
   6   5  11   10.94    3.88
  -6  -5  12   22.56    7.66
   6   5  12   16.13    5.93
   6  -5  12   22.81    8.39
  -6  -5 -12   28.33    7.87
  -6   5  12   23.68    9.14
   6  -5 -12   24.41    8.15
  -6  -5  12   17.28    6.69
   6   5  12   20.44    6.34
   6  -5  13  109.37   17.77
  -6  -5 -13   92.08   15.16
  -6   5  13  162.56   22.38
   6  -5 -13  148.96   20.58
  -6  -5  13  132.87   18.66
   6   5  13  110.60   15.76
   6   5  13  137.23   18.40
  -6  -5  13  136.10   18.33
   6  -5  14   32.57   11.32
   6   5  14   28.52    9.61
  -6  -5 -14   43.64   11.45
  -6   5  14   34.79    9.97
   6  -5 -14   25.64   10.12
  -6  -5  14   37.29   10.05
   6  -5  15    7.53    4.98
   6   5  15   29.13    8.10
  -6   5  15   26.79    8.91
   6  -5 -15   11.71    6.60
  -6  -5  15   13.57    6.21
  -6   5  15   26.71    7.01
   6   5  16    7.43    5.13
  -6   5  16   10.94    6.35
   6  -5 -16    1.10    2.58
  -6  -5  16    6.62    5.77
  -6   5  16   10.67    3.81
   6  -5  16    9.62    5.77
   6   5  17    5.57    6.03
  -6   5  17    2.37    4.18
   6  -5 -17    7.40    5.72
  -6  -5  17    0.65    1.68
  -6   5  17    0.11    0.78
   6  -5  17    2.84    3.85
   6  -5  18  106.03   18.09
  -6   5  18   84.17   17.74
  -6  -5  18  102.04   18.75
  -6   5  18  120.66   20.19
   6   5  18  135.44   20.42
   6   5  19   37.34    9.79
  -6   5  19   38.53   11.96
  -6  -5  19   12.60    5.41
  -6   5  19   15.52    7.99
   6  -5  19   24.06    7.74
   6   5  20   -1.28    5.34
  -6   5  20   -5.95    5.87
  -6  -5  20   -2.03    2.50
   6  -5  20   -3.98    1.86
  -6   5  20    1.17    0.88
   6   5  21   32.76   10.74
  -6   5  21   31.66   11.52
  -6  -5  21   27.30    8.12
   6  -5  21   24.94    8.30
  -6   5  21   14.99   10.92
   6   5  22    0.53    5.45
  -6   5  22   11.02    6.87
  -6  -5  22    0.48    0.98
   6  -5  22    0.12    7.27
  -6   5  22    2.30    4.72
   6   5  23    5.79    6.21
  -6   5  23    8.79    1.24
  -6  -5  23    5.12    6.59
   6  -5  23    9.32    5.19
  -6   5  23   15.41    6.39
   6  -5  23    9.92    7.23
   6   5  24   35.24   12.21
  -6   5  24   40.23   12.10
   6  -5  24   19.06    8.18
  -6  -5  24   26.42    9.78
  -6   5  24   31.48   11.89
   6  -5  24   24.43    6.83
   6   5  25   10.77    4.95
  -6   5  25    8.19    6.83
   6  -5  25   12.65   10.89
  -6  -5  25   19.15   11.30
  -6   5  25    0.40    4.09
   6  -5  25    5.85    3.01
   6   5  26   -3.00    5.76
  -6   5  26   10.97    7.82
   6  -5  26   -1.79    2.63
  -6  -5  26   -0.76    3.43
  -6   5  26   -9.80    7.87
   6  -5  26    3.92    5.27
   6   5  27    4.31    8.44
   6  -5  27   -0.43    5.35
  -6   5  27   -0.19    4.32
  -6  -5  27    0.84    3.34
  -6   5  27   -3.77    4.37
   6  -5  27    0.11    6.09
  -6  -6   0    3.35    5.06
   6  -6   0   -2.61    4.15
   6  -6   0    1.53    4.76
  -6  -6   1  112.86   15.41
  -6  -6  -1  128.61   17.08
   6  -6   1  151.49   15.67
   6  -6  -1  116.99   14.21
   6  -6   1  132.72   17.87
  -6   6   1  131.17   18.93
   6  -6  -1  135.96   18.63
  -6  -6   2   19.31    6.14
   6  -6   2   18.74    6.65
   6  -6   2   10.87    4.62
  -6  -6  -2    2.64    4.26
   6  -6  -2   18.09    6.32
  -6   6   2   14.20    4.14
   6  -6  -2   16.97    5.76
   6  -6   3    1.37    3.47
  -6  -6   3   27.29    8.12
   6  -6   3   13.38    4.81
  -6  -6  -3    8.93    4.13
   6  -6  -3   21.52    7.00
  -6   6   3   11.51    4.08
   6  -6  -3   14.67    4.64
  -6  -6   4  650.08   38.60
   6  -6   4  677.74   33.87
   6  -6   4  679.65   40.74
  -6  -6  -4  551.65   35.51
   6  -6  -4  644.71   34.83
  -6   6   4  662.04   43.85
   6  -6  -4  606.71   38.81
  -6  -6   5   65.55   12.70
   6  -6   5   81.01   12.21
   6  -6   5   58.74   12.17
  -6  -6  -5   50.47   11.12
   6  -6  -5   59.48   10.92
  -6   6   5   77.37   14.43
   6   6   5   68.19    9.38
   6  -6  -5   70.23   12.73
  -6  -6   6   45.34    9.94
   6  -6   6   24.15    6.33
   6  -6  -6   26.50    7.38
  -6  -6  -6   19.74    5.33
  -6   6   6   40.20   11.78
   6  -6  -6   25.90    7.90
   6  -6   6   22.33    6.50
   6   6   6   24.24    6.04
  -6  -6  -7  206.48   22.08
   6  -6  -7  171.07   18.33
  -6   6   7  185.66   24.42
   6   6   7  198.37   18.50
   6  -6   7  203.28   21.98
   6  -6  -7  204.64   23.13
  -6  -6   7  223.59   22.78
   6  -6   7  204.31   18.33
   6  -6   8   12.04    4.35
  -6  -6   8   19.99    7.63
   6  -6  -8   21.87    8.37
  -6  -6  -8   11.50    5.85
   6  -6   8    9.41    5.15
  -6   6   8    7.38    3.00
   6  -6  -8    9.45    5.00
   6   6   8    3.58    2.73
   6   6   9   10.27    4.50
   6  -6   9    2.49    3.85
  -6  -6   9   -0.66    2.05
  -6  -6  -9    0.79    1.37
   6  -6   9    5.29    5.01
  -6   6   9   10.76    9.10
   6  -6  -9    3.89    2.82
   6  -6  -9    2.55    3.07
   6  -6 -10   58.05   12.43
   6  -6  10   59.85   12.03
   6  -6 -10   69.69   12.46
  -6  -6 -10   55.14   11.86
  -6   6  10   31.13   10.92
   6   6  10   63.66   12.15
  -6  -6  10   56.01   13.00
  -6  -6 -11  178.64   20.75
   6  -6 -11  264.36   26.62
  -6   6  11  198.81   24.45
   6  -6  11  220.37   24.52
   6   6  11  205.58   21.79
  -6  -6  11  181.58   22.13
  -6  -6  12   56.96   11.98
  -6  -6 -12  101.35   16.40
  -6   6  12  101.52   17.54
   6  -6 -12   75.62   13.91
   6  -6 -12   72.82   13.30
   6  -6  12   88.38   15.84
   6   6  12   87.61   14.31
  -6  -6  13   23.08    8.19
   6   6  13   14.64    6.36
   6  -6  13   25.33    7.53
  -6  -6 -13   27.51    8.53
  -6   6  13   20.25    6.45
   6  -6 -13   19.86    8.88
   6  -6 -14  287.61   28.64
  -6   6  14  318.38   31.85
  -6  -6  14  332.78   30.73
   6  -6  14  297.11   29.38
   6   6  14  251.73   26.14
  -6  -6  14  300.21   29.69
  -6  -6 -15   89.23   16.82
   6  -6 -15   89.93   16.30
   6  -6  15  109.18   18.26
  -6  -6  15   82.97   16.16
  -6   6  15   74.06   15.05
   6   6  15   79.84   14.66
  -6  -6  15   89.88   15.87
   6  -6  16   16.34    6.54
   6   6  16   26.03    7.20
  -6   6  16   47.18   12.98
   6  -6 -16   18.57    9.04
  -6  -6  16   26.20    9.84
   6  -6  17   20.54   10.10
   6   6  17   12.33    6.48
  -6   6  17   24.90    8.37
   6  -6 -17   14.89    6.92
  -6  -6  17   24.63    9.41
  -6   6  17   16.12    7.53
   6   6  18   79.43   16.02
   6  -6  18   70.58   15.49
  -6   6  18   41.63   11.78
   6  -6 -18   49.47   13.30
  -6  -6  18   48.13   12.87
  -6   6  18   19.97    5.44
   6   6  19   11.18    1.52
  -6   6  19   13.48    8.31
   6  -6 -19   24.25    9.26
  -6  -6  19   14.35    8.23
  -6   6  19   17.50    8.55
   6  -6  19   10.46    8.87
   6   6  20    5.27    7.12
  -6   6  20   -1.84    2.19
   6  -6 -20    5.85    2.19
  -6  -6  20    5.82    6.89
  -6   6  20    8.65    4.17
   6  -6  20    3.67    2.11
   6   6  21    0.30    4.26
  -6   6  21    6.49    6.76
   6  -6 -21    3.91    1.69
  -6  -6  21    3.45    2.53
  -6   6  21    4.65    3.88
   6  -6  21   16.48    7.48
   6   6  22   66.86   15.62
  -6   6  22   18.92    4.80
   6  -6 -22   16.73    7.33
  -6  -6  22   20.09    8.97
   6  -6  22   52.02   13.06
  -6   6  22   35.73   11.70
   6   6  23   30.62   11.34
  -6   6  23   12.90    6.16
   6  -6 -23   24.38    9.85
  -6  -6  23    7.03    6.25
   6  -6  23   15.51    7.85
  -6   6  23   19.69    9.98
   6  -6  23   18.49   10.26
   6   6  24   33.06   12.27
  -6   6  24   44.41   11.87
   6  -6 -24   36.22   12.59
  -6  -6  24   58.67   13.42
   6  -6  24   44.75   12.43
  -6   6  24   35.98   11.41
   6  -6  24   35.22   10.41
   6   6  25   16.91    8.37
  -6   6  25   43.50   11.82
   6  -6 -25   20.53    9.21
  -6  -6  25   40.24   12.63
   6  -6  25   26.83    9.58
  -6   6  25   51.62   13.16
   6  -6  25   11.62    6.06
   6   6  26   23.00    9.33
  -6   6  26   26.14   11.55
   6  -6 -26   37.60   11.32
   6  -6  26   56.65   14.66
  -6  -6  26   21.70    9.22
  -6   6  26    6.86    9.95
   6  -6  26   42.14   11.92
  -6  -7   0  201.35   22.90
   6  -7   0  143.43   17.31
   6  -7   0  166.78   21.00
  -6  -7   1   95.90   15.56
  -6  -7  -1   89.56   14.89
   6  -7   1   99.60   14.56
   6  -7  -1   87.07   13.85
   6  -7   1   76.54   13.65
   6  -7  -1   90.74   15.27
  -6  -7   2  204.09   22.70
   6  -7   2  133.21   16.82
  -6  -7  -2  238.09   24.28
   6  -7  -2  206.95   21.51
   6  -7   2  219.00   23.89
  -6   7   2  195.54   23.34
   6  -7  -2  183.64   22.47
  -6  -7   3  127.83   17.71
   6  -7   3   84.08   13.49
  -6  -7  -3  120.38   18.00
   6  -7  -3   81.85   13.88
   6  -7   3   94.96   15.50
  -6   7   3   90.74   16.14
   6  -7  -3  105.87   17.29
   6  -7  -4    1.33    0.44
  -6  -7   4   -2.03    2.90
   6  -7   4    2.58    4.11
  -6  -7  -4   -2.78    4.45
   6  -7  -4   -1.04    2.11
  -6   7   4   -2.27    5.79
   6  -7   4   -0.45    2.50
  -6  -7   5   14.53    6.87
   6  -7   5   19.72    6.76
   6  -7  -5   26.57    7.92
  -6  -7  -5   40.62    9.62
   6  -7  -5   18.46    7.25
  -6   7   5   20.98    9.20
   6  -7   5   29.85    8.29
  -6  -7   6   -0.39    0.90
   6  -7   6    1.18    1.42
  -6  -7  -6    1.41    2.30
   6  -7  -6   -3.19    4.25
  -6   7   6    6.71    5.84
   6  -7  -6    2.41    5.23
   6  -7   6    4.19    5.12
  -6  -7   7   -0.36    3.96
   6  -7   7   -0.92    2.22
  -6  -7  -7    2.53    2.88
   6  -7  -7   -2.01    3.65
  -6   7   7    9.43    6.42
   6  -7   7    1.43    3.80
   6  -7  -7   -1.68    0.78
   6  -7  -8    1.69    1.40
  -6  -7   8    0.48    1.86
   6  -7   8   -0.33    3.12
  -6  -7  -8   -1.02    3.81
  -6   7   8    1.06    2.18
   6  -7  -8   -1.66    0.75
   6  -7   8   -1.28    2.39
   6   7   8    0.46    1.69
  -6  -7   9   16.85    6.61
   6  -7  -9   10.64    6.05
  -6  -7  -9    6.59    5.21
   6  -7   9    5.30    5.17
  -6   7   9    3.66    3.50
   6  -7  -9    4.77    4.11
   6   7   9    7.23    4.40
  -6  -7  10   30.49    8.73
   6  -7 -10   68.72   15.00
   6  -7  10   40.71   11.50
  -6  -7 -10   45.04   10.97
  -6   7  10   47.22   13.63
   6  -7 -10   44.87   10.65
   6   7  10   53.46   11.97
  -6  -7  11   -4.79    5.20
   6  -7 -11   -1.08    5.15
   6  -7  11   -1.48    3.71
  -6  -7 -11    1.25    4.51
  -6   7  11    2.52    4.62
   6  -7 -11    1.21    3.15
   6   7  11   -3.18    4.72
   6   7  12   14.01    6.24
  -6  -7  12   12.68    6.56
   6  -7  12   20.01    7.35
  -6  -7 -12   10.51    6.70
  -6   7  12   15.39    7.40
   6  -7 -12   30.34    8.87
   6  -7 -12   23.11    8.85
   6  -7 -13   14.33    6.96
   6   7  13   12.93    4.86
  -6  -7  13    8.62    3.63
   6  -7  13    6.06    5.30
  -6  -7 -13   15.15    5.34
  -6   7  13   10.36    8.41
   6  -7 -13    4.59    5.34
  -6  -7  14   32.76    9.89
   6   7  14   27.47    9.51
   6  -7  14   22.64    8.63
  -6  -7 -14   33.96    9.90
  -6   7  14   34.54   10.14
   6  -7 -14   34.43   10.20
  -6  -7  15    8.23    2.74
   6   7  15    6.20    4.50
   6  -7  15    7.29    5.82
  -6  -7 -15   12.51    7.61
  -6   7  15    6.69    4.57
   6  -7 -15    6.43    2.49
  -6  -7  16    2.36    4.05
   6   7  16    4.07    4.54
   6  -7  16   -3.02    3.78
  -6   7  16    4.05    2.01
   6  -7 -16   13.00    8.59
   6  -7  17   17.63    7.46
   6   7  17   10.18    5.65
  -6   7  17   13.48    2.10
   6  -7 -17    3.56    5.22
   6  -7  18   18.98    9.12
   6   7  18   27.71    9.73
  -6   7  18   22.52    9.35
   6  -7 -18   34.29   10.29
   6   7  19   -3.38    2.94
  -6   7  19    2.33    2.55
   6  -7 -19   -2.00    4.66
  -6   7  19    8.88    6.76
   6  -7  19   -5.68    7.19
   6   7  20   12.90    6.45
  -6   7  20   14.26    6.66
   6  -7 -20   -0.74    2.76
  -6   7  20    5.40    4.80
   6  -7  20   10.34    7.24
   6   7  21    4.68    5.21
  -6   7  21    4.33    0.79
   6  -7 -21    8.55    5.69
  -6   7  21    0.49    1.41
   6   7  22   14.27    7.00
  -6   7  22   25.43   11.40
   6  -7 -22    0.67    3.68
  -6   7  22   14.29    7.45
   6  -7  22   10.65    5.34
   6   7  23    3.76    1.62
  -6   7  23    2.72    3.26
   6  -7 -23   -3.14    5.51
  -6   7  23    4.24    7.59
   6  -7  23    1.17    6.28
   6  -7  23    3.02    6.35
   6   7  24    2.40    3.32
  -6   7  24    0.24    4.85
   6  -7 -24    0.62    4.87
   6  -7  24    2.28    4.38
  -6   7  24    1.98   11.19
   6  -7  24   -5.57    5.86
   6   7  25    7.98    5.63
  -6   7  25    0.86    8.34
   6  -7 -25   11.77    9.08
   6  -7  25    0.11    2.75
  -6   7  25    7.24    7.58
   6  -7  25    4.38    3.97
  -6  -8   0   13.08    4.18
   6  -8   0    3.74    2.40
   6  -8   0    9.91    6.46
  -6  -8   1    5.93    4.44
  -6  -8  -1    7.95    4.78
   6  -8   1    7.09    4.14
   6  -8  -1   12.20    7.42
   6  -8   1    5.97    5.20
   6  -8  -1    3.02    1.01
  -6  -8   2   32.03    9.69
   6  -8   2   37.49   11.19
   6  -8   2   29.98    9.11
  -6  -8  -2   20.48    6.38
   6  -8  -2   28.41    7.59
   6  -8  -2   27.73    8.19
  -6  -8   3  183.79   23.31
   6  -8   3  151.07   19.56
  -6  -8  -3  168.01   22.23
   6  -8  -3  186.94   21.56
   6  -8   3  165.27   20.62
  -6   8   3  147.58   21.49
   6  -8  -3  190.45   23.71
   6  -8   4   60.02   12.83
   6  -8  -4   68.77   13.78
  -6  -8   4   44.43   12.79
   6  -8   4   56.81   11.24
  -6  -8  -4   56.15   12.00
   6  -8  -4   52.77   11.74
  -6   8   4   37.15   10.19
  -6  -8   5  179.22   22.24
   6  -8   5  156.65   19.52
   6  -8   5  167.04   21.74
  -6  -8  -5  135.09   19.43
   6  -8  -5  169.30   21.35
  -6   8   5  140.22   21.78
   6  -8  -5  179.06   23.51
  -6  -8   6    1.04    4.60
   6  -8   6   -2.28    3.09
  -6  -8  -6   -1.06    4.34
   6  -8  -6    3.93    3.60
  -6   8   6    2.96    3.37
   6  -8  -6   -1.68    5.47
   6  -8   6    1.02    2.66
  -6  -8   7  331.88   31.36
   6  -8   7  328.42   30.25
   6  -8   7  336.01   28.19
  -6  -8  -7  339.13   30.98
   6  -8  -7  353.41   31.36
  -6   8   7  324.24   33.04
   6  -8  -7  228.68   26.05
  -6  -8   8    2.39    1.14
  -6  -8  -8    0.64    4.66
   6  -8  -8    3.65    3.74
  -6   8   8    0.26    2.17
   6  -8   8    4.22    5.65
   6  -8  -8   -0.25    4.04
   6  -8  -9   17.33    7.63
  -6  -8   9   13.41    5.96
  -6  -8  -9   32.52   10.15
   6  -8  -9   17.19    5.98
  -6   8   9   17.66    6.85
   6  -8   9   28.48    9.78
  -6  -8  10   13.00    5.26
   6  -8 -10    6.07    7.29
  -6  -8 -10   32.07   10.72
   6  -8  10   16.45    6.54
   6  -8 -10   10.12    3.60
  -6   8  10   16.41    6.89
   6  -8 -11  156.99   21.46
  -6  -8 -11  121.05   19.41
   6  -8 -11  127.27   19.27
  -6   8  11  179.46   24.79
   6   8  11  123.63   17.87
   6  -8  11  160.80   22.48
  -6  -8  11  143.90   20.86
  -6  -8  12    4.15    6.31
   6  -8 -12   11.12    4.48
   6  -8  12    6.58    4.70
  -6  -8 -12    2.23    2.06
  -6   8  12   11.40    5.84
   6  -8 -12    9.68    6.62
   6   8  12    0.78    3.53
  -6  -8  13   -2.48    4.15
   6  -8  13    0.39    2.23
  -6  -8 -13   -0.34    2.20
   6  -8 -13    0.73    2.08
   6  -8 -13    0.26    5.18
   6   8  13   -0.81    1.42
  -6  -8  14   21.12    9.09
   6  -8 -14   23.84   10.82
   6  -8  14    8.32    5.38
  -6  -8 -14   12.56    4.24
  -6   8  14   17.28   10.61
   6  -8 -14   18.08    7.56
   6   8  14   11.72    4.98
  -6  -8 -15  262.19   29.98
   6  -8 -15  235.74   28.43
   6  -8 -15  244.76   27.78
  -6   8  15  251.94   30.80
   6  -8  15  286.72   30.63
   6   8  15  268.67   29.55
  -6  -8  15  244.89   28.82
  -6  -8  16    3.84    5.89
   6  -8  16   10.15    7.67
  -6  -8 -16   16.56   11.85
  -6   8  16    1.49    1.69
   6  -8 -16    6.09    7.16
   6   8  16    0.18    3.53
   6  -8 -17   96.52   17.99
  -6   8  17  104.59   19.20
   6  -8  17  140.95   21.35
   6   8  17   96.15   18.17
  -6  -8  17   81.75   17.55
   6   8  18    1.60    5.81
   6  -8  18    4.91    7.96
  -6   8  18    3.18    4.91
   6  -8 -18    3.02    4.88
  -6  -8  18    3.46    6.56
   6   8  19   40.12   10.51
   6  -8  19   59.44   13.63
  -6   8  19   32.68   12.23
   6  -8 -19   49.38   13.88
   6   8  20    6.34    4.07
  -6   8  20   14.81   10.65
   6  -8 -20    5.34    2.96
   6  -8  20    7.98    5.81
   6   8  21   91.60   19.33
   6  -8  21  101.07   19.38
  -6   8  21   52.40   14.49
   6  -8 -21   70.89   18.06
   6   8  22   10.85    8.86
  -6   8  22    1.92    4.67
   6  -8 -22   21.18   11.55
  -6   8  22    1.35    4.90
   6  -8  22    2.08    5.94
   6   8  23   17.84    9.23
  -6   8  23   20.11    8.77
   6  -8 -23   21.91   10.29
  -6   8  23   36.72   12.35
   6  -8  23   36.00   13.98
   6   8  24   10.25    6.81
  -6   8  24   -5.56    5.05
   6  -8 -24   -1.28    5.26
  -6   8  24   10.38    2.41
   6  -8  24    3.28    7.34
   6  -8  24   -3.17    2.72
   6  -9   0   97.82   17.06
  -6  -9   0   67.40   14.62
   6  -9   0   80.13   15.66
  -6  -9   1   10.98    7.34
  -6  -9  -1   13.09    8.78
   6  -9   1    7.90    5.30
   6  -9  -1    4.31    2.96
   6  -9   1    1.69    4.02
   6  -9  -1   10.86    7.53
  -6  -9   2   -0.38    2.64
   6  -9   2   -0.08    3.23
   6  -9   2    4.70    5.05
  -6  -9  -2   -7.16    5.76
   6  -9  -2    0.70    5.38
   6  -9  -2   -1.85    3.27
   6  -9   3    5.13    3.06
  -6  -9   3    0.15    2.82
   6  -9   3   10.56    6.95
  -6  -9  -3    6.50    1.79
   6  -9  -3    7.33    4.85
   6  -9  -3   10.83    6.34
   6  -9  -4    1.43    2.10
   6  -9   4    2.19    5.08
  -6  -9   4   -0.98    3.20
   6  -9   4    1.77    4.05
  -6  -9  -4    4.07    4.82
   6  -9  -4   -5.21    5.10
  -6   9   4    2.69    3.70
  -6  -9   5  124.21   19.07
   6  -9   5  127.18   19.11
   6  -9   5  123.18   18.99
  -6  -9  -5   97.08   17.63
   6  -9  -5  156.48   20.48
  -6   9   5  118.47   19.54
   6  -9  -5  122.98   20.14
  -6  -9   6   37.21    9.33
   6  -9   6   30.22    9.66
   6  -9  -6   29.73   10.22
  -6  -9  -6   26.21    9.13
   6  -9  -6   27.38   10.08
  -6   9   6   30.20   11.00
   6  -9   6   55.19   12.46
  -6  -9   7   -2.22    3.38
  -6  -9  -7    6.02    7.27
   6  -9  -7    1.53    3.32
   6  -9  -7    1.09    2.16
  -6   9   7   14.69    9.19
   6  -9   7   -0.59    4.51
  -6  -9   8   22.54    9.22
  -6  -9  -8   19.52    6.74
   6  -9  -8   28.88    9.92
  -6   9   8   38.30   11.01
   6  -9   8   34.09   10.52
   6  -9  -8   16.96    7.55
  -6  -9   9   10.99    5.62
  -6  -9  -9   18.80    9.73
   6  -9  -9   12.93    4.59
  -6   9   9   11.36    2.92
   6  -9   9    8.23    4.76
   6  -9  -9   14.56    6.16
   6  -9 -10    9.88    5.54
  -6  -9  10    6.04    6.19
  -6  -9 -10    9.20    7.03
   6  -9  10    5.97    3.99
   6  -9 -10    8.15    6.57
  -6   9  10    3.98    6.63
   6  -9 -11    9.07    5.21
  -6  -9 -11    5.55    1.93
   6  -9  11    6.55    5.59
   6  -9 -11    1.25    3.73
  -6   9  11    0.18    2.76
  -6  -9  12   20.97    9.32
   6  -9  12    2.32    2.30
  -6  -9 -12    1.67    5.62
   6  -9 -12    1.99    4.02
  -6   9  12   11.83    7.38
   6  -9 -12    8.29    8.57
  -6  -9  13   13.61    9.00
   6  -9  13    6.44    5.73
  -6  -9 -13   10.43    4.24
   6  -9 -13    6.74    5.00
  -6   9  13   10.74    7.37
   6  -9 -13    9.63    6.22
  -6  -9  14   19.25    9.83
   6  -9  14   33.15   11.18
   6  -9 -14    9.59    6.89
  -6  -9 -14    9.09    5.23
  -6   9  14   11.09    7.18
   6  -9 -14   13.83    6.68
  -6  -9  15   -1.63    3.47
   6  -9  15    3.37    3.92
  -6  -9 -15    1.56    2.32
  -6   9  15    8.84    6.11
   6  -9 -15    6.41    6.20
   6  -9 -15   11.14    7.79
  -6  -9  16    3.75    6.93
   6  -9  16    1.76    4.55
   6  -9 -16    2.67    5.85
  -6  -9 -16    0.49    4.73
  -6   9  16    9.21    6.12
   6  -9 -16   -3.93    4.28
  -6  -9  17    7.39    3.90
   6  -9  17    3.67    4.10
   6  -9 -17    3.64    3.48
  -6  -9 -17   -0.95    1.79
  -6   9  17    0.03    3.97
   6  -9 -17    7.53    5.66
  -6  -9  18    4.85    7.50
   6  -9  18    2.21    4.77
   6  -9 -18   -4.08    5.25
  -6   9  18    5.28    6.57
   6  -9 -18   -3.94    5.37
   6   9  18   12.39    6.01
   6  -9  19    2.06    2.43
  -6   9  19   -2.20    0.56
   6  -9 -19   -2.69    4.49
   6   9  19   -9.98   10.20
  -6  -9  19   -3.08    4.90
   6  -9  20    7.70    7.55
  -6   9  20    3.29    2.82
   6  -9 -20    6.45    7.70
   6   9  20   15.57    9.43
  -6   9  21   23.58   10.89
   6  -9 -21   13.75    8.25
   6   9  21   14.43    9.75
  -6   9  22    8.87    6.80
   6  -9 -22   28.41   10.89
   6  -9  22   -0.05    3.91
   6   9  22   34.01   11.82
   6  -9 -23    3.76    1.58
   6  -9  23   -2.11    0.82
   6  -9  23    0.17    2.43
   6   9  23   -5.03    6.14
  -6 -10   0   88.54   16.71
   6 -10   0   86.20   16.23
   6 -10   0   51.31   13.90
  -6 -10   1   11.92    6.66
  -6 -10  -1    6.46    2.49
   6 -10   1   10.37    4.90
   6 -10  -1   20.91   10.21
   6 -10   1   12.58    6.40
   6 -10  -1    1.64    2.56
  -6 -10   2    5.81    7.70
   6 -10   2    3.15    1.42
   6 -10   2   -2.86    2.78
  -6 -10  -2    7.23    5.70
   6 -10  -2    0.63    2.90
   6 -10  -2    4.43    4.09
   6 -10   3   51.52   12.30
  -6 -10   3   51.00   12.13
   6 -10   3   32.54   10.67
  -6 -10  -3   21.13    8.57
   6 -10  -3   26.50    7.46
   6 -10  -3   21.46    9.86
  -6 -10   4  102.21   19.24
   6 -10   4  161.79   22.47
  -6 -10  -4  109.54   20.01
   6 -10  -4  141.66   20.21
   6 -10   4  104.51   17.09
   6 -10  -4  134.67   20.49
   6 -10  -5    3.43    2.37
  -6 -10   5    1.84    1.97
   6 -10   5    4.15    2.55
  -6 -10  -5    3.94    5.09
   6 -10  -5    4.72    5.41
  -6  10   5    9.10    6.99
   6 -10   5    5.03    4.88
  -6 -10   6   21.78    8.79
   6 -10  -6   41.75   11.17
  -6 -10  -6   40.44   11.76
   6 -10  -6   43.87   10.62
  -6  10   6   22.63    6.57
   6 -10   6   52.38   14.79
  -6 -10   7    8.82    5.68
   6 -10  -7   13.50    7.55
  -6 -10  -7    0.94    4.10
   6 -10  -7    1.12    2.52
   6 -10   7   -0.53    3.36
  -6 -10   8  109.28   19.88
  -6 -10  -8   97.47   18.63
   6 -10  -8   88.84   16.96
  -6  10   8  101.60   19.56
   6 -10  -8  119.03   19.88
   6 -10   8  117.36   19.96
  -6 -10   9   -3.07    5.21
  -6 -10  -9    1.02    1.66
   6 -10  -9    9.36    6.03
  -6  10   9   -1.29    5.19
   6 -10   9    0.13    1.93
   6 -10  -9   -1.36    1.28
  -6 -10  10   32.33   11.47
  -6 -10 -10   34.49   11.87
   6 -10 -10   38.44   11.85
  -6  10  10   47.64   14.50
   6 -10  10   39.28   11.07
   6 -10 -10   52.50   14.14
   6 -10 -11   65.48   15.96
  -6 -10  11   42.96   11.57
  -6 -10 -11   75.34   16.60
   6 -10  11   67.79   14.64
   6 -10 -11   65.10   14.86
  -6  10  11   75.02   16.17
  -6 -10  12   63.90   14.69
   6 -10 -12   43.93   13.21
  -6 -10 -12   54.19   13.40
   6 -10  12   54.36   13.99
   6 -10 -12   53.36   14.81
  -6  10  12   45.70   13.13
  -6 -10  13   -0.69    3.37
   6 -10  13    1.58    5.79
  -6 -10 -13   -4.66    3.38
   6 -10 -13    2.61    5.26
   6 -10 -13    3.12    6.09
  -6  10  13    2.27    5.46
  -6 -10  14   67.23   15.30
  -6 -10 -14   68.34   15.90
   6 -10 -14   74.09   15.71
  -6  10  14   89.19   19.79
   6 -10 -14   81.63   17.16
   6 -10  14  101.15   19.06
   6 -10 -15   30.73   10.24
  -6 -10  15   51.19   13.86
   6 -10  15   46.33   12.97
  -6 -10 -15   30.82   11.55
   6 -10 -15   32.70   11.23
  -6  10  15   19.14    8.14
  -6 -10  16    5.33    7.15
   6 -10  16    0.15    5.59
   6 -10 -16   -3.08    4.47
  -6 -10 -16    5.35    5.56
   6 -10 -16    5.48    4.81
  -6  10  16    6.61    8.36
  -6 -10  17   -1.82    3.12
   6 -10  17   -0.81    1.18
  -6 -10 -17  -11.42    6.58
   6 -10 -17   -1.91    3.47
  -6  10  17    1.46    4.09
   6 -10 -17    0.44    4.47
  -6 -10  18   68.07   15.46
   6 -10 -18   76.72   17.00
   6 -10  18   47.68   13.44
   6 -10 -18   55.48   15.94
  -6  10  18   35.17   12.45
  -6 -10  19    8.72    8.96
   6 -10  19   21.23    7.78
   6 -10 -19    5.18    0.65
  -6  10  19   16.15    8.72
   6 -10 -19   16.17    7.07
   6 -10  20    5.91    5.81
   6 -10 -20    9.81    6.23
  -6  10  20    1.91    3.15
   6 -10 -20    4.54    5.51
  -6 -10  20    4.81    4.98
   6 -10 -21   62.54   15.43
   6 -10  21   63.24   15.99
  -6  10  21   75.68   18.67
   6 -10 -21   50.50   12.92
  -6 -11   0   10.75    5.85
   6 -11   0    6.95    3.01
   6 -11   0    1.74    2.28
  -6 -11   1    7.70    1.75
  -6 -11  -1   12.88    8.09
   6 -11   1    9.86    7.78
   6 -11  -1   11.07    7.27
   6 -11   1   16.12    8.11
   6 -11  -1   27.01   10.07
  -6 -11   2   10.82    4.98
   6 -11   2   29.83    9.83
   6 -11   2    9.93    1.41
  -6 -11  -2   28.07   10.73
   6 -11  -2   22.86    7.16
   6 -11  -2   23.64    7.56
   6 -11   3   55.03   13.50
  -6 -11   3   57.84   13.05
   6 -11   3   48.73   11.79
  -6 -11  -3   31.74   10.04
   6 -11  -3   53.98   13.75
   6 -11  -3   33.91   11.44
   6 -11   4    2.95    5.96
  -6 -11   4    1.76    1.93
   6 -11   4   11.27    5.46
  -6 -11  -4    1.32    4.54
   6 -11  -4    5.19    7.29
   6 -11  -4   14.89    8.64
  -6 -11   5   -5.79    6.81
  -6 -11  -5    0.23    2.42
   6 -11  -5    0.39    0.41
   6 -11   5   -0.25    2.71
   6 -11  -5    7.87    6.18
   6 -11  -6    5.49    5.59
  -6 -11   6    0.31    3.63
  -6 -11  -6    1.31    1.79
   6 -11  -6    5.79    3.78
  -6  11   6   14.16    8.49
   6 -11   6   -2.63    4.19
  -6 -11   7    0.86    5.41
  -6  11   7   10.94    4.68
   6 -11  -7   -2.47    6.87
  -6 -11  -7    4.35    4.48
   6 -11  -7    5.86    6.64
   6 -11   7    8.01    9.23
  -6 -11   8    0.66    0.42
   6 -11  -8   -1.95    4.90
  -6 -11  -8   -1.08    2.62
   6 -11  -8    3.26    3.65
  -6  11   8    0.71    4.13
   6 -11   8    1.42    3.66
  -6 -11   9    2.67    5.01
  -6 -11  -9   17.90    9.05
   6 -11  -9    7.22    4.72
   6 -11  -9   11.39    7.02
  -6  11   9   25.41   10.20
   6 -11   9   28.77   10.25
  -6 -11  10   -0.36    1.34
   6 -11 -10   -0.53    2.84
  -6  11  10   -4.17    0.86
   6 -11  10    0.97    2.20
   6 -11 -10   -2.33    1.85
  -6 -11  11    5.77    5.69
  -6 -11 -11    5.14    6.12
   6 -11 -11   -3.11    2.24
   6 -11  11   -1.58    4.83
  -6  11  11    1.75    8.40
   6 -11 -11    1.12    5.33
  -6 -11  12   24.98    8.50
  -6 -11 -12   13.01    6.33
   6 -11  12   15.45   10.95
   6 -11 -12   21.11    8.94
  -6  11  12   30.59   13.94
   6 -11 -12   19.38    7.82
  -6 -11  13    3.90    3.69
   6 -11 -13   20.79    9.35
   6 -11  13   22.59   11.36
  -6 -11 -13   24.11   10.68
   6 -11 -13   25.71    9.19
  -6  11  13   17.24    9.39
  -6 -11  14    1.00    4.90
   6 -11 -14   13.73   10.61
   6 -11  14    2.91    4.48
  -6 -11 -14    7.61    7.31
   6 -11 -14    3.34    3.25
  -6  11  14    3.12    5.44
  -6 -11  15    7.62    3.54
   6 -11  15    6.70    5.44
  -6 -11 -15    4.86    0.83
   6 -11 -15    5.44    1.81
   6 -11 -15    7.72    6.64
  -6  11  15   10.69    9.79
  -6 -11  16    2.55    2.74
   6 -11  16   -1.56    1.28
  -6 -11 -16   14.47   11.18
  -6  11  16   -1.04    5.60
   6 -11 -16    5.00    6.46
  -6 -11  17    8.76    6.04
   6 -11  17   18.70    7.26
   6 -11 -17   16.20    8.90
  -6  11  17    0.88    5.58
   6 -11 -17   17.85    8.30
  -6 -11  18    5.03    5.60
   6 -11  18   15.98    9.01
   6 -11 -18    3.37    1.44
   6 -11 -18   19.21    9.18
  -6  11  18   10.48    8.07
  -6 -11  19   -1.43    4.24
   6 -11  19   11.74    7.64
   6 -11 -19   10.87    8.04
   6 -11 -19    7.67    5.11
  -6  11  19    5.00    6.01
  -6 -12   0   23.30    8.40
   6 -12   0   20.88   10.56
   6 -12   0    3.70    3.93
  -6 -12   1    8.85    6.79
  -6 -12  -1   22.04    7.59
   6 -12   1   17.21   10.61
   6 -12   1   21.51    7.82
   6 -12  -1   19.51    9.29
   6 -12  -1   17.41    7.42
   6 -12   2   32.26   11.80
  -6 -12   2   13.09    6.59
   6 -12   2   27.69   11.77
  -6 -12  -2   24.87   10.12
   6 -12  -2   27.62   10.98
   6 -12  -2   28.36   10.36
   6 -12   3   21.04    8.57
  -6 -12   3   31.94   10.71
  -6 -12  -3    9.30    8.88
   6 -12  -3   25.67    8.89
   6 -12  -3   32.38   11.04
   6 -12   4   11.91    6.76
  -6 -12   4   22.31    9.22
  -6 -12  -4   19.27    8.41
   6 -12  -4   15.77    7.61
   6 -12  -4   18.86    9.26
  -6 -12   5   19.11    8.09
  -6 -12  -5    8.78    3.47
   6 -12  -5   12.94    6.76
   6 -12  -5   11.43    6.98
   6 -12   5   14.32    7.50
  -6 -12   6    9.61    7.22
  -6 -12  -6    3.51    2.43
   6 -12  -6    2.09    4.91
   6 -12   6   10.07    6.73
   6 -12  -6   17.86    8.85
   6 -12  -7    4.60    8.20
  -6 -12   7    1.87    3.62
  -6 -12  -7    2.34    1.77
   6 -12  -7    0.13    5.32
   6 -12   7    0.80    5.99
  -6 -12   8   12.81    9.20
   6 -12  -8    7.75    5.57
  -6 -12  -8   15.49    7.43
   6 -12  -8   12.20    8.38
  -6  12   8    0.43    6.37
   6 -12   8    4.41    3.59
  -6 -12   9   16.36    7.45
   6 -12  -9   13.87    7.63
  -6 -12  -9    9.37    4.41
   6 -12  -9   24.46    6.81
  -6  12   9   10.43    6.35
   6 -12   9   12.35    5.26
  -6 -12  10    2.74    5.25
  -6 -12 -10   -3.38    6.66
   6 -12 -10    9.82    7.63
   6 -12 -10   12.39    8.80
  -6  12  10   -2.81    5.91
   6 -12  10   -0.91    1.38
  -6 -12  11   55.86   15.75
  -6 -12 -11   32.90   12.37
   6 -12 -11   57.29   14.61
   6 -12  11   41.70   13.29
   6 -12 -11   33.84   11.84
  -6 -12  12   -3.36    5.75
  -6 -12 -12    6.54    2.65
   6 -12  12    1.55    3.45
   6 -12 -12    0.33    4.55
  -6  12  12    1.55    4.86
   6 -12 -12    2.05    3.55
  -6 -12  13    5.65    5.38
   6 -12  13    9.86    4.72
  -6 -12 -13    0.33    0.70
   6 -12 -13    2.79    4.81
  -6  12  13   10.29    2.45
   6 -12 -13    5.47    4.29
  -6 -12  14    4.20    4.92
   6 -12  14    9.98    7.05
  -6 -12 -14    4.30    7.92
   6 -12 -14    6.07    3.85
  -6  12  14   16.22    6.39
   6 -12 -14   22.43   11.94
  -6 -12  15   -4.94    7.75
   6 -12 -15   -3.58    6.10
   6 -12  15   -1.09    3.89
  -6 -12 -15   -1.16    1.75
   6 -12 -15   11.25    8.93
  -6  12  15    7.40    8.86
  -6 -12  16   19.06    9.46
   6 -12  16   24.28    5.77
   6 -12 -16   30.47   11.32
  -6 -12 -16   41.95   14.94
   6 -12 -16   30.92   12.50
  -6  12  16   14.61    7.86
  -6 -13   0   19.53    9.14
   6 -13   0   32.02    9.91
  -6 -13   1   -0.08    5.30
   6 -13   1   13.42    8.70
  -6 -13  -1   -2.90    7.05
   6 -13  -1   -1.09    1.65
   6 -13  -1    5.38    2.54
   6 -13   2    4.86    4.66
  -6 -13   2   10.49    6.92
  -6 -13  -2    2.99    3.01
   6 -13  -2    2.39    6.40
   6 -13  -2    2.68    5.83
   6 -13   3    2.69    0.98
  -6 -13   3   -1.08    3.87
  -6 -13  -3   10.17    8.59
   6 -13  -3    3.94    7.36
   6 -13  -3    7.19    8.96
  -6 -13   4    2.97    4.79
  -6 -13  -4   -0.23    3.06
   6 -13  -4    3.02    5.85
   6 -13  -4    6.58    5.58
   6 -13   4   -5.31    4.04
  -6 -13   5   -1.31    2.90
  -6 -13  -5    6.15    6.73
   6 -13  -5   12.29    9.07
   6 -13  -5    4.19    1.24
   6 -13   5    1.88    1.31
  -6 -13   6   -0.31    3.24
  -6 -13  -6    0.99    6.95
   6 -13  -6   -9.11    8.95
   6 -13   6   -3.72    5.11
   6 -13  -6    2.30    0.99
  -6 -13   7    5.23    5.14
  -6 -13  -7    5.36    6.66
   6 -13  -7   -0.29    5.13
   6 -13   7   10.76    7.89
   6 -13  -7    1.36    3.29
   6 -13  -8    4.72    3.39
  -6 -13   8   -1.78    4.00
  -6 -13  -8   -7.11    7.28
   6 -13  -8    0.55    2.43
   6 -13   8    1.82    5.41
  -6 -13   9    1.65    1.37
   6 -13  -9    7.03    4.98
  -6 -13  -9    5.78    7.17
   6 -13  -9    8.38    7.50
   6 -13   9   -2.51    4.00
  -6 -13  10    8.27    6.96
   6 -13 -10    4.86    8.35
  -6 -13 -10   -2.39    2.42
   6 -13 -10    1.97    5.34
  -6  13  10    0.44    3.66
   6 -13  10    1.87    4.29
  -6 -13  11   -0.45    6.16
  -6 -13 -11    6.32    6.58
   6 -13 -11    1.28    2.58
   6 -13 -11   10.09    7.15
  -6  13  11   -1.27    3.47
   6 -13  11    4.67    0.75
  -6 -13  12   -4.65    6.36
  -6 -13 -12    1.96    6.18
   6 -13 -12   -1.15    1.94
   6 -13  12   -0.05    2.65
   6 -13 -12    3.65    5.48
  -6  13  12   -5.50    8.53
  -6 -13  13    6.38    9.69
  -6 -13 -13    0.84    1.54
   6 -13  13    5.03    3.85
   6 -13 -13   -2.30    8.57
  -6  13  13   -4.53    9.51
   6 -13 -13   20.44   10.07
  -6 -14   0   33.03   11.74
   6 -14   0   54.72   13.65
   6 -14   1    4.22    5.13
  -6 -14   1    7.40    3.52
  -6 -14  -1   -2.38    6.09
   6 -14  -1   -3.46    4.68
   6 -14   2    5.29    6.63
  -6 -14   2   15.12    5.96
  -6 -14  -2   -2.22    3.72
   6 -14  -2   10.64    6.55
   6 -14   3   40.47   12.15
  -6 -14   3   52.63   15.57
  -6 -14  -3   34.78   11.79
   6 -14  -3   37.99   12.88
   6 -14  -3   36.06   10.72
  -6 -14   4   23.91   12.23
  -6 -14  -4   19.84    5.18
   6 -14  -4   24.72   12.66
   6 -14  -4   29.95    9.43
   6 -14   4   17.29    7.54
  -6 -14   5   -8.08    6.84
  -6 -14  -5    1.63    6.23
   6 -14  -5   12.27    9.86
   6 -14  -5    0.80    4.71
   6 -14   5    2.29    4.52
  -6 -14   6    9.77    7.38
  -6 -14  -6   19.19   11.34
   6 -14  -6   -5.56    9.48
   6 -14  -6    0.61    6.32
   6 -14   6   10.38    3.50
  -6 -14   7   17.67    8.49
  -6 -14  -7   24.72   11.60
   6 -14  -7    5.35    2.85
   6 -14   7   36.91   12.10
   6 -14  -7    6.33    2.01
  -6 -14   8   30.91   12.27
  -6 -14  -8   32.01   13.48
   6 -14  -8   23.26    8.00
   6 -14   8   16.03    8.98
   6 -14  -8   16.02    8.54
   6 -14  -9    5.13    6.22
  -6 -14   9   -4.72    4.79
  -6 -14  -9   12.14   10.56
   6 -14  -9   -8.03    8.29
   6 -14   9    9.15    7.74
   7   0   0    1.33    1.91
  -7   0   0   -0.89    2.63
   7   0   1    0.49    2.12
   7   0  -1    0.07    0.58
  -7   0   1   -0.80    3.65
  -7   0   2  792.14   44.21
   7   0   2  791.26   35.04
   7   0  -2  688.01   26.50
   7   0   3    0.50    2.34
  -7   0   3   -1.68    2.10
   7   0  -3   -0.76    0.27
   7   0  -4  488.92   22.76
  -7   0   4  540.98   36.63
   7   0  -5   -0.61    0.85
  -7   0   5   -1.89    1.44
   7   0   5    1.42    2.70
  -7   0   6  149.10   19.56
   7   0  -6  124.72   11.93
  -7   0   7   -3.44    2.97
   7   0   7   -0.49    0.74
   7   0  -7   -0.12    1.39
   7   0   8  406.86   28.46
  -7   0   8  367.24   30.06
   7   0  -8  338.05   21.53
  -7   0   9   -0.91    1.85
   7   0   9    2.31    3.13
   7   0  10   51.60   10.83
  -7   0  10   36.51    9.09
  -7   0  11   -3.49    4.90
   7   0  11   -0.40    0.73
   7   0  12  108.64   15.77
  -7   0  12  106.68   16.89
  -7   0  13   -4.53    3.67
   7   0  13    1.23    1.68
   7   0  14  587.72   40.51
  -7   0  14  655.64   43.26
   7   0  15    3.08    4.29
  -7   0  15   -0.43    2.81
   7   0  16  362.82   33.16
  -7   0  16  484.68   38.77
   7   0  17    0.34    4.11
  -7   0  17   -2.92    5.18
   7   0  18   33.85   11.85
  -7   0  18   72.03   15.30
   7   0  19    3.33    2.83
  -7   0  19    2.94    6.33
   7   0  20   67.87   15.57
  -7   0  20   87.91   17.11
   7   0  20   80.27   15.72
   7   0  21   -2.15    3.32
  -7   0  21   -0.12    2.78
   7   0  21   -5.94    7.35
   7   0  22   16.09   11.84
  -7   0  22   46.63   13.36
   7   0  22   30.77   10.23
   7   0  23   -0.64    5.89
  -7   0  23   13.37    9.38
   7   0  23   -1.30    4.03
   7   0  24  101.38   19.57
  -7   0  24   97.33   19.03
   7   0  24   90.37   18.66
   7   0  25   -4.52    0.44
  -7   0  25   -0.79    1.02
   7   0  25   -0.50    4.81
   7   0  26   47.57   11.51
  -7   0  26   35.60   11.61
   7   0  26   43.35   13.47
   7   0  27    5.07    4.72
  -7   0  27    6.75    5.39
   7   0  27    5.39    8.62
  -7  -1   0   -0.61    4.10
  -7   1   0   -2.66    4.06
   7  -1   0    2.50    3.08
   7   1   0   -1.31    0.98
   7  -1  -1  237.80   18.20
   7   1   1  179.21   13.73
   7   1  -1  164.85   11.10
  -7  -1   1  206.79   22.08
  -7   1   1  172.32   20.60
   7  -1   1  198.00   17.01
   7  -1  -2  354.07   22.03
  -7   1   2  390.63   32.09
  -7  -1   2  415.59   31.85
   7  -1   2  413.33   25.01
   7  -1  -3  140.82   13.97
   7   1   3  118.55   12.58
  -7   1   3  111.14   16.39
  -7  -1   3  142.93   17.99
   7  -1   3  162.46   16.64
   7   1   4  115.43   12.49
   7  -1  -4   83.37   10.72
  -7   1   4   73.01   14.18
  -7  -1   4   63.07   12.01
   7  -1   4  101.59   13.34
   7  -1   5   -0.54    1.83
  -7   1   5    3.48    3.87
  -7  -1   5    5.00    6.99
   7  -1  -5    1.16    1.65
   7   1   5   -0.86    0.12
   7   1   6  318.29   22.99
  -7   1   6  294.50   28.00
  -7  -1   6  313.37   27.73
   7  -1   6  337.64   24.72
   7  -1  -6  285.54   20.87
   7  -1   7    9.90    5.09
   7  -1  -7    7.19    3.69
  -7   1   7    5.86    4.84
  -7  -1   7   15.72    5.95
   7   1   7   15.28    4.46
   7   1   8  238.55   21.31
   7  -1   8  224.20   21.66
  -7  -1   8  281.31   26.18
   7  -1  -8  227.61   21.56
   7  -1  -9  192.32   17.99
   7   1   9  202.90   20.42
   7  -1   9  192.32   20.46
  -7   1   9  233.70   25.62
  -7  -1   9  228.70   24.51
   7  -1 -10   24.41    7.00
   7   1  10   14.83    5.64
  -7   1  10   15.33    5.41
  -7  -1  10   29.63    8.92
   7  -1  10    9.08    3.59
   7   1  11  192.48   21.55
   7  -1  11  178.45   21.19
   7  -1 -11  212.33   19.65
  -7   1  11  218.67   24.38
   7  -1  12  404.65   32.41
  -7   1  12  390.48   32.66
  -7  -1  12  312.31   28.83
  -7   1  13    8.95    4.30
  -7  -1  13    1.46    3.33
   7  -1  13   10.52    4.81
   7   1  14   52.98   14.78
   7  -1  14   92.87   15.54
  -7   1  14   63.92   13.85
  -7  -1  14   84.83   16.54
   7   1  15    1.31    4.63
  -7   1  15    2.00    4.83
  -7  -1  15   -3.58    4.15
   7  -1  15    2.08    2.11
   7   1  16    3.30    1.48
  -7   1  16    3.88    7.89
  -7  -1  16    4.51    4.94
   7  -1  16    6.42    4.88
   7   1  17    7.60    5.03
  -7   1  17    8.53    1.44
   7  -1  17    4.09    3.12
  -7  -1  17    2.88    3.39
   7   1  18   -1.11    2.99
   7  -1  18   10.11    7.46
  -7   1  18    4.36    7.38
  -7  -1  18    0.72    3.88
   7   1  19   -0.61    4.66
   7  -1  19   -0.71    3.45
  -7   1  19   -9.70    6.38
  -7  -1  19    0.87    3.24
   7   1  19    6.96    5.67
   7   1  20    2.56    3.65
   7  -1  20   -1.27    3.49
  -7   1  20   12.89    8.37
  -7  -1  20    7.34    5.56
   7   1  20    2.95    1.52
   7   1  21    6.04    8.12
   7  -1  21    3.84    5.07
  -7   1  21   -1.58    1.99
  -7  -1  21    8.65    6.62
   7   1  21   -1.17    3.73
   7  -1  21    2.66    0.74
   7   1  22   -1.81    5.03
   7  -1  22   -8.64    7.50
  -7   1  22   -0.07    5.30
  -7  -1  22    1.09    4.87
   7   1  22    4.00    4.27
   7  -1  22   -3.12    4.94
   7   1  23   -1.80    0.98
   7  -1  23   -1.10    2.12
  -7  -1  23   -2.74    3.20
   7   1  23    0.63    1.37
   7  -1  23    0.98    3.07
   7   1  24    0.13    2.71
   7  -1  24   -2.77    5.11
  -7   1  24   -1.35    4.29
  -7  -1  24    1.84    2.01
   7   1  24   -0.55    3.91
   7  -1  24    3.97    6.98
   7   1  25   -1.40    1.57
  -7   1  25   -1.67    4.35
  -7  -1  25   -2.33    2.25
   7   1  25   -5.15    3.70
   7  -1  25    6.17    4.68
   7   1  26    0.72    3.49
   7  -1  26    3.36    3.30
  -7   1  26   -0.94    5.98
  -7  -1  26   -6.58    7.19
   7   1  26   -3.05    3.73
   7  -1  26   -0.57    4.56
   7   1  27    2.27    4.76
   7  -1  27   10.67    7.37
  -7   1  27   -4.02    4.43
  -7  -1  27   -2.48    5.14
   7   1  27    3.07    5.93
   7  -1  27    4.90    2.77
  -7  -2   0    1.15    3.58
  -7   2   0   -5.60    3.46
   7  -2   0    2.62    2.96
   7  -2  -1  306.88   22.67
  -7  -2   1  381.91   28.65
  -7   2   1  388.65   31.75
   7  -2   1  381.12   25.71
   7   2   2   71.80    7.57
   7  -2  -2   85.12   11.85
  -7   2   2   77.18   15.38
  -7  -2   2   94.79   14.44
   7  -2   2   99.18   12.96
   7  -2  -3   72.10   10.70
  -7   2   3   75.09   15.09
  -7  -2   3   95.30   14.99
   7  -2   3   63.93   10.56
   7  -2   4   -1.05    5.21
   7   2   4    4.64    3.42
  -7   2   4    2.97    6.73
  -7  -2   4    4.63    7.06
   7  -2  -4    0.80    1.77
   7  -2  -4    7.35    2.93
  -7   2   5  952.47   51.77
  -7  -2   5 1076.52   51.05
   7  -2  -5  987.23   35.66
   7  -2  -5  937.13   41.06
   7  -2   5  946.65   42.85
   7  -2  -6   23.42    6.82
   7  -2   6   43.37    8.95
   7   2   6   22.95    5.92
  -7   2   6   30.31   10.33
  -7  -2   6   35.32    9.78
   7   2   7  165.00   16.75
  -7  -2   7  143.52   17.89
   7  -2   7  177.04   19.59
   7  -2  -7  146.81   16.48
   7   2   8   27.04    6.93
   7  -2   8   45.62   10.46
  -7   2   8   21.46    7.99
  -7  -2   8   33.39    8.49
   7  -2  -8   29.42    7.44
   7  -2   9    3.50    4.77
   7  -2  -9    2.33    1.97
   7   2   9    4.40    2.79
  -7   2   9    6.78    6.46
  -7  -2   9    8.30    3.61
   7   2  10  213.17   21.19
   7  -2 -10  260.90   24.07
   7  -2  10  230.85   23.48
  -7   2  10  286.16   27.76
  -7  -2  10  265.75   25.47
   7   2  11   50.79   10.95
   7  -2 -11   90.18   14.51
   7  -2  11   73.02   13.34
  -7  -2  11   66.90   12.59
  -7   2  11   45.89    9.93
   7   2  12    6.40    4.61
  -7   2  12   15.42    3.40
  -7  -2  12   11.10    7.03
   7   2  13  152.14   19.27
   7  -2  13  184.58   21.88
  -7   2  13  179.06   22.55
  -7  -2  13  171.62   21.41
   7   2  14   -1.45    3.30
  -7   2  14    1.83    2.61
  -7  -2  14    9.37    7.77
   7  -2  14    6.19    4.87
   7   2  15   48.28   11.22
  -7   2  15   37.87   11.88
  -7  -2  15   33.30    8.35
   7  -2  15   51.14   12.49
   7   2  16   88.92   16.04
   7  -2  16  102.41   16.67
  -7   2  16  132.37   20.12
  -7  -2  16  129.69   20.37
   7   2  17   21.75   11.41
  -7   2  17   30.75   11.22
  -7  -2  17   17.03    9.91
   7  -2  17   43.57   12.03
   7   2  17   40.51   11.17
   7   2  18    3.99    4.59
  -7   2  18   -1.14    2.20
  -7  -2  18   -0.76    3.88
   7  -2  18    3.17    5.66
   7   2  18    0.22    1.01
   7   2  19  134.58   21.44
   7  -2  19  145.80   21.63
  -7   2  19  126.08   20.65
  -7  -2  19  144.64   22.52
   7   2  19  189.69   23.49
   7   2  20  115.37   20.46
  -7   2  20  103.89   19.13
  -7  -2  20  109.86   18.49
   7  -2  20   83.99   15.64
   7   2  20  113.84   20.50
   7   2  21   -1.99    2.80
   7  -2  21    1.82    0.74
  -7   2  21   -1.54    2.15
  -7  -2  21   -1.73    4.48
   7   2  22   -3.05    5.28
   7  -2  22   -0.53    5.77
  -7   2  22    3.79    4.47
  -7  -2  22   -1.37    3.03
   7   2  22    2.12    4.21
   7  -2  22    4.38    5.08
   7   2  23   64.27   14.72
   7  -2  23   74.03   16.34
  -7   2  23   69.07   15.20
  -7  -2  23   52.22   13.83
   7   2  23   66.42   16.16
   7  -2  23   85.49   17.54
   7   2  24    1.83    1.92
   7  -2  24   -1.15    2.87
  -7   2  24    6.62    7.82
  -7  -2  24   -0.23    3.76
   7   2  24    1.86    6.88
   7  -2  24    2.64    4.66
   7   2  25    0.24    4.32
   7  -2  25    1.91    5.79
  -7   2  25    1.45    4.29
  -7  -2  25    3.57    6.40
   7   2  25    3.37    2.54
   7  -2  25    2.67    4.73
   7   2  26   -0.11    3.87
   7  -2  26   11.58    6.49
  -7   2  26    8.72    6.28
  -7  -2  26    5.56    1.62
   7   2  26   11.11    8.56
   7  -2  26    7.28    7.78
   7   2  27    4.97    4.00
   7  -2  27   12.48    7.88
  -7   2  27    3.57    1.96
  -7  -2  27   17.87   10.47
   7   2  27   -3.69    2.11
   7  -2  27   -5.50    7.73
  -7   3   0    3.74    5.89
   7  -3   0   -1.22    2.77
   7  -3  -1   35.74    7.78
  -7  -3   1   25.60    8.44
  -7   3   1   22.35    7.31
   7  -3  -2   32.19    7.86
  -7   3   2   18.81    8.88
  -7  -3   2   12.30    5.81
   7  -3   2   20.58    7.51
  -7  -3   3   -3.83    2.28
  -7   3   3    9.98    5.44
  -7  -3   3    7.01    3.38
   7  -3  -3    2.85    3.34
   7  -3   3    4.32    1.33
   7  -3  -4   36.46    6.34
   7  -3   4   37.17    9.18
  -7   3   4   43.94   10.17
   7  -3  -4   47.76    9.72
  -7  -3   4   41.37   10.21
  -7  -3   4   48.31    8.75
   7  -3  -5  501.12   26.66
  -7   3   5  490.84   37.57
   7  -3  -5  581.29   34.41
   7  -3   5  517.72   33.46
  -7  -3   5  541.72   30.12
   7   3   5  540.74   26.80
   7  -3  -6    5.71    4.78
   7   3   6    6.00    2.52
   7  -3   6    4.87    4.62
  -7   3   6    5.23    1.43
  -7  -3   6    8.29    1.61
   7  -3  -6   -1.26    2.17
   7   3   7   93.77   12.82
  -7  -3   7   87.51   14.05
   7  -3  -7   98.00   12.77
   7  -3   7   96.29   14.20
   7  -3  -7  100.40   14.76
   7   3   8   60.50   10.12
  -7   3   8   70.13   14.44
  -7  -3   8   67.92   12.23
   7  -3  -8   50.90    9.83
   7  -3   8   53.00   11.78
   7  -3  -8   75.57   13.18
   7   3   9  110.88   14.10
   7  -3  -9   95.56   14.19
  -7   3   9  102.08   17.02
  -7  -3   9  128.56   17.46
   7  -3   9  131.47   17.15
   7  -3  -9   76.66   12.37
   7  -3  10    0.75    1.83
   7   3  10    5.46    3.89
  -7   3  10    0.08    3.36
  -7  -3  10    4.28    5.74
   7  -3 -10   -4.38    5.86
   7   3  11  167.88   18.73
   7  -3 -11  154.39   19.21
  -7   3  11  171.86   22.61
  -7  -3  11  165.65   20.66
   7  -3  11  235.47   23.63
   7   3  12  103.33   15.34
   7  -3 -12   70.21   12.50
   7  -3  12   69.13   14.90
  -7   3  12   76.61   14.62
  -7  -3  12  109.88   17.21
   7   3  13   13.71    6.08
  -7   3  13   34.51   11.90
  -7  -3  13   37.60   10.47
   7  -3  13   13.55    5.25
   7   3  14    5.60    2.16
  -7   3  14   -0.38    2.04
  -7  -3  14    3.74    2.77
   7  -3  14    5.20    4.60
   7   3  15   29.31    7.12
  -7   3  15   34.58   10.76
  -7  -3  15   43.48   11.14
   7  -3  15   54.58   13.09
   7   3  15   43.11   11.15
   7   3  16    2.79    4.50
  -7   3  16    6.79    6.52
  -7  -3  16    5.16    5.35
  -7   3  16   18.91   10.65
   7  -3  16    0.89    6.02
   7   3  16    9.19    2.02
   7   3  17    4.43    6.69
  -7   3  17    4.45    3.15
  -7  -3  17    9.52    3.94
   7  -3  17    9.22    5.57
   7   3  17   15.14    8.02
   7   3  18   -2.43    3.59
  -7   3  18    6.51    4.42
  -7  -3  18   -1.09    1.79
   7  -3  18    6.56    5.55
   7   3  18    4.05    4.90
   7   3  19    3.39    6.71
  -7   3  19    0.28    4.54
  -7  -3  19    2.97    3.83
   7  -3  19    2.55    4.12
   7   3  19    5.55    6.75
   7   3  20    2.97    2.18
  -7   3  20    0.88    1.03
  -7  -3  20    4.57    6.59
   7  -3  20    1.06    6.98
   7   3  20    5.59    6.23
   7   3  21    3.83    5.46
  -7   3  21   -0.60    0.75
  -7  -3  21    2.87    5.58
   7  -3  21    4.00    6.36
   7   3  21   10.32    6.75
   7   3  22   -0.38    2.38
  -7   3  22   -1.56    3.05
   7  -3  22    1.65    3.32
  -7  -3  22    3.13    3.81
   7   3  23    1.40    3.77
   7  -3  23    2.03    3.60
  -7   3  23    5.94    2.74
  -7  -3  23    4.40    6.33
   7   3  23    8.76    6.80
   7  -3  23    4.76    4.49
   7   3  24   10.84    4.83
   7  -3  24   18.75    7.68
  -7   3  24   15.71    9.10
  -7  -3  24   10.87    6.80
   7   3  24   10.67    6.19
   7  -3  24   12.13    6.45
   7   3  25   -1.94    5.21
   7  -3  25    0.30    4.67
  -7   3  25    5.08    4.71
  -7  -3  25    0.73    4.82
   7  -3  25   -0.05    3.05
   7   3  26   -8.64    8.57
   7  -3  26   -9.10    9.23
  -7   3  26   -1.80    2.96
  -7  -3  26   -6.78    4.12
   7  -4   0    4.42    5.20
   7  -4   1  129.18   16.98
   7  -4  -1  136.21   17.18
  -7  -4   1  116.00   14.69
  -7   4   1  132.88   17.35
   7  -4   2  412.27   29.93
   7  -4  -2  453.17   31.50
  -7  -4   2  466.57   30.65
  -7   4   2  460.19   35.56
  -7  -4   2  423.51   26.97
  -7  -4   3    9.26    5.13
  -7   4   3    4.82    2.16
  -7  -4   3   13.24    5.02
   7  -4  -3    1.66    2.07
   7  -4   3    7.27    3.72
   7  -4  -4  427.98   25.25
  -7   4   4  480.51   37.84
  -7  -4   4  525.51   33.94
   7  -4  -4  488.28   33.30
   7  -4   4  556.37   34.77
  -7  -4   4  477.14   29.56
   7  -4  -5   94.46   12.19
  -7   4   5  128.91   18.82
  -7  -4   5   81.09   13.66
   7  -4  -5  111.44   16.36
   7  -4   5   96.88   15.07
  -7  -4   5  112.56   14.90
   7  -4  -6   50.78    9.06
  -7  -4   6   62.53   12.18
  -7   4   6   47.90   11.29
   7  -4  -6   70.55   13.46
   7  -4   6   80.75   13.61
  -7  -4   6   67.53   11.60
  -7  -4   7    9.15    6.19
   7  -4   7   31.61    9.08
   7  -4  -7   30.58    8.01
  -7   4   7   32.70    9.72
  -7  -4   7   28.11    7.90
   7  -4  -7   28.23    7.27
   7  -4  -8   91.43   13.56
  -7   4   8   92.35   17.33
  -7  -4   8  123.43   16.94
   7  -4   8  134.09   17.84
   7   4   8  107.52   13.91
   7  -4  -8  140.56   18.31
  -7  -4   8   82.84   13.21
   7  -4  -9  116.98   16.92
   7  -4  -9  157.93   18.75
  -7   4   9  134.21   21.23
  -7  -4   9  127.31   18.17
   7  -4   9  159.45   20.09
   7   4   9  137.56   16.65
   7  -4  10    4.23    5.06
   7   4  10   -0.69    0.75
  -7   4  10    1.02    3.29
   7  -4 -10    6.74    3.15
  -7  -4  10    3.64    4.10
   7  -4 -10    2.51    2.15
   7  -4  11    0.26    5.20
   7  -4 -11    1.13    4.18
   7   4  11    4.50    5.11
  -7   4  11   -2.36    3.57
  -7  -4  11   -3.09    5.85
   7  -4 -11   -0.73    2.49
   7  -4 -12    8.03    6.03
   7  -4  12   -1.55    2.34
   7   4  12    5.09    2.97
  -7   4  12    5.82    4.71
  -7  -4  12    2.92    2.75
   7  -4 -12    2.54    1.95
   7  -4 -13  162.85   20.31
  -7   4  13  160.78   22.66
   7  -4  13  157.07   20.83
  -7  -4  13  144.69   19.63
   7  -4 -13  141.34   20.07
   7   4  13  156.48   19.24
   7   4  13  129.16   18.49
   7   4  14    3.54    3.78
  -7   4  14    5.74    3.48
  -7  -4  14    9.96    7.08
   7   4  14    9.83    6.50
   7  -4  14    5.32    3.91
   7   4  15   13.96    6.06
  -7   4  15    4.74    1.70
  -7  -4  15    1.72    3.68
   7   4  15   11.34    2.14
   7  -4  15    7.81    3.36
   7   4  16   48.52   11.01
   7  -4  16   79.38   15.78
  -7   4  16   42.36   11.17
  -7  -4  16   75.52   14.89
   7   4  16   89.53   15.70
   7   4  17   48.91   11.26
  -7   4  17   35.08    9.39
  -7  -4  17   51.58   13.22
  -7   4  17   40.75   10.50
   7  -4  17   47.58   12.93
   7   4  18   51.52   12.79
  -7   4  18   57.44   14.38
  -7  -4  18   63.14   14.56
  -7   4  18   50.59   13.60
   7  -4  18   31.26   11.94
   7   4  19   20.22    8.66
  -7   4  19   20.01    9.28
  -7  -4  19    7.96    3.68
   7  -4  19   20.51    9.70
  -7   4  19   22.10   11.91
   7   4  20   80.75   16.65
  -7   4  20   65.64   14.54
  -7  -4  20   59.68   14.89
   7  -4  20   76.04   15.73
   7   4  21   14.22    8.89
  -7   4  21   11.54    6.42
  -7  -4  21   16.46    8.70
   7  -4  21    1.51    0.92
   7   4  22   11.99    8.75
  -7   4  22   -0.74    4.65
  -7  -4  22    2.03    4.07
   7  -4  22    4.31    3.44
   7   4  23   -3.16    4.92
  -7   4  23    4.00    4.30
   7  -4  23   20.05   11.68
  -7  -4  23    3.30    7.08
   7  -4  23   16.30    8.48
   7   4  24   17.61    9.23
  -7   4  24    9.23    6.28
   7  -4  24    3.18    2.86
  -7  -4  24   16.47    7.62
   7  -4  24   -0.21    7.11
   7   4  25    0.48    1.37
   7  -4  25   14.00    9.16
  -7   4  25   11.34    8.36
  -7  -4  25   22.17   10.40
   7  -4  25   -2.90    8.53
   7   4  26   11.09    9.31
   7  -4  26    3.12    6.65
  -7   4  26    6.26    3.04
  -7  -4  26   -0.17    5.37
   7  -4  26   14.47    8.02
   7  -5   0    3.71    2.15
   7  -5   1    0.48    2.34
  -7  -5   1    1.66    2.12
   7  -5  -1    3.12    2.59
  -7   5   1    3.57    5.70
  -7  -5   2    5.45    3.23
  -7   5   2    9.19    4.66
   7  -5  -2   16.27    7.12
   7  -5   2    9.79    4.98
   7  -5   3   60.56   11.92
  -7  -5   3   45.89    9.52
  -7   5   3   43.86   12.27
   7  -5  -3   50.93   11.17
  -7  -5   4   22.63    5.83
   7  -5  -4   16.55    6.22
  -7   5   4   18.14    7.25
   7  -5   4   33.15    8.98
   7  -5  -4    9.95    6.56
   7  -5  -5   22.13    8.39
  -7  -5   5    9.60    5.06
   7  -5  -5    9.19    2.59
  -7   5   5   15.72    6.50
   7  -5   5   14.84    6.65
   7  -5  -6   60.29   10.69
  -7   5   6   83.80   16.37
   7  -5  -6   66.77   13.62
   7  -5   6   68.26   13.62
  -7  -5   6   72.41   13.26
   7  -5  -7   73.90   12.25
  -7   5   7   90.56   16.73
   7  -5   7   94.87   16.06
   7  -5  -7  102.45   15.95
  -7  -5   7   76.39   13.65
  -7  -5   8    0.28    1.35
   7  -5   8    3.53    2.30
  -7   5   8    2.19    3.21
   7  -5  -8   -1.15    3.89
   7  -5  -8   -1.71    5.39
  -7  -5   9   -0.24    3.03
   7  -5  -9   -2.19    1.97
   7  -5   9    3.76    4.89
  -7   5   9    1.17    1.12
   7  -5  -9   -1.54    2.49
  -7  -5  10    4.96    4.09
   7  -5  10    3.27    2.25
   7  -5 -10    4.96    4.15
  -7   5  10    0.87    2.68
  -7  -5  10    9.80    5.82
   7  -5 -10    9.81    5.80
   7   5  11   17.90    6.19
   7  -5  11   25.52    6.63
  -7   5  11   24.65    8.82
  -7  -5  11   34.04    9.72
   7  -5 -11   40.41   10.66
   7  -5 -11   19.35    7.12
  -7  -5  11   27.27    8.24
   7   5  12   14.25    5.82
   7  -5  12   20.58    7.59
   7  -5 -12   18.95    7.44
  -7   5  12   13.02    5.85
  -7  -5  12   22.84    8.47
   7  -5 -12   17.50    6.21
   7  -5 -13    4.73    4.20
   7  -5  13   -3.56    1.88
   7   5  13    1.97    4.75
  -7   5  13   -0.95    3.03
  -7  -5  13    1.20    0.57
   7  -5 -13    1.76    5.83
   7  -5  14    5.93    0.90
   7   5  14   11.84    6.89
  -7   5  14    3.58    4.12
  -7  -5  14    3.39    2.21
   7  -5 -14   11.57    7.76
   7  -5 -14   12.86    5.18
   7  -5  15    4.12    3.99
   7   5  15    9.76    2.75
  -7   5  15    6.04    3.19
  -7  -5  15    9.94    6.55
   7  -5 -15   15.34    7.14
   7   5  16   27.02    9.24
  -7   5  16   35.67   11.11
  -7  -5  16   11.93    7.04
   7  -5 -16   37.23   11.42
   7  -5  16   30.81    9.70
   7   5  17   -0.90    3.96
  -7   5  17   -0.89    4.42
  -7  -5  17    3.24    3.33
   7  -5 -17    8.98    6.19
   7  -5  17    6.75    4.83
   7   5  18   -0.07    2.67
  -7   5  18   -1.34    5.02
  -7  -5  18   -0.02    4.90
   7  -5 -18    7.06    8.63
   7  -5  18    9.14    6.68
   7   5  19    8.93    6.39
  -7   5  19    4.87    5.67
  -7  -5  19    3.05    5.07
   7  -5 -19    3.87    4.23
  -7   5  19    1.35    1.93
   7  -5  19    8.93    6.28
   7   5  20    2.16    5.13
  -7   5  20    4.56    7.99
  -7  -5  20   -0.07    4.86
   7  -5 -20   -3.70    4.07
  -7   5  20    0.02    1.77
   7  -5  20    1.37    2.54
   7   5  21    3.37    8.85
  -7   5  21    3.31    3.24
  -7  -5  21    5.77    7.11
   7  -5 -21    0.63    2.49
   7  -5  21    0.85    4.62
  -7   5  21    6.93    5.99
   7   5  22    9.06    8.83
  -7   5  22   12.93    8.16
  -7  -5  22   13.22    9.34
   7  -5 -22   17.28    8.57
   7  -5  22   10.74    5.79
  -7   5  22   21.04    9.75
   7   5  23    5.50    4.76
  -7   5  23   17.53    9.27
  -7  -5  23   22.25    9.71
   7  -5 -23   23.14   11.78
   7  -5  23    6.57    4.23
   7   5  24   12.42    3.13
  -7   5  24   17.33    8.61
  -7  -5  24   29.34   11.95
   7  -5  24   14.31    4.39
   7  -5 -24   14.08    9.24
   7  -5  24   21.97    9.58
   7   5  25    5.06    4.66
  -7   5  25    4.78    5.63
   7  -5  25    4.55    3.45
  -7  -5  25   -3.18    5.75
   7  -5 -25   12.16    9.52
   7  -5  25    3.62    7.00
  -7  -6   0    1.38    2.26
   7  -6   0    2.07    1.49
  -7  -6   1  263.95   24.74
  -7  -6  -1  305.48   27.14
   7  -6   1  268.17   26.54
   7  -6  -1  272.58   27.21
  -7  -6   2  282.79   25.91
   7  -6   2  233.67   24.66
  -7   6   2  250.84   26.32
   7  -6  -2  287.18   27.03
  -7  -6   3    2.70    1.31
  -7   6   3    0.13    5.73
   7  -6  -3   -0.20    3.67
   7  -6   3   -0.86    4.18
  -7  -6   4    1.11    2.14
   7  -6  -4    1.55    2.64
  -7   6   4   -3.41    4.97
   7  -6   4   -1.39    3.55
   7  -6  -4   -0.34    3.09
   7  -6   5  324.24   28.44
   7  -6  -5  217.39   21.60
  -7   6   5  250.03   28.19
   7  -6  -5  312.61   29.39
  -7  -6   5  209.56   23.30
  -7  -6   6   -1.84    3.14
   7  -6  -6    1.17    1.77
   7  -6  -6    3.87    4.43
  -7   6   6    4.37    6.97
   7  -6   6    1.24    4.47
   7  -6  -7   54.13   11.01
  -7   6   7   82.61   16.83
   7  -6  -7   82.43   15.19
   7  -6   7   61.52   13.25
  -7  -6   7   73.47   13.75
  -7  -6   8    6.28    4.95
   7  -6   8   16.92    8.49
  -7   6   8   11.56    4.36
   7  -6  -8    4.98    2.32
   7  -6  -8   18.50    6.40
   7  -6   9   41.71   11.43
  -7   6   9   50.71   13.09
   7  -6  -9   38.19    9.65
   7  -6  -9   43.12   11.03
  -7  -6   9   64.76   13.22
   7  -6 -10  106.82   17.64
   7  -6 -10  126.71   18.10
  -7   6  10  114.29   19.21
   7  -6  10  119.36   18.95
  -7  -6  10  107.98   17.58
  -7  -6  11    2.94    2.46
   7  -6  11   16.24    8.16
   7  -6 -11   12.17    7.19
  -7   6  11    6.58    4.13
   7  -6 -11   17.94    8.08
   7  -6 -12  300.42   30.37
   7  -6 -12  261.73   27.24
  -7   6  12  236.67   29.06
   7  -6  12  257.20   28.41
  -7  -6  12  219.45   25.06
   7  -6 -13  101.94   17.27
   7  -6 -13   86.43   16.03
  -7   6  13   78.62   17.34
   7  -6  13   85.21   16.09
  -7  -6  13   87.06   15.88
   7  -6 -14   -0.02    3.91
   7  -6  14    4.56    3.08
  -7   6  14    5.09    8.33
   7  -6 -14   -1.18    2.13
   7  -6  15    6.40    5.65
   7   6  15   -0.98    5.90
   7  -6 -15    5.01    4.65
  -7   6  15    7.15    7.04
   7  -6 -15   -0.77    4.24
   7  -6  16   59.17   13.96
   7   6  16   47.60   12.03
  -7   6  16   47.85   13.52
   7  -6 -16   52.54   13.18
   7   6  17   10.72    6.36
  -7   6  17   21.81   12.12
   7  -6 -17   25.51   10.16
   7  -6  17   22.00   10.02
   7   6  18    3.08    1.69
  -7   6  18   16.22    8.74
   7  -6 -18   11.29    8.82
   7  -6  18   10.17    6.11
   7   6  19    5.36    4.57
  -7   6  19   25.77    9.66
   7  -6 -19   17.45    8.61
   7  -6  19    8.39    5.87
   7   6  20   42.92   13.08
  -7   6  20   47.64   13.15
   7  -6 -20   35.03   12.54
   7  -6  20   41.78   12.58
   7   6  21   -2.18    3.17
  -7   6  21    7.86    5.45
   7  -6 -21    7.63    8.20
  -7   6  21   -2.80    7.00
   7  -6  21    2.37    4.87
   7   6  22    6.14    4.91
  -7   6  22    2.67    6.43
   7  -6 -22   10.19    8.38
  -7   6  22    4.14    4.81
   7  -6  22   15.48    6.98
   7   6  23   27.25    9.75
  -7   6  23   17.83    7.33
   7  -6 -23   46.86   13.06
  -7   6  23   37.09   12.80
   7  -6  23   27.75    9.83
   7   6  24   -1.76    4.12
  -7   6  24    3.97    4.40
   7  -6 -24   -2.42    2.74
   7  -6  24    4.76    7.03
  -7   6  24   10.92    9.14
   7  -6  24    3.58    8.14
  -7  -7   0   -2.53    6.66
   7  -7   0   -2.70    4.79
  -7  -7   1    0.78    2.27
   7  -7   1   -1.39    4.42
  -7  -7  -1    2.41    2.16
   7  -7  -1   -1.37    2.81
   7  -7   2   55.60   11.77
  -7  -7   2   49.98   11.48
  -7  -7  -2   37.83   10.95
  -7   7   2   56.44   12.53
   7  -7  -2   34.81    9.68
  -7  -7   3   95.48   16.56
   7  -7   3  110.58   16.31
  -7   7   3   79.16   15.60
   7  -7  -3  108.98   17.45
  -7  -7   4   -1.59    3.15
  -7   7   4   -0.51    1.77
   7  -7  -4   -3.03    5.93
   7  -7   4    4.67    5.86
   7  -7  -5   28.03    9.90
  -7  -7   5   23.60    8.50
   7  -7  -5   14.16    5.75
  -7   7   5    1.22    4.95
   7  -7   5   10.58    5.10
  -7  -7   6   -1.59    3.84
   7  -7  -6    1.67    5.44
   7  -7  -6   -2.44    2.87
  -7   7   6   -1.04    1.54
   7  -7   6    3.88    5.13
  -7  -7   7    7.01    7.53
   7  -7  -7    3.35    3.73
   7  -7  -7    1.98    4.55
  -7   7   7   10.62    8.04
   7  -7   7    2.52    3.05
  -7  -7   8    1.81    4.58
   7  -7   8   -4.37    4.52
   7  -7  -8   -1.34    2.70
  -7   7   8   -0.21    2.91
   7  -7  -8   -2.62    5.07
  -7  -7   9   49.95   12.17
   7  -7   9   56.36   12.57
  -7   7   9   82.24   17.65
   7  -7  -9   63.80   12.70
   7  -7  -9   84.46   16.86
  -7  -7  10   11.41    6.85
   7  -7  10    8.17    3.97
  -7   7  10   12.25    7.10
   7  -7 -10   10.37    4.14
   7  -7 -10    6.90    5.98
  -7  -7  11   12.21    4.62
   7  -7 -11    3.98    4.25
   7  -7  11   16.74    8.89
  -7   7  11   30.30   11.40
   7  -7 -11   13.38    7.40
  -7  -7  12    7.84    3.49
   7  -7  12    9.12    6.63
   7  -7 -12    1.48    2.26
  -7   7  12   11.72    4.20
   7  -7 -13  147.68   22.04
   7  -7 -13  154.83   22.47
  -7   7  13  166.43   24.14
   7  -7  13  151.31   22.23
  -7  -7  13  160.86   21.85
  -7  -7  14   25.89    9.43
   7  -7  14   21.80    7.80
   7  -7 -14   20.08    8.79
  -7   7  14    8.25    3.82
   7  -7 -14   24.73    9.19
   7  -7  15   -9.50    6.17
  -7   7  15    5.53    7.95
   7  -7 -15    2.23    6.26
   7  -7 -15    4.31    6.61
  -7  -7  15    2.25    5.06
   7  -7  16   16.07    6.51
   7  -7 -16   18.72    8.73
  -7   7  16   24.50    9.10
   7  -7 -16   11.82    3.84
   7  -7  17    3.56    4.81
  -7   7  17   16.81    9.53
   7  -7 -17   -0.42    5.30
   7  -7 -17    8.52    4.63
   7  -7  18    0.57    1.18
  -7   7  18    2.46    3.61
   7  -7 -18    5.47    5.64
  -7   7  19   47.74   13.54
   7  -7 -19   42.21   12.22
   7  -7  19   13.00    9.53
  -7   7  20   32.04   11.33
   7  -7 -20   46.88   14.03
   7  -7  20    9.35   11.80
  -7   7  21   33.84   10.80
   7  -7 -21   46.73   14.29
   7  -7  21   19.72    6.25
  -7   7  22    3.17    5.48
   7  -7 -22    0.97    5.48
   7  -7  22   12.62    9.98
  -7   7  23   12.27    6.52
   7  -7 -23   23.60    9.82
   7  -7  23   26.35   10.46
  -7  -8   0    4.24    5.00
   7  -8   0   -0.50    2.98
  -7  -8   1  374.14   33.46
  -7  -8  -1  294.73   29.32
   7  -8   1  303.13   29.92
   7  -8  -1  279.34   29.31
   7  -8   2   30.81   10.42
  -7  -8   2   33.75    9.81
  -7  -8  -2   39.36   11.08
   7  -8  -2   22.32    7.70
   7  -8   3   28.71    7.49
  -7  -8   3   46.63   12.30
  -7  -8  -3   47.85   11.93
  -7   8   3   49.46   11.62
   7  -8  -3   54.11   13.10
  -7  -8   4   13.31    6.32
  -7  -8  -4   38.08   12.09
  -7   8   4   18.27    5.58
   7  -8  -4   13.29    4.48
   7  -8   4   32.39   10.15
  -7  -8   5   47.85   12.29
  -7   8   5   22.70   10.46
   7  -8   5   41.55   11.24
   7  -8  -5   29.88    8.99
   7  -8  -6    2.02    1.56
  -7  -8   6    1.05    3.61
   7  -8  -6   -2.18    2.79
  -7   8   6   -2.19    3.37
   7  -8   6   -0.17    3.69
  -7  -8   7   41.37   11.19
   7  -8  -7   45.99   12.93
   7  -8  -7   48.08   11.67
  -7   8   7   63.63   14.29
   7  -8   7   53.09   12.11
  -7  -8   8    0.35    1.91
   7  -8  -8   -2.95    5.26
   7  -8  -8    2.39    5.03
  -7   8   8   -2.94    3.21
   7  -8   8    1.66    2.78
   7  -8  -9  184.03   23.42
  -7   8   9  219.62   28.66
   7  -8   9  194.22   24.65
   7  -8  -9  178.49   24.42
  -7  -8   9  199.93   25.20
  -7  -8  10    7.78    6.76
   7  -8  10    6.03    2.11
   7  -8 -10    3.93    5.73
  -7   8  10   10.22    7.55
   7  -8 -10   13.42    6.80
   7  -8 -11    3.03    4.01
  -7  -8  11   -2.59    5.23
   7  -8  11    8.40    5.72
  -7   8  11    4.56    3.10
   7  -8 -11    3.92    1.13
  -7  -8  12    8.83    6.14
   7  -8 -12   14.91    8.07
   7  -8  12   13.01    8.03
  -7   8  12   17.34    8.92
   7  -8 -12    3.27    3.99
  -7  -8  13   33.97   11.55
   7  -8  13   51.36   12.68
   7  -8 -13   32.61   11.15
  -7   8  13   45.31   12.79
   7  -8 -13   31.29   10.22
  -7  -8  14   11.03    6.40
   7  -8  14    1.00    1.36
  -7   8  14    6.66    6.17
   7  -8 -14    3.91    4.01
   7  -8 -14    5.55    2.84
  -7  -8  15   43.17   12.50
   7  -8 -15   63.00   13.76
   7  -8  15   82.89   16.41
  -7   8  15   66.97   16.87
   7  -8 -15   58.46   14.99
  -7  -8  16    7.24    4.39
   7  -8  16   -0.74    6.14
   7  -8 -16    3.13    2.95
  -7   8  16   -3.88    9.28
   7  -8 -16   -0.84    5.22
   7  -8  17   56.66   13.40
  -7   8  17   40.58   13.04
   7  -8 -17   38.59   10.51
   7  -8 -17   51.09   13.26
   7  -8  18   12.93    7.80
   7  -8 -18    8.52    7.02
  -7   8  18   24.11   11.45
   7  -8 -18    9.80    4.26
   7  -8  19   58.00   14.32
   7  -8 -19   53.74   15.24
  -7   8  19   24.59   13.04
   7  -8 -19   36.55   11.33
   7  -8 -20    8.49    6.19
  -7   8  20   12.27    9.28
   7  -8 -20   10.00    6.62
   7  -8  20    4.00    4.20
  -7   8  21    3.99    5.48
   7  -8 -21   15.92    8.39
   7  -8  21   12.27    5.66
  -7   8  22   46.51   15.00
   7  -8 -22   32.90    8.99
   7  -8  22   39.26   12.86
  -7  -9   0   -0.92    2.64
   7  -9   0    2.48    1.81
  -7  -9   1    9.55    6.38
  -7  -9  -1    2.61    4.73
   7  -9   1    2.47    2.01
   7  -9  -1   13.06    8.93
   7  -9   2    3.41    2.81
  -7  -9   2   -0.73    4.64
  -7  -9  -2    1.27    3.44
   7  -9  -2    6.57    5.03
   7  -9   3   -1.29    2.32
  -7  -9   3    5.21    5.86
  -7  -9  -3    0.67    2.24
   7  -9  -3    1.64    2.52
  -7  -9   4    5.00    1.93
  -7  -9  -4   14.70    9.19
  -7   9   4    8.58    6.39
   7  -9  -4    4.80    1.28
   7  -9   4   23.31    9.44
  -7  -9   5   94.56   17.45
   7  -9   5   85.94   15.44
  -7   9   5   80.45   16.86
   7  -9  -5   82.29   17.00
   7  -9  -6    3.19    3.68
  -7  -9   6    5.76    5.38
  -7   9   6   -3.07    5.08
   7  -9   6   11.22    7.45
  -7  -9   7   60.13   13.34
   7  -9  -7   61.42   14.81
   7  -9  -7   56.72   12.37
  -7   9   7   41.70   11.58
   7  -9   7   40.37   11.24
  -7  -9   8   17.84    7.40
   7  -9  -8   12.07    7.00
   7  -9  -8    5.78    3.52
  -7   9   8   15.15    9.51
   7  -9   8   12.84    7.26
  -7  -9   9   18.46    7.50
   7  -9  -9    7.05    2.74
   7  -9  -9   15.19    6.34
  -7   9   9   19.15    8.29
   7  -9   9   32.87    9.89
  -7  -9  10   10.18    7.20
   7  -9  10   10.29    5.61
  -7   9  10    6.63    1.50
   7  -9 -10   13.22    8.91
   7  -9 -10    2.26    3.77
  -7  -9  11   53.28   13.99
   7  -9  11   49.24   13.16
   7  -9 -11   34.04   10.21
  -7   9  11   44.30   12.65
   7  -9 -11   37.80   11.45
  -7  -9  12    8.64    6.06
   7  -9  12   -2.85    2.93
   7  -9 -12   -4.54    6.05
  -7   9  12    1.12    5.39
   7  -9 -12    2.20    3.59
  -7  -9  13   34.62   10.33
   7  -9 -13   51.70   14.86
   7  -9  13   37.35   12.34
   7  -9 -13   36.63   11.46
  -7   9  13   47.31   11.66
  -7  -9  14    3.29    2.69
   7  -9  14   -2.85    4.69
   7  -9 -14    9.38    5.71
  -7   9  14   -0.91    5.17
   7  -9 -14    6.77    5.85
  -7  -9  15   -5.09    7.23
   7  -9  15   -3.09    3.79
  -7   9  15    4.00    2.69
   7  -9 -15    0.92    5.22
   7  -9 -15   -2.52    2.25
  -7  -9  16    3.94    4.43
   7  -9  16   -5.43    6.39
  -7   9  16   13.30    7.93
   7  -9 -16    8.65    4.87
   7  -9 -16   -2.06    4.39
   7  -9 -17   69.80   15.10
   7  -9 -17   89.89   19.20
  -7   9  17  100.26   19.75
   7  -9  17  106.52   19.13
  -7  -9  17   95.25   19.00
   7  -9  18   -2.76    5.66
   7  -9 -18    5.66    6.71
  -7   9  18   -1.64    1.96
   7  -9 -18    2.32    3.99
  -7  -9  18    5.42    1.87
   7  -9  19   17.11    7.55
  -7   9  19   23.56    6.71
   7  -9 -19    7.28    2.19
   7  -9 -19   13.32    7.44
   7  -9 -20    1.68    2.51
   7  -9  20    1.34    2.93
  -7   9  21   -0.24    5.69
   7  -9 -21   -1.07    4.79
   7  -9 -21   10.83    5.61
   7  -9  21   13.98    8.02
  -7 -10   0    2.42    4.33
   7 -10   0   -0.47    1.79
  -7 -10   1    0.89    5.61
   7 -10   1    2.49    3.51
  -7 -10  -1    5.86    5.08
   7 -10  -1    1.01    4.58
  -7 -10  -2  115.87   20.01
  -7 -10   2   59.73   15.51
   7 -10   2   72.84   16.28
   7 -10  -2   65.07   14.76
   7 -10   3   30.08   11.43
  -7 -10   3   17.86    9.01
  -7 -10  -3   18.93    8.87
   7 -10  -3   20.42    8.32
  -7 -10   4    2.89    4.83
  -7 -10  -4    6.76    7.13
   7 -10  -4   -3.06    4.69
   7 -10   4   -3.30    3.52
  -7 -10   5    3.61    4.32
   7 -10  -5    1.24    2.96
   7 -10   5   11.44    6.92
  -7 -10   6   37.23   10.84
  -7  10   6   23.23    8.36
   7 -10   6   45.62   12.25
   7 -10  -6   52.00   13.32
   7 -10  -7   37.18   10.96
  -7 -10   7   41.11   12.33
  -7  10   7   38.57   12.41
   7 -10   7   31.31    8.69
  -7 -10   8   42.27   13.01
   7 -10  -8   51.51   12.11
  -7  10   8   33.25    9.29
   7 -10   8   45.16   13.02
  -7 -10   9   44.01   11.81
   7 -10  -9   44.39   11.72
   7 -10  -9   13.93    5.36
  -7  10   9   32.86   10.45
   7 -10   9   25.98   10.01
  -7 -10  10   69.35   15.26
   7 -10 -10   77.40   16.89
   7 -10  10   55.48   13.00
  -7  10  10   38.99   11.83
   7 -10 -10   66.91   16.35
  -7 -10  11   -2.46    5.14
   7 -10  11    1.68    1.63
   7 -10 -11   -2.14    3.52
  -7  10  11   -1.34    5.95
   7 -10 -11    3.63    4.82
  -7 -10  12   66.53   15.56
   7 -10 -12   97.39   20.02
   7 -10  12   53.68   13.10
  -7  10  12   53.09   13.74
   7 -10 -12   78.94   17.30
  -7 -10  13    8.08    1.78
   7 -10  13    4.67    2.21
   7 -10 -13    2.81    5.52
   7 -10 -13    4.65    1.92
  -7 -10  14   -3.04    2.83
   7 -10 -14   10.28    7.96
   7 -10  14    1.43    4.96
   7 -10 -14   -1.97    3.86
  -7  10  14    5.90    4.74
  -7 -10  15    5.39    4.45
   7 -10  15   16.49    7.57
   7 -10 -15    5.78    5.98
   7 -10 -15    8.62    3.67
  -7  10  15    9.23    9.96
  -7 -10  16   70.13   16.00
   7 -10 -16   43.46   12.49
   7 -10 -16   30.87   11.50
  -7  10  16   62.25   16.81
   7 -10  16   71.10   16.55
  -7 -10  17    6.90    3.25
   7 -10  17    1.25    3.79
   7 -10 -17   10.30    7.30
  -7  10  17    0.03    3.26
   7 -10 -17   -0.78    4.21
  -7 -10  18   -0.92    2.99
   7 -10 -18   -1.82    1.20
  -7  10  18    3.58    2.65
   7 -10 -18   -1.78    7.66
   7 -10  19    2.92    3.51
   7 -10 -19    0.63    2.90
   7 -10 -19    3.05    3.34
  -7  10  19   10.22    8.43
  -7 -10  19   -1.15    2.78
  -7 -11   0   -1.29    4.99
   7 -11   0    3.15    6.99
   7 -11   1    6.94    2.94
  -7 -11   1   -0.32    5.18
  -7 -11  -1    9.29    7.75
   7 -11  -1    1.82    3.67
   7 -11   2    0.53    3.89
  -7 -11   2    6.23    6.80
  -7 -11  -2    5.91    2.31
   7 -11  -2    0.94    1.81
   7 -11   3    0.60    1.51
  -7 -11   3    2.49    6.31
  -7 -11  -3    7.12    4.59
   7 -11  -3    0.28    2.32
  -7 -11   4    6.77    7.88
  -7 -11  -4   18.58    8.96
   7 -11  -4    2.48    1.48
   7 -11   4    5.93    5.41
  -7 -11   5   17.88    6.33
   7 -11  -5    4.96    2.20
   7 -11   5   13.55    7.12
  -7 -11   6   -0.53    2.55
  -7 -11  -6   -2.88    3.28
   7 -11   6    0.67    1.05
   7 -11  -6   -4.88    7.75
  -7 -11   7    8.35    5.75
  -7  11   7    1.91    1.66
   7 -11   7    1.35    5.04
   7 -11  -7    1.77    2.39
   7 -11  -8   -5.31    3.13
  -7 -11   8    0.56    4.03
  -7  11   8   -4.28    4.92
   7 -11   8    4.97    1.06
  -7 -11   9    4.26    4.29
   7 -11  -9    2.72    3.44
  -7  11   9   -2.29    4.87
   7 -11   9    1.37    2.44
  -7 -11  10   -2.56    3.39
   7 -11 -10    1.58    5.40
   7 -11  10    1.30    0.41
  -7 -11  11   -1.23    4.34
   7 -11 -11    2.48    0.44
   7 -11  11    8.58    6.93
  -7  11  11    2.16    2.42
  -7 -11  12    0.13    1.12
   7 -11  12   -0.30    3.37
  -7  11  12   -1.17    3.24
   7 -11 -12   -3.04    4.81
  -7 -11  13    7.36    7.24
   7 -11  13    8.98    7.02
   7 -11 -13    5.34    7.77
  -7  11  13   -4.44    6.56
   7 -11 -13    1.43    2.81
  -7 -11  14    8.54    8.55
   7 -11  14    7.19    5.50
   7 -11 -14   11.23    6.61
  -7  11  14   12.18    8.86
   7 -11 -14    8.20    8.82
  -7 -11  15   -0.66    4.09
   7 -11  15    2.76    3.90
   7 -11 -15   -5.98    7.65
  -7  11  15    6.44    6.18
   7 -11 -15   11.53    9.15
  -7 -11  16    2.86    2.29
   7 -11 -16   -6.65    6.63
   7 -11  16    0.70    2.36
   7 -11 -16   14.27    9.14
  -7  11  16    5.66    3.15
  -7 -11  17    9.53    5.52
   7 -11  17   -3.25    6.01
   7 -11 -17   -1.82    5.00
   7 -11 -17   10.69    6.42
  -7  11  17    3.74    4.35
  -7 -12   0    6.38    7.44
   7 -12   0    5.37    7.45
   7 -12   1    3.43    1.25
  -7 -12   1    1.02    2.91
  -7 -12  -1   -3.09    3.97
   7 -12  -1   -1.13    4.12
   7 -12   2   23.94    8.81
  -7 -12   2   15.36    7.61
  -7 -12  -2   39.85   12.63
   7 -12  -2   31.70   10.78
   7 -12   3   55.02   13.75
  -7 -12   3   32.20   11.84
  -7 -12  -3   38.91   12.62
   7 -12  -3   48.56   12.65
  -7 -12   4    2.03    4.93
  -7 -12  -4    6.63    9.16
   7 -12  -4    6.45    7.69
   7 -12   4   -3.27    1.89
  -7 -12   5    5.89    5.81
  -7 -12  -5   15.57   12.85
   7 -12  -5    9.61    9.92
   7 -12   5    3.02    2.80
  -7 -12   6    4.89    3.71
   7 -12   6    9.93    7.68
   7 -12  -6   -0.75    5.80
  -7 -12   7    4.37    6.10
   7 -12   7   -3.91    5.79
   7 -12  -7    2.33    3.55
  -7 -12   8   27.11   10.55
   7 -12   8   31.20    9.89
   7 -12  -8   27.84    9.31
   7 -12  -9   53.87   15.36
  -7 -12   9   32.46   11.84
  -7  12   9   47.53   14.25
   7 -12   9   52.11   13.77
  -7 -12  10   13.69    6.31
   7 -12 -10   12.35    6.44
  -7  12  10    2.43    1.90
   7 -12  10    0.34    1.29
  -7 -12  11    9.49    9.87
   7 -12 -11   15.77    8.44
   7 -12  11   -2.53    5.29
  -7  12  11   10.57    8.33
  -7 -12  12    5.02    5.47
   7 -12 -12    0.76    2.66
   7 -12  12    9.67    8.48
  -7  12  12   18.41   11.49
  -7 -12  13   39.43   12.86
   7 -12  13   46.78   13.90
   7 -12 -13   51.66   13.81
  -7  12  13   24.90   10.80
  -7 -12  14    5.34    4.70
   7 -12  14   11.38    7.58
  -7  12  14   10.63   10.25
   7 -12 -14    2.04    2.60
  -7 -13   0   -3.76    5.33
   7 -13   0   -7.39    6.63
   7 -13   1   27.41   11.15
  -7 -13   1   30.35   13.61
  -7 -13  -1   15.25   10.08
   7 -13  -1   13.58    6.03
   7 -13   2    3.07    1.81
  -7 -13   2    1.40   13.23
  -7 -13  -2   -8.51    5.91
   7 -13  -2   -6.61    5.00
  -7 -13   3   -3.23    3.30
  -7 -13  -3    4.19    4.83
   7 -13  -3   -3.01    4.90
   7 -13   3   -1.51    2.99
  -7 -13   4   -2.65    4.54
  -7 -13  -4    5.57    4.29
   7 -13  -4   -4.63    4.28
   7 -13   4    8.35    6.13
  -7 -13   5    4.87    4.73
   7 -13  -5   10.14    5.29
   7 -13   5    0.16    2.48
  -7 -13   6   -1.18    3.34
   7 -13  -6    3.88    5.52
   7 -13   6   -0.16    2.26
  -7 -13   7    5.41    5.93
   7 -13   7    4.03    2.59
   7 -13  -7    6.28    3.82
  -7 -13   8   -3.73    3.20
   7 -13   8    6.86    7.64
   7 -13  -8    1.84    8.26
  -7 -13   9   10.03    7.18
   7 -13   9    7.95    5.64
   7 -13  -9    9.75    4.88
   7 -13 -10   -0.78    7.12
  -7 -13  10   16.18    8.59
   7 -13  10   10.70    9.27
   7 -14   0   -0.79    4.94
  -7 -14   0    1.28    5.75
   7 -14   1   -0.82    4.02
  -7 -14   1   -1.54    5.62
  -7 -14  -1   -0.84    3.15
   7 -14  -1    1.40    2.28
   7 -14   2    7.61    6.79
  -7 -14   2    0.50    2.84
  -7 -14  -2    0.03    2.58
   7 -14  -2    8.67    5.46
  -8   0   1    6.08    3.50
  -8   0   2   85.87   15.81
  -8   0   3    1.33    4.30
   8   0   3    2.70    2.09
   8   0   4   71.07   10.98
  -8   0   4   56.08   13.42
  -8   0   5    4.10    2.59
   8   0   5   -1.63    3.22
   8   0   6  123.15   15.60
  -8   0   6  126.38   18.86
  -8   0   7    7.58    8.59
   8   0   7    1.93    3.93
  -8   0   8   11.31    4.95
   8   0   8   26.81    7.98
  -8   0   9    0.40    3.27
   8   0   9    0.54    3.37
   8   0  10  446.57   32.52
  -8   0  10  537.87   39.86
  -8   0  11   -3.33    5.30
   8   0  11   -1.02    2.57
  -8   0  12    2.99    3.21
   8   0  12    6.14    2.57
  -8   0  13   -1.78    5.65
   8   0  13    3.57    4.63
   8   0  14  118.00   18.18
  -8   0  14  163.32   22.70
   8   0  15   -5.16    6.44
  -8   0  15   -0.78    4.47
   8   0  16   17.28    5.14
  -8   0  16   22.94   10.25
   8   0  17    0.21    3.98
  -8   0  17    0.92    1.35
   8   0  18   45.25   12.93
  -8   0  18   28.71    9.13
   8   0  19    0.93    3.61
  -8   0  19   -0.85    3.92
   8   0  20   20.41    9.03
  -8   0  20   22.24    9.44
   8   0  21   -1.46    2.82
  -8   0  21    0.20    1.86
   8   0  21   -4.69    7.82
   8   0  22   53.43   14.25
  -8   0  22   45.26   11.86
   8   0  22   52.83   13.28
   8   0  23   -1.13    4.65
  -8   0  23    5.30    4.04
   8   0  23    3.37    4.84
   8   0  24    5.67    4.50
  -8   0  24  -10.20    8.94
   8   0  25    8.01    6.40
  -8   0  25    0.59    2.41
   8  -1   0  322.65   23.02
  -8  -1   1  293.32   27.27
  -8   1   1  283.80   27.82
   8  -1   1  293.37   22.20
   8  -1  -1  219.20   19.36
   8  -1   2    1.78    2.81
  -8  -1   2    0.02    4.49
  -8   1   2   -2.61    4.53
   8  -1  -2   -1.53    3.24
   8  -1   3   26.78    7.27
  -8   1   3   45.34   11.46
  -8  -1   3   40.83   10.26
  -8   1   4  257.08   27.28
  -8  -1   4  245.27   26.28
   8  -1   4  298.26   24.32
   8  -1   5    1.03    0.73
  -8  -1   5   -0.75    4.67
   8   1   6   99.10   13.32
  -8   1   6  107.31   18.09
  -8  -1   6  124.22   18.79
   8  -1   6   65.89   11.96
   8   1   7   52.25    9.98
   8  -1   7   82.37   13.53
  -8  -1   7   84.16   15.30
  -8   1   7   33.41    9.75
   8  -1   8   56.80   11.56
  -8   1   8   84.63   15.09
  -8  -1   8   74.26   14.69
   8   1   8   37.53    8.79
  -8   1   9   37.05    9.96
  -8  -1   9   31.94   10.73
   8   1   9   25.48    8.38
   8  -1   9   30.90    9.37
   8   1  10    6.29    5.75
  -8   1  10   37.55   11.34
  -8  -1  10   13.53    4.99
   8  -1  10   27.61    7.93
   8   1  11    8.58    4.54
  -8   1  11    3.89    6.01
  -8  -1  11   -1.77    6.96
   8  -1  11    4.30    3.09
   8   1  12  270.96   27.51
   8  -1  12  247.64   26.03
  -8   1  12  272.64   29.42
  -8  -1  12  232.81   25.82
   8   1  13    4.57    3.30
  -8   1  13    5.73    6.24
  -8  -1  13   -3.04    4.08
   8  -1  13    2.68    1.76
   8  -1  14   94.49   16.32
   8   1  14   65.88   13.85
  -8   1  14   52.85   12.54
  -8  -1  14   52.99   14.64
   8  -1  15  108.84   18.30
  -8   1  15   98.22   18.92
  -8  -1  15  105.63   18.66
   8   1  15   67.21   13.67
   8   1  16   37.07   11.86
  -8   1  16   48.83   12.61
  -8  -1  16   32.80    9.77
   8  -1  16   17.54    9.01
   8   1  17   29.81    9.96
  -8   1  17   31.13   10.76
  -8  -1  17   45.86   10.60
   8  -1  17   27.06   10.45
   8   1  18  310.65   32.69
   8  -1  18  265.10   29.83
  -8   1  18  336.58   33.30
  -8  -1  18  321.13   34.04
   8   1  19    1.64    4.53
   8  -1  19   -0.37    2.58
  -8   1  19    0.75    2.85
  -8  -1  19   -1.53    0.69
   8   1  20   -2.51    1.48
   8  -1  20    0.84    5.70
  -8   1  20    2.11    4.91
  -8  -1  20    5.00    6.93
   8   1  20   -0.97    2.11
   8   1  21   12.46    7.64
   8  -1  21   19.20    8.11
  -8   1  21   39.21   12.16
  -8  -1  21   35.79   11.41
   8   1  21   46.31   12.73
   8   1  22   60.52   15.64
   8  -1  22   70.78   17.82
  -8   1  22   65.63   15.76
  -8  -1  22   51.51   14.42
   8   1  22   78.06   17.43
   8  -1  22   57.11   15.17
   8   1  23   -3.37    4.19
   8  -1  23    0.60    5.42
  -8   1  23   -1.29    3.03
  -8  -1  23   -3.35    3.40
   8   1  23    3.63    5.77
   8  -1  23    6.42    5.03
   8   1  24   52.06   14.08
   8  -1  24   46.09   14.06
  -8   1  24   57.43   15.52
  -8  -1  24   33.34    9.76
   8   1  24   31.67   12.05
   8  -1  24   47.89   13.57
   8   1  25   38.96   12.04
   8  -1  25   28.14   11.70
  -8   1  25   25.03   10.85
  -8  -1  25   38.36   13.46
   8   1  25   22.78   10.64
   8  -1  25   19.83    6.42
   8  -2   0   36.80    8.06
   8  -2  -1   87.67   13.41
  -8  -2   1  106.10   15.70
  -8   2   1   76.32   14.41
   8  -2   1   87.78   13.08
   8  -2   2   20.51    5.95
  -8  -2   2   27.50    9.08
  -8   2   2   25.52    9.19
   8  -2  -2   10.11    4.20
   8  -2  -3  251.49   22.04
  -8   2   3  247.56   27.68
  -8  -2   3  282.84   27.44
   8  -2   3  213.43   21.42
   8  -2  -4   20.59    7.31
   8  -2   4   12.67    4.03
  -8   2   4   16.56    8.01
  -8  -2   4   18.04    7.69
   8  -2   5   22.08    7.71
   8  -2  -5   21.63    6.01
  -8   2   5   21.86    9.03
  -8  -2   5   14.64    6.63
   8  -2   6   43.06    9.97
   8  -2  -6   50.55   10.04
  -8   2   6   42.29   11.78
  -8  -2   6   70.33   13.51
  -8   2   7  337.13   32.79
  -8  -2   7  385.46   33.43
   8  -2   7  383.74   29.81
   8  -2  -7  375.25   27.94
   8  -2   8    8.93    5.68
  -8   2   8    5.52    5.63
  -8  -2   8    4.96    5.11
  -8   2   9   15.20    8.91
  -8  -2   9    9.58    5.63
   8  -2   9    5.58    4.17
   8   2  10    6.00    4.62
  -8   2  10    5.47    1.27
  -8  -2  10    1.22    1.14
   8  -2  10   -1.22    3.95
   8   2  11   73.29   13.04
   8  -2  11   95.18   15.54
  -8   2  11  105.10   17.98
  -8  -2  11   76.46   15.29
   8   2  12   45.52   11.33
  -8   2  12   64.02   14.39
  -8  -2  12   33.95    9.85
   8  -2  12   62.52   13.24
   8   2  13   18.08    7.63
  -8   2  13   21.71    9.87
  -8  -2  13   27.89    9.52
   8  -2  13   22.41    7.09
   8   2  14    5.00    2.22
  -8   2  14    4.56    6.09
   8  -2  14    9.30    3.30
   8   2  15    4.87    2.56
  -8   2  15    2.26    3.63
  -8  -2  15   -0.44    3.60
   8  -2  15    4.86    2.89
   8   2  16    7.57    6.12
  -8  -2  16    6.00    4.80
   8  -2  16   16.88    9.01
  -8   2  17   -6.52    7.43
  -8  -2  17    0.79    0.39
   8  -2  17   -1.88    3.99
   8   2  18    2.51    2.66
  -8   2  18    3.88    4.21
  -8  -2  18   -0.55    3.62
   8  -2  18   -4.34    2.63
   8   2  18    4.88    5.03
   8   2  19   49.73   12.71
  -8   2  19   60.33   16.08
  -8  -2  19   33.45   11.17
   8  -2  19   23.34   10.83
   8   2  19   37.44    9.43
   8   2  20   32.06   11.86
  -8   2  20   15.04    7.76
   8  -2  20   23.60   10.37
  -8  -2  20   31.91   12.46
   8   2  20    9.35    4.72
   8   2  21   78.33   16.58
  -8   2  21   97.01   18.84
   8  -2  21   70.20   15.54
  -8  -2  21   80.96   17.09
   8   2  21   49.06   13.67
   8   2  22   -0.95    5.42
   8  -2  22   -0.22    4.14
  -8   2  22   12.20    9.37
  -8  -2  22   -6.35    3.82
   8   2  22   12.13    7.84
   8   2  23   -6.12    6.59
   8  -2  23   -6.94    9.12
  -8   2  23    2.11    3.39
  -8  -2  23   -0.49    4.86
   8   2  23   -2.11    4.17
   8  -2  23   10.54    8.32
   8   2  24    0.14    4.04
   8  -2  24    3.01    6.13
  -8   2  24    8.08    8.78
  -8  -2  24   -1.99    3.85
   8   2  24    0.71    3.39
   8  -2  24    3.11    5.33
   8   2  25    2.06    5.68
   8  -2  25   -3.36    2.64
  -8   2  25    0.52    4.35
  -8  -2  25   -4.14    4.99
   8   2  25   -0.40    6.49
   8  -2  25   -3.65    4.17
   8  -3   0   43.82    9.76
  -8   3   1   58.46   12.58
   8  -3   1   24.32    7.74
   8  -3  -1   45.59    9.57
   8  -3  -2   12.11    5.41
  -8  -3   2   21.50    6.13
  -8   3   2   22.28    7.12
   8  -3   2   15.69    5.80
   8  -3  -3  113.13   15.99
  -8   3   3  104.14   17.76
  -8  -3   3  147.01   19.28
   8  -3   3  133.86   17.49
   8  -3  -4   65.78   12.58
  -8   3   4   71.72   15.20
  -8  -3   4   88.60   15.22
   8  -3   4   79.52   13.80
   8  -3   5   35.80    9.20
  -8   3   5   25.84    8.24
  -8  -3   5   16.41    5.88
   8  -3  -5   22.33    7.97
  -8   3   6  326.89   31.84
  -8  -3   6  332.24   30.80
   8  -3  -6  262.23   24.46
   8  -3   6  288.88   26.48
  -8   3   7   84.07   15.73
  -8  -3   7  122.88   18.25
   8  -3   7  110.12   16.56
   8  -3  -7   90.98   14.75
  -8   3   8  133.11   20.62
  -8  -3   8  104.74   17.79
   8  -3   8  130.85   17.56
   8  -3  -8   89.25   15.03
   8  -3   9   -2.79    4.44
   8  -3  -9    2.02    3.46
  -8   3   9   -3.37    2.95
  -8  -3   9    2.93    2.93
   8  -3  10    4.25    4.40
  -8   3  10   -0.14    4.76
  -8  -3  10    2.15    4.50
   8  -3 -10   -0.60    3.00
  -8   3  11   57.44   16.28
  -8  -3  11   91.10   16.33
   8  -3  11  116.85   18.28
   8  -3 -11   95.24   15.62
   8  -3 -12   -1.21    3.56
  -8   3  12   -0.28    4.00
  -8  -3  12    1.56    4.34
   8  -3  12   -0.36    1.61
   8   3  13    8.34    3.08
  -8   3  13   13.22    7.92
  -8  -3  13    5.01    3.99
   8   3  14    9.32    5.70
  -8   3  14   12.93    7.60
  -8  -3  14    9.55    6.14
   8  -3  14   11.57    7.56
   8   3  15   48.43   12.16
  -8   3  15   34.74   10.19
  -8  -3  15   31.35   10.22
   8  -3  15   31.68   10.91
   8   3  16    7.26    4.14
  -8   3  16   17.34    8.66
  -8  -3  16   18.75    8.47
   8  -3  16   32.73    9.74
   8   3  16   29.87   10.41
   8   3  17   59.43   14.21
   8  -3  17  110.88   18.59
  -8   3  17   84.11   16.96
  -8  -3  17   75.76   15.30
   8   3  17   57.35   11.41
   8   3  18   -6.27    7.94
  -8   3  18    3.91    1.69
  -8  -3  18   11.67    8.41
   8  -3  18    6.43    5.95
   8   3  18    0.81    2.05
   8   3  19   93.02   19.12
   8  -3  19   82.74   16.41
  -8   3  19  105.19   20.38
  -8  -3  19   52.53   14.96
   8   3  20   -3.57    3.34
  -8   3  20   12.36    7.84
  -8  -3  20   -1.91    5.71
   8  -3  20    7.55    6.43
   8   3  21   54.61   14.12
  -8   3  21   50.96   13.85
  -8  -3  21   55.21   13.91
   8  -3  21   68.49   16.09
   8   3  22   23.15   10.26
  -8   3  22   21.15    9.91
   8  -3  22   26.18    7.76
  -8  -3  22   27.63   11.50
   8   3  23    6.87    5.61
   8  -3  23    4.33    2.10
  -8   3  23    1.81    3.43
  -8  -3  23   -3.38    2.74
   8  -3  23    2.71    2.10
   8   3  24    0.50    2.97
   8  -3  24   -2.07    3.70
  -8   3  24    4.75    7.44
  -8  -3  24   -2.50    7.09
   8  -3  24   -4.27    7.30
   8   3  25   15.36   10.06
   8  -3  25    2.37    5.24
  -8   3  25   24.95    9.65
  -8  -3  25   14.27    8.40
   8  -3  25    6.50    5.40
   8  -4   0   18.04    6.05
   8  -4  -1   16.77    5.28
  -8   4   1   33.12    9.59
   8  -4   1   31.70    9.10
   8  -4  -2  128.79   17.59
  -8   4   2  109.23   18.89
   8  -4   2  166.22   19.90
   8  -4  -3    1.01    2.32
  -8   4   3    2.83    2.90
   8  -4   3    2.73    1.24
   8  -4   4   36.62    9.67
   8  -4  -4   31.08    8.23
  -8   4   4   20.35   11.17
  -8   4   5  171.00   23.69
   8  -4  -5  174.56   21.02
   8  -4   5  142.95   19.46
   8  -4   6   42.73   11.01
  -8   4   6   51.20   12.37
   8  -4  -6   43.32   10.70
   8  -4  -7   42.85   11.16
   8  -4   7   58.83   12.73
  -8   4   7   66.34   15.51
  -8   4   8  104.43   18.87
  -8  -4   8  115.05   19.11
   8  -4   8  116.42   17.74
   8  -4  -8  103.64   16.85
   8  -4   9   25.38    8.47
   8  -4  -9   34.14    9.93
  -8   4   9   33.64   11.60
  -8  -4   9   17.65    7.83
   8  -4  10   20.49    8.66
  -8   4  10   30.31   10.50
  -8  -4  10   32.59   10.03
   8  -4 -10    9.02    5.25
   8  -4  11   15.82    7.13
  -8   4  11   24.41    8.17
  -8  -4  11   13.86    5.70
   8  -4 -11   15.60    7.22
   8  -4  12    3.56    1.34
   8  -4 -12   -1.06    1.74
  -8   4  12   -1.13    1.96
  -8  -4  12   -0.44    5.63
   8  -4  13    1.60    1.53
  -8   4  13    3.36    4.57
   8  -4 -13    2.84    3.53
  -8  -4  13   -2.07    5.30
   8  -4 -14    6.90    6.54
  -8   4  14    3.20    2.90
  -8  -4  14   -2.24    2.87
   8  -4  14    5.85    3.08
  -8   4  15   25.34    9.38
  -8  -4  15   12.64    9.33
   8  -4 -15   19.35    6.44
   8  -4 -15   19.39    8.42
   8  -4  15   26.69    9.63
   8  -4 -16    0.67    3.18
  -8   4  16   -1.10    3.28
  -8  -4  16   -3.20    3.53
   8  -4 -16   -3.36    3.66
   8  -4  16    2.36    2.11
  -8   4  17    5.55    4.51
  -8  -4  17    3.26    3.13
  -8   4  18   36.79    9.91
  -8  -4  18   30.57   10.80
   8  -4  18   39.86   11.34
   8   4  19   29.31   11.84
  -8   4  19   38.34   12.50
  -8  -4  19   27.74   10.65
   8  -4  19   35.83   12.44
   8   4  20   15.65    7.88
  -8   4  20   18.75    7.38
  -8  -4  20    7.42    6.56
   8  -4  20   -5.66    6.72
   8   4  21    0.03    6.53
  -8   4  21    2.51    1.78
  -8  -4  21    4.80    6.63
   8  -4  21   -2.81    6.23
   8   4  22    1.28    5.96
  -8   4  22   -2.34    5.82
  -8  -4  22   -3.69    2.42
   8  -4  22    3.14    4.92
   8   4  23    3.49    2.18
  -8   4  23    1.43    5.27
  -8  -4  23    1.82    2.73
   8  -4  23    2.20    5.37
   8   4  24    5.74    4.64
  -8   4  24   -1.01    3.54
   8  -4  24    4.38    2.80
  -8  -4  24   14.87    9.82
   8  -4  24   22.34   10.45
   8  -5   0  915.89   49.31
   8  -5  -1   23.58    7.52
   8  -5   1   14.47    6.05
   8  -5  -2    6.48    4.42
  -8   5   2   12.33    7.91
   8  -5   2    7.48    4.96
   8  -5   3  100.62   16.70
   8  -5  -3   65.74   13.54
  -8   5   3   62.60   14.31
   8  -5  -4   75.25   14.22
  -8   5   4   63.95   13.75
   8  -5   4   69.06   13.74
  -8   5   5   63.27   14.66
   8  -5   5   51.81   12.37
   8  -5  -5   62.41   13.52
  -8   5   6  117.19   21.00
   8  -5  -6   72.62   14.03
   8  -5   6  122.98   18.59
   8  -5  -7   57.45   11.98
  -8   5   7   72.86   17.41
   8  -5   7   64.95   14.11
   8  -5  -8   46.75   12.46
   8  -5   8   47.11   11.78
  -8   5   8   34.14   10.30
   8  -5   9   28.47    9.54
   8  -5  -9   35.18   10.85
  -8   5   9   27.67    9.39
  -8   5  10   81.78   17.23
   8  -5 -10   57.11   13.28
   8  -5  10   73.40   14.69
   8  -5  11   31.69    9.07
  -8   5  11    6.12    1.83
   8  -5 -11   33.72   10.16
   8  -5 -12    4.83    3.89
   8  -5  12   -2.08    3.84
  -8   5  12    0.49    5.24
   8  -5  13   10.76    6.33
   8  -5 -13   19.70    7.08
  -8   5  13   12.09    7.85
   8  -5  14   36.18   10.33
  -8   5  14   46.46   14.65
   8  -5 -14   50.18   12.39
   8  -5 -15   -1.68    5.37
  -8   5  15   -1.25    4.57
   8  -5  15    6.92    5.79
  -8   5  16    3.82    2.70
   8  -5 -16   -4.06    5.56
   8  -5  16    3.46    2.38
  -8   5  17    7.82    4.59
   8  -5 -17    8.91    2.58
   8  -5  17    1.34    3.06
   8  -5 -18   61.99   14.67
  -8   5  18   33.58   10.71
   8  -5 -18   31.10   12.19
   8  -5  18   52.42   12.76
  -8   5  19    0.37    3.72
   8  -5 -19   -3.71    4.82
   8  -5  19   -1.09    5.31
  -8   5  20    7.26    7.87
   8  -5 -20   -4.53    7.16
   8  -5  20   16.30    9.42
  -8   5  21    1.69    3.87
   8  -5 -21    1.84    2.81
   8  -5  21   10.64    5.89
  -8   5  22   26.32   11.43
   8  -5 -22    9.17    4.57
   8  -5  22   37.68   13.16
  -8   5  23   -5.24    7.68
   8  -5 -23    5.37    4.99
   8  -5  23    1.10    0.55
   8  -6   0    1.00    4.39
   8  -6  -1   -4.16    4.07
   8  -6   1    4.02    2.33
   8  -6   2  350.78   31.64
   8  -6  -2  353.22   31.34
  -8   6   2  367.87   33.66
   8  -6   3   79.91   15.35
   8  -6  -3  106.78   17.89
  -8   6   3  113.19   18.03
  -8   6   4    8.29    5.97
   8  -6  -4    0.84    2.91
   8  -6   4    0.25    3.40
  -8   6   5   -1.70    4.96
   8  -6   5    4.14    3.10
   8  -6  -5    7.87    4.33
  -8   6   6   -4.06    5.48
   8  -6   6    3.71    4.27
   8  -6  -6    2.72    4.62
   8  -6  -7    5.94    4.95
   8  -6   7    7.38    4.14
  -8   6   7    6.86    7.83
   8  -6  -8   -2.10    4.83
   8  -6   8    3.78    6.77
  -8   6   8   -3.40    2.95
   8  -6   9    2.37    3.30
   8  -6  -9    5.19    4.78
  -8   6   9   -1.77    5.59
   8  -6  10   18.36    8.11
   8  -6 -10    9.20    4.50
  -8   6  10    3.75    4.51
   8  -6  11   20.40    7.29
  -8   6  11   20.60    7.48
   8  -6 -11   17.09    6.76
  -8  -6  11   -4.09    3.42
   8  -6  12   30.78   10.10
  -8   6  12   36.84   11.18
   8  -6 -12   25.13    8.61
   8  -6  13   -1.55    3.33
   8  -6 -13   -4.09    2.36
  -8   6  13   -1.27    1.81
   8  -6  14   38.53   10.18
   8  -6 -14   45.84   13.14
  -8   6  14   19.94    9.81
   8  -6  15    2.18    2.98
  -8   6  15   -4.00    5.66
   8  -6 -15   -0.44    5.75
   8  -6  16   -1.29    3.23
   8  -6 -16    0.20    6.23
  -8   6  16    6.92    3.37
   8  -6 -17   14.49    8.42
  -8   6  17    9.50    7.14
   8  -6  17   15.06    6.37
  -8   6  18   21.00    7.16
   8  -6  18   18.82    6.60
   8  -6 -18   16.09    7.82
  -8   6  19   -2.03    3.92
   8  -6 -19   -3.83    1.76
   8  -6  19   -0.64    3.48
  -8   6  20    0.14    2.17
   8  -6 -20   -0.84    3.19
  -8   6  21   26.44   10.90
   8  -6 -21   12.11    6.88
   8  -6  21   24.57    8.95
  -8   6  22   10.49    8.05
   8  -6 -22    1.31    4.49
   8  -6  22    2.27    4.15
   8  -7   0    5.66    3.07
   8  -7   1  181.96   23.04
   8  -7  -1  193.00   23.71
   8  -7  -2    7.03    6.28
   8  -7   2    6.44    4.73
   8  -7   3  320.19   30.08
   8  -7  -3  266.68   28.62
  -8   7   3  230.25   27.63
  -8   7   4   22.60    9.28
   8  -7  -4   31.28   10.58
   8  -7   4   22.72    8.95
  -8   7   5   -2.57    4.80
   8  -7   5    3.94    1.74
   8  -7  -5   -4.40    4.53
  -8   7   6    2.27    3.67
   8  -7   6    8.31    6.98
   8  -7  -6    4.20    4.15
  -8   7   7   68.31   14.40
   8  -7  -7   81.82   16.80
   8  -7   7   73.57   15.80
   8  -7  -8   60.54   14.68
   8  -7   8   41.77   11.53
  -8   7   8   51.39   13.99
   8  -7  -9   13.12    5.66
   8  -7   9   18.17    8.97
  -8   7   9    1.14    2.46
   8  -7  10   43.89   12.46
   8  -7 -10   60.23   14.98
  -8   7  10   55.31   12.22
  -8   7  11  183.80   26.74
   8  -7  11  150.95   22.75
   8  -7 -11  139.38   22.15
  -8  -7  12    6.97   10.05
   8  -7  12    6.65    9.03
  -8   7  12    3.56    7.30
   8  -7 -12   -7.12    6.22
   8  -7 -13   16.83    8.17
   8  -7  13   19.83    8.76
  -8   7  13   16.31    7.01
  -8  -7  13   20.17    8.19
   8  -7  14   -0.14    1.46
  -8   7  14    4.71    0.78
   8  -7  15   -0.10    3.77
   8  -7 -15    7.17    4.20
  -8   7  15   10.92    6.92
   8  -7  16    2.28    6.35
  -8   7  16   -3.87    2.89
   8  -7 -16    2.57    1.14
   8  -7  17   28.07    8.95
   8  -7 -17   33.08   11.31
  -8   7  17   21.84    9.57
   8  -7 -18    1.69    1.05
   8  -7  18    2.63    1.70
  -8   7  19   50.65   11.52
   8  -7 -19   17.21    6.98
   8  -7  19   51.43   13.90
  -8   7  20   -0.11    4.05
   8  -7  20    0.03    2.69
  -8   7  21   45.28   14.26
   8  -7 -21   51.22   14.72
   8  -7  21   12.30    8.95
   8  -8   0  115.04   18.26
   8  -8   1   39.72   10.69
   8  -8  -1   35.80   10.35
   8  -8  -2    1.27    4.24
   8  -8   2    0.26    4.88
   8  -8  -3   12.85    5.32
   8  -8   3   12.11    5.04
  -8   8   4    4.45    1.81
   8  -8  -4    4.78    2.67
   8  -8   4    6.93    5.26
  -8   8   5   33.43   12.88
   8  -8   5   36.19   10.55
   8  -8  -5   41.14   11.98
  -8   8   6   14.80    6.03
   8  -8   6   36.25   10.25
   8  -8  -6   35.59   12.13
  -8   8   7   44.06   12.87
   8  -8   7   32.97   10.39
   8  -8  -7   45.60   13.76
   8  -8  -8    2.57    2.33
   8  -8   8   -1.01    1.40
  -8   8   8   -1.78    5.98
   8  -8  -9   -1.51    4.20
   8  -8   9   -6.35    7.69
  -8   8   9    1.65    0.32
  -8  -8  10   -8.52    2.30
   8  -8 -10   -1.52    3.87
   8  -8  10    1.14    5.43
  -8   8  10    7.74    5.63
   8  -8  11   73.13   15.33
   8  -8 -11   40.40   12.82
  -8   8  11   51.46   12.65
  -8  -8  11   85.80   17.98
  -8  -8  12   12.59    7.74
   8  -8  12   11.31    6.66
  -8   8  12   11.23    7.23
   8  -8 -12   -0.03    2.58
  -8  -8  13   -5.67    5.72
   8  -8  13    2.90    4.90
  -8   8  13    5.04    2.24
   8  -8 -13    3.40    3.49
   8  -8 -14    9.17    4.08
  -8  -8  14   -3.19    3.97
   8  -8  14    2.67    3.96
  -8   8  14    1.43    4.52
   8  -8  15   51.24   13.41
   8  -8 -15   90.62   18.73
  -8   8  15   44.92   13.41
  -8  -8  15   51.80   13.14
   8  -8  16    5.01    4.78
   8  -8 -16   -2.18    2.01
   8  -8  17   44.11   12.43
  -8   8  17   48.67   13.13
   8  -8 -17   54.64   14.37
   8  -8  18    2.95    4.45
  -8   8  18    3.43    7.11
   8  -8 -18    6.59    8.23
   8  -8 -19   32.92   11.19
  -8   8  19   35.80   13.84
   8  -8  19   19.35    7.84
   8  -8 -20    0.91    5.18
  -8   8  20   13.95    9.24
   8  -8  20   11.07    8.63
   8  -9   0   71.08   16.47
   8  -9   1   44.45   12.73
   8  -9  -1   31.63   10.16
   8  -9  -2   22.30    9.75
   8  -9   2   13.47    7.11
   8  -9  -3   43.80   12.53
   8  -9   3   38.84   10.45
   8  -9  -4   12.10    7.67
   8  -9   4   -0.69    3.28
  -8   9   5    6.64    5.44
   8  -9   5   12.79    7.00
  -8   9   6   11.92    7.48
   8  -9   6   18.92    8.62
   8  -9  -6   14.14    7.32
  -8   9   7  201.77   27.40
   8  -9  -7  204.08   27.35
   8  -9   7  176.35   24.46
   8  -9  -8   60.81   14.92
  -8   9   8   62.66   14.86
   8  -9   8   46.65   12.59
  -8  -9   9   -8.55    5.33
   8  -9  -9   -1.85    1.13
  -8   9   9    0.08    4.93
   8  -9 -10   23.24    8.89
   8  -9  10   10.02    7.25
  -8   9  10    6.57    3.04
  -8  -9  11   38.40   13.35
   8  -9  11   36.58   11.41
   8  -9 -11   31.24    9.14
  -8   9  11   29.34   11.60
  -8  -9  12   16.49    6.47
   8  -9  12   26.71   10.66
   8  -9 -12   18.46    8.76
  -8   9  12   13.44    8.28
  -8  -9  13   16.69    6.92
   8  -9  13   48.20   12.23
  -8   9  13   41.68   13.00
   8  -9 -13   30.26    8.72
  -8  -9  14   25.61   10.93
   8  -9  14   22.77    7.65
  -8   9  14   26.34   11.13
   8  -9 -14    2.91    2.81
  -8  -9  15   12.26    8.16
   8  -9  15   10.16    5.46
  -8   9  15   11.46   10.20
   8  -9 -15    8.48    7.16
   8  -9 -16   -1.37    5.31
   8  -9  16    7.97    6.75
  -8   9  16    7.38    5.28
  -8  -9  16   -2.87    6.07
   8  -9  17   24.74    9.49
   8  -9 -17   21.76    9.47
  -8   9  17   16.45    7.92
   8  -9  18   43.29   12.35
   8  -9 -18   62.33   15.08
  -8   9  18   66.20   17.00
   8 -10   0   -1.83    4.09
   8 -10   1    7.15    5.13
   8 -10  -1   12.68    7.39
   8 -10  -2    3.12    4.25
   8 -10   2    3.95    5.53
   8 -10  -3    1.11    0.93
   8 -10   3    7.18    5.88
   8 -10  -4   69.29   15.98
   8 -10   4   41.79   11.97
   8 -10  -5    8.22    7.37
   8 -10   5   -2.61    4.56
  -8  10   6    2.42    4.31
   8 -10   6   -4.36    4.13
   8 -10  -6   -1.27    3.59
  -8  10   7   16.94    9.00
   8 -10   7   11.91    7.20
   8 -10  -7    5.44    6.47
  -8  10   8    6.35    5.13
   8 -10   8    2.91    3.70
   8 -10  -8   10.03    2.82
   8 -10  -9    4.23    3.01
  -8 -10   9   -8.38    5.49
   8 -10   9    4.51    3.77
  -8  10   9    4.29    5.89
   8 -10 -10   -4.72    6.29
   8 -10  10   11.80    5.14
  -8  10  10    7.41    8.63
  -8 -10  11    2.48    7.33
   8 -10 -11   10.78    0.91
   8 -10  11    0.13    1.67
  -8  10  11    3.57    2.71
  -8 -10  12    5.14    4.49
   8 -10  12   11.04    3.27
   8 -10 -12    3.20    3.50
  -8  10  12   14.89    6.20
  -8 -10  13   -0.75    1.89
   8 -10  13   -3.18    3.98
  -8  10  13   -4.53    6.69
  -8 -10  14   40.21   12.06
   8 -10  14   55.10   14.96
  -8  10  14    9.13    4.07
   8 -10 -14   42.75   12.36
  -8 -10  15    4.07    5.85
   8 -10  15    2.90    6.30
  -8  10  15    2.53    6.31
   8 -10 -15    0.89    1.11
  -8 -10  16    8.45    9.19
   8 -10  16   -4.26    6.41
  -8  10  16   -7.50    8.43
   8 -10 -16   -5.20    7.70
   8 -11   0   28.90   11.06
   8 -11   1   -3.75    1.88
   8 -11  -1    2.07    4.76
   8 -11  -2   -0.52    0.91
   8 -11   2    1.94    3.36
   8 -11  -3    2.68    1.98
   8 -11   3    6.03    6.72
   8 -11   4   84.68   18.07
   8 -11  -4   88.55   18.19
   8 -11  -5    4.66    5.88
   8 -11   5    6.34    6.03
   8 -11  -6   -3.03    4.78
   8 -11   6   -0.58    2.61
   8 -11   7   -3.26    6.24
   8 -11  -7   10.21    7.10
  -8  11   8   10.40    4.00
   8 -11   8   13.26    7.34
   8 -11  -8   11.96    7.13
  -8  11   9    4.68    3.21
   8 -11  -9   12.57    4.37
   8 -11 -10   69.02   16.64
  -8 -11  10   32.13   13.43
   8 -11  10   40.99   13.67
  -8  11  10   46.75   14.28
   8 -11 -11   -3.39    3.90
   8 -11  11    6.45    8.30
  -8  11  11   -0.24    4.90
  -8 -11  12   24.96   12.40
   8 -11 -12   16.92    9.59
   8 -11  12   15.58    8.57
  -8  11  12   14.11    8.08
  -8 -11  13    5.86    6.00
   8 -11  13   -6.05    5.28
   8 -11 -13    7.49    9.38
  -8  11  13    8.54    7.42
  -8 -11  14   19.62    9.23
   8 -11  14   20.44    9.11
   8 -11 -14   39.08   12.09
  -8  11  14   12.23    4.51
   8 -12   0   13.26    6.60
   8 -12   1   16.63    6.89
   8 -12  -1   33.44   10.54
   8 -12  -2    2.28    1.88
   8 -12   2    1.94    3.79
   8 -12  -3    3.07    1.85
   8 -12   3    7.41    7.38
   8 -12  -4    2.23    2.66
   8 -12   4   -2.43    1.58
   8 -12  -5   -2.57    2.85
   8 -12   5   -2.16    3.65
   8 -12  -6   -0.53    1.88
   8 -12   6    8.56    4.06
   8 -12   7    1.15    6.21
   8 -12  -7    2.43    5.86
   8 -12   8   12.23    8.73
   8 -12  -8    8.67    6.86
   8 -12   9   -0.86    3.82
   8 -12  -9    0.12    3.38
  -8 -12  10   -6.65    9.81
  -8  12  10    6.77    2.81
   8 -12  10    5.47    3.54
   8 -12 -10   16.13    9.96
   8 -13   0    5.70    7.67
   8 -13   1   -6.82    6.89
   8 -13  -1    6.32    8.75
   8 -13  -2    0.22    2.37
   8 -13   2   -3.76    0.63
   8 -13  -3   -1.07    1.99
   8 -13   3   -0.08    3.16
   8 -13  -4   -4.61    6.38
   8 -13   4    3.24    3.02
  -9   0   2   10.97    5.23
  -9   0   3    2.03    0.51
  -9   0   4    8.35    7.10
  -9   0   5    0.16    1.45
  -9   0   6   43.78   11.43
  -9   0   7   -2.23    4.30
  -9   0   8   33.67   11.13
  -9   0   9    1.08    3.10
  -9   0  10    7.74    4.57
  -9   0  11   -3.18    4.71
  -9   0  12   -0.96    3.26
   9   0  12    8.69    5.39
  -9   0  13    2.61    2.60
   9   0  13    4.48    5.87
   9   0  14   34.29   10.70
  -9   0  14   23.73    9.84
   9   0  15   -1.35    2.60
  -9   0  15   11.98    9.01
   9   0  16    4.85    5.34
  -9   0  16    8.45    6.65
   9   0  17    4.15    4.61
  -9   0  17    0.43    3.67
   9   0  18   62.22   15.57
  -9   0  18   47.58   14.50
   9   0  19    1.45    3.85
  -9   0  19   -2.78    4.35
   9   0  20   22.57    8.74
  -9   0  20   32.47   10.03
   9   0  21   -4.04    2.46
  -9   0  21    6.92    7.83
   9   0  21   -2.54    6.99
   9   0  22   -1.70    7.29
  -9   0  22    2.78    7.52
   9   0  22    9.10    4.11
   9   0  23    8.52    4.84
  -9   0  23   -1.99    3.08
   9   0  23   -6.82    9.46
  -9  -1   2  469.18   37.25
  -9   1   2  445.33   36.41
  -9  -1   3    8.77    6.70
  -9   1   3   -1.36    5.18
  -9   1   4  180.87   23.72
  -9  -1   4  164.81   23.38
  -9   1   5   32.96   10.41
  -9  -1   5   38.50   11.29
  -9   1   6  128.89   20.79
  -9  -1   6   87.52   16.30
  -9   1   7   -1.14    4.79
  -9  -1   7    1.28    3.31
   9  -1   8  202.24   22.50
  -9   1   8  168.36   25.62
  -9  -1   8  207.47   26.48
   9  -1   9  117.70   17.83
  -9   1   9   88.22   17.43
  -9  -1   9   83.37   14.95
   9  -1  10  132.50   18.63
  -9   1  10  113.24   20.31
  -9  -1  10  144.89   22.59
  -9   1  11   12.00    6.24
  -9  -1  11   18.61    8.54
   9  -1  11   11.90    4.27
   9  -1  12  119.49   19.53
  -9   1  12  134.91   22.28
  -9   1  13   44.86   14.08
  -9  -1  13   16.68    6.78
   9  -1  13   36.52   11.02
  -9   1  14   -0.10    2.21
   9  -1  14    1.57    3.05
  -9   1  15    3.52    3.91
  -9  -1  15    6.86    5.81
   9  -1  15    3.76    4.51
   9  -1  16  103.42   17.66
  -9   1  16   68.95   15.85
  -9  -1  16   78.55   16.93
  -9   1  17   24.43   10.96
   9  -1  17   14.63    6.09
  -9  -1  17   14.69    6.68
   9   1  18    8.90    8.13
   9  -1  18   17.18    9.81
  -9   1  18   15.59    8.93
  -9  -1  18   -1.30    1.91
   9   1  19    1.02    4.41
   9  -1  19    3.25    7.78
  -9   1  19   -1.80    5.31
  -9  -1  19   -4.40    6.27
   9   1  20   29.61   11.14
   9  -1  20   20.66    6.93
  -9   1  20   29.72   11.91
  -9  -1  20   46.50   14.04
   9   1  20   53.46   15.95
   9   1  21   -4.07    7.49
   9  -1  21   -3.87    7.45
  -9   1  21   -3.79    5.92
  -9  -1  21    7.67    6.24
   9   1  21   -3.04    5.55
   9   1  22   12.03    7.98
   9  -1  22   13.76    9.20
  -9   1  22    2.04    4.53
  -9  -1  22    2.73    5.25
   9   1  22   11.93    6.35
   9  -1  22    4.61    5.87
   9   1  23    8.54    1.95
   9  -1  23    6.48   11.65
  -9   1  23   25.74   10.03
  -9  -1  23   34.15   10.31
   9   1  23   33.75   11.46
   9  -1  23   32.21   11.35
  -9  -2   2    1.95    2.09
  -9   2   2   -3.03    4.45
  -9  -2   3    0.58    5.16
  -9   2   3    4.83    6.55
   9  -2   4    3.80    0.28
  -9   2   4    4.15    4.36
  -9  -2   4    4.94    4.61
  -9   2   5   63.42   14.29
  -9  -2   5   53.56   12.95
   9  -2   5   52.70   12.18
   9  -2   6    7.45    5.67
  -9   2   6    6.92    3.84
  -9  -2   6   13.33    7.18
   9  -2   7   31.94    9.58
  -9   2   7   14.42    7.06
  -9  -2   7   38.64   12.18
  -9   2   8   -3.46    4.39
  -9  -2   8    3.00    4.19
   9  -2   8    4.21    5.65
  -9   2   9   26.12   10.17
  -9  -2   9   39.09   12.56
   9  -2   9    5.62    7.34
  -9   2  10    9.14    2.35
  -9  -2  10   11.02    1.72
  -9   2  11    6.49    6.55
  -9  -2  11   -0.55    5.29
   9  -2  11   -7.22    6.48
  -9   2  12    0.81    4.49
  -9  -2  12    3.63    7.48
   9  -2  12    4.30    3.81
  -9   2  13    7.90    6.61
  -9  -2  13   -2.89    3.04
   9  -2  13   -2.15    3.80
  -9   2  14    6.55    3.73
  -9  -2  14   10.23    4.92
   9  -2  14    9.82    3.23
  -9   2  15   53.71   14.15
  -9  -2  15   67.27   15.06
   9  -2  15   59.61   15.29
  -9   2  16    0.10    1.34
  -9  -2  16   -3.39    5.36
   9  -2  16    0.27    1.38
  -9   2  17   67.79   16.44
  -9  -2  17   45.00   11.65
   9  -2  17   43.78   13.78
  -9   2  18   -0.13    1.58
  -9  -2  18    6.85    5.89
   9  -2  18   -1.92    7.11
  -9   2  19    8.41    7.60
  -9  -2  19    6.60    6.57
   9  -2  19   -0.34    1.01
  -9   2  20    7.37    6.90
  -9  -2  20    0.87    1.10
   9  -2  21   13.49    5.41
  -9   2  21    2.97    7.28
  -9  -2  21   -1.75    4.76
   9  -2  22   -3.55    5.89
  -9   2  22    5.62    5.17
  -9  -2  22    1.33    2.07
   9  -2  23   -0.59    4.93
  -9   2  23    2.99    2.96
  -9  -2  23    5.93    6.79
   9  -2  23   -0.25    5.90
   9  -3   0    1.23    3.24
   9  -3   1  185.79   20.66
   9  -3   2   -2.81    5.04
  -9   3   2   -5.50    5.88
  -9   3   3   66.31   15.08
   9  -3   3   60.18   12.77
   9  -3   4   21.53    8.07
  -9   3   4    6.37    4.94
  -9   3   5  204.85   26.00
  -9  -3   5  183.42   24.77
   9  -3   5  208.40   23.52
   9  -3   6    0.36    3.16
  -9   3   6    6.74    4.54
  -9  -3   6   -0.88    3.24
   9  -3   7   -3.02    5.83
  -9   3   7    4.63    5.04
  -9  -3   7    3.93    1.00
   9  -3   8    2.11    3.93
  -9   3   8    6.69    8.76
  -9  -3   8    4.28    4.26
  -9   3   9  246.15   28.91
  -9  -3   9  195.13   25.76
   9  -3   9  185.82   23.14
  -9  -3  10   16.06    5.99
   9  -3  10   19.52    9.03
  -9   3  11   -1.35    0.52
  -9  -3  11    4.42    3.98
   9  -3  11    1.45    3.04
  -9   3  12    5.67    7.34
  -9  -3  12   14.93    7.26
   9  -3  12    2.22    3.15
  -9   3  13   30.26   10.44
  -9  -3  13   20.61    8.41
   9  -3  13   36.86    9.81
  -9   3  14   11.02    7.40
  -9  -3  14    4.05    1.84
   9  -3  14    7.70    5.00
  -9   3  15   94.76   18.97
  -9  -3  15   89.10   18.06
   9  -3  15   73.41   15.48
  -9   3  16    9.89    7.70
  -9  -3  16    0.59    1.81
   9  -3  16    7.90    6.11
  -9   3  17    3.31    5.17
  -9  -3  17   -2.71    4.97
   9  -3  17   -0.28    3.62
  -9   3  18    7.03    5.70
  -9  -3  18    3.56    5.04
   9  -3  18    9.82    5.98
  -9   3  19   87.20   18.57
  -9  -3  19   76.21   17.57
   9  -3  19   66.54   17.77
  -9   3  20   19.92    9.61
  -9  -3  20   26.62   10.99
   9  -3  20   32.91   13.14
  -9   3  21    2.20    4.05
  -9  -3  21    8.62    8.99
   9  -3  21    9.68    4.08
  -9   3  22   12.28    6.79
   9  -3  22   17.66    8.77
  -9  -3  22   14.12    9.78
   9  -4   0   -1.68    2.54
   9  -4   1    7.20    3.89
   9  -4  -1    8.87    4.28
  -9   4   2   15.65    7.79
   9  -4   2    5.62    5.84
   9  -4  -2   20.95    8.30
   9  -4  -3    2.84    3.04
   9  -4   3   -3.53    5.60
  -9   4   3    4.46    3.21
   9  -4  -4   -1.05    1.26
   9  -4   4   -2.18    3.23
  -9   4   4    3.74    6.50
   9  -4   5   16.79    7.09
   9  -4  -5   22.24    8.29
  -9   4   5   25.55   10.18
   9  -4   6   13.99    6.15
  -9   4   6   10.36    7.36
   9  -4   7    6.97    3.76
  -9   4   7    0.66    2.72
  -9   4   8  110.59   20.16
   9  -4   8   75.15   15.29
   9  -4   9    7.98    3.16
  -9   4   9   14.79    7.59
   9  -4  10    3.44    4.37
  -9   4  10   -1.32    5.12
   9  -4  11   -1.42    3.80
  -9   4  11   -2.25    7.62
   9  -4  12    6.02    6.73
  -9   4  12   13.57    8.54
  -9   4  13   -3.66    3.71
   9  -4  13   -6.08    3.82
  -9   4  14    6.88    6.75
   9  -4  14   -1.47    1.70
  -9   4  15   -3.66    5.83
   9  -4  15    0.10    5.47
  -9   4  16   -0.14    3.73
   9  -4  16    9.03    6.97
  -9   4  17    5.55    7.28
   9  -4  17    1.95    6.27
  -9   4  18   15.39    8.56
   9  -4  18    6.13    2.05
  -9   4  19    1.16    0.32
   9  -4  19    8.84    7.03
  -9   4  20   10.24    7.74
   9  -4  20    0.36    1.69
  -9   4  21    9.05   10.34
   9  -4  21   -5.84    7.15
  -9   4  22   11.66    5.00
   9  -4  22   17.14    9.36
   9  -5   0   -4.92    3.60
   9  -5   1    1.36    5.36
   9  -5  -1   -2.34    5.86
   9  -5  -2   91.84   16.11
   9  -5   2  103.04   17.74
   9  -5  -3   12.31    7.26
  -9   5   3   15.91    5.40
   9  -5   3   30.80    9.68
   9  -5  -4    1.25    2.34
   9  -5   4   -3.10    4.65
  -9   5   4    8.89    7.74
   9  -5   5    4.28    5.71
   9  -5  -5   -2.74    2.01
  -9   5   5    2.74    5.77
   9  -5   6   44.04   12.62
  -9   5   6   53.64   13.68
   9  -5  -6   56.92   13.14
   9  -5   7    5.11    7.79
  -9   5   7   10.76    5.39
   9  -5  -7    1.02    3.35
  -9   5   8  106.03   20.92
   9  -5  -8  122.83   19.53
   9  -5   8  106.23   18.65
   9  -5   9   10.70    8.98
  -9   5   9    7.75    6.35
   9  -5  10   57.79   14.47
  -9   5  10   68.72   16.60
   9  -5  11   13.02    9.63
  -9   5  11   32.57   10.86
   9  -5  12   83.11   16.24
  -9   5  12   73.92   16.96
   9  -5  13   15.67    8.69
  -9   5  13    5.34    5.18
  -9   5  14   25.01   10.77
   9  -5  14   17.47    7.01
  -9   5  15   33.25   12.84
   9  -5  15   16.70    7.44
   9  -5  16  124.41   20.93
  -9   5  16  125.12   22.51
  -9   5  17   -2.09    4.76
   9  -5  17   -4.96    5.15
  -9   5  18   -4.39    3.78
   9  -5  18   14.23    6.19
  -9   5  19   10.00    8.00
   9  -5  19    8.35    6.27
  -9   5  20   28.75   12.09
   9  -5  20   24.39   11.38
  -9   5  21   23.67    9.64
   9  -5  21   16.51    7.83
   9  -6   0   -1.06    1.71
   9  -6  -1    5.11    1.96
   9  -6   1    7.39    2.69
   9  -6  -2    6.51    5.35
   9  -6   2    9.78    7.90
   9  -6  -3    8.91    6.89
  -9   6   3    9.18    4.00
   9  -6   3   14.72    7.46
   9  -6  -4   10.98    6.52
  -9   6   4    7.07    4.39
   9  -6   4    6.52    5.92
   9  -6  -5   -1.55    6.24
   9  -6   5   -2.43    7.02
  -9   6   5    5.20    1.45
  -9   6   6   -4.50    1.87
   9  -6  -6   -1.67    1.53
   9  -6   7    5.53    4.78
  -9   6   7    5.67    4.97
   9  -6  -7    2.39    5.19
   9  -6   8   19.52    8.12
  -9   6   8   18.75    7.63
   9  -6  -8   14.92    9.11
   9  -6   9    4.44    6.28
  -9   6   9   12.28    8.68
   9  -6  -9   -0.19    4.77
   9  -6 -10   -0.79    3.13
   9  -6  10   -3.78    6.59
  -9   6  10   -0.30    9.40
   9  -6  11   -5.37    6.00
   9  -6 -11    4.08    1.21
  -9   6  11   -2.40    3.38
   9  -6  12    0.87    2.36
   9  -6 -12    2.27    6.32
  -9   6  12   -2.43    3.20
   9  -6  13    0.87    1.54
  -9   6  13    1.27    3.43
   9  -6  14    2.41    3.01
  -9   6  14   -1.73    2.06
   9  -6  15   15.28    6.72
  -9   6  15    7.38    8.67
  -9   6  16    0.57    7.53
   9  -6  16   -0.13    4.72
  -9   6  17   20.59   11.33
   9  -6  17   18.62    8.55
  -9   6  18   19.18    8.11
   9  -6  18   28.33   12.23
  -9   6  19    0.38    3.51
   9  -6  19    7.96    8.27
  -9   6  20    0.86    3.27
   9  -6  20    9.53    7.24
   9  -7   0   -2.16    5.65
   9  -7  -1   16.19    5.95
   9  -7   1   17.98    8.37
   9  -7  -2   12.12    3.41
   9  -7   2   22.45    8.70
   9  -7   3  124.41   19.40
   9  -7  -3  125.37   20.45
   9  -7  -4   -1.15    3.04
  -9   7   4    1.92    3.27
   9  -7   4   -1.31    3.11
  -9   7   5   82.66   15.43
   9  -7  -5   77.39   15.65
   9  -7   5   83.17   16.97
   9  -7   6   11.34    6.67
  -9   7   6   29.05   11.08
   9  -7  -6   15.60    7.25
   9  -7   7   10.74    5.27
  -9   7   7   10.89    5.69
   9  -7  -7   12.84    7.35
   9  -7   8    1.11    2.62
  -9   7   8    7.91    5.60
   9  -7  -8    9.60    8.22
   9  -7   9   72.79   14.57
  -9   7   9   79.30   18.31
   9  -7  -9   93.67   17.46
   9  -7 -10   18.07    7.47
   9  -7  10   26.72    9.79
  -9   7  10   39.20   12.00
   9  -7 -11   -3.44    5.33
   9  -7  11    0.72    3.50
  -9   7  11    4.24    3.72
   9  -7  12   22.38    8.85
   9  -7 -12   34.81   12.66
  -9   7  12   13.46    7.16
  -9   7  13  116.08   23.21
   9  -7  13  126.90   21.28
   9  -7 -13  104.35   20.51
   9  -7  14    1.39    1.53
  -9   7  14    0.49    5.55
   9  -7 -14    4.60    4.55
   9  -7  15   25.49    9.91
  -9   7  15   34.07   12.17
   9  -7  16   47.37   13.10
  -9   7  16   30.04   12.47
  -9   7  17   59.68   15.78
   9  -7  17   54.01   14.14
  -9   7  18    6.81    2.49
   9  -7  18   -1.93    3.54
  -9   7  19    0.12    3.91
   9  -7  19    5.56    6.40
   9  -8   0   -6.00    4.28
   9  -8  -1    7.06    4.66
   9  -8   1    5.89    4.92
   9  -8  -2   -3.15    4.75
   9  -8   2    6.88    5.41
   9  -8  -3    6.38    3.53
   9  -8   3   16.08    8.26
   9  -8  -4    3.43    2.67
   9  -8   4   -1.04    3.25
  -9   8   5   33.68   10.29
   9  -8  -5   55.36   14.12
   9  -8   5   25.12    9.05
  -9   8   6   12.10    7.38
   9  -8   6    2.56    0.56
   9  -8  -6    8.31    5.44
   9  -8   7    7.35    8.95
  -9   8   7    1.36    2.46
   9  -8  -7    3.40    4.18
   9  -8   8    4.84    4.28
  -9   8   8   11.51    6.85
   9  -8  -8    1.28    2.86
   9  -8   9   14.91    7.75
  -9   8   9   18.32    7.58
   9  -8  -9   11.97    7.12
   9  -8 -10   10.26    6.97
   9  -8  10   -3.53    4.05
  -9   8  10    8.39    9.42
   9  -8 -11   12.99    9.41
   9  -8  11   17.89    9.51
  -9   8  11    2.00    5.48
   9  -8  12    6.38    5.91
   9  -8 -12    4.99    4.11
  -9   8  12    3.13    3.63
   9  -8  13   -0.26    2.45
   9  -8 -13   -4.54    5.64
  -9   8  13    6.10    8.56
   9  -8  14    9.70    7.04
   9  -8 -14   12.67    4.00
  -9   8  14   -1.01    2.75
   9  -8  15   19.97    9.17
  -9   8  15    6.31    5.64
   9  -8 -15    6.28    5.61
   9  -8  16   12.25    7.63
  -9   8  16    3.96    6.46
   9  -8 -16   10.83    8.11
   9  -8  17    2.26    2.70
  -9   8  17    1.49    2.91
   9  -9   0   -1.25    3.33
   9  -9  -1   32.87   11.17
   9  -9   1   36.32   10.94
   9  -9  -2   11.65    7.57
   9  -9   2    8.25    3.62
   9  -9  -3    0.76    3.16
   9  -9   3    8.66    4.70
   9  -9  -4   -1.11    3.85
   9  -9   4    2.27    1.50
   9  -9  -5    0.92    2.83
   9  -9   5   -0.54    2.68
  -9   9   6   91.75   18.72
   9  -9  -6  111.12   20.33
   9  -9   6  108.29   19.86
  -9   9   7   10.20    3.75
   9  -9   7   15.94    6.70
   9  -9  -7   18.26    7.65
   9  -9   8   13.99    7.86
  -9   9   8   22.94   11.76
   9  -9  -8    0.08    4.19
   9  -9   9   74.33   15.74
  -9   9   9   57.56   14.35
   9  -9  -9   84.88   17.34
   9  -9  10    7.81    7.13
  -9   9  10   -4.13    1.60
   9  -9 -10    6.82    0.66
   9  -9 -11   -9.96    6.89
   9  -9  11    5.03    6.24
  -9   9  11   -0.36    5.24
   9  -9 -12   14.31    7.69
   9  -9  12    9.14    7.44
  -9   9  12   -7.14    6.70
   9  -9  13   43.09   13.25
   9  -9 -13   41.99   14.46
  -9   9  13   40.79   12.32
   9  -9 -14    2.96    4.25
  -9   9  14   -9.19    6.47
   9  -9  15   18.52    7.78
   9  -9 -15   15.72    9.21
  -9   9  15   14.09   14.14
   9 -10   0   -3.66    2.34
   9 -10  -1    0.65    4.07
   9 -10   1   -3.50    5.77
   9 -10  -2   -1.49    2.49
   9 -10   2    0.49    4.10
   9 -10  -3    0.35    3.26
   9 -10   3   22.03   10.45
   9 -10  -4    1.72    4.67
   9 -10   4   17.80   10.08
   9 -10  -5    2.72    6.04
   9 -10   5    6.34    5.39
   9 -10  -6    7.67    7.37
   9 -10   6   -1.57    4.27
   9 -10   7    0.65    1.29
   9 -10  -7    6.63    6.28
   9 -10   8    1.72    1.11
  -9  10   8   -1.81    3.13
   9 -10  -8    1.49    2.41
   9 -10   9   14.04    6.78
  -9  10   9   20.91    9.29
   9 -10  -9    1.68    3.17
   9 -10  10    3.08    4.94
  -9  10  10   -2.43    3.02
   9 -10 -10    2.38    4.57
   9 -10  11    8.14    6.14
  -9  10  11    9.28   10.72
   9 -10 -11   12.06   11.90
   9 -10 -12    8.44    4.00
   9 -10  12   12.37    8.86
  -9  10  12    1.17    6.96
   9 -10 -13    1.37    3.51
   9 -10  13    6.66    1.16
   9 -11   0    3.23    3.55
   9 -11  -1    2.41    6.04
   9 -11   1   -8.57    7.63
   9 -11  -2   64.61   15.72
   9 -11   2   39.64   11.25
   9 -11  -3    0.49    5.55
   9 -11   3   15.51    8.13
   9 -11  -4    8.36    6.75
   9 -11   4   12.56    7.18
   9 -11  -5   18.07    9.66
   9 -11   5    8.97    8.38
   9 -11  -6    0.03    4.98
   9 -11   6    2.37    2.40
   9 -11   7    2.15    3.92
   9 -11  -7   -1.70    1.54
   9 -11   8   20.31    9.35
   9 -11  -8   20.29    7.83
   9 -11   9   12.47    6.19
  -9  11   9   -5.25    7.97
   9 -11  -9    8.87    4.58
   9 -12   0    4.71    8.40
   9 -12  -1    5.15    4.76
   9 -12   1   -6.54    7.38
   9 -12  -2    2.39    2.15
   9 -12   2   -2.77    5.02
 -10   0   3    5.14    4.96
 -10   0   4   20.01   10.42
 -10   0   5   -1.82    4.80
 -10   0   6    1.63    3.94
 -10   0   7   -4.72    5.13
 -10   0   8   25.86   10.02
 -10   0   9   -0.53    2.79
 -10   0  10   11.18    7.14
 -10   0  11    2.44    2.54
 -10   0  12   58.54   13.64
 -10   0  13   -3.64    3.89
 -10   0  14   18.40    7.83
 -10   0  15   -5.79    6.87
 -10   0  16    2.45    2.76
 -10   0  17   -7.53    8.15
 -10   0  18   42.32   13.81
 -10   0  19    3.07    4.91
 -10   0  20    4.55    7.06
 -10  -1   3   18.11    7.79
 -10   1   3   21.75    7.66
 -10   1   4   83.46   17.36
 -10  -1   4   70.57   15.19
 -10   1   5    9.47    4.44
 -10  -1   5    8.28    5.36
 -10   1   6   16.56    8.56
 -10  -1   6   20.01    9.92
 -10   1   7   71.42   15.96
 -10  -1   7   52.91   14.05
 -10   1   8  102.33   18.41
 -10  -1   8   79.79   17.80
 -10   1   9   14.42    4.56
 -10  -1   9    9.72    6.08
 -10   1  10   52.04   14.90
 -10  -1  10   18.29    9.22
 -10   1  11   83.02   17.33
 -10  -1  11   85.77   18.06
 -10   1  12    0.30    1.87
 -10  -1  12    8.90    8.08
 -10   1  13   11.52    5.90
 -10  -1  13    2.22    3.94
 -10   1  14   25.59    9.97
 -10  -1  14    7.17    4.36
 -10   1  15    1.35    3.54
 -10  -1  15   33.21   11.10
 -10   1  16    4.75    4.95
 -10  -1  16   -2.83    4.14
 -10   1  17    8.65    5.56
 -10  -1  17    2.34    3.70
 -10   1  18   25.04   11.31
 -10  -1  18   52.48   15.91
 -10   1  19    2.26    6.12
 -10  -1  19   -1.07    1.48
 -10   1  20    1.66    3.52
 -10  -1  20    2.27    3.33
 -10  -2   3    2.50    6.02
 -10   2   3    1.57    3.90
 -10  -2   4   24.41   10.02
 -10   2   4   49.17   12.49
 -10  -2   5    6.61    4.71
 -10   2   5   20.35    9.40
 -10   2   6   18.17    9.63
 -10  -2   6   17.12   10.53
 -10   2   7    4.75    4.11
 -10  -2   7   21.75    9.20
 -10   2   8   20.34   11.55
 -10  -2   8   21.55    7.54
 -10   2   9   10.37    4.73
 -10  -2   9   -5.79    6.48
 -10   2  10   23.39   12.05
 -10  -2  10   40.74   13.37
 -10   2  11   34.66   11.33
 -10  -2  11   51.09   13.41
 -10   2  12    4.38    6.12
 -10  -2  12   10.34    6.53
 -10   2  13   -0.25    2.24
 -10  -2  13    9.62    7.09
 -10   2  14    1.26    1.88
 -10  -2  14    8.75    4.64
 -10   2  15   -0.45    4.03
 -10  -2  15    1.37    3.42
 -10   2  16    5.44    4.20
 -10  -2  16    2.21    5.19
 -10   2  17    9.29    8.55
 -10  -2  17    6.43    4.53
 -10   2  18   19.36    9.43
 -10  -2  18    9.19    6.75
 -10   2  19   26.87   11.10
 -10  -2  19   49.89   14.64
 -10   2  20   -3.13    2.67
 -10  -2  20    4.07    4.54
 -10   3   3   88.45   18.16
 -10   3   4   11.60    5.75
 -10   3   5   33.31   11.92
 -10   3   6    7.53    1.74
 -10   3   7  168.80   26.08
 -10   3   8   24.57    9.26
 -10   3   9   14.89    8.60
 -10   3  10    2.99    5.67
 -10   3  11   33.79   11.70
 -10   3  12    1.21    2.13
 -10   3  13   47.11   14.02
  10  -3  13   25.18    8.94
 -10   3  14    3.88    3.46
  10  -3  14    0.13    3.24
 -10   3  15   38.25   13.80
  10  -3  15   25.12   11.01
 -10   3  16    9.96    7.28
  10  -3  16   -4.95    1.55
 -10   3  17   15.62    7.18
  10  -3  17   20.20    9.18
 -10   3  18   -2.70    4.80
  10  -3  18   -3.19    7.34
 -10   3  19   62.85   17.46
  10  -3  19   40.47   11.50
 -10   3  20   12.02    9.26
  10  -3  20    0.95    6.78
 -10   4   4    2.27    3.19
 -10   4   5    1.08    4.85
 -10   4   6    8.67    1.16
 -10   4   7   62.23   15.97
  10  -4   8    9.52    5.91
 -10   4   8    0.58    0.64
  10  -4   9   -3.51    5.09
 -10   4   9   -1.08    3.00
  10  -4  10    1.60    1.35
 -10   4  10    0.61    4.15
 -10   4  11   -8.70    8.92
  10  -4  11   -3.77    3.73
 -10   4  12    6.75    6.12
  10  -4  12   16.88    7.75
 -10   4  13   21.61    8.47
  10  -4  13   25.59   10.70
 -10   4  14   -2.76    3.91
  10  -4  14   -4.83    3.82
 -10   4  15   -4.95    5.69
  10  -4  15   10.03    5.72
 -10   4  16    7.46    9.45
  10  -4  16   -0.74    3.09
 -10   4  17    8.43    4.56
  10  -4  17   15.98   10.87
 -10   4  18    9.57    8.81
  10  -4  18    2.78    6.71
 -10   4  19    8.40    4.54
  10  -4  19    3.32    2.59
  10  -5   3    0.09    5.05
  10  -5   4   58.49   14.86
 -10   5   4   75.94   16.63
  10  -5   5    2.14    6.26
 -10   5   5   -3.82    5.00
  10  -5   6    6.29    3.71
 -10   5   6    2.29    1.49
  10  -5   7   -2.30    5.97
 -10   5   7   -0.55    6.68
  10  -5   8   29.10    9.26
 -10   5   8   39.22   12.85
  10  -5   9    7.58    2.20
 -10   5   9   25.16   10.33
  10  -5  10   77.01   15.89
 -10   5  10  137.27   24.84
  10  -5  11    1.30    1.25
 -10   5  11    6.52    5.03
  10  -5  12   -3.62    5.07
 -10   5  12    1.90    4.47
 -10   5  13    2.56    5.67
  10  -5  13    5.76    5.47
 -10   5  14   35.79   14.08
  10  -5  14   24.72   11.06
 -10   5  15   -0.90    4.59
  10  -5  15    3.65    1.68
 -10   5  16   -6.05    3.58
  10  -5  16    6.62    7.17
 -10   5  17    2.02    5.14
  10  -5  17    5.75    8.26
 -10   5  18    2.75    4.14
  10  -5  18    8.69    8.57
  10  -6   0   62.82   17.12
  10  -6   1   -4.09    6.43
  10  -6  -1    3.78    3.42
  10  -6   2   10.85    6.77
  10  -6   3    5.40    6.10
  10  -6   4   29.77   10.25
  10  -6   5   -0.24    2.82
 -10   6   5    5.43    1.08
  10  -6   6   18.70    8.35
 -10   6   6   14.73    9.22
  10  -6   7    1.27    3.55
 -10   6   7    2.08    1.27
  10  -6   8   21.77    8.59
 -10   6   8   17.47    9.01
  10  -6   9   13.01    7.01
 -10   6   9   14.80    6.91
 -10   6  10   97.28   19.00
  10  -6  10   77.04   17.78
  10  -6  11   -5.13    6.28
 -10   6  11    3.94    5.61
  10  -6  12   -5.99    6.98
 -10   6  12    1.91    7.07
  10  -6  13    2.26    5.67
 -10   6  13   -3.22    6.77
 -10   6  14   -0.63    3.65
  10  -6  14   -0.16    1.31
 -10   6  15   20.30   11.05
  10  -6  15   -0.73    3.56
 -10   6  16   12.33    8.13
  10  -6  16    8.79    4.33
 -10   6  17   -4.69    0.36
  10  -6  17    1.07    2.52
  10  -7   0    3.28    4.29
  10  -7  -1   93.59   19.51
  10  -7   1   78.57   15.88
  10  -7   2   42.91   12.54
  10  -7  -2   21.42    9.31
  10  -7  -3   43.64   12.90
  10  -7   3   41.78   12.43
  10  -7  -4    9.59    0.93
  10  -7   4    5.10    0.41
  10  -7   5   11.97    5.86
 -10   7   5   10.25    7.78
  10  -7   6    3.86    5.79
 -10   7   6    4.57    6.04
  10  -7   7   34.41   11.68
 -10   7   7   34.81   11.36
  10  -7   8   -6.37    4.55
 -10   7   8   -7.67    6.70
  10  -7   9    7.21    2.48
 -10   7   9   -3.52    6.78
  10  -7  10    7.78    7.79
 -10   7  10    2.60    3.67
  10  -7  11   59.48   14.29
 -10   7  11   86.19   18.54
  10  -7  12    0.35    2.43
 -10   7  12    9.43    8.01
  10  -7  13   44.61   13.39
 -10   7  13   40.87   12.88
  10  -7  14    3.68    6.08
 -10   7  14    6.82    6.68
  10  -7  15   18.88    9.09
 -10   7  15   11.13    7.88
  10  -8   0   22.43    7.66
  10  -8   1    0.69    5.01
  10  -8  -1    6.85    6.38
  10  -8  -2    5.75    5.94
  10  -8   2    8.76    4.40
  10  -8  -3    1.50    1.81
  10  -8   3    3.88    6.99
  10  -8  -4    2.01    4.59
  10  -8   4   -0.10    5.31
  10  -8  -5   -0.56    6.23
  10  -8   5    3.01    4.37
  10  -8  -6    4.64    6.05
  10  -8   6    9.48    3.49
 -10   8   6   11.20    6.70
  10  -8   7   58.77   16.34
  10  -8  -7   35.01   11.39
 -10   8   7   53.88   12.23
  10  -8   8   -3.02    4.04
 -10   8   8    7.03    6.64
  10  -8   9   -3.17    6.93
 -10   8   9    5.85    7.37
  10  -8  10    1.60    1.55
 -10   8  10    0.94    8.48
  10  -8  11   24.32    7.91
 -10   8  11   42.00   13.75
  10  -8  12   -1.16    3.67
 -10   8  12    3.82    3.45
  10  -8  13    7.11    2.90
 -10   8  13   -1.34    2.08
  10  -9   0   41.44   12.88
  10  -9   1   17.71    9.50
  10  -9  -1   -2.81    3.95
  10  -9  -2   18.37    8.45
  10  -9   2   13.36    7.00
  10  -9  -3   15.52    9.24
  10  -9   3   31.13   10.86
  10  -9  -4   23.70    9.00
  10  -9   4   24.32    9.74
  10  -9  -5   26.64   10.34
  10  -9   5   12.51    5.52
  10  -9  -6    2.94    3.77
  10  -9   6    4.56    1.87
  10  -9   7   66.12   15.93
  10  -9  -7   59.60   16.07
  10  -9   8    1.52    4.02
 -10   9   8    6.91    5.02
  10  -9  -8   17.03    9.42
  10  -9   9   -0.93    5.39
 -10   9   9   -1.10    2.79
  10  -9  -9   -1.92    3.75
  10  -9  10   13.52    7.26
 -10   9  10    1.57    2.53
  10  -9  11    5.75    3.53
 -10   9  11   13.41    9.53
  10 -10   0    4.40    3.32
  10 -10   1    7.44    4.36
  10 -10  -1   -4.02    7.74
  10 -10  -2    0.53    2.90
  10 -10   2    7.09    5.26
  10 -10  -3    3.10    3.80
  10 -10   3   -1.72    4.72
  10 -10  -4    4.69    5.60
  10 -10   4    0.52    4.70
  10 -10  -5   13.07    9.29
  10 -10   5    3.74    6.79
  10 -10  -6   -6.26    5.89
  10 -10   6   -0.42    4.07
  10 -10  -7    4.71    4.95
  10 -10   7   -3.31    4.12
 -11   0   4   39.26   12.62
 -11   0   5   -2.06    4.19
 -11   0   6   14.12    8.00
 -11   0   7    3.73    5.41
 -11   0   8   13.25    9.38
 -11   0   9   -2.00    6.81
 -11   0  10   27.42   11.99
 -11   0  11   -1.70    7.24
 -11   0  12   13.39    7.62
 -11   0  13   11.35    8.23
 -11   0  14   33.78   11.09
 -11   0  15   12.23    7.68
 -11   0  16  100.65   21.28
 -11   0  17   -3.00    6.03
 -11   1   4   10.46    5.43
 -11  -1   5   -1.33    4.82
 -11   1   5    1.50    3.85
 -11  -1   6    8.07    2.63
 -11   1   6   36.83   11.45
 -11   1   7    0.68    2.55
 -11  -1   7    7.60    7.48
 -11   1   8   -0.75    4.62
 -11  -1   8   -2.10    3.23
 -11   1   9   -4.78    5.03
 -11  -1   9   -0.74    0.77
 -11   1  10   45.56   14.87
 -11  -1  10   25.54   10.59
 -11   1  11   12.76    7.87
 -11  -1  11   -3.01    7.05
 -11   1  12    2.19    5.72
 -11  -1  12   11.96    6.30
 -11   1  13   33.57   11.56
 -11  -1  13   11.21    5.06
 -11   1  14    8.96    5.20
 -11  -1  14   16.63    9.70
 -11   1  15    6.77   10.09
 -11  -1  15    6.56    8.02
 -11   1  16   27.47   11.18
 -11  -1  16    5.93    4.05
 -11   1  17   -2.34    1.63
 -11  -1  17   -1.44    5.40
 -11   2   4   20.45    8.14
 -11   2   5   25.70    9.63
 -11   2   6   -2.02    4.06
 -11   2   7    6.25    6.73
 -11   2   8   -0.84    3.14
 -11   2   9   25.12   11.04
 -11   2  10   35.29   12.50
 -11   2  11   48.73   14.10
 -11   2  12    5.05    3.42
 -11   2  13   19.93    9.22
 -11   2  14   -0.25    3.23
 -11   2  15    5.84    6.37
 -11   2  16    5.18    6.10
 -11   2  17   48.31   14.19
 -11   3   5   31.08   13.25
 -11   3   6    4.52    5.36
 -11   3   7    5.03    4.73
 -11   3   8   -0.49    6.72
 -11   3   9    7.17    4.56
 -11   3  10   12.94    7.46
 -11   3  11   12.13    9.13
 -11   3  12    8.78    7.40
 -11   3  13   32.42   11.04
 -11   3  14   -3.19    4.67
 -11   3  15    4.14    1.66
 -11   3  16    7.55    9.67
 -11   4   5    0.21    1.62
 -11   4   6   -4.44    3.28
 -11   4   7    2.38    3.54
 -11   4   8    8.49    4.84
 -11   4   9   13.63    6.06
 -11   4  10   71.91   16.69
 -11   4  11   -7.29    8.77
 -11   4  12   -1.77    4.14
 -11   4  13   12.92    7.28
 -11   4  14   -5.02    6.89
 -11   4  15    9.99    6.05
 -11   5   6   22.40   10.05
 -11   5   7   -2.79    1.34
 -11   5   8    0.46    3.06
 -11   5   9    1.13    5.01
 -11   5  10   -1.92    4.95
 -11   5  11    4.81    2.17
 -11   5  12    0.46    4.01
 -11   5  13    0.46    1.70
 -11   5  14    7.60    6.59
 -11   6   6   17.86    8.96
 -11   6   7    3.56    4.77
 -11   6   8    7.63    3.22
 -11   6   9    6.40    2.17
 -11   6  10    2.75    5.99
 -11   6  11    0.12    3.19
 -11   6  12   70.48   16.73
 -11   6  13   19.65    9.72
 -11   7   7    6.05    6.53
 -11   7   8   -6.12    5.57
 -11   7   9    1.12    2.72
 -11   7  10   -6.27    5.96
  11  -8   7    1.06    2.16
 -12   0   6   -4.98    6.90
 -12   0   7   -2.17    6.23
 -12   0   8   40.11   13.10
 -12   0   9   -9.49   10.10
 -12   0  10   53.18   16.13
 -12   0  11   -2.66    4.18
 -12   0  12   20.28   10.24
 -12   1   6    9.15    8.66
 -12   1   7   -2.89    5.63
 -12   1   8   13.49    7.48
 -12   1   9    6.36    7.75
 -12   1  10    4.07    5.72
 -12   1  11    9.70    9.41
 -12   1  12   29.90   12.03
 -12   2   6    8.20    4.72
 -12   2   7   68.46   18.02
 -12   2   8   19.01    8.32
 -12   2   9   13.86    8.00
 -12   2  10   -1.61    2.14
 -12   2  11   75.65   19.34
 -12   2  12    2.44    2.40
 -12   3   6   17.48   10.58
 -12   3   7   10.29    9.31
 -12   3   8   30.47   12.18
 -12   3   9   -3.18    4.93
 -12   3  10   -3.14    7.51
 -12   3  11   12.55    9.30
 -12   4   7   25.83    9.52
 -12   4   8   21.40    8.20
 -12   4   9   26.08   10.88
 -12   4  10   11.73    6.66
 -12   5   7   -2.00    4.98
 -12   5   8    3.52    3.67
   0   0   0    0.00    0.00

TITL 034_260K_SulfamerazineF2_ in Pbca
REM Pbca (#61 in standard setting)
CELL 0.68890   9.131102  11.666730  22.880004  90.0000  90.0000  90.0000
ZERR    8.00   0.000255   0.000231   0.000397   0.0000   0.0000   0.0000
LATT  1
SYMM -x+1/2,-y, z+1/2
SYMM -x, y+1/2,-z+1/2
SYMM  x+1/2,-y+1/2,-z
SFAC C H N O S
UNIT 88.00 96.00 32.00 16.00 8.00
TREF
HKLF 4
END
_computing_structure_solution     'SHELXT 2014/5 (Sheldrick, 2014)'
;
_shelx_hkl_checksum              46376
loop_
_space_group_symop_operation_xyz
'x, y, z'
'-x+1/2, -y, z+1/2'
'-x, y+1/2, -z+1/2'
'x+1/2, -y+1/2, -z'
'-x, -y, -z'
'x-1/2, y, -z-1/2'
'x, -y-1/2, z-1/2'
'-x-1/2, y-1/2, z'
loop_
_atom_site_label
_atom_site_type_symbol
_atom_site_fract_x
_atom_site_fract_y
_atom_site_fract_z
_atom_site_U_iso_or_equiv
_atom_site_adp_type
_atom_site_occupancy
_atom_site_site_symmetry_order
_atom_site_calc_flag
_atom_site_refinement_flags_posn
_atom_site_refinement_flags_adp
_atom_site_refinement_flags_occupancy
_atom_site_disorder_assembly
_atom_site_disorder_group
S1 S 0.33260(6) 0.34656(4) 0.38977(2) 0.03500(15) Uani 1 1 d . . . . .
O2 O 0.19790(16) 0.39708(13) 0.40961(6) 0.0430(4) Uani 1 1 d . . . . .
O1 O 0.34232(19) 0.22468(12) 0.38628(6) 0.0462(4) Uani 1 1 d . . . . .
N4 N 0.6658(2) 0.42625(15) 0.48541(7) 0.0390(4) Uani 1 1 d . . . . .
N3 N 0.6554(2) 0.28601(14) 0.40910(8) 0.0401(4) Uani 1 1 d . . . . .
N2 N 0.4513(2) 0.39472(15) 0.43764(8) 0.0384(4) Uani 1 1 d . . . . .
N1 N 0.4565(3) 0.5329(2) 0.15529(9) 0.0556(6) Uani 1 1 d . . . . .
C1 C 0.3759(2) 0.40426(16) 0.32186(8) 0.0360(4) Uani 1 1 d . . . . .
C2 C 0.4489(3) 0.33841(19) 0.28051(10) 0.0475(6) Uani 1 1 d . . . . .
H2 H 0.4783 0.2643 0.2897 0.062 Uiso 1 1 calc R U . . .
C3 C 0.4778(3) 0.38272(19) 0.22592(10) 0.0501(6) Uani 1 1 d . . . . .
H3 H 0.5277 0.3382 0.1987 0.065 Uiso 1 1 calc R U . . .
C4 C 0.4333(3) 0.49338(18) 0.21071(9) 0.0421(5) Uani 1 1 d . . . . .
C5 C 0.3604(3) 0.55890(17) 0.25317(10) 0.0444(5) Uani 1 1 d . . . . .
H5 H 0.3299 0.6328 0.2441 0.058 Uiso 1 1 calc R U . . .
C6 C 0.3334(2) 0.51546(17) 0.30812(9) 0.0393(5) Uani 1 1 d . . . . .
H6 H 0.2868 0.5605 0.3360 0.051 Uiso 1 1 calc R U . . .
C7 C 0.5975(2) 0.36638(16) 0.44335(8) 0.0343(4) Uani 1 1 d . . . . .
C8 C 0.8076(3) 0.4010(2) 0.49294(10) 0.0455(5) Uani 1 1 d . . . . .
H8 H 0.8598 0.4399 0.5216 0.059 Uiso 1 1 calc R U . . .
C9 C 0.8787(3) 0.3203(2) 0.46020(10) 0.0457(5) Uani 1 1 d . . . . .
H9 H 0.9776 0.3049 0.4659 0.059 Uiso 1 1 calc R U . . .
C10 C 0.7984(3) 0.26240(18) 0.41823(10) 0.0432(5) Uani 1 1 d . . . . .
C11 C 0.8656(3) 0.1695(2) 0.38182(12) 0.0620(7) Uani 1 1 d . . . . .
H11A H 0.8205 0.0975 0.3912 0.081 Uiso 1 1 calc R U . . .
H11B H 0.9687 0.1653 0.3898 0.081 Uiso 1 1 calc R U . . .
H11C H 0.8506 0.1862 0.3412 0.081 Uiso 1 1 calc R U . . .
H1N2 H 0.418(3) 0.447(2) 0.4593(11) 0.049(7) Uiso 1 1 d . . . . .
H1N1 H 0.511(3) 0.495(2) 0.1353(12) 0.054(8) Uiso 1 1 d . . . . .
H2N1 H 0.454(3) 0.603(3) 0.1484(13) 0.069(9) Uiso 1 1 d . . . . .
loop_
_atom_site_aniso_label
_atom_site_aniso_U_11
_atom_site_aniso_U_22
_atom_site_aniso_U_33
_atom_site_aniso_U_23
_atom_site_aniso_U_13
_atom_site_aniso_U_12
S1 0.0360(3) 0.0366(2) 0.0324(2) -0.00234(17) -0.00015(19) -0.0042(2)
O2 0.0327(9) 0.0578(9) 0.0386(7) -0.0024(6) 0.0015(6) -0.0030(7)
O1 0.0614(11) 0.0348(7) 0.0423(8) -0.0013(6) -0.0004(7) -0.0086(7)
N4 0.0363(11) 0.0440(9) 0.0368(8) -0.0040(7) -0.0042(7) 0.0031(8)
N3 0.0411(11) 0.0387(9) 0.0405(9) -0.0021(7) 0.0038(7) 0.0061(8)
N2 0.0355(11) 0.0409(9) 0.0387(9) -0.0098(7) -0.0039(7) 0.0060(8)
N1 0.0730(17) 0.0496(12) 0.0440(11) 0.0059(9) 0.0196(10) 0.0030(11)
C1 0.0395(12) 0.0361(9) 0.0324(9) -0.0031(7) 0.0026(8) -0.0013(8)
C2 0.0587(16) 0.0404(11) 0.0435(11) 0.0005(8) 0.0085(10) 0.0110(10)
C3 0.0649(17) 0.0435(11) 0.0418(11) -0.0015(9) 0.0149(11) 0.0097(11)
C4 0.0456(14) 0.0415(10) 0.0393(10) 0.0004(8) 0.0053(9) -0.0062(9)
C5 0.0550(15) 0.0316(9) 0.0464(11) 0.0007(8) 0.0075(10) 0.0001(9)
C6 0.0440(13) 0.0341(9) 0.0398(10) -0.0049(7) 0.0071(9) -0.0023(8)
C7 0.0355(12) 0.0354(9) 0.0320(9) 0.0015(7) 0.0018(8) 0.0013(8)
C8 0.0368(13) 0.0575(13) 0.0423(11) 0.0007(9) -0.0038(9) 0.0018(10)
C9 0.0343(13) 0.0568(13) 0.0462(12) 0.0074(10) 0.0022(9) 0.0069(10)
C10 0.0423(13) 0.0442(11) 0.0431(11) 0.0076(9) 0.0103(9) 0.0075(9)
C11 0.0605(19) 0.0577(15) 0.0679(17) -0.0062(12) 0.0120(13) 0.0190(13)
loop_
_atom_type_symbol
_atom_type_description
_atom_type_scat_dispersion_real
_atom_type_scat_dispersion_imag
_atom_type_scat_source
C C 0.0033 0.0016 'International Tables Vol C Tables 4.2.6.8 and 6.1.1.4'
H H 0.0000 0.0000 'International Tables Vol C Tables 4.2.6.8 and 6.1.1.4'
N N 0.0061 0.0033 'International Tables Vol C Tables 4.2.6.8 and 6.1.1.4'
O O 0.0106 0.0060 'International Tables Vol C Tables 4.2.6.8 and 6.1.1.4'
S S 0.1246 0.1234 'International Tables Vol C Tables 4.2.6.8 and 6.1.1.4'
loop_
_geom_angle_atom_site_label_1
_geom_angle_atom_site_label_2
_geom_angle_atom_site_label_3
_geom_angle
_geom_angle_site_symmetry_1
_geom_angle_site_symmetry_3
O1 S1 O2 118.65(10) . .
O1 S1 N2 109.73(9) . .
O2 S1 N2 102.36(9) . .
O1 S1 C1 108.77(9) . .
O2 S1 C1 108.53(10) . .
N2 S1 C1 108.30(10) . .
C8 N4 C7 115.24(18) . .
C7 N3 C10 115.86(19) . .
C7 N2 S1 128.30(14) . .
C7 N2 H1N2 118.0(18) . .
S1 N2 H1N2 113.6(18) . .
C4 N1 H1N1 116.1(19) . .
C4 N1 H2N1 120(2) . .
H1N1 N1 H2N1 116(3) . .
C2 C1 C6 119.73(18) . .
C2 C1 S1 120.23(16) . .
C6 C1 S1 120.01(15) . .
C3 C2 C1 120.1(2) . .
C3 C2 H2 119.9 . .
C1 C2 H2 119.9 . .
C2 C3 C4 121.1(2) . .
C2 C3 H3 119.4 . .
C4 C3 H3 119.4 . .
N1 C4 C3 119.9(2) . .
N1 C4 C5 122.1(2) . .
C3 C4 C5 117.94(19) . .
C6 C5 C4 121.05(19) . .
C6 C5 H5 119.5 . .
C4 C5 H5 119.5 . .
C5 C6 C1 119.99(18) . .
C5 C6 H6 120.0 . .
C1 C6 H6 120.0 . .
N3 C7 N4 127.2(2) . .
N3 C7 N2 119.75(18) . .
N4 C7 N2 113.07(17) . .
N4 C8 C9 122.7(2) . .
N4 C8 H8 118.6 . .
C9 C8 H8 118.6 . .
C8 C9 C10 117.7(2) . .
C8 C9 H9 121.2 . .
C10 C9 H9 121.2 . .
N3 C10 C9 121.3(2) . .
N3 C10 C11 117.2(2) . .
C9 C10 C11 121.4(2) . .
C10 C11 H11A 109.5 . .
C10 C11 H11B 109.5 . .
H11A C11 H11B 109.5 . .
C10 C11 H11C 109.5 . .
H11A C11 H11C 109.5 . .
H11B C11 H11C 109.5 . .
loop_
_geom_bond_atom_site_label_1
_geom_bond_atom_site_label_2
_geom_bond_distance
_geom_bond_site_symmetry_2
S1 O1 1.4268(15) .
S1 O2 1.4374(16) .
S1 N2 1.6402(18) .
S1 C1 1.739(2) .
N4 C8 1.339(3) .
N4 C7 1.343(2) .
N3 C7 1.331(2) .
N3 C10 1.351(3) .
N2 C7 1.382(3) .
N2 H1N2 0.84(3) .
N1 C4 1.366(3) .
N1 H1N1 0.81(3) .
N1 H2N1 0.84(3) .
C1 C2 1.389(3) .
C1 C6 1.390(3) .
C2 C3 1.377(3) .
C2 H2 0.9300 .
C3 C4 1.397(3) .
C3 H3 0.9300 .
C4 C5 1.404(3) .
C5 C6 1.378(3) .
C5 H5 0.9300 .
C6 H6 0.9300 .
C8 C9 1.367(3) .
C8 H8 0.9300 .
C9 C10 1.385(3) .
C9 H9 0.9300 .
C10 C11 1.498(3) .
C11 H11A 0.9600 .
C11 H11B 0.9600 .
C11 H11C 0.9600 .
loop_
_geom_hbond_atom_site_label_D
_geom_hbond_atom_site_label_H
_geom_hbond_atom_site_label_A
_geom_hbond_distance_DH
_geom_hbond_distance_HA
_geom_hbond_distance_DA
_geom_hbond_angle_DHA
_geom_hbond_site_symmetry_A
C6 H6 O1 0.93 2.53 3.425(2) 162.7 8_665
C8 H8 O2 0.93 2.52 3.244(3) 134.5 5_666
C9 H9 O2 0.93 2.62 3.261(3) 126.6 1_655
N2 H1N2 N4 0.84(3) 2.09(3) 2.933(2) 179(2) 5_666
N1 H1N1 O2 0.81(3) 2.30(3) 3.095(3) 170(3) 6_656
N1 H2N1 O1 0.84(3) 2.47(3) 3.047(3) 127(3) 3_655
N1 H2N1 N3 0.84(3) 2.70(3) 3.454(3) 151(3) 3_655
loop_
_geom_torsion_atom_site_label_1
_geom_torsion_atom_site_label_2
_geom_torsion_atom_site_label_3
_geom_torsion_atom_site_label_4
_geom_torsion
_geom_torsion_site_symmetry_1
_geom_torsion_site_symmetry_2
_geom_torsion_site_symmetry_3
_geom_torsion_site_symmetry_4
O1 S1 N2 C7 47.1(2) . . . .
O2 S1 N2 C7 174.01(18) . . . .
C1 S1 N2 C7 -71.5(2) . . . .
O1 S1 C1 C2 -17.3(2) . . . .
O2 S1 C1 C2 -147.71(19) . . . .
N2 S1 C1 C2 101.9(2) . . . .
O1 S1 C1 C6 160.71(17) . . . .
O2 S1 C1 C6 30.3(2) . . . .
N2 S1 C1 C6 -80.1(2) . . . .
C6 C1 C2 C3 -0.7(4) . . . .
S1 C1 C2 C3 177.4(2) . . . .
C1 C2 C3 C4 -0.7(4) . . . .
C2 C3 C4 N1 -176.5(2) . . . .
C2 C3 C4 C5 1.1(4) . . . .
N1 C4 C5 C6 177.5(2) . . . .
C3 C4 C5 C6 0.0(4) . . . .
C4 C5 C6 C1 -1.3(4) . . . .
C2 C1 C6 C5 1.7(3) . . . .
S1 C1 C6 C5 -176.35(18) . . . .
C10 N3 C7 N4 0.3(3) . . . .
C10 N3 C7 N2 -179.01(18) . . . .
C8 N4 C7 N3 0.1(3) . . . .
C8 N4 C7 N2 179.42(18) . . . .
S1 N2 C7 N3 -3.9(3) . . . .
S1 N2 C7 N4 176.68(15) . . . .
C7 N4 C8 C9 0.2(3) . . . .
N4 C8 C9 C10 -0.8(3) . . . .
C7 N3 C10 C9 -0.9(3) . . . .
C7 N3 C10 C11 178.0(2) . . . .
C8 C9 C10 N3 1.2(3) . . . .
C8 C9 C10 C11 -177.7(2) . . . .
