#------------------------------------------------------------------------------
#$Date: 2017-09-28 16:03:06 +0300 (Thu, 28 Sep 2017) $
#$Revision: 201429 $
#$URL: file:///home/coder/svn-repositories/cod/cif/1/54/74/1547427.cif $
#------------------------------------------------------------------------------
#
# This file is available in the Crystallography Open Database (COD),
# http://www.crystallography.net/
#
# All data on this site have been placed in the public domain by the
# contributors.
#
data_1547427
loop_
_publ_author_name
'Anuradha R. Pallipurath'
'Jonathan M. Skelton'
'Mark R. Warren'
'Naghmeh Kamali'
'Patrick McArdle'
'Andrea Erxleben'
_publ_section_title
;
 Sulfamerazine: Understanding the Influence of Slip Planes in the
 Polymorphic Phase Transformation through X-Ray Crystallographic Studies
 and ab Initio Lattice Dynamics
;
_journal_name_full               'Molecular Pharmaceutics'
_journal_page_first              3735
_journal_page_last               3748
_journal_paper_doi               10.1021/acs.molpharmaceut.5b00504
_journal_volume                  12
_journal_year                    2015
_chemical_absolute_configuration ad
_chemical_formula_moiety         'C11 H12 N4 O2 S'
_chemical_formula_sum            'C11 H12 N4 O2 S'
_chemical_formula_weight         264.31
_space_group_crystal_system      orthorhombic
_space_group_IT_number           33
_space_group_name_Hall           'P 2c -2n'
_space_group_name_H-M_alt        'P n a 21'
_symmetry_space_group_name_Hall  'P 2c -2n'
_symmetry_space_group_name_H-M   'P n a 21'
_atom_sites_solution_hydrogens   mixed
_cell_angle_alpha                90
_cell_angle_beta                 90
_cell_angle_gamma                90
_cell_formula_units_Z            8
_cell_length_a                   14.5008(2)
_cell_length_b                   8.21410(10)
_cell_length_c                   21.9821(4)
_cell_measurement_reflns_used    9652
_cell_measurement_temperature    290
_cell_measurement_theta_max      29.4310
_cell_measurement_theta_min      1.7970
_cell_volume                     2618.31(7)
_computing_cell_refinement
;
CrysAlisPro, Agilent Technologies,
Version 1.171.37.35 (release 13-08-2014 CrysAlis171 .NET)
(compiled Aug 13 2014,18:06:01)
;
_computing_data_collection
;
CrysAlisPro, Agilent Technologies,
Version 1.171.37.35 (release 13-08-2014 CrysAlis171 .NET)
(compiled Aug 13 2014,18:06:01)
;
_computing_data_reduction
;
CrysAlisPro, Agilent Technologies,
Version 1.171.37.35 (release 13-08-2014 CrysAlis171 .NET)
(compiled Aug 13 2014,18:06:01)
;
_computing_molecular_graphics    OSCAIL
_computing_structure_refinement  'SHELXL-2014/7 (Sheldrick, 2014)'
_computing_structure_solution    SHELXT
_diffrn_ambient_temperature      290
_diffrn_measured_fraction_theta_full 0.998
_diffrn_measured_fraction_theta_max 0.998
_diffrn_measurement_device       'CrystalLogic Kappa (3 circle)'
_diffrn_measurement_device_type  'Rigaku Saturn724+ (2x2 bin mode)'
_diffrn_measurement_method
;
omega rotation with 1 degree frames
;
_diffrn_measurement_specimen_support 'MiTeGen loop'
_diffrn_radiation_monochromator  'double crystal Silicon 111'
_diffrn_radiation_source         'Diamond Light Source Beamline I19'
_diffrn_radiation_type           Synchrotron
_diffrn_radiation_wavelength     0.68890
_diffrn_reflns_av_R_equivalents  0.0446
_diffrn_reflns_av_unetI/netI     0.0442
_diffrn_reflns_Laue_measured_fraction_full 0.998
_diffrn_reflns_Laue_measured_fraction_max 0.998
_diffrn_reflns_limit_h_max       20
_diffrn_reflns_limit_h_min       -13
_diffrn_reflns_limit_k_max       11
_diffrn_reflns_limit_k_min       -11
_diffrn_reflns_limit_l_max       27
_diffrn_reflns_limit_l_min       -31
_diffrn_reflns_number            23762
_diffrn_reflns_point_group_measured_fraction_full 0.989
_diffrn_reflns_point_group_measured_fraction_max 0.970
_diffrn_reflns_theta_full        24.415
_diffrn_reflns_theta_max         29.476
_diffrn_reflns_theta_min         2.566
_exptl_absorpt_coefficient_mu    0.247
_exptl_absorpt_correction_T_max  1.00000
_exptl_absorpt_correction_T_min  0.99301
_exptl_absorpt_process_details
;
CrysAlisPro, Agilent Technologies,
Version 1.171.36.28 (release 01-02-2013 CrysAlis171 .NET)
Empirical absorption correction using spherical harmonics,
implemented in SCALE3 ABSPACK scaling algorithm.
;
_exptl_crystal_colour            Colourless
_exptl_crystal_density_diffrn    1.341
_exptl_crystal_description       Parallelepiped
_exptl_crystal_F_000             1104
_exptl_crystal_size_max          0.50
_exptl_crystal_size_mid          0.40
_exptl_crystal_size_min          0.20
_refine_diff_density_max         0.248
_refine_diff_density_min         -0.260
_refine_diff_density_rms         0.043
_refine_ls_abs_structure_details
;
 Flack x determined using 2003 quotients [(I+)-(I-)]/[(I+)+(I-)]
 (Parsons, Flack and Wagner, Acta Cryst. B69 (2013) 249-259).
;
_refine_ls_abs_structure_Flack   0.01(5)
_refine_ls_extinction_coef       .
_refine_ls_extinction_method     none
_refine_ls_goodness_of_fit_ref   1.032
_refine_ls_hydrogen_treatment    mixed
_refine_ls_matrix_type           full
_refine_ls_number_parameters     344
_refine_ls_number_reflns         7762
_refine_ls_number_restraints     1
_refine_ls_restrained_S_all      1.032
_refine_ls_R_factor_all          0.0753
_refine_ls_R_factor_gt           0.0501
_refine_ls_shift/su_max          0.000
_refine_ls_shift/su_mean         0.000
_refine_ls_structure_factor_coef Fsqd
_refine_ls_weighting_details
'w=1/[\s^2^(Fo^2^)+(0.0541P)^2^+0.3587P] where P=(Fo^2^+2Fc^2^)/3'
_refine_ls_weighting_scheme      calc
_refine_ls_wR_factor_gt          0.1152
_refine_ls_wR_factor_ref         0.1330
_reflns_Friedel_coverage         0.899
_reflns_Friedel_fraction_full    0.980
_reflns_Friedel_fraction_max     0.941
_reflns_number_gt                5613
_reflns_number_total             7762
_reflns_threshold_expression     'I > 2\s(I)'
_cod_data_source_file            Exp_Form-I2FSynchrotron_Form-I_290K.cif
_cod_data_source_block           290k_smz-f1_a
_cod_database_code               1547427
_shelx_space_group_comment
;
The symmetry employed for this shelxl refinement is uniquely defined
by the following loop, which should always be used as a source of
symmetry information in preference to the above space-group names.
They are only intended as comments.
;
_shelx_res_file
;
    290k_smz-f1_a.res created by SHELXL-2014/7
TITL 290k_smz-f1_a.res in Pna2(1)
REM Old TITL 003_290K_SulfamerazineF1_ in Pna2(1)
REM SHELXT solution in Pna2(1)
REM R1 0.116,  Rweak 0.034,  Alpha 0.003,  Orientation as input
REM Flack x =  0.130 ( 0.062 ) from Parsons' quotients
REM Formula found by SHELXT:  C26 N4 O4 S2
CELL  0.68890  14.5008   8.2141  21.9821   90.000   90.000   90.000
ZERR    8.000   0.0002   0.0001   0.0004    0.000    0.000    0.000
REM SG 33 4 4 Pna21 PGmm2 Orthorhombic
LATT -1
REM SG  ASUN  1  .5 .5 1.
REM SG  ORGN  on 2(1)
SYMM -X,-Y,0.5+Z
SYMM 0.5+X,0.5-Y,Z
SYMM 0.5-X,0.5+Y,0.5+Z
SFAC C H N O S
UNIT 88.00 96.00 32.00 16.00 8.00
L.S. 10
BOND $H
FMAP 2
PLAN 20
ACTA
CONF
HTAB
LIST 4
WGHT    0.054100    0.358700
FVAR       0.42068   0.35344
S1    5    0.647260    0.495992    0.344623    11.00000    0.03846    0.04320 =
         0.04030    0.00328   -0.00133   -0.00257
S2    5    0.577745    0.494386    0.652192    11.00000    0.03717    0.04399 =
         0.03921    0.00459   -0.00135   -0.00241
O1    4    0.690573    0.371612    0.309412    11.00000    0.06337    0.04451 =
         0.05265   -0.00519    0.00083   -0.00095
O2    4    0.550413    0.522894    0.337837    11.00000    0.03878    0.06571 =
         0.05243    0.00929   -0.00810   -0.00614
O3    4    0.675001    0.466543    0.658331    11.00000    0.03717    0.06681 =
         0.04903    0.00819   -0.00758   -0.00464
O4    4    0.535540    0.621844    0.686520    11.00000    0.05821    0.04192 =
         0.05459   -0.00464   -0.00018   -0.00308
N1    3    0.843486    1.115695    0.312349    11.00000    0.05489    0.04642 =
         0.07983   -0.00930    0.02226   -0.00579
N2    3    0.656575    0.449808    0.417220    11.00000    0.03212    0.06299 =
         0.04515    0.01200    0.00155    0.00196
N3    3    0.815511    0.410515    0.417869    11.00000    0.03791    0.05076 =
         0.05002    0.00471    0.00209    0.00287
N4    3    0.728404    0.427040    0.509283    11.00000    0.04799    0.09751 =
         0.04453    0.00891   -0.00266    0.01498
N5    3    0.380948   -0.119815    0.696329    11.00000    0.06799    0.04580 =
         0.12063   -0.00508    0.02313   -0.01165
AFIX  93
H5A   2    0.408298   -0.211179    0.690040    11.00000   -1.30000
H5B   2    0.324725   -0.118409    0.708770    11.00000   -1.30000
AFIX   0
N6    3    0.568276    0.535109    0.579094    11.00000    0.03571    0.06874 =
         0.03911    0.01194    0.00276    0.00364
N7    3    0.410010    0.584192    0.579547    11.00000    0.03784    0.05711 =
         0.05309    0.00328    0.00112    0.00558
N8    3    0.496686    0.566311    0.487741    11.00000    0.04495    0.09570 =
         0.04338    0.00697   -0.00291    0.01561
C1    1    0.706340    0.678106    0.334470    11.00000    0.03878    0.04037 =
         0.03439    0.00305    0.00177    0.00203
C2    1    0.795701    0.680051    0.311052    11.00000    0.03554    0.04303 =
         0.03823   -0.00281    0.00212    0.00485
AFIX  43
H2    2    0.824530    0.582972    0.300456    11.00000   -1.30000
AFIX   0
C3    1    0.841056    0.825272    0.303656    11.00000    0.03446    0.04884 =
         0.03475    0.00140    0.00505   -0.00021
AFIX  43
H3    2    0.900905    0.825889    0.288451    11.00000   -1.30000
AFIX   0
C4    1    0.798183    0.972615    0.318762    11.00000    0.04141    0.04592 =
         0.04040   -0.00309    0.00170   -0.00112
C5    1    0.707756    0.969084    0.342722    11.00000    0.04657    0.04352 =
         0.05164   -0.00299    0.00859    0.00326
AFIX  43
H5    2    0.678403    1.065592    0.353421    11.00000   -1.30000
AFIX   0
C6    1    0.663453    0.823075    0.350144    11.00000    0.03910    0.04741 =
         0.05441   -0.00181    0.01024    0.00405
AFIX  43
H6    2    0.603927    0.821170    0.365876    11.00000   -1.30000
AFIX   0
C7    1    0.738085    0.428966    0.449334    11.00000    0.03671    0.04905 =
         0.04444    0.00858   -0.00135    0.00241
C8    1    0.806775    0.402067    0.540444    11.00000    0.05952    0.14279 =
         0.05169    0.00754   -0.00799    0.02656
AFIX  43
H8    2    0.804363    0.398710    0.582702    11.00000   -1.30000
AFIX   0
C9    1    0.889897    0.381421    0.512286    11.00000    0.04652    0.12239 =
         0.06620   -0.00115   -0.01361    0.02008
AFIX  43
H9    2    0.943206    0.363054    0.534784    11.00000   -1.30000
AFIX   0
C10   1    0.892735    0.388417    0.450405    11.00000    0.04100    0.06379 =
         0.06365   -0.00016   -0.00131    0.00697
C11   1    0.980024    0.371770    0.414880    11.00000    0.04288    0.09866 =
         0.09316   -0.00451    0.00894    0.01168
AFIX 137
H11A  2    0.978377    0.272656    0.391763    11.00000   -1.30000
H11B  2    1.031544    0.369256    0.442290    11.00000   -1.30000
H11C  2    0.986256    0.462698    0.387753    11.00000   -1.30000
AFIX   0
C12   1    0.519305    0.314318    0.665573    11.00000    0.03691    0.03884 =
         0.04002   -0.00107    0.00036    0.00089
C13   1    0.563547    0.168037    0.655669    11.00000    0.03751    0.04610 =
         0.06818    0.00032    0.01024    0.00462
AFIX  43
H13   2    0.624115    0.166853    0.641764    11.00000   -1.30000
AFIX   0
C14   1    0.517846    0.023289    0.666416    11.00000    0.05067    0.03919 =
         0.08409   -0.00432    0.01022    0.00284
AFIX  43
H14   2    0.548217   -0.075002    0.660131    11.00000   -1.30000
AFIX   0
C15   1    0.426777    0.022973    0.686562    11.00000    0.05383    0.04115 =
         0.05494   -0.00264    0.00577   -0.00467
C16   1    0.382997    0.171512    0.696744    11.00000    0.04289    0.04782 =
         0.04462   -0.00445    0.00653   -0.00437
AFIX  43
H16   2    0.322458    0.173171    0.710696    11.00000   -1.30000
AFIX   0
C17   1    0.428701    0.316086    0.686303    11.00000    0.04167    0.04044 =
         0.04062   -0.00139    0.00533    0.00419
AFIX  43
H17   2    0.398944    0.414707    0.693123    11.00000   -1.30000
AFIX   0
C18   1    0.487140    0.564015    0.548108    11.00000    0.03892    0.04871 =
         0.04056    0.00736    0.00047    0.00143
C19   1    0.419646    0.599330    0.457169    11.00000    0.06066    0.14899 =
         0.04561    0.00697   -0.00672    0.03293
AFIX  43
H19   2    0.422451    0.604233    0.414942    11.00000   -1.30000
AFIX   0
C20   1    0.337054    0.626231    0.484716    11.00000    0.05340    0.13318 =
         0.06677    0.00002   -0.01800    0.03463
AFIX  43
H20   2    0.284875    0.651919    0.462067    11.00000   -1.30000
AFIX   0
C21   1    0.332985    0.614252    0.547369    11.00000    0.04415    0.06364 =
         0.06197   -0.00017   -0.00409    0.01230
C22   1    0.246511    0.633892    0.582808    11.00000    0.04195    0.11711 =
         0.09858   -0.00157    0.00819    0.01522
AFIX 137
H22A  2    0.233934    0.747656    0.588401    11.00000   -1.30000
H22B  2    0.253328    0.582501    0.621773    11.00000   -1.30000
H22C  2    0.196369    0.584216    0.561161    11.00000   -1.30000
AFIX   0
H1N1  2    0.891344    1.119038    0.292837    11.00000    0.07106
H2N1  2    0.812221    1.204973    0.316064    11.00000    0.09532
H1N2  2    0.615990    0.479423    0.437350    11.00000    0.03469
H1N6  2    0.620838    0.493613    0.559258    11.00000    0.07344
HKLF 4
REM  290k_smz-f1_a.res in Pna2(1)
REM R1 =  0.0501 for    5613 Fo > 4sig(Fo)  and  0.0753 for all    7762 data
REM    344 parameters refined using      1 restraints
END
WGHT      0.0484      0.4027
REM Instructions for potential hydrogen bonds
EQIV $1 x, y-1, z
HTAB N5 O4_$1
HTAB C8 O3
HTAB C14 O4_$1
HTAB C19 O2
EQIV $2 -x+3/2, y+1/2, z-1/2
HTAB N1 O4_$2
EQIV $3 x, y+1, z
HTAB N1 O1_$3
HTAB N2 N8
HTAB N6 N4
REM Highest difference peak  0.248,  deepest hole -0.260,  1-sigma level  0.043
Q1    1   0.5438  0.3978  0.6614  11.00000  0.05    0.25
Q2    1   0.8087  0.7686  0.3005  11.00000  0.05    0.20
Q3    1   0.6852  0.5956  0.3397  11.00000  0.05    0.20
Q4    1   0.5481  0.1050  0.6817  11.00000  0.05    0.17
Q5    1   0.7537  0.6426  0.3439  11.00000  0.05    0.17
Q6    1   0.6954  0.8946  0.3439  11.00000  0.05    0.16
Q7    1   0.5927  0.1606  0.6600  11.00000  0.05    0.16
Q8    1   0.4747  0.3300  0.6608  11.00000  0.05    0.16
Q9    1   0.7445  0.6991  0.3166  11.00000  0.05    0.16
Q10   1   0.6879  0.3829  0.6414  11.00000  0.05    0.15
Q11   1   0.2316  0.4891  0.5965  11.00000  0.05    0.15
Q12   1   0.7514  0.9744  0.3175  11.00000  0.05    0.15
Q13   1   0.5308  0.1032  0.6514  11.00000  0.05    0.15
Q14   1   0.3068  0.1169  0.6662  11.00000  0.05    0.15
Q15   1   0.4806  0.6172  0.6681  11.00000  0.05    0.15
Q16   1   0.5905  0.5924  0.3439  11.00000  0.05    0.15
Q17   1   1.0159  0.4901  0.4255  11.00000  0.05    0.15
Q18   1   0.7390  0.5084  0.4799  11.00000  0.05    0.15
Q19   1   0.1865  0.6701  0.5723  11.00000  0.05    0.15
Q20   1   0.4300  0.5942  0.6170  11.00000  0.05    0.15
;
_shelx_res_checksum              30499
_shelx_hkl_file
;
   0   0 -29   -0.41    2.28
   0   0 -28   75.52    8.50
   0   0 -27    1.19    2.25
   0   0 -26  229.26   14.22
   0   0 -25    0.61    1.73
   0   0 -24   -1.73    1.32
   0   0 -23    2.11    1.58
   0   0 -22   17.79    3.69
   0   0 -21   -0.60    1.20
   0   0 -20  294.37   14.19
   0   0 -19   -0.29    0.72
   0   0 -18   46.85    5.47
   0   0 -17    0.08    0.89
   0   0 -16  189.13   10.21
   0   0 -15   -0.52    0.96
   0   0 -14   55.27    5.25
   0   0 -13    0.24    1.01
   0   0 -12 2222.08   30.36
   0   0 -11   -0.38    0.52
   0   0 -10  361.64   11.10
   0   0  -9   -0.76    0.36
   0   0  -8 9999.00   52.50
   0   0  -7    0.93    0.56
   0   0  -5    0.13    0.24
   0   0  -4 2798.50   19.65
   0   0  -3    2.64    0.51
   0   0   4 2850.99   14.70
   0   0   5    0.00    0.23
   0   0   7    0.18    0.41
   0   0   9   -0.14    0.43
   0   0  10  353.52    8.28
   0   0  11   -0.25    0.30
   0   0  12 2322.01   23.13
   0   0  13    0.57    0.39
   0   0  14   51.93    3.82
   0   0  15   -0.14    0.33
   0   0  16  186.66    7.79
   0   0  17   -0.32    0.36
   0   0  17    0.62    1.12
   0   0  18   34.93    3.61
   0   0  19    0.02    1.06
   0  -1 -31    4.05    2.62
   0  -1 -30    0.35    2.32
   0  -1 -29    3.69    1.59
   0  -1 -28    2.35    2.71
   0  -1 -27   -1.12    1.96
   0  -1 -26   -0.65    0.99
   0   1 -26   -1.85    2.09
   0  -1 -25    5.41    2.54
   0   1 -25    0.18    1.18
   0   1 -24   -0.36    1.49
   0  -1 -24    0.50    1.73
   0   1 -23    1.63    1.93
   0  -1 -23    2.95    1.61
   0   1 -22    0.89    1.38
   0  -1 -22   -1.23    1.04
   0   1 -21   46.62    5.78
   0  -1 -21   64.44    6.91
   0   1 -20    1.09    0.71
   0  -1 -20    0.52    1.65
   0  -1 -19    3.75    1.72
   0   1 -19    5.31    2.15
   0   1 -18    1.14    1.49
   0  -1 -18   -0.51    0.63
   0  -1 -17   10.59    2.71
   0   1 -17   11.95    2.68
   0   1 -16   -0.24    0.62
   0  -1 -16    0.94    1.23
   0  -1 -15   54.33    5.57
   0   1 -15   47.28    4.96
   0  -1 -14    0.80    0.59
   0   1 -14    0.30    0.94
   0   1 -13   81.98    5.82
   0  -1 -13   88.31    6.46
   0   1 -12    0.16    0.68
   0  -1 -12    1.43    1.42
   0  -1 -11   36.26    3.76
   0   1 -11   34.40    3.55
   0  -1 -10    0.15    0.91
   0   1 -10    0.35    0.63
   0   1  -9 1060.24   10.31
   0  -1  -9 1032.22   18.66
   0   1  -9 1033.65   16.93
   0   1  -8    0.33    0.49
   0  -1  -8    0.22    0.78
   0   1  -8    0.03    0.18
   0   1  -7 1002.99   14.42
   0   1  -7 1014.54    9.60
   0  -1  -6    0.39    0.78
   0   1  -6   -0.17    0.25
   0   1  -6   -0.17    0.12
   0   1  -5 1866.24   16.20
   0  -1  -5 1882.67   19.80
   0  -1  -5 1907.18   18.39
   0   1  -5 1901.37   12.81
   0   1  -4   -0.07    0.20
   0  -1  -4   -0.16    0.28
   0  -1  -4    0.17    0.41
   0   1  -4   -0.14    0.23
   0  -1  -3  828.38   10.80
   0   1  -3  818.29    8.48
   0  -1  -3  833.35   10.87
   0  -1  -2   -0.15    0.19
   0  -1  -2    0.25    0.31
   0   1  -2    0.08    0.15
   0  -1  -1  383.84    5.50
   0  -1  -1  394.52    6.46
   0   1  -1  385.04    6.09
   0   1   0   -0.37    0.36
   0  -1   0   -0.12    0.19
   0   1   1  392.47    6.56
   0  -1   1  383.98    5.42
   0   1   2    0.00    0.15
   0  -1   2    0.24    0.10
   0   1   3  834.66   10.41
   0  -1   5 1885.69   10.98
   0  -1   6    0.11    0.17
   0  -1   7  997.51    9.23
   0  -1   8    0.04    0.16
   0   1   8    0.92    0.74
   0  -1   9 1040.54   11.00
   0   1   9 1043.97   16.28
   0  -1  10   -0.28    0.27
   0   1  10    0.55    0.30
   0   1  11   31.07    3.00
   0  -1  11   37.85    2.35
   0  -1  12    0.48    0.20
   0   1  12    0.21    0.77
   0  -1  13   87.24    4.02
   0   1  13   80.78    5.24
   0   1  14    0.05    0.87
   0  -1  14   -0.15    0.40
   0   1  14   -0.13    0.48
   0  -1  15   45.27    3.17
   0   1  15   44.27    4.06
   0   1  16    0.26    0.63
   0  -1  16    0.56    0.69
   0   1  16   -0.32    0.36
   0   1  17    6.68    1.68
   0  -1  17    9.00    1.55
   0   1  17    7.98    1.70
   0   1  18   -0.29    0.63
   0   1  18   -0.57    0.56
   0   1  19    6.63    1.72
   0   1  20    0.67    1.24
   0   1  21   51.90    5.49
   0  -2 -30   49.65    7.08
   0  -2 -29    0.34    1.02
   0  -2 -28    3.93    1.68
   0  -2 -27   -1.27    2.12
   0  -2 -26   72.94    8.00
   0  -2 -25   -0.40    1.08
   0  -2 -24    4.22    2.33
   0  -2 -23    3.53    2.77
   0  -2 -22   56.48    6.96
   0  -2 -21    2.66    1.35
   0  -2 -20   87.47    7.64
   0  -2 -19    1.70    1.38
   0   2 -19   -0.29    0.96
   0  -2 -18   24.83    4.25
   0   2 -18   26.00    3.83
   0   2 -17    0.84    1.12
   0  -2 -17   -0.20    1.55
   0   2 -16  439.44   14.90
   0  -2 -16  463.66   16.66
   0  -2 -15   -0.83    0.74
   0   2 -15    0.75    1.37
   0  -2 -14  236.44   11.26
   0   2 -14  208.68    5.85
   0   2 -14  232.75   10.15
   0   2 -13    0.30    0.42
   0   2 -13   -0.04    0.60
   0  -2 -13   -0.82    0.96
   0   2 -12  964.49   18.70
   0   2 -12  965.54   12.77
   0   2 -11   -0.15    0.50
   0  -2 -11    0.48    0.97
   0   2 -11    0.34    0.40
   0  -2 -10 1337.39   23.40
   0   2 -10 1348.75   19.80
   0   2 -10 1358.36   15.02
   0  -2  -9   -0.14    0.42
   0   2  -9    0.96    0.56
   0  -2  -8   96.88    5.94
   0   2  -8  103.93    4.28
   0   2  -7    0.39    0.40
   0  -2  -7    0.40    0.67
   0  -2  -7   -0.12    0.51
   0   2  -6  992.01   13.21
   0  -2  -6  972.31   16.57
   0  -2  -6  962.29   16.56
   0  -2  -5   -0.06    0.49
   0   2  -5    0.05    0.20
   0  -2  -5   -0.25    0.38
   0   2  -4 1133.27   14.38
   0  -2  -4 1153.75   16.80
   0  -2  -4 1119.76   15.75
   0  -2  -3   -0.28    0.44
   0   2  -3    0.42    0.55
   0  -2  -3    0.42    0.39
   0  -2  -2  453.77    8.43
   0   2  -2  428.48    9.15
   0  -2  -2  445.43    9.81
   0  -2  -1    0.73    0.56
   0  -2  -1    0.21    0.59
   0   2  -1   -0.12    0.48
   0  -2   1    0.03    0.26
   0  -2   1    0.42    0.31
   0   2   1    0.98    0.52
   0  -2   2  435.73    8.20
   0  -2   2  438.61    5.50
   0   2   2  437.37    9.87
   0  -2   3    0.50    0.43
   0   2   3    0.28    0.46
   0   2   4 1115.12   16.49
   0  -2   4 1154.08   12.37
   0  -2   5   -0.02    0.33
   0   2   5    0.54    0.52
   0  -2   6 1008.07   11.04
   0   2   6  994.40   16.05
   0   2   7    0.53    0.85
   0  -2   7    0.12    0.28
   0   2   8  105.56    5.42
   0  -2   8   97.39    3.34
   0  -2   9   -0.10    0.18
   0   2   9   -0.03    0.35
   0   2  10 1380.82   20.50
   0  -2  10 1361.50   13.01
   0   2  11    0.31    0.45
   0   2  11   -0.06    0.81
   0  -2  11    0.41    0.37
   0  -2  12  917.53   11.13
   0   2  12  968.98   19.77
   0   2  12  973.36   17.98
   0   2  13    0.12    0.78
   0  -2  13    0.11    0.26
   0   2  13   -0.12    0.54
   0  -2  14  219.00    5.70
   0   2  14  220.23    9.90
   0   2  14  227.24    9.20
   0  -2  15    0.10    0.29
   0   2  15    0.06    0.50
   0   2  15    0.43    1.22
   0   2  16  405.70   12.77
   0   2  16  462.98   14.95
   0   2  17   -0.05    0.79
   0   2  17    0.67    0.53
   0   2  18   14.62    3.00
   0   2  18   25.53    3.40
   0   2  19    0.36    0.81
   0   2  19   -0.29    0.70
   0   2  20   78.52    6.81
   0   2  21    0.45    1.36
   0   2  22   47.91    5.43
   0  -3 -30   -0.01    1.40
   0  -3 -29    0.64    1.28
   0  -3 -28    1.92    1.10
   0  -3 -27    3.41    1.57
   0  -3 -26    1.85    1.20
   0  -3 -25    0.54    0.82
   0  -3 -24   -1.23    2.21
   0  -3 -23    3.17    2.06
   0  -3 -22    0.36    1.28
   0  -3 -21   44.12    5.78
   0  -3 -20    0.46    1.86
   0  -3 -19   55.41    6.45
   0  -3 -18    0.71    1.41
   0  -3 -17   31.78    4.47
   0  -3 -16    0.26    1.64
   0  -3 -15   79.34    6.83
   0  -3 -14    1.16    1.20
   0   3 -14   -0.87    0.48
   0   3 -13   68.94    4.21
   0  -3 -13   64.82    5.79
   0  -3 -12   -0.06    0.89
   0   3 -12   -0.09    0.38
   0   3 -11   76.80    4.53
   0  -3 -11   79.31    6.06
   0  -3 -10   -0.55    0.89
   0   3 -10   -0.23    0.60
   0  -3  -9 1678.29   26.54
   0  -3  -9 1621.63   26.50
   0   3  -9 1676.73   21.11
   0   3  -8   -0.62    0.57
   0  -3  -8   -0.34    1.00
   0  -3  -8    0.16    0.91
   0   3  -7    6.21    1.27
   0  -3  -7    6.36    1.62
   0  -3  -7    3.98    1.42
   0   3  -6    1.04    0.47
   0  -3  -6    0.14    0.64
   0  -3  -6   -0.42    0.92
   0  -3  -5  404.19   10.91
   0   3  -5  407.10   10.74
   0  -3  -5  400.09   11.79
   0  -3  -4   -0.01    0.56
   0  -3  -4    0.16    0.54
   0   3  -4    0.27    0.48
   0  -3  -3  488.81   10.79
   0   3  -3  479.68   11.83
   0  -3  -3  471.34   12.24
   0  -3  -2    0.61    0.53
   0  -3  -2   -0.08    0.36
   0   3  -2    0.32    0.62
   0   3  -1 1022.66   17.68
   0  -3  -1 1017.96   13.40
   0   3   0    1.67    1.21
   0  -3   0   -0.07    0.35
   0  -3   0    0.94    0.61
   0  -3   1 1037.64   16.53
   0  -3   1 1030.59   11.34
   0   3   2    0.94    0.46
   0  -3   2    0.59    0.35
   0  -3   2    0.91    0.72
   0  -3   3  494.92   10.86
   0  -3   3  481.43    6.95
   0   3   3  490.45   12.71
   0  -3   4    0.09    0.44
   0   3   4    0.10    0.66
   0  -3   4    0.28    0.29
   0  -3   5  402.73    9.34
   0   3   5  401.34   11.82
   0  -3   6    0.06    0.59
   0   3   6    1.79    1.03
   0  -3   7    4.42    0.90
   0   3   7    6.95    1.60
   0   3   8   -0.49    0.43
   0  -3   8    0.02    0.44
   0  -3   9 1722.75   17.30
   0   3   9 1661.63   25.60
   0  -3  10   -0.44    0.51
   0   3  10    0.05    0.91
   0   3  11   70.93    5.45
   0  -3  11   67.49    3.29
   0   3  12    0.07    0.59
   0  -3  12    0.64    0.38
   0   3  13   75.99    5.78
   0   3  13   84.03    6.53
   0  -3  14    0.35    0.45
   0   3  14    0.27    1.12
   0   3  14   -0.46    0.48
   0   3  15   69.14    5.70
   0   3  15   78.50    6.46
   0   3  16    1.19    1.40
   0   3  16    1.03    1.40
   0   3  17   23.15    3.60
   0   3  17   26.01    3.64
   0   3  18    0.12    0.77
   0   3  18   -1.08    1.02
   0   3  19   53.02    5.94
   0   3  19   46.46    5.22
   0   3  20   -0.03    0.85
   0   3  21   51.62    6.06
   0   3  22   -0.51    0.92
   0   3  23    5.18    2.42
   0  -4 -29   -0.22    1.32
   0  -4 -28    4.96    2.58
   0  -4 -27    2.82    2.37
   0  -4 -26   22.49    4.46
   0  -4 -25    0.37    1.04
   0  -4 -24    1.62    1.86
   0  -4 -23    0.25    0.88
   0  -4 -22  124.81   10.16
   0  -4 -21    0.55    0.98
   0  -4 -20   30.73    5.44
   0  -4 -19   -0.72    0.97
   0  -4 -18   61.11    6.64
   0  -4 -17    0.96    1.19
   0  -4 -16  407.29   16.88
   0  -4 -15   -0.75    0.93
   0   4 -14  120.32    6.79
   0  -4 -14  137.75    9.09
   0   4 -13   -0.38    0.45
   0  -4 -13    2.75    1.15
   0  -4 -12  389.40   14.57
   0   4 -12  409.69   12.12
   0   4 -11    1.22    1.26
   0  -4 -11    0.14    0.58
   0  -4 -10 1139.63   23.95
   0   4 -10 1133.56   20.60
   0  -4  -9   -0.36    0.71
   0   4  -9   -0.17    1.23
   0  -4  -9   -0.09    1.38
   0  -4  -8  326.93   12.50
   0  -4  -8  303.52   11.58
   0   4  -8  319.50   10.87
   0  -4  -7    1.05    1.17
   0   4  -7    1.29    0.71
   0  -4  -7   -0.06    0.51
   0  -4  -6  530.47   15.52
   0   4  -6  530.83   14.32
   0  -4  -6  536.01   14.09
   0  -4  -5    0.75    1.17
   0   4  -5    0.19    1.16
   0  -4  -5    0.08    0.62
   0   4  -4 1241.18   21.91
   0  -4  -4 1250.76   19.94
   0  -4  -4 1278.08   23.14
   0   4  -3    0.98    0.92
   0  -4  -3    0.75    0.99
   0  -4  -3    0.87    0.93
   0  -4  -2  319.22   11.17
   0   4  -2  318.22   11.27
   0  -4  -1    0.26    0.26
   0   4  -1    0.75    0.88
   0  -4  -1    0.47    0.77
   0   4   0  139.82    7.59
   0  -4   0  153.42    5.51
   0  -4   0  136.40    7.15
   0  -4   1    0.71    0.64
   0   4   1   -1.00    1.08
   0  -4   1    0.34    0.46
   0   4   2  299.81   11.17
   0  -4   2  299.43    6.75
   0  -4   2  306.24   10.34
   0   4   3    0.32    0.71
   0  -4   3   -0.33    0.48
   0  -4   4 1279.10   20.39
   0  -4   4 1226.23   12.68
   0   4   4 1250.62   23.30
   0  -4   5    0.07    0.37
   0   4   5    0.56    0.96
   0  -4   5    0.79    0.82
   0  -4   6  533.84    8.64
   0   4   6  515.99   15.30
   0  -4   7    0.06    0.40
   0   4   7    0.07    0.95
   0   4   8  309.27   12.06
   0  -4   8  302.54    9.36
   0  -4   9    0.30    0.61
   0   4   9   -0.52    0.97
   0   4  10 1173.36   24.04
   0  -4  10 1104.70   17.19
   0   4  11    1.22    1.21
   0  -4  11   -0.32    0.55
   0   4  12  376.14   14.12
   0  -4  12  394.15    9.55
   0   4  13    0.43    1.03
   0  -4  13   -0.09    0.28
   0   4  14  123.03    8.73
   0   4  14  119.42    8.14
   0   4  15   -0.66    1.27
   0   4  15    0.01    1.19
   0   4  16  416.70   15.68
   0   4  16  409.13   16.46
   0   4  17   -0.20    0.79
   0   4  17    1.01    1.71
   0   4  18   73.67    7.13
   0   4  18   69.10    6.49
   0   4  19   -0.19    2.04
   0   4  19    0.04    1.37
   0   4  20   33.68    4.79
   0   4  20   14.60    3.86
   0   4  21   -0.16    1.02
   0   4  22  117.55    9.64
   0   4  23    1.19    2.29
   0   4  24    6.87    2.62
   0  -5 -28   -0.92    1.50
   0  -5 -27    1.97    1.92
   0  -5 -26    1.48    2.90
   0  -5 -25    1.08    1.33
   0  -5 -24   -0.65    1.52
   0  -5 -23   12.11    3.68
   0  -5 -22    1.32    1.63
   0  -5 -21    3.68    2.14
   0  -5 -20   -0.01    1.50
   0  -5 -19    1.42    1.55
   0  -5 -18   -0.21    1.07
   0  -5 -17    5.52    2.23
   0  -5 -16   -0.66    1.35
   0  -5 -15    2.49    2.32
   0  -5 -14   -0.11    0.98
   0  -5 -13   20.27    3.85
   0   5 -13   14.00    2.53
   0  -5 -12   -1.07    0.99
   0   5 -12    1.45    0.78
   0   5 -11    8.65    2.27
   0  -5 -11    6.27    2.01
   0  -5 -10    2.02    1.16
   0  -5 -10   -0.64    0.79
   0   5 -10   -0.16    0.78
   0  -5  -9    6.31    1.76
   0   5  -9    3.10    1.20
   0  -5  -9    4.69    2.00
   0  -5  -8   -0.62    1.07
   0  -5  -8    1.58    1.55
   0   5  -8    0.02    0.87
   0  -5  -7   70.40    6.23
   0   5  -7   68.80    5.76
   0  -5  -7   67.61    5.58
   0   5  -6   -0.04    0.63
   0  -5  -6    0.26    0.56
   0  -5  -6    1.24    1.06
   0   5  -5  132.74    7.99
   0  -5  -5  132.66    7.24
   0  -5  -4    0.82    0.61
   0   5  -4    0.92    1.57
   0  -5  -4   -0.28    0.77
   0  -5  -3  105.59    6.00
   0   5  -3  114.19    7.45
   0  -5  -3  127.95    7.83
   0  -5  -2    0.41    0.97
   0   5  -2    0.76    0.72
   0  -5  -2    0.36    0.79
   0  -5  -1   32.50    4.07
   0  -5  -1   30.78    3.00
   0   5  -1   31.43    3.99
   0   5   0    0.26    0.98
   0  -5   0    0.30    0.57
   0  -5   0   -0.17    0.65
   0  -5   1   31.42    2.61
   0   5   1   31.73    4.06
   0  -5   1   26.69    3.36
   0   5   2    0.23    1.30
   0  -5   2    0.71    0.60
   0  -5   2    0.89    0.85
   0  -5   3  114.14    4.49
   0  -5   3  127.35    7.26
   0   5   3  130.07    8.40
   0  -5   4   -0.22    0.46
   0   5   4    0.72    1.24
   0  -5   4    0.63    0.53
   0  -5   5  131.55    7.27
   0   5   5  121.29    8.15
   0   5   6   -0.42    0.48
   0  -5   6   -0.02    0.19
   0  -5   7   56.82    3.04
   0   5   7   62.36    5.77
   0   5   8   -0.53    0.86
   0  -5   8   -0.33    0.38
   0  -5   8    0.12    0.68
   0   5   9    4.83    1.67
   0  -5   9    2.35    1.23
   0  -5   9    5.08    0.92
   0   5  10   -0.91    1.41
   0  -5  10    0.11    0.42
   0   5  11    6.85    1.96
   0  -5  11    5.52    1.66
   0  -5  12    0.67    0.70
   0   5  12   -0.07    1.09
   0   5  13   17.61    3.31
   0   5  14   -0.38    1.54
   0   5  15   -0.39    0.94
   0   5  15    4.43    2.33
   0   5  16   -1.09    1.39
   0   5  16    0.14    1.07
   0   5  17    2.07    0.76
   0   5  17    2.27    1.16
   0   5  18    0.62    0.99
   0   5  18   -1.67    0.90
   0   5  19    3.80    2.08
   0   5  19    6.78    2.87
   0   5  20   -0.75    0.97
   0   5  20   -1.68    2.33
   0   5  21    1.10    1.26
   0   5  21    2.81    2.07
   0   5  22    1.40    1.93
   0   5  23   12.58    3.46
   0   5  24    1.92    1.61
   0   5  25    2.09    2.84
   0  -6 -26   36.74    6.32
   0  -6 -25   -0.37    1.02
   0  -6 -24   11.64    3.35
   0  -6 -23    0.50    1.01
   0  -6 -22   75.48    7.91
   0  -6 -21    3.82    2.04
   0  -6 -20   45.67    6.61
   0  -6 -19    0.96    2.13
   0  -6 -18    0.80    0.96
   0  -6 -17    0.09    1.45
   0  -6 -16   97.81    8.60
   0  -6 -15   -0.89    1.95
   0  -6 -14   11.15    2.76
   0  -6 -13    0.87    1.84
   0   6 -13   -1.05    1.38
   0   6 -12  124.93    8.57
   0  -6 -12  140.59    9.51
   0   6 -11   -0.82    1.01
   0  -6 -11   -1.59    1.48
   0  -6 -10  209.26   11.11
   0   6 -10  184.82   10.38
   0  -6  -9   -2.60    1.36
   0  -6  -9   -0.65    1.79
   0   6  -9   -0.71    0.87
   0   6  -8   22.11    3.84
   0  -6  -8   16.38    3.15
   0  -6  -8   20.66    3.74
   0   6  -7    2.29    2.02
   0  -6  -7   -0.26    1.38
   0  -6  -7    2.21    2.08
   0  -6  -6 1093.80   23.39
   0  -6  -6 1135.22   26.29
   0   6  -6 1067.22   24.96
   0  -6  -5   -1.15    0.93
   0  -6  -5   -0.92    0.75
   0  -6  -4  486.19   16.87
   0  -6  -4  467.50   14.06
   0   6  -4  448.13   16.16
   0  -6  -3   -0.92    1.06
   0  -6  -3    1.44    1.64
   0   6  -3    3.07    1.74
   0   6  -2  791.84   21.55
   0  -6  -2  756.48   16.73
   0  -6  -2  815.22   21.37
   0  -6  -1    0.62    1.35
   0   6  -1    0.88    1.29
   0  -6  -1    1.25    1.96
   0   6   0  632.96   19.47
   0  -6   0  616.30   14.12
   0  -6   0  636.76   18.42
   0  -6   1    2.96    1.85
   0   6   1    1.71    1.37
   0  -6   1    1.12    0.63
   0   6   2  805.74   22.25
   0  -6   2  800.79   20.45
   0  -6   2  769.31   13.71
   0  -6   3    0.10    1.53
   0  -6   3    0.11    0.55
   0   6   4  475.75   17.19
   0  -6   4  482.68   15.66
   0   6   5    1.65    2.10
   0  -6   5    0.54    0.60
   0  -6   5   -0.32    0.63
   0   6   6 1078.56   26.67
   0  -6   6 1121.43   23.65
   0  -6   7   -0.64    0.92
   0   6   7   -1.17    1.54
   0   6   8   19.94    3.77
   0  -6   8   19.86    3.07
   0  -6   9    0.50    1.12
   0   6   9   -0.44    1.01
   0  -6  10  182.17    9.14
   0   6  10  180.97   11.19
   0   6  11    0.48    1.45
   0  -6  11    0.04    0.67
   0   6  12  127.84    9.68
   0   6  13   -0.75    1.00
   0   6  14    7.05    2.86
   0   6  15   -0.24    1.79
   0   6  15   -0.75    1.04
   0   6  16   93.72    8.52
   0   6  16   98.35    8.83
   0   6  17   -1.37    1.84
   0   6  17    1.16    1.91
   0   6  18    0.50    1.40
   0   6  18   -1.51    1.84
   0   6  19   -0.18    1.64
   0   6  19   -0.52    1.21
   0   6  20   42.65    5.93
   0   6  20   35.02    5.53
   0   6  21    1.86    1.94
   0   6  21    0.42    1.19
   0   6  22   56.93    7.24
   0   6  23   -1.03    1.32
   0   6  24    9.49    3.05
   0   6  25   -0.74    1.81
   0   6  26   23.76    4.94
   0  -7 -25    4.61    1.70
   0  -7 -24   -2.18    2.58
   0  -7 -23    0.15    1.63
   0  -7 -22    0.12    1.48
   0  -7 -21    6.27    2.73
   0  -7 -20   -3.64    2.70
   0  -7 -19   14.37    3.63
   0  -7 -18   -0.59    1.23
   0  -7 -17    0.64    1.43
   0  -7 -16   -0.85    1.67
   0  -7 -15    7.76    2.31
   0  -7 -14    1.40    1.46
   0  -7 -13   19.68    3.90
   0  -7 -12   -1.86    1.61
   0   7 -12   -0.91    0.95
   0   7 -11    8.93    2.82
   0  -7 -11   10.19    2.81
   0   7 -10    0.58    0.93
   0  -7 -10    0.35    1.29
   0   7  -9   63.28    6.57
   0  -7  -9   52.98    5.56
   0  -7  -9   74.21    7.38
   0  -7  -8    0.73    0.71
   0  -7  -8    2.12    1.66
   0   7  -8   -0.18    1.46
   0  -7  -7  354.51   14.67
   0   7  -7  381.90   16.29
   0  -7  -7  381.09   16.26
   0  -7  -6    1.86    1.63
   0  -7  -6    0.85    1.21
   0   7  -6    1.81    1.81
   0   7  -5  253.61   13.07
   0  -7  -5  249.91   11.74
   0  -7  -5  256.68   13.03
   0  -7  -4   -1.52    1.79
   0  -7  -4   -0.39    1.13
   0   7  -4    0.78    1.54
   0  -7  -3   27.74    3.62
   0   7  -3   37.32    5.04
   0  -7  -3   30.75    4.52
   0  -7  -2   -0.14    0.72
   0   7  -2    1.37    1.21
   0  -7  -2    1.03    0.83
   0   7  -1  737.05   22.82
   0  -7  -1  745.64   17.28
   0  -7  -1  748.59   22.07
   0   7   0    2.92    2.80
   0  -7   0    4.58    2.74
   0  -7   0    2.94    1.83
   0  -7   1  744.86   21.64
   0   7   1  781.70   23.22
   0   7   2    0.12    2.09
   0  -7   2   -1.40    0.99
   0   7   3   24.37    4.41
   0  -7   3   30.92    4.59
   0   7   4    1.45    1.89
   0  -7   4    2.03    1.66
   0  -7   5  246.55   12.04
   0   7   5  289.00   14.52
   0  -7   6    0.78    1.59
   0   7   6    0.30    0.99
   0  -7   7  382.65   14.97
   0   7   7  383.68   16.73
   0  -7   8   -0.88    1.15
   0   7   8   -0.59    1.81
   0  -7   9   63.27    6.07
   0   7   9   69.01    7.14
   0  -7  10   -0.73    1.11
   0   7  10    1.12    1.80
   0   7  11    8.59    2.80
   0   7  12    0.44    1.51
   0   7  13   26.16    4.79
   0   7  14   -0.26    1.04
   0   7  15   15.45    3.55
   0   7  15    7.85    3.20
   0   7  16   -0.45    1.23
   0   7  16   -0.50    1.25
   0   7  17    0.18    1.87
   0   7  17    0.35    1.30
   0   7  18   -1.29    1.92
   0   7  18    0.11    1.23
   0   7  19   10.50    2.64
   0   7  19    6.75    2.29
   0   7  20   -0.48    2.04
   0   7  20    0.56    1.45
   0   7  21    6.13    2.40
   0   7  21    5.07    2.88
   0   7  22   -0.81    1.67
   0   7  23    4.79    1.83
   0   7  24    0.72    1.29
   0   7  25    2.34    1.79
   0  -8 -22    4.34    2.70
   0  -8 -21    1.57    1.94
   0  -8 -20    7.96    3.11
   0  -8 -19   -2.25    1.29
   0  -8 -18    0.46    1.86
   0  -8 -17    0.43    2.27
   0  -8 -16   19.98    4.77
   0  -8 -15   -0.74    2.10
   0  -8 -14    5.36    2.20
   0  -8 -13    2.34    2.55
   0  -8 -12    8.92    3.00
   0   8 -12   10.78    4.08
   0   8 -11   -1.49    1.33
   0  -8 -11   -0.13    1.73
   0   8 -10   23.91    4.70
   0  -8 -10   32.02    4.91
   0   8  -9   -0.75    1.20
   0  -8  -9    0.77    1.61
   0  -8  -8    0.89    1.63
   0   8  -8    0.39    1.16
   0  -8  -7    1.55    1.27
   0  -8  -7    1.94    1.57
   0   8  -7    0.89    1.37
   0  -8  -6   74.60    7.65
   0  -8  -6   63.03    6.19
   0   8  -6   64.66    7.32
   0   8  -5   -0.15    1.08
   0  -8  -5    0.48    1.08
   0  -8  -5   -1.43    1.78
   0   8  -4   27.41    4.62
   0  -8  -4   30.93    4.25
   0  -8  -4   30.84    4.62
   0  -8  -3    1.30    0.78
   0   8  -3    0.55    1.00
   0  -8  -2   36.22    5.14
   0   8  -2   30.45    4.80
   0  -8  -1    0.50    1.39
   0   8  -1    0.30    1.37
   0  -8   0   67.42    7.02
   0   8   0   62.00    6.86
   0  -8   1    1.88    1.92
   0   8   1    1.85    2.49
   0   8   2   24.83    4.77
   0  -8   2   32.98    5.01
   0   8   3   -0.76    1.11
   0  -8   3   -0.26    1.35
   0  -8   4   28.29    4.72
   0   8   4   25.23    4.63
   0   8   5    0.73    1.19
   0  -8   5   -0.05    1.31
   0   8   6   48.13    6.01
   0  -8   6   67.38    6.82
   0  -8   7   -1.56    1.22
   0   8   7    0.07    2.43
   0  -8   8   -2.10    1.94
   0   8   8    0.29    0.97
   0  -8   9   -0.42    1.42
   0   8   9    1.33    1.40
   0   8  10   25.09    4.74
   0   8  11    3.27    2.07
   0   8  12    3.85    1.69
   0   8  13    3.14    2.16
   0   8  14    4.79    2.31
   0   8  14    4.05    2.55
   0   8  15    1.20    1.41
   0   8  15   -0.39    1.76
   0   8  16   18.33    4.12
   0   8  16   16.22    3.87
   0   8  17   -0.01    1.62
   0   8  17   -2.13    2.03
   0   8  18    1.03    1.48
   0   8  18   -0.08    1.65
   0   8  19    2.14    2.86
   0   8  19    1.96    1.68
   0   8  20   14.07    4.14
   0   8  20   10.05    2.93
   0   8  21   -1.92    2.41
   0   8  21   -2.19    1.47
   0   8  22   10.45    3.41
   0  -9 -20   -2.17    1.82
   0  -9 -19    5.34    2.16
   0  -9 -18   -1.21    2.69
   0  -9 -17    6.24    2.53
   0  -9 -16   -0.68    1.46
   0  -9 -15    1.32    1.42
   0  -9 -14    0.75    2.35
   0  -9 -13    4.90    2.69
   0  -9 -12    0.27    1.47
   0  -9 -11   11.82    3.92
   0   9 -11    7.14    2.50
   0  -9 -10    0.60    1.05
   0   9 -10    3.54    2.71
   0   9  -9    8.88    3.02
   0   9  -8   -1.10    2.06
   0   9  -7    0.58    1.05
   0   9  -6    0.97    1.19
   0   9  -5    2.63    2.23
   0  -9  -5   -2.05    1.88
   0  -9  -4   -0.32    1.60
   0   9  -4    3.01    2.20
   0   9  -3   18.38    4.40
   0  -9  -3   13.47    3.40
   0   9  -2    1.84    2.25
   0  -9  -2    0.62    1.66
   0   9  -1    1.08    1.47
   0  -9  -1   -0.42    1.46
   0  -9   0   -0.06    1.60
   0   9   0    2.94    1.95
   0   9   1    4.71    2.62
   0  -9   1    1.09    1.28
   0   9   2   -0.62    1.63
   0  -9   2    1.59    1.41
   0  -9   3   12.79    3.40
   0   9   3   18.18    4.34
   0   9   4    4.42    2.27
   0  -9   4    1.20    1.70
   0   9   5   -0.83    1.69
   0  -9   5    1.19    1.32
   0   9   6    0.97    2.19
   0  -9   6   -0.83    1.48
   0  -9   7    6.23    1.99
   0   9   7    7.59    1.60
   0   9   8   -0.79    1.45
   0  -9   8    0.72    1.41
   0   9   9    8.45    2.77
   0   9  10   -1.99    2.14
   0   9  11    7.92    2.68
   0   9  12   -2.84    1.90
   0   9  13    4.81    2.95
   0   9  13    0.88    1.36
   0   9  14    2.30    2.57
   0   9  14    0.80    1.99
   0   9  15    1.74    1.33
   0   9  15    1.56    1.93
   0   9  16   -1.32    1.67
   0   9  16   -3.20    1.34
   0   9  17    4.71    2.35
   0   9  17   11.50    3.94
   0   9  18   -0.25    2.32
   0   9  18    2.08    2.00
   0   9  19   -0.48    1.99
   0   9  19    0.47    1.51
   0   9  20    3.26    3.41
   0   9  20    1.78    2.17
   0  10 -10   11.88    2.87
   0  10  -9   -0.85    2.21
   0  10  -8    0.22    1.09
   0  10  -7   -0.86    2.30
   0  10  -6   27.70    5.40
   0  10  -5    2.43    2.26
   0  10  -4   20.62    4.63
   0  10  -3    1.64    1.87
   0  10  -2   18.34    4.47
   0  10  -1   -0.05    1.54
   0 -10   0   59.34    7.43
   0  10   0   60.25    7.32
   0 -10   1   -1.47    1.60
   0  10   1    0.53    1.03
   0  10   2   11.26    3.47
   0 -10   2   13.17    3.98
   0  10   3   -1.57    1.97
   0 -10   3    0.36    2.43
   0  10   4   30.01    5.54
   0 -10   4   20.32    4.23
   0 -10   5    0.50    2.12
   0  10   5   -0.83    1.77
   0 -10   6   41.36    6.45
   0  10   6   35.19    5.85
   0  10   7    2.29    1.69
   0  10   8   -0.47    1.13
   0  10   9    1.74    1.39
   0  10  10   11.22    3.10
   0  10  11    0.03    1.03
   0  10  11   -3.74    1.96
   0  10  12   12.37    3.85
   0  10  12   10.81    3.69
   0  10  13   -2.19    1.40
   0  10  13    3.61    3.17
   0  10  14    4.91    3.14
   0  10  14    3.90    2.48
   0  10  15   -3.07    2.63
   0  10  15    1.68    1.34
   0  10  16    6.33    3.11
   0  10  16    3.96    2.72
   0  11  -9    3.05    2.48
   0  11  -8    0.48    1.56
   0  11  -7    4.43    2.72
   0  11  -6   -1.97    2.66
   0  11  -5   -1.83    1.71
   0  11  -4    1.52    0.85
   0  11  -3    4.63    2.10
   0  11  -2    1.50    1.90
   0  11  -1   -0.44    1.00
   0  11   0    0.42    1.66
   0  11   1    0.34    1.77
   0  11   2   -1.10    2.68
   0  11   3    2.96    2.22
   0  11   4    0.53    1.16
   0  11   5    2.14    1.35
   0  11   6   -4.56    2.48
   0  11   7    1.21    1.23
   0  11   8    2.21    1.69
   0  11   8   -2.94    3.01
   0  11   9    0.42    1.76
   0  11   9    2.94    2.44
   0  11  10   -1.94    1.78
   0  11  10   -1.80    2.16
   1   0 -31   -0.17    1.32
   1   0 -30    2.49    2.20
   1   0 -29   -0.16    2.30
   1   0 -28    0.15    1.18
   1   0 -27    1.40    0.91
  -1   0 -26    1.20    0.87
   1   0 -26   -1.20    1.06
  -1   0 -25    2.28    2.06
   1   0 -25   -1.07    1.07
  -1   0 -24   -0.48    1.20
   1   0 -24   -0.55    1.97
   1   0 -23   -0.82    1.53
  -1   0 -23   -0.04    1.49
   1   0 -22   -0.39    1.51
  -1   0 -22    0.62    1.07
  -1   0 -21    1.46    1.17
   1   0 -21    0.34    0.77
  -1   0 -20   -0.60    0.69
   1   0 -20    1.87    1.45
   1   0 -19   -1.02    1.37
  -1   0 -19    1.20    2.14
  -1   0 -18    0.81    1.65
   1   0 -18    1.43    1.41
  -1   0 -17   -0.73    1.21
   1   0 -17    0.39    0.66
  -1   0 -16   -0.33    0.52
   1   0 -16    0.53    1.39
  -1   0 -15   -0.40    0.85
   1   0 -15   -0.85    0.78
   1   0 -14    0.07    0.88
  -1   0 -14    1.29    0.82
   1   0 -13    0.45    0.50
  -1   0 -13   -0.20    0.77
  -1   0 -12    0.09    0.84
   1   0 -12    0.54    0.94
  -1   0 -11    1.08    1.39
   1   0 -11    0.26    0.58
   1   0 -10    0.79    0.46
  -1   0 -10    1.13    1.03
   1   0  -9   -0.49    0.50
  -1   0  -9    0.16    0.59
  -1   0  -8   -0.29    0.33
   1   0  -8   -0.02    0.50
  -1   0  -7   -0.02    0.62
   1   0  -7    0.11    0.40
   1   0  -6    0.06    0.23
  -1   0  -6   -0.27    0.36
   1   0  -5    0.11    0.12
   1   0  -5    0.03    0.32
  -1   0  -5   -0.25    0.52
   1   0  -4    0.53    0.33
  -1   0  -4    0.43    0.38
   1   0  -4   -0.04    0.12
   1   0  -3   -0.11    0.23
  -1   0  -3    0.00    0.36
   1   0  -3   -0.13    0.16
   1   0  -2    0.01    0.13
   1   0  -2   -0.09    0.23
   1   0  -1    0.12    0.18
   1   0  -1    0.06    0.13
   1   0   1    0.06    0.13
   1   0   2    0.18    0.11
   1   0   3    0.00    0.15
   1   0   4    0.36    0.35
   1   0   5   -0.19    0.36
   1   0   6    0.20    0.21
   1   0   7    0.30    0.47
   1   0   8    0.54    0.60
   1   0   8   -0.12    0.12
  -1   0   8   -0.06    0.25
   1   0   9    0.03    0.44
  -1   0   9    0.14    0.20
   1   0   9   -0.02    0.13
  -1   0  10    0.66    0.51
   1   0  10   -0.21    0.14
   1   0  10    0.20    0.37
  -1   0  11    0.79    0.48
   1   0  11    0.51    0.77
   1   0  11    0.12    0.23
  -1   0  12    0.38    0.57
   1   0  12    0.41    0.29
   1   0  12    0.09    0.43
   1   0  13    0.67    0.52
  -1   0  13    0.22    0.42
   1   0  13    0.14    0.32
   1   0  14    0.08    0.53
   1   0  14   -0.07    0.16
  -1   0  14   -0.01    0.29
   1   0  15    0.77    1.01
  -1   0  15    0.00    0.43
   1   0  15    0.11    0.30
   1   0  16    0.19    0.54
  -1   0  16    1.18    0.87
   1   0  16    0.16    0.29
  -1   0  17    0.49    0.42
   1   0  17   -0.04    0.41
   1   0  18   -0.11    0.61
  -1   0  18   -0.33    0.64
   1   0  19    0.23    1.18
   1   0  20   -0.23    0.74
   1  -1 -31    6.34    2.97
   1  -1 -30   11.95    3.53
   1  -1 -29   25.73    5.23
  -1  -1 -29   21.33    4.64
  -1  -1 -28    4.99    2.50
   1   1 -28    4.75    1.36
   1   1 -27    2.26    2.86
   1  -1 -27    4.24    2.34
  -1  -1 -27    3.21    2.86
   1  -1 -26   58.08    7.23
   1   1 -26   50.06    6.84
  -1  -1 -26   50.30    6.79
   1   1 -25   38.28    5.67
  -1  -1 -25   39.58    5.89
   1  -1 -25   26.71    4.71
   1   1 -24    0.94    1.73
   1  -1 -24    1.87    1.61
  -1  -1 -24    1.34    1.43
  -1  -1 -23   24.07    4.08
   1  -1 -23   25.00    4.50
   1   1 -23   30.11    4.61
   1  -1 -22   24.30    4.45
   1   1 -22   29.03    4.90
  -1  -1 -22   19.21    4.12
  -1   1 -22   23.72    4.33
  -1  -1 -21    6.84    2.55
   1  -1 -21    6.65    1.64
  -1   1 -21    7.24    2.69
   1   1 -21    5.91    2.15
  -1  -1 -20   64.53    6.70
   1  -1 -20   60.48    6.54
   1   1 -20   67.51    6.44
  -1   1 -20   67.45    6.73
  -1  -1 -19   84.33    7.55
   1   1 -19   77.29    6.96
  -1   1 -19   81.86    7.36
   1  -1 -19   85.81    7.47
   1   1 -18   18.06    3.47
   1  -1 -18   16.67    3.43
  -1  -1 -18   15.52    3.17
  -1   1 -18   22.71    3.69
  -1   1 -17   83.58    7.02
   1   1 -17   79.80    6.66
  -1  -1 -17   92.66    7.58
   1  -1 -17   85.90    7.14
  -1  -1 -16  154.27    9.45
  -1   1 -16  139.74    8.63
   1  -1 -16  142.41    9.07
   1   1 -16  142.10    8.50
   1   1 -15    7.97    2.11
   1  -1 -15    7.67    2.15
  -1   1 -15   11.61    2.70
  -1  -1 -15    6.31    2.09
   1   1 -14   81.74    5.97
  -1  -1 -14   83.33    6.71
   1  -1 -14   76.02    6.23
  -1   1 -14   76.72    6.03
  -1   1 -13  337.82   12.28
   1   1 -13  344.33   11.88
  -1  -1 -13  347.11   12.96
   1  -1 -13  356.96   12.91
  -1   1 -12  730.55   17.23
  -1  -1 -12  717.29   17.86
   1   1 -12  772.97   17.10
   1  -1 -12  737.88   17.92
  -1  -1 -11  273.43   10.61
  -1   1 -11  256.91    9.76
   1  -1 -11  257.83   10.36
   1   1 -11  282.94    9.94
   1  -1 -10  511.87   13.93
   1   1 -10  497.54   12.36
  -1   1 -10  512.74   13.08
   1   1 -10  524.08    9.40
  -1  -1 -10  496.01   13.89
   1  -1  -9  569.63   12.04
   1  -1  -9  577.39   13.92
   1   1  -9  571.31    9.63
  -1  -1  -9  596.77   14.46
  -1   1  -9  563.23   12.95
   1   1  -9  581.50   12.54
   1  -1  -8  324.66    8.70
   1   1  -8  323.42    7.15
  -1   1  -8  325.99    9.24
   1   1  -8  323.76    8.83
   1  -1  -8  339.57   10.18
  -1  -1  -8  347.84   10.40
   1  -1  -7  508.75   11.93
   1  -1  -7  506.68   10.42
   1   1  -7  496.16    8.51
  -1  -1  -7  521.01   12.17
   1  -1  -6 1053.97   16.34
   1  -1  -6 1048.33   14.26
  -1  -1  -6 1065.65   16.33
   1   1  -6 1075.12   13.16
   1   1  -6 1054.98   12.04
  -1  -1  -5  558.41   11.01
   1  -1  -5  544.41   11.02
   1   1  -5  541.18    8.29
   1  -1  -5  559.49   10.01
   1   1  -5  544.41    8.48
   1  -1  -4 1897.93   18.90
   1   1  -4 1864.58   13.33
  -1  -1  -4 1843.53   18.35
  -1   1  -4 1904.73   11.35
   1   1  -4 1842.21   15.32
   1  -1  -4 1838.17   17.56
   1  -1  -3 1391.24   14.84
   1  -1  -3 1415.80   14.34
   1   1  -3 1412.85   13.10
  -1   1  -3 1417.02   10.51
   1   1  -3 1431.69    9.18
  -1  -1  -3 1400.28   14.43
   1   1  -2   55.86    2.58
  -1  -1  -2   57.47    2.55
   1  -1  -2   58.45    2.80
   1   1  -2   58.63    1.88
   1  -1  -2   55.99    2.77
  -1  -1  -1 2118.25   12.98
   1  -1  -1 2113.12   15.52
   1   1  -1 2101.08   13.01
   1   1  -1 2097.19   15.89
   1  -1  -1 2117.47   16.40
   1   1   1 2138.88   15.94
   1   1   1 2178.40   16.20
   1   1   2   57.94    2.68
   1  -1   2   59.34    2.56
   1   1   2   56.45    2.81
   1   1   3 1434.65   15.15
   1   1   3 1461.55   13.86
   1   1   4 1825.40   15.79
   1  -1   4 1839.77   14.53
   1   1   4 1845.12   17.92
   1  -1   5  547.14    8.23
   1   1   5  539.98    8.76
   1   1   5  558.59   10.41
   1  -1   6 1062.76   11.70
   1   1   6 1071.48   15.11
   1   1   6 1066.58   12.58
   1   1   7  525.46   11.04
   1   1   7  528.96    9.14
   1  -1   7  542.79    8.76
   1   1   8  322.58    9.15
   1  -1   8  317.14    7.17
   1   1   9  569.68   12.40
   1  -1   9  559.97    9.73
   1   1   9  562.46   10.13
  -1  -1  10  513.08    6.42
   1  -1  10  514.39    9.92
   1   1  10  531.03    9.98
   1   1  10  512.54   12.23
   1  -1  11  258.13    7.32
  -1  -1  11  263.58    5.07
   1   1  11  257.41    7.20
  -1   1  11  279.04    8.96
   1   1  11  256.02    9.01
   1  -1  12  720.53   12.79
   1   1  12  742.14   15.83
  -1   1  12  723.02   14.94
  -1  -1  12  708.04    9.05
   1   1  12  743.28   12.49
   1  -1  13  345.14    9.25
  -1   1  13  343.79   10.59
   1   1  13  368.38    9.03
  -1  -1  13  348.08    6.82
   1   1  13  364.72   11.37
   1   1  14   73.48    4.11
  -1   1  14   78.30    5.14
   1  -1  14   85.82    4.78
   1   1  14   87.74    5.80
  -1  -1  14   72.94    3.29
  -1  -1  15    7.01    1.04
   1   1  15    8.00    1.84
   1   1  15    5.47    1.33
   1  -1  15    7.19    1.46
  -1   1  15    7.56    1.84
   1   1  16  138.50    5.93
  -1   1  16  135.91    7.19
   1  -1  16  130.00    6.30
   1   1  16  147.23    7.95
  -1  -1  16  127.52    4.99
   1  -1  17   73.05    4.97
  -1   1  17   77.13    5.71
   1   1  17   80.19    6.07
   1   1  17   74.54    4.49
   1  -1  18   12.06    2.18
   1   1  18   14.73    2.75
  -1   1  18   19.18    2.91
   1   1  19   77.27    6.30
  -1   1  19   73.53    5.82
   1   1  20   70.18    6.28
  -1   1  20   55.47    5.22
   1   1  21    5.70    2.24
  -1  -2 -30    2.57    1.84
   1  -2 -30    0.18    1.72
  -1  -2 -29    4.44    3.45
   1  -2 -29    4.61    2.71
   1  -2 -28    5.25    1.95
  -1  -2 -28    1.39    1.21
   1  -2 -27    3.41    2.21
  -1  -2 -27    3.95    2.59
  -1  -2 -26    2.92    1.27
   1  -2 -26    3.70    1.55
   1  -2 -25    4.44    2.36
  -1  -2 -25    9.14    3.19
  -1  -2 -24    5.71    2.64
   1  -2 -24    1.95    1.16
   1   2 -24    6.72    2.55
  -1  -2 -23    2.69    2.38
   1   2 -23    7.90    2.80
   1  -2 -23    4.07    2.13
   1  -2 -22    4.26    2.27
  -1  -2 -22    3.13    0.95
   1   2 -22    2.00    1.53
   1   2 -21    5.15    2.19
   1  -2 -21    7.22    2.49
  -1  -2 -21    7.20    2.38
  -1  -2 -20   30.53    4.84
   1   2 -20   25.02    4.29
   1  -2 -20   39.61    5.40
   1   2 -19   13.57    2.99
   1  -2 -19   11.72    3.23
  -1  -2 -19   10.16    2.69
   1   2 -18    9.13    2.49
  -1  -2 -18    8.02    2.29
   1  -2 -18   10.22    2.64
   1   2 -17   13.30    2.77
  -1  -2 -17   13.74    2.92
   1   2 -16   13.36    2.69
   1  -2 -16   10.17    2.65
  -1  -2 -16   14.73    3.07
  -1  -2 -15   13.90    2.73
   1  -2 -15   15.87    3.18
   1   2 -15   12.29    2.28
   1   2 -15   14.31    1.91
   1   2 -14   57.40    4.91
   1   2 -14   51.55    3.46
   1  -2 -14   60.17    5.78
  -1  -2 -14   62.74    5.81
  -1  -2 -13    5.29    1.72
   1   2 -13    3.96    1.06
   1   2 -13    4.23    1.10
  -1   2 -13    3.84    0.59
   1  -2 -13    7.24    1.96
  -1   2 -12    1.62    0.54
   1   2 -12    2.76    0.83
   1   2 -12    2.47    0.62
   1  -2 -12    3.90    1.55
  -1  -2 -12    2.64    1.17
   1   2 -11    0.41    0.44
  -1  -2 -11    1.58    1.36
   1   2 -11    0.65    0.33
  -1   2 -11    0.71    0.19
  -1   2 -10   35.75    2.16
   1   2 -10   36.41    3.14
  -1  -2 -10   30.54    3.68
   1  -2 -10   33.46    3.72
   1  -2 -10   32.75    3.32
   1   2 -10   33.08    2.65
  -1   2  -9  122.18    4.07
   1   2  -9  123.22    5.34
   1   2  -9  124.95    5.21
   1  -2  -9  114.33    6.69
   1  -2  -9  127.79    6.47
  -1  -2  -9  132.00    7.07
  -1   2  -8   80.39    3.41
   1  -2  -8   84.03    5.44
   1   2  -8   75.02    4.11
   1  -2  -8   77.96    4.92
  -1  -2  -8   72.31    5.01
   1   2  -8   72.56    3.80
   1   2  -7  100.14    4.05
   1  -2  -7  114.54    5.86
  -1   2  -7  110.16    4.11
   1   2  -7  105.96    4.72
   1  -2  -7  108.54    5.90
  -1  -2  -7  122.93    6.23
   1  -2  -6  108.77    5.60
   1  -2  -6  104.59    5.50
   1   2  -6  107.67    3.69
  -1  -2  -6  114.80    5.67
   1   2  -6  101.26    4.64
  -1   2  -6  101.51    4.06
   1  -2  -5   16.76    2.25
  -1  -2  -5   20.20    2.27
   1   2  -5   17.96    1.94
  -1   2  -5   19.00    1.77
   1  -2  -5   17.22    2.12
  -1   2  -4  104.97    4.27
  -1  -2  -4  107.45    4.84
   1   2  -4  114.07    4.82
   1  -2  -4  117.94    5.53
   1  -2  -4  111.71    5.20
  -1  -2  -3  882.50   12.81
   1   2  -3  887.86   13.52
   1  -2  -3  860.16   13.51
   1  -2  -3  886.57   14.67
  -1   2  -3  882.27   12.62
   1   2  -2 2743.20   23.99
   1  -2  -2 2766.55   22.44
  -1  -2  -2 2807.36   20.24
   1  -2  -2 2798.83   24.89
  -1  -2  -2 2721.89   24.45
  -1   2  -2 2737.93   23.08
  -1   2  -1 2657.53   23.05
  -1  -2  -1 2644.58   17.30
  -1  -2  -1 2691.87   23.24
   1  -2  -1 2716.92   20.85
   1  -2  -1 2719.69   23.98
   1   2  -1 2593.06   23.67
  -1   2   0 4760.49   31.96
   1   2   0 4743.45   32.19
   1  -2   0 4871.64   26.15
   1  -2   0 4773.19   30.99
  -1  -2   0 4794.50   19.60
  -1  -2   0 4754.48   29.57
  -1  -2   1 2675.77   21.01
   1  -2   1 2692.85   18.73
   1   2   1 2679.55   24.39
   1  -2   1 2614.78   22.99
  -1  -2   2 2758.82   20.21
   1  -2   2 2751.03   19.05
   1   2   3  891.86   14.49
  -1  -2   3  872.64   10.70
   1  -2   4  110.31    4.43
  -1  -2   4  114.64    3.58
   1   2   4  111.36    5.18
  -1  -2   5   20.98    1.40
   1   2   5   23.84    2.41
   1  -2   5   20.59    1.90
   1   2   6  107.23    5.18
   1  -2   6  115.43    4.53
   1   2   6  111.52    5.75
  -1  -2   6  111.85    3.04
   1   2   7  101.96    5.16
   1  -2   7  109.84    4.40
   1   2   7  107.47    5.86
   1  -2   8   86.83    3.96
   1   2   8   72.88    4.41
   1   2   8   80.71    5.20
   1  -2   9  121.60    4.72
   1   2   9  114.94    6.39
   1   2   9  113.12    5.66
   1  -2  10   32.49    2.52
   1   2  10   33.34    3.55
   1   2  10   32.39    3.09
   1  -2  11    0.31    0.24
   1   2  11    0.84    0.51
   1   2  11    1.17    1.02
   1   2  12    2.74    1.36
   1  -2  12    2.48    0.70
   1   2  12    1.99    0.92
   1   2  13    6.86    1.73
   1  -2  13    4.15    1.02
   1   2  13    5.20    1.40
  -1   2  14   50.75    4.68
   1   2  14   62.33    5.29
   1  -2  14   47.99    3.46
   1   2  14   58.51    4.40
   1   2  15   15.91    2.85
  -1   2  15   16.69    2.85
   1   2  15   14.24    2.33
   1  -2  15   16.27    1.94
   1   2  16   11.62    2.00
  -1   2  16   14.01    2.61
   1   2  16   11.63    2.45
   1  -2  16   13.35    1.88
   1   2  17   12.34    2.65
  -1   2  17   15.66    2.65
  -1   2  17   15.19    2.78
   1  -2  17   13.94    1.88
   1   2  17   15.57    2.57
  -1   2  18    6.83    1.82
   1   2  18    6.38    1.95
  -1   2  18    7.88    1.92
   1   2  18    6.49    1.65
  -1   2  19    8.38    1.84
   1   2  19   15.83    2.83
  -1   2  19   13.44    2.72
  -1   2  20   27.54    4.10
   1   2  20   34.91    4.57
  -1   2  21    1.87    1.05
   1   2  21    8.00    2.67
   1   2  22    8.58    2.55
   1   2  23    7.55    2.68
  -1  -3 -30    8.26    3.58
   1  -3 -30   12.73    3.92
  -1  -3 -29    9.54    3.47
   1  -3 -29    2.01    2.68
  -1  -3 -28    1.90    1.94
   1  -3 -28    2.06    2.25
  -1  -3 -27    5.00    2.48
   1  -3 -27    3.36    3.12
   1  -3 -26   26.42    4.86
  -1  -3 -26   32.63    5.42
   1  -3 -25   12.67    3.61
  -1  -3 -25   20.51    4.46
  -1  -3 -24    9.71    3.17
   1  -3 -24   13.82    3.21
   1  -3 -23   47.20    6.18
  -1  -3 -23   33.46    5.47
   1  -3 -22   56.74    6.75
  -1  -3 -22   60.44    6.97
  -1  -3 -21   10.63    3.17
   1  -3 -21   14.46    3.38
   1  -3 -20   68.64    7.02
  -1  -3 -20   69.94    7.22
  -1  -3 -19   71.66    7.12
   1  -3 -19   75.70    7.70
  -1  -3 -18   35.53    4.96
   1  -3 -18   28.62    4.69
  -1  -3 -17  117.04    8.89
   1  -3 -17  122.78    9.01
  -1  -3 -16  382.52   15.56
   1  -3 -16  393.74   15.64
  -1  -3 -15   52.66    5.91
   1  -3 -15   39.14    5.08
   1   3 -14  327.43    9.94
  -1  -3 -14  378.94   14.85
   1  -3 -14  366.82   14.62
  -1  -3 -13  479.27   16.12
   1   3 -13  467.34   11.99
  -1   3 -13  456.80    9.93
  -1   3 -12  166.02    6.10
   1  -3 -12  180.63    9.65
   1   3 -12  178.05    7.44
   1  -3 -12  172.35    9.17
  -1  -3 -12  195.41   10.05
   1  -3 -11  157.83    8.73
  -1   3 -11  168.63    6.22
  -1  -3 -11  157.95    8.71
   1  -3 -11  176.38    8.97
  -1   3 -10  785.50   13.70
   1   3 -10  779.55   15.41
   1  -3 -10  786.18   18.54
  -1  -3 -10  813.01   18.97
   1  -3 -10  803.64   19.01
  -1  -3  -9  181.49    8.67
   1   3  -9  166.85    7.08
   1  -3  -9  175.88    8.61
   1  -3  -9  173.26    8.59
  -1   3  -9  181.37    6.67
  -1  -3  -8  132.33    7.08
  -1   3  -8  129.58    5.73
   1  -3  -8  130.98    7.22
   1   3  -8  137.07    6.42
   1  -3  -8  121.47    6.93
  -1   3  -7  343.67    9.60
   1   3  -7  343.45   10.18
   1  -3  -7  334.85   11.46
   1  -3  -7  351.75   11.43
  -1  -3  -7  325.32   10.74
  -1  -3  -6   35.14    3.37
   1   3  -6   39.25    3.44
   1  -3  -6   45.74    4.21
   1  -3  -6   44.84    3.95
  -1   3  -6   39.62    3.30
  -1  -3  -5  195.72    8.40
   1   3  -5  200.48    7.73
   1  -3  -5  185.09    7.71
  -1   3  -5  207.42    7.62
  -1  -3  -5  197.34    7.54
   1  -3  -5  186.72    8.28
  -1   3  -4  585.57   12.87
  -1  -3  -4  618.84   12.66
  -1  -3  -4  617.27   14.35
   1   3  -4  587.60   13.34
   1  -3  -4  620.06   14.70
   1  -3  -4  602.05   13.10
   1  -3  -3  136.15    5.97
  -1  -3  -3  126.36    6.33
  -1  -3  -3  135.93    5.54
  -1   3  -3  132.43    6.13
   1  -3  -3  136.74    6.65
   1   3  -3  136.44    6.51
   1  -3  -2  132.26    6.48
   1   3  -2  131.73    6.40
  -1   3  -2  146.51    6.51
  -1  -3  -2  137.84    6.52
  -1  -3  -2  141.26    5.28
   1  -3  -2  137.01    5.66
  -1  -3  -1  542.43    9.43
   1   3  -1  560.29   13.17
   1  -3  -1  540.72   10.74
  -1  -3  -1  526.29   12.38
   1  -3  -1  582.07   13.24
  -1   3  -1  558.75   12.91
  -1  -3   0 1237.64   12.45
   1   3   0 1261.66   19.86
  -1   3   0 1247.31   19.77
   1  -3   0 1257.22   19.04
   1  -3   0 1218.01   15.43
  -1  -3   0 1233.53   18.27
   1  -3   1  552.11   12.28
  -1  -3   1  559.91   11.89
  -1   3   1  546.96   13.32
  -1  -3   1  572.11    7.09
   1   3   1  575.49   13.53
   1  -3   1  557.16    9.85
   1  -3   2  145.40    6.29
   1   3   2  138.35    6.68
  -1  -3   2  137.80    5.71
   1  -3   2  134.42    4.76
  -1   3   2  146.67    6.90
   1  -3   3  125.62    5.78
  -1   3   3  132.70    6.68
   1  -3   3  130.19    4.65
   1   3   3  129.85    6.58
  -1  -3   3  133.86    5.44
  -1  -3   4  613.45   11.21
  -1   3   4  591.13   14.45
   1  -3   4  583.22   12.19
   1   3   4  594.62   14.28
   1  -3   4  570.55    9.82
  -1  -3   5  206.76    6.30
  -1   3   5  219.44    8.81
   1   3   5  212.81    8.57
   1  -3   5  205.35    7.12
   1   3   6   39.94    3.84
  -1   3   6   47.56    4.10
  -1  -3   6   40.05    2.61
   1  -3   6   41.48    3.17
  -1   3   7  343.75   11.33
   1   3   7  337.65   11.04
  -1  -3   7  343.66    7.53
   1  -3   7  334.17    8.97
  -1   3   8  128.87    7.18
   1  -3   8  139.40    5.68
   1   3   8  123.55    6.74
  -1  -3   8  123.16    4.26
  -1  -3   9  177.87    4.81
  -1   3   9  182.07    8.59
   1   3   9  168.20    7.90
   1  -3   9  181.43    6.41
   1   3   9  185.38    9.01
  -1   3  10  765.17   17.87
   1   3  10  779.29   18.89
   1   3  10  771.58   17.34
  -1  -3  10  747.59    9.26
   1  -3  10  814.30   13.57
   1   3  11  151.81    7.81
   1  -3  11  155.57    6.03
   1   3  11  167.79    8.96
  -1   3  11  170.95    8.68
  -1  -3  11  144.39    3.62
   1   3  12  165.76    8.28
   1   3  12  181.95    9.62
  -1   3  12  176.07    8.86
   1  -3  12  199.85    6.77
   1   3  13  448.28   15.38
   1   3  13  436.64   13.92
  -1   3  13  503.18   15.25
   1  -3  13  498.53   10.70
   1  -3  14  315.66    8.88
  -1   3  14  342.90   12.92
   1   3  14  327.69   12.11
  -1   3  15   45.75    4.87
   1   3  15   40.92    4.29
   1   3  15   42.69    5.03
  -1   3  15   34.56    4.58
   1   3  16  360.96   13.50
   1   3  16  357.86   14.35
  -1   3  16  388.01   14.36
  -1   3  16  361.27   14.53
   1   3  17  123.72    8.02
  -1   3  17  132.25    8.56
   1   3  17  116.32    8.48
  -1   3  17  123.35    8.60
  -1   3  18   37.53    4.60
   1   3  18   26.18    4.02
  -1   3  18   24.75    4.01
   1   3  18   31.01    4.15
   1   3  19   79.46    6.43
   1   3  19   68.04    6.82
  -1   3  19   74.21    6.89
  -1   3  19   75.79    6.74
  -1   3  20   78.77    7.18
  -1   3  20   87.18    7.21
   1   3  20   85.23    7.68
   1   3  21   11.56    3.00
  -1   3  21   16.19    3.11
  -1   3  22   58.95    6.94
   1   3  22   63.77    6.76
   1   3  23   39.34    5.98
  -1   3  23   32.94    5.01
   1   3  24    5.50    2.17
  -1  -4 -29    3.72    2.40
   1  -4 -29    1.28    1.88
  -1  -4 -28    0.74    1.69
   1  -4 -28   -0.79    1.39
   1  -4 -27    3.37    3.17
  -1  -4 -27    0.99    1.70
   1  -4 -26    0.64    1.81
  -1  -4 -26    6.00    2.50
   1  -4 -25    1.37    0.90
  -1  -4 -25    2.58    1.61
   1  -4 -24    4.04    3.05
  -1  -4 -24    0.39    0.91
   1  -4 -23   18.32    3.97
  -1  -4 -23   13.17    3.57
  -1  -4 -22   14.97    3.49
   1  -4 -22   17.93    3.65
   1  -4 -21   23.89    4.49
  -1  -4 -21   27.13    5.00
   1  -4 -20    0.38    1.53
  -1  -4 -20    0.73    1.37
   1  -4 -19    5.76    2.39
  -1  -4 -19    6.45    1.93
   1  -4 -18   15.30    3.67
  -1  -4 -18   12.65    3.18
  -1  -4 -17   20.48    3.93
   1  -4 -17   18.39    3.59
  -1  -4 -16   11.35    3.41
   1  -4 -16   10.96    3.08
   1  -4 -15   28.72    4.35
  -1  -4 -15   28.32    4.09
  -1  -4 -14    3.50    1.97
   1  -4 -14    2.40    1.90
   1   4 -14    4.00    1.71
   1   4 -13    6.10    1.70
  -1  -4 -13    6.04    2.15
  -1   4 -13    7.10    1.62
   1  -4 -13    8.34    2.34
  -1   4 -12   93.39    5.77
   1  -4 -12   96.39    7.38
   1  -4 -12   78.54    6.60
  -1  -4 -12   87.92    6.87
  -1  -4 -11   36.66    4.39
   1  -4 -11   28.02    4.14
  -1   4 -11   30.98    3.31
   1  -4 -11   34.30    4.26
   1   4 -11   29.18    3.39
  -1  -4 -10  144.85    8.40
  -1   4 -10  128.57    6.74
   1  -4 -10  139.86    8.54
   1  -4 -10  119.87    7.79
   1   4 -10  135.24    7.34
   1  -4  -9  229.42   10.71
   1  -4  -9  234.21   10.58
   1   4  -9  246.47    9.87
  -1   4  -9  227.23    9.02
  -1  -4  -9  246.45   10.67
   1   4  -8  108.70    6.51
  -1  -4  -8  112.89    7.09
  -1   4  -8   99.90    6.11
   1  -4  -8  115.07    7.17
   1  -4  -8  107.78    7.29
  -1  -4  -7   12.14    2.37
   1   4  -7   13.38    2.35
   1  -4  -7    8.81    2.22
  -1   4  -7   12.82    2.35
   1  -4  -7   12.08    2.57
   1  -4  -6   68.47    5.51
  -1  -4  -6   65.17    5.47
   1   4  -6   57.66    4.75
  -1   4  -6   67.90    5.02
  -1  -4  -6   60.12    4.75
   1  -4  -6   61.27    4.84
   1  -4  -5   76.04    5.78
   1   4  -5   75.62    5.43
  -1  -4  -5   77.28    5.13
   1  -4  -5   86.33    5.61
  -1   4  -5   75.90    5.38
  -1  -4  -5   70.40    5.57
   1  -4  -4   45.84    4.02
   1  -4  -4   45.41    4.53
  -1   4  -4   50.54    4.41
   1   4  -4   51.72    4.57
  -1  -4  -4   48.41    4.55
  -1  -4  -4   51.73    3.99
   1  -4  -3   44.51    3.68
  -1  -4  -3   44.56    3.50
  -1  -4  -3   40.57    4.14
  -1   4  -3   40.05    4.00
   1  -4  -3   42.90    4.19
   1   4  -3   42.69    4.09
   1   4  -2  159.77    8.04
  -1  -4  -2  153.63    7.73
  -1   4  -2  154.58    7.71
   1  -4  -2  168.85    8.33
   1  -4  -2  157.91    6.75
  -1  -4  -2  162.13    6.19
  -1  -4  -1  339.11    8.34
  -1  -4  -1  303.67   10.62
   1  -4  -1  336.38    9.37
  -1   4  -1  320.85   11.40
   1   4  -1  328.15   11.66
   1  -4  -1  346.89   11.73
   1  -4   0  902.96   14.79
  -1  -4   0  900.91   12.35
   1   4   0  884.65   19.00
  -1   4   0  844.50   18.58
  -1  -4   0  886.66   17.86
   1  -4   0  886.61   18.41
   1  -4   1  318.11    8.39
  -1  -4   1  341.53   10.79
   1  -4   1  309.63   10.79
  -1  -4   1  330.26    6.66
  -1   4   1  295.23   11.15
   1   4   1  319.80   11.63
  -1   4   2  146.76    7.95
  -1  -4   2  162.23    4.01
   1  -4   2  154.41    7.41
  -1  -4   2  149.60    7.06
   1  -4   2  154.30    5.67
   1   4   2  157.78    8.19
  -1  -4   3   38.92    1.63
  -1   4   3   46.02    4.58
  -1  -4   3   40.98    3.65
   1   4   3   43.83    4.55
   1  -4   3   37.30    3.59
   1  -4   3   40.62    2.92
  -1  -4   4   51.76    3.95
   1   4   4   56.87    4.91
   1  -4   4   59.07    4.45
   1  -4   4   52.81    3.14
  -1   4   4   56.43    5.14
  -1  -4   5   76.24    4.69
   1  -4   5   80.54    3.97
   1   4   5   90.97    6.31
  -1   4   5   79.90    5.93
   1  -4   5   81.53    5.20
   1   4   6   63.50    5.38
  -1   4   6   61.35    5.23
   1  -4   6   64.89    3.69
  -1  -4   6   68.98    4.31
   1  -4   6   62.00    4.49
  -1   4   7   12.35    2.44
  -1  -4   7   12.37    1.89
   1   4   7   14.21    2.66
   1  -4   7   11.92    2.00
  -1  -4   7    9.32    0.91
  -1  -4   8  106.59    5.04
   1  -4   8  108.48    5.72
  -1   4   8  106.30    7.26
   1   4   9  221.11   10.36
  -1   4   9  222.42   10.65
  -1  -4   9  247.86    7.57
   1  -4   9  252.62    8.75
   1   4  10  137.32    8.12
  -1  -4  10  127.06    5.19
   1  -4  10  127.09    6.21
  -1   4  10  142.68    8.66
   1   4  11   32.80    4.02
   1   4  11   31.39    4.05
  -1   4  11   23.28    3.57
  -1  -4  11   26.05    2.19
   1  -4  11   25.99    2.92
   1   4  12   81.66    6.61
  -1   4  12   87.24    6.94
   1   4  12   90.94    7.22
   1  -4  12   99.87    5.41
  -1  -4  12   93.76    4.00
   1   4  13    5.33    2.30
  -1   4  13    4.43    1.73
   1  -4  13    5.11    1.12
   1   4  13    4.22    1.63
   1   4  14    2.96    1.21
  -1   4  14    2.21    1.56
   1   4  14    2.11    1.55
   1  -4  14    3.97    1.13
  -1   4  15   28.41    4.28
   1   4  15   28.70    3.96
   1   4  15   25.28    4.07
  -1   4  16    8.29    2.63
  -1   4  16   10.74    3.05
   1   4  16    9.67    2.70
   1   4  16    7.54    2.14
   1   4  17   18.67    3.40
  -1   4  17   14.15    3.09
   1   4  17   18.84    3.42
  -1   4  17   14.67    2.93
  -1   4  18   18.10    3.46
  -1   4  18   11.94    2.85
   1   4  18   10.30    2.42
   1   4  18    8.57    2.61
   1   4  19    1.83    1.57
  -1   4  19    5.31    2.51
  -1   4  19    6.48    2.72
   1   4  19    2.75    1.74
  -1   4  20    2.11    1.01
   1   4  20   -0.42    1.40
   1   4  20    1.97    1.27
  -1   4  20    1.50    1.69
   1   4  21   19.40    3.61
  -1   4  21   17.29    3.70
  -1   4  21   25.01    4.33
   1   4  22   15.95    3.58
  -1   4  22    9.77    2.37
  -1   4  23   19.23    4.33
   1   4  23   15.93    3.66
   1   4  24    2.96    2.05
  -1   4  24    2.80    1.92
   1   4  25    1.96    1.97
  -1  -5 -28    0.33    1.49
   1  -5 -28    0.41    1.38
  -1  -5 -27    1.94    2.49
   1  -5 -27    2.09    2.24
   1  -5 -26   12.39    2.98
  -1  -5 -26   10.11    3.53
  -1  -5 -25    5.54    2.57
   1  -5 -25    7.37    3.46
   1  -5 -24    2.27    1.83
  -1  -5 -24    1.60    1.79
   1  -5 -23   12.74    3.76
  -1  -5 -23   21.07    4.72
  -1  -5 -22   29.57    5.19
   1  -5 -22   32.84    5.23
   1  -5 -21    2.79    2.08
  -1  -5 -21   13.17    3.93
   1  -5 -20    5.77    2.38
  -1  -5 -20   14.31    3.21
  -1  -5 -19   33.50    4.87
   1  -5 -19   28.98    4.89
  -1  -5 -18   14.14    2.92
   1  -5 -18   11.62    3.76
   1  -5 -17   23.32    4.12
  -1  -5 -17   14.85    3.59
  -1  -5 -16  142.24    9.98
   1  -5 -16  132.44    9.54
   1  -5 -15   33.79    4.73
  -1  -5 -15   38.67    5.08
   1  -5 -14   38.44    5.27
   1   5 -14   44.05    4.79
  -1  -5 -14   44.65    5.26
   1  -5 -13  132.37    9.33
   1   5 -13  124.63    7.96
  -1   5 -13  117.95    7.33
  -1  -5 -13  117.97    8.57
   1  -5 -13  128.50    9.32
   1   5 -12   80.15    6.36
  -1  -5 -12   91.51    7.30
   1  -5 -12   78.33    6.98
  -1   5 -12   78.77    6.08
   1  -5 -12   80.69    7.22
  -1   5 -11   10.57    2.23
   1   5 -11   12.54    2.64
  -1  -5 -11   12.59    3.07
   1  -5 -11   13.11    2.89
   1  -5 -10  266.17   12.52
   1   5 -10  256.21   11.25
  -1   5 -10  232.11   10.57
   1  -5 -10  230.10   11.28
  -1  -5 -10  225.19   11.10
  -1   5  -9  132.56    7.94
   1  -5  -9  131.72    8.33
   1   5  -9  139.36    8.26
   1  -5  -9  133.58    8.84
  -1  -5  -9  137.25    8.47
  -1  -5  -8   27.27    3.81
   1  -5  -8   27.69    3.87
  -1   5  -8   26.53    3.56
   1  -5  -8   22.71    3.69
   1   5  -8   21.71    3.27
  -1  -5  -7  153.34    8.31
   1  -5  -7  144.92    8.91
  -1   5  -7  139.17    8.16
   1   5  -7  141.36    8.22
   1  -5  -7  130.06    7.81
  -1   5  -6  124.51    7.76
  -1  -5  -6  116.36    6.91
   1  -5  -6  120.71    7.30
   1  -5  -6  121.91    8.13
   1   5  -6  106.11    7.22
  -1  -5  -6  108.60    7.59
  -1  -5  -5   54.49    5.49
  -1  -5  -5   47.37    4.29
   1  -5  -5   51.72    5.22
  -1   5  -5   46.94    4.78
   1  -5  -5   49.57    4.68
   1   5  -5   49.86    4.98
  -1   5  -4  202.88    9.99
   1  -5  -4  219.48   10.65
   1   5  -4  194.25    9.80
   1  -5  -4  199.33    8.89
  -1  -5  -4  186.16    9.64
  -1  -5  -4  203.01    8.51
  -1   5  -3  249.95   11.06
   1  -5  -3  246.48   11.18
  -1  -5  -3  274.92    9.40
  -1  -5  -3  255.95   11.12
   1   5  -3  239.82   11.02
   1  -5  -3  253.57    9.77
  -1   5  -2   37.12    4.35
   1  -5  -2   30.01    3.85
  -1  -5  -2   33.21    3.97
   1  -5  -2   32.42    3.31
  -1  -5  -2   33.47    3.14
   1   5  -2   33.05    4.16
   1  -5  -1   20.23    3.17
   1   5  -1   21.01    3.33
  -1   5  -1   15.48    2.73
   1  -5  -1   24.68    2.83
  -1  -5  -1   14.67    1.94
  -1  -5  -1   16.86    2.89
   1   5   0  178.88    9.58
  -1  -5   0  160.52    5.93
   1  -5   0  160.10    8.84
   1  -5   0  168.38    7.04
  -1   5   0  149.73    8.61
  -1  -5   0  165.27    8.58
  -1  -5   1   15.22    1.72
   1   5   1   16.78    2.74
   1  -5   1   22.62    3.21
  -1  -5   1   15.03    2.64
  -1   5   1   14.50    2.77
   1  -5   1   15.82    2.02
   1  -5   2   39.31    4.12
   1  -5   2   38.85    3.11
   1   5   2   33.29    4.29
  -1  -5   2   32.61    2.29
  -1   5   2   32.79    4.08
  -1  -5   2   35.61    3.81
   1   5   3  230.16   10.99
  -1  -5   3  231.55    5.12
   1  -5   3  242.94   10.37
  -1   5   3  212.52   10.39
   1  -5   3  238.29    7.62
   1  -5   4  196.10    9.38
  -1  -5   4  185.64    8.65
   1   5   4  216.03   10.78
   1  -5   4  206.08    6.90
  -1   5   4  195.97   10.17
  -1   5   5   55.26    5.53
   1  -5   5   48.66    3.28
   1  -5   5   54.58    4.85
  -1  -5   5   48.88    4.28
   1   5   5   53.44    5.47
  -1   5   6  108.89    7.78
   1  -5   6  111.49    5.06
  -1  -5   6  111.68    6.42
   1  -5   6  112.17    6.84
   1   5   6  117.46    7.95
   1  -5   7  127.96    5.54
  -1   5   7  137.65    8.86
   1   5   7  132.97    8.64
  -1  -5   7  136.95    7.01
   1  -5   7  131.54    7.45
   1  -5   8   27.17    3.29
   1  -5   8   25.20    2.56
   1   5   8   20.74    3.43
  -1   5   8   26.54    3.95
  -1  -5   8   27.23    3.04
   1  -5   9  135.81    7.39
  -1   5   9  151.30    9.25
  -1  -5   9  127.52    6.54
   1   5   9  139.18    8.98
   1  -5   9  133.13    6.10
   1   5  10  242.67   11.98
  -1  -5  10  259.77    9.13
   1  -5  10  244.49    9.71
   1   5  11   14.03    2.89
  -1   5  11   16.90    3.09
   1  -5  11   14.14    2.20
  -1  -5  11   11.68    1.83
   1   5  12   83.76    7.42
   1   5  12   81.11    7.17
  -1   5  12   85.27    7.41
  -1  -5  12   79.55    4.77
   1  -5  12   82.19    5.48
   1  -5  13  102.79    6.20
  -1   5  13  122.50    9.03
   1   5  13  110.92    8.53
   1   5  13  112.49    8.55
  -1   5  14   50.11    5.69
   1   5  14   45.54    5.31
   1   5  14   44.99    5.29
   1   5  15   28.27    4.37
  -1   5  15   31.62    4.71
   1   5  15   23.10    4.48
   1   5  16  128.12    9.43
   1   5  16  119.40    9.25
  -1   5  16  111.19    8.75
   1   5  17   18.15    3.60
   1   5  17   15.79    3.26
  -1   5  17   17.89    3.53
  -1   5  17   18.03    4.02
  -1   5  18    8.79    2.52
   1   5  18    8.57    2.77
  -1   5  18    6.74    2.54
   1   5  18    5.56    1.89
   1   5  19   32.17    5.17
  -1   5  19   33.32    4.98
   1   5  19   34.81    5.27
  -1   5  19   33.72    5.14
  -1   5  20   14.63    3.82
  -1   5  20   17.86    4.01
   1   5  20   14.80    3.97
   1   5  20   12.95    3.27
  -1   5  21    8.07    2.34
   1   5  21    4.50    1.90
  -1   5  21    1.83    1.88
   1   5  22   36.69    5.57
  -1   5  22   28.07    5.19
  -1   5  23   24.90    5.15
   1   5  23   12.69    3.41
   1   5  24    1.64    2.55
  -1   5  24    0.50    1.29
   1   5  25    7.28    3.11
  -1   5  25   11.22    3.27
   1   5  26   12.12    3.68
   1  -6 -26    0.77    2.09
  -1  -6 -26    2.37    2.09
   1  -6 -25   -0.90    1.55
  -1  -6 -25    5.18    2.60
  -1  -6 -24    1.54    1.01
   1  -6 -24    1.27    1.80
   1  -6 -23    2.25    2.50
  -1  -6 -23    3.22    1.84
  -1  -6 -22    2.60    1.14
   1  -6 -22    9.92    3.13
  -1  -6 -21    1.63    1.55
   1  -6 -21    7.45    3.54
   1  -6 -20   -0.15    1.69
  -1  -6 -20    4.22    1.71
   1  -6 -19    3.36    2.54
  -1  -6 -19    0.25    1.06
  -1  -6 -18    1.62    1.80
   1  -6 -18   -0.71    1.64
   1  -6 -17    3.12    1.73
  -1  -6 -17    3.77    2.15
  -1  -6 -16    4.70    1.94
   1  -6 -16    2.75    1.89
   1  -6 -15    3.64    2.04
  -1  -6 -15    4.44    2.12
   1  -6 -14    3.54    1.10
  -1  -6 -14    5.43    1.69
   1   6 -13    8.07    2.59
  -1  -6 -13   14.32    3.11
   1  -6 -13   11.59    2.95
   1   6 -12   11.04    2.66
  -1  -6 -12   13.36    3.48
  -1   6 -12   11.80    2.84
   1  -6 -12   13.13    2.92
   1  -6 -12   18.77    3.55
  -1   6 -11    3.71    0.90
  -1  -6 -11    4.86    2.08
   1   6 -11    4.40    2.29
   1  -6 -11    5.39    2.12
   1  -6 -11    3.32    0.94
   1   6 -10    6.72    1.85
  -1  -6 -10    7.79    2.63
   1  -6 -10    6.11    2.00
   1  -6 -10    6.73    2.49
  -1   6 -10    6.10    2.06
   1  -6  -9    7.54    2.48
   1   6  -9    7.70    1.54
   1  -6  -9    4.23    1.67
  -1  -6  -9    7.73    2.17
  -1   6  -9    7.73    1.98
   1  -6  -8    4.55    1.88
  -1  -6  -8    1.82    1.08
   1  -6  -8    0.01    1.65
   1   6  -8    1.09    1.10
  -1   6  -8    1.81    1.22
   1   6  -7   35.72    4.51
   1  -6  -7   34.15    4.49
  -1  -6  -7   37.63    4.69
  -1   6  -7   36.81    4.67
   1  -6  -7   32.34    4.62
  -1  -6  -6   44.48    4.72
   1  -6  -6   44.59    5.27
   1   6  -6   46.60    5.29
  -1   6  -6   48.17    5.50
   1  -6  -6   39.24    4.57
  -1  -6  -6   47.30    5.10
  -1   6  -5   85.71    7.08
  -1  -6  -5   91.30    7.32
   1  -6  -5  101.57    7.81
  -1  -6  -5   87.87    6.27
   1  -6  -5   87.90    6.54
   1   6  -5   85.58    7.04
   1  -6  -4   69.50    6.41
   1  -6  -4   58.86    5.37
  -1   6  -4   65.58    6.15
  -1  -6  -4   68.82    6.26
   1   6  -4   69.49    6.55
  -1  -6  -4   70.53    5.40
   1  -6  -3   49.27    5.48
  -1  -6  -3   37.75    3.80
  -1   6  -3   47.42    5.42
  -1  -6  -3   49.82    5.34
   1   6  -3   41.74    4.82
   1  -6  -3   42.85    4.43
   1  -6  -2   44.93    5.27
   1  -6  -2   43.00    4.23
  -1  -6  -2   43.94    5.02
   1   6  -2   38.27    5.07
  -1  -6  -2   47.25    4.00
  -1   6  -2   52.43    5.70
   1  -6  -1   18.48    2.62
  -1  -6  -1   17.41    3.11
   1   6  -1   27.20    4.07
   1  -6  -1   21.36    3.83
  -1   6  -1   27.15    4.27
  -1  -6  -1   20.61    2.55
  -1  -6   0   28.67    3.98
   1  -6   0   31.82    4.14
  -1   6   0   33.10    4.46
   1  -6   0   35.45    3.62
   1   6   0   32.53    4.48
  -1  -6   0   23.03    2.55
  -1   6   1   12.47    2.69
   1  -6   1   26.49    3.74
  -1  -6   1   17.32    2.02
   1  -6   1   20.92    2.64
  -1  -6   1   21.99    3.27
   1   6   1   18.15    3.32
   1   6   2   45.77    5.28
  -1  -6   2   46.27    3.01
  -1   6   2   47.64    5.60
   1  -6   2   49.22    5.16
   1  -6   2   54.90    4.11
  -1  -6   2   49.32    5.00
   1  -6   3   43.44    3.62
   1  -6   3   39.11    4.61
   1   6   3   50.72    5.58
  -1  -6   3   32.83    2.24
  -1  -6   3   40.53    4.57
  -1   6   3   40.55    5.08
   1  -6   4   67.53    5.94
  -1   6   4   62.44    6.23
   1  -6   4   71.29    4.35
  -1  -6   4   64.48    5.64
   1   6   4   68.92    6.42
  -1  -6   5   90.35    6.61
   1  -6   5   73.67    4.47
  -1   6   5   82.92    7.00
   1   6   5   91.83    7.90
   1  -6   5   79.87    6.51
   1  -6   6   44.12    4.93
  -1   6   6   37.14    4.77
  -1  -6   6   39.02    4.22
   1  -6   6   36.16    2.95
   1   6   6   46.58    5.48
  -1  -6   7   38.86    4.24
   1  -6   7   35.88    4.31
   1   6   7   41.06    5.16
   1  -6   7   35.59    3.02
  -1   6   7   40.39    5.10
  -1  -6   8    0.34    0.49
   1  -6   8    0.47    0.54
   1   6   8    0.53    1.14
  -1   6   9    6.93    1.49
  -1  -6   9    5.60    1.67
   1   6   9    5.09    1.87
   1  -6   9    7.52    2.04
  -1  -6  10    7.96    1.94
   1   6  10    4.09    1.84
   1  -6  10    7.47    2.13
  -1   6  10    4.36    1.97
  -1   6  11    4.09    0.86
   1  -6  11    3.26    1.33
  -1  -6  11    4.84    1.74
   1   6  11    3.28    2.48
   1  -6  12    8.48    2.14
  -1   6  12   10.92    2.95
   1   6  12    9.50    2.71
   1   6  12    7.71    2.15
   1   6  13    7.15    1.97
   1   6  13   10.09    3.02
  -1   6  13   11.70    2.86
   1   6  14    3.41    1.96
  -1   6  14    0.65    1.31
   1   6  14    3.60    2.20
  -1   6  15    2.65    2.17
   1   6  15    3.55    1.66
   1   6  15    3.01    1.67
  -1   6  16    1.53    2.07
   1   6  16    2.64    1.02
   1   6  16    3.37    1.59
  -1   6  17    2.08    2.17
  -1   6  17    0.47    1.61
   1   6  17    2.62    2.16
   1   6  17    0.27    1.32
  -1   6  18    0.82    2.08
   1   6  18    2.21    1.09
  -1   6  18    1.12    2.13
   1   6  18   -0.38    0.94
   1   6  19   -0.08    1.65
  -1   6  19    0.02    1.29
  -1   6  19    6.48    2.70
   1   6  19    5.03    2.07
  -1   6  20    0.02    1.88
   1   6  20   -1.62    1.76
  -1   6  20    1.13    1.98
   1   6  20    2.87    2.22
   1   6  21    3.70    2.17
  -1   6  21    2.14    2.43
   1   6  21    3.74    2.17
  -1   6  21    1.11    1.01
   1   6  22    5.71    3.29
  -1   6  22    2.01    1.50
   1   6  23    1.08    1.38
  -1   6  23   -0.01    0.99
   1   6  24   -0.58    2.43
  -1   6  24    0.17    1.19
  -1   6  25    1.47    2.23
   1   6  25    5.90    2.87
   1   6  26   -2.08    2.31
  -1   6  26    4.59    3.03
  -1  -7 -25    0.77    1.88
   1  -7 -25    0.60    1.39
   1  -7 -24    0.12    2.31
  -1  -7 -24    4.21    2.35
  -1  -7 -23    8.63    3.88
   1  -7 -23   14.18    4.32
   1  -7 -22    5.37    2.77
  -1  -7 -22   10.12    4.12
  -1  -7 -21    2.84    2.80
   1  -7 -21   -1.27    2.33
  -1  -7 -20    5.28    1.93
   1  -7 -20    9.89    2.60
   1  -7 -19    9.59    3.13
  -1  -7 -19    6.34    2.64
  -1  -7 -18   -0.44    0.91
   1  -7 -18   -1.40    1.03
   1  -7 -17   18.58    4.10
  -1  -7 -17   12.13    2.94
   1  -7 -16   26.61    4.62
  -1  -7 -16   26.54    4.88
  -1  -7 -15    6.83    3.07
   1  -7 -15    2.75    2.44
  -1  -7 -14   13.52    3.34
   1  -7 -14    8.05    2.61
   1   7 -13   15.76    3.51
  -1  -7 -13   15.30    3.62
   1  -7 -13   19.34    3.89
  -1  -7 -12    8.04    2.26
   1  -7 -12   17.75    3.49
   1   7 -12   11.67    2.63
   1  -7 -12    8.92    2.57
  -1   7 -12   13.95    3.38
  -1  -7 -11    2.80    1.62
  -1   7 -11    3.38    1.45
   1   7 -11    3.74    1.36
   1  -7 -11    2.04    0.84
   1  -7 -11    2.94    1.62
   1   7 -10   70.75    6.78
  -1   7 -10   55.80    6.18
   1  -7 -10   60.95    6.50
   1  -7 -10   57.39    6.65
  -1  -7 -10   63.62    6.81
   1  -7  -9   34.52    5.13
   1   7  -9   38.64    5.08
  -1   7  -9   34.26    4.75
   1  -7  -9   34.46    5.28
  -1  -7  -9   36.36    4.90
  -1   7  -8    4.53    2.38
   1  -7  -8    2.63    1.63
   1  -7  -8    3.35    1.94
  -1  -7  -8    2.54    1.64
   1   7  -8    2.76    1.93
   1  -7  -7   44.13    5.12
   1   7  -7   49.33    5.83
   1  -7  -7   42.36    5.35
  -1  -7  -7   37.54    4.70
  -1   7  -7   43.15    5.68
   1  -7  -6   84.70    6.82
  -1  -7  -6   79.65    6.54
   1   7  -6   93.15    8.09
   1  -7  -6   94.73    8.13
  -1   7  -6   98.96    8.42
   1   7  -5   28.02    4.24
  -1   7  -5   27.16    4.51
   1  -7  -5   32.07    4.17
   1  -7  -5   35.21    5.24
  -1  -7  -5   29.95    3.83
   1  -7  -4   62.17    6.47
  -1   7  -4   57.78    6.26
  -1  -7  -4   59.90    5.46
  -1  -7  -4   65.06    6.72
   1   7  -4   57.36    6.47
   1  -7  -4   68.63    6.14
   1  -7  -3  150.01    9.92
   1  -7  -3  132.77    8.13
   1   7  -3  125.02    9.41
  -1  -7  -3  134.44    9.53
  -1  -7  -3  138.60    7.97
  -1   7  -3  132.21    9.58
   1  -7  -2   40.86    4.40
  -1   7  -2   59.11    6.55
  -1  -7  -2   39.12    5.14
   1   7  -2   55.50    6.24
  -1  -7  -2   53.53    4.67
   1  -7  -2   48.42    5.60
  -1   7  -1    2.46    1.99
  -1  -7  -1    2.02    1.11
   1  -7  -1    2.45    2.03
   1  -7  -1    1.88    0.85
  -1  -7  -1    3.13    1.24
   1   7   0   31.46    4.92
  -1  -7   0   28.85    4.16
   1  -7   0   28.53    4.19
   1  -7   0   31.42    3.56
  -1   7   0   23.89    4.03
   1  -7   1    2.31    1.14
   1  -7   1    5.29    1.94
  -1   7   1    7.24    3.04
  -1  -7   1    3.51    1.65
   1   7   1    2.53    1.14
   1   7   2   55.41    6.29
  -1  -7   2   51.82    5.64
  -1   7   2   47.71    5.91
   1  -7   2   53.52    5.86
   1  -7   3  144.32    9.56
  -1   7   3  147.32   10.20
   1   7   3  145.17   10.17
  -1  -7   3  147.12    9.49
  -1   7   4   48.97    6.03
  -1  -7   4   60.02    5.80
   1  -7   4   63.92    6.19
  -1  -7   5   28.36    4.27
  -1   7   5   25.41    4.21
   1   7   5   23.48    4.00
   1  -7   5   36.83    5.10
   1   7   6   88.49    8.13
  -1   7   6   86.77    7.97
  -1  -7   6   79.43    6.87
   1  -7   6   81.51    7.12
   1  -7   7   54.99    5.76
   1   7   7   50.09    6.12
  -1  -7   7   46.34    5.02
  -1   7   7   50.31    6.39
   1   7   8    4.92    2.68
   1  -7   8    2.26    1.04
  -1   7   8    5.30    1.92
  -1  -7   8    0.50    0.85
  -1  -7   9   44.75    5.02
  -1   7   9   39.31    5.65
   1  -7   9   38.77    4.89
   1   7   9   42.31    5.77
   1   7  10   47.50    6.03
  -1  -7  10   46.79    5.02
  -1   7  10   51.84    6.54
   1  -7  10   58.29    5.89
   1  -7  11    7.63    2.54
   1   7  11    4.18    1.74
  -1   7  11    4.55    2.35
  -1   7  12    9.32    2.69
   1   7  12   10.35    3.37
   1   7  12    8.26    2.89
  -1   7  13   23.36    4.46
   1   7  13   24.82    4.96
   1   7  13   21.28    4.60
  -1   7  14    9.09    3.18
   1   7  14    6.61    2.74
   1   7  14    9.32    2.76
   1   7  15    0.70    1.82
   1   7  15    4.18    2.65
  -1   7  15    3.08    2.56
   1   7  16   16.40    4.00
  -1   7  16   23.23    5.25
   1   7  16   23.43    4.46
  -1   7  17   12.20    3.33
   1   7  17   11.91    3.33
  -1   7  17   10.38    3.38
   1   7  17   13.21    3.07
   1   7  18   -1.40    1.19
  -1   7  18    2.83    1.94
  -1   7  18   -0.44    1.20
   1   7  18   -0.23    1.04
   1   7  19   14.64    3.32
  -1   7  19   10.97    3.01
   1   7  19    2.88    1.47
  -1   7  19    5.30    2.57
  -1   7  20   10.23    3.87
   1   7  20    9.59    3.33
  -1   7  20    5.54    2.47
   1   7  20   11.67    3.64
   1   7  21    1.77    1.92
  -1   7  21    3.87    2.17
   1   7  21    1.88    1.69
  -1   7  21    5.77    3.10
  -1   7  22   10.98    3.90
  -1   7  22    9.59    3.74
   1   7  22    5.83    2.72
  -1   7  23   10.74    3.61
   1   7  23    8.49    3.61
  -1   7  24    6.47    2.87
   1   7  24    7.66    3.28
   1   7  25   -0.13    1.43
  -1   7  25    2.68    1.83
  -1  -8 -22    3.41    1.67
   1  -8 -22    2.39    1.69
  -1  -8 -21   -1.58    1.63
   1  -8 -21    2.27    1.72
  -1  -8 -20    1.46    1.79
   1  -8 -20    3.40    2.06
   1  -8 -19   -0.38    1.26
  -1  -8 -19   -1.04    1.93
   1  -8 -18    0.98    2.07
  -1  -8 -18   -1.18    1.80
  -1  -8 -17    1.69    1.63
   1  -8 -17    1.63    1.57
  -1  -8 -16    4.12    2.33
   1  -8 -16    6.66    3.35
  -1  -8 -15    1.76    2.22
   1  -8 -15   -0.88    2.16
   1  -8 -14   -0.30    0.96
  -1  -8 -14    6.12    2.86
   1  -8 -13    4.55    2.07
  -1  -8 -13    3.20    1.81
   1  -8 -12    3.27    2.10
  -1  -8 -12   -1.16    1.37
   1   8 -12   -0.34    1.32
   1  -8 -11   10.33    2.93
   1   8 -11    4.14    2.25
  -1   8 -11    5.55    2.78
  -1  -8 -11    2.94    1.24
   1  -8 -11    8.56    3.01
  -1   8 -10    1.92    1.26
   1  -8 -10    1.27    1.18
   1  -8 -10    1.65    0.95
   1   8 -10    0.96    1.37
  -1  -8 -10   -1.02    1.63
   1   8  -9    3.30    2.81
  -1  -8  -9    0.76    1.42
  -1   8  -9    2.46    2.08
   1  -8  -9    2.77    1.77
   1  -8  -9    5.54    2.19
   1  -8  -8    3.77    1.65
  -1   8  -8    4.35    2.18
  -1  -8  -8    1.84    1.75
   1   8  -8    5.34    2.50
   1  -8  -8    2.21    1.08
   1  -8  -7    2.36    0.84
   1   8  -7    2.59    0.99
   1  -8  -7    2.46    1.87
  -1  -8  -7    1.85    1.82
  -1   8  -7    2.31    1.86
  -1   8  -6   44.66    6.07
   1  -8  -6   38.69    5.35
   1   8  -6   46.04    5.88
  -1  -8  -6   39.83    4.77
   1  -8  -6   45.63    5.61
   1   8  -5   11.81    2.84
   1  -8  -5   17.17    3.87
   1  -8  -5   12.00    2.99
  -1   8  -5   13.61    3.18
   1   8  -4    4.60    1.33
  -1   8  -4    1.66    1.30
   1  -8  -4    7.27    2.43
   1  -8  -4    4.44    2.30
   1   8  -3    6.30    2.35
   1  -8  -3    4.94    1.66
  -1   8  -3   10.20    2.99
   1  -8  -3    5.96    2.66
   1   8  -2   29.81    4.89
   1  -8  -2   29.35    4.42
  -1  -8  -2   25.32    4.58
  -1   8  -2   24.05    4.19
   1  -8  -1    3.15    1.79
  -1   8  -1    3.65    1.82
   1   8  -1    0.08    0.99
  -1  -8  -1    0.85    1.53
  -1  -8   0   11.96    3.07
   1  -8   0   11.17    2.88
   1   8   0   10.86    3.42
  -1   8   0   14.77    3.47
   1  -8   1    5.03    2.31
  -1   8   1    5.77    2.63
  -1  -8   1    2.88    1.95
   1   8   1    1.93    2.15
   1  -8   2   29.11    4.97
  -1  -8   2   37.42    5.07
  -1   8   2   31.63    5.11
   1   8   2   30.58    4.99
  -1  -8   3    5.17    2.27
   1   8   3   13.17    3.20
   1  -8   3   12.94    3.09
  -1   8   3   13.19    3.42
  -1   8   4    3.60    1.85
   1   8   4    5.55    2.21
   1  -8   4    6.65    1.99
  -1  -8   4    5.35    1.74
  -1  -8   5   17.67    3.12
   1   8   5   19.03    4.08
   1  -8   5   13.03    2.85
  -1   8   5    9.81    2.71
   1  -8   6   28.13    4.23
  -1   8   6   33.47    5.32
   1   8   6   42.16    6.04
  -1  -8   6   32.41    4.91
   1   8   7    1.63    1.46
  -1  -8   7    2.48    1.35
   1  -8   7   -0.46    1.50
  -1   8   7    1.11    1.77
   1   8   8    2.80    2.38
  -1   8   8    5.45    2.39
   1  -8   8    3.38    2.41
  -1  -8   8    0.90    1.68
  -1   8   9    5.23    2.74
   1  -8   9    0.56    1.00
   1   8   9    1.13    2.08
   1   8  10    1.37    0.93
  -1   8  10    0.03    1.34
   1   8  11    8.33    2.72
   1   8  11    4.98    1.90
  -1   8  11    7.71    3.03
   1   8  12    2.21    2.03
   1   8  12    1.70    1.98
  -1   8  12    0.02    1.53
  -1   8  13    3.92    1.80
   1   8  13    6.85    2.61
   1   8  13    5.83    2.43
  -1   8  14   -0.73    1.41
   1   8  14    0.28    1.23
   1   8  15   -0.43    1.04
   1   8  15    0.74    2.08
  -1   8  15   -1.34    1.04
   1   8  16   -0.39    0.98
   1   8  16   -0.08    1.90
  -1   8  16   -0.48    1.16
  -1   8  16    0.76    0.97
  -1   8  17   -0.56    1.27
   1   8  17    1.62    1.69
   1   8  17   -0.78    1.42
   1   8  18    1.59    1.23
   1   8  18   -1.42    2.41
  -1   8  18   -1.47    2.10
  -1   8  18    3.13    2.28
   1   8  19    1.63    1.60
  -1   8  19   -0.53    2.43
  -1   8  19   -0.83    1.71
   1   8  19    0.50    1.62
  -1   8  20    0.61    1.82
  -1   8  20   -1.93    2.23
   1   8  20    0.71    1.33
   1   8  20    1.41    1.48
   1   8  21    2.22    2.15
  -1   8  21   -0.10    2.18
   1   8  21    1.00    1.91
  -1   8  21   -0.98    1.38
  -1   8  22   -0.48    1.43
   1   8  22   -1.88    2.27
   1  -9 -20   12.09    3.87
  -1  -9 -20    4.58    3.08
  -1  -9 -19    7.19    3.13
   1  -9 -19   12.52    4.08
  -1  -9 -18    4.25    2.57
   1  -9 -18    0.59    1.88
   1  -9 -17    4.47    2.48
  -1  -9 -17    8.56    2.93
  -1  -9 -16    6.99    2.84
   1  -9 -16   15.58    3.83
  -1  -9 -15    4.80    2.41
   1  -9 -15    3.97    2.18
  -1  -9 -14   11.19    3.88
   1  -9 -14    2.94    2.53
   1  -9 -13   15.56    3.87
  -1  -9 -13   11.24    3.52
   1  -9 -12    3.77    1.23
  -1  -9 -12    8.94    2.83
   1   9 -11    1.11    2.33
   1  -9 -11    4.35    1.44
   1   9 -10   20.98    4.29
   1  -9 -10   23.51    4.35
  -1   9 -10   24.13    4.67
   1   9  -9   11.56    3.94
   1  -9  -9    6.69    2.21
   1  -9  -9   10.18    3.26
  -1   9  -9   10.82    3.54
   1   9  -8   -0.19    0.84
  -1   9  -8    1.63    1.58
   1   9  -7   16.88    4.35
   1  -9  -7   18.96    4.11
  -1   9  -7   24.01    4.59
   1  -9  -6   42.53    5.82
   1   9  -6   32.24    5.20
  -1   9  -6   37.19    5.59
  -1   9  -5    0.77    1.39
   1   9  -5    0.88    0.95
   1  -9  -5    1.49    1.38
   1   9  -4   26.87    5.15
  -1   9  -4   27.23    4.77
   1  -9  -4   22.33    4.21
   1  -9  -3   27.40    4.81
  -1   9  -3   29.85    5.17
   1   9  -3   35.27    5.46
   1   9  -2   19.50    4.03
  -1   9  -2   22.25    4.51
   1  -9  -2   21.26    4.28
   1  -9  -1    2.11    1.25
   1   9  -1    7.49    3.28
  -1   9  -1    3.02    2.62
  -1   9   0   27.68    5.04
   1   9   0   22.36    4.43
   1  -9   0   27.38    4.68
   1  -9   1    4.42    2.47
   1   9   1    2.33    2.65
  -1   9   1    8.86    3.11
   1  -9   2    9.20    2.03
   1   9   2   17.50    3.98
  -1   9   2   18.23    4.13
   1   9   3   43.88    5.87
   1  -9   3   35.46    5.32
  -1   9   3   28.72    5.25
   1   9   4   15.27    3.67
   1  -9   4   24.88    4.66
  -1   9   4   30.09    5.18
   1  -9   5    1.53    1.05
  -1   9   5    1.44    1.46
   1   9   5    2.08    1.88
  -1   9   6   52.19    6.91
   1  -9   6   50.06    6.25
   1   9   6   37.31    5.95
   1   9   7   27.58    4.72
  -1   9   7   25.75    5.15
   1  -9   7   32.60    5.06
   1  -9   8    1.02    2.82
   1   9   8   -0.01    1.54
  -1   9   8    4.67    2.74
   1   9   9    9.96    3.34
   1   9   9   11.14    3.46
  -1   9   9   14.42    4.21
  -1   9  10   34.43    5.54
   1   9  10   34.92    5.65
   1   9  11    2.66    2.72
  -1   9  11    8.44    3.20
   1   9  11    4.16    2.40
   1   9  12    6.77    2.53
   1   9  12    4.95    2.33
  -1   9  12    6.34    2.08
  -1   9  13   20.40    4.73
   1   9  13   17.51    4.04
   1   9  13   14.37    3.81
   1   9  14    1.98    1.68
   1   9  14    3.16    3.03
  -1   9  14    2.63    1.41
   1   9  15    2.52    2.55
  -1   9  15    5.46    3.39
   1   9  15    4.69    2.90
  -1   9  15    1.90    1.27
   1   9  16   12.99    3.61
  -1   9  16    8.23    2.84
   1   9  16    9.80    3.52
  -1   9  16   13.30    3.91
   1   9  17    6.05    2.76
  -1   9  17    6.77    2.26
  -1   9  17   12.10    4.26
   1   9  17   11.51    3.47
   1   9  18   -0.96    1.29
  -1   9  18    1.19    2.06
   1   9  18    3.10    2.04
  -1   9  18    0.31    1.95
  -1   9  19    6.81    3.36
   1   9  19    3.78    2.11
   1   9  19   11.41    3.15
  -1   9  19    2.95    2.90
  -1   9  20    7.21    3.16
  -1   9  20    5.45    1.80
   1   9  20    8.81    3.41
   1   9  20    3.49    1.47
   1  10 -11   -3.00    2.34
   1  10 -10    3.24    2.45
   1  10  -9    5.35    2.68
  -1  10  -9    4.70    1.91
  -1  10  -8    2.98    1.30
   1  10  -8   -0.20    1.68
  -1  10  -7    5.86    2.78
   1  10  -7   10.14    3.96
   1 -10  -6   12.21    3.47
   1  10  -6   16.69    4.41
  -1  10  -6   12.00    3.60
   1 -10  -5    0.16    1.06
  -1  10  -5    2.64    2.67
   1  10  -5    4.42    2.57
   1  10  -4   13.25    4.04
   1 -10  -4   10.58    3.27
  -1  10  -4   18.07    4.70
   1 -10  -3    0.86    1.52
   1  10  -3   -0.91    1.30
  -1  10  -2    4.99    2.93
   1  10  -2    6.60    2.26
   1 -10  -2    7.75    2.52
  -1  10  -1    3.21    2.07
   1 -10  -1    3.68    1.43
   1  10  -1    2.50    1.57
   1 -10   0    4.97    1.94
  -1  10   0    5.85    2.09
   1  10   0    6.59    2.87
  -1  10   1   -2.67    1.20
   1  10   1    0.89    1.67
   1 -10   1    2.42    1.51
   1 -10   2    4.68    2.47
  -1  10   2    0.55    2.24
   1  10   2    5.90    2.86
   1  10   3    1.94    2.19
  -1  10   3    6.73    3.16
   1 -10   3    9.13    3.26
   1  10   4    4.75    2.39
  -1  10   4    6.39    2.65
   1 -10   4   11.92    3.20
   1  10   5    1.05    0.90
  -1  10   5    0.84    1.62
   1 -10   5    0.95    1.31
  -1  10   6   16.63    3.73
   1 -10   6   14.24    3.72
   1  10   6   15.55    4.24
  -1  10   7    9.71    3.03
   1  10   7    5.90    2.52
   1  10   7    6.87    3.17
   1  10   8   -1.06    2.46
  -1  10   8    1.62    1.21
   1  10   8   -1.11    1.08
   1  10   9    5.64    2.18
   1  10   9    5.56    2.67
  -1  10   9    8.62    2.64
   1  10  10    5.88    1.96
  -1  10  10    4.14    1.73
   1  10  10    4.63    1.43
  -1  10  11    4.71    2.47
   1  10  11    4.91    2.74
   1  10  11    1.26    2.05
   1  10  12    8.76    1.88
  -1  10  12   11.68    4.07
   1  10  12    3.69    2.61
   1  10  13   10.62    3.72
   1  10  13   12.33    3.84
  -1  10  13    9.40    3.14
  -1  10  14   10.50    3.94
  -1  10  14    5.39    2.36
   1  10  14    0.69    1.82
   1  10  14   -3.63    2.55
  -1  10  15    5.74    2.14
   1  10  15   -0.94    2.45
  -1  10  15    3.22    2.57
   1  10  15    5.57    2.91
  -1  10  16    1.58    2.46
   1  10  16    5.45    3.96
   1  10  16    1.12    2.12
  -1  10  16   -0.30    1.41
   1  11  -9   -0.22    1.39
  -1  11  -9    2.77    2.79
  -1  11  -8    3.75    3.12
   1  11  -8    0.53    1.04
  -1  11  -7    7.66    3.56
   1  11  -7    0.17    1.70
   1  11  -6   -0.62    2.61
  -1  11  -6   11.36    3.92
   1  11  -5    1.31    2.05
  -1  11  -5    5.44    3.58
  -1  11  -4    9.31    3.54
   1  11  -4    7.90    3.38
  -1  11  -3    2.82    2.58
   1  11  -3    5.45    3.21
   1  11  -2   -0.66    2.36
   1  11  -2    1.76    1.27
   1 -11  -1    4.39    2.13
   1  11  -1    5.50    3.26
   1  11  -1    5.87    3.13
  -1  11  -1    8.01    3.55
   1  11   0    5.53    2.94
   1  11   0    2.98    2.31
   1 -11   0    9.39    3.71
   1 -11   1    3.80    2.33
  -1  11   1    4.44    2.60
   1  11   1    9.63    3.28
   1  11   1    7.01    2.99
   1  11   2    4.75    2.34
   1  11   2    2.58    1.74
  -1  11   2    3.18    1.30
   1  11   3    6.05    2.50
   1  11   3    2.94    2.06
  -1  11   3    8.51    1.57
   1 -11   3    6.37    2.85
   1 -11   4    0.34    2.18
  -1  11   4   10.46    3.78
   1  11   4    9.81    3.75
   1  11   4    6.25    3.13
   1  11   5    2.51    1.42
   1  11   5    2.54    1.94
  -1  11   5    1.67    2.34
   1 -11   5    2.85    1.55
  -1  11   6   10.38    3.57
   1  11   6    8.20    3.18
   1  11   6   11.70    3.48
   1  11   7    3.64    2.76
   1  11   7   -0.10    2.31
  -1  11   7    0.38    1.71
   1  11   8   -0.24    2.68
   1  11   8   -0.07    1.60
  -1  11   8    1.81    1.82
  -1  11   9    3.10    2.20
   1  11   9    7.20    2.89
   1  11   9    3.35    2.62
  -1  11  10    7.95    3.18
   1  11  10    5.87    3.21
   1  11  10    7.55    2.76
   2   0 -31    1.83    2.82
   2   0 -30    9.81    3.34
   2   0 -29   16.55    3.94
   2   0 -28   16.97    4.08
   2   0 -27    5.50    2.32
   2   0 -26    7.93    2.92
   2   0 -25   42.05    5.72
   2   0 -24   36.05    5.44
   2   0 -23   95.09    8.64
   2   0 -22   26.54    4.68
  -2   0 -22   14.34    3.43
   2   0 -21   58.73    6.46
  -2   0 -21   39.30    5.48
   2   0 -20   23.93    4.07
  -2   0 -20   20.18    4.10
   2   0 -19  344.68   14.87
  -2   0 -19  346.97   15.09
   2   0 -18   17.36    3.02
  -2   0 -18   10.03    2.74
  -2   0 -17  178.50   10.42
   2   0 -17  161.93    9.78
  -2   0 -16   11.99    2.58
   2   0 -16    9.24    2.24
   2   0 -15  315.14   12.71
  -2   0 -15  315.72   13.15
  -2   0 -14   21.77    3.42
   2   0 -14   20.88    3.21
   2   0 -13 3007.35   36.53
  -2   0 -13 2925.14   37.34
  -2   0 -12   29.61    3.58
   2   0 -12   33.09    3.77
  -2   0 -11  217.99    9.44
   2   0 -11  210.54    8.92
   2   0 -10 1734.15   24.16
  -2   0 -10 1752.82   25.67
   2   0  -9 1242.23   19.65
  -2   0  -9 1240.17   20.47
   2   0  -9 1269.57   13.85
   2   0  -8  378.08    7.08
   2   0  -8  361.01   10.03
  -2   0  -8  379.85   10.72
   2   0  -7 5599.53   26.98
   2   0  -7 5607.00   37.62
  -2   0  -7 5695.47   39.52
   2   0  -6  396.12    6.63
   2   0  -6  380.54    9.21
   2   0  -5 1712.82   13.47
   2   0  -5 1714.34   18.10
   2   0  -5 1730.04   16.74
   2   0  -3 4715.49   26.41
   2   0  -1  324.05    5.77
   2   0  -1  330.34    6.26
   2   0   0    3.71    0.66
   2   0   0    4.03    0.67
   2   0   1  313.66    5.56
   2   0   1  316.39    6.20
   2   0   3 4760.68   26.61
   2   0   5 1714.02   10.54
   2   0   5 1688.70   17.32
   2   0   6  370.63    8.55
   2   0   7 5697.52   34.68
   2   0   8  368.67    9.28
   2   0   9 1232.73   17.59
   2   0  10 1754.42   21.93
   2   0  11  232.77    8.21
  -2   0  11  231.41    6.45
  -2   0  12   38.50    2.75
   2   0  12   33.12    3.20
  -2   0  13 2985.51   25.33
   2   0  13 2914.28   31.48
   2   0  14   15.71    2.39
  -2   0  14   20.12    2.15
  -2   0  15  320.86    8.90
   2   0  15  312.48   11.01
  -2   0  16    0.70    0.55
   2   0  16   15.37    2.48
  -2   0  17  166.96    6.94
   2   0  17  160.07    8.36
  -2   0  18   12.21    1.95
   2   0  18    9.39    2.05
   2   0  19  362.25   13.32
   2   0  20   29.10    3.91
   2  -1 -31    3.89    3.08
   2  -1 -30    2.34    2.01
   2  -1 -29    3.76    2.48
   2   1 -29   -0.42    1.95
   2  -1 -28    5.39    2.75
   2   1 -28    1.11    1.53
   2   1 -27    4.11    2.34
   2  -1 -27   -0.89    1.00
  -2  -1 -26   -1.08    1.37
   2   1 -26    0.62    1.53
   2  -1 -26    1.40    1.18
   2   1 -25   -0.44    1.23
  -2  -1 -25    0.59    1.58
   2  -1 -25   -1.69    1.89
  -2  -1 -24   -0.42    1.15
   2  -1 -24    0.79    1.46
   2   1 -24    2.32    1.87
   2   1 -23    0.95    1.91
   2  -1 -23    2.45    1.50
  -2  -1 -23    6.38    2.60
  -2  -1 -22    8.92    2.31
   2  -1 -22   12.41    3.53
   2   1 -22   13.79    3.53
   2  -1 -21    7.93    1.99
  -2  -1 -21   11.05    3.09
   2   1 -21    3.78    1.34
  -2  -1 -20   27.54    4.63
   2   1 -20   23.22    3.81
   2  -1 -20   24.84    4.31
  -2  -1 -19    1.79    1.48
   2   1 -19    0.87    1.35
   2  -1 -19    0.53    0.77
   2  -1 -18   30.52    4.56
  -2  -1 -18   29.01    4.63
   2   1 -18   22.18    3.62
  -2  -1 -17    1.59    1.76
   2   1 -17    2.03    1.19
   2  -1 -17    1.75    1.20
   2   1 -16   16.63    2.85
  -2  -1 -16   20.90    3.42
   2  -1 -16   22.99    3.60
   2  -1 -15   26.15    3.65
   2   1 -15   20.42    3.22
  -2  -1 -15   22.41    3.57
   2  -1 -14   90.90    6.75
  -2  -1 -14   91.53    6.81
   2   1 -14   95.10    6.61
   2   1 -13   26.07    3.25
  -2  -1 -13   33.00    3.86
   2  -1 -13   25.61    3.46
   2   1 -12  418.09   12.40
  -2  -1 -12  415.98   13.88
   2  -1 -12  388.87   13.24
   2  -1 -11   17.53    2.20
  -2  -1 -11   15.52    2.57
   2   1 -11   17.37    2.54
   2  -1 -11   17.94    2.68
   2   1 -11   15.13    2.10
   2   1 -10   14.98    2.20
   2  -1 -10   20.70    2.35
   2   1 -10   20.26    2.20
   2  -1 -10   14.69    2.52
  -2  -1 -10   12.25    2.27
   2  -1  -9   69.41    4.91
  -2  -1  -9   69.75    5.00
   2  -1  -9   72.15    4.33
   2   1  -9   74.51    4.48
   2   1  -9   72.91    4.04
   2   1  -8  105.36    4.92
   2  -1  -8  110.32    5.97
   2  -1  -8  103.11    5.00
   2   1  -8  112.72    4.88
  -2  -1  -8  107.32    5.89
   2  -1  -7   65.65    4.49
  -2  -1  -7   62.84    4.29
   2   1  -7   68.74    3.70
   2   1  -7   63.89    3.57
   2  -1  -7   61.86    3.74
   2  -1  -6  583.43   12.59
   2   1  -6  604.72   10.23
   2   1  -6  587.87   10.54
   2  -1  -6  595.79   11.10
  -2  -1  -6  586.63   12.43
   2   1  -5   14.39    1.59
   2   1  -5   15.45    1.51
   2  -1  -5   14.48    1.69
  -2  -1  -5    9.87    1.50
   2  -1  -5   11.33    1.69
  -2  -1  -4   89.60    4.35
   2  -1  -4   84.92    3.98
   2  -1  -4   87.54    4.35
   2   1  -4   85.90    3.83
   2   1  -4   87.50    3.13
  -2  -1  -3  789.80   11.71
   2  -1  -3  774.97   11.53
   2  -1  -3  781.62   12.26
   2   1  -3  819.67    8.65
   2   1  -3  813.12    7.73
   2   1  -3  808.75   11.74
   2   1  -2  100.71    2.85
   2  -1  -2   97.40    3.98
   2   1  -2  103.82    3.12
   2   1  -2   97.51    4.01
   2  -1  -2   95.92    4.09
   2   1  -1   23.42    1.91
   2   1  -1   19.93    1.50
   2  -1  -1   18.94    1.76
   2   1   0    0.98    0.45
   2  -1   0    1.99    0.55
   2   1   0    1.04    0.41
   2  -1   0    1.48    0.55
   2   1   1   15.96    1.51
   2   1   1   18.90    1.64
   2   1   2   99.02    3.85
   2   1   2   91.52    3.94
   2  -1   2  104.62    4.03
   2  -1   3  808.45   11.48
   2   1   3  822.75   11.08
   2   1   3  816.21   12.28
   2  -1   4   86.54    3.84
   2   1   4   84.12    4.13
   2   1   4   84.90    3.56
   2   1   5   13.30    1.34
   2   1   5   13.02    1.71
   2  -1   5   16.30    1.72
   2   1   6  576.19    9.69
   2  -1   6  594.50   10.47
   2   1   6  596.68   12.05
   2   1   7   60.91    3.13
   2   1   7   63.74    4.04
   2  -1   7   57.69    3.32
   2   1   8  107.59    4.26
   2  -1   8  112.98    4.95
   2   1   8  109.42    5.51
   2   1   9   73.45    4.67
   2  -1   9   86.52    4.44
   2   1   9   78.12    3.70
   2   1  10   20.75    2.62
   2   1  10   18.99    1.88
   2  -1  10   19.53    2.15
   2   1  11   15.81    1.73
   2  -1  11   13.78    1.93
   2   1  11   13.72    2.23
   2   1  12  413.69   12.30
   2  -1  12  421.29   10.80
   2   1  12  406.93    8.96
   2   1  13   25.26    3.18
   2   1  13   27.93    2.33
   2  -1  13   27.58    2.89
   2  -1  14   86.02    5.26
  -2   1  14   85.63    5.37
  -2  -1  14   78.77    2.88
   2   1  14   83.48    5.95
   2   1  14   92.84    4.42
   2  -1  15   21.08    2.72
  -2   1  15   26.33    3.16
   2   1  15   19.09    2.97
   2   1  15   20.72    2.10
  -2  -1  15   20.19    1.57
   2   1  16   19.22    2.17
   2   1  16   15.17    2.87
  -2   1  16   18.27    2.72
  -2  -1  16   15.14    1.44
   2  -1  16   15.99    2.54
   2  -1  17    4.73    1.48
   2   1  17    1.79    1.35
   2   1  17    2.42    1.06
  -2   1  17    5.28    1.53
  -2   1  18   20.73    3.03
   2   1  18   28.83    3.81
   2  -1  18   24.98    3.18
   2  -1  19    1.85    1.30
  -2   1  19    1.18    1.09
   2   1  20   25.78    3.93
   2   1  21    2.11    1.37
   2   1  22   15.52    2.97
   2  -2 -30    2.41    2.29
   2  -2 -29   27.68    5.53
  -2  -2 -28    9.78    3.89
   2  -2 -28   11.29    3.86
   2  -2 -27    7.30    2.59
  -2  -2 -27   10.41    3.03
   2  -2 -26    5.99    2.47
  -2  -2 -26   -0.36    1.64
   2  -2 -25   37.52    5.98
  -2  -2 -25   56.21    6.93
   2   2 -25   43.27    6.69
   2   2 -24    4.66    1.97
   2  -2 -24    3.21    1.32
  -2  -2 -24    4.91    1.15
   2  -2 -23  110.80    9.61
  -2  -2 -23   93.75    8.94
   2   2 -23  117.89    9.64
   2  -2 -22    4.16    3.06
  -2  -2 -22    3.84    2.68
   2   2 -22    1.38    0.82
   2   2 -21    1.26    0.74
  -2  -2 -21    0.02    1.11
   2  -2 -21    0.70    1.24
  -2  -2 -20   15.58    3.27
   2   2 -20   17.93    3.24
   2  -2 -20    8.30    2.84
   2  -2 -19  129.44    9.47
  -2  -2 -19  116.77    9.05
   2   2 -19  114.55    8.36
  -2  -2 -18   28.10    4.18
   2  -2 -18   34.92    4.95
   2   2 -18   39.89    4.75
  -2  -2 -17  170.29   10.40
   2  -2 -17  188.80   10.85
  -2  -2 -16    1.88    1.34
   2   2 -16    2.72    1.45
   2  -2 -16    4.24    1.71
  -2  -2 -15   21.62    3.84
   2   2 -15   21.91    3.29
   2  -2 -15   18.19    3.33
   2   2 -15   18.32    2.34
   2  -2 -14    8.68    2.29
   2   2 -14    5.22    1.29
  -2  -2 -14    6.99    2.47
   2   2 -14    5.77    1.35
   2  -2 -13  562.78   15.35
   2   2 -13  562.56   14.52
  -2  -2 -13  573.12   17.20
   2   2 -13  556.35   12.76
   2  -2 -13  586.98   17.21
  -2  -2 -12  135.71    8.00
   2   2 -12  127.50    6.29
   2  -2 -12  148.58    7.61
   2   2 -12  139.26    6.84
   2  -2 -12  153.61    8.70
   2   2 -11    4.40    1.32
   2  -2 -11    4.50    1.20
   2   2 -11    4.03    1.07
  -2   2 -11    2.92    0.51
   2  -2 -11    4.73    1.39
  -2  -2 -11    3.75    1.72
  -2   2 -10   84.97    2.95
  -2  -2 -10   80.81    5.84
   2   2 -10   90.39    4.95
   2  -2 -10   88.89    6.18
   2  -2 -10   90.84    5.66
   2   2 -10   92.24    4.88
   2   2  -9  423.21   10.02
  -2  -2  -9  457.36   13.29
   2  -2  -9  432.97   12.28
   2  -2  -9  421.37   12.97
   2   2  -9  422.20   10.58
  -2   2  -9  431.94    7.22
  -2   2  -8   27.70    1.94
   2  -2  -8   26.38    3.26
   2   2  -8   27.18    2.63
   2  -2  -8   28.11    3.06
  -2  -2  -8   26.68    2.97
   2   2  -8   24.92    2.17
  -2  -2  -7  455.43   12.09
  -2   2  -7  472.78    8.41
   2   2  -7  455.50    8.39
   2   2  -7  438.46   10.59
   2  -2  -7  427.21   11.71
   2  -2  -7  447.43   12.38
   2   2  -6   19.55    1.55
  -2  -2  -6   18.15    2.30
  -2   2  -6   20.95    1.89
   2  -2  -6   17.22    2.37
   2   2  -6   24.13    2.41
   2  -2  -6   22.07    2.64
   2   2  -5   50.06    3.55
   2  -2  -5   52.43    3.95
   2   2  -5   53.39    2.28
   2  -2  -5   58.93    4.05
   2   2  -5   53.87    2.18
  -2   2  -5   54.94    3.06
  -2  -2  -5   52.19    3.68
   2   2  -4  131.29    5.59
   2   2  -4  135.80    4.09
   2  -2  -4  138.28    6.07
   2  -2  -4  130.75    5.94
  -2   2  -4  134.60    4.94
  -2  -2  -4  137.37    5.59
   2   2  -3 2081.95   17.24
  -2  -2  -3 2113.43   20.24
   2  -2  -3 2121.32   22.73
   2  -2  -3 2057.31   23.10
   2   2  -3 2065.99   22.19
  -2  -2  -2  302.49    6.98
   2   2  -2  288.33    8.26
   2  -2  -2  298.59    8.28
   2   2  -2  299.18    6.94
   2  -2  -2  288.12    8.50
   2  -2  -1  753.20   13.45
   2   2  -1  752.60   13.40
   2  -2  -1  751.84   12.53
   2   2  -1  739.21   11.54
  -2  -2  -1  743.61    9.83
   2  -2   0  141.25    5.24
   2   2   0  132.96    5.65
   2   2   0  138.66    5.24
   2   2   1  727.90   12.68
   2   2   1  775.57   13.56
   2  -2   1  769.06   11.94
   2  -2   1  751.46   13.15
   2   2   2  314.71    8.65
   2   2   2  293.92    8.44
   2  -2   2  290.87    8.09
   2  -2   2  295.64    7.46
   2  -2   3 2116.84   21.81
   2   2   3 2112.16   22.70
   2   2   3 2138.48   23.24
   2   2   4  140.82    5.96
   2  -2   4  137.17    5.61
   2   2   4  134.87    6.07
   2   2   5   53.78    3.92
   2  -2   5   52.86    3.43
   2   2   5   55.58    3.72
   2   2   6   23.31    2.47
   2  -2   6   17.81    1.93
   2   2   6   22.95    2.66
   2  -2   7  450.89   10.15
   2   2   7  451.51   12.13
   2   2   7  464.05   11.10
   2  -2   8   31.00    2.69
   2   2   8   23.45    2.52
   2   2   8   30.10    3.20
   2  -2   9  421.85   10.08
   2   2   9  435.07   12.80
   2   2   9  454.64   11.25
   2   2  10   89.37    5.85
   2  -2  10   80.35    4.58
   2   2  10   84.44    4.92
   2   2  11    3.15    0.88
   2  -2  11    3.74    1.01
   2   2  11    3.59    1.08
   2   2  12  130.14    6.38
   2  -2  12  142.94    6.30
   2   2  12  131.70    7.45
   2   2  13  590.24   13.68
   2   2  13  577.92   16.26
   2   2  14    3.13    1.22
   2   2  14    2.62    0.69
   2  -2  14    3.08    1.23
   2   2  15   18.47    2.58
   2   2  15   16.31    3.03
   2  -2  15   19.72    2.50
   2  -2  16    2.95    0.96
   2   2  16    6.42    1.89
  -2   2  16    5.39    1.87
   2   2  16    2.97    1.20
   2   2  17  175.92    9.73
   2  -2  17  172.71    7.87
   2   2  17  183.53    8.18
  -2   2  17  166.81    9.19
  -2   2  18   30.04    4.12
   2   2  18   40.06    4.91
   2   2  18   30.51    3.44
  -2   2  19  112.06    7.86
   2   2  19  110.57    8.18
   2   2  20   11.79    2.84
  -2   2  20   12.45    2.51
   2   2  21    2.10    1.64
  -2   2  21    0.89    0.67
   2   2  22    5.40    2.37
   2   2  23  123.59    9.57
   2  -3 -30   -1.26    1.27
  -2  -3 -30   -1.96    1.93
   2  -3 -29    3.30    1.70
  -2  -3 -29    4.38    1.27
  -2  -3 -28   -1.30    1.78
   2  -3 -28   -0.36    1.88
  -2  -3 -27    0.31    1.12
   2  -3 -27   -0.02    0.97
  -2  -3 -26    2.98    2.78
   2  -3 -26    1.40    1.31
   2  -3 -25    7.09    2.82
  -2  -3 -25    6.21    2.27
   2  -3 -24    1.72    1.04
  -2  -3 -24    1.94    1.97
  -2  -3 -23    3.57    2.36
   2  -3 -23    2.52    1.78
  -2  -3 -22   -0.46    1.11
   2  -3 -22    0.59    1.61
  -2  -3 -21   10.76    3.15
   2  -3 -21    8.27    2.65
   2   3 -20    0.09    0.43
   2  -3 -20    4.39    2.44
  -2  -3 -20    7.19    2.66
   2   3 -19    1.19    1.56
  -2  -3 -19    0.32    2.09
   2  -3 -19    0.54    1.26
  -2  -3 -18    4.43    1.92
   2  -3 -18    3.64    1.76
   2   3 -18    3.76    1.62
   2   3 -17    0.32    1.12
  -2  -3 -17   -1.63    1.21
   2  -3 -17    1.23    1.07
   2   3 -16    5.71    1.89
  -2  -3 -16    6.05    1.98
   2  -3 -16    1.50    1.54
   2   3 -15    4.76    1.34
   2  -3 -15    4.04    1.87
  -2  -3 -15    3.29    1.87
   2   3 -15    4.42    1.31
   2   3 -14    6.33    1.77
  -2  -3 -14   11.94    2.84
   2   3 -14    8.80    1.87
   2  -3 -14   10.36    2.56
   2  -3 -14    9.41    2.56
   2  -3 -13    4.16    1.70
  -2   3 -13    3.65    1.10
   2   3 -13    1.59    1.03
   2   3 -13    3.77    1.30
   2  -3 -13    3.33    1.20
  -2  -3 -13    2.82    0.79
  -2  -3 -12   36.93    4.26
   2  -3 -12   36.45    4.26
   2  -3 -12   30.53    4.20
  -2   3 -12   37.61    2.75
   2   3 -12   38.50    3.61
   2   3 -12   40.51    3.50
   2   3 -11   43.18    3.80
   2  -3 -11   42.53    4.40
   2   3 -11   36.96    3.15
  -2  -3 -11   44.30    4.56
  -2   3 -11   36.06    2.70
   2  -3 -11   35.96    4.23
   2  -3 -10   32.82    3.75
  -2  -3 -10   31.22    3.77
   2  -3 -10   30.67    3.87
  -2   3 -10   29.45    2.54
   2   3 -10   32.95    2.67
   2   3 -10   27.65    3.32
   2  -3  -9   41.09    4.32
   2   3  -9   43.64    2.89
   2   3  -9   40.48    2.03
   2   3  -9   41.85    3.74
  -2  -3  -9   42.10    4.24
   2  -3  -9   46.66    4.49
  -2   3  -9   42.93    3.28
   2   3  -8    1.75    0.96
   2   3  -8    2.22    0.49
  -2   3  -8    0.95    0.63
   2  -3  -8    2.36    1.00
   2  -3  -8    4.85    1.58
  -2  -3  -8    2.25    1.09
   2   3  -7   24.54    1.91
   2  -3  -7   20.74    2.82
  -2  -3  -7   23.76    2.88
  -2   3  -7   24.54    2.49
   2  -3  -7   21.30    2.91
   2   3  -7   27.01    3.05
  -2   3  -6    2.76    0.74
   2  -3  -6    2.83    1.12
   2   3  -6    2.45    0.73
  -2  -3  -6    1.74    0.75
   2  -3  -6    1.10    1.00
  -2  -3  -5  150.75    6.72
   2  -3  -5  171.03    7.98
   2   3  -5  151.77    7.10
   2  -3  -5  147.10    7.15
  -2   3  -5  150.89    6.55
  -2   3  -4   12.35    1.85
  -2  -3  -4   13.50    1.95
   2  -3  -4   11.35    2.04
   2   3  -4   12.84    1.98
   2  -3  -4   13.49    2.22
  -2   3  -3   11.89    1.93
   2  -3  -3    9.41    1.74
   2  -3  -3   11.08    1.84
  -2  -3  -3    8.12    1.31
   2   3  -3   10.08    1.87
  -2   3  -2   77.83    4.86
   2  -3  -2   73.25    4.50
  -2  -3  -2   70.56    3.63
   2   3  -2   67.28    4.67
   2  -3  -2   79.12    5.08
   2  -3  -1 1016.19   18.20
   2   3  -1  994.86   17.98
   2  -3  -1  975.58   16.00
  -2   3  -1 1008.22   17.58
  -2  -3  -1 1006.65   12.83
  -2  -3   0  115.11    3.72
   2  -3   0  105.98    5.03
   2  -3   0  111.29    5.93
   2   3   0  112.89    6.11
   2   3   1 1040.53   18.51
   2  -3   1 1075.82   18.11
   2  -3   1 1059.49   15.63
   2   3   2   75.06    5.02
   2  -3   2   75.21    4.10
   2  -3   2   69.25    4.61
   2  -3   3   10.02    1.51
   2   3   3   15.51    2.22
   2  -3   3   11.64    1.86
   2   3   3   10.69    1.77
   2   3   4   14.80    2.33
   2  -3   4   14.60    2.15
   2   3   4   16.69    2.52
   2  -3   4   16.43    1.93
   2   3   5  153.95    7.29
   2  -3   5  157.28    6.81
   2   3   5  173.52    8.05
   2   3   6    1.04    0.51
   2   3   6    0.39    0.82
   2  -3   6    0.36    0.61
   2   3   7   25.89    2.96
   2   3   7   20.57    3.02
   2  -3   7   26.49    2.74
   2   3   8    3.17    1.39
   2  -3   8    1.31    0.55
   2   3   8    1.47    0.74
   2  -3   9   40.41    3.51
   2   3   9   43.73    4.52
   2   3   9   38.00    3.90
   2   3  10   35.33    3.80
   2  -3  10   32.29    3.15
   2   3  10   27.01    3.53
   2  -3  11   36.29    3.25
   2   3  11   42.46    4.57
   2   3  11   42.98    4.14
   2  -3  12   43.08    3.52
   2   3  12   35.86    3.87
   2   3  12   39.50    4.41
   2   3  13    2.67    1.15
   2  -3  13    2.12    0.53
   2   3  13    2.08    1.36
   2   3  14    5.26    1.67
   2  -3  14    5.95    1.26
   2   3  14    6.09    1.97
   2   3  15    5.52    1.64
   2  -3  15    5.11    1.27
   2   3  15    2.41    1.13
   2   3  16    3.04    1.62
   2  -3  16    2.00    1.07
   2   3  16    2.72    1.00
  -2   3  17    0.45    0.53
   2   3  17    0.87    0.81
   2   3  17    1.45    0.90
  -2   3  18    5.01    1.70
  -2   3  18    5.72    2.02
   2   3  18    4.93    1.96
   2   3  18    6.90    2.33
  -2   3  19   -0.55    0.77
  -2   3  19   -0.03    1.00
   2   3  19    0.66    1.60
  -2   3  20    2.24    1.38
  -2   3  20    0.44    0.70
   2   3  20    1.55    1.62
  -2   3  21    4.66    2.36
   2   3  21   10.82    2.50
   2   3  22    1.02    1.11
  -2   3  22   -1.14    1.06
   2   3  23    7.39    2.95
   2   3  24    0.14    1.49
  -2  -4 -29   16.99    3.84
   2  -4 -29   15.52    4.28
   2  -4 -28    1.27    1.26
  -2  -4 -28    7.91    3.29
   2  -4 -27    3.80    2.43
  -2  -4 -27    4.56    2.83
  -2  -4 -26    1.03    1.84
   2  -4 -26    2.04    2.48
   2  -4 -25   44.11    6.47
  -2  -4 -25   38.21    5.86
  -2  -4 -24    0.20    1.05
   2  -4 -24    3.98    2.55
   2  -4 -23   37.18    5.83
  -2  -4 -23   26.88    5.16
  -2  -4 -22    2.70    2.68
   2  -4 -22    1.81    1.69
   2  -4 -21    0.71    1.51
  -2  -4 -21    0.82    0.92
   2  -4 -20    6.55    2.09
  -2  -4 -20   10.14    3.53
  -2  -4 -19  106.02    9.15
   2  -4 -19  115.34    9.32
  -2  -4 -18   41.04    5.74
   2  -4 -18   27.83    4.58
  -2  -4 -17  137.69    9.69
   2  -4 -17  116.35    9.01
  -2  -4 -16    4.44    2.00
   2  -4 -16    2.56    2.10
   2  -4 -15   34.91    4.71
   2   4 -15   23.06    3.29
   2  -4 -15   26.25    3.99
  -2  -4 -15   29.81    4.32
   2  -4 -14   49.92    5.43
   2  -4 -14   39.45    4.98
  -2  -4 -14   46.02    5.45
   2   4 -14   43.63    4.50
  -2  -4 -13  364.91   14.53
   2  -4 -13  354.36   14.33
   2  -4 -13  330.18   13.87
   2   4 -13  340.75   12.28
  -2  -4 -12  124.78    8.12
   2  -4 -12  108.92    7.82
  -2   4 -12  114.92    6.14
   2   4 -12   96.49    6.50
   2  -4 -12  114.87    7.95
   2   4 -11   49.84    4.72
   2  -4 -11   61.41    5.81
  -2   4 -11   57.26    4.36
   2  -4 -11   54.12    5.38
  -2  -4 -11   58.35    5.72
   2  -4 -10    1.82    1.23
   2   4 -10    2.11    0.60
  -2  -4 -10    4.65    1.77
  -2   4 -10    1.75    1.02
   2  -4 -10    2.63    1.32
   2   4 -10    3.40    1.15
   2   4  -9  383.61   12.74
  -2  -4  -9  374.18   13.15
  -2   4  -9  358.07   11.32
   2  -4  -9  369.64   13.78
   2  -4  -9  349.11   13.19
   2   4  -8   51.55    4.68
   2  -4  -8   46.61    4.71
  -2  -4  -8   56.64    5.00
   2  -4  -8   46.54    4.87
  -2   4  -8   50.48    4.34
   2  -4  -7  100.52    6.67
   2   4  -7  105.74    6.60
  -2   4  -7  107.54    6.34
  -2  -4  -7  105.87    6.58
   2  -4  -7   94.87    6.75
   2  -4  -6   45.05    4.27
  -2   4  -6   46.17    4.05
   2   4  -6   43.88    4.38
   2  -4  -6   53.34    5.16
  -2  -4  -6   47.83    4.20
  -2   4  -5   29.73    3.43
   2  -4  -5   32.12    3.62
   2  -4  -5   30.84    3.87
   2   4  -5   28.63    3.39
  -2  -4  -5   26.30    2.92
   2  -4  -4  113.59    7.04
   2   4  -4  113.49    6.83
  -2   4  -4  115.90    6.62
   2  -4  -4  129.52    6.96
  -2  -4  -4  119.49    6.03
   2  -4  -3  300.29   11.58
   2   4  -3  325.85   11.65
   2  -4  -3  304.97   10.29
  -2   4  -3  297.84   10.78
  -2  -4  -3  320.67    9.41
   2   4  -2   43.04    4.25
  -2   4  -2   33.78    3.64
   2  -4  -2   42.46    3.75
   2  -4  -2   45.41    4.33
  -2  -4  -2   45.34    3.25
   2   4  -1 1442.24   24.72
   2  -4  -1 1457.87   24.21
   2  -4  -1 1494.78   21.32
  -2  -4  -1 1475.00   16.94
  -2   4  -1 1477.47   24.53
   2   4   0  164.16    8.32
   2  -4   0  169.20    8.16
   2  -4   0  160.74    6.83
  -2  -4   0  159.16    5.00
  -2   4   0  169.44    8.37
   2   4   1 1437.17   25.06
   2  -4   1 1405.90   23.57
   2  -4   1 1495.27   20.33
  -2  -4   1 1484.14   13.18
  -2   4   1 1441.02   24.57
   2   4   2   42.48    4.35
   2  -4   2   37.40    3.71
  -2   4   2   45.57    4.47
   2  -4   2   46.22    3.49
   2  -4   3  308.91    9.12
  -2   4   3  307.22   11.71
   2   4   3  327.59   11.92
   2  -4   3  318.37   11.02
   2   4   4  120.06    7.20
  -2   4   4  117.46    7.36
   2  -4   4  108.88    5.43
   2  -4   4  108.24    6.30
   2   4   5   29.39    3.72
  -2   4   5   30.82    3.69
   2  -4   5   29.19    3.20
   2  -4   5   36.66    3.20
  -2   4   6   54.63    5.04
   2   4   6   54.21    5.06
   2   4   6   44.59    4.50
   2  -4   6   47.78    3.75
   2  -4   6   49.17    4.23
   2  -4   7  103.38    6.16
  -2   4   7   89.81    6.62
   2   4   7  112.72    7.29
   2   4   7   97.47    6.89
   2   4   8   56.78    5.14
  -2   4   8   47.49    4.98
   2   4   8   45.77    4.84
   2  -4   8   52.06    4.32
   2   4   9  355.34   13.15
   2   4   9  342.14   13.46
  -2   4   9  362.51   13.61
   2  -4   9  362.92   11.29
   2   4  10    0.95    0.76
  -2   4  10    2.74    1.32
   2   4  10    2.94    1.50
   2  -4  10    3.24    1.21
  -2   4  11   49.15    5.20
   2   4  11   61.16    5.90
   2   4  11   59.95    5.36
   2  -4  11   54.11    4.41
  -2   4  12  115.83    8.12
   2   4  12  104.86    7.49
   2  -4  12  113.83    6.41
  -2   4  13  349.31   14.17
   2   4  13  331.90   13.39
   2  -4  13  355.67   11.42
   2   4  13  341.30   14.28
   2  -4  14   41.58    4.00
   2   4  14   54.29    5.50
  -2   4  14   47.87    5.34
   2   4  14   52.53    5.78
   2  -4  15   27.55    3.20
   2   4  15   24.37    3.75
   2   4  15   20.72    3.54
  -2   4  15   19.51    3.26
   2   4  16    0.15    0.89
   2   4  16    1.46    1.09
   2   4  17  132.05    9.46
  -2   4  17  125.54    9.21
   2   4  17  139.89    9.14
   2   4  18   36.44    5.27
  -2   4  18   37.62    5.19
  -2   4  18   38.87    5.24
   2   4  18   31.50    4.39
   2   4  19  103.43    8.75
   2   4  19  118.79    8.89
  -2   4  19  103.22    8.79
  -2   4  19  105.24    8.79
  -2   4  20    2.58    1.44
  -2   4  20    1.96    1.20
   2   4  20    5.94    2.44
  -2   4  21    3.11    2.25
   2   4  21   -0.80    1.10
  -2   4  21    0.95    1.49
   2   4  22    5.30    2.22
  -2   4  22   -0.21    1.41
   2   4  23   37.03    5.79
  -2   4  23   32.31    5.40
   2   4  24    0.32    1.67
   2   4  25   35.48    5.88
   2  -5 -28    2.85    2.44
  -2  -5 -28    1.54    1.72
   2  -5 -27    2.45    2.20
  -2  -5 -27    0.51    2.05
  -2  -5 -26    2.05    2.15
   2  -5 -26    0.02    2.35
   2  -5 -25   10.17    2.97
  -2  -5 -25    5.02    2.29
   2  -5 -24    5.09    3.20
  -2  -5 -24   -0.77    1.21
  -2  -5 -23    2.18    1.95
   2  -5 -23    1.71    2.00
  -2  -5 -22    6.60    3.02
   2  -5 -22    9.25    3.13
   2  -5 -21    0.45    0.94
  -2  -5 -21    0.78    1.56
  -2  -5 -20    0.73    1.06
   2  -5 -20    0.47    1.41
  -2  -5 -19    8.05    2.51
   2  -5 -19    9.23    3.60
  -2  -5 -18   -0.44    1.55
   2  -5 -18   -0.56    0.96
  -2  -5 -17    3.63    2.28
   2  -5 -17    0.07    1.36
   2  -5 -16    6.34    2.48
  -2  -5 -16    9.83    2.79
   2  -5 -15    1.04    1.29
   2  -5 -15    1.87    0.80
  -2  -5 -15    2.92    1.40
  -2  -5 -14    0.28    0.80
   2  -5 -14    5.05    1.75
   2  -5 -14    2.59    1.40
   2   5 -14    3.51    1.55
   2   5 -13   52.67    5.31
  -2  -5 -13   45.42    5.41
   2  -5 -13   49.28    5.62
   2  -5 -13   56.27    6.01
  -2   5 -12   17.33    2.84
   2  -5 -12   27.35    4.25
  -2  -5 -12   20.16    3.70
   2  -5 -12   26.99    4.17
   2   5 -12   27.81    3.83
   2   5 -11    1.13    0.86
  -2   5 -11    0.64    0.80
   2  -5 -11    1.48    0.77
   2  -5 -11    0.99    1.06
  -2  -5 -11    4.18    1.87
   2   5 -10   17.59    2.84
  -2   5 -10   19.83    3.04
   2  -5 -10   18.46    3.08
   2  -5 -10   16.28    3.33
  -2  -5 -10   22.14    3.57
  -2  -5  -9    8.54    2.18
   2  -5  -9    9.45    2.49
  -2   5  -9   13.57    2.57
   2   5  -9    9.72    2.33
   2  -5  -9   12.62    2.49
  -2  -5  -8    4.90    1.67
   2  -5  -8    9.50    2.28
  -2   5  -8    6.37    2.00
   2  -5  -8    4.27    1.64
   2   5  -8    5.12    1.42
   2   5  -7    0.20    0.83
   2  -5  -7    0.12    0.65
  -2   5  -7   -0.67    0.93
  -2  -5  -7    0.78    0.92
   2  -5  -7    0.05    0.73
   2  -5  -6    6.03    1.94
  -2  -5  -6    3.89    1.27
   2   5  -6    3.27    1.16
  -2   5  -6    3.02    1.50
   2   5  -5   21.76    3.42
   2  -5  -5   21.59    3.15
  -2   5  -5   20.75    3.09
   2  -5  -5   24.51    3.51
  -2  -5  -5   25.53    3.18
  -2  -5  -4   69.23    5.00
  -2   5  -4   68.02    5.64
   2   5  -4   66.26    5.77
   2  -5  -4   52.54    5.21
   2  -5  -4   64.30    5.25
   2   5  -3   68.39    5.96
  -2   5  -3   68.68    5.75
  -2  -5  -3   70.85    4.74
   2  -5  -3   62.79    5.76
   2  -5  -3   67.10    5.28
  -2  -5  -2    6.24    1.29
   2   5  -2    1.99    0.58
   2  -5  -2    3.30    1.21
  -2   5  -2    5.70    1.67
   2  -5  -2    3.27    1.37
   2  -5  -1  243.62   11.04
  -2   5  -1  275.96   11.77
   2   5  -1  263.96   11.64
  -2  -5  -1  266.36    8.00
   2  -5  -1  261.95    9.75
   2  -5   0   33.23    3.43
   2  -5   0   33.54    4.07
  -2  -5   0   33.49    2.61
  -2   5   0   31.36    3.92
   2   5   0   41.41    4.79
   2  -5   1  270.74    9.39
  -2  -5   1  266.27    6.43
  -2  -5   1  265.73   10.64
   2  -5   1  253.18   10.99
  -2   5   1  249.63   11.41
   2   5   1  264.46   11.75
   2   5   2    2.63    1.76
  -2  -5   2    5.19    1.58
   2  -5   2    2.83    1.17
  -2  -5   2    3.86    0.74
  -2   5   2    4.07    1.95
   2  -5   2    5.16    1.81
   2   5   3   66.78    5.91
   2  -5   3   64.54    5.44
   2  -5   3   73.02    4.72
  -2   5   3   62.74    6.02
  -2  -5   3   64.37    5.15
   2  -5   4   71.56    5.62
   2  -5   4   60.47    4.29
  -2   5   4   75.46    6.44
  -2  -5   4   66.21    5.13
   2   5   4   66.29    5.99
   2   5   5   20.20    3.44
  -2   5   5   23.91    3.57
   2  -5   5   19.86    2.89
   2  -5   5   17.28    2.34
  -2  -5   5   19.26    2.65
   2   5   6    9.43    2.41
  -2   5   6    5.46    1.86
   2  -5   6    5.64    1.65
   2  -5   6    6.35    1.31
  -2  -5   6    5.69    1.55
  -2   5   7   -0.01    0.82
   2  -5   7    0.68    0.67
   2  -5   7    0.15    0.61
   2  -5   8    5.47    1.56
   2   5   8    4.44    1.55
   2  -5   8    6.80    1.72
   2   5   8    8.32    2.07
  -2   5   8    5.17    0.61
   2  -5   9    6.28    1.89
   2   5   9   10.96    2.53
   2   5   9   11.96    2.54
   2  -5   9   13.23    2.35
  -2   5   9    8.15    2.56
  -2   5  10   12.52    3.24
   2  -5  10   16.29    2.69
   2   5  10   15.63    3.24
   2   5  10   13.03    2.75
   2  -5  11    1.17    0.94
   2   5  11   -0.31    1.32
   2   5  11    0.84    1.28
  -2   5  11    2.90    2.26
   2   5  12   23.01    4.08
   2  -5  12   19.06    2.84
  -2   5  12   22.19    3.73
   2   5  12   17.46    3.40
   2  -5  13   51.68    4.66
   2   5  13   55.25    6.08
  -2   5  13   45.67    5.36
   2   5  13   49.43    5.53
   2   5  14    4.12    1.60
   2  -5  14    6.89    1.95
  -2   5  14    4.79    1.43
   2   5  14    5.92    2.23
   2   5  15    1.00    1.64
   2   5  15    0.63    0.84
  -2   5  15    2.23    1.57
   2   5  16   10.62    2.89
   2   5  16    6.08    2.07
  -2   5  16    9.90    3.12
   2   5  17    3.79    1.98
   2   5  17    6.69    1.86
  -2   5  17    6.36    2.48
   2   5  18   -0.14    0.91
   2   5  18    0.05    1.22
  -2   5  18   -0.22    1.28
   2   5  19    5.38    3.08
   2   5  19   10.33    2.96
  -2   5  19    9.97    3.02
  -2   5  19    9.27    2.60
   2   5  20   -0.79    1.74
   2   5  20    0.18    0.98
  -2   5  20   -0.50    1.40
  -2   5  20    2.38    2.00
   2   5  21    1.11    1.43
  -2   5  21    0.94    1.59
  -2   5  21    0.92    1.42
   2   5  22    5.55    3.03
  -2   5  22    7.33    2.44
  -2   5  22    6.56    1.92
   2   5  23    0.17    1.95
  -2   5  23    1.71    1.16
  -2   5  24    2.44    1.55
   2   5  24    0.65    1.52
   2   5  25   10.59    3.50
   2   5  26    1.20    2.01
  -2  -6 -26   -0.96    1.19
   2  -6 -26    2.18    1.91
  -2  -6 -25    9.54    3.44
   2  -6 -25   15.64    4.04
   2  -6 -24    3.38    2.56
  -2  -6 -24    7.23    3.24
  -2  -6 -23    7.81    2.73
   2  -6 -23   11.56    3.30
  -2  -6 -22   16.56    4.35
   2  -6 -22    7.77    2.58
   2  -6 -21    4.39    2.64
  -2  -6 -21    3.10    1.99
  -2  -6 -20    3.39    2.27
   2  -6 -20    7.04    2.63
   2  -6 -19   70.88    8.04
  -2  -6 -19   75.28    8.00
  -2  -6 -18    0.65    1.30
   2  -6 -18    5.89    2.96
  -2  -6 -17   40.28    5.53
   2  -6 -17   43.53    5.91
  -2  -6 -16    4.46    1.75
   2  -6 -16    5.51    2.00
   2  -6 -15   59.59    6.68
  -2  -6 -15   67.88    6.94
   2  -6 -15   66.45    7.05
   2   6 -14   26.63    4.08
   2  -6 -14   29.43    4.90
  -2  -6 -14   38.35    5.30
   2  -6 -14   30.56    4.90
  -2  -6 -13  322.46   14.87
   2   6 -13  326.91   14.52
   2  -6 -13  353.76   15.67
   2  -6 -13  363.08   16.21
  -2   6 -12    6.05    2.23
   2   6 -12    3.56    2.19
   2  -6 -12    6.90    2.44
  -2  -6 -12    4.49    1.55
   2  -6 -12    4.64    1.83
   2   6 -11   50.02    5.89
  -2  -6 -11   71.87    6.92
  -2   6 -11   52.58    5.54
   2  -6 -11   46.00    5.45
   2  -6 -11   67.70    6.89
  -2  -6 -10   20.57    3.51
   2  -6 -10   30.07    4.43
   2  -6 -10   22.86    3.95
  -2   6 -10   21.47    3.37
   2   6 -10   19.19    3.31
   2  -6  -9  249.98   12.54
  -2   6  -9  250.56   12.23
  -2  -6  -9  252.37   12.11
   2   6  -9  233.08   12.06
  -2  -6  -8  159.03    9.38
   2   6  -8  141.29    9.26
   2  -6  -8  149.28    9.82
   2  -6  -8  146.57    9.09
  -2   6  -8  144.86    9.23
  -2   6  -7  247.59   11.93
   2  -6  -7  259.38   12.90
   2  -6  -7  264.60   12.25
  -2  -6  -7  258.13   11.51
   2   6  -7  218.22   11.48
   2   6  -6    7.79    2.28
   2  -6  -6    6.37    1.94
  -2   6  -6    5.22    2.01
   2  -6  -6    5.67    2.26
  -2  -6  -6    5.61    1.76
   2   6  -5   41.38    5.11
   2  -6  -5   46.74    5.76
  -2   6  -5   49.70    5.58
   2  -6  -5   38.14    4.44
  -2  -6  -5   42.01    4.35
  -2  -6  -4  277.61   10.78
   2  -6  -4  298.29   12.03
   2   6  -4  316.79   13.69
  -2   6  -4  303.05   13.32
   2  -6  -4  275.31   12.93
   2  -6  -3  207.48    9.99
  -2   6  -3  204.65   11.07
   2   6  -3  202.60   11.05
   2  -6  -3  208.72   11.35
  -2  -6  -3  229.21    9.19
   2  -6  -2  117.55    7.26
  -2  -6  -2  135.41    6.67
  -2   6  -2  129.88    8.84
   2  -6  -2  132.21    9.09
   2   6  -2  114.95    8.24
   2   6  -1  246.50   12.08
   2  -6  -1  207.73   10.97
  -2   6  -1  198.44   10.76
   2  -6  -1  244.48   10.10
  -2  -6  -1  257.02    8.54
  -2   6   0   22.55    3.81
   2  -6   0   21.92    3.19
   2   6   0   23.28    3.74
   2  -6   0   20.70    3.54
   2  -6   1  257.49   12.09
   2  -6   1  229.71    9.42
  -2   6   1  261.04   12.47
   2   6   1  232.69   11.91
  -2  -6   1  241.38    6.96
   2   6   2  123.19    8.73
  -2   6   2  124.69    8.63
   2  -6   2  136.35    7.03
  -2  -6   2  117.93    4.13
   2   6   3  209.97   11.47
   2  -6   3  198.06    8.36
  -2   6   3  205.81   11.22
   2   6   4  320.15   14.21
   2  -6   4  319.10   10.43
   2  -6   4  294.46   12.86
  -2   6   4  283.44   13.46
   2   6   5   36.69    4.81
   2  -6   5   48.42    5.20
   2  -6   5   35.47    3.61
  -2   6   5   44.55    5.47
   2   6   6    5.34    2.15
   2  -6   6    8.26    2.19
   2  -6   6    4.70    1.57
  -2   6   6    7.99    3.07
   2  -6   7  252.77    9.35
   2   6   7  238.01   12.52
   2  -6   7  252.52   11.53
  -2   6   7  247.88   12.71
   2  -6   8  164.46    9.33
   2   6   8  154.24   10.05
   2  -6   8  151.37    7.27
   2   6   8  171.87   10.41
  -2   6   8  153.65   10.13
   2  -6   9  270.02   11.89
   2  -6   9  257.78    9.66
   2   6   9  256.67   13.24
  -2   6   9  258.73   13.15
   2   6   9  256.86   13.12
   2  -6  10   25.10    3.79
   2   6  10   20.26    3.74
  -2   6  10   23.94    4.20
   2   6  10   21.99    4.17
   2   6  11   52.30    6.25
  -2   6  11   44.93    5.77
   2  -6  11   51.02    5.19
   2   6  11   53.57    6.30
   2   6  12   11.27    3.36
   2   6  12    1.40    2.04
  -2   6  12    8.79    2.63
   2  -6  12    6.10    1.88
   2   6  13  355.40   15.72
   2   6  13  332.71   15.62
  -2   6  13  350.84   16.14
   2   6  14   26.60    4.69
  -2   6  14   35.29    5.11
   2   6  14   36.23    5.30
  -2   6  15   52.26    6.35
   2   6  15   57.16    6.77
   2   6  15   51.78    6.72
  -2   6  16    4.97    2.10
   2   6  16    6.62    2.80
   2   6  16    6.12    2.74
  -2   6  17   37.11    5.76
   2   6  17   39.01    5.31
   2   6  17   40.20    5.95
   2   6  18    1.52    1.45
  -2   6  18    1.97    1.56
   2   6  18    3.26    1.95
   2   6  19   78.23    8.07
  -2   6  19   71.55    7.98
   2   6  19   94.57    8.83
  -2   6  19   72.50    7.90
  -2   6  20    1.97    1.62
  -2   6  20    9.09    2.96
   2   6  20    1.93    1.22
   2   6  20    7.04    3.05
   2   6  21    5.77    2.62
  -2   6  21    8.38    3.65
  -2   6  21    8.93    2.83
   2   6  22    5.89    3.12
  -2   6  22    3.90    1.48
  -2   6  22    2.07    2.36
  -2   6  23    9.44    3.01
   2   6  23    8.90    3.00
  -2   6  24    5.35    2.29
   2   6  24    4.60    3.05
  -2   6  25   10.62    4.15
   2   6  25   11.13    2.60
   2   6  26    3.02    2.73
   2  -7 -25    1.13    1.25
  -2  -7 -25    1.45    1.68
   2  -7 -24   -0.58    1.30
  -2  -7 -24   -4.93    3.38
  -2  -7 -23    1.86    2.12
   2  -7 -23    1.39    1.66
   2  -7 -22   -0.16    2.12
  -2  -7 -22    2.75    2.26
  -2  -7 -21    1.63    1.43
   2  -7 -21    2.03    1.65
   2  -7 -20   17.47    4.05
  -2  -7 -20   17.37    4.02
  -2  -7 -19    2.16    1.94
   2  -7 -19    2.30    2.37
  -2  -7 -18   16.74    4.36
   2  -7 -18   10.02    3.61
   2  -7 -17    6.28    2.47
  -2  -7 -17    4.30    2.76
   2  -7 -16    4.90    1.87
  -2  -7 -16    8.30    2.30
   2  -7 -15    2.27    2.20
  -2  -7 -15   -1.12    1.86
   2  -7 -14   38.89    6.03
  -2  -7 -14   41.99    5.66
   2  -7 -14   44.93    6.00
   2  -7 -13    5.80    2.22
   2   7 -13    1.02    1.30
   2  -7 -13    7.10    3.01
  -2  -7 -13    8.57    2.81
  -2  -7 -12   49.46    6.12
   2   7 -12   44.36    5.48
   2  -7 -12   51.86    6.37
   2  -7 -12   46.70    6.43
   2   7 -11   37.44    5.42
   2  -7 -11   38.99    5.42
   2  -7 -11   32.77    5.01
  -2   7 -11   34.99    5.02
  -2  -7 -11   28.18    4.50
  -2   7 -10   19.81    4.14
  -2  -7 -10   26.18    4.41
   2   7 -10   21.97    3.79
   2  -7 -10   20.58    4.10
   2  -7 -10   31.76    4.56
  -2  -7  -9   39.98    5.06
   2   7  -9   33.83    4.77
  -2   7  -9   36.23    4.86
   2  -7  -9   36.52    5.48
   2  -7  -9   34.91    4.83
  -2   7  -8   82.46    7.43
   2  -7  -8   85.91    7.81
   2   7  -8   74.93    7.15
  -2  -7  -8   63.81    6.41
   2  -7  -8   92.76    7.75
  -2   7  -7    2.40    1.96
   2   7  -7   -0.23    1.37
   2  -7  -7   -0.08    1.17
  -2  -7  -7    1.98    0.96
   2  -7  -7    0.87    1.08
   2  -7  -6  106.27    8.90
   2   7  -6   98.70    8.11
  -2   7  -6  105.21    8.48
   2  -7  -6   96.67    7.67
  -2  -7  -6  109.09    7.70
  -2  -7  -5   73.76    6.16
  -2   7  -5   91.50    8.11
   2  -7  -5   66.95    7.12
   2  -7  -5   77.67    6.74
   2   7  -5  101.65    8.33
  -2   7  -4    7.52    2.46
   2   7  -4    3.51    1.93
  -2  -7  -4    3.61    0.84
   2  -7  -4    7.14    2.23
   2  -7  -4    3.61    1.65
   2  -7  -3  215.23   11.93
   2  -7  -3  203.62   10.39
  -2   7  -3  194.36   11.47
   2   7  -3  191.40   11.39
  -2  -7  -3  183.59    9.03
  -2  -7  -2    7.89    1.96
   2  -7  -2    8.43    2.19
   2  -7  -2   11.61    2.68
   2   7  -2    9.12    2.79
  -2   7  -2   10.49    2.58
   2   7  -1   20.97    3.91
   2  -7  -1   18.88    3.04
   2  -7  -1   20.96    3.66
  -2   7  -1   21.62    3.78
   2   7   0    4.81    1.96
  -2   7   0    1.69    1.51
   2  -7   0    2.61    0.64
   2  -7   1   19.00    2.79
   2  -7   1   19.08    3.91
  -2   7   1   19.78    4.00
   2   7   1   18.23    3.84
   2  -7   2   11.71    2.58
   2   7   2   10.47    3.32
   2  -7   2    9.22    2.37
  -2   7   2    9.28    2.80
   2   7   3  211.02   12.04
  -2   7   3  177.21   11.25
   2  -7   3  182.56    8.72
   2  -7   3  212.13   11.83
  -2   7   4    4.38    2.31
   2   7   4    5.12    2.58
   2  -7   4    6.98    2.01
   2   7   5   92.74    8.04
   2  -7   5   88.76    7.63
  -2   7   5   82.21    7.87
   2   7   6   89.69    8.00
   2  -7   6   87.45    7.57
  -2   7   7    1.18    1.02
   2   7   7    2.35    1.92
   2  -7   7    2.77    1.91
  -2   7   8   90.25    8.29
   2   7   8   81.80    7.88
   2  -7   8   90.70    7.69
   2   7   8   78.07    7.93
   2   7   9   39.26    5.66
   2   7   9   30.52    5.13
   2  -7   9   30.64    4.26
  -2   7   9   34.66    5.19
  -2   7  10   28.21    4.79
   2   7  10   20.69    4.03
   2  -7  10   23.65    3.87
   2   7  10   22.37    4.29
   2   7  11   34.09    5.27
   2   7  11   38.90    5.69
   2  -7  11   34.10    4.74
  -2   7  11   33.83    5.30
   2   7  12   44.58    5.98
   2   7  12   43.05    5.98
  -2   7  12   36.35    5.25
  -2   7  13    4.58    2.24
   2   7  13    3.21    2.56
   2   7  13    6.14    2.95
  -2   7  14   45.48    6.02
   2   7  14   46.53    6.25
   2   7  14   36.79    5.51
   2   7  15    0.31    1.16
   2   7  15    0.65    1.36
  -2   7  15    2.22    1.40
   2   7  16    2.98    2.06
  -2   7  16    5.30    2.30
   2   7  16    4.74    2.49
   2   7  17    4.18    2.53
  -2   7  17    1.86    1.87
   2   7  17   -0.84    1.20
   2   7  18    8.69    2.23
   2   7  18   10.30    3.19
  -2   7  18   14.79    3.70
   2   7  19    3.99    2.39
  -2   7  19    1.49    1.44
  -2   7  19    2.42    1.12
   2   7  19   -0.66    1.09
   2   7  20   11.87    3.79
   2   7  20   11.37    3.37
  -2   7  20   14.97    3.38
  -2   7  20    9.79    3.63
  -2   7  21    4.44    2.52
   2   7  21    2.90    1.71
  -2   7  21    3.65    1.84
   2   7  22   -0.66    1.77
  -2   7  22    0.71    2.16
  -2   7  22    1.85    2.40
  -2   7  23   -1.00    1.66
   2   7  23    2.04    1.64
  -2   7  24   -2.12    1.36
   2   7  24    1.27    1.11
   2   7  25   -0.01    1.23
  -2   7  25    0.11    1.50
   2  -8 -22    4.14    2.49
  -2  -8 -22    8.58    3.65
   2  -8 -21    1.22    1.97
  -2  -8 -21    4.96    1.97
   2  -8 -20   -2.27    1.57
  -2  -8 -20    3.78    3.15
  -2  -8 -19    4.16    2.68
   2  -8 -19    8.65    2.65
   2  -8 -18    3.32    2.35
  -2  -8 -18    0.76    1.03
   2  -8 -17    8.24    2.43
  -2  -8 -17    7.03    2.51
  -2  -8 -16   12.69    3.82
   2  -8 -16    7.77    2.89
   2  -8 -15    4.32    2.28
  -2  -8 -15    2.29    2.78
  -2  -8 -14    8.10    3.36
   2  -8 -14   -1.30    1.32
   2  -8 -13   15.68    3.85
   2   8 -13   24.91    5.36
  -2  -8 -13   17.70    4.24
   2  -8 -13   10.81    3.50
   2   8 -12    2.73    1.95
  -2  -8 -12    4.46    1.92
   2  -8 -12   -0.31    1.09
   2  -8 -12   -1.15    1.57
   2  -8 -11    0.20    1.61
  -2   8 -11    5.69    3.38
   2  -8 -11    0.01    1.31
   2   8 -11   -0.01    1.35
  -2  -8 -11    2.74    1.98
  -2   8 -10    3.49    3.03
  -2  -8 -10    5.42    2.71
   2  -8 -10    2.91    1.53
   2  -8 -10    5.76    2.67
   2   8 -10    1.44    1.56
   2   8  -9   22.07    4.22
   2  -8  -9   28.34    5.07
  -2   8  -9   26.35    4.86
  -2  -8  -9   17.69    3.56
   2  -8  -9   17.24    3.25
   2   8  -8   -0.01    0.84
  -2  -8  -8    1.93    1.00
  -2   8  -8    0.79    1.58
   2  -8  -8    2.47    2.17
   2  -8  -8    0.80    1.17
   2   8  -7   22.21    4.36
   2  -8  -7   22.28    4.40
   2  -8  -7   31.34    4.66
  -2   8  -7   34.16    5.05
  -2  -8  -7   20.39    3.41
   2   8  -6    8.72    2.47
   2  -8  -6    7.82    2.53
  -2   8  -6   11.66    3.48
   2  -8  -6    5.36    1.53
   2   8  -5    9.08    3.19
  -2   8  -5    4.36    2.04
   2  -8  -5    6.16    1.93
   2  -8  -5    5.10    2.47
  -2   8  -4   34.95    5.16
   2   8  -4   22.25    4.13
   2  -8  -4   32.95    4.75
   2  -8  -4   27.98    4.13
   2   8  -3  113.69    9.32
   2  -8  -3  110.62    9.38
   2  -8  -3  113.16    8.47
  -2   8  -3   98.68    8.83
   2   8  -2    2.52    1.19
   2  -8  -2    2.77    1.65
   2  -8  -2    2.83    1.44
  -2   8  -2    1.48    2.66
   2  -8  -1    4.59    1.73
   2   8  -1    6.92    2.33
  -2   8  -1    5.01    2.27
   2  -8   0    6.79    2.10
   2   8   0    7.42    2.60
  -2   8   0    5.73    2.56
   2   8   1    5.66    2.69
  -2   8   1    6.10    2.97
   2  -8   1   12.17    3.08
  -2   8   2    3.38    1.79
   2   8   2    1.76    0.93
   2  -8   2    1.39    2.10
   2  -8   3   90.30    8.00
   2   8   3  111.81    9.34
  -2   8   3  104.23    9.17
   2   8   4   38.86    5.76
  -2   8   4   37.85    5.58
   2  -8   4   28.26    4.89
   2   8   5    8.46    2.93
   2  -8   5   12.24    3.44
  -2   8   5    6.00    1.97
   2  -8   6    4.88    1.68
   2   8   6    4.80    2.27
   2   8   6    4.67    1.71
  -2   8   6    9.01    2.88
   2  -8   7   25.59    4.10
   2   8   7   34.21    5.32
  -2   8   7   27.60    5.09
   2   8   7   30.83    4.86
   2  -8   8   -0.12    1.68
   2   8   8    7.49    2.23
  -2   8   8    1.44    1.13
   2   8   8    6.83    2.04
   2   8   9   28.49    4.82
  -2   8   9   25.07    4.38
   2   8   9   27.11    4.83
   2  -8   9   25.23    4.03
   2   8  10    0.73    1.41
  -2   8  10   -0.36    0.92
   2  -8  10    0.58    0.93
   2   8  10    2.16    2.10
   2   8  11    4.51    3.02
  -2   8  11   -0.57    0.96
   2   8  11    2.26    2.13
   2   8  12    0.35    0.81
   2   8  12    2.27    1.18
  -2   8  12   -0.48    1.30
   2   8  13   15.70    3.73
  -2   8  13    8.98    3.03
   2   8  13   14.41    3.42
   2   8  14    4.00    2.30
  -2   8  14    3.34    1.94
   2   8  14    2.99    1.43
   2   8  15    1.86    2.18
   2   8  15   -3.15    2.70
  -2   8  15    3.26    2.04
   2   8  16    5.84    1.96
   2   8  16    7.04    2.67
   2   8  17    4.87    1.78
   2   8  17    6.56    2.62
  -2   8  17   10.28    3.74
   2   8  18    1.97    2.19
   2   8  18   -2.82    2.75
  -2   8  18   -0.08    1.27
  -2   8  18    1.24    1.96
  -2   8  19    2.71    1.91
  -2   8  19    5.05    2.64
   2   8  19    4.36    2.89
   2   8  19    3.45    2.07
   2   8  20    2.80    2.09
   2   8  20    1.44    2.25
  -2   8  20    0.58    2.31
  -2   8  20   -2.40    3.32
   2   8  21    1.70    2.00
  -2   8  21    1.21    1.93
  -2   8  21    1.66    2.32
   2   8  21   -2.32    2.06
   2   8  22    3.95    2.15
  -2   8  22    9.31    3.96
  -2   8  22    3.75    2.96
   2  -9 -19    5.62    2.10
  -2  -9 -19   -0.64    1.90
   2  -9 -18    1.87    2.17
  -2  -9 -18   -0.46    2.49
  -2  -9 -17   -1.98    2.70
   2  -9 -17   -0.04    1.53
  -2  -9 -16   -2.43    1.94
   2  -9 -16    0.94    2.49
   2  -9 -15   -0.01    2.43
  -2  -9 -15    2.41    3.04
  -2  -9 -14    1.81    1.99
   2  -9 -14    4.19    2.31
  -2  -9 -13    2.14    1.88
   2  -9 -13    2.73    2.09
   2   9 -12    3.68    1.24
   2  -9 -12    1.83    1.99
   2  -9 -12    1.95    2.25
   2   9 -11   -1.14    1.24
   2  -9 -11    0.13    1.98
   2  -9 -11    2.81    1.33
   2  -9 -10    8.86    2.16
   2  -9 -10    8.05    2.70
  -2   9 -10    2.81    2.53
   2   9 -10    8.66    3.32
   2  -9  -9    0.65    1.14
  -2   9  -9    1.58    1.76
   2  -9  -9    0.33    1.37
   2   9  -9    1.11    1.86
   2   9  -8    1.67    2.46
  -2   9  -8    2.72    1.39
   2  -9  -8    2.63    1.86
   2  -9  -8   -1.68    1.16
   2  -9  -7    0.68    1.69
   2   9  -7    1.18    1.78
  -2   9  -7    0.37    1.28
   2   9  -6    6.32    3.24
  -2   9  -6    3.67    0.86
   2   9  -5    3.72    1.84
  -2   9  -5    9.28    3.19
   2  -9  -5    8.18    2.88
  -2   9  -4    9.28    2.85
   2  -9  -4    7.97    2.44
   2   9  -4   10.81    3.60
  -2   9  -3   11.11    3.36
   2   9  -3    5.83    2.51
   2  -9  -3    9.49    2.84
   2   9  -2   -0.83    1.69
  -2   9  -2    2.78    2.24
   2  -9  -2    0.84    1.54
  -2   9  -1    2.24    2.41
   2   9  -1    0.08    1.82
   2  -9  -1    3.04    1.92
   2  -9   0    5.14    2.14
   2   9   0    5.84    2.42
  -2   9   0    9.71    3.19
   2   9   1    2.40    1.31
  -2   9   1    1.49    0.88
   2  -9   1    3.92    2.29
  -2   9   2    3.31    1.56
   2   9   2   -0.19    2.47
   2  -9   2    2.63    1.52
   2   9   3    9.37    3.23
  -2   9   3    5.76    2.01
   2  -9   3    7.77    2.59
   2   9   3    6.64    2.83
   2  -9   4   11.03    3.37
   2   9   4    8.37    2.95
   2   9   4    8.92    2.75
  -2   9   4    4.92    1.63
  -2   9   5    7.29    2.56
   2   9   5    5.67    3.00
   2   9   5    7.52    2.67
   2  -9   5    7.12    2.79
  -2   9   6   11.11    3.31
   2   9   6    1.39    1.45
   2  -9   6   10.57    3.05
   2   9   6    6.69    2.98
   2  -9   7    0.67    1.60
   2   9   7    0.95    1.71
  -2   9   7   -0.23    1.04
   2   9   7    3.05    1.99
  -2   9   8   -0.57    1.31
   2   9   8    2.12    2.04
   2  -9   8   -0.14    1.54
   2   9   8    1.28    0.82
  -2   9   9   -3.27    2.43
   2  -9   9   -1.67    2.07
   2   9   9    1.28    1.68
   2   9   9    1.01    1.23
   2   9  10   10.14    3.18
   2   9  10   13.45    3.79
  -2   9  10    8.56    2.10
   2   9  11    2.44    1.50
   2   9  11    6.80    2.74
  -2   9  11    4.29    2.46
  -2   9  12    0.41    1.93
   2   9  12   -2.34    1.12
   2   9  12    0.46    1.18
   2   9  13    6.69    3.19
   2   9  13    3.89    2.84
  -2   9  13   -3.96    2.78
  -2   9  14    3.15    2.04
   2   9  14    0.38    0.82
   2   9  15    1.76    1.91
   2   9  15    3.53    2.56
  -2   9  15    1.23    2.15
  -2   9  16    0.24    1.73
   2   9  16    1.41    1.57
   2   9  16   -1.69    2.72
   2   9  17    1.20    1.27
  -2   9  17   -1.02    1.98
  -2   9  17   -1.79    1.78
   2   9  17   -0.48    1.76
   2   9  18   -0.79    1.65
  -2   9  18    3.14    2.02
   2   9  18    4.44    2.27
  -2   9  18    2.85    2.31
   2   9  19   -1.51    1.39
   2   9  19   -0.24    1.57
  -2   9  19    2.04    2.30
  -2   9  19    0.85    2.72
   2 -10 -16    2.17    2.16
   2  10 -11    7.83    3.70
   2  10 -10   -0.81    1.67
   2  10  -9    5.33    2.09
   2 -10  -9    3.50    1.88
  -2  10  -8    0.95    1.37
   2 -10  -8    2.95    1.51
   2  10  -8    0.73    2.16
   2  10  -7   21.89    4.77
  -2  10  -7   28.43    5.36
   2 -10  -7   34.67    5.67
   2 -10  -6    9.88    3.37
   2  10  -6   11.19    3.44
   2  10  -5    0.41    1.18
   2 -10  -5    4.03    2.98
  -2  10  -5    2.16    2.08
   2  10  -4    7.94    2.03
  -2  10  -4   11.19    3.33
   2 -10  -4    8.49    3.20
   2  10  -3   21.59    4.48
  -2  10  -3   10.95    3.91
   2 -10  -3   18.75    4.54
   2  10  -3   21.24    4.60
   2  10  -2   11.23    3.81
   2  10  -2    6.93    3.08
   2 -10  -2   10.91    3.80
  -2  10  -2    7.74    2.95
   2  10  -1    0.78    2.06
  -2  10  -1    0.32    1.12
   2 -10  -1    0.77    1.86
   2  10  -1    1.88    2.16
   2  10   0   -1.21    1.86
   2  10   0    0.93    1.16
  -2  10   0    1.42    2.31
   2 -10   0    0.99    1.01
   2  10   1    3.45    2.20
   2  10   1    3.22    2.93
  -2  10   1   -0.94    1.33
   2 -10   1    4.43    2.36
  -2  10   2    5.17    2.17
   2  10   2    8.42    2.77
   2 -10   2   10.95    3.42
   2  10   2   14.53    3.78
   2  10   3   15.20    3.94
  -2  10   3   14.23    4.11
   2 -10   3   16.19    3.73
   2  10   3   12.81    3.09
   2  10   4    4.59    1.77
  -2  10   4    8.17    3.37
   2  10   4   13.16    3.19
   2 -10   4    9.95    2.95
   2  10   5    2.07    1.37
   2 -10   5    3.70    2.88
   2  10   5    4.31    2.41
  -2  10   5    2.54    2.17
   2  10   6    5.66    2.97
  -2  10   6    5.72    2.39
   2  10   6    4.17    2.49
   2 -10   6    3.85    2.18
   2  10   7   27.96    5.38
   2  10   7   24.80    5.11
   2 -10   7   30.51    5.73
  -2  10   7   27.50    5.39
   2  10   8    2.88    2.22
   2  10   8    3.94    1.47
  -2  10   8    2.86    2.10
   2  10   9    6.72    2.74
  -2  10   9    5.06    2.32
   2  10  10    3.42    1.98
  -2  10  10    3.22    2.04
   2  10  10    2.63    1.07
  -2  10  11    9.95    3.71
   2  10  11    3.92    2.20
   2  10  11    9.64    3.24
  -2  10  12    2.08    1.87
   2  10  12    2.06    1.24
   2  10  12    2.44    1.43
   2  10  13   20.25    4.82
  -2  10  13   14.33    3.71
   2  10  13   10.83    3.44
  -2  10  14    4.01    2.38
   2  10  14    2.54    2.06
   2  10  14    3.40    1.81
   2  10  15    3.89    2.32
   2  10  15    3.17    1.87
  -2  10  15    5.75    3.21
  -2  10  16    2.08    2.05
   2  10  16    2.67    2.44
  -2  10  16   -0.51    1.69
   2  11 -10   -1.19    1.49
   2  11  -9    1.18    2.22
   2  11  -8    1.31    2.07
  -2  11  -8    4.50    2.95
  -2  11  -7   -1.96    1.22
   2  11  -7    0.16    1.70
   2 -11  -6    3.20    2.45
  -2  11  -6    2.36    1.93
   2  11  -6    6.07    3.44
  -2  11  -5   -1.42    1.85
   2 -11  -5   -0.69    1.73
   2  11  -5    2.11    2.03
   2  11  -4    2.03    1.86
  -2  11  -4    0.69    1.75
   2 -11  -4   -2.00    2.19
  -2  11  -3    1.14    1.16
   2 -11  -3   -1.13    1.77
   2  11  -3   -0.37    1.81
   2  11  -2   -2.14    1.68
  -2  11  -2    2.55    2.13
   2 -11  -2    0.45    1.15
  -2  11  -1   -1.37    1.26
   2  11  -1   -1.00    2.03
   2  11  -1   -1.82    1.85
  -2  11   0   -0.54    1.75
   2  11   0    1.11    1.06
   2  11   0    1.71    2.31
   2 -11   0   -2.13    2.04
   2 -11   1    0.58    1.85
   2  11   1   -2.05    1.75
   2  11   1    3.76    1.89
  -2  11   1    0.25    1.12
   2 -11   2   -1.33    2.02
   2  11   2    1.41    1.07
  -2  11   2   -0.65    1.43
   2  11   2   -0.66    0.99
   2  11   3    1.67    2.22
   2  11   3   -0.77    1.20
  -2  11   3    1.17    1.56
   2 -11   3    2.96    2.91
   2  11   4    2.03    1.13
   2  11   4    0.45    1.70
  -2  11   4   -0.71    1.18
   2 -11   4    0.40    1.92
  -2  11   5   -0.68    1.45
   2  11   5    0.40    0.93
   2  11   5   -0.42    2.20
   2 -11   5    3.58    3.02
   2  11   6    4.92    3.00
   2  11   6   -0.86    1.25
  -2  11   6    1.18    2.53
  -2  11   7    2.36    2.49
   2  11   7   -0.58    1.04
   2  11   7    3.70    2.59
  -2  11   8    5.25    2.84
   2  11   8   -0.97    1.66
   2  11   8    1.79    1.90
   2  11   9    3.76    3.03
   2  11   9    2.82    1.73
  -2  11   9    2.50    1.77
   2  11  10   -1.24    1.50
  -2  11  10    0.66    2.29
   2  11  10    2.56    1.23
   3   0 -31    0.14    1.73
   3   0 -30   -0.96    2.02
   3   0 -29   -1.86    2.18
   3   0 -28    2.53    1.35
   3   0 -27    0.44    1.46
   3   0 -26   -1.23    1.13
   3   0 -25   -1.48    1.47
   3   0 -24    1.67    1.45
   3   0 -23    2.20    1.38
   3   0 -22   -2.83    1.59
   3   0 -21    0.45    0.86
   3   0 -20    1.53    1.83
   3   0 -19    0.29    1.26
   3   0 -18   -0.29    1.17
   3   0 -17   -0.06    0.99
   3   0 -16    0.48    1.07
   3   0 -15    0.08    0.55
   3   0 -14    0.99    0.89
   3   0 -13    0.25    0.46
   3   0 -12    0.30    0.44
   3   0 -12    0.09    0.28
   3   0 -11    0.25    0.76
   3   0 -11   -0.24    0.25
   3   0 -10   -0.62    0.47
   3   0 -10    0.13    0.45
   3   0  -9    0.84    0.84
   3   0  -9    0.09    0.28
   3   0  -8   -0.28    0.45
   3   0  -8    0.02    0.51
   3   0  -7    0.48    0.59
   3   0  -7   -0.07    0.30
   3   0  -6    0.08    0.34
   3   0  -6   -0.24    0.30
   3   0  -6    0.12    0.40
   3   0  -5   -0.22    0.23
   3   0  -5   -0.27    0.49
   3   0  -5    0.32    0.36
   3   0  -4    0.20    0.28
   3   0  -4   -0.05    0.59
   3   0  -4    0.24    0.28
   3   0  -3    0.41    0.46
   3   0  -3    0.07    0.38
   3   0  -3   -0.41    0.33
   3   0  -2    0.14    0.23
   3   0  -2   -0.19    0.30
   3   0  -2    0.40    0.53
   3   0  -1   -0.10    0.20
   3   0  -1    0.26    0.23
   3   0   0   -0.25    0.23
   3   0   0    0.30    0.39
   3   0   1   -0.23    0.30
   3   0   1    0.54    0.56
   3   0   2    0.02    0.25
   3   0   2    0.03    0.22
   3   0   3    0.24    0.25
   3   0   3    0.03    0.45
   3   0   4   -0.12    0.24
   3   0   4    0.08    0.42
   3   0   5    0.06    0.39
   3   0   5    0.05    0.23
   3   0   6   -0.14    0.20
   3   0   6    0.00    0.34
   3   0   7    0.47    0.62
   3   0   7   -0.03    0.24
   3   0   8    0.17    0.28
   3   0   8    0.25    0.59
   3   0   9    0.00    0.20
   3   0   9   -0.08    0.42
   3   0  10    0.54    0.70
   3   0  10   -0.13    0.17
   3   0  11   -0.45    0.47
   3   0  12    1.02    0.74
   3   0  13    0.34    0.87
   3   0  14    0.16    0.69
  -3   0  14   -0.50    0.73
  -3   0  15    0.43    0.66
   3   0  15    0.26    0.87
   3   0  16   -0.44    0.57
  -3   0  16   -0.02    0.49
  -3   0  17   -0.11    0.54
   3   0  17    0.62    1.20
   3   0  18    0.32    0.73
   3   0  19   -0.47    1.06
   3   0  20   -0.30    1.09
   3   0  21    0.56    1.07
   3  -1 -30    1.46    1.59
   3  -1 -29    4.87    2.67
   3   1 -29   -2.33    1.63
   3  -1 -28    7.27    2.48
   3   1 -28   11.09    3.69
   3   1 -27   12.10    3.19
   3  -1 -27   10.71    2.71
   3   1 -26    7.42    2.50
   3  -1 -26   10.42    2.78
   3   1 -25   23.38    4.61
   3  -1 -25   12.47    3.38
   3  -1 -24   13.82    3.41
   3   1 -24   15.78    3.67
   3  -1 -23   65.27    7.27
   3   1 -23   74.24    7.66
   3  -1 -22   30.75    4.93
   3   1 -22   23.54    4.12
   3   1 -21    3.51    1.57
  -3  -1 -21    1.42    1.29
   3  -1 -21    4.44    2.32
   3  -1 -20   30.58    4.46
  -3  -1 -20   28.95    4.82
   3   1 -20   30.86    4.59
  -3  -1 -19   72.01    6.93
   3  -1 -19   75.16    7.24
   3   1 -19   74.07    7.05
   3  -1 -18    5.95    2.11
  -3  -1 -18    7.95    2.41
   3   1 -18    5.86    1.78
   3   1 -17   99.07    7.50
   3  -1 -17  118.30    8.47
  -3  -1 -17   93.01    7.64
  -3  -1 -16   31.46    4.33
   3   1 -16   35.63    4.31
   3  -1 -16   43.74    5.08
   3   1 -15    8.23    2.21
   3  -1 -15   15.58    2.78
  -3  -1 -15   11.07    2.77
  -3  -1 -14   38.23    4.49
   3  -1 -14   37.50    4.49
   3   1 -14   46.57    4.53
   3  -1 -14   43.57    3.90
   3   1 -13  330.74   11.73
   3  -1 -13  304.26   10.01
   3  -1 -13  313.74   12.26
  -3  -1 -13  308.01   12.59
   3  -1 -12  214.90   10.07
   3   1 -12  213.92    9.13
  -3  -1 -12  202.09    9.98
   3   1 -12  206.24    7.89
   3  -1 -12  204.40    8.07
   3   1 -11   40.28    3.65
  -3  -1 -11   37.68    4.12
   3   1 -11   32.87    3.10
   3  -1 -11   40.73    4.27
   3  -1 -11   31.19    3.08
  -3  -1 -10  142.68    7.77
   3  -1 -10  155.21    6.66
   3   1 -10  148.21    6.87
   3   1 -10  165.60    6.86
   3  -1 -10  151.14    7.76
   3  -1  -9  382.08   12.19
   3   1  -9  388.35   10.32
   3   1  -9  421.22   10.98
   3  -1  -9  415.83   10.61
  -3  -1  -9  398.72   12.45
   3  -1  -8  111.45    6.23
   3   1  -8  107.71    5.41
  -3  -1  -8  112.07    6.27
   3  -1  -8  118.34    5.47
   3   1  -8  113.86    5.47
   3   1  -7  265.80    8.30
   3  -1  -7  285.93    8.34
   3  -1  -7  272.35    9.42
   3   1  -7  278.71    4.59
   3   1  -6  750.98   13.49
   3   1  -6  761.07    8.21
   3  -1  -6  729.53   14.79
   3  -1  -6  731.98   13.16
   3   1  -5   44.16    2.13
   3   1  -5   36.45    2.89
   3  -1  -5   40.87    3.00
   3  -1  -5   43.08    3.47
   3   1  -5   37.38    2.54
   3  -1  -4  551.25   11.92
   3   1  -4  553.87   11.15
   3   1  -4  544.57    7.89
   3   1  -4  541.45    9.33
   3  -1  -4  543.99   10.93
   3  -1  -3 2476.90   23.92
   3   1  -3 2494.41   17.77
   3  -1  -3 2490.07   22.95
   3   1  -3 2503.38   23.06
   3   1  -3 2513.12   18.90
   3   1  -2 1051.91   12.24
   3  -1  -2 1033.81   14.76
   3   1  -2 1048.32   11.90
   3   1  -2 1062.42   14.84
   3   1  -1  603.02    9.60
   3  -1  -1  586.00   11.18
   3  -1  -1  599.48   11.22
   3  -1   0  575.99   10.87
   3   1   0  591.75   10.94
   3   1   0  583.75   10.12
   3  -1   0  566.66   10.88
   3   1   1  589.99   10.61
   3  -1   1  587.67   11.00
   3   1   1  578.68   10.74
   3   1   2 1055.30   14.19
   3  -1   2 1078.29   15.01
   3   1   2 1065.80   14.74
   3  -1   3 2479.33   23.47
   3   1   3 2512.70   21.57
   3   1   4  537.65   10.07
   3   1   4  544.61   11.64
   3  -1   4  546.94   11.15
   3   1   5   43.42    3.32
   3  -1   5   42.66    3.12
   3   1   5   46.82    2.93
   3   1   6  768.91   11.78
   3  -1   6  741.41   13.36
   3  -1   7  280.20    8.50
   3   1   7  289.98    7.25
   3   1   7  284.78    9.40
   3  -1   8  103.51    5.29
   3   1   8  107.18    5.77
   3   1   8  115.86    4.66
   3   1   9  417.75   11.95
   3  -1   9  424.96   10.89
   3   1   9  418.81    8.88
   3  -1  10  138.99    6.47
   3   1  10  154.18    7.49
   3   1  10  143.17    5.31
   3   1  11   34.90    2.59
   3   1  11   37.61    3.67
   3  -1  11   28.33    2.99
   3   1  12  214.05    9.29
   3   1  12  203.82    6.31
   3  -1  12  203.63    8.34
   3   1  13  306.75   11.47
   3  -1  13  310.93   10.47
   3   1  13  311.39    7.88
   3   1  14   40.36    4.28
   3  -1  14   36.30    3.61
   3   1  14   42.64    2.92
   3  -1  15   11.94    2.20
   3   1  15   11.08    1.49
   3   1  15   12.12    2.48
  -3   1  16   32.44    3.65
   3  -1  16   35.67    3.95
   3   1  16   33.15    4.03
   3   1  16   28.97    2.45
   3   1  17  106.79    7.41
   3  -1  17   93.20    6.39
  -3   1  17  108.03    6.71
  -3   1  18    8.29    1.89
   3  -1  18    9.47    2.27
   3   1  18    6.92    1.97
   3   1  19   68.47    6.31
  -3   1  19   70.60    5.66
   3  -1  19   70.12    5.97
   3   1  20   27.74    4.06
   3  -1  20   26.25    4.01
   3   1  21    1.44    1.32
   3   1  22   23.31    4.10
   3  -2 -30    0.15    1.24
   3  -2 -29   -0.82    1.16
   3  -2 -28   -0.90    1.85
   3  -2 -27    8.28    3.30
   3  -2 -26    0.54    1.42
  -3  -2 -25    2.13    2.14
   3  -2 -25    1.07    1.94
  -3  -2 -24    2.87    1.85
   3  -2 -24    0.97    1.22
   3   2 -23    8.01    2.91
   3  -2 -23    6.11    1.99
  -3  -2 -23    5.50    1.79
   3   2 -22   -0.97    1.25
   3  -2 -22    0.62    1.22
  -3  -2 -22    1.32    1.14
  -3  -2 -21    9.03    2.95
   3   2 -21   13.47    3.12
   3   2 -20    6.99    2.34
   3  -2 -20    4.26    1.63
  -3  -2 -20    3.60    2.16
   3  -2 -19   12.05    2.78
   3   2 -19    6.28    1.95
  -3  -2 -19   11.70    2.91
  -3  -2 -18    0.65    1.29
   3   2 -18    1.22    1.30
   3  -2 -18    1.86    1.50
  -3  -2 -17   -0.05    0.93
   3   2 -17    1.02    1.35
   3  -2 -17    0.37    0.97
   3   2 -16   17.29    2.98
  -3  -2 -16   21.31    3.58
   3  -2 -16   13.95    3.02
   3   2 -16   15.78    2.39
  -3  -2 -15   25.37    3.78
   3   2 -15   19.83    2.53
   3  -2 -15   20.62    3.38
   3   2 -15   21.67    3.12
   3  -2 -15   22.23    3.25
   3  -2 -14    1.54    1.09
   3   2 -14    2.08    1.04
   3  -2 -14    2.23    1.34
  -3  -2 -14    0.45    1.05
   3   2 -14    0.46    0.50
   3   2 -13    1.41    1.26
   3  -2 -13    0.55    0.90
   3   2 -13   -0.20    0.48
  -3  -2 -13    0.82    1.17
   3  -2 -13    0.98    1.00
   3   2 -12   33.53    3.41
   3  -2 -12   33.49    3.73
   3   2 -12   27.65    3.15
   3  -2 -12   36.23    4.20
   3   2 -11  145.38    6.94
   3  -2 -11  126.79    8.06
   3   2 -11  144.04    6.61
   3  -2 -11  126.08    7.26
  -3  -2 -11  140.50    8.16
  -3   2 -10   38.66    2.03
   3  -2 -10   37.63    3.79
   3  -2 -10   39.19    4.20
   3   2 -10   42.88    3.48
  -3  -2 -10   45.62    4.45
   3   2 -10   46.15    3.94
   3  -2  -9   12.71    2.25
   3  -2  -9   14.37    2.47
   3   2  -9   14.52    2.17
  -3  -2  -9   14.79    2.41
   3   2  -9   16.59    1.93
  -3   2  -9   15.68    1.43
   3  -2  -8   44.67    3.95
   3  -2  -8   42.88    4.04
  -3  -2  -8   49.68    4.28
   3   2  -8   41.65    3.00
  -3   2  -8   51.82    2.74
   3   2  -8   50.83    3.90
   3   2  -7   24.31    2.10
  -3   2  -7   28.94    2.12
   3  -2  -7   26.35    2.98
  -3  -2  -7   26.00    3.10
   3  -2  -7   29.18    3.31
   3   2  -7   23.70    1.37
   3   2  -7   25.06    2.63
   3   2  -6  158.16    4.78
   3  -2  -6  136.55    6.61
  -3  -2  -6  155.67    6.98
   3  -2  -6  144.28    7.07
   3   2  -6  153.86    3.97
   3   2  -6  152.45    6.65
  -3  -2  -5  164.48    6.90
   3   2  -5  164.46    6.87
   3   2  -5  164.58    4.58
   3   2  -5  171.78    4.49
   3  -2  -5  148.20    6.93
   3  -2  -5  159.34    7.00
   3  -2  -4   31.14    3.07
   3   2  -4   31.10    1.81
   3  -2  -4   31.33    2.97
   3   2  -4   28.24    2.09
   3   2  -3 1058.94   10.09
   3  -2  -3 1039.47   17.42
   3  -2  -3 1073.02   17.79
   3   2  -3 1062.08   13.42
   3  -2  -2  502.91   11.63
   3   2  -2  485.04    9.63
   3  -2  -2  478.75   11.80
   3   2  -2  479.21   11.42
   3  -2  -1  236.17    7.82
   3   2  -1  221.30    7.79
   3  -2  -1  228.46    8.00
   3   2  -1  211.49    6.78
   3  -2   0  216.45    7.69
   3   2   0  231.81    7.84
   3  -2   0  211.76    7.30
   3   2   0  211.15    6.91
   3   2   1  232.61    7.49
   3   2   1  228.87    7.73
   3  -2   1  244.76    8.05
   3  -2   1  238.17    7.60
   3   2   2  480.72   11.41
   3  -2   2  500.31   10.96
   3  -2   2  493.26   11.58
   3   2   2  475.83   11.21
   3   2   3 1031.94   16.76
   3  -2   3 1034.46   16.72
   3   2   3 1085.29   17.44
   3   2   4   28.18    2.73
   3  -2   4   28.74    2.81
   3   2   4   26.01    2.76
   3   2   5  167.00    7.23
   3   2   5  165.32    6.65
   3  -2   5  163.85    6.74
   3   2   6  156.31    6.55
   3  -2   6  150.82    6.51
   3   2   7   28.07    2.71
   3  -2   7   21.64    2.47
   3   2   7   24.26    2.97
   3   2   8   50.92    3.75
   3  -2   8   44.80    3.65
   3   2   8   48.56    4.28
   3   2   9   13.48    2.33
   3  -2   9   15.34    2.18
   3   2   9   15.35    2.15
   3  -2  10   41.24    3.64
   3   2  10   40.68    3.40
   3   2  10   35.51    3.84
   3  -2  11  125.05    6.37
   3   2  11  141.22    6.62
   3   2  11  128.87    7.50
   3  -2  12   33.06    3.37
   3   2  12   29.71    3.04
   3   2  12   33.98    3.91
   3   2  13    0.67    0.42
   3   2  13    1.15    0.79
   3  -2  13    0.97    0.50
   3   2  14    0.45    0.42
   3  -2  14    0.18    0.57
   3   2  14    1.04    1.47
   3   2  15   24.88    2.86
   3  -2  15   24.25    3.02
   3   2  15   22.93    3.46
   3   2  16   16.21    2.29
   3  -2  16   14.39    2.43
   3   2  16    9.87    2.36
   3  -2  17    0.27    0.70
   3   2  17    1.60    1.31
   3   2  17    1.11    0.64
   3  -2  18    1.60    0.85
  -3   2  18    0.09    0.70
   3   2  18    1.81    1.31
   3   2  19    9.84    2.59
  -3   2  19    9.36    2.30
   3   2  20    3.20    1.21
  -3   2  20    7.55    2.21
   3   2  21   21.36    3.97
   3   2  22    4.69    2.36
   3   2  23    7.26    2.29
   3   2  24    4.97    2.11
   3  -3 -30   -2.10    1.75
   3  -3 -29   15.97    4.08
   3  -3 -28   18.97    3.98
  -3  -3 -27   18.49    4.19
   3  -3 -27   23.83    4.98
  -3  -3 -26   14.62    4.04
   3  -3 -26   21.10    4.59
  -3  -3 -25   10.89    3.62
   3  -3 -25   16.29    3.90
   3  -3 -24    4.18    2.26
  -3  -3 -24    0.85    1.64
   3  -3 -23   34.02    5.44
  -3  -3 -23   48.10    6.52
  -3  -3 -22    7.36    2.77
   3  -3 -22    4.69    2.73
   3  -3 -21    2.18    1.99
  -3  -3 -21    2.30    2.05
   3  -3 -20    4.46    2.17
  -3  -3 -20    5.49    2.33
  -3  -3 -19   35.30    5.22
   3  -3 -19   41.14    5.49
   3  -3 -18   50.82    6.00
   3   3 -18   47.75    5.34
  -3  -3 -18   44.01    5.55
  -3  -3 -17   51.91    6.15
   3   3 -17   51.70    5.10
   3  -3 -17   36.35    5.07
   3  -3 -16   34.23    4.68
   3   3 -16   26.16    3.42
  -3  -3 -16   31.77    4.53
   3  -3 -16   29.83    4.29
   3   3 -16   36.41    3.94
  -3  -3 -15   60.25    6.12
   3   3 -15   63.02    5.06
   3  -3 -15   68.38    6.39
   3  -3 -15   55.24    5.41
   3   3 -15   60.02    5.20
  -3  -3 -14   13.82    3.09
   3  -3 -14   17.45    2.88
   3   3 -14   11.54    2.35
   3   3 -14   16.77    2.76
   3  -3 -14   14.18    2.83
  -3  -3 -13  243.09   11.61
   3   3 -13  240.60    9.87
   3  -3 -13  259.03   11.39
   3  -3 -13  268.68   12.33
   3   3 -13  250.51    9.19
   3   3 -12  430.57   11.34
   3  -3 -12  457.35   15.79
  -3   3 -12  415.44    8.89
   3  -3 -12  432.18   14.68
  -3  -3 -12  432.42   15.12
   3   3 -12  452.50   13.26
   3   3 -11   44.63    3.38
   3  -3 -11   37.01    4.51
  -3   3 -11   42.03    3.03
   3   3 -11   39.62    3.88
  -3  -3 -11   50.22    4.88
   3  -3 -11   36.62    4.15
   3  -3 -10  167.34    8.74
  -3   3 -10  141.72    5.75
   3   3 -10  153.41    5.81
  -3  -3 -10  157.02    8.42
   3   3 -10  168.26    7.96
   3  -3 -10  158.64    8.77
   3  -3  -9  740.60   18.65
   3   3  -9  665.95    7.93
  -3   3  -9  696.17   13.20
   3   3  -9  700.95   11.26
   3  -3  -9  685.95   17.75
   3   3  -9  702.27   16.68
  -3  -3  -9  696.91   17.31
   3   3  -8   21.88    1.72
  -3   3  -8   25.98    2.64
   3  -3  -8   22.10    3.03
   3  -3  -8   23.89    3.31
  -3  -3  -8   22.88    3.06
   3   3  -8   25.30    1.93
   3   3  -8   25.36    3.21
  -3  -3  -7  533.36   14.15
   3   3  -7  529.84    7.49
   3  -3  -7  537.29   15.04
   3  -3  -7  533.52   14.95
   3   3  -7  538.75    9.24
  -3   3  -7  554.04   12.16
   3   3  -6  620.83   10.64
  -3  -3  -6  601.22   14.40
   3   3  -6  605.28   14.85
   3  -3  -6  596.54   15.39
  -3   3  -6  614.46   13.22
   3  -3  -6  621.54   15.73
   3   3  -6  578.85    6.41
   3   3  -5   75.23    5.21
  -3  -3  -5   65.20    4.62
   3  -3  -5   71.41    5.32
   3  -3  -5   66.96    5.03
   3   3  -5   68.46    3.78
  -3   3  -5   72.51    4.58
   3  -3  -4 1059.63   19.37
  -3  -3  -4 1079.63   17.57
   3   3  -4 1067.91   19.36
   3   3  -4 1073.00   15.53
   3  -3  -4 1069.72   20.11
  -3  -3  -3 2127.41   23.19
   3  -3  -3 2181.14   26.72
   3   3  -3 2105.96   22.84
   3   3  -3 2103.06   27.25
   3  -3  -3 2166.01   28.14
   3   3  -2  344.05    9.56
   3   3  -2  368.16   11.37
   3  -3  -2  351.92   10.68
   3  -3  -2  366.21   11.43
   3   3  -1  595.96   12.91
   3  -3  -1  612.78   14.70
   3   3  -1  608.76   14.60
   3  -3  -1  598.02   13.39
   3  -3   0  482.30   11.92
   3   3   0  471.98   12.91
   3   3   0  503.03   12.26
   3  -3   0  462.15   12.87
   3   3   1  602.02   14.63
   3  -3   1  592.92   13.04
   3  -3   1  595.98   14.31
   3   3   1  596.09   13.70
   3  -3   2  332.39   10.70
   3   3   2  363.83   11.38
   3   3   2  346.75   10.77
   3  -3   2  334.35    9.81
   3  -3   3 2099.28   24.72
   3   3   3 2175.60   27.96
   3  -3   3 2115.33   26.87
   3   3   3 2136.84   27.28
   3  -3   4 1092.71   19.07
   3   3   4 1107.16   19.98
   3   3   4 1063.39   19.96
   3  -3   4 1132.36   17.82
   3   3   5   76.92    5.33
   3   3   5   70.61    5.22
   3  -3   5   81.02    5.20
   3  -3   6  613.44   14.30
   3   3   6  616.96   15.06
   3   3   6  608.02   15.62
   3   3   7  497.86   14.59
   3   3   7  522.92   14.13
   3  -3   7  533.19   13.39
   3   3   8   23.15    2.92
   3  -3   8   23.96    2.91
   3   3   8   23.43    3.18
   3   3   9  712.12   16.74
   3  -3   9  710.19   15.70
   3   3  10  150.14    7.75
   3   3  10  146.95    8.47
   3  -3  10  144.71    7.22
   3   3  11   40.31    4.02
   3  -3  11   48.26    4.18
   3   3  11   41.31    4.67
   3   3  12  418.63   14.62
   3  -3  12  419.22   12.38
   3   3  12  436.32   13.59
   3  -3  13  253.33    9.87
   3   3  13  254.24   11.66
   3   3  13  241.27   10.23
   3   3  14   20.97    3.14
   3   3  14   17.38    3.32
   3  -3  15   51.63    4.53
   3   3  15   58.28    5.04
   3   3  15   62.74    6.09
   3  -3  16   38.65    3.99
   3   3  16   31.63    3.94
   3   3  16   41.38    5.00
   3  -3  17   39.21    4.12
   3   3  17   42.33    4.71
   3   3  17   44.54    5.50
   3   3  18   43.68    4.66
   3   3  18   56.07    6.18
  -3   3  19   35.77    4.86
   3   3  19   33.55    4.93
  -3   3  20    6.63    1.75
   3   3  20   10.85    2.98
  -3   3  21    3.80    1.77
  -3   3  21    0.41    0.97
   3   3  21    2.16    1.39
  -3   3  22   13.09    3.12
   3   3  22    7.08    3.03
   3   3  23   47.97    6.25
   3   3  24    1.49    1.04
   3   3  25   22.72    4.50
   3  -4 -29    3.24    3.05
   3  -4 -28    5.35    2.61
  -3  -4 -28    5.12    2.74
   3  -4 -27    8.91    3.30
  -3  -4 -27    7.36    2.93
  -3  -4 -26    5.28    3.49
   3  -4 -26    2.83    2.35
  -3  -4 -25   14.55    3.53
   3  -4 -25   11.67    3.62
   3  -4 -24    1.90    1.49
  -3  -4 -24    3.30    2.15
   3  -4 -23    5.77    2.59
  -3  -4 -23    6.96    2.69
  -3  -4 -22    5.34    2.71
   3  -4 -22    3.13    1.84
  -3  -4 -21    4.72    2.24
   3  -4 -21    5.35    2.65
  -3  -4 -20    3.83    1.72
   3  -4 -20    0.83    1.61
   3  -4 -19   23.16    4.37
  -3  -4 -19   27.25    4.79
  -3  -4 -18    9.32    2.84
   3  -4 -18    5.71    2.49
   3  -4 -17    0.06    1.03
  -3  -4 -17   -1.82    1.63
   3  -4 -17   -0.69    0.76
  -3  -4 -16    5.67    2.24
   3  -4 -16    4.01    2.27
   3  -4 -16    4.09    2.05
   3  -4 -15   12.35    2.52
   3  -4 -15   12.05    2.64
  -3  -4 -15   13.07    3.19
   3   4 -15   13.49    2.53
   3   4 -14   -0.08    0.52
  -3  -4 -14    1.12    1.11
   3  -4 -14    0.23    1.16
   3  -4 -14   -0.21    0.95
   3  -4 -13   12.72    2.83
  -3  -4 -13   17.14    3.28
   3  -4 -13   10.37    2.68
   3   4 -13   11.69    2.41
  -3   4 -12    7.96    1.74
   3  -4 -12    9.35    2.50
   3  -4 -12   11.11    2.52
   3   4 -12    5.03    1.46
  -3  -4 -12    9.28    2.46
   3   4 -11   42.55    4.37
   3  -4 -11   35.64    4.79
  -3  -4 -11   42.44    4.81
  -3   4 -11   31.94    3.35
   3  -4 -11   38.89    4.73
  -3   4 -10   73.16    5.11
   3  -4 -10   80.03    6.72
   3   4 -10   70.26    3.51
   3  -4 -10   67.50    6.17
  -3  -4 -10   67.16    5.73
   3  -4  -9   36.02    4.39
  -3   4  -9   32.76    3.56
  -3  -4  -9   33.42    4.07
   3  -4  -9   31.53    4.06
   3   4  -9   35.43    2.64
   3   4  -9   37.87    4.16
  -3  -4  -8   54.17    4.92
  -3   4  -8   57.46    4.64
   3   4  -8   51.34    3.45
   3  -4  -8   48.95    4.87
   3   4  -8   45.01    4.57
   3  -4  -8   60.92    5.58
  -3  -4  -7   41.81    4.12
   3  -4  -7   47.18    4.95
   3   4  -7   39.61    4.22
  -3   4  -7   36.10    3.80
   3   4  -7   38.81    3.24
   3  -4  -7   39.96    4.28
  -3  -4  -6   47.36    4.22
   3   4  -6   47.99    4.64
   3   4  -6   52.71    3.86
  -3   4  -6   58.23    4.77
   3  -4  -6   45.36    4.81
   3  -4  -6   49.60    4.69
   3   4  -5  210.05    7.94
   3   4  -5  196.30    9.38
  -3  -4  -5  221.58    8.80
  -3   4  -5  229.78    9.48
   3  -4  -5  208.22    9.45
   3  -4  -5  197.62    9.70
   3   4  -4  135.92    6.54
  -3   4  -4  115.47    6.84
   3  -4  -4  136.08    7.95
   3  -4  -4  131.80    7.23
   3   4  -4  135.66    7.70
  -3  -4  -4  131.84    6.46
  -3  -4  -3   90.77    5.03
   3   4  -3   91.62    5.47
   3  -4  -3   90.44    6.38
   3  -4  -3   86.63    5.93
   3   4  -3   82.87    6.19
  -3   4  -3   94.18    6.16
   3  -4  -2  278.75   10.12
  -3   4  -2  276.47   10.66
   3   4  -2  270.41   10.93
   3   4  -2  281.80    9.96
  -3  -4  -2  274.65    8.31
   3  -4  -2  272.94   11.01
   3   4  -1  295.85   11.37
   3   4  -1  296.61   10.43
   3  -4  -1  314.16   11.75
  -3   4  -1  294.53   11.17
   3   4   0  104.37    6.81
   3  -4   0  107.24    5.99
   3   4   0  102.27    6.29
   3  -4   0   88.16    6.25
   3  -4   1  302.71   10.01
   3   4   1  291.31   11.35
   3   4   1  314.09   11.35
   3  -4   1  313.49   11.51
   3   4   2  277.94   11.11
   3  -4   2  273.31    9.43
   3  -4   2  286.84   10.78
   3   4   2  276.79   10.77
   3   4   3  100.23    6.64
   3  -4   3   93.96    6.16
   3  -4   3   95.67    5.61
   3   4   3  101.09    6.73
   3  -4   4  137.87    6.64
   3   4   4  133.47    7.83
   3   4   4  119.92    7.48
   3  -4   4  138.71    7.44
   3   4   5  209.30    9.86
   3   4   5  209.74    9.83
   3  -4   5  219.48    8.49
   3  -4   5  219.96    9.41
   3  -4   6   43.12    3.80
   3   4   6   43.94    4.44
   3   4   6   57.36    5.29
   3  -4   6   50.58    4.60
   3   4   7   35.40    4.15
   3  -4   7   36.17    3.85
   3   4   7   39.89    4.43
   3   4   8   42.22    4.73
   3   4   8   48.38    4.85
   3  -4   8   54.70    4.73
   3   4   9   33.13    4.11
   3  -4   9   37.92    3.87
   3   4   9   33.15    4.06
   3   4  10   77.39    6.33
   3   4  10   70.62    6.36
   3  -4  10   75.26    5.52
   3   4  11   39.17    4.76
   3  -4  11   39.18    3.93
   3   4  11   37.75    4.46
   3   4  12   11.95    2.62
   3  -4  12    6.57    1.79
   3   4  12    7.37    2.27
   3   4  13   16.90    2.98
   3   4  13   16.53    3.15
   3  -4  13   16.57    2.67
   3  -4  14    0.40    0.63
   3   4  14    0.53    0.97
   3   4  14    0.54    1.27
   3   4  15   10.72    2.33
   3   4  15   13.58    3.08
   3  -4  15   16.28    2.63
   3   4  16    6.12    2.53
   3   4  16    6.41    2.51
   3   4  17    0.40    0.96
   3   4  17    0.40    1.53
  -3   4  17    4.04    1.84
   3   4  18    4.80    2.08
  -3   4  18    4.15    1.96
   3   4  18    6.53    2.10
  -3   4  19   27.70    4.56
   3   4  19   25.71    4.18
   3   4  19   18.88    3.57
   3   4  20    1.00    0.89
  -3   4  20   -0.07    1.53
  -3   4  20    1.96    0.89
  -3   4  21    7.73    2.24
   3   4  21    7.27    2.89
  -3   4  21    4.32    2.23
   3   4  22    3.47    2.51
  -3   4  22    2.69    1.95
  -3   4  22    3.46    2.18
  -3   4  23    1.27    1.63
   3   4  23    3.69    2.27
   3   4  24    3.72    2.01
   3   4  25    8.21    3.00
   3   4  26    3.30    1.97
   3  -5 -28    6.25    3.59
  -3  -5 -28    4.82    3.06
   3  -5 -27    7.69    3.07
  -3  -5 -27    3.15    2.40
   3  -5 -26    1.23    1.91
  -3  -5 -26    6.69    3.43
  -3  -5 -25    7.64    2.98
   3  -5 -25    8.31    3.00
   3  -5 -24    6.16    2.71
  -3  -5 -24    7.63    2.66
   3  -5 -23    5.54    2.09
  -3  -5 -23   10.86    2.80
   3  -5 -22    6.45    2.96
  -3  -5 -22    7.59    2.82
  -3  -5 -21    4.92    2.58
   3  -5 -21    8.51    3.21
  -3  -5 -20   12.48    3.32
   3  -5 -20   17.05    3.97
   3  -5 -19   35.42    5.35
  -3  -5 -19   27.12    4.81
  -3  -5 -18   17.84    3.92
   3  -5 -18    7.07    1.95
   3  -5 -17   36.35    5.39
  -3  -5 -17   39.04    5.42
   3  -5 -17   38.76    5.50
  -3  -5 -16   19.37    3.86
   3  -5 -16   26.90    4.19
   3  -5 -16   20.79    3.92
   3  -5 -15   38.68    5.30
   3   5 -15   38.68    4.83
  -3  -5 -15   36.67    5.16
   3  -5 -15   28.73    4.51
   3  -5 -14   60.47    6.21
  -3  -5 -14   53.62    6.00
   3   5 -14   45.35    5.20
   3  -5 -14   53.65    5.85
   3  -5 -13  160.22   10.30
  -3  -5 -13  145.07    9.70
   3  -5 -13  150.02    9.94
   3   5 -12   95.33    7.31
  -3   5 -12   80.69    6.11
   3  -5 -12   92.58    7.74
  -3  -5 -12   90.92    7.42
   3  -5 -12   86.87    7.46
  -3   5 -11   26.46    3.73
   3   5 -11   23.88    3.76
   3  -5 -11   25.37    3.87
   3  -5 -11   28.10    4.67
  -3  -5 -11   36.24    4.65
   3  -5 -10   41.52    5.02
  -3  -5 -10   36.98    4.47
   3  -5 -10   34.99    4.70
  -3   5 -10   32.33    3.82
   3   5 -10   39.97    4.66
   3   5  -9  103.77    7.53
  -3   5  -9  132.90    8.00
   3   5  -9  117.26    6.24
  -3  -5  -9  124.97    8.13
   3  -5  -9  123.48    8.29
   3  -5  -9  127.71    8.92
   3   5  -8   21.95    3.50
  -3   5  -8   19.61    3.14
  -3  -5  -8   16.98    2.86
   3  -5  -8   20.56    3.30
   3  -5  -8   23.97    3.92
   3   5  -8   23.55    2.77
   3   5  -7   71.50    6.03
   3   5  -7   65.41    4.85
  -3   5  -7   75.18    6.04
   3  -5  -7   67.89    5.96
   3  -5  -7   63.63    6.17
  -3  -5  -7   69.27    5.80
  -3   5  -6   53.69    5.12
   3  -5  -6   50.31    5.11
   3   5  -6   52.04    5.14
  -3  -5  -6   63.23    5.21
   3  -5  -6   54.06    5.55
   3   5  -6   55.38    4.64
   3   5  -5    8.05    2.06
  -3   5  -5    7.30    1.92
   3   5  -5    7.11    1.67
  -3  -5  -5    6.06    1.51
   3  -5  -5    6.04    1.79
   3  -5  -5    7.40    2.12
  -3   5  -4   50.46    5.00
   3  -5  -4   45.28    5.06
   3  -5  -4   43.88    4.72
  -3  -5  -4   47.55    4.13
   3   5  -4   46.28    4.96
   3   5  -4   45.73    4.39
   3   5  -3  153.80    9.06
   3  -5  -3  140.84    7.81
  -3   5  -3  140.93    8.44
   3   5  -3  148.41    7.98
   3  -5  -3  162.32    9.28
  -3  -5  -3  152.92    6.98
   3   5  -2   13.75    2.46
   3   5  -2   14.46    2.81
   3  -5  -2   12.79    2.70
  -3   5  -2    9.71    2.54
  -3  -5  -2   14.28    2.13
   3  -5  -2   10.92    2.24
   3  -5  -1  170.26    9.31
  -3   5  -1  179.55    9.70
  -3  -5  -1  173.10    6.58
   3   5  -1  169.13    8.79
   3   5  -1  198.88   10.08
   3  -5  -1  180.92    8.65
   3  -5   0   94.86    6.84
   3   5   0   88.01    6.73
  -3   5   0   92.48    6.85
   3  -5   0   90.51    6.07
   3   5   0   85.98    6.36
   3  -5   1  169.50    9.09
   3  -5   1  176.71    8.34
   3   5   1  163.43    9.17
   3   5   1  154.69    8.71
  -3   5   1  167.16    9.46
   3   5   2    6.91    2.08
  -3   5   2   10.74    2.55
   3   5   2    9.27    2.07
   3  -5   2    8.83    2.05
   3  -5   2   12.23    2.72
   3   5   3  152.19    8.88
   3  -5   3  131.56    7.94
   3  -5   3  138.79    7.18
   3   5   3  140.25    8.75
  -3   5   3  137.18    8.62
   3   5   4   51.57    5.38
  -3   5   4   50.84    5.30
   3  -5   4   47.19    4.16
   3  -5   4   47.33    4.78
   3   5   4   51.15    5.20
   3  -5   5    5.98    1.56
   3  -5   5    9.41    2.07
   3   5   5    6.39    2.19
   3   5   5    6.69    2.12
  -3   5   5    3.30    1.98
   3  -5   6   55.76    4.51
  -3   5   6   43.26    5.00
   3   5   6   55.97    5.52
   3   5   6   52.75    5.48
   3  -5   6   59.26    5.36
  -3   5   7   64.63    5.99
   3  -5   7   63.41    5.55
   3  -5   7   66.06    4.94
   3   5   7   63.24    5.89
   3   5   7   62.54    5.93
   3   5   8   20.13    3.45
  -3   5   8   23.50    3.98
   3  -5   8   22.43    2.98
   3   5   8   21.02    3.66
   3  -5   8   20.43    3.17
   3   5   9  130.74    8.83
  -3   5   9  133.29    9.09
   3  -5   9  131.91    7.93
   3   5   9  114.70    8.46
   3  -5   9  118.24    6.98
   3   5  10   36.82    4.72
   3   5  10   32.93    4.59
  -3   5  10   31.22    4.78
   3  -5  10   35.74    4.13
   3  -5  11   26.09    3.61
  -3   5  11   33.01    4.82
   3   5  11   27.30    4.22
   3   5  11   30.94    4.44
   3   5  12   93.87    7.75
  -3   5  12   77.63    7.20
   3   5  12   85.30    7.58
   3  -5  12   82.32    6.30
   3   5  13  149.26    9.70
   3   5  13  151.90   10.18
  -3   5  13  140.16    9.91
   3  -5  13  136.78    8.19
   3   5  14   54.57    6.29
  -3   5  14   49.26    5.90
   3   5  14   44.80    5.28
   3  -5  14   46.92    4.83
   3   5  15   45.25    5.31
  -3   5  15   43.65    5.47
   3   5  15   33.56    5.12
   3   5  16   33.36    5.07
  -3   5  16   26.00    4.35
   3   5  16   38.76    5.06
   3   5  17   39.47    5.09
  -3   5  17   33.38    5.33
   3   5  17   36.31    5.14
   3   5  18   20.18    4.39
  -3   5  18   22.74    4.29
   3   5  18   20.76    4.05
  -3   5  19   41.59    5.82
   3   5  19   23.77    4.53
   3   5  19   33.16    5.47
  -3   5  20   10.55    3.12
   3   5  20   18.97    3.78
   3   5  21    3.54    1.32
  -3   5  21    4.09    1.71
  -3   5  21    2.35    1.73
   3   5  22    8.09    2.87
  -3   5  22    3.12    2.27
  -3   5  22    5.33    2.35
   3   5  23   13.16    3.64
  -3   5  23   11.47    3.42
   3   5  24    8.10    2.15
  -3   5  24    4.35    2.71
   3   5  25   11.58    4.21
   3   5  26   10.62    3.77
   3   5  27    8.87    3.70
  -3  -6 -26    0.36    2.34
   3  -6 -26    0.21    1.15
  -3  -6 -25   -0.02    1.83
   3  -6 -25   -1.61    2.07
   3  -6 -24    5.54    2.74
  -3  -6 -24    2.38    2.08
   3  -6 -23    0.10    1.13
  -3  -6 -23    1.69    1.15
   3  -6 -22    1.38    1.78
  -3  -6 -22    1.98    2.32
  -3  -6 -21   10.23    3.21
   3  -6 -21    1.83    1.69
   3  -6 -20    0.17    0.91
  -3  -6 -20    0.17    1.73
  -3  -6 -19   18.93    4.22
   3  -6 -19   11.73    3.40
  -3  -6 -18   11.41    3.69
   3  -6 -18   13.22    3.56
  -3  -6 -17    6.63    1.98
   3  -6 -17    5.58    2.06
   3  -6 -17    7.54    2.28
  -3  -6 -16   10.42    2.92
   3  -6 -16   17.50    3.89
   3  -6 -16    9.50    2.82
  -3  -6 -15   26.60    4.89
   3  -6 -15   29.82    4.86
   3  -6 -15   37.36    5.39
   3   6 -14    5.51    1.66
  -3  -6 -14    4.63    1.59
   3  -6 -14    4.96    2.42
   3  -6 -14    3.67    1.11
   3  -6 -13   70.77    7.28
   3   6 -13   71.60    6.93
  -3  -6 -13   68.38    6.78
   3  -6 -13   82.22    7.57
  -3  -6 -12    9.32    3.17
   3  -6 -12    6.17    1.94
   3  -6 -12    7.93    2.63
   3   6 -12    7.13    2.03
  -3  -6 -11   51.58    5.64
   3  -6 -11   43.09    5.42
  -3   6 -11   53.44    5.67
   3   6 -11   46.86    5.60
   3  -6 -11   37.23    5.16
  -3   6 -10   12.83    2.99
   3   6 -10    8.31    2.16
   3  -6 -10   12.76    3.30
  -3  -6 -10   16.25    3.67
   3  -6  -9   14.95    2.65
   3   6  -9   11.81    2.75
   3  -6  -9   11.01    3.06
  -3   6  -9   10.91    2.51
  -3  -6  -9   16.68    3.33
   3   6  -8   25.66    4.04
  -3  -6  -8   25.04    3.75
   3  -6  -8   30.61    4.32
   3  -6  -8   24.85    4.33
  -3   6  -8   21.48    3.41
   3   6  -8   30.07    3.75
   3   6  -7   53.27    5.08
   3   6  -7   37.97    5.15
  -3   6  -7   49.77    5.53
  -3  -6  -7   54.37    5.27
   3  -6  -7   48.04    5.15
   3  -6  -7   52.42    5.75
   3   6  -6    9.92    2.53
  -3   6  -6   14.66    2.85
  -3  -6  -6   10.91    2.37
   3  -6  -6   11.98    3.42
   3  -6  -6    6.54    1.87
   3   6  -6   12.63    2.30
   3   6  -5   59.45    6.23
   3   6  -5   52.10    5.15
  -3   6  -5   49.92    5.42
   3  -6  -5   52.51    5.39
  -3  -6  -5   54.02    4.99
   3  -6  -5   49.14    5.62
   3   6  -4    7.52    1.99
   3  -6  -4    8.80    2.57
  -3  -6  -4    6.63    1.81
  -3   6  -4    8.70    2.87
   3  -6  -4   14.73    3.42
   3   6  -4   13.45    2.76
  -3  -6  -3   54.55    4.51
  -3   6  -3   70.10    6.31
   3  -6  -3   64.19    6.26
   3   6  -3   57.43    5.52
   3  -6  -3   58.37    5.51
   3   6  -3   62.88    6.19
   3   6  -2   77.20    6.25
  -3  -6  -2   70.73    4.93
  -3   6  -2   55.17    5.73
   3   6  -2   75.61    6.70
   3  -6  -2   81.18    7.06
   3  -6  -2   74.89    5.92
   3   6  -1   59.77    5.55
  -3   6  -1   56.67    5.83
   3   6  -1   52.54    5.54
  -3  -6  -1   49.12    3.90
   3  -6  -1   43.25    4.39
   3  -6  -1   51.20    5.75
   3  -6   0    1.65    0.81
  -3   6   0    0.82    1.37
   3   6   0    2.84    0.94
   3   6   0    5.46    1.92
   3  -6   0    2.06    1.49
   3   6   1   49.78    5.49
   3  -6   1   43.35    4.33
  -3   6   1   48.72    5.55
   3  -6   1   44.07    5.01
   3   6   1   57.38    5.65
   3   6   2   75.81    6.94
  -3   6   2   71.73    6.76
   3   6   2   71.42    6.56
   3  -6   2   85.37    6.95
   3  -6   2   71.44    5.49
   3  -6   3   53.20    4.86
  -3   6   3   56.72    6.01
   3   6   3   53.60    5.94
   3  -6   3   59.19    5.85
   3   6   3   57.72    5.85
   3   6   4    6.19    2.10
   3   6   4    8.30    2.94
   3  -6   4    7.09    1.68
  -3   6   4   10.29    2.50
   3  -6   4   10.48    2.43
   3   6   5   53.49    5.93
   3   6   5   58.14    6.08
   3  -6   5   53.41    5.42
  -3   6   5   48.29    5.69
   3  -6   5   49.21    4.49
   3  -6   6   13.17    2.87
  -3   6   6   14.00    2.76
   3  -6   6    9.86    2.02
   3   6   6   17.23    3.43
   3   6   6    5.80    1.91
   3   6   7   51.45    5.95
  -3   6   7   41.45    5.40
   3   6   7   41.81    5.17
   3  -6   7   53.89    5.42
   3  -6   7   50.79    4.69
   3   6   8   35.30    4.91
   3   6   8   31.37    4.71
   3  -6   8   18.88    3.21
  -3   6   8   23.50    3.86
   3  -6   8   23.49    3.17
   3   6   9   11.91    2.99
   3  -6   9   15.00    3.09
   3  -6   9   12.67    2.59
  -3   6   9   10.37    3.32
   3   6   9   15.17    3.25
   3  -6  10   11.68    2.40
   3   6  10   11.88    2.67
   3   6  10   18.93    3.94
  -3   6  10   12.28    3.03
   3  -6  10   13.31    2.62
   3   6  11   44.29    5.80
  -3   6  11   40.48    5.44
   3   6  11   49.56    5.87
   3  -6  11   43.22    4.87
   3  -6  11   47.52    4.97
   3  -6  12   10.38    2.36
   3   6  12    4.10    1.78
   3   6  12    4.78    1.94
  -3   6  12    3.95    2.48
   3   6  13   71.58    7.35
  -3   6  13   68.56    7.36
   3   6  13   70.00    6.83
   3  -6  13   67.64    6.17
   3   6  14    6.14    2.48
   3   6  14    1.77    1.97
  -3   6  14    3.54    1.23
   3   6  15   30.07    4.97
   3   6  15   37.50    5.52
  -3   6  15   28.29    4.92
  -3   6  16    8.82    2.96
   3   6  16   12.24    3.42
   3   6  16   15.08    3.30
   3   6  17    5.22    2.03
   3   6  17    1.78    0.98
  -3   6  17    6.69    3.04
  -3   6  18   16.39    3.82
   3   6  18   15.54    3.90
   3   6  18    9.41    2.85
  -3   6  19   24.26    5.36
   3   6  19   17.23    3.94
   3   6  19   14.89    3.99
   3   6  20    0.69    1.50
   3   6  20    3.23    1.53
  -3   6  20   -0.90    1.45
   3   6  21    1.72    2.26
  -3   6  21    3.24    1.75
  -3   6  21    2.93    2.13
  -3   6  22   -0.62    1.63
  -3   6  22   -0.03    1.73
   3   6  22    0.70    1.38
  -3   6  23    0.29    1.56
   3   6  23    1.68    1.79
   3   6  24    4.44    3.20
  -3   6  24    6.31    3.00
  -3   6  25    5.07    3.03
   3   6  25    3.61    2.05
   3   6  26    3.41    2.77
   3  -7 -24    5.28    3.38
  -3  -7 -24    6.00    2.54
  -3  -7 -23    7.16    2.94
   3  -7 -23    6.76    2.65
   3  -7 -22    5.92    2.56
  -3  -7 -22    9.72    3.68
  -3  -7 -21    7.26    3.23
   3  -7 -21    2.61    1.83
  -3  -7 -20    9.88    3.57
   3  -7 -20   -1.58    2.17
  -3  -7 -19   12.65    3.36
   3  -7 -19   16.18    4.05
   3  -7 -18   -0.23    2.26
  -3  -7 -18   -0.12    1.95
  -3  -7 -17   19.62    4.02
   3  -7 -17   14.86    4.46
   3  -7 -16   14.20    3.95
   3  -7 -16   20.21    4.15
  -3  -7 -15   10.20    2.52
   3  -7 -15    9.84    2.37
   3  -7 -15    7.82    2.94
   3   7 -14    6.08    3.06
   3  -7 -14   13.95    3.86
  -3  -7 -14    8.99    2.91
   3  -7 -14   12.14    3.40
   3  -7 -13   28.39    4.74
   3  -7 -13   35.35    5.19
   3   7 -13   30.70    4.78
  -3  -7 -13   27.62    4.79
   3   7 -12    2.50    1.69
   3  -7 -12    6.62    2.85
   3  -7 -12    7.80    2.75
  -3  -7 -12    6.32    2.20
  -3  -7 -11    2.06    1.58
   3  -7 -11    3.09    1.84
   3   7 -11   -0.50    1.30
   3  -7 -11   -0.30    1.68
  -3   7 -11    2.13    1.96
   3  -7 -10   17.87    3.25
   3  -7 -10   16.53    3.56
   3   7 -10   21.00    4.18
  -3   7 -10   21.15    3.75
  -3  -7 -10   19.87    3.44
   3  -7  -9   49.43    6.15
  -3   7  -9   49.96    6.33
  -3  -7  -9   58.89    6.18
   3  -7  -9   49.70    6.07
   3   7  -9   62.44    6.88
   3   7  -8   15.19    3.43
  -3  -7  -8   13.18    2.89
  -3   7  -8    8.17    2.21
   3  -7  -8   15.73    3.76
   3  -7  -8   14.81    3.28
  -3   7  -7   14.80    3.09
   3   7  -7   17.39    3.32
   3  -7  -7   16.74    3.45
   3  -7  -7   20.68    3.81
   3   7  -7   18.54    3.48
  -3  -7  -7   10.12    2.58
   3   7  -6   43.36    5.62
  -3   7  -6   38.24    5.38
   3   7  -6   36.08    4.63
  -3  -7  -6   33.73    4.23
   3  -7  -6   35.96    4.81
   3  -7  -6   36.35    5.34
   3   7  -5    9.93    2.53
   3   7  -5   15.66    3.41
  -3  -7  -5   10.26    2.36
  -3   7  -5   17.35    3.59
   3  -7  -5   17.77    3.68
   3  -7  -5   12.70    3.19
   3   7  -4   67.50    6.85
  -3   7  -4   68.43    6.94
  -3  -7  -4   64.37    5.48
   3  -7  -4   73.94    6.69
   3   7  -4   65.42    6.36
   3  -7  -4   66.52    6.80
   3   7  -3   66.01    6.84
  -3   7  -3   63.33    6.92
   3   7  -3   82.43    7.14
   3  -7  -3   67.04    6.19
  -3  -7  -3   61.39    5.08
   3  -7  -3   82.28    7.62
   3   7  -2   51.35    5.97
   3   7  -2   52.32    6.38
   3  -7  -2   50.09    5.31
  -3   7  -2   38.60    5.16
   3  -7  -2   47.13    6.00
   3   7  -1  146.29   10.33
   3  -7  -1  166.77    9.45
  -3   7  -1  166.98   10.85
   3  -7  -1  151.15   10.29
   3   7  -1  135.45    9.41
   3   7   0  118.11    9.24
   3  -7   0  108.17    8.58
  -3   7   0  116.45    8.98
   3   7   0  107.62    8.40
   3  -7   0   92.25    7.00
  -3   7   1  137.20    9.87
   3  -7   1  136.26    8.33
   3   7   1  161.98   10.27
   3  -7   1  159.73   10.60
   3   7   1  129.88    9.58
   3   7   2   42.00    5.34
  -3   7   2   48.92    5.74
   3  -7   2   45.81    5.47
   3  -7   2   44.90    4.78
   3   7   2   54.04    6.04
   3   7   3   73.42    7.37
  -3   7   3   78.87    7.41
   3  -7   3   75.15    6.18
   3  -7   3   76.24    7.19
   3   7   3   64.84    6.65
   3  -7   4   57.47    5.25
   3   7   4   76.05    7.59
  -3   7   4   65.77    7.12
   3  -7   4   70.09    6.91
   3   7   4   68.58    7.00
  -3   7   5   15.82    3.36
   3   7   5   14.09    3.31
   3  -7   5   14.16    3.24
   3  -7   5   13.88    2.75
   3   7   5   16.51    3.37
   3   7   6   39.84    5.31
  -3   7   6   44.42    5.80
   3  -7   6   47.64    5.47
   3   7   6   38.41    5.37
   3   7   7   12.99    3.59
   3   7   7   28.30    4.49
  -3   7   7   18.38    3.71
   3  -7   7   20.91    3.74
   3   7   8   10.57    2.91
   3   7   8   11.83    2.99
  -3   7   8   11.01    2.81
   3  -7   8   11.90    3.00
   3   7   9   58.10    6.51
   3   7   9   54.75    6.36
   3  -7   9   49.58    5.66
  -3   7   9   56.32    6.77
   3  -7  10   13.35    2.84
   3   7  10   21.90    4.02
   3   7  10   26.55    4.65
  -3   7  10   20.91    4.26
   3   7  11   -1.24    1.42
   3   7  11    0.14    1.72
  -3   7  11    2.63    1.22
   3  -7  11    3.80    2.03
   3   7  12    7.37    2.65
  -3   7  12    8.17    2.49
   3  -7  12    6.04    2.02
   3   7  12    4.62    1.82
   3   7  13   32.53    5.52
   3   7  13   36.23    5.31
  -3   7  13   35.44    5.60
   3   7  14    8.81    2.96
  -3   7  14    9.64    3.01
   3   7  14   14.27    3.37
   3   7  15    8.04    2.77
  -3   7  15    8.43    3.29
   3   7  15    5.79    2.57
   3   7  16   27.54    5.09
  -3   7  16   27.48    5.15
   3   7  16   23.92    5.20
   3   7  17    9.74    2.99
   3   7  17   10.50    3.63
  -3   7  17    9.61    2.41
  -3   7  18    1.26    1.74
   3   7  18   -1.99    1.97
   3   7  18    1.30    1.68
  -3   7  19   15.09    3.87
   3   7  19   11.63    3.80
   3   7  19   14.15    3.55
   3   7  20    1.68    2.26
   3   7  20    6.43    2.11
  -3   7  20    0.91    1.41
  -3   7  21    3.96    2.35
  -3   7  21    8.14    2.73
   3   7  21    3.86    1.88
   3   7  22    5.35    2.72
  -3   7  22    1.02    1.99
  -3   7  23    4.25    2.43
   3   7  23    5.23    2.56
   3   7  24    5.59    2.69
  -3   7  24    5.61    2.66
  -3  -8 -22    3.45    2.88
   3  -8 -22    9.76    3.47
  -3  -8 -21    1.85    2.72
   3  -8 -21    2.46    1.23
  -3  -8 -20    1.78    1.88
   3  -8 -20    6.99    2.34
   3  -8 -19   -2.23    2.80
  -3  -8 -19   -0.63    1.62
  -3  -8 -18   -0.45    1.92
   3  -8 -18    1.82    1.75
  -3  -8 -17    5.31    2.31
   3  -8 -17    3.97    2.50
   3  -8 -16    1.91    1.49
  -3  -8 -16    2.89    2.59
  -3  -8 -15   13.92    3.93
   3  -8 -15   12.89    3.11
   3  -8 -15   19.81    4.49
  -3  -8 -14    5.26    2.97
   3  -8 -14    2.78    1.49
   3  -8 -14    3.72    2.36
  -3  -8 -13   30.27    4.95
   3  -8 -13   17.86    4.27
   3  -8 -13   27.80    5.16
   3   8 -13   17.69    4.34
   3   8 -12    7.35    2.13
  -3  -8 -12    1.24    1.80
   3  -8 -12    4.71    2.25
   3  -8 -12    6.14    1.83
   3   8 -11   -0.38    1.27
  -3  -8 -11    0.07    0.95
   3  -8 -11   -0.17    1.54
   3  -8 -11    0.99    1.79
  -3   8 -10    8.64    3.07
  -3  -8 -10    6.97    1.97
   3  -8 -10    4.77    1.88
   3  -8 -10    1.59    1.01
   3   8 -10    6.11    2.80
   3  -8  -9   19.67    3.97
  -3  -8  -9   13.79    3.32
   3  -8  -9   18.99    4.21
   3   8  -9   18.73    3.69
  -3   8  -9   20.89    4.39
   3  -8  -8    8.62    2.68
  -3  -8  -8    4.34    1.02
  -3   8  -8    4.32    2.28
   3  -8  -8    4.11    1.95
   3   8  -8    6.53    2.23
   3  -8  -7   14.11    3.44
  -3   8  -7    4.43    1.69
   3  -8  -7   10.47    3.13
   3   8  -7   10.96    2.94
   3  -8  -6    2.58    0.97
  -3   8  -6    1.53    0.97
   3   8  -6    3.76    2.40
   3   8  -6   -1.34    1.43
   3  -8  -6    0.75    1.21
  -3   8  -5   11.16    2.83
   3   8  -5    9.48    3.16
   3  -8  -5   11.51    2.79
   3  -8  -5    4.79    2.40
   3   8  -5    6.06    2.06
  -3   8  -4   25.56    4.58
   3   8  -4   25.53    4.37
   3  -8  -4   22.18    4.06
   3  -8  -4   26.52    4.43
   3   8  -4   18.20    3.90
   3   8  -3   13.28    3.73
   3   8  -3    9.14    2.67
  -3   8  -3    9.64    2.91
   3  -8  -3    8.43    2.24
   3  -8  -3   10.54    3.46
   3   8  -2    3.08    1.39
  -3   8  -2    1.96    0.90
   3  -8  -2    1.47    1.45
   3  -8  -2    3.43    2.53
   3   8  -2   -0.94    0.93
   3   8  -1   15.36    3.47
   3   8  -1   17.23    3.58
   3  -8  -1   19.08    3.96
   3  -8  -1   15.35    2.99
  -3   8  -1   14.79    3.75
   3   8   0    1.84    0.91
   3   8   0    2.26    2.05
  -3   8   0    0.25    0.99
   3  -8   0    1.65    0.85
  -3   8   1    9.93    3.10
   3   8   1   16.88    3.63
   3  -8   1   11.85    2.89
   3   8   1    7.48    2.35
   3   8   2    0.13    1.53
  -3   8   2    1.73    1.75
   3  -8   2    2.49    1.85
   3   8   2    1.60    2.09
   3   8   3   10.60    2.82
   3   8   3    9.46    2.93
  -3   8   3    9.82    2.93
   3  -8   3   10.13    2.78
  -3   8   4   24.11    4.70
   3   8   4   18.52    3.69
   3  -8   4   21.05    3.95
   3   8   4   17.72    3.82
  -3   8   5    6.02    2.08
   3   8   5    8.22    3.02
   3  -8   5    6.56    2.20
   3   8   5   10.41    3.40
   3   8   6    4.30    1.89
   3  -8   6    0.34    1.16
  -3   8   6    3.44    2.22
   3   8   6    1.69    1.69
  -3   8   7    2.93    1.04
   3   8   7    7.99    2.75
   3  -8   7    5.92    2.23
   3   8   8    7.29    2.17
   3   8   8    8.12    3.43
  -3   8   8   12.96    3.69
   3  -8   8    8.19    2.52
   3   8   9   14.40    3.43
   3   8   9   15.10    3.84
   3  -8   9   17.88    3.56
  -3   8   9   24.00    4.66
  -3   8  10    4.06    2.57
   3   8  10    4.65    1.73
   3  -8  10    2.96    1.32
   3   8  10    2.29    1.20
  -3   8  11   -0.57    1.85
   3   8  11   -0.49    1.65
   3   8  11    3.21    2.57
   3  -8  11    1.13    1.60
   3   8  12    7.32    2.88
  -3   8  12    5.42    2.98
   3   8  12    6.60    2.27
   3   8  13   34.17    5.46
   3   8  13   24.80    4.93
  -3   8  13   17.84    4.40
   3   8  14    3.78    2.49
   3   8  14    1.58    1.27
  -3   8  14    3.12    2.40
   3   8  15   19.84    4.39
   3   8  15   15.39    3.57
  -3   8  15    8.00    2.53
  -3   8  16    3.43    3.23
   3   8  16    3.26    2.57
   3   8  16    3.09    1.62
   3   8  17    3.44    2.44
  -3   8  17    0.47    1.40
   3   8  17    6.61    3.04
   3   8  18   -0.43    1.96
   3   8  18    2.06    1.88
  -3   8  18   -0.36    1.23
  -3   8  19    5.91    2.93
   3   8  19    0.09    2.20
   3   8  19    1.92    2.21
   3   8  20    0.16    1.14
   3   8  20    1.19    1.48
  -3   8  20    5.93    2.39
  -3   8  20    1.66    1.97
   3   8  21    2.28    2.46
  -3   8  21    1.60    2.10
  -3   8  21    8.74    3.32
   3   8  22    5.45    2.50
  -3   8  22    7.87    3.88
  -3   8  22    0.29    1.28
   3  -9 -19    8.51    3.42
  -3  -9 -19    9.44    3.84
  -3  -9 -18   -1.79    2.48
   3  -9 -18    0.01    1.50
   3  -9 -17    2.00    2.30
  -3  -9 -17    0.57    1.74
  -3  -9 -16    0.62    2.72
   3  -9 -16   -1.29    1.44
  -3  -9 -15    8.52    2.90
   3  -9 -15    6.04    2.90
   3  -9 -14    3.92    1.85
   3  -9 -14    8.68    3.47
   3  -9 -13   15.03    4.20
   3  -9 -13   10.53    3.91
   3  -9 -12   -0.33    2.37
   3  -9 -12    0.50    1.86
   3   9 -12    5.00    2.55
   3  -9 -11    3.67    1.36
   3   9 -11    1.20    0.97
   3   9 -10   20.93    4.63
   3  -9 -10   17.21    3.96
   3  -9 -10    9.00    3.16
   3  -9  -9   29.15    4.88
   3   9  -9   32.92    5.39
  -3   9  -9   28.95    5.28
   3  -9  -9   35.68    5.71
   3  -9  -8    9.44    2.90
   3  -9  -8   16.72    4.01
  -3   9  -8   18.16    4.24
   3   9  -8   14.84    3.87
   3  -9  -7   26.18    4.88
   3  -9  -7   21.22    4.23
   3   9  -7   25.46    4.66
  -3   9  -7   24.53    4.69
  -3   9  -6   21.19    4.40
   3   9  -6   26.45    5.10
   3  -9  -6   20.96    4.59
   3   9  -5   16.70    3.73
  -3   9  -5   20.04    4.57
   3  -9  -5   21.55    4.27
   3   9  -4   35.79    5.82
  -3   9  -4   38.21    5.87
   3  -9  -4   32.89    5.28
   3   9  -4   42.60    5.86
  -3   9  -3   46.01    6.34
   3   9  -3   53.93    6.77
   3   9  -3   44.93    5.97
   3  -9  -3   50.61    6.51
   3   9  -2   21.51    4.68
   3   9  -2   10.64    2.84
   3  -9  -2   19.79    4.06
  -3   9  -2   14.38    3.74
   3   9  -1   39.97    5.94
  -3   9  -1   35.18    5.70
   3   9  -1   42.35    5.99
   3  -9  -1   43.46    6.05
   3   9   0   19.92    4.12
  -3   9   0   25.22    4.71
   3   9   0   16.10    3.71
   3  -9   0   23.05    4.52
  -3   9   1   43.53    6.04
   3  -9   1   41.47    5.99
   3   9   1   39.59    6.11
   3   9   1   30.74    5.12
   3   9   2   16.05    3.94
   3  -9   2   15.90    3.89
  -3   9   2   13.08    3.38
   3   9   2   12.37    3.14
  -3   9   3   41.82    6.19
   3   9   3   42.60    6.00
   3  -9   3   50.28    6.55
   3   9   3   45.20    6.14
  -3   9   4   34.96    5.80
   3   9   4   37.36    5.74
   3   9   4   42.67    5.88
   3  -9   4   40.14    5.95
   3   9   5   18.80    4.07
   3   9   5   22.27    4.57
   3  -9   5   19.71    4.02
  -3   9   5   17.84    4.41
   3   9   6    9.31    2.89
   3   9   6   22.44    4.55
   3  -9   6   27.04    5.25
  -3   9   6   26.15    4.96
  -3   9   7   25.17    4.98
   3   9   7   23.95    4.37
   3  -9   7   13.66    3.51
   3   9   7   18.56    3.99
   3  -9   8   13.88    3.32
   3   9   8   15.48    4.07
  -3   9   8   17.65    3.77
   3   9   8   17.72    4.46
   3   9   9   40.06    6.27
   3   9   9   29.23    5.31
   3  -9   9   28.46    5.21
  -3   9  10   17.84    4.05
   3   9  10    8.67    2.44
   3   9  10   10.24    3.32
   3   9  11    3.61    2.23
  -3   9  11   -1.26    2.14
   3   9  11    6.38    2.69
   3   9  12    4.06    2.23
  -3   9  12    2.60    2.17
   3   9  12    0.70    1.46
  -3   9  13    5.72    3.15
   3   9  13    7.41    3.10
   3   9  13    5.34    2.65
   3   9  14    5.47    2.20
   3   9  14    4.80    2.59
  -3   9  14    1.69    1.66
   3   9  15    6.27    2.65
  -3   9  15    1.24    1.19
   3   9  15    5.75    2.83
   3   9  16    1.95    1.57
  -3   9  16    5.33    2.19
   3   9  16    5.84    2.66
   3   9  17    0.92    1.57
   3   9  17    2.69    1.95
  -3   9  17    0.93    1.44
   3   9  18   -0.31    2.38
  -3   9  18    1.14    1.58
   3   9  18   -1.54    1.99
   3   9  19    5.57    2.51
  -3   9  19    3.93    2.47
  -3   9  19    6.17    2.14
   3   9  19    8.02    3.03
   3 -10 -15    1.34    1.72
   3 -10 -12    1.98    1.78
   3  10 -11    7.68    3.49
   3 -10 -11   10.70    3.11
   3  10 -10    4.97    3.25
   3 -10 -10   12.07    3.94
   3 -10  -9    4.89    2.06
   3  10  -9    9.51    2.90
   3 -10  -8   10.97    3.33
   3  10  -8    4.56    2.44
  -3  10  -8   15.99    3.85
  -3  10  -7   -0.84    1.01
   3 -10  -7   -0.54    1.13
   3  10  -6   -0.68    1.57
  -3  10  -6    0.17    1.89
   3 -10  -6    0.98    2.70
  -3  10  -5   11.17    3.75
   3  10  -5   14.57    3.89
   3 -10  -5   14.15    3.59
   3 -10  -4   15.00    3.47
   3  10  -4   12.35    3.72
  -3  10  -4   18.43    4.24
  -3  10  -3   35.92    6.08
   3  10  -3   39.63    6.47
   3  10  -3   35.65    5.47
   3 -10  -3   28.37    5.43
   3  10  -2   12.32    3.21
  -3  10  -2    7.81    3.15
   3  10  -2    5.94    2.23
   3 -10  -2    5.77    3.15
  -3  10  -1    7.19    3.28
   3  10  -1    2.59    2.24
   3  10  -1    2.52    1.22
   3 -10  -1    8.30    3.34
   3  10   0    4.10    2.44
  -3  10   0    1.98    1.19
   3  10   0    4.09    1.75
   3 -10   0    0.66    1.42
   3  10   1    4.79    2.37
   3  10   1    4.84    2.53
  -3  10   1    4.84    2.79
   3 -10   1    4.75    1.77
   3 -10   2    5.68    2.67
  -3  10   2    6.13    2.62
   3  10   2    6.67    2.39
   3  10   2    6.74    2.88
  -3  10   3   40.50    6.32
   3  10   3   37.19    6.21
   3  10   3   31.20    5.59
   3 -10   3   41.04    6.28
   3  10   4   21.37    4.72
  -3  10   4   15.02    4.16
   3  10   4   15.71    4.08
   3 -10   4   21.48    4.83
  -3  10   5    4.66    1.65
   3  10   5   15.64    4.29
   3  10   5   14.17    3.99
   3 -10   5   21.32    4.70
   3  10   6    2.52    2.18
   3  10   6    1.14    1.21
   3 -10   6    3.08    2.21
  -3  10   6    0.57    1.08
   3  10   7    1.44    2.45
  -3  10   7    5.57    3.07
   3 -10   7    1.31    1.16
   3  10   7   -0.81    1.80
   3  10   8    7.53    2.87
   3  10   8   11.56    3.44
  -3  10   8   12.16    3.89
   3  10   9    9.98    3.14
  -3  10   9    6.29    2.71
   3  10   9    2.95    2.05
   3  10  10    2.89    2.15
  -3  10  10    8.09    3.13
   3  10  10    8.93    3.41
   3  10  11    6.98    3.15
  -3  10  11   14.08    4.24
   3  10  11   12.17    3.64
   3  10  12    1.66    1.00
   3  10  12    3.80    1.48
  -3  10  12    1.64    2.15
   3  10  13    1.52    2.39
  -3  10  13    2.46    1.40
   3  10  13   -1.99    1.77
  -3  10  14    2.21    2.43
   3  10  14    2.61    2.49
   3  10  14    3.88    3.09
   3  10  15    5.11    3.03
  -3  10  15   -1.86    2.86
   3  10  15   -1.40    1.55
   3 -11  -9    4.37    2.06
   3  11  -9    5.45    1.80
   3  11  -8    5.26    2.65
   3 -11  -8   12.75    4.13
  -3  11  -8    6.40    3.60
   3  11  -7   12.12    3.38
  -3  11  -7    4.69    2.61
   3 -11  -7   13.20    4.32
  -3  11  -6    0.65    1.56
   3 -11  -6    1.49    1.10
   3  11  -5    3.97    2.99
  -3  11  -5    3.89    2.36
   3 -11  -5    2.37    1.84
   3  11  -4    5.60    3.19
  -3  11  -4    0.91    1.22
   3 -11  -4    6.24    2.62
  -3  11  -3    0.66    1.02
   3 -11  -3   -1.70    2.15
   3  11  -3   -0.60    1.73
   3  11  -2   -0.14    1.24
  -3  11  -2    2.18    2.45
   3 -11  -2    6.40    3.53
   3  11  -1    0.26    1.10
  -3  11  -1    1.18    1.22
   3 -11  -1    1.73    1.12
   3  11  -1   -1.71    1.77
  -3  11   0   -1.70    2.28
   3 -11   0   -0.91    1.99
   3  11   0   -1.60    1.45
   3  11   0   -2.65    2.39
   3 -11   1    0.67    1.64
   3  11   1    1.10    1.89
  -3  11   1    3.13    2.61
   3  11   1    0.33    1.26
   3 -11   2    2.29    2.01
   3  11   2    0.66    1.34
  -3  11   2    1.99    1.80
   3  11   2   -2.43    2.36
   3  11   3    1.63    1.61
   3  11   3   -0.95    1.73
   3 -11   3    2.18    1.94
  -3  11   3    0.92    1.25
   3  11   4    1.16    0.96
   3  11   4    5.02    2.79
  -3  11   4    6.97    2.72
   3 -11   4    0.17    1.70
   3  11   5    2.98    2.46
  -3  11   5   -0.45    0.99
   3 -11   5    1.44    2.08
   3  11   5    4.28    3.48
   3  11   6    5.12    2.26
   3  11   6    1.23    1.29
  -3  11   6    4.07    1.57
   3 -11   6    0.09    1.76
   3  11   7   10.71    3.38
   3  11   7    8.92    3.35
  -3  11   7    6.76    2.29
   3  11   8    9.73    3.63
   3  11   8   11.64    4.17
  -3  11   8    3.43    1.20
   3  11   9    4.12    2.76
  -3  11   9    2.72    1.31
   4   0 -30   -0.77    1.54
   4   0 -29    3.48    3.12
   4   0 -28    1.85    2.04
   4   0 -27   18.31    3.91
   4   0 -26   47.07    6.49
   4   0 -25   11.51    3.47
   4   0 -24   10.22    2.78
   4   0 -23   23.56    4.20
   4   0 -22   47.07    6.36
   4   0 -21   34.15    5.05
   4   0 -20   45.58    5.57
   4   0 -19   82.17    7.44
   4   0 -18  107.03    8.24
   4   0 -17  362.80   14.80
   4   0 -16  111.26    7.90
   4   0 -15  171.55    9.44
   4   0 -14  121.33    7.73
   4   0 -14  130.56    5.77
   4   0 -13   62.85    3.92
   4   0 -12   61.15    3.87
   4   0 -12   56.97    5.04
   4   0 -11  755.29   17.73
   4   0 -11  800.85   13.30
   4   0 -10   60.69    3.60
   4   0 -10   59.95    4.80
   4   0  -9  817.82   17.31
   4   0  -9  801.14   12.86
   4   0  -8  183.20    6.13
   4   0  -8  179.83    7.76
   4   0  -7   36.69    3.27
   4   0  -7   32.86    3.20
   4   0  -7   35.17    2.62
   4   0  -6   82.86    4.86
   4   0  -6   91.02    5.10
   4   0  -6   76.32    3.91
   4   0  -5  270.12    7.40
   4   0  -5  270.05    8.56
   4   0  -5  274.64    8.63
   4   0  -4   89.90    4.76
   4   0  -4   92.04    4.26
   4   0  -4   93.09    4.90
   4   0  -3 1070.22   16.06
   4   0  -3 1098.57   14.78
   4   0  -3 1091.32   16.44
   4   0  -2  701.75   12.83
   4   0  -2  685.99   12.72
   4   0  -1  401.49    9.38
   4   0  -1  408.53    9.70
   4   0  -1  411.62    9.62
   4   0   0  440.17    9.82
   4   0   0  460.34   10.15
   4   0   1  429.24    9.41
   4   0   1  399.83    9.57
   4   0   2  721.63   11.97
   4   0   2  727.87   13.26
   4   0   3 1081.61   16.62
   4   0   3 1055.01   14.08
   4   0   4   91.67    4.02
   4   0   4   91.94    4.99
   4   0   5  273.34    6.78
   4   0   5  271.67    8.84
   4   0   6   91.58    5.23
   4   0   6   82.09    3.65
   4   0   7   35.35    2.31
   4   0   7   38.21    3.57
   4   0   8  191.02    8.03
   4   0   8  176.73    5.00
   4   0   9  811.90   10.26
   4   0   9  794.92   16.56
   4   0  10   62.47    4.73
   4   0  11  797.93   17.30
   4   0  11  747.06    8.89
   4   0  12   63.07    4.98
   4   0  12   51.74    2.10
   4   0  13   69.45    5.42
   4   0  14  122.05    7.34
   4   0  15  165.58    8.83
  -4   0  16   87.20    4.90
   4   0  16   86.42    6.47
  -4   0  17   48.64    2.74
   4   0  17  368.97   14.00
   4   0  18   94.99    7.32
   4   0  19   62.23    6.12
   4   0  20   56.55    5.96
   4   0  21   43.53    5.45
   4   0  22   32.14    4.52
   4  -1 -30   -1.69    2.08
   4  -1 -29    1.28    1.22
   4   1 -28   -4.12    1.49
   4  -1 -28    1.08    1.23
   4   1 -27   -2.00    1.20
   4  -1 -27   -1.44    1.44
   4  -1 -26   -2.71    2.09
   4   1 -26    0.90    1.01
   4  -1 -25    2.31    2.18
   4   1 -25    4.42    2.43
   4  -1 -24   29.95    4.99
   4   1 -24   16.89    3.78
   4   1 -23    2.59    2.49
   4  -1 -23    8.61    2.62
   4   1 -22    9.29    2.36
   4  -1 -22    8.13    2.37
   4  -1 -21    2.19    1.87
   4   1 -21    2.35    1.65
   4   1 -20    2.24    1.42
   4  -1 -20    1.10    1.31
   4   1 -19   26.44    4.43
   4  -1 -19   21.97    3.94
   4  -1 -18   29.45    4.38
   4   1 -18   25.34    3.90
   4   1 -17   14.37    3.10
   4  -1 -17   13.08    2.81
   4  -1 -16  151.66    7.88
   4  -1 -16  175.42   10.05
   4   1 -16  173.48    9.69
   4  -1 -15    2.84    1.65
   4  -1 -15    1.82    0.44
   4   1 -15    3.99    1.58
   4  -1 -14   32.99    3.66
   4   1 -14   32.92    3.88
   4  -1 -14   27.11    3.81
   4  -1 -13   30.57    3.26
   4  -1 -13   23.35    3.41
   4   1 -13   25.56    3.53
   4  -1 -12   28.07    3.69
   4   1 -12   26.29    3.34
   4  -1 -12   35.85    3.48
   4   1 -12   31.69    3.40
   4   1 -11   64.82    4.71
   4  -1 -11   64.08    4.61
   4   1 -11   66.37    4.83
   4   1 -11   55.97    2.55
   4  -1 -11   61.40    5.40
   4  -1 -10  428.00   13.61
   4  -1 -10  417.88   11.44
   4   1 -10  414.92    6.70
   4   1 -10  431.63   12.10
   4   1 -10  428.95   12.25
   4  -1  -9    8.14    1.89
   4   1  -9    9.50    1.82
   4  -1  -9   10.52    1.76
   4   1  -9    7.81    1.01
   4   1  -9   10.49    1.80
   4  -1  -8  134.79    6.16
   4  -1  -8  131.42    7.11
   4   1  -8  135.75    4.16
   4   1  -8  135.84    6.23
   4   1  -8  133.13    6.47
   4  -1  -7   21.38    2.82
   4   1  -7   21.78    1.73
   4   1  -7   20.92    2.28
   4   1  -7   20.09    2.45
   4  -1  -7   22.17    2.52
   4   1  -6   93.87    3.75
   4  -1  -6   89.53    5.45
   4  -1  -6  102.07    5.23
   4   1  -6   97.75    4.83
   4   1  -6   92.23    5.28
   4   1  -5   63.36    3.73
   4   1  -5   61.92    3.09
   4  -1  -5   66.34    4.64
   4  -1  -5   58.42    3.94
   4   1  -5   60.79    4.14
   4  -1  -4  247.33    8.07
   4  -1  -4  247.39    8.65
   4   1  -4  237.21    7.16
   4   1  -4  259.10    6.62
   4   1  -4  256.48    8.28
   4  -1  -3   31.90    2.93
   4   1  -3   29.57    2.83
   4   1  -3   27.09    2.16
   4  -1  -3   25.50    2.69
   4   1  -3   26.22    2.28
   4  -1  -2   55.08    3.81
   4   1  -2   55.40    3.31
   4  -1  -2   55.78    3.95
   4   1  -2   54.37    3.25
   4   1  -2   56.38    3.86
   4   1  -1   16.00    1.79
   4  -1  -1   17.42    2.12
   4  -1  -1   15.84    2.12
   4   1  -1   15.04    1.92
   4  -1   0  153.93    6.29
   4  -1   0  153.23    6.34
   4   1   0  135.82    5.49
   4   1   1   18.54    2.06
   4   1   1   14.56    2.02
   4  -1   1   17.67    2.11
   4   1   2   46.39    3.44
   4  -1   2   57.36    3.92
   4   1   2   51.72    3.54
   4   1   3   30.94    2.71
   4  -1   3   30.68    2.97
   4   1   3   32.88    3.06
   4   1   4  251.39    8.53
   4  -1   4  258.54    8.51
   4   1   4  256.51    7.63
   4   1   5   57.96    3.58
   4  -1   5   65.97    4.32
   4  -1   6   94.66    5.30
   4   1   6  102.78    4.71
   4   1   6   98.71    5.67
   4  -1   7   21.84    2.69
   4   1   7   18.56    2.04
   4   1   7   19.08    2.58
   4   1   8  124.48    5.20
   4  -1   8  146.00    6.84
   4   1   8  133.27    6.91
   4  -1   9    7.23    1.70
   4   1   9    6.21    1.82
   4   1   9    8.67    1.28
   4   1  10  444.36   13.26
   4  -1  10  425.94   12.39
   4   1  10  437.24    9.74
   4   1  11   69.37    3.85
   4   1  11   67.09    5.29
   4  -1  11   62.89    4.89
   4   1  12   27.36    2.45
   4   1  12   31.10    3.81
   4  -1  12   28.61    3.38
   4   1  13   30.63    2.54
   4   1  13   28.33    3.67
  -4  -1  13   18.63    1.32
   4  -1  13   28.20    3.52
   4   1  14   30.69    2.54
   4  -1  14   25.68    3.47
   4   1  14   32.69    4.07
   4   1  15    3.73    1.56
   4   1  15    1.62    0.63
   4  -1  15    1.42    0.83
   4  -1  16  160.79    8.87
   4   1  16  171.36    9.46
   4  -1  17   13.18    2.59
   4   1  17   12.90    2.63
   4   1  18   28.00    3.94
   4  -1  18   27.51    3.65
  -4   1  18   24.82    3.31
   4  -1  19   19.46    3.29
   4   1  19   13.11    2.65
   4  -1  20    1.28    1.56
   4   1  20    0.63    0.99
   4   1  21    3.05    2.31
   4   1  22    4.89    1.59
   4   1  23    1.79    1.27
   4  -2 -30   -0.72    1.88
   4  -2 -29    0.86    2.30
   4  -2 -28    1.69    2.49
   4  -2 -27   21.34    4.45
   4  -2 -26   19.99    4.68
   4  -2 -25   32.19    5.08
   4  -2 -24    4.44    2.77
   4   2 -23    7.45    3.76
   4  -2 -23   -0.06    1.38
   4   2 -22   17.35    3.58
   4  -2 -22   21.22    4.41
   4   2 -21   23.72    3.96
   4  -2 -21   30.00    4.76
   4  -2 -20    1.14    0.71
   4   2 -20    4.42    2.28
   4   2 -19   63.53    6.42
  -4  -2 -19   82.02    7.70
   4  -2 -19   69.61    6.99
  -4  -2 -18    8.04    2.14
   4  -2 -18    3.36    2.38
   4   2 -18    6.81    2.46
   4  -2 -17    3.19    1.65
  -4  -2 -17    4.46    2.16
   4   2 -17    5.16    2.02
   4  -2 -17    3.00    1.38
  -4  -2 -16  129.19    9.02
   4   2 -16  118.07    7.76
   4  -2 -16  133.96    9.20
   4  -2 -16  137.34    8.29
   4   2 -16  129.49    7.51
   4  -2 -15   85.17    6.39
  -4  -2 -15   91.06    7.52
   4   2 -15   79.26    6.02
   4  -2 -15   84.37    7.05
   4   2 -15   82.56    5.78
   4   2 -14   41.11    4.31
   4  -2 -14   32.50    4.50
  -4  -2 -14   34.08    4.27
   4   2 -14   36.76    3.93
   4  -2 -14   29.48    3.66
  -4  -2 -13   65.50    5.89
   4   2 -13   70.59    5.23
   4   2 -13   71.84    5.37
   4  -2 -13   64.36    5.30
   4  -2 -13   70.53    6.30
   4   2 -12  135.78    7.37
   4  -2 -12  133.11    7.53
  -4  -2 -12  147.01    8.74
   4  -2 -12  131.05    8.27
   4   2 -12  130.87    6.88
  -4   2 -11   27.02    1.76
  -4  -2 -11   29.85    3.97
   4   2 -11   36.69    3.36
   4  -2 -11   35.88    3.97
   4  -2 -11   32.17    4.04
   4   2 -11   34.85    3.67
   4  -2 -10  168.54    8.32
   4  -2 -10  165.90    8.81
   4   2 -10  183.61    8.13
  -4   2 -10  191.32    5.18
  -4  -2 -10  181.63    9.19
   4   2 -10  185.79    7.35
   4   2  -9   52.05    3.64
   4  -2  -9   48.12    4.33
   4  -2  -9   54.88    4.99
   4   2  -9   52.06    4.25
   4   2  -8   10.33    1.94
   4   2  -8   10.94    1.10
   4  -2  -8   11.26    1.98
   4  -2  -8    9.63    2.24
   4   2  -8   12.87    1.78
   4   2  -7    3.09    0.76
   4   2  -7    5.40    1.45
   4  -2  -7    3.87    1.10
   4   2  -7    4.24    0.69
   4  -2  -7    2.68    0.94
   4  -2  -6    3.65    1.41
   4   2  -6    2.96    1.31
   4  -2  -6    2.53    0.76
   4   2  -6    3.95    0.68
   4   2  -6    3.10    0.86
   4  -2  -5   18.53    2.48
   4   2  -5   19.60    1.83
   4   2  -5   22.11    1.98
   4  -2  -5   26.73    3.04
   4   2  -5   18.20    2.52
   4   2  -4  581.73   10.46
   4   2  -4  579.91   13.64
   4  -2  -4  586.05   14.30
   4   2  -4  581.50    9.64
   4  -2  -4  552.31   13.67
   4  -2  -3  165.88    7.42
   4   2  -3  161.47    5.09
   4  -2  -3  167.27    7.37
   4   2  -3  168.48    7.35
   4  -2  -2   78.89    5.08
   4   2  -2   80.21    4.96
   4  -2  -2   81.54    5.11
   4   2  -2   90.58    4.48
   4   2  -1   62.88    4.34
   4   2  -1   62.07    3.86
   4  -2  -1   65.75    4.49
   4  -2  -1   63.02    4.50
   4   2   0   59.80    3.97
   4  -2   0   61.22    4.29
   4  -2   0   53.38    4.07
   4   2   0   69.68    4.57
   4   2   1   60.39    4.33
   4   2   1   68.99    4.32
   4  -2   1   61.90    4.36
   4  -2   1   56.35    4.27
   4   2   2   78.12    4.80
   4   2   2   79.79    4.91
   4  -2   2   73.91    4.83
   4  -2   2   82.52    5.00
   4   2   3  170.04    7.06
   4  -2   3  164.86    7.32
   4   2   3  169.63    7.31
   4   2   4  609.30   14.19
   4  -2   4  578.79   13.60
   4   2   4  590.06   13.25
   4   2   5   13.08    2.03
   4  -2   5   15.17    2.27
   4   2   5   15.38    2.35
   4  -2   6    5.62    1.28
   4   2   6    2.20    1.27
   4   2   6    3.77    0.96
   4   2   7    2.70    1.09
   4  -2   7    2.27    1.02
   4   2   7    1.98    0.69
   4  -2   8   10.46    1.91
   4   2   8   10.58    2.10
   4   2   8   12.75    1.92
   4   2   9   50.75    3.97
   4  -2   9   59.05    4.64
   4   2   9   48.49    4.50
   4   2  10  176.93    7.51
   4  -2  10  193.25    8.51
   4   2  10  186.73    9.19
   4   2  11   34.59    3.33
   4   2  11   34.95    4.05
   4  -2  11   29.37    3.28
   4   2  12  136.34    8.20
   4  -2  12  136.35    7.41
   4   2  12  134.05    6.66
   4   2  13   60.93    4.44
   4  -2  13   68.77    5.41
   4   2  13   64.51    5.86
   4   2  14   38.96    3.60
   4  -2  14   33.70    3.98
   4   2  14   35.29    4.32
   4   2  15   73.42    6.34
   4  -2  15   82.29    6.18
   4   2  15   93.13    5.62
   4  -2  16  126.04    7.71
   4   2  16  121.31    8.56
   4   2  16  123.06    6.54
   4  -2  17    4.89    1.76
   4   2  17    4.06    1.42
   4   2  17    4.99    2.18
   4   2  18    8.81    2.07
   4  -2  18    5.75    1.94
   4   2  19   72.89    6.95
   4  -2  19   75.65    6.41
   4   2  20    2.91    0.78
  -4   2  20    0.86    0.62
   4   2  21   34.02    5.06
   4   2  22   28.55    4.59
   4   2  23   -0.01    1.43
   4   2  24   -0.01    1.12
   4  -3 -29    7.69    3.29
   4  -3 -28   -0.93    2.05
   4  -3 -27    4.11    2.46
   4  -3 -26   -1.63    1.65
   4  -3 -25   -1.39    1.93
   4  -3 -24    0.48    0.90
   4  -3 -23    1.51    2.15
  -4  -3 -23    1.01    0.99
  -4  -3 -22    2.34    2.18
   4  -3 -22    1.80    1.87
   4  -3 -21   -1.23    1.51
  -4  -3 -21    0.49    1.43
  -4  -3 -20    0.65    1.91
   4  -3 -20    1.61    2.16
   4  -3 -19    0.09    0.99
  -4  -3 -19    3.35    2.02
   4  -3 -18    8.09    2.53
  -4  -3 -18    8.94    2.87
   4  -3 -18    9.10    2.65
   4  -3 -17   14.93    3.10
   4   3 -17   19.44    3.46
   4  -3 -17   19.98    3.48
  -4  -3 -17   17.57    4.03
   4  -3 -16    2.78    1.58
  -4  -3 -16    8.17    2.98
   4   3 -16    6.94    1.89
   4  -3 -16    4.85    1.95
   4   3 -16    7.08    1.97
   4  -3 -15   34.43    4.66
  -4  -3 -15   22.56    4.13
   4   3 -15   27.15    3.48
   4   3 -15   25.67    3.57
   4  -3 -15   27.81    4.00
   4  -3 -14    0.62    0.92
  -4  -3 -14    2.45    1.70
   4  -3 -14    0.96    0.74
   4   3 -14    2.63    1.39
   4   3 -14   -0.09    0.72
   4  -3 -13   14.94    3.07
   4  -3 -13   13.30    2.90
   4   3 -13   13.85    2.28
  -4  -3 -13   17.12    3.15
   4   3 -13   16.02    2.89
   4  -3 -12   24.73    3.56
   4   3 -12   27.25    3.55
   4  -3 -12   27.45    3.86
  -4   3 -12   23.94    2.27
  -4  -3 -12   26.46    3.89
   4   3 -12   21.75    2.54
   4  -3 -11   13.25    2.53
  -4  -3 -11    6.29    2.05
   4   3 -11    7.08    1.73
  -4   3 -11    7.38    1.20
   4   3 -11    6.21    1.36
   4  -3 -11    7.83    2.07
   4   3 -10   12.48    2.30
  -4  -3 -10    8.06    2.01
   4  -3 -10    9.03    1.88
  -4   3 -10   14.26    1.88
   4   3 -10   10.06    1.64
   4  -3 -10   12.57    2.60
   4  -3  -9   29.62    3.87
  -4  -3  -9   26.59    3.60
  -4   3  -9   30.70    2.86
   4   3  -9   26.79    2.39
   4   3  -9   27.32    1.83
   4  -3  -9   25.21    3.46
   4   3  -9   29.55    3.50
  -4  -3  -8    2.58    1.11
   4  -3  -8    2.25    1.35
   4   3  -8    2.50    0.68
   4   3  -8    1.74    0.47
   4  -3  -8    2.94    0.66
  -4   3  -8    4.03    0.91
   4   3  -8    3.22    1.18
   4   3  -7   35.17    2.59
  -4   3  -7   36.40    3.30
   4  -3  -7   30.06    3.61
   4  -3  -7   30.36    3.74
   4   3  -7   29.40    2.09
  -4  -3  -7   32.96    3.47
   4   3  -7   32.33    3.59
   4  -3  -6  268.81   10.67
   4  -3  -6  258.00   10.62
   4   3  -6  263.63    5.55
   4   3  -6  256.40   10.17
   4   3  -6  260.88    7.53
   4   3  -5   36.48    3.85
   4   3  -5   31.03    1.76
   4   3  -5   33.99    2.81
   4  -3  -5   31.81    3.73
   4  -3  -5   31.55    3.63
   4   3  -4   10.18    1.03
   4  -3  -4    9.46    1.99
   4   3  -4    8.36    1.85
   4  -3  -4   10.75    2.27
   4   3  -4   10.26    1.65
   4  -3  -3   48.57    4.38
   4   3  -3   48.55    2.41
   4   3  -3   43.81    4.19
   4   3  -3   51.27    3.73
   4  -3  -3   43.79    4.07
   4   3  -2   35.37    3.71
   4  -3  -2   37.60    3.66
   4  -3  -2   36.27    3.82
   4   3  -2   38.90    3.35
   4  -3  -1   81.76    5.33
   4   3  -1   75.33    4.86
   4  -3  -1   72.94    5.38
   4   3  -1   69.86    5.22
   4   3   0  251.47    9.83
   4  -3   0  237.64    9.09
   4   3   0  235.38    8.71
   4  -3   0  239.79    9.63
   4  -3   1   75.58    5.38
   4   3   1   62.80    5.03
   4  -3   1   68.69    4.84
   4   3   1   77.10    5.09
   4   3   2   40.03    3.94
   4  -3   2   34.69    3.38
   4   3   2   37.68    3.58
   4  -3   2   41.04    3.96
   4  -3   3   44.51    3.98
   4   3   3   48.61    4.27
   4   3   3   42.99    4.11
   4  -3   3   49.31    4.10
   4   3   4    8.92    1.98
   4   3   4    8.84    1.92
   4  -3   4    9.08    1.85
   4  -3   4    9.58    1.72
   4  -3   5   29.67    3.39
   4   3   5   31.00    3.48
   4   3   5   33.07    3.66
   4  -3   6  273.05   10.17
   4   3   6  272.98   10.36
   4   3   6  251.44   10.35
   4  -3   7   31.36    3.45
   4   3   7   34.55    3.81
   4   3   7   37.04    4.12
   4   3   8    5.90    1.48
   4   3   8    2.94    1.28
   4  -3   8    2.85    1.05
   4  -3   9   24.93    3.11
   4   3   9   23.97    3.14
   4  -3  10   11.40    2.21
   4   3  10    9.44    2.10
   4   3  10   12.26    2.47
   4   3  11    7.06    1.93
   4   3  11    4.42    1.13
   4  -3  11    6.83    1.72
   4   3  12   25.34    3.21
   4  -3  12   24.50    3.15
   4   3  12   22.59    3.53
   4  -3  13   11.69    2.42
   4   3  13   16.82    2.79
   4   3  13   17.86    3.05
   4   3  14    1.32    0.95
   4  -3  14   -0.12    1.29
   4   3  14    1.75    1.28
   4   3  15   29.15    3.49
   4  -3  15   27.24    3.61
   4   3  15   30.65    4.44
   4  -3  16    6.00    1.51
   4   3  16    4.85    1.52
   4   3  16    6.92    1.90
   4  -3  17   18.19    2.77
   4   3  17   16.78    2.78
   4   3  17   20.87    3.80
   4   3  18    8.42    2.57
   4   3  19    3.67    1.92
   4   3  20   -0.02    1.68
  -4   3  21    1.06    1.63
   4   3  21    3.95    1.90
   4   3  22   -2.04    1.62
   4   3  23   -0.19    1.27
   4   3  24   -0.05    1.84
   4   3  25   -0.23    1.85
   4  -4 -28   -2.36    1.50
   4  -4 -27    5.45    2.76
   4  -4 -26   17.03    3.89
   4  -4 -25   14.28    4.47
  -4  -4 -25   12.45    3.43
  -4  -4 -24    0.92    1.39
   4  -4 -24    2.56    1.52
  -4  -4 -23    8.81    2.92
   4  -4 -23   10.72    3.34
  -4  -4 -22    7.32    3.30
   4  -4 -22   14.56    3.62
  -4  -4 -21   49.46    6.65
   4  -4 -21   44.11    6.05
  -4  -4 -20   26.45    4.47
   4  -4 -20   26.04    4.33
   4  -4 -19    3.12    1.50
  -4  -4 -19    3.23    1.05
  -4  -4 -18    8.24    2.74
   4  -4 -18    8.93    2.27
   4  -4 -18    5.50    2.51
   4  -4 -17    4.87    2.20
  -4  -4 -17    3.48    1.06
   4  -4 -17    3.39    1.72
   4  -4 -16   62.42    6.31
   4   4 -16   52.55    5.42
   4  -4 -16   49.20    5.97
  -4  -4 -16   59.27    6.47
  -4  -4 -15  339.45   15.39
   4  -4 -15  347.22   15.49
   4   4 -15  357.17   13.88
   4  -4 -15  338.08   14.82
  -4  -4 -14   67.70    6.64
   4  -4 -14   56.96    6.09
   4  -4 -14   43.92    5.69
   4   4 -14   54.51    5.39
   4   4 -13   31.72    4.02
   4  -4 -13   22.92    4.17
   4  -4 -13   23.45    3.76
  -4  -4 -13   33.23    4.44
   4  -4 -12   90.95    7.46
   4  -4 -12   96.92    7.73
   4   4 -12   94.07    6.78
  -4  -4 -12  103.92    7.94
   4  -4 -11  100.29    7.71
  -4  -4 -11  110.50    7.87
  -4   4 -11  100.90    6.04
   4  -4 -11  100.96    7.64
   4   4 -11  108.11    7.30
   4  -4 -10   97.01    7.34
  -4  -4 -10  109.02    7.54
  -4   4 -10   95.37    5.92
   4  -4 -10   90.97    7.24
   4   4 -10   88.09    6.66
  -4   4  -9   78.19    5.34
  -4  -4  -9   69.65    5.84
   4   4  -9   52.38    3.39
   4   4  -9   67.89    5.73
   4  -4  -9   64.15    6.08
   4  -4  -9   58.93    5.58
  -4   4  -8   14.61    2.38
  -4  -4  -8    8.16    2.06
   4  -4  -8   14.84    2.88
   4   4  -8   11.83    2.66
   4   4  -8   12.11    1.63
   4  -4  -8   14.66    2.78
   4  -4  -7  113.29    7.53
  -4   4  -7  121.81    6.92
   4  -4  -7  117.41    7.75
  -4  -4  -7  129.25    7.56
   4   4  -7  116.45    5.58
   4   4  -7  106.89    7.16
  -4  -4  -6    7.68    1.85
   4  -4  -6    9.72    2.06
   4   4  -6   11.25    2.33
  -4   4  -6   12.99    2.42
   4  -4  -6   11.02    2.62
   4   4  -6   10.79    1.75
   4   4  -5   62.98    4.39
  -4   4  -5   56.66    4.69
   4  -4  -5   60.14    5.25
  -4  -4  -5   63.02    4.85
   4  -4  -5   60.70    5.46
   4   4  -5   59.51    5.26
   4   4  -4  209.86    8.33
   4   4  -4  217.04   10.18
   4  -4  -4  203.59    9.44
  -4   4  -4  240.16   10.01
   4  -4  -4  222.47   10.43
   4   4  -3  102.17    6.93
   4  -4  -3   85.16    6.06
   4  -4  -3   88.39    6.49
   4   4  -3   83.91    5.34
   4  -4  -2    7.21    1.95
   4   4  -2    9.42    1.85
   4   4  -2    7.02    1.80
   4  -4  -2    5.05    1.52
   4   4  -1    3.16    1.31
   4  -4  -1    6.14    1.88
   4   4  -1    5.51    2.01
   4  -4  -1    4.88    1.45
   4  -4   0   16.23    2.66
   4  -4   0   10.27    2.16
   4   4   0   10.74    2.15
   4   4   0   12.76    2.57
   4  -4   1    2.20    0.95
   4   4   1    3.14    1.35
   4   4   1    0.91    0.83
   4  -4   1    3.81    1.68
   4   4   2    7.70    1.89
   4  -4   2    6.73    1.86
   4   4   2    4.29    1.32
   4  -4   2    8.38    1.79
   4   4   3   80.45    6.04
   4  -4   3   87.21    6.26
   4  -4   3   75.72    5.38
   4   4   3   88.95    6.36
   4   4   4  209.94    9.83
   4  -4   4  216.71    9.16
   4   4   4  222.63   10.25
   4  -4   4  201.96    9.54
   4  -4   5   61.62    4.87
   4   4   5   57.26    5.26
   4   4   5   54.59    5.07
   4  -4   5   62.45    5.35
   4  -4   6   12.30    2.20
   4   4   6   16.97    3.04
   4   4   6   10.09    2.18
   4  -4   6   12.48    2.55
   4  -4   7  110.99    7.06
   4   4   7  113.46    7.62
   4   4   7  105.27    7.09
   4   4   8   16.03    3.10
   4  -4   8   11.07    2.42
   4   4   8    8.86    2.08
   4  -4   9   67.64    5.55
   4   4   9   67.36    5.97
   4   4   9   59.38    5.41
   4   4  10  106.43    7.33
   4   4  10   83.94    6.89
   4  -4  10   94.52    6.50
   4  -4  11  103.52    6.95
   4   4  11  109.61    7.46
   4   4  11  116.49    8.20
   4  -4  12   94.93    6.93
   4   4  12   91.55    6.91
   4   4  12   96.22    7.64
   4   4  13   23.70    3.57
   4  -4  13   28.30    3.80
   4   4  13   27.29    4.17
   4   4  14   50.75    5.20
   4   4  14   56.17    6.19
   4  -4  14   49.24    5.05
   4   4  15  337.72   13.87
   4  -4  15  344.94   13.21
   4   4  15  323.23   14.71
   4  -4  16   53.24    5.39
   4   4  16   58.61    5.79
   4   4  16   61.54    6.60
   4   4  17    4.60    1.91
   4   4  17    1.00    0.90
   4   4  18    8.09    2.37
   4   4  18   10.17    2.65
   4   4  19    7.34    2.63
   4   4  20   27.22    4.51
  -4   4  21   34.92    5.81
   4   4  21   40.93    5.77
  -4   4  22   10.90    3.01
  -4   4  22    8.02    2.82
   4   4  22    7.39    2.25
   4   4  23    7.03    2.87
   4   4  24    0.02    1.91
   4   4  25   11.16    2.90
   4   4  26   19.51    4.86
   4  -5 -27   -0.22    1.51
   4  -5 -26   -0.56    2.20
  -4  -5 -25   -4.85    3.14
   4  -5 -25   -0.21    1.20
  -4  -5 -24    8.73    3.24
   4  -5 -24   17.43    4.29
  -4  -5 -23   -0.31    1.56
   4  -5 -23    1.81    1.57
  -4  -5 -22    4.46    2.01
   4  -5 -22    2.75    2.06
  -4  -5 -21   -0.03    1.17
   4  -5 -21    4.85    2.75
   4  -5 -20    2.68    1.46
  -4  -5 -20    4.13    2.57
  -4  -5 -19    2.47    1.59
   4  -5 -19    0.97    1.25
   4  -5 -18    8.91    2.53
   4  -5 -18    8.48    2.63
   4  -5 -17   34.69    5.31
  -4  -5 -17   44.48    5.95
   4  -5 -17   43.61    5.63
  -4  -5 -16   43.16    5.94
   4  -5 -16   46.23    5.84
   4  -5 -16   42.88    5.63
  -4  -5 -15   63.96    6.71
   4  -5 -15   65.26    6.81
   4  -5 -15   61.09    6.74
   4   5 -15   62.43    6.19
  -4  -5 -14    6.52    2.31
   4   5 -14    2.91    0.92
   4  -5 -14    3.30    1.78
   4  -5 -14    2.98    2.13
   4   5 -13   44.93    5.05
   4  -5 -13   48.83    5.69
  -4  -5 -13   40.33    5.18
   4  -5 -13   42.02    5.42
   4   5 -12   47.79    5.33
   4  -5 -12   48.20    5.70
   4  -5 -12   51.94    6.07
  -4  -5 -12   48.53    5.58
   4   5 -11    2.95    1.62
  -4  -5 -11    2.18    1.15
  -4   5 -11    2.80    1.27
   4  -5 -11    5.29    2.09
   4  -5 -11    5.24    1.88
   4   5 -10   27.05    4.03
   4  -5 -10   27.95    4.17
  -4   5 -10   28.74    3.75
  -4  -5 -10   28.81    4.25
   4  -5 -10   23.92    4.27
   4  -5  -9   19.00    3.46
   4  -5  -9   33.69    4.65
   4   5  -9   21.25    3.56
  -4  -5  -9   22.75    3.33
   4   5  -9   23.47    2.83
  -4   5  -9   20.94    3.13
  -4  -5  -8   16.72    3.07
  -4   5  -8   12.34    2.76
   4   5  -8    8.92    2.04
   4   5  -8   11.94    2.01
   4  -5  -8    7.07    1.54
   4  -5  -8   11.94    2.64
  -4   5  -7   17.27    2.77
   4   5  -7   16.59    3.03
  -4  -5  -7   12.04    2.40
   4   5  -7   13.23    2.27
   4  -5  -7   19.74    3.62
   4  -5  -7   16.34    3.07
   4   5  -6    6.24    1.41
  -4  -5  -6    4.29    1.75
   4  -5  -6    5.42    1.70
  -4   5  -6    7.70    1.99
   4   5  -6    6.14    2.00
   4  -5  -6    7.32    2.09
   4   5  -5   11.31    2.27
   4   5  -5   13.41    2.88
  -4  -5  -5    9.05    2.05
   4  -5  -5   10.36    2.53
  -4   5  -5   12.29    2.68
   4  -5  -5   13.93    2.83
   4   5  -4   51.02    5.31
  -4   5  -4   42.68    4.68
   4   5  -4   46.91    4.57
   4  -5  -4   42.02    4.96
  -4  -5  -4   37.65    3.69
   4  -5  -4   44.09    4.65
   4   5  -3   11.26    2.31
  -4   5  -3   10.77    2.32
   4  -5  -3   11.20    2.29
   4  -5  -3   11.23    2.68
   4   5  -3   10.32    2.38
   4  -5  -2    2.37    1.62
   4   5  -2   -0.10    1.08
  -4   5  -2    1.85    1.79
   4   5  -2    1.12    1.03
   4  -5  -2    1.39    1.39
   4   5  -1   27.29    3.96
   4  -5  -1   40.12    4.77
  -4   5  -1   38.89    4.53
   4  -5  -1   39.17    4.33
   4   5  -1   36.96    4.14
   4   5   0   16.33    3.07
   4   5   0   13.13    2.39
  -4   5   0   13.92    2.70
   4  -5   0   12.66    2.30
   4  -5   0   20.45    3.11
   4   5   1   30.29    3.80
   4  -5   1   34.53    3.94
  -4   5   1   38.92    4.59
   4  -5   1   33.63    4.23
   4   5   1   37.28    4.48
   4  -5   2   -0.55    0.54
   4  -5   2   -0.11    0.82
   4   5   2    0.40    0.84
   4  -5   3    5.45    1.64
   4   5   3   13.60    2.83
   4   5   3    8.47    2.31
   4  -5   3    8.80    2.46
   4   5   4   50.46    5.22
   4   5   4   42.98    4.68
   4  -5   4   44.18    4.38
   4  -5   4   45.85    4.82
   4  -5   5   10.60    2.36
   4   5   5    4.17    1.38
   4   5   5   10.74    2.73
   4  -5   5   10.60    2.01
   4   5   6    5.28    1.69
   4   5   6    5.25    2.13
   4  -5   6    3.79    1.52
   4  -5   6    3.97    1.23
   4   5   7   19.69    3.38
   4   5   7   14.69    3.18
   4  -5   7   19.98    3.20
   4  -5   7   15.38    2.77
   4   5   8   14.77    3.03
   4  -5   8   12.43    2.47
   4   5   8   11.69    2.61
   4  -5   8    8.45    2.16
   4   5   9   20.57    3.28
   4  -5   9   22.87    3.32
   4  -5   9   18.23    3.09
   4  -5  10   34.24    4.36
   4   5  10   27.49    4.14
   4   5  10   32.66    4.42
   4  -5  11    4.55    1.68
   4   5  11    2.18    1.28
   4   5  11    6.38    2.48
   4   5  12   47.79    5.69
   4   5  12   54.48    5.74
   4  -5  12   51.04    5.27
   4   5  13   38.93    5.34
   4   5  13   45.58    5.50
   4  -5  13   43.65    4.86
   4   5  14    2.81    2.27
   4  -5  14    0.63    0.99
   4   5  14    6.52    0.97
   4  -5  15   57.01    5.81
   4   5  15   57.58    6.40
   4   5  15   60.20    6.38
   4   5  16   35.10    4.99
   4   5  16   35.24    4.98
  -4   5  16   38.69    5.27
  -4   5  17   43.41    5.70
   4   5  17   37.23    5.35
   4   5  17   35.80    5.42
   4   5  18    9.36    3.16
   4   5  18    5.52    2.19
  -4   5  18    6.48    2.81
   4   5  19    3.37    1.47
   4   5  19    2.01    1.24
  -4   5  19    5.23    2.04
  -4   5  20    4.61    2.49
   4   5  20    4.90    1.84
   4   5  21   -1.31    1.63
  -4   5  21   -0.40    1.62
  -4   5  22    5.99    2.36
   4   5  22    5.00    1.57
  -4   5  22    3.16    1.53
  -4   5  23    0.46    2.23
   4   5  23    5.84    2.81
   4   5  24    8.53    3.22
   4   5  25   -1.67    2.43
   4   5  26   -0.66    2.41
   4   5  27    4.18    1.87
  -4  -6 -26    4.77    1.80
   4  -6 -26    9.88    3.55
  -4  -6 -25    2.98    1.26
   4  -6 -25    1.91    2.43
  -4  -6 -24    3.27    2.34
   4  -6 -24    3.90    1.99
   4  -6 -23    9.52    2.82
  -4  -6 -23    9.73    2.92
   4  -6 -22   10.12    3.16
  -4  -6 -22    5.47    2.17
   4  -6 -21   30.45    5.18
  -4  -6 -21   30.19    5.45
  -4  -6 -20   62.60    7.46
   4  -6 -20   58.41    6.83
   4  -6 -19    3.85    2.34
  -4  -6 -19    1.79    1.36
  -4  -6 -18    2.08    2.15
   4  -6 -18    3.81    2.07
   4  -6 -18    1.40    0.89
   4  -6 -17   26.22    4.51
  -4  -6 -17   33.40    5.51
   4  -6 -17   34.73    5.54
   4  -6 -16   10.99    3.35
   4  -6 -16    8.46    2.55
  -4  -6 -16    7.32    2.80
   4  -6 -15  194.29   12.30
   4  -6 -15  209.07   12.66
  -4  -6 -15  198.06   12.20
   4   6 -15  202.15   12.01
   4   6 -14   55.05    6.25
   4  -6 -14   46.56    6.07
  -4  -6 -14   45.05    5.92
   4  -6 -14   49.27    6.25
   4  -6 -13    3.41    2.43
  -4  -6 -13   13.83    3.31
   4  -6 -13    5.16    1.84
   4   6 -13   10.17    2.40
   4  -6 -12   16.90    3.50
   4   6 -12    7.67    2.52
  -4  -6 -12   15.82    3.28
   4  -6 -12   19.50    3.98
   4   6 -11  247.03   12.73
  -4   6 -11  191.06   10.85
  -4  -6 -11  243.46   12.65
   4  -6 -11  215.24   12.57
   4  -6 -11  206.51   12.10
  -4  -6 -10   37.99    5.03
   4  -6 -10   40.01    5.46
   4   6 -10   41.43    5.35
  -4   6 -10   42.68    5.15
   4  -6 -10   46.27    5.54
   4   6  -9   94.49    7.84
  -4   6  -9   89.30    7.33
  -4  -6  -9   92.72    7.35
   4  -6  -9   92.97    8.12
   4  -6  -9   99.78    8.00
  -4   6  -8   23.85    3.75
  -4  -6  -8   22.28    3.36
   4   6  -8   26.44    4.07
   4   6  -8   25.70    3.68
   4  -6  -8   18.19    3.86
   4  -6  -8   19.51    3.71
   4   6  -7    2.89    1.68
  -4  -6  -7    8.29    2.18
  -4   6  -7    6.68    2.26
   4   6  -7    7.75    2.10
   4  -6  -7    8.27    1.68
   4  -6  -7    5.76    2.39
   4   6  -6   80.63    7.17
   4   6  -6   93.37    6.77
  -4   6  -6   87.62    7.22
  -4  -6  -6   82.05    6.39
   4  -6  -6   72.55    6.59
   4  -6  -6   96.44    8.01
   4   6  -5  139.76    9.47
   4   6  -5  132.16    8.07
  -4  -6  -5  133.47    7.81
  -4   6  -5  145.28    9.26
   4  -6  -5  134.30    9.48
   4  -6  -5  129.41    8.74
  -4   6  -4    5.58    1.68
   4   6  -4    2.97    1.60
  -4  -6  -4    2.52    1.07
   4   6  -4    3.73    1.29
   4  -6  -4    3.73    2.06
   4  -6  -4    7.16    2.94
  -4   6  -3   69.67    6.53
   4   6  -3   67.39    6.39
   4   6  -3   75.46    6.23
   4  -6  -3   71.23    6.22
   4  -6  -3   74.29    6.90
   4   6  -2   11.18    2.42
  -4   6  -2   12.74    2.68
   4  -6  -2    8.49    2.25
   4   6  -2   10.45    2.59
   4  -6  -2   10.40    2.85
   4  -6  -1   76.36    6.30
  -4   6  -1   81.13    7.13
   4   6  -1   83.13    7.22
   4  -6  -1   96.26    7.62
   4   6  -1   91.18    7.08
   4  -6   0   97.83    7.06
   4   6   0  115.86    8.42
   4   6   0   90.33    7.14
  -4   6   0  100.70    7.88
   4  -6   0  117.94    8.50
   4   6   1   97.93    7.95
  -4   6   1   90.58    7.53
   4   6   1   82.54    6.88
   4  -6   1   76.95    6.11
   4  -6   1   78.38    6.95
   4  -6   2   12.11    2.77
   4   6   2   10.40    2.67
   4  -6   2    8.79    2.32
   4   6   2   11.52    2.48
  -4   6   2   14.90    3.35
   4   6   3   78.49    7.01
  -4   6   3   59.00    6.17
   4   6   3   80.56    7.02
   4  -6   3   61.65    5.66
   4  -6   3   71.33    6.70
   4  -6   4    5.38    1.80
   4  -6   4    2.81    1.65
   4   6   4    4.20    1.49
  -4   6   4    4.60    1.97
   4   6   4    2.25    1.58
   4   6   5  146.38    9.72
   4   6   5  156.19    9.68
  -4   6   5  148.60   10.05
   4  -6   5  143.46    8.35
   4  -6   5  142.99    9.03
   4   6   6   98.58    8.02
   4  -6   6   84.82    7.14
   4   6   6   83.83    7.73
  -4   6   6   96.74    7.95
   4  -6   6   79.08    6.39
   4  -6   7    6.70    2.34
   4   6   7    8.88    2.70
   4   6   7    3.99    1.81
  -4   6   7    7.90    2.64
   4  -6   7    3.79    1.20
   4   6   8   21.49    3.81
   4   6   8   22.61    3.80
  -4   6   8   22.41    3.85
   4  -6   8   16.75    2.92
   4  -6   8   23.40    3.90
  -4   6   9   93.87    8.05
   4   6   9   96.54    8.11
   4   6   9  101.86    8.35
   4  -6   9   84.38    6.71
   4  -6   9   97.19    7.77
   4  -6  10   46.50    5.05
   4  -6  10   40.07    4.88
   4   6  10   36.28    5.04
   4   6  10   45.29    5.47
  -4   6  10   39.12    5.48
   4   6  11  233.95   13.05
   4   6  11  225.40   12.63
  -4   6  11  222.01   12.82
   4  -6  11  213.16   10.83
   4  -6  11  213.06   11.52
   4   6  12   14.68    3.68
   4  -6  12   12.92    2.79
   4  -6  12   21.23    3.70
   4   6  12   11.70    2.40
  -4   6  12   19.75    3.94
   4  -6  13    7.20    2.14
   4   6  13    8.33    2.29
  -4   6  13    7.08    2.69
   4   6  13   10.15    3.15
   4   6  14   38.90    5.70
   4   6  14   47.26    5.98
  -4   6  14   42.36    5.83
   4  -6  14   46.96    5.73
   4   6  15  199.26   12.36
  -4   6  15  174.98   11.83
   4   6  15  192.07   12.29
   4   6  16    8.57    2.64
   4   6  16    8.41    2.38
  -4   6  16    7.36    1.98
   4   6  17   31.42    5.30
   4   6  17   21.11    4.40
  -4   6  17   34.11    5.53
  -4   6  18    3.23    2.49
   4   6  18    9.04    3.03
   4   6  19    2.13    0.99
   4   6  19    0.49    1.45
  -4   6  20   63.17    7.90
   4   6  20   59.32    7.24
  -4   6  21   23.30    4.88
   4   6  21   21.94    4.51
   4   6  22    4.17    1.72
  -4   6  22    1.55    1.30
   4   6  23   11.91    3.01
  -4   6  23    5.99    2.57
  -4   6  23    8.65    3.59
  -4   6  24    7.25    3.31
   4   6  24   10.86    3.91
   4   6  25   -0.24    1.55
   4   6  26    2.79    2.09
  -4  -7 -24   -0.95    1.83
   4  -7 -24    1.05    1.57
  -4  -7 -23    1.00    1.52
   4  -7 -23   -5.40    3.49
  -4  -7 -22   -0.31    1.58
   4  -7 -22   -2.27    2.72
   4  -7 -21    3.85    2.01
  -4  -7 -21    4.44    2.75
  -4  -7 -20    5.89    3.20
   4  -7 -20    3.68    2.19
  -4  -7 -19   14.26    4.20
   4  -7 -19    6.86    2.72
   4  -7 -18   15.99    4.51
  -4  -7 -18   10.65    3.49
   4  -7 -18   16.91    4.27
   4  -7 -17    3.84    1.65
  -4  -7 -17    2.34    2.48
   4  -7 -17    3.28    1.38
   4  -7 -16    7.10    2.36
  -4  -7 -16    8.48    2.56
   4  -7 -15    1.49    1.75
   4  -7 -15    1.31    2.09
  -4  -7 -15    5.18    2.38
   4   7 -14    6.69    3.13
   4  -7 -14    5.20    2.36
   4  -7 -14    0.63    0.96
  -4  -7 -14    2.45    2.39
   4   7 -13   18.64    4.08
  -4  -7 -13   19.21    4.04
   4  -7 -13   27.22    4.78
   4  -7 -13   17.35    4.03
   4   7 -12    2.52    1.97
  -4  -7 -12    3.72    1.96
   4  -7 -12    6.83    3.05
   4  -7 -12    2.63    1.79
   4   7 -11    6.97    2.32
   4  -7 -11   21.16    4.26
  -4  -7 -11   20.05    3.91
   4  -7 -11   11.95    3.12
   4  -7 -10   35.52    5.30
  -4   7 -10   48.90    5.71
  -4  -7 -10   40.02    5.52
   4  -7 -10   43.14    5.50
   4  -7  -9    1.28    1.78
   4   7  -9    2.26    1.62
  -4  -7  -9    1.05    1.25
  -4   7  -9    0.58    1.01
   4  -7  -9    1.53    1.53
   4   7  -8   38.22    5.37
  -4   7  -8   34.31    5.17
  -4  -7  -8   35.75    4.62
   4  -7  -8   36.93    4.86
   4  -7  -8   40.77    5.59
   4   7  -7   -0.44    1.54
   4   7  -7   -0.29    0.97
   4  -7  -7    0.82    1.31
  -4  -7  -7    0.38    1.14
  -4   7  -7   -0.41    1.20
   4  -7  -6   14.68    3.39
   4   7  -6   11.51    2.67
   4   7  -6   10.89    3.11
   4  -7  -6   12.70    3.26
  -4   7  -6   17.65    3.42
  -4  -7  -6    9.13    2.30
   4   7  -5   11.04    2.80
   4   7  -5   13.91    3.39
  -4   7  -5    9.29    2.88
  -4  -7  -5    8.88    2.32
   4  -7  -5   13.27    3.54
   4  -7  -5   12.35    3.27
   4   7  -4    3.54    1.40
   4  -7  -4    0.88    0.74
   4   7  -4    5.16    2.29
  -4   7  -4    2.04    1.72
  -4   7  -3    3.74    2.08
   4   7  -3    8.13    2.02
   4  -7  -3    6.68    2.09
   4  -7  -3    5.98    2.23
   4   7  -3    3.36    1.48
  -4   7  -2    4.57    1.68
   4   7  -2    6.82    1.65
   4   7  -2    6.43    2.27
   4  -7  -2    7.79    2.79
   4  -7  -2    6.36    2.14
   4  -7  -1    2.90    1.92
   4   7  -1    5.30    2.17
  -4   7  -1    4.88    2.47
   4  -7  -1    5.01    1.87
   4   7  -1    8.02    2.30
   4  -7   0   10.56    2.67
   4   7   0    7.73    2.86
   4  -7   0    8.09    1.72
   4   7   0   10.72    2.87
  -4   7   0    9.23    3.43
   4   7   1    3.74    1.48
   4   7   1    2.43    1.95
   4  -7   1    4.21    1.75
   4  -7   1    2.86    1.06
  -4   7   1   -0.01    0.78
   4   7   2    8.86    2.48
   4   7   2    6.98    2.23
   4  -7   2    7.23    2.47
   4  -7   2    7.22    2.28
  -4   7   2    9.43    2.40
   4   7   3    3.23    1.64
  -4   7   3    2.72    2.15
   4   7   3    3.43    1.58
   4  -7   3    4.73    2.19
   4  -7   3    4.97    2.08
   4  -7   4    4.22    1.68
   4   7   4    7.04    2.35
  -4   7   4    5.33    2.54
   4   7   4    2.78    1.37
   4  -7   4    7.08    2.27
   4  -7   5   10.05    2.87
   4   7   5    8.31    2.80
  -4   7   5   13.72    3.39
   4   7   5    9.83    3.30
   4  -7   5    8.65    2.27
   4  -7   6   11.58    2.46
   4   7   6   15.44    3.46
  -4   7   6   14.64    3.34
   4   7   6   16.38    3.13
   4  -7   6   12.24    2.60
   4   7   7    1.41    1.07
   4  -7   7   -0.50    1.40
   4   7   7    1.26    1.72
  -4   7   7    1.12    1.43
   4   7   8   36.63    5.42
  -4   7   8   44.97    5.98
   4  -7   8   32.17    4.71
   4   7   8   37.10    5.18
   4   7   9    3.01    2.26
   4   7   9    0.79    1.67
  -4   7   9    0.28    1.14
   4  -7   9    1.39    1.90
   4   7  10   45.60    6.13
  -4   7  10   41.89    5.57
   4  -7  10   50.42    5.88
   4   7  10   43.40    5.78
   4   7  11   23.09    4.27
  -4   7  11   12.16    3.13
   4   7  11   14.10    3.26
   4  -7  11   13.40    2.95
   4   7  12    4.15    2.43
  -4   7  12    2.75    1.80
   4   7  12    3.51    1.90
   4  -7  12    0.48    1.25
   4   7  13   23.38    4.63
   4   7  13   18.99    4.04
  -4   7  13   17.52    3.95
   4   7  14    3.70    2.34
   4   7  14    4.98    2.36
  -4   7  14    5.31    2.10
   4   7  15    6.28    3.16
  -4   7  15    5.84    2.41
   4   7  15    7.80    2.84
   4   7  16   11.11    2.48
   4   7  16    4.95    1.99
  -4   7  16    5.50    2.68
   4   7  17    3.22    2.60
   4   7  17    5.33    2.26
  -4   7  17    2.85    1.66
   4   7  18   10.20    3.57
   4   7  18    7.15    3.07
  -4   7  18    8.36    3.13
  -4   7  19   13.95    3.53
   4   7  19   17.19    4.35
   4   7  19   18.68    4.34
   4   7  20    5.25    2.26
  -4   7  20    6.36    2.43
   4   7  21   -1.38    1.94
  -4   7  21   -1.23    1.66
  -4   7  22    0.33    1.22
  -4   7  22    3.66    2.77
   4   7  22    3.59    1.87
   4   7  23    0.06    1.93
  -4   7  23   -2.01    1.78
  -4   7  23   -2.18    2.58
  -4   7  24   -0.10    1.53
   4   7  24   -0.69    2.00
   4  -8 -22    4.03    2.12
  -4  -8 -22    2.20    1.99
  -4  -8 -21    5.55    2.92
   4  -8 -21    5.08    2.41
  -4  -8 -20   10.52    3.96
   4  -8 -20    9.18    2.94
  -4  -8 -19   11.28    3.74
   4  -8 -19   10.00    3.36
  -4  -8 -18   12.94    3.51
   4  -8 -18   15.80    3.42
  -4  -8 -17    1.88    1.09
   4  -8 -17    1.45    1.66
   4  -8 -17   -1.27    1.89
   4  -8 -16    7.73    3.24
  -4  -8 -16   13.98    3.94
   4  -8 -16   13.73    3.57
  -4  -8 -15    2.23    1.75
   4  -8 -15    1.79    1.55
   4  -8 -15    0.46    0.99
   4   8 -14   -1.76    0.99
  -4  -8 -14   -0.51    2.06
   4  -8 -14    2.78    1.66
   4  -8 -14    2.04    2.07
   4   8 -13    8.36    2.77
   4  -8 -13    6.41    2.52
   4  -8 -13    7.34    3.08
  -4  -8 -13    1.82    1.62
   4   8 -12    2.30    1.19
  -4  -8 -12    1.66    1.50
   4  -8 -12    1.78    1.20
   4  -8 -12    2.41    0.93
   4   8 -11    4.58    1.91
  -4  -8 -11    9.34    3.14
   4  -8 -11    6.09    2.93
   4  -8 -11    2.51    1.39
   4   8 -10   71.22    7.86
  -4   8 -10   59.32    7.19
  -4  -8 -10   46.22    6.00
   4  -8 -10   57.06    6.91
   4  -8 -10   62.39    7.35
  -4   8  -9    5.89    1.21
   4   8  -9   10.37    3.01
  -4  -8  -9    6.28    2.57
   4  -8  -9    2.81    1.59
   4  -8  -9    6.48    2.41
   4  -8  -8    5.85    2.51
   4   8  -8    3.08    2.10
  -4   8  -8    6.99    2.50
   4  -8  -8    5.37    2.71
   4   8  -7   46.17    5.96
  -4   8  -7   38.24    5.77
   4  -8  -7   42.34    5.83
   4  -8  -7   38.81    5.78
   4   8  -6   52.88    6.66
  -4   8  -6   44.47    5.80
   4  -8  -6   49.26    5.88
   4  -8  -6   41.03    5.74
  -4   8  -5   14.46    3.25
   4   8  -5   16.80    3.80
   4  -8  -5   14.79    3.91
   4  -8  -5   19.14    4.20
   4   8  -5   15.79    3.65
   4  -8  -4   10.65    3.15
   4   8  -4    9.21    3.05
  -4   8  -4    9.50    2.97
   4   8  -4    6.84    3.05
   4  -8  -4    5.95    2.16
   4   8  -3    5.95    2.96
   4  -8  -3    3.81    1.58
   4   8  -3    4.45    1.87
   4  -8  -3    6.91    2.14
  -4   8  -3    5.51    2.35
   4   8  -2    6.75    2.59
  -4   8  -2    7.02    2.84
   4  -8  -2    4.47    2.10
   4   8  -2    4.88    1.48
   4  -8  -2    4.93    2.14
   4   8  -1   62.63    6.92
  -4   8  -1   62.72    7.23
   4  -8  -1   58.01    5.97
   4  -8  -1   55.87    6.64
   4   8  -1   75.68    7.50
   4   8   0   62.43    7.16
  -4   8   0   78.38    7.92
   4   8   0   58.85    6.72
   4  -8   0   57.65    5.81
   4  -8   0   70.02    7.69
   4   8   1   52.63    6.46
  -4   8   1   60.04    6.94
   4  -8   1   48.79    6.17
   4   8   1   70.31    7.11
   4   8   2    6.31    2.57
   4   8   2    6.90    2.43
   4  -8   2    7.80    2.75
  -4   8   2    8.50    3.55
   4   8   3    1.75    1.58
   4  -8   3    2.28    1.99
  -4   8   3   10.02    3.51
   4   8   3    7.56    2.26
   4   8   4    4.96    2.24
   4   8   4    9.18    2.84
   4  -8   4    5.63    1.81
  -4   8   4    7.39    1.90
   4   8   5   21.11    4.70
   4   8   5   23.00    4.35
  -4   8   5   19.86    4.25
   4  -8   5   20.05    3.77
   4   8   6   57.45    6.78
  -4   8   6   44.28    6.20
   4   8   6   44.98    6.17
   4  -8   6   40.18    5.61
   4   8   7   35.07    5.46
   4   8   7   29.78    4.77
  -4   8   7   44.59    6.09
   4  -8   7   36.24    5.15
   4   8   8    1.40    2.10
   4  -8   8    1.43    1.25
   4   8   9   12.37    3.19
   4   8   9    9.08    2.72
   4  -8   9    9.93    2.86
  -4   8   9    5.92    2.33
   4   8  10   55.89    6.99
   4   8  10   56.06    6.92
   4  -8  10   58.62    6.70
   4   8  11    5.34    2.11
  -4   8  11   -0.04    1.26
   4   8  11    2.91    1.67
   4  -8  11    3.23    1.87
   4   8  12    1.05    1.86
   4   8  12    3.10    1.87
  -4   8  12    3.82    2.41
  -4   8  13   10.82    3.46
   4   8  13    5.73    2.39
   4   8  13    4.29    2.04
   4   8  14    0.23    1.58
   4   8  14    1.67    1.80
  -4   8  14   -0.21    1.57
   4   8  15    0.66    1.70
  -4   8  15    1.43    1.98
   4   8  15    0.66    1.04
   4   8  16   11.81    3.95
   4   8  16    5.38    3.08
  -4   8  16   12.03    3.27
   4   8  17   -2.71    2.70
   4   8  17    2.35    1.99
  -4   8  17    3.06    2.06
  -4   8  18   13.45    3.88
   4   8  18    7.24    3.64
   4   8  18   12.83    3.60
   4   8  19   12.80    3.26
   4   8  19    8.11    3.21
  -4   8  19    9.31    3.47
  -4   8  20    8.64    3.48
   4   8  20    4.91    2.34
  -4   8  21    5.52    2.51
   4   8  21    6.85    3.10
  -4   8  22    4.24    3.19
   4   8  22   -0.45    1.65
  -4   8  22    5.56    2.80
  -4  -9 -19   -0.62    1.55
   4  -9 -19    3.46    1.92
  -4  -9 -18    1.19    2.01
   4  -9 -18    0.62    1.79
   4  -9 -17    0.47    1.31
  -4  -9 -17    1.85    1.85
   4  -9 -16   -1.56    2.26
   4  -9 -16   -0.23    1.05
   4  -9 -15    1.37    1.48
   4  -9 -15    2.31    2.05
   4  -9 -14    6.32    3.02
   4  -9 -14    1.27    1.39
   4  -9 -13    2.97    1.94
   4   9 -13    6.95    3.33
   4  -9 -13    7.23    2.31
   4  -9 -12   13.58    3.23
   4   9 -12    9.83    3.27
   4  -9 -12    6.90    2.47
   4   9 -11    0.72    2.07
   4  -9 -11   -0.71    1.07
   4  -9 -11   -0.14    1.13
   4  -9 -10    0.15    1.39
   4  -9 -10    3.75    2.55
   4   9 -10    0.91    1.75
   4   9  -9    5.91    2.03
  -4   9  -9    6.53    2.82
   4  -9  -9    4.29    2.23
   4  -9  -9    0.56    1.24
   4  -9  -8   11.63    3.36
   4   9  -8   12.50    3.61
  -4   9  -8   14.86    3.87
   4  -9  -8   11.59    3.03
   4  -9  -7    9.32    3.20
   4  -9  -7    2.82    1.81
   4   9  -7    2.85    2.58
  -4   9  -7    5.96    2.63
   4   9  -6    1.89    1.89
  -4   9  -6    3.45    2.21
   4  -9  -6    2.04    1.86
   4  -9  -6    0.74    0.96
  -4   9  -5   -0.82    1.86
   4   9  -5    1.14    1.47
   4  -9  -5   -1.53    1.46
   4   9  -4    1.39    1.60
  -4   9  -4    2.01    0.95
   4  -9  -4    2.74    1.12
   4   9  -3    3.51    1.89
   4   9  -3    5.48    2.24
  -4   9  -3    3.98    2.64
   4  -9  -3    4.14    1.79
  -4   9  -2    4.52    1.50
   4  -9  -2    4.24    2.30
   4   9  -2    1.58    2.13
   4   9  -2    1.88    0.84
   4   9  -1    3.19    2.13
  -4   9  -1    2.58    1.00
   4   9  -1    5.24    2.49
   4  -9  -1    5.00    3.00
   4   9   0   18.28    4.21
   4  -9   0   18.41    4.09
   4   9   0   16.14    3.67
  -4   9   0   14.03    3.51
   4  -9   1    4.76    2.84
   4   9   1    3.77    2.02
   4   9   1   10.21    2.89
  -4   9   1    6.85    2.52
   4   9   2    2.27    1.04
   4   9   2    0.53    0.75
  -4   9   2    2.72    2.06
   4  -9   2    4.22    2.51
  -4   9   3    7.42    2.67
   4  -9   3    1.97    1.15
   4   9   3    4.68    2.69
   4   9   3    2.36    2.20
  -4   9   4    7.24    2.68
   4   9   4    6.48    2.92
   4   9   4    8.51    3.23
   4  -9   4    3.15    0.99
  -4   9   5    1.42    1.64
   4   9   5   -1.09    1.90
   4   9   5    0.44    1.46
   4  -9   5   -2.35    1.92
   4   9   6    1.90    2.26
   4  -9   6    1.91    0.98
   4   9   6    0.80    1.60
  -4   9   6   -0.27    0.88
   4   9   7    3.88    1.69
   4   9   7    4.67    2.44
   4  -9   7    5.54    2.10
  -4   9   7    1.37    1.92
   4   9   8   13.67    3.55
   4   9   8    6.30    3.02
  -4   9   8   10.02    3.46
   4  -9   8   10.64    2.65
  -4   9   9    0.58    1.19
   4   9   9    6.17    2.18
   4   9   9    4.79    2.78
   4  -9   9    1.24    2.09
   4   9  10    1.62    1.80
  -4   9  10    0.99    2.51
   4   9  10   -2.12    1.97
   4  -9  10   -3.02    2.56
   4   9  11    2.05    1.64
   4   9  11    0.16    1.33
  -4   9  11   -0.36    1.61
   4   9  12    9.38    3.32
  -4   9  12    9.10    3.76
   4   9  12   10.57    3.59
   4   9  13    7.71    2.29
   4   9  13    1.03    2.36
  -4   9  13    7.20    2.78
   4   9  14    1.78    2.42
  -4   9  14    0.94    1.74
   4   9  14    0.38    1.17
   4   9  15   -0.86    1.86
  -4   9  15    1.30    1.52
   4   9  15    1.45    1.13
   4   9  16    2.27    2.89
  -4   9  16   -1.44    2.28
   4   9  16   -0.06    1.20
   4   9  17   -1.25    1.73
   4   9  17    0.87    1.08
  -4   9  17   -1.44    2.03
   4   9  18    0.14    1.36
   4   9  18   -0.63    1.12
  -4   9  18   -0.66    2.68
   4   9  19    2.36    2.29
  -4   9  19    2.42    2.49
   4   9  19    2.80    1.81
   4 -10 -15    1.46    2.75
   4 -10 -14    2.21    2.94
   4 -10 -14    0.18    1.59
   4 -10 -13    0.01    1.34
   4 -10 -13    4.71    2.53
   4  10 -12    5.80    3.32
   4 -10 -12   -1.30    1.72
   4  10 -11   11.79    3.68
   4 -10 -11   10.87    3.83
   4  10 -10   19.56    5.08
   4 -10 -10   10.25    3.38
   4  10  -9   23.97    4.85
   4 -10  -9   16.03    3.97
   4  10  -8    4.52    2.32
  -4  10  -8   -2.15    2.55
   4 -10  -8    3.61    1.93
   4  10  -7    9.36    3.14
  -4  10  -7    6.57    3.44
   4 -10  -7    3.50    1.59
   4  10  -6    9.79    2.66
  -4  10  -6   12.72    3.81
   4 -10  -6    6.05    2.23
  -4  10  -5    9.66    3.32
   4  10  -5    8.46    3.19
   4 -10  -5   14.16    3.49
   4  10  -4   15.24    4.00
  -4  10  -4    6.48    3.13
   4 -10  -4    8.75    3.08
   4  10  -3   -0.08    1.35
  -4  10  -3    1.72    1.98
   4 -10  -3    4.59    2.25
   4  10  -2   -0.28    2.24
  -4  10  -2    0.06    1.34
   4  10  -2    0.61    1.63
   4 -10  -2    1.94    0.89
   4  10  -1    3.65    2.43
   4  10  -1    7.56    2.97
   4 -10  -1    8.66    3.14
  -4  10  -1    7.24    3.24
  -4  10   0   15.66    4.29
   4  10   0   17.79    3.77
   4 -10   0   13.18    3.56
   4  10   0   20.72    4.49
   4  10   1    6.77    2.70
   4  10   1   12.32    3.55
  -4  10   1    6.86    2.92
   4 -10   1    3.00    1.54
  -4  10   2    3.86    2.39
   4  10   2    3.38    2.11
   4  10   2    4.49    2.48
   4 -10   2    6.69    2.68
   4  10   3    5.17    2.44
   4  10   3    0.51    1.56
   4 -10   3   -1.62    1.48
  -4  10   3    5.24    2.07
  -4  10   4    3.43    2.90
   4  10   4    9.83    3.46
   4  10   4    7.94    2.24
   4 -10   4    3.39    2.41
   4  10   5   12.85    3.60
   4  10   5   10.13    3.40
  -4  10   5   15.54    4.06
   4 -10   5   20.45    4.36
  -4  10   6    2.25    1.93
   4  10   6    6.55    2.40
   4 -10   6    3.18    2.62
   4  10   7    2.33    1.45
   4  10   7    3.78    2.00
  -4  10   7    2.24    1.57
   4  10   8    9.28    3.49
  -4  10   8    5.34    2.54
   4  10   8    4.09    2.07
   4 -10   8    7.07    2.76
   4  10   9   16.24    3.72
   4  10   9   22.12    4.95
  -4  10   9   14.32    4.45
   4  10  10    7.33    3.12
  -4  10  10    8.58    3.32
   4  10  10    7.73    2.86
   4  10  11    7.25    2.93
  -4  10  11   10.59    3.84
   4  10  11    9.85    3.31
   4  10  12   -1.18    1.43
  -4  10  12    2.98    2.60
   4  10  12    0.03    1.89
   4  10  13   -1.48    2.15
  -4  10  13   -1.00    1.04
  -4  10  14   -0.83    1.10
   4  10  14    0.26    1.09
  -4  10  15    1.12    2.58
   4  10  15    1.37    1.43
   4  11  -9    3.37    2.29
   4 -11  -9    0.71    1.56
   4  11  -8    2.54    1.18
   4 -11  -8    3.17    2.82
   4  11  -7    4.60    2.53
  -4  11  -7    7.55    3.74
   4 -11  -7    3.37    2.04
   4 -11  -6    6.44    3.30
   4  11  -6    4.89    2.21
  -4  11  -6   -0.83    2.20
   4  11  -5    0.82    1.46
  -4  11  -5   -1.29    1.08
   4 -11  -5   -1.23    2.69
  -4  11  -4    1.75    1.85
   4 -11  -4    0.66    1.00
   4  11  -4    2.17    1.92
  -4  11  -3    5.52    2.93
   4  11  -3    1.02    1.82
   4 -11  -3    0.91    1.40
   4  11  -2    2.18    1.94
   4 -11  -2    0.73    1.79
  -4  11  -2    2.27    2.11
   4 -11  -1    2.12    1.87
  -4  11  -1    4.59    3.12
   4  11  -1    7.77    2.38
   4  11   0    1.77    2.16
   4  11   0    2.58    2.57
  -4  11   0    4.45    2.27
   4 -11   0   -0.60    1.57
   4  11   1    7.19    2.43
  -4  11   1    1.11    1.12
   4 -11   1    9.44    3.43
   4  11   1   -0.49    1.21
   4  11   2   -0.28    1.04
   4 -11   2    2.62    2.51
   4  11   2    0.36    1.33
  -4  11   2    0.11    1.09
   4  11   3    1.62    1.76
   4  11   3    2.06    2.47
  -4  11   3    2.91    1.21
   4 -11   3    2.65    3.06
   4  11   4   -1.38    1.41
   4  11   4    0.89    1.02
   4 -11   4    0.09    2.28
  -4  11   4   -0.49    1.46
   4  11   5    4.04    2.96
   4  11   5   -0.70    2.14
  -4  11   5    1.79    2.35
   4 -11   5   -0.89    1.70
   4  11   6    6.41    3.64
  -4  11   6    4.32    2.89
   4  11   6    7.49    2.77
   4 -11   6    4.87    2.42
   4  11   7    4.67    2.78
  -4  11   7    3.00    2.09
  -4  11   8    6.74    2.66
   4  11   8    8.45    3.50
   4  11   8    6.82    3.01
  -4  11   9    0.12    1.54
   4  11   9   -1.68    1.90
   5   0 -30   -0.06    2.34
   5   0 -29   -1.68    1.59
   5   0 -28    1.03    2.09
   5   0 -27    0.14    1.15
   5   0 -26   -0.63    1.00
   5   0 -25    1.27    1.45
   5   0 -24    1.77    0.88
   5   0 -23    1.35    1.98
   5   0 -22   -2.26    1.69
   5   0 -21    0.22    1.43
   5   0 -20    0.16    1.89
   5   0 -19    0.74    1.13
   5   0 -18   -0.20    1.12
   5   0 -17    0.20    1.09
   5   0 -16    0.66    1.08
   5   0 -15   -1.96    0.74
   5   0 -15    0.77    0.69
   5   0 -14   -0.54    0.52
   5   0 -14    0.16    0.60
   5   0 -13   -0.15    1.06
   5   0 -13   -0.23    0.61
   5   0 -12    0.57    0.89
   5   0 -12   -0.05    0.64
   5   0 -11    0.29    0.53
   5   0 -11    0.05    0.46
   5   0 -10    0.06    0.29
   5   0 -10    1.81    1.10
   5   0  -9    0.65    0.78
   5   0  -9   -0.09    0.76
   5   0  -8    0.12    0.37
   5   0  -8    0.04    1.01
   5   0  -7   -0.06    0.67
   5   0  -7   -0.30    0.52
   5   0  -7    0.09    0.64
   5   0  -6    0.38    0.61
   5   0  -6   -0.11    0.91
   5   0  -6   -0.10    0.34
   5   0  -5   -0.21    0.34
   5   0  -5   -0.19    0.66
   5   0  -5    0.30    0.40
   5   0  -4   -0.05    0.51
   5   0  -4   -0.35    0.58
   5   0  -4    0.05    0.68
   5   0  -3   -0.20    0.37
   5   0  -3   -0.22    0.46
   5   0  -3   -0.30    0.41
   5   0  -2    0.01    0.34
   5   0  -2   -0.70    0.64
   5   0  -2    0.43    0.57
   5   0  -1   -0.30    0.38
   5   0  -1   -0.31    0.58
   5   0  -1    0.33    0.52
   5   0   0    0.41    0.70
   5   0   0    0.21    0.59
   5   0   1   -0.26    0.35
   5   0   1   -0.20    0.24
   5   0   2    0.63    0.78
   5   0   2    0.05    0.24
   5   0   3    0.05    0.55
   5   0   3    0.30    0.49
   5   0   4    0.25    0.87
   5   0   4   -0.02    0.25
   5   0   5    0.12    0.72
   5   0   5   -0.17    0.23
   5   0   6   -0.15    0.51
   5   0   6    0.07    0.28
   5   0   7    0.55    0.78
   5   0   7   -0.02    0.39
   5   0   8    0.17    0.26
   5   0   8    0.39    0.86
   5   0   9   -0.06    0.36
   5   0   9    0.30    0.39
   5   0  10    0.42    1.02
   5   0  10    0.44    0.39
   5   0  11    0.09    1.16
   5   0  11    0.16    0.53
   5   0  12   -0.65    0.80
   5   0  12    0.08    0.28
   5   0  13   -0.12    0.61
   5   0  13   -0.33    0.23
   5   0  14   -0.06    0.67
   5   0  15    0.26    0.55
   5   0  16    0.60    0.61
   5   0  17   -0.64    1.23
   5   0  18   -0.65    0.97
   5   0  19    0.14    0.77
   5   0  20    0.38    1.91
   5   0  21    0.09    1.58
   5   0  22   -1.54    1.86
   5  -1 -30    2.41    2.46
   5  -1 -29    7.97    3.06
   5  -1 -28   10.86    3.34
   5  -1 -27   17.13    4.20
   5   1 -26   33.21    5.64
   5  -1 -26   27.05    4.89
   5  -1 -25   34.57    5.86
   5   1 -25   29.52    5.19
   5   1 -24    1.00    1.99
   5  -1 -24    2.16    1.40
   5   1 -23   -0.47    1.58
   5  -1 -23   -1.44    2.04
   5  -1 -22   11.90    3.38
   5   1 -22    9.54    3.23
   5   1 -21   20.30    3.86
   5  -1 -21   19.89    3.92
   5   1 -20    0.57    1.26
   5  -1 -20    0.58    1.35
   5   1 -19   25.55    4.04
   5  -1 -19   24.09    4.36
   5   1 -18   23.04    3.82
   5  -1 -18   21.68    3.73
   5   1 -17   23.08    3.74
   5  -1 -17   29.27    4.30
   5   1 -16  227.42   11.17
   5  -1 -16  235.99   12.00
   5  -1 -16  218.72    9.65
   5   1 -15  174.04    9.60
   5  -1 -15  202.49   10.83
   5  -1 -15  179.32    8.52
   5  -1 -14  121.41    6.80
   5  -1 -14  113.17    7.84
   5   1 -14  127.48    7.86
   5   1 -13   55.43    5.03
   5  -1 -13   63.04    5.98
   5  -1 -13   50.42    4.40
   5   1 -13   60.32    5.03
   5  -1 -12   79.36    6.31
   5   1 -12   73.00    5.62
   5  -1 -12   76.90    5.30
   5   1 -12   76.56    5.70
   5  -1 -11  145.27    8.42
   5  -1 -11  137.29    6.93
   5   1 -11  154.18    7.99
   5   1 -11  147.18    7.79
   5   1 -11  146.60    4.84
   5   1 -10  323.35   11.21
   5   1 -10  294.89    7.40
   5  -1 -10  313.08   12.10
   5   1 -10  316.38   11.00
   5  -1 -10  330.65   10.60
   5   1  -9   23.45    2.11
   5  -1  -9   24.72    3.35
   5  -1  -9   21.86    2.63
   5   1  -9   24.29    2.79
   5   1  -9   23.82    3.00
   5   1  -8   15.59    1.79
   5  -1  -8   17.99    2.38
   5  -1  -8   13.28    2.35
   5   1  -8   15.53    2.15
   5   1  -8   10.79    1.83
   5   1  -7   15.39    1.76
   5   1  -7   11.92    1.78
   5   1  -7   13.47    2.30
   5  -1  -7   12.36    2.22
   5  -1  -7   15.38    2.26
   5  -1  -6  731.35   15.15
   5   1  -6  739.92   14.66
   5   1  -6  744.33   12.44
   5  -1  -6  696.06   16.24
   5   1  -6  734.98   15.98
   5   1  -5  264.60    7.69
   5  -1  -5  253.23    8.89
   5   1  -5  265.06    9.44
   5  -1  -5  273.46    9.98
   5   1  -5  272.88    8.56
   5  -1  -4 1175.01   20.24
   5  -1  -4 1155.96   19.06
   5   1  -4 1188.64   16.46
   5   1  -4 1170.53   17.60
   5   1  -4 1232.10   19.98
   5   1  -3  182.90    6.86
   5  -1  -3  190.33    7.67
   5  -1  -3  178.72    7.78
   5   1  -3  176.78    6.53
   5  -1  -2   27.16    2.86
   5  -1  -2   27.68    3.01
   5   1  -2   21.83    2.35
   5   1  -2   30.19    2.69
   5   1  -2   29.64    3.02
   5  -1  -1   36.68    3.44
   5  -1  -1   30.09    3.14
   5   1  -1   30.86    3.00
   5   1  -1   29.80    2.79
   5  -1   0   29.37    3.03
   5   1   0   26.87    2.75
   5   1   0   26.63    2.71
   5  -1   0   29.74    3.13
   5   1   1   29.62    2.87
   5  -1   1   32.68    3.24
   5   1   1   31.71    2.97
   5   1   2   23.28    2.67
   5  -1   2   25.03    2.87
   5   1   2   24.01    2.60
   5   1   3  193.58    7.79
   5   1   3  192.88    7.23
   5  -1   3  184.31    7.77
   5   1   4 1195.99   19.62
   5  -1   4 1193.27   19.96
   5   1   4 1161.65   18.00
   5   1   5  286.21    9.87
   5   1   5  287.80    8.79
   5  -1   5  286.05    9.91
   5   1   6  751.84   16.23
   5   1   6  736.03   14.00
   5  -1   6  742.62   16.01
   5   1   7   11.89    2.25
   5   1   7   13.31    1.96
   5  -1   7    9.95    1.81
   5   1   8   15.15    2.64
   5  -1   8   13.86    2.31
   5   1   8   18.02    2.26
   5   1   9   22.49    2.39
   5   1   9   23.81    3.09
   5  -1   9   15.68    2.53
   5   1  10  332.81    9.16
   5  -1  10  308.08   11.12
   5   1  10  325.33   11.84
   5   1  11  156.66    6.24
   5   1  11  159.86    8.54
   5  -1  11  143.49    7.85
   5   1  12   78.55    4.38
   5   1  12   78.24    6.09
   5  -1  12   64.78    5.36
   5   1  13   51.12    4.99
   5  -1  13   61.08    5.34
   5   1  13   60.65    3.80
   5   1  14  115.62    7.83
   5  -1  14  118.65    7.64
   5   1  14  118.63    5.28
   5   1  15  182.56    9.95
   5  -1  15  173.08    9.46
   5   1  15  177.76    6.39
   5   1  16  240.06   11.59
   5  -1  16  227.45   10.92
   5   1  17   24.97    3.77
   5  -1  17   29.70    4.15
   5   1  18   25.30    4.12
   5  -1  18   17.23    3.12
   5   1  19   17.62    3.73
   5  -1  19   29.45    4.18
   5  -1  20   -0.85    1.51
   5   1  20    0.85    1.66
   5  -1  21   16.31    3.48
   5   1  21   16.49    3.24
   5   1  22   14.37    3.51
   5   1  23    2.22    2.40
   5  -2 -29   -3.32    2.47
   5  -2 -28    0.20    1.64
   5  -2 -27    1.32    1.88
   5  -2 -26    7.67    2.89
   5  -2 -25    8.05    2.90
   5  -2 -24    2.55    2.14
   5  -2 -23   25.13    4.53
   5  -2 -22    5.25    2.19
   5   2 -21    2.39    1.37
   5  -2 -21    5.71    2.01
   5   2 -20   10.99    3.22
   5  -2 -20   11.06    3.37
   5   2 -19   70.75    6.94
   5  -2 -19   79.46    7.39
   5   2 -18   17.95    3.45
   5  -2 -18   18.44    3.60
   5  -2 -18   24.57    3.76
   5  -2 -17   20.52    3.90
   5   2 -17   16.92    3.07
   5  -2 -17   26.59    3.73
   5   2 -17   22.19    3.37
   5  -2 -16   47.89    4.97
   5  -2 -16   54.48    6.16
   5   2 -16   46.49    4.94
   5   2 -16   49.21    5.07
   5  -2 -15  306.24   14.01
   5  -2 -15  350.55   13.21
   5   2 -15  346.31   12.98
   5   2 -15  312.65   12.30
   5  -2 -14   78.60    6.75
   5  -2 -14   77.38    6.19
   5   2 -14   80.31    6.14
   5   2 -14   71.17    5.71
   5   2 -13  150.14    7.94
   5  -2 -13  171.69    9.88
   5  -2 -13  165.43    9.03
   5   2 -13  167.03    8.66
   5  -2 -12   14.21    2.90
   5   2 -12   13.13    2.37
   5  -2 -12    6.34    1.57
   5   2 -12   14.50    2.51
   5   2 -11   49.72    4.22
   5  -2 -11   39.27    4.59
   5  -2 -11   41.26    4.32
   5   2 -11   45.70    4.41
   5   2 -10    0.25    1.16
   5   2 -10    1.43    0.50
   5  -2 -10    1.11    1.13
   5   2 -10    1.65    0.92
   5  -2 -10    1.64    1.27
   5   2  -9    7.98    1.93
   5  -2  -9    5.02    1.33
   5   2  -9    4.83    0.81
   5   2  -9    6.24    1.43
   5  -2  -9    3.59    1.65
   5   2  -8   60.59    4.05
   5  -2  -8   45.31    4.56
   5   2  -8   54.75    3.05
   5  -2  -8   52.30    4.62
   5   2  -8   58.16    4.75
   5  -2  -7  332.42   11.43
   5  -2  -7  343.37   12.20
   5   2  -7  338.80    8.02
   5   2  -7  346.73    9.28
   5   2  -7  351.36   11.57
   5   2  -6  231.09    6.86
   5   2  -6  233.42    7.44
   5  -2  -6  216.79    9.55
   5  -2  -6  231.66    9.48
   5   2  -6  225.33    9.25
   5  -2  -5   56.89    4.69
   5   2  -5   54.77    3.52
   5   2  -5   54.43    3.52
   5  -2  -5   47.64    4.42
   5   2  -5   57.18    4.74
   5   2  -4   55.25    3.64
   5  -2  -4   48.18    4.39
   5   2  -4   52.55    3.40
   5   2  -4   51.72    4.35
   5  -2  -4   48.76    4.22
   5  -2  -3  179.55    8.23
   5  -2  -3  182.50    8.12
   5   2  -3  183.58    6.31
   5   2  -3  177.68    7.94
   5   2  -3  187.29    6.85
   5   2  -2   85.24    5.56
   5  -2  -2   87.95    5.65
   5   2  -2   82.50    4.64
   5  -2  -2   82.53    5.49
   5   2  -2   91.71    4.46
   5   2  -1   56.99    4.37
   5  -2  -1   53.58    4.41
   5   2  -1   51.53    3.84
   5  -2  -1   50.29    4.23
   5   2   0  241.88    8.58
   5  -2   0  254.20    9.61
   5  -2   0  264.70    9.77
   5   2   0  248.40    9.21
   5  -2   1   43.68    4.00
   5   2   1   48.13    4.03
   5   2   1   47.00    3.85
   5  -2   1   54.20    4.40
   5   2   2   83.99    5.32
   5   2   2   87.75    5.44
   5  -2   2   84.82    5.43
   5  -2   2   89.10    5.73
   5   2   3  175.09    7.67
   5  -2   3  166.71    7.74
   5   2   3  176.81    7.94
   5   2   4   52.57    4.18
   5  -2   4   47.67    4.23
   5   2   4   48.91    4.23
   5   2   5   53.42    4.23
   5  -2   5   51.42    4.34
   5   2   5   50.15    4.41
   5  -2   6  213.52    9.07
   5   2   6  226.26    8.72
   5   2   7  340.61   10.64
   5  -2   7  327.82   11.40
   5   2   7  326.25   11.84
   5   2   8   66.64    4.67
   5   2   8   53.14    4.83
   5  -2   8   50.47    4.68
   5   2   9    4.89    1.46
   5   2   9    6.16    1.91
   5  -2   9    5.06    1.56
   5   2  10    1.02    0.84
   5   2  10    0.99    0.74
   5  -2  10    0.75    1.12
   5   2  11   44.10    3.86
   5  -2  11   41.43    4.20
   5   2  11   51.16    5.08
   5   2  12   14.58    2.17
   5   2  12    8.52    2.48
   5  -2  12   11.16    2.38
   5   2  13  161.82    7.66
   5   2  13  143.87    8.89
   5  -2  13  157.01    8.64
   5   2  14   65.78    4.97
   5   2  14   76.70    6.57
   5  -2  14   71.48    5.89
   5   2  15  347.24   11.23
   5   2  15  334.19   14.01
   5  -2  15  314.44   12.75
   5   2  16   53.00    4.44
   5   2  16   55.08    5.80
   5  -2  16   54.76    5.47
   5  -2  17   25.83    3.74
   5   2  17   26.13    4.04
   5   2  18   23.29    4.15
   5  -2  18   21.42    3.61
   5  -2  19   75.66    6.78
   5   2  19   79.53    7.38
   5   2  20    9.22    2.82
   5   2  21    4.78    1.84
   5   2  22    1.88    1.92
   5   2  23   19.45    4.14
   5   2  24    7.93    2.93
   5  -3 -29    6.86    3.25
   5  -3 -28    9.51    3.31
   5  -3 -27   27.57    5.31
   5  -3 -26    7.69    1.82
   5  -3 -25   60.75    7.33
   5  -3 -24    4.58    2.54
   5  -3 -23   -1.40    1.94
   5  -3 -22   47.33    6.52
   5  -3 -21   57.92    6.77
   5  -3 -20   29.86    4.82
   5  -3 -19   70.29    6.79
   5  -3 -19   70.14    7.27
   5  -3 -18   15.12    3.31
   5  -3 -18   16.19    3.39
   5  -3 -17   10.49    2.26
   5  -3 -17    8.02    2.50
   5   3 -17   14.09    2.81
   5  -3 -16   77.93    6.83
   5  -3 -16   86.73    7.76
   5   3 -16   85.93    6.79
   5   3 -15  253.65   10.74
   5  -3 -15  304.40   14.54
   5  -3 -15  284.89   12.98
   5   3 -15  299.85   12.52
   5   3 -14   60.30    4.88
   5  -3 -14   73.63    6.83
   5  -3 -14   65.76    5.99
   5   3 -14   65.65    5.81
   5  -3 -13   11.80    2.78
   5   3 -13   13.93    2.64
   5   3 -13   10.27    2.07
   5  -3 -13    8.17    2.41
   5   3 -12   45.09    3.93
   5  -3 -12   44.78    5.25
   5  -3 -12   37.80    4.40
   5   3 -12   40.34    4.44
  -5   3 -11   60.97    3.99
   5   3 -11   76.73    4.68
   5  -3 -11   73.09    6.19
   5   3 -11   73.18    5.91
   5  -3 -11   79.50    6.73
   5  -3 -10  113.82    7.92
  -5   3 -10  123.80    5.81
   5   3 -10  108.40    5.32
   5  -3 -10  110.40    7.45
   5   3 -10  106.07    3.80
   5   3 -10  122.67    7.56
   5  -3  -9   31.45    4.17
   5   3  -9   32.94    2.84
   5  -3  -9   31.37    3.89
   5   3  -9   31.46    3.80
   5   3  -9   31.29    2.31
   5  -3  -8   10.33    2.47
   5   3  -8    7.60    1.32
   5   3  -8    9.64    1.50
   5  -3  -8    6.15    1.83
   5   3  -8   10.81    2.12
   5  -3  -7   80.45    6.29
   5   3  -7   81.20    4.27
   5   3  -7   80.41    3.90
   5  -3  -7   81.20    6.14
   5   3  -7   92.44    6.46
   5   3  -6  305.28   11.54
   5   3  -6  305.34    8.66
   5   3  -6  306.66    7.35
   5  -3  -6  304.33   11.86
   5  -3  -6  314.72   11.98
   5  -3  -5  318.19   12.07
   5   3  -5  325.98   12.01
   5   3  -5  325.31    7.57
   5  -3  -5  342.11   12.42
   5   3  -4  156.57    8.17
   5  -3  -4  152.79    8.27
   5   3  -4  159.04    6.86
   5  -3  -4  162.34    8.47
   5   3  -4  153.48    5.18
   5   3  -3  123.84    6.18
   5   3  -3  117.69    4.69
   5   3  -3  113.70    6.98
   5  -3  -3  115.01    7.15
   5  -3  -3  113.74    7.05
   5   3  -2  272.81    9.41
   5   3  -2  278.42   10.78
   5  -3  -2  281.44   10.80
   5  -3  -2  283.35   11.10
   5   3  -1  920.09   19.67
   5   3  -1  879.72   17.27
   5  -3  -1  938.61   19.42
   5  -3  -1  894.55   19.65
   5   3   0  601.35   15.97
   5  -3   0  601.71   16.25
   5   3   0  598.30   14.64
   5  -3   0  618.88   15.77
   5   3   1  912.19   19.53
   5  -3   1  932.28   20.03
   5  -3   1  959.88   19.50
   5   3   1  901.61   18.53
   5  -3   2  282.20   10.94
   5   3   2  275.48   10.33
   5  -3   2  281.34   10.50
   5   3   2  282.48   10.93
   5  -3   3  115.89    6.80
   5   3   3  111.86    6.92
   5  -3   3  116.69    6.96
   5   3   3  113.34    6.81
   5   3   4  148.36    7.84
   5  -3   4  157.98    7.84
   5  -3   4  151.03    8.11
   5   3   4  147.30    7.88
   5  -3   5  333.29   12.04
   5   3   5  336.80   11.76
   5  -3   6  302.42   11.40
   5   3   6  298.03   11.71
   5   3   6  309.03   11.31
   5   3   7   87.85    6.11
   5  -3   7   84.39    6.15
   5   3   7   94.82    6.73
   5  -3   8   12.03    2.17
   5   3   8    9.92    2.14
   5   3   8   11.54    2.82
   5   3   9   28.33    3.59
   5  -3   9   23.01    3.42
   5   3   9   24.14    3.70
   5   3  10  122.11    7.30
   5  -3  10  118.42    7.38
   5   3  10  117.22    7.96
   5  -3  11   79.29    6.08
   5   3  11   71.89    6.26
   5   3  11   80.38    5.92
   5   3  12   50.98    4.86
   5  -3  12   40.48    4.41
   5   3  12   35.54    4.36
   5  -3  13    6.66    1.80
   5   3  13   11.77    2.51
   5   3  14   63.33    5.44
   5   3  14   66.63    6.52
   5  -3  14   73.92    6.22
   5   3  15  275.93   13.40
   5  -3  15  270.83   12.00
   5   3  15  304.43   12.17
   5   3  16   81.85    6.15
   5  -3  16   70.56    6.40
   5   3  16   78.50    7.29
   5   3  17   17.39    3.00
   5   3  17   17.95    3.58
   5  -3  17    9.17    2.61
   5   3  18   10.77    2.90
   5  -3  18   12.70    2.62
   5   3  19   52.75    6.02
   5   3  20   25.02    4.18
   5   3  21   77.00    7.97
   5   3  22   46.91    6.22
   5   3  23    3.60    1.48
   5   3  24    2.85    1.21
   5   3  25   59.28    7.60
   5   3  26    9.18    3.07
   5  -4 -28    2.97    2.27
   5  -4 -27   -2.68    1.41
   5  -4 -26    0.29    1.55
   5  -4 -25    2.95    1.80
   5  -4 -24   17.32    4.37
   5  -4 -23    7.95    3.00
   5  -4 -22    3.35    2.25
   5  -4 -21   14.33    3.26
   5  -4 -20   35.81    5.42
   5  -4 -20   18.52    4.26
   5  -4 -19    2.18    1.18
   5  -4 -19    2.08    1.66
   5  -4 -18    2.29    1.69
   5  -4 -18    7.76    2.98
  -5  -4 -18    3.91    1.77
  -5  -4 -17  134.10    9.98
   5  -4 -17  115.85    9.14
   5  -4 -17  139.14    9.98
  -5  -4 -16   52.87    6.10
   5  -4 -16   49.98    5.95
   5  -4 -16   41.87    5.19
   5   4 -16   48.73    5.41
  -5  -4 -15   19.90    3.96
   5  -4 -15   15.65    3.43
   5   4 -15   20.39    3.42
   5  -4 -15   18.31    3.59
   5   4 -14    6.31    1.73
   5  -4 -14    8.62    2.61
  -5  -4 -14   10.47    2.88
   5  -4 -14    8.19    2.41
  -5  -4 -13   50.10    5.62
   5  -4 -13   54.94    5.98
   5  -4 -13   52.89    5.76
   5   4 -13   53.12    5.28
   5  -4 -12   79.10    7.04
   5  -4 -12   69.02    6.59
   5   4 -12   67.25    5.94
  -5  -4 -12   77.90    7.00
  -5   4 -11   21.22    2.89
   5  -4 -11   17.49    3.32
   5  -4 -11   22.40    3.71
   5   4 -11   28.44    4.08
   5   4 -10    7.45    2.29
  -5   4 -10    8.05    1.80
   5  -4 -10    7.74    2.38
   5  -4 -10    8.57    2.57
   5   4  -9   78.43    4.44
  -5   4  -9   68.86    5.20
   5  -4  -9   76.27    6.52
   5   4  -9   74.52    6.23
   5  -4  -9   70.07    6.37
  -5   4  -8   14.85    2.42
   5   4  -8   13.38    2.76
   5  -4  -8   16.04    2.84
   5  -4  -8   20.89    3.54
   5   4  -7   42.26    4.78
   5  -4  -7   40.20    4.59
  -5   4  -7   34.87    3.81
   5   4  -7   40.48    3.50
   5  -4  -7   33.37    4.06
   5   4  -6  129.87    6.40
   5   4  -6  119.03    7.83
   5  -4  -6  131.41    8.18
   5  -4  -6  126.61    8.18
   5   4  -5   49.08    5.03
   5   4  -5   44.02    1.91
   5  -4  -5   55.70    5.40
   5   4  -5   56.81    4.38
   5  -4  -5   46.81    4.95
   5  -4  -4   46.29    4.80
   5   4  -4   47.81    2.37
   5   4  -4   48.54    4.19
   5  -4  -4   57.27    5.42
   5   4  -3    4.61    1.45
   5  -4  -3    6.66    1.92
   5   4  -3    2.59    1.19
   5  -4  -3    6.22    1.82
   5   4  -3    4.97    0.84
   5   4  -2   16.21    2.85
   5  -4  -2   19.95    3.19
   5   4  -2   18.21    2.78
   5  -4  -2   16.84    2.74
   5   4  -1    4.29    1.54
   5  -4  -1    6.07    1.98
   5   4  -1    6.98    1.94
   5  -4  -1    4.28    1.30
   5  -4   0   73.82    6.06
   5   4   0   70.11    5.92
   5  -4   0   79.63    5.91
   5   4   0   81.89    5.76
   5  -4   1    3.12    1.22
   5   4   1    6.96    2.12
   5   4   1    3.78    1.07
   5  -4   1    4.97    1.42
   5   4   2   17.90    3.11
   5  -4   2   15.01    2.90
   5  -4   2   18.70    2.73
   5   4   2   15.02    2.67
   5   4   3    4.21    1.56
   5   4   3    8.06    2.08
   5  -4   3    9.47    2.59
   5  -4   3    2.84    1.36
   5   4   4   46.18    4.95
   5  -4   4   58.63    4.92
   5   4   4   55.58    5.19
   5  -4   4   56.99    5.29
   5  -4   5   52.57    5.03
   5   4   5   44.32    4.79
   5  -4   5   41.70    4.35
   5   4   5   46.99    4.80
   5  -4   6  119.38    7.69
   5   4   6  139.15    8.30
   5  -4   6  122.86    7.51
   5   4   6  118.05    7.92
   5   4   7   43.59    4.71
   5  -4   7   37.28    4.28
   5   4   7   35.41    4.44
   5  -4   8   19.38    3.25
   5   4   8   23.93    3.63
   5   4   8   19.77    3.36
   5  -4   9   77.93    6.35
   5   4   9   75.63    6.35
   5   4   9   65.97    6.17
   5   4  10    7.65    2.50
   5   4  10    6.56    1.85
   5  -4  10    3.85    1.52
   5  -4  11   28.27    3.79
   5   4  11   29.32    4.38
   5   4  11   18.38    3.26
   5  -4  12   73.41    6.25
   5   4  12   56.97    5.64
   5   4  12   72.00    6.74
   5  -4  13   60.45    5.86
   5   4  13   42.58    4.91
   5   4  13   58.28    6.12
   5   4  14    7.03    2.22
   5  -4  14   10.64    2.73
   5   4  14    7.88    2.26
   5   4  15   15.11    3.15
   5   4  15   17.74    3.47
   5  -4  15    8.89    2.20
   5  -4  16   34.30    4.82
   5   4  16   49.48    5.43
   5   4  16   45.10    5.54
   5  -4  17   98.34    8.20
   5   4  17  126.18    9.72
   5   4  17  127.33    8.92
   5   4  18    4.34    1.64
   5   4  18    3.15    0.93
   5   4  19    6.41    2.61
   5   4  20   30.10    4.97
   5   4  21   21.21    4.43
   5   4  22   10.51    2.94
   5   4  23   14.01    3.51
   5   4  24   10.33    2.98
   5   4  25    5.93    2.98
   5   4  26   -0.38    1.29
   5  -5 -27    5.67    2.90
   5  -5 -26    1.17    1.04
   5  -5 -25   12.30    3.38
   5  -5 -24   19.24    4.48
   5  -5 -23    3.15    2.41
   5  -5 -22    1.63    0.94
   5  -5 -21   20.03    4.08
  -5  -5 -20   41.80    5.99
   5  -5 -20   47.16    6.49
   5  -5 -20   32.82    5.60
  -5  -5 -19    4.14    1.91
   5  -5 -19    7.64    2.65
   5  -5 -19    5.86    2.37
  -5  -5 -18    5.24    2.30
   5  -5 -18    4.58    2.73
   5  -5 -18    4.06    1.62
  -5  -5 -17   23.51    4.31
   5  -5 -17   26.73    4.95
   5  -5 -17   15.79    3.35
   5   5 -16    3.10    1.65
  -5  -5 -16    2.57    1.92
   5  -5 -16    1.11    1.11
   5  -5 -16    2.07    1.89
   5  -5 -15   71.81    7.28
   5  -5 -15   93.78    8.28
  -5  -5 -15   78.81    7.63
   5   5 -15   82.57    7.31
   5   5 -14   29.95    4.50
   5  -5 -14   28.99    4.73
  -5  -5 -14   20.98    3.97
   5  -5 -13   -0.99    1.06
   5   5 -13    0.60    1.13
  -5  -5 -13   -0.82    1.27
   5  -5 -13    1.58    2.06
   5   5 -12   17.89    3.38
  -5  -5 -12   23.27    3.81
   5  -5 -12   16.40    3.78
   5  -5 -12   18.46    3.80
   5   5 -11   97.63    7.75
  -5   5 -11  111.93    7.41
   5  -5 -11   94.30    8.13
  -5  -5 -11  107.62    8.13
   5  -5 -11   97.78    8.13
   5   5 -10   28.00    4.17
   5  -5 -10   22.99    3.95
  -5  -5 -10   25.91    3.89
   5  -5 -10   20.41    3.90
  -5   5 -10   18.03    3.00
   5   5  -9   58.67    5.88
   5  -5  -9   61.44    6.32
   5  -5  -9   55.09    6.07
  -5   5  -9   57.68    5.64
   5  -5  -8   12.16    2.93
   5  -5  -8   13.32    3.11
  -5   5  -8   11.12    2.47
   5   5  -8   13.66    2.20
   5   5  -7   12.60    2.41
   5   5  -7   19.37    3.24
  -5   5  -7   16.80    3.05
   5  -5  -7    9.73    2.54
   5  -5  -7   17.69    3.34
  -5   5  -6  159.77    9.19
   5  -5  -6  163.33    9.54
   5   5  -6  159.20    9.51
   5  -5  -6  168.16   10.12
   5   5  -6  164.52    8.05
   5   5  -5  103.14    7.72
  -5   5  -5   89.83    6.76
   5  -5  -5   95.12    7.11
   5   5  -5   98.31    6.45
   5  -5  -5   97.34    7.66
   5   5  -4    8.99    2.27
   5   5  -4    6.71    2.00
  -5   5  -4    8.37    2.35
   5  -5  -4    6.75    2.00
   5  -5  -4    5.25    1.73
   5   5  -3   20.41    3.58
  -5   5  -3   28.66    4.02
   5   5  -3   26.65    3.44
   5  -5  -3   24.15    3.71
   5  -5  -3   20.53    3.45
   5   5  -2   20.78    3.14
   5   5  -2   21.26    3.38
   5  -5  -2   27.36    3.82
   5  -5  -2   19.28    3.27
   5   5  -1   41.69    4.40
   5   5  -1   43.98    4.99
   5  -5  -1   39.20    5.03
   5  -5  -1   42.99    4.65
   5   5   0  113.92    7.60
   5  -5   0  113.84    8.11
   5   5   0  124.41    8.43
   5  -5   0  107.19    7.31
   5   5   1   41.27    4.50
   5   5   1   39.72    4.52
   5  -5   1   41.59    4.62
   5  -5   1   36.15    4.46
   5   5   2   17.46    3.06
   5  -5   2   21.69    3.60
   5   5   2   22.62    3.46
   5  -5   2   21.40    3.28
   5   5   3   31.03    4.16
   5   5   3   28.73    3.69
   5  -5   3   28.89    3.73
   5  -5   3   21.00    3.38
   5  -5   4    4.32    1.72
   5   5   4    1.54    1.09
   5   5   4    4.35    1.83
   5  -5   4    4.70    1.92
   5  -5   5   97.08    7.53
   5   5   5   86.58    7.09
   5   5   5   85.03    7.04
   5  -5   5   94.13    6.83
   5   5   6  164.68    9.91
   5   5   6  167.72    9.95
   5  -5   6  162.43    8.97
   5  -5   6  163.90    9.63
   5   5   7   13.59    3.06
   5   5   7   13.88    2.75
   5  -5   7   13.15    2.42
   5  -5   7   15.61    2.99
   5  -5   8    9.47    2.23
   5   5   8   15.42    3.15
   5  -5   8   15.09    2.65
   5   5   8   10.95    2.51
   5   5   9   69.98    6.38
   5   5   9   62.61    6.22
   5  -5   9   61.61    5.77
   5  -5   9   56.23    5.53
   5   5  10   30.36    4.49
   5  -5  10   19.84    3.37
   5   5  10   22.09    3.91
   5   5  11   95.49    7.73
   5   5  11   87.36    7.63
   5  -5  11   85.38    7.10
   5   5  12   19.81    3.62
   5   5  12   12.80    3.27
   5  -5  12   17.81    3.35
   5   5  13    2.06    2.05
   5   5  13    1.24    1.13
   5  -5  13    0.04    0.84
   5   5  14   32.75    4.71
   5  -5  14   31.74    4.57
   5   5  14   31.40    4.99
   5   5  15   78.18    7.46
   5   5  15   65.83    7.09
   5  -5  15   74.08    6.80
   5   5  16    1.43    1.74
   5   5  16    3.06    2.14
   5  -5  16    0.85    0.80
   5   5  17   28.32    4.73
   5   5  17   26.51    4.56
   5   5  18    0.94    1.11
   5   5  18    6.66    3.00
   5   5  19    7.37    1.96
  -5   5  20   40.13    6.26
   5   5  20   40.85    5.94
   5   5  21   22.89    4.62
  -5   5  21   23.56    4.85
  -5   5  22   -0.89    1.81
   5   5  22   -0.25    1.85
  -5   5  23    4.18    2.24
   5   5  23    5.77    2.35
  -5   5  23    3.37    1.38
   5   5  24   19.69    4.94
   5   5  25    9.47    2.63
   5   5  26    8.31    3.33
   5   5  27    1.86    1.95
   5  -6 -25    0.60    1.76
   5  -6 -24    2.74    3.36
   5  -6 -23   -2.35    2.00
   5  -6 -22    4.42    1.86
   5  -6 -21    4.63    3.04
   5  -6 -20    2.35    2.04
  -5  -6 -20    0.72    1.74
   5  -6 -20    3.22    0.98
   5  -6 -19   -1.21    1.28
   5  -6 -19   -0.06    1.12
  -5  -6 -18    2.18    1.85
   5  -6 -18   -1.78    1.78
   5  -6 -18    1.71    2.20
  -5  -6 -17    2.38    0.93
   5  -6 -17    1.18    1.47
   5  -6 -17    2.60    2.04
   5  -6 -16    6.38    1.85
  -5  -6 -16    6.35    2.98
   5  -6 -16    3.90    1.19
   5   6 -15   20.32    4.15
  -5  -6 -15   16.33    3.65
   5  -6 -15   12.89    3.40
   5  -6 -15   22.07    4.28
   5   6 -14    5.83    2.55
  -5  -6 -14    1.93    1.30
   5  -6 -14    3.40    1.82
   5  -6 -14    6.85    2.67
   5  -6 -13    9.79    2.91
   5   6 -13    8.08    2.72
  -5  -6 -13   10.04    2.52
   5  -6 -13    5.69    2.18
   5   6 -12   28.62    4.33
   5  -6 -12   40.01    5.86
  -5  -6 -12   26.46    4.40
   5  -6 -12   30.85    4.78
   5   6 -11    5.30    2.32
  -5  -6 -11   11.01    2.92
   5  -6 -11    9.52    3.39
   5  -6 -11    6.24    2.59
   5   6 -10    3.81    1.73
  -5  -6 -10    7.77    2.41
  -5   6 -10    6.96    2.38
   5  -6 -10    8.72    2.32
   5  -6 -10    3.78    1.73
   5   6  -9   25.76    4.01
   5  -6  -9   26.60    4.59
  -5   6  -9   21.60    3.76
   5  -6  -9   18.80    3.57
   5   6  -8   20.40    3.56
   5  -6  -8   15.58    3.23
  -5   6  -8   18.87    3.54
   5  -6  -8   17.86    3.88
   5   6  -7   39.25    5.09
   5   6  -7   34.44    4.11
  -5   6  -7   41.61    5.04
   5  -6  -7   45.92    5.70
   5  -6  -7   44.09    5.66
   5   6  -6    2.09    1.43
   5   6  -6    3.73    1.75
   5  -6  -6    2.54    1.65
  -5   6  -6    3.08    1.47
   5  -6  -6    3.63    2.17
   5   6  -5    9.31    2.81
   5  -6  -5    2.42    1.83
   5  -6  -5    8.25    2.80
   5   6  -5    6.04    1.65
  -5   6  -5    4.19    2.19
   5   6  -4   41.64    4.57
  -5   6  -4   48.67    5.50
   5  -6  -4   52.21    6.03
   5   6  -4   48.53    5.64
   5  -6  -4   45.79    5.37
   5   6  -3   12.93    2.95
  -5   6  -3   13.96    3.22
   5   6  -3   11.40    2.64
   5  -6  -3   10.77    2.53
   5  -6  -3   13.38    2.91
   5   6  -2   35.59    4.83
   5   6  -2   34.73    4.23
   5  -6  -2   33.79    4.37
  -5   6  -2   29.12    4.35
   5  -6  -2   33.73    5.03
   5   6  -1   34.06    4.66
   5   6  -1   27.34    4.01
  -5   6  -1   33.67    4.59
   5  -6  -1   28.37    4.36
   5  -6  -1   25.71    3.73
   5   6   0   24.02    3.97
   5   6   0   26.72    3.80
   5  -6   0   30.00    4.14
  -5   6   0   30.65    4.35
   5  -6   0   29.60    4.60
   5   6   1   29.25    4.37
   5   6   1   35.65    4.63
  -5   6   1   30.60    4.55
   5  -6   1   25.68    3.90
   5  -6   1   25.47    4.16
   5   6   2   36.62    5.05
   5   6   2   34.63    4.61
  -5   6   2   35.15    4.91
   5  -6   2   36.47    4.35
   5  -6   2   39.35    4.88
   5   6   3   17.96    3.38
   5   6   3   15.85    3.06
  -5   6   3   16.38    3.27
   5  -6   3    7.99    2.13
   5  -6   3   15.96    3.29
   5   6   4   45.72    5.35
   5   6   4   54.74    5.87
  -5   6   4   49.49    5.74
   5  -6   4   53.54    5.44
   5  -6   4   53.19    5.99
   5  -6   5    2.72    1.11
   5   6   5    6.78    2.60
   5  -6   5    7.96    2.18
   5   6   5    7.71    2.31
  -5   6   5    6.79    2.63
   5  -6   6    2.13    1.54
   5   6   6    2.08    1.71
   5  -6   6    1.62    1.09
   5   6   6    4.46    2.04
   5   6   7   30.58    4.28
   5   6   7   41.98    5.40
   5  -6   7   35.68    4.37
   5  -6   7   47.82    5.65
   5   6   8   16.94    3.26
   5  -6   8   18.49    3.67
   5  -6   8    9.44    2.40
   5   6   8   21.91    3.76
   5  -6   9   18.82    3.66
   5   6   9   22.52    4.10
   5  -6   9   19.98    3.51
   5   6   9   15.72    3.38
   5  -6  10    2.84    1.63
   5   6  10    1.60    1.71
   5  -6  10    3.84    1.20
   5   6  10    6.56    2.28
   5   6  11    4.30    1.59
   5  -6  11    1.06    1.09
   5   6  11    4.91    1.89
   5  -6  11    4.10    1.73
   5  -6  12   19.50    3.87
   5   6  12   32.74    5.06
  -5   6  12   27.13    4.71
   5   6  12   16.40    3.54
   5  -6  12   24.03    3.94
   5  -6  13    8.69    2.77
  -5   6  13    5.81    2.66
   5   6  13    7.58    2.56
   5   6  13    4.49    2.19
   5  -6  13    4.10    1.66
   5  -6  14    6.70    2.41
   5   6  14    4.54    1.54
   5   6  14    6.28    2.78
  -5   6  14    6.87    2.29
  -5   6  15   17.59    3.49
   5   6  15   11.40    3.54
   5   6  15   14.47    2.85
  -5   6  16   10.18    2.72
   5   6  16    7.94    2.61
   5   6  16    6.35    2.49
   5   6  17    3.28    1.60
   5   6  17    1.78    1.35
  -5   6  18    2.27    2.10
   5   6  18    2.19    2.23
   5   6  18    7.00    2.90
   5   6  19   -0.07    2.37
  -5   6  19    2.00    1.74
   5   6  19    0.05    1.40
  -5   6  20    1.80    2.32
   5   6  20    3.70    2.77
   5   6  21   -1.70    1.78
  -5   6  21    3.15    2.39
   5   6  22    5.26    2.12
  -5   6  22    6.39    2.74
   5   6  23    0.06    1.07
  -5   6  23   -2.13    1.65
   5   6  24    1.91    1.69
  -5   6  24    1.16    1.42
   5   6  25    2.11    2.55
   5  -7 -24    3.54    3.23
   5  -7 -23    4.02    2.91
   5  -7 -22    3.45    1.38
   5  -7 -21   22.00    4.75
   5  -7 -20    8.98    3.02
  -5  -7 -19   16.20    3.74
   5  -7 -19   15.66    3.58
   5  -7 -19    9.83    2.53
  -5  -7 -18    8.67    3.17
   5  -7 -18   17.37    3.91
   5  -7 -18    7.83    2.92
   5  -7 -17   17.38    3.92
  -5  -7 -17   21.31    4.46
   5  -7 -17   21.15    4.88
  -5  -7 -16   25.69    4.87
   5  -7 -16   22.57    4.91
   5  -7 -16   24.15    4.71
  -5  -7 -15    2.86    1.96
   5  -7 -15    7.11    3.02
   5  -7 -15    3.84    2.10
   5   7 -14    6.69    2.34
  -5  -7 -14    7.60    2.59
   5  -7 -14    8.48    2.94
   5  -7 -14   11.08    3.62
   5   7 -13    8.58    3.12
  -5  -7 -13   13.10    3.54
   5  -7 -13   15.36    4.31
   5  -7 -13    8.60    2.57
   5   7 -12   14.56    3.05
  -5  -7 -12   10.26    2.74
   5  -7 -12   12.63    3.11
   5  -7 -12   12.32    3.14
   5   7 -11   48.78    6.19
  -5  -7 -11   53.14    6.40
   5  -7 -11   42.75    5.57
   5  -7 -11   54.07    6.63
   5   7 -10   63.07    6.96
  -5   7 -10   84.07    7.86
   5  -7 -10   62.80    7.09
   5  -7 -10   81.91    8.07
   5   7  -9   40.15    5.79
  -5   7  -9   34.52    5.14
   5  -7  -9   36.27    5.20
   5  -7  -9   32.72    5.08
   5   7  -8   52.85    6.48
   5  -7  -8   49.45    6.12
  -5   7  -8   39.73    5.56
   5  -7  -8   38.45    5.41
   5   7  -7   51.51    6.16
  -5   7  -7   50.85    5.86
   5  -7  -7   49.45    5.87
   5  -7  -7   64.07    7.16
   5   7  -6   22.70    4.34
  -5   7  -6   19.74    3.80
   5  -7  -6   21.03    3.93
   5   7  -6   25.40    4.00
   5  -7  -6   23.14    4.15
   5   7  -5   49.43    5.45
  -5   7  -5   40.89    5.57
   5  -7  -5   53.42    5.95
   5  -7  -5   40.11    5.49
   5   7  -5   53.84    6.33
  -5   7  -4   13.77    3.34
   5   7  -4   22.63    4.57
   5  -7  -4   12.61    3.35
   5  -7  -4   14.28    3.18
   5   7  -4   16.97    3.36
   5   7  -3    2.95    2.10
   5  -7  -3    2.38    1.64
   5   7  -3    5.87    1.96
  -5   7  -3    5.35    2.52
   5  -7  -3    1.88    1.42
   5   7  -2   17.81    3.59
  -5   7  -2   14.28    3.51
   5  -7  -2   19.47    3.79
   5  -7  -2   23.68    4.23
   5   7  -2   15.02    3.12
   5   7  -1   41.33    5.65
   5   7  -1   46.94    5.54
  -5   7  -1   50.08    6.18
   5  -7  -1   48.69    5.90
   5  -7  -1   47.25    5.28
   5   7   0    9.46    3.06
   5   7   0    4.37    2.58
   5  -7   0    6.82    2.55
   5  -7   0    1.28    1.61
  -5   7   0    4.31    2.67
   5   7   1   58.27    6.58
   5   7   1   44.73    5.49
  -5   7   1   46.73    5.73
   5  -7   1   45.10    5.47
   5  -7   1   47.30    5.98
   5   7   2   17.06    3.28
   5   7   2   21.08    3.95
  -5   7   2   23.32    4.17
   5  -7   2   18.41    3.60
   5  -7   2   18.97    3.40
   5  -7   3    4.13    2.01
   5   7   3    5.77    2.46
  -5   7   3    5.95    2.26
   5   7   3    4.90    2.56
   5  -7   3    0.85    1.13
   5  -7   4   12.01    3.41
   5   7   4   10.14    3.11
   5   7   4   14.78    3.29
   5  -7   4   15.89    2.77
  -5   7   4   16.88    4.04
   5   7   5   56.31    6.43
   5   7   5   62.61    6.90
  -5   7   5   46.67    5.80
   5  -7   5   45.12    5.18
   5  -7   5   52.88    6.14
   5   7   6   20.91    3.94
  -5   7   6   15.68    3.90
   5   7   6   24.56    3.95
   5  -7   6   16.80    3.55
   5  -7   6   16.01    3.30
  -5   7   7   52.79    6.48
   5   7   7   49.97    6.04
   5   7   7   59.52    6.66
   5  -7   7   53.29    6.33
   5  -7   7   49.99    5.51
   5   7   8   42.71    5.65
   5   7   8   42.67    5.69
  -5   7   8   50.26    6.54
   5  -7   8   39.74    5.61
   5   7   9   43.84    5.49
   5   7   9   30.61    4.74
  -5   7   9   37.57    5.54
   5  -7   9   38.92    5.42
   5   7  10   59.55    6.80
   5   7  10   70.70    7.58
  -5   7  10   74.52    8.00
   5  -7  10   78.58    7.65
  -5   7  11   36.56    5.26
   5  -7  11   49.93    6.27
   5   7  11   45.73    5.97
   5  -7  12    8.60    2.52
   5   7  12   10.67    2.44
  -5   7  12   13.29    2.82
   5   7  12   15.47    3.27
   5  -7  13   13.17    3.17
  -5   7  13    5.13    2.67
   5   7  13   13.65    3.56
   5   7  13   12.38    2.97
  -5   7  14    0.34    1.15
   5   7  14    8.36    3.11
   5   7  14    8.33    2.60
  -5   7  15    5.61    2.74
   5   7  15    6.52    2.63
   5   7  15    6.18    1.99
   5   7  16   26.97    5.40
  -5   7  16   22.21    4.58
   5   7  16   26.15    4.99
   5   7  17   12.49    3.38
   5   7  17   21.33    4.43
  -5   7  17   14.38    3.79
   5   7  18   19.43    4.23
   5   7  18   14.80    3.74
  -5   7  18    8.46    2.78
   5   7  19   14.26    4.28
  -5   7  19   22.40    4.68
   5   7  19   17.38    4.05
   5   7  20    6.05    2.62
  -5   7  20    6.13    2.40
  -5   7  21   13.94    4.18
   5   7  21   18.79    4.30
  -5   7  22    4.41    2.91
   5   7  22    2.24    1.68
  -5   7  23   -0.88    2.30
   5   7  23    3.23    3.18
  -5   7  23    2.76    2.58
  -5   7  24    5.34    3.20
   5   7  24   -0.21    1.72
   5  -8 -21    4.60    3.16
   5  -8 -20   -2.81    2.87
   5  -8 -19    2.07    2.38
   5  -8 -18    2.99    2.11
   5  -8 -18    0.85    1.25
   5  -8 -17    1.29    2.02
   5  -8 -17    3.80    2.60
   5  -8 -16    3.66    2.76
   5  -8 -16   -1.45    2.12
   5  -8 -15   16.51    3.99
   5  -8 -15   12.77    3.22
   5   8 -14   -1.80    1.08
   5  -8 -14    1.36    1.19
   5   8 -13    1.29    2.18
   5  -8 -13   -2.65    2.65
   5  -8 -13    1.39    1.74
   5   8 -12    7.26    2.77
   5  -8 -12    8.82    2.52
   5  -8 -12    9.67    2.92
   5   8 -11   -0.84    1.17
   5  -8 -11   -0.10    0.85
   5   8 -10    0.11    1.84
   5  -8 -10    0.27    1.52
   5   8  -9    1.83    1.82
  -5   8  -9    1.61    2.09
   5  -8  -9   -0.23    2.11
   5  -8  -9    2.23    1.89
   5   8  -8    9.70    2.88
   5  -8  -8   10.73    3.28
  -5   8  -8    1.31    2.12
   5  -8  -8   11.72    3.30
   5  -8  -7    9.79    2.77
   5   8  -7    3.93    1.64
  -5   8  -7    5.60    2.30
   5  -8  -7    4.31    2.28
   5  -8  -6   11.41    3.42
   5   8  -6    8.06    2.53
  -5   8  -6   11.45    3.33
   5  -8  -6   13.85    3.32
   5   8  -5    0.98    1.09
   5  -8  -5    4.00    1.71
  -5   8  -5    2.17    1.43
   5  -8  -5    0.63    1.60
   5   8  -4    9.86    3.06
  -5   8  -4    4.41    1.43
   5  -8  -4    9.56    3.14
   5   8  -4    3.10    1.48
   5  -8  -4    4.62    2.83
   5   8  -3    5.93    2.03
   5  -8  -3    1.13    1.14
  -5   8  -3    5.65    2.32
   5  -8  -3    2.68    1.85
   5   8  -3    7.60    2.69
   5   8  -2    2.41    1.01
   5  -8  -2    5.85    2.56
  -5   8  -2    5.15    2.35
   5   8  -2    0.55    0.87
   5   8  -1   -0.33    1.55
  -5   8  -1   -1.21    1.61
   5   8  -1    1.25    2.07
   5  -8  -1    0.75    1.45
   5  -8  -1    2.00    1.17
   5   8   0   32.64    5.10
   5   8   0   38.20    5.49
  -5   8   0   40.06    5.77
   5  -8   0   39.73    5.31
   5  -8   0   29.75    4.83
   5   8   1   -0.04    1.62
   5   8   1    0.08    1.24
   5  -8   1    3.37    2.63
  -5   8   1   -0.36    1.30
   5  -8   1    0.30    1.20
  -5   8   2    8.56    2.82
   5   8   2    7.29    2.85
   5  -8   2    3.66    1.41
   5   8   2    4.36    2.04
   5  -8   2    4.08    2.48
   5   8   3    0.85    1.19
   5   8   3    4.10    2.66
  -5   8   3    4.24    2.15
   5  -8   3    3.79    1.69
   5   8   4   10.82    3.44
   5   8   4    3.06    1.48
  -5   8   4    9.81    2.96
   5  -8   4    9.19    2.63
   5   8   5   -0.24    1.34
   5   8   5    2.15    0.97
  -5   8   5    1.88    2.08
   5  -8   5    1.57    1.72
   5   8   6   10.80    2.57
  -5   8   6    8.12    2.82
   5  -8   6   12.18    2.84
   5   8   6   14.15    3.67
   5   8   7    6.36    2.93
  -5   8   7    5.01    1.93
   5   8   7   11.53    3.20
   5  -8   7    8.36    2.65
   5  -8   8    8.56    2.38
   5   8   8    9.62    3.27
  -5   8   8   11.37    3.27
   5   8   8    9.78    3.34
   5   8   9   -0.86    1.82
   5  -8   9    6.16    2.73
  -5   8   9    2.03    1.89
   5   8   9    1.45    1.61
   5   8  10    3.96    2.67
   5  -8  10    2.56    1.44
  -5   8  10    2.56    1.52
   5   8  10    2.14    2.15
   5   8  11    3.93    2.15
   5   8  11    5.77    2.17
  -5   8  11    3.58    1.54
   5  -8  11    4.04    2.58
   5   8  12    0.42    0.95
   5   8  12    5.65    2.23
  -5   8  12    9.81    3.54
   5  -8  12    9.21    3.26
   5   8  13    0.15    1.32
   5   8  13    2.97    2.82
  -5   8  13   -3.22    2.40
   5   8  14    0.98    1.26
   5   8  14    5.86    2.79
  -5   8  14    3.33    2.53
   5   8  15    5.24    2.29
   5   8  15    9.41    3.00
  -5   8  15    5.52    2.10
   5   8  16   -1.06    1.66
   5   8  16    0.41    0.83
  -5   8  16    1.40    2.10
  -5   8  17    0.39    2.34
   5   8  17    0.25    1.20
   5   8  17    4.33    2.27
   5   8  18    1.42    1.87
   5   8  18    0.46    1.50
  -5   8  18    1.52    1.40
   5   8  19   -1.24    1.90
  -5   8  19    2.10    3.06
   5   8  19   -2.27    2.01
   5   8  20    0.01    1.36
  -5   8  20   -0.11    2.14
   5   8  21   -1.04    1.52
  -5   8  21    0.81    1.58
   5  -9 -18    6.62    2.52
   5  -9 -17    6.18    2.34
   5  -9 -17   12.46    3.80
   5  -9 -16    7.30    2.61
   5  -9 -16   13.15    3.83
   5  -9 -15   16.94    4.38
   5  -9 -15    3.17    1.64
   5  -9 -14    2.16    1.98
   5  -9 -14    2.66    2.06
   5   9 -13    5.20    2.35
   5  -9 -13    5.73    3.24
   5  -9 -13    4.17    2.44
   5   9 -12    9.49    3.25
   5  -9 -12   12.32    3.63
   5  -9 -12   15.61    3.81
   5  -9 -11   16.81    4.13
   5   9 -11   14.43    3.70
   5  -9 -11   18.43    3.88
   5   9 -10   18.12    4.35
   5  -9 -10   12.72    3.75
   5  -9 -10   19.14    4.30
   5   9  -9   16.05    4.19
   5  -9  -9   16.30    3.96
   5  -9  -9   12.36    3.94
  -5   9  -8    3.28    1.75
   5  -9  -8    3.42    1.75
   5   9  -7   24.18    4.82
  -5   9  -7   31.39    5.55
   5  -9  -7   36.25    5.85
   5  -9  -7   26.98    4.57
  -5   9  -6    6.52    2.41
   5   9  -6    6.43    2.60
   5  -9  -6    2.40    1.67
   5  -9  -6    4.75    2.55
   5   9  -5   37.50    6.05
  -5   9  -5   34.24    5.75
   5  -9  -5   40.96    5.91
   5  -9  -5   32.58    5.49
   5   9  -4   14.04    3.86
  -5   9  -4   14.00    3.46
   5  -9  -4   15.69    3.55
   5  -9  -4   13.65    3.87
   5   9  -3    1.66    1.62
  -5   9  -3    0.70    1.23
   5  -9  -3   -0.71    0.89
   5   9  -3   -1.14    1.10
   5   9  -2   11.13    3.12
  -5   9  -2    6.97    2.68
   5  -9  -2    5.34    2.48
   5   9  -1   54.47    6.87
   5   9  -1   51.68    6.82
  -5   9  -1   47.68    6.93
   5  -9  -1   62.26    7.45
   5   9   0   10.28    3.14
  -5   9   0    5.68    2.53
   5  -9   0   12.97    3.34
   5   9   0   16.93    3.88
   5   9   1   58.07    6.89
   5   9   1   47.66    6.48
  -5   9   1   54.90    7.11
   5  -9   1   53.12    6.93
   5   9   2    7.09    2.72
  -5   9   2   11.03    3.48
   5   9   2   16.36    3.85
   5  -9   2   14.58    3.23
   5   9   3    1.92    2.09
   5  -9   3    3.70    2.02
  -5   9   3    3.60    3.12
   5   9   3   -0.45    1.10
   5   9   4   17.86    4.38
  -5   9   4   12.25    3.56
   5  -9   4   16.79    3.78
   5   9   4    9.84    2.52
   5   9   5   39.71    5.60
   5   9   5   43.43    6.00
  -5   9   5   31.90    5.24
   5  -9   5   40.37    6.30
   5  -9   6    6.24    2.82
   5   9   6    6.06    2.17
  -5   9   6    8.80    2.74
   5   9   6    8.33    2.58
   5   9   7   31.07    5.29
  -5   9   7   27.68    4.60
   5   9   7   21.90    4.57
   5  -9   7   26.64    5.47
   5   9   8   15.25    3.64
   5   9   8   23.08    4.41
  -5   9   8   11.30    3.82
   5  -9   8   16.33    3.99
   5   9   9    8.33    2.70
  -5   9   9   12.19    3.69
   5   9   9   18.33    3.68
   5  -9   9   14.28    3.85
  -5   9  10   21.35    4.68
   5   9  10    7.81    2.98
   5   9  10   18.62    4.44
   5  -9  10   14.34    3.36
  -5   9  11   14.89    4.01
   5   9  11   19.31    4.54
   5   9  11   15.16    4.17
  -5   9  12   12.06    3.38
   5   9  12    9.86    2.83
   5   9  12   13.99    3.64
   5   9  13    0.17    1.99
   5   9  13    5.70    2.84
  -5   9  13    8.29    2.39
   5   9  14   -1.01    1.73
   5   9  14    1.96    1.79
  -5   9  14    2.21    1.39
  -5   9  15    4.36    1.75
   5   9  15    4.07    2.84
   5   9  15    7.29    2.90
   5   9  16   16.25    4.20
   5   9  16   15.76    3.99
  -5   9  16   10.68    3.77
   5   9  17    2.46    1.53
   5   9  17    6.93    3.25
  -5   9  17    6.51    2.62
   5   9  18    2.09    1.91
  -5   9  18    6.27    3.44
   5 -10 -14   -0.81    1.44
   5 -10 -14    1.77    1.27
   5 -10 -13    2.89    2.03
   5 -10 -13    1.19    1.74
   5  10 -12    4.27    2.49
   5 -10 -12    6.20    2.68
   5 -10 -12    4.32    2.92
   5  10 -11    2.70    1.33
   5 -10 -11   -2.55    1.76
   5 -10 -10    3.86    2.65
   5  10 -10    8.62    3.52
   5  10  -9    2.75    1.92
   5 -10  -9    5.88    3.21
   5  10  -8   -1.18    1.57
  -5  10  -8    2.72    3.48
   5 -10  -8    3.82    2.53
   5  10  -7    4.40    2.55
   5 -10  -7    1.46    1.13
  -5  10  -7    2.12    1.46
   5  10  -6   -2.26    1.89
  -5  10  -6    3.79    2.78
   5 -10  -6    0.54    1.92
   5  10  -5    7.89    2.60
  -5  10  -5    6.88    2.70
   5 -10  -5    5.89    2.85
   5  10  -4   -1.16    2.04
  -5  10  -4   -0.03    1.53
   5 -10  -4    2.31    2.17
   5  10  -3    3.04    2.07
  -5  10  -3    1.24    1.95
   5 -10  -3    3.57    1.62
   5 -10  -2    3.28    1.27
  -5  10  -2    3.39    2.14
   5  10  -2    5.52    2.47
   5  10  -2    8.29    4.26
   5  10  -1    7.68    2.47
  -5  10  -1    7.66    3.20
   5 -10  -1   14.57    3.78
   5  10  -1    7.72    2.25
   5 -10   0    6.11    3.05
   5  10   0    1.49    0.97
  -5  10   0    4.73    2.41
   5  10   0    3.38    2.03
   5 -10   1   10.45    3.48
   5  10   1   12.88    3.92
  -5  10   1    8.61    2.96
   5  10   1    7.60    2.75
   5  10   2    5.47    2.43
  -5  10   2    5.78    3.52
   5 -10   2    3.03    2.21
   5  10   2    3.10    1.95
   5  10   3    0.40    1.89
   5 -10   3    3.38    2.96
   5  10   3    2.10    1.60
   5  10   4   -2.56    1.77
   5 -10   4    0.59    1.51
   5  10   4    2.06    1.46
  -5  10   4    4.08    2.22
   5  10   5    5.26    2.56
  -5  10   5    8.15    3.28
   5  10   5    3.31    2.29
   5 -10   5    2.86    3.01
   5  10   6   -1.49    1.14
  -5  10   6   -0.70    1.27
   5  10   6    0.34    1.76
   5 -10   6   -3.04    3.05
   5  10   7   -0.35    1.91
  -5  10   7    2.26    1.52
   5  10   7    5.27    1.91
   5 -10   7    3.70    2.26
   5  10   8    1.83    2.02
  -5  10   8    2.66    2.04
   5  10   8    0.63    1.67
   5 -10   8    2.21    2.18
   5  10   9    0.52    1.58
   5  10   9    1.67    1.59
  -5  10   9   -1.13    2.03
   5  10  10    3.18    3.04
   5  10  10    1.66    1.92
  -5  10  10    4.46    2.91
  -5  10  11    3.48    3.19
   5  10  11   -0.27    2.25
   5  10  11    3.17    2.54
   5  10  12    0.14    1.28
   5  10  12    1.52    2.94
  -5  10  12    0.66    1.59
   5  10  13   -2.35    1.60
  -5  10  13   -3.21    2.46
   5  10  13    1.29    1.42
   5  10  14    1.82    2.14
   5  10  14    3.45    2.82
  -5  10  14   -1.46    1.84
   5  11  -7    2.32    2.39
  -5  11  -7   -0.66    1.10
   5 -11  -7    0.21    1.39
   5  11  -6   -0.14    1.98
  -5  11  -6    4.75    3.11
   5 -11  -6    0.64    1.33
  -5  11  -5    6.70    3.29
   5 -11  -5    7.10    2.65
   5  11  -5    6.27    2.42
   5  11  -4    1.66    1.40
  -5  11  -4   -2.70    1.41
   5 -11  -4    1.21    1.77
  -5  11  -3   -0.08    1.36
   5 -11  -3   -1.27    2.18
   5  11  -3   -0.95    1.44
   5  11  -2    3.06    2.31
  -5  11  -2    3.56    2.51
   5 -11  -2    0.82    2.54
   5  11  -1   -0.53    1.41
  -5  11  -1   -2.07    2.58
   5 -11  -1   -2.35    2.25
   5  11   0    3.05    2.35
   5  11   0    8.94    3.07
   5 -11   0    4.09    2.24
   5  11   1    1.78    2.21
  -5  11   1    1.19    2.11
   5 -11   1   -0.17    1.69
   5  11   1    1.65    2.72
   5  11   2    1.29    1.89
  -5  11   2    2.04    2.54
   5  11   2    2.26    2.63
   5 -11   2    1.06    1.34
   5  11   3   -0.48    1.16
  -5  11   3    4.77    2.33
   5  11   3   -1.81    2.21
   5 -11   3    1.85    2.49
   5  11   4    3.05    2.33
  -5  11   4    2.40    1.81
   5  11   4    1.49    1.84
   5 -11   4    2.74    1.55
   5  11   5    6.74    3.13
  -5  11   5    6.28    3.08
   5 -11   5    8.70    3.78
   5  11   5    3.52    2.35
   5  11   6    1.58    2.63
  -5  11   6    2.42    2.26
   5  11   6   -0.03    1.10
   5 -11   6   -1.56    2.40
   5  11   7   -0.32    2.09
  -5  11   7    2.06    1.78
   5 -11   7    2.85    2.14
   5  11   7    1.65    1.70
   6   0 -29    9.62    3.85
   6   0 -28   57.43    7.50
   6   0 -27   12.90    3.37
   6   0 -26    1.30    1.77
   6   0 -25   16.63    3.85
   6   0 -24   54.11    7.02
   6   0 -23    3.92    2.09
   6   0 -22   59.18    7.02
   6   0 -21   12.32    3.59
   6   0 -20    3.65    1.72
   6   0 -19   14.89    3.50
   6   0 -18    8.92    2.43
   6   0 -17   87.98    7.30
   6   0 -16  849.90   23.49
   6   0 -15  176.56   10.20
   6   0 -14  518.34   16.82
   6   0 -14  456.43   12.20
   6   0 -13   78.45    6.41
   6   0 -13   80.42    5.00
   6   0 -12   70.67    5.91
   6   0 -12   55.52    4.17
   6   0 -11   84.46    6.29
   6   0 -11   79.01    5.13
   6   0 -10  392.22   13.23
   6   0 -10  403.41   11.00
   6   0  -9  276.68   11.04
   6   0  -9  255.33    8.91
   6   0  -8  110.73    5.91
   6   0  -8  103.53    6.50
   6   0  -8  109.76    6.67
   6   0  -7  107.52    5.77
   6   0  -7  104.34    6.54
   6   0  -7  103.83    6.56
   6   0  -6  381.02   10.90
   6   0  -6  375.84   12.02
   6   0  -6  353.36   11.73
   6   0  -5 1158.08   18.83
   6   0  -5 1119.74   20.43
   6   0  -5 1110.25   20.24
   6   0  -4  619.03   13.73
   6   0  -4  621.87   14.92
   6   0  -4  595.35   14.68
   6   0  -3  691.02   14.57
   6   0  -3  681.48   15.49
   6   0  -3  649.26   15.09
   6   0  -2 3156.67   32.22
   6   0  -2 3246.74   33.50
   6   0  -2 3190.98   32.63
   6   0  -1 1103.75   18.89
   6   0  -1 1084.73   18.95
   6   0  -1 1059.15   19.24
   6   0   0  361.24   11.03
   6   0   0  352.47   10.64
   6   0   1 1024.01   18.80
   6   0   1 1094.38   18.39
   6   0   2 3218.30   33.46
   6   0   2 3220.34   31.25
   6   0   3  691.89   15.85
   6   0   3  737.15   14.60
   6   0   4  591.19   14.86
   6   0   4  618.13   13.23
   6   0   5 1143.72   21.06
   6   0   5 1112.96   17.66
   6   0   6  381.82   10.04
   6   0   6  391.22   12.43
   6   0   7  110.24    5.36
   6   0   7  114.41    6.78
   6   0   8  110.14    5.19
   6   0   8  112.48    7.02
   6   0   9  268.63   11.03
   6   0   9  275.21    8.08
   6   0  10  395.59    9.46
   6   0  10  374.82   13.13
   6   0  11   96.66    4.54
   6   0  11   92.21    6.65
   6   0  12   58.58    5.40
   6   0  12   56.45    3.39
   6   0  13   74.44    3.67
   6   0  13   73.84    6.19
   6   0  14  490.73   16.36
   6   0  15  162.64    9.55
   6   0  16  861.27   22.89
   6   0  17   81.45    6.95
   6   0  18    7.58    2.35
   6   0  19   15.24    3.15
   6   0  20    1.29    1.05
   6   0  21   18.35    3.59
   6   0  22   72.64    7.49
   6   0  23    5.16    2.71
   6  -1 -29    0.30    1.72
   6  -1 -28    5.94    3.12
   6  -1 -27   -3.52    2.03
   6   1 -26   -1.67    2.18
   6  -1 -26   15.21    3.58
   6   1 -25    7.06    2.78
   6  -1 -25    4.35    1.93
   6   1 -24    1.83    1.71
   6  -1 -24    5.16    2.12
   6   1 -23    4.79    2.67
   6  -1 -23    7.04    2.41
   6   1 -22    7.29    2.98
   6  -1 -22    7.31    2.82
   6   1 -21   22.84    4.07
   6  -1 -21   24.33    4.33
   6   1 -20   43.03    5.60
   6  -1 -20   48.87    6.10
   6  -1 -19   18.73    3.78
   6   1 -19    8.64    2.58
   6   1 -18    5.42    2.21
   6  -1 -18    9.30    2.48
   6  -1 -17   12.68    2.80
   6   1 -17    9.65    2.39
   6  -1 -16   19.47    3.38
   6   1 -16   14.07    2.85
   6  -1 -16   14.08    2.93
   6  -1 -15   54.44    4.95
   6   1 -15   48.57    5.11
   6  -1 -15   50.39    5.52
   6   1 -14  183.62    9.76
   6  -1 -14  161.50    9.65
   6  -1 -14  169.56    8.49
   6  -1 -13   23.77    3.58
   6   1 -13   23.05    3.53
   6  -1 -13   22.10    2.92
   6   1 -13   28.56    3.94
   6  -1 -12   47.40    5.15
   6   1 -12   53.35    4.89
   6  -1 -12   44.05    4.23
   6   1 -12   47.28    3.25
   6   1 -12   44.11    4.63
   6   1 -11   41.42    4.24
   6   1 -11   40.66    4.30
   6  -1 -11   38.65    3.93
   6   1 -11   38.89    2.96
   6  -1 -11   38.18    4.43
   6  -1 -10    1.31    0.88
   6   1 -10    3.08    0.90
   6   1 -10    4.55    1.56
   6  -1 -10    5.22    1.76
   6   1 -10    1.63    0.80
   6  -1  -9   33.03    4.08
   6   1  -9   28.12    2.60
   6   1  -9   28.86    3.50
   6   1  -9   25.52    3.24
   6  -1  -9   28.09    3.17
   6   1  -8   24.03    2.41
   6   1  -8   20.29    2.71
   6   1  -8   19.51    3.05
   6  -1  -8   19.46    2.86
   6  -1  -8   22.32    3.02
   6  -1  -7  195.37    8.46
   6   1  -7  190.64    7.10
   6   1  -7  191.50    8.74
   6   1  -7  186.62    8.19
   6  -1  -7  196.95    9.35
   6  -1  -6  292.57   10.32
   6   1  -6  297.67    9.97
   6  -1  -6  286.85   11.03
   6   1  -6  307.89    9.05
   6   1  -6  289.66   10.60
   6  -1  -5  416.13   13.07
   6   1  -5  427.25   10.90
   6  -1  -5  436.00   12.66
   6   1  -5  434.61   11.94
   6   1  -5  426.91   13.03
   6  -1  -4   72.24    5.07
   6  -1  -4   64.60    5.12
   6   1  -4   69.04    4.67
   6   1  -4   62.82    4.15
   6   1  -4   71.74    5.17
   6   1  -3   48.64    3.76
   6   1  -3   45.74    4.22
   6  -1  -3   50.63    4.33
   6  -1  -3   55.48    4.63
   6   1  -3   53.39    4.13
   6   1  -2    1.75    1.18
   6   1  -2    0.72    0.83
   6  -1  -2    0.43    0.70
   6  -1  -2   -0.01    0.37
   6   1  -2    1.18    1.02
   6  -1  -1   10.40    1.97
   6   1  -1   11.11    2.06
   6  -1  -1    9.35    1.89
   6   1  -1    9.75    1.79
   6  -1   0    2.65    1.15
   6   1   0    1.67    1.00
   6   1   0    3.41    1.24
   6  -1   0    3.71    1.19
   6  -1   1    8.14    1.74
   6  -1   1    7.69    1.56
   6   1   1   11.87    2.07
   6   1   1   11.69    1.99
   6   1   2    2.44    0.98
   6  -1   2    0.56    0.74
   6   1   2    2.10    1.04
   6   1   3   56.62    4.50
   6  -1   3   49.80    4.37
   6   1   3   46.14    3.98
   6   1   4   65.41    5.00
   6  -1   4   57.05    4.79
   6   1   4   63.88    4.54
   6   1   5  427.14   12.96
   6  -1   5  439.11   13.19
   6   1   5  424.31   11.60
   6   1   6  284.07   10.64
   6  -1   6  281.57   10.59
   6   1   6  301.18    9.60
   6   1   7  182.86    8.83
   6  -1   7  175.31    8.62
   6   1   7  191.48    7.60
   6   1   8   18.87    2.84
   6  -1   8   16.68    2.69
   6   1   8   22.29    2.58
   6   1   9   28.66    3.67
   6   1   9   29.61    2.93
   6  -1   9   26.77    3.55
   6   1  10    1.64    0.59
   6   1  10    3.84    1.58
   6  -1  10    3.97    1.56
   6   1  11   38.06    4.43
   6  -1  11   35.53    4.18
   6   1  11   35.64    3.21
   6  -1  12   41.76    4.51
   6   1  12   43.44    3.46
   6   1  12   43.99    4.77
   6   1  13   23.48    2.56
   6   1  13   22.14    3.45
   6  -1  13   25.43    3.62
   6   1  14  165.08    9.53
   6  -1  14  177.17    9.70
   6   1  14  162.54    6.72
   6   1  15   50.84    5.48
   6   1  15   48.22    3.62
   6  -1  15   58.21    5.73
   6  -1  16   19.82    3.21
   6   1  16   19.10    3.35
   6  -1  17   16.89    3.51
   6   1  17    8.71    2.63
   6  -1  18    7.05    2.16
   6   1  18   11.39    3.01
   6   1  19   17.17    3.57
   6  -1  19   24.03    4.21
   6   1  20   48.50    5.80
   6  -1  20   47.31    5.97
   6  -1  21   19.17    3.76
   6   1  21   28.69    4.80
   6   1  22    1.90    1.25
   6   1  23   12.72    3.37
   6   1  24    5.62    2.71
   6  -2 -29   -0.75    2.13
   6  -2 -28   18.21    4.00
   6  -2 -27    4.05    2.36
   6  -2 -26    2.17    2.33
   6  -2 -25    5.93    2.63
   6  -2 -24   29.88    5.14
   6  -2 -23    0.81    1.22
   6  -2 -22    4.54    1.15
   6   2 -21   -1.95    1.27
   6  -2 -21    4.13    1.88
   6   2 -20   13.46    3.34
   6  -2 -20   16.25    3.48
   6  -2 -19   -0.25    2.13
   6   2 -19    1.65    1.64
   6   2 -18   11.74    2.89
   6  -2 -18   16.67    3.50
   6   2 -17    1.10    1.02
   6  -2 -17    1.64    0.89
   6  -2 -17    3.09    1.91
   6   2 -17    0.74    0.67
   6   2 -16  136.38    8.60
   6  -2 -16  144.84    9.96
   6  -2 -16  128.57    8.49
   6   2 -16  137.58    8.87
   6   2 -15   77.46    6.33
   6  -2 -15   72.53    6.93
   6  -2 -15   69.01    6.17
   6   2 -15   80.96    6.48
   6   2 -14  315.35   12.25
   6  -2 -14  317.07   14.08
   6   2 -14  314.55   12.84
   6  -2 -14  280.54   12.19
   6   2 -13   17.29    2.89
   6  -2 -13   22.43    3.71
   6  -2 -13   21.87    3.54
   6   2 -13   23.23    3.58
   6  -2 -12   52.02    5.39
   6   2 -12   65.40    5.31
   6   2 -12   56.71    5.33
   6   2 -11   46.56    4.33
   6  -2 -11   41.48    4.97
   6  -2 -11   42.09    4.44
   6   2 -11   42.87    4.52
   6   2 -10   36.27    2.62
   6   2 -10   38.80    3.71
   6  -2 -10   34.51    4.30
   6  -2 -10   36.37    4.16
   6   2 -10   37.05    4.02
   6   2  -9    0.72    0.96
   6  -2  -9    0.38    1.22
   6  -2  -9    1.03    0.72
   6   2  -9    1.93    1.12
   6   2  -9    1.70    0.65
   6  -2  -8    6.15    1.64
   6  -2  -8    9.06    2.26
   6   2  -8    8.97    1.98
   6   2  -8    9.09    1.79
   6   2  -8    8.82    1.44
   6   2  -7    6.79    1.33
   6   2  -7    4.87    1.19
   6  -2  -7    6.19    1.80
   6  -2  -7    5.68    1.78
   6   2  -7    5.84    1.50
   6  -2  -6  155.04    8.65
   6   2  -6  149.85    6.29
   6   2  -6  134.28    6.34
   6   2  -6  139.57    7.60
   6  -2  -6  137.21    7.75
   6  -2  -5   37.52    3.94
   6  -2  -5   34.48    4.00
   6   2  -5   36.16    3.27
   6   2  -5   39.55    3.29
   6   2  -5   40.43    4.06
   6   2  -4    1.76    1.09
   6  -2  -4    3.57    1.24
   6   2  -4    2.58    0.80
   6  -2  -4    1.12    0.99
   6   2  -4    2.09    0.95
   6  -2  -3   26.44    3.42
   6   2  -3   28.00    2.86
   6   2  -3   34.90    3.63
   6  -2  -3   30.85    3.67
   6   2  -3   30.32    3.10
   6  -2  -2  288.10   11.07
   6   2  -2  287.57    9.49
   6  -2  -2  283.13   10.93
   6   2  -2  294.76   10.74
   6   2  -2  273.25    8.84
   6   2  -1   44.04    3.70
   6  -2  -1   40.34    4.04
   6  -2  -1   34.80    3.75
   6   2  -1   46.32    4.27
   6  -2   0    0.53    1.06
   6   2   0   -0.31    0.53
   6  -2   0   -0.08    0.47
   6   2   0   -0.15    0.70
   6   2   1   46.49    4.25
   6  -2   1   48.15    4.40
   6   2   1   43.58    4.03
   6  -2   1   42.29    4.17
   6   2   2  292.79   10.60
   6  -2   2  288.46   10.95
   6   2   2  278.39   10.29
   6  -2   2  291.01   10.87
   6  -2   3   26.52    3.38
   6   2   3   21.97    2.95
   6   2   4    1.04    0.81
   6   2   4   -0.34    0.63
   6  -2   4    1.58    1.07
   6   2   5   39.94    3.82
   6   2   5   35.31    3.95
   6  -2   5   38.74    4.09
   6   2   6  149.73    7.46
   6   2   6  140.34    7.90
   6  -2   6  139.07    7.73
   6   2   7    6.97    2.02
   6   2   7    6.95    1.64
   6  -2   7    8.35    2.09
   6   2   8    8.20    2.13
   6   2   8    7.52    1.70
   6  -2   8    6.05    1.59
   6   2   9    1.59    1.50
   6   2   9    0.48    0.77
   6  -2   9    1.44    0.83
   6   2  10   45.36    4.09
   6   2  10   36.56    4.34
   6  -2  10   40.55    4.35
   6   2  11   29.66    3.95
   6  -2  11   40.20    4.49
   6   2  11   38.33    3.83
   6   2  12   64.54    5.00
   6   2  12   62.94    5.91
   6  -2  12   54.37    5.19
   6   2  13   19.19    2.81
   6  -2  13   24.59    3.62
   6   2  14  290.10   10.83
   6   2  14  324.77   14.05
   6  -2  14  301.79   12.93
   6   2  15   61.79    4.95
   6   2  15   66.92    6.62
   6  -2  15   73.43    6.45
   6   2  16  128.85    7.23
   6   2  16  140.98    9.48
   6  -2  16  123.72    8.57
   6  -2  17    2.63    1.61
   6   2  17    1.92    1.75
   6  -2  18   17.40    3.52
   6   2  18    9.83    2.39
   6  -2  19    1.26    0.68
   6   2  19    1.99    1.69
   6   2  20   13.35    3.26
   6  -2  20   12.48    2.84
   6   2  21    3.65    2.03
   6   2  22    5.90    1.96
   6   2  23    0.63    1.20
   6   2  24   23.65    5.05
   6   2  25    3.42    2.05
   6  -3 -28   -1.55    1.41
   6  -3 -27    2.47    1.61
   6  -3 -26    8.01    3.11
   6  -3 -25   13.96    3.92
   6  -3 -24    3.33    2.11
   6  -3 -23    2.69    1.48
   6  -3 -22    3.12    2.18
   6  -3 -21    8.69    2.77
   6  -3 -20   18.13    3.93
   6  -3 -19   54.40    6.28
   6  -3 -18   22.00    4.26
   6  -3 -18   20.63    4.06
   6  -3 -17   66.76    7.15
   6  -3 -17   55.58    5.95
   6   3 -17   57.35    5.74
   6  -3 -16   26.61    4.50
   6   3 -16   34.65    4.54
   6  -3 -16   25.19    3.99
   6   3 -15    7.04    2.13
   6  -3 -15   14.80    3.36
   6  -3 -15   10.18    2.84
   6   3 -14   86.14    6.32
   6  -3 -14   97.81    8.15
   6  -3 -14   98.59    7.76
   6   3 -14   85.63    6.96
   6  -3 -13   29.64    4.14
   6   3 -13   30.22    3.40
   6  -3 -13   34.76    4.53
   6   3 -13   31.92    4.13
   6  -3 -12   35.40    4.82
   6   3 -12   37.10    4.51
   6   3 -12   36.45    3.60
   6  -3 -12   38.46    4.64
  -6   3 -11   78.02    4.85
   6   3 -11   82.96    5.22
   6  -3 -11   89.20    6.90
   6   3 -11   81.25    6.50
   6  -3 -11   84.41    7.22
   6   3 -10   17.19    1.99
   6  -3 -10   16.54    3.40
   6   3 -10   12.53    1.92
   6  -3 -10   15.22    2.96
   6   3  -9   33.70    3.18
   6   3  -9   28.48    2.60
   6  -3  -9   32.05    4.41
   6  -3  -9   30.51    4.12
   6   3  -9   32.88    3.88
   6  -3  -8   27.89    4.00
   6   3  -8   30.65    2.84
   6   3  -8   33.64    2.96
   6  -3  -8   25.59    3.54
   6   3  -8   25.83    3.56
   6   3  -7  202.34    7.07
   6  -3  -7  210.06   10.26
   6   3  -7  213.22    7.71
   6  -3  -7  189.12    9.95
   6   3  -7  197.15    9.81
   6   3  -6  183.42    7.37
   6   3  -6  194.47    6.79
   6  -3  -6  191.13    9.90
   6  -3  -6  179.22    9.50
   6   3  -6  186.02    9.39
   6   3  -5  244.68   10.77
   6   3  -5  269.49    9.09
   6  -3  -5  269.06   11.60
   6   3  -5  263.14    7.87
   6  -3  -5  262.76   11.41
   6   3  -4  157.49    8.67
   6   3  -4  147.71    7.00
   6  -3  -4  169.28    8.99
   6   3  -4  166.54    6.39
   6  -3  -4  150.59    8.47
   6   3  -3  392.04   13.48
   6   3  -3  401.46    9.98
   6  -3  -3  405.50   13.85
   6   3  -3  394.27   11.74
   6  -3  -3  403.32   13.96
   6  -3  -2   48.76    4.72
   6   3  -2   45.11    4.14
   6  -3  -2   37.96    4.27
   6   3  -2   48.23    4.69
   6  -3  -1   53.05    4.94
   6   3  -1   50.69    4.81
   6   3  -1   46.97    4.28
   6  -3  -1   48.50    4.73
   6   3   0   20.31    3.12
   6  -3   0   22.69    3.38
   6   3   0   24.00    3.02
   6  -3   0   24.59    3.36
   6  -3   1   46.20    4.69
   6   3   1   50.25    4.67
   6   3   1   44.70    4.37
   6  -3   1   52.26    4.77
   6   3   2   45.40    4.44
   6  -3   2   55.49    5.09
   6  -3   2   53.07    4.84
   6   3   2   45.38    4.47
   6   3   3  399.23   13.46
   6  -3   3  389.82   13.58
   6   3   3  402.74   13.32
   6  -3   3  389.87   13.32
   6   3   4  148.50    8.34
   6  -3   4  156.31    8.65
   6   3   4  178.24    9.00
   6  -3   4  151.99    8.27
   6   3   5  276.14   11.25
   6  -3   5  254.68   11.20
   6  -3   6  211.12   10.10
   6   3   6  191.19    9.62
   6   3   7  206.74    9.69
   6  -3   7  208.99   10.04
   6   3   7  198.33    9.91
   6   3   8   31.02    3.63
   6  -3   8   29.24    3.85
   6   3   9   33.73    3.92
   6  -3   9   23.55    3.41
   6   3   9   21.39    3.80
   6   3  10   17.50    2.95
   6   3  10   15.02    2.49
   6  -3  10   19.17    3.21
   6   3  11   83.90    6.37
   6  -3  11   79.45    6.51
   6   3  11   82.64    6.91
   6   3  12   36.20    4.21
   6  -3  12   38.20    4.67
   6   3  12   45.23    5.11
   6   3  13   31.94    3.92
   6  -3  13   36.46    4.59
   6   3  14   88.88    6.60
   6  -3  14   73.51    6.42
   6   3  14   86.91    7.55
   6   3  15   11.50    2.31
   6   3  15   15.91    3.47
   6  -3  15    8.44    2.13
   6   3  16   19.62    3.14
   6  -3  16   28.37    4.02
   6   3  16   32.17    4.46
   6  -3  17   62.29    6.16
   6   3  17   48.97    5.91
   6   3  18   28.15    5.13
   6  -3  18   16.88    3.33
   6  -3  19   54.59    5.98
   6   3  19   52.23    6.34
   6   3  20   16.71    3.37
   6   3  21    8.80    2.63
   6   3  22    0.12    1.46
   6   3  23    3.74    2.15
   6   3  24    2.16    1.10
   6   3  25   12.60    3.64
   6   3  26    0.39    1.05
   6  -4 -28    8.07    3.17
   6  -4 -27    0.90    1.42
   6  -4 -26   -0.04    2.39
   6  -4 -25    3.70    2.60
   6  -4 -24   29.40    5.48
   6  -4 -23    9.51    2.88
   6  -4 -22   14.10    3.71
   6  -4 -21   11.83    3.39
   6  -4 -20    5.95    2.95
   6  -4 -20    4.46    2.40
   6  -4 -19   -0.30    1.70
   6  -4 -19    4.09    2.53
   6  -4 -18  117.54    9.56
   6  -4 -18  106.55    8.91
   6  -4 -17   20.50    3.91
   6  -4 -17   17.97    3.71
   6   4 -17   19.00    3.34
   6   4 -16    9.63    2.43
   6  -4 -16   11.59    3.18
   6  -4 -16   16.45    3.35
   6  -4 -15   20.17    3.95
   6  -4 -15   20.24    3.56
   6   4 -15   18.28    3.77
   6   4 -14    5.62    2.03
   6  -4 -14    9.58    2.88
   6  -4 -14    6.91    2.33
   6  -4 -13   27.89    4.46
   6   4 -13   32.98    4.46
   6  -4 -13   36.32    4.98
   6  -4 -12  197.58   11.29
   6  -4 -12  194.01   11.66
   6   4 -12  199.06   10.63
   6  -4 -11   78.09    6.87
  -6   4 -11   68.30    5.45
   6  -4 -11   62.08    6.55
   6   4 -11   71.53    6.45
   6   4 -10   12.21    2.71
  -6   4 -10   15.56    2.63
   6  -4 -10   16.29    3.31
   6  -4 -10   20.29    3.61
  -6   4  -9   53.32    4.82
   6  -4  -9   42.59    4.84
   6  -4  -9   49.66    5.45
   6   4  -9   54.94    5.54
   6   4  -9   49.58    3.90
   6   4  -8  231.79    8.52
   6   4  -8  241.54   11.77
   6  -4  -8  264.03   12.36
   6  -4  -8  234.12   11.80
   6  -4  -7   15.79    2.95
   6  -4  -7   21.44    3.24
   6   4  -7   14.15    2.93
   6   4  -7   16.02    2.37
   6   4  -6   40.57    4.50
   6   4  -6   37.11    2.48
   6  -4  -6   39.61    4.65
   6  -4  -6   36.91    4.55
   6   4  -5  293.69   12.43
   6   4  -5  288.53   10.47
   6  -4  -5  294.74   12.67
   6   4  -5  283.50    6.96
   6  -4  -5  278.62   12.49
   6  -4  -4    0.54    0.63
   6   4  -4    1.47    1.62
   6   4  -4    1.87    1.20
   6   4  -4    1.20    0.57
   6  -4  -4    0.06    0.75
   6   4  -3   99.12    7.29
   6  -4  -3  111.23    7.68
   6   4  -3  113.70    5.03
   6  -4  -3  117.06    8.01
   6   4  -2   83.28    6.73
   6  -4  -2   61.48    5.78
   6  -4  -2   71.28    6.04
   6   4  -2   66.00    5.37
   6   4  -1   45.77    4.73
   6   4  -1   41.93    4.20
   6  -4  -1   42.57    4.69
   6  -4  -1   51.04    5.32
   6   4   0   69.82    5.94
   6  -4   0   71.66    5.91
   6   4   0   61.28    5.23
   6   4   1   46.46    4.89
   6   4   1   50.75    4.98
   6  -4   1   54.67    5.13
   6  -4   1   55.02    5.33
   6   4   2   63.77    5.89
   6  -4   2   68.47    5.78
   6   4   2   79.68    6.15
   6  -4   2   68.25    6.10
   6  -4   3  115.98    7.71
   6   4   3  111.75    7.75
   6   4   3  122.18    7.90
   6  -4   3  115.35    7.57
   6   4   4    0.96    1.06
   6  -4   4   -0.26    0.74
   6  -4   4    1.33    0.75
   6   4   4    0.66    1.17
   6  -4   5  273.06   12.21
   6  -4   5  278.53   11.99
   6   4   5  265.47   11.91
   6   4   5  281.15   12.21
   6  -4   6   43.13    4.86
   6   4   6   40.37    4.61
   6   4   6   35.03    4.30
   6  -4   6   42.31    4.64
   6  -4   7   16.47    2.99
   6   4   7   14.31    2.80
   6   4   7   12.03    2.78
   6  -4   8  252.17   11.82
   6   4   8  251.66   11.62
   6   4   8  256.07   12.28
   6  -4   9   43.87    4.98
   6   4   9   47.03    5.04
   6   4   9   46.11    5.42
   6   4  10   13.89    2.73
   6  -4  10   14.20    2.76
   6   4  10   10.10    2.78
   6   4  11   63.55    5.98
   6  -4  11   67.63    6.21
   6   4  11   67.67    6.82
   6   4  12  198.04   10.67
   6  -4  12  201.71   10.97
   6   4  12  195.87   11.34
   6   4  13   32.19    4.34
   6  -4  13   36.38    4.77
   6   4  13   33.75    4.83
   6   4  14   11.35    2.65
   6  -4  14    4.48    1.58
   6   4  14    7.99    2.70
   6   4  15   14.74    2.73
   6  -4  15   19.13    3.32
   6   4  15   15.64    3.38
   6   4  16   13.02    3.25
   6  -4  16   14.21    3.27
   6   4  16   10.92    2.81
   6   4  17   18.78    3.55
   6  -4  17   23.18    3.83
   6   4  17   14.90    3.27
   6   4  18   90.55    8.48
   6   4  19    1.98    1.99
   6   4  20   10.48    2.49
   6   4  21   14.86    3.09
   6   4  22   18.14    3.96
   6   4  23    9.76    3.32
   6   4  24   23.76    5.39
   6   4  25    2.92    1.43
   6   4  26    2.68    1.83
   6   4  27    3.71    3.01
   6  -5 -26    0.09    1.59
   6  -5 -25    6.98    3.00
   6  -5 -24    0.24    1.30
   6  -5 -23    2.92    2.03
   6  -5 -22    5.34    2.49
   6  -5 -21    4.96    2.47
   6  -5 -21    7.18    2.26
   6  -5 -20    3.42    1.76
   6  -5 -20    0.50    0.93
   6  -5 -19    1.76    1.78
   6  -5 -19    3.94    1.88
   6  -5 -18    4.28    1.72
   6  -5 -18    2.00    2.36
   6  -5 -17   13.95    3.69
   6  -5 -17    8.07    3.05
   6   5 -16    3.24    1.86
   6  -5 -16    3.60    2.23
   6  -5 -16    3.57    2.09
   6   5 -15    7.30    2.57
   6  -5 -15    4.77    2.02
   6  -5 -15    4.79    2.05
   6  -5 -14    5.72    2.54
   6   5 -14    6.14    2.43
   6  -5 -14    7.98    2.58
   6  -5 -13   25.56    4.81
   6   5 -13   35.83    4.72
   6   5 -12    5.48    1.84
   6  -5 -12    7.58    2.86
   6  -5 -12    5.51    2.26
   6   5 -11    3.22    2.13
   6  -5 -11    6.89    2.64
   6  -5 -11    3.02    1.84
   6   5 -10    4.31    1.73
  -6   5 -10    1.89    1.21
   6  -5 -10    2.73    1.94
   6  -5 -10    4.82    1.94
   6   5  -9   15.71    3.26
   6  -5  -9   14.11    3.21
  -6   5  -9   14.93    3.13
   6  -5  -9   13.47    2.97
  -6   5  -8   12.44    2.58
   6   5  -8   10.53    2.24
   6  -5  -8   17.50    3.67
   6   5  -8   12.02    2.67
   6  -5  -8   13.52    3.05
   6   5  -7    8.53    2.57
  -6   5  -7    7.64    1.94
   6   5  -7    7.21    1.98
   6  -5  -7    8.99    2.51
   6  -5  -7    7.58    2.18
   6  -5  -6    6.85    2.23
   6   5  -6    5.18    1.98
   6   5  -6    4.74    1.24
  -6   5  -6    0.99    0.82
   6  -5  -6    2.54    1.00
   6   5  -5   16.29    2.97
   6   5  -5   20.14    3.05
   6  -5  -5   13.71    2.98
   6  -5  -5   22.14    3.76
   6   5  -4   37.50    4.70
   6  -5  -4   41.95    5.09
   6   5  -4   37.06    4.25
   6  -5  -4   34.13    4.45
   6   5  -3   43.81    5.35
   6  -5  -3   53.05    5.59
   6   5  -3   41.23    4.48
   6  -5  -3   41.15    4.89
   6   5  -2   31.21    4.33
   6  -5  -2   30.35    4.14
   6   5  -2   32.50    4.08
   6  -5  -2   26.83    4.08
   6   5  -1    7.99    2.18
   6  -5  -1    7.66    2.49
   6   5  -1    6.04    2.20
   6  -5  -1    8.65    2.38
   6  -5   0    8.92    2.21
   6   5   0   11.57    2.52
   6   5   0   11.11    2.69
   6  -5   0    6.84    2.06
   6  -5   1    9.07    2.92
   6   5   1   13.07    2.64
   6   5   1   10.00    2.44
   6  -5   1    8.90    2.12
   6  -5   2   26.16    3.96
   6  -5   2   28.26    3.89
   6   5   2   24.11    3.78
   6   5   3   53.78    5.61
   6   5   3   43.87    4.89
   6  -5   3   41.99    4.73
   6  -5   3   45.07    5.13
   6   5   4   41.91    5.15
   6  -5   4   35.36    4.43
   6   5   4   40.21    4.75
   6  -5   4   39.62    4.92
   6   5   5   23.04    3.95
   6  -5   5   22.92    3.69
   6   5   5   17.34    3.44
   6  -5   5   26.78    4.00
   6   5   6    6.73    2.65
   6  -5   6    2.66    0.89
   6   5   6    6.61    1.69
   6  -5   6    4.78    2.04
   6   5   7    4.54    2.01
   6   5   7    2.38    1.31
   6  -5   7    7.02    2.42
   6  -5   7    8.35    2.52
   6  -5   8   11.70    2.62
   6   5   8   11.89    3.03
   6   5   8   11.33    2.91
   6  -5   8    9.96    2.82
   6   5   9    8.04    2.37
   6  -5   9   14.66    2.77
   6   5   9   11.21    2.61
   6  -5   9   12.77    2.89
   6  -5  10    2.70    1.04
   6   5  10    3.51    1.09
   6   5  11    2.61    1.18
   6   5  11    5.78    1.96
   6  -5  11    2.23    1.12
   6   5  12    4.11    1.36
   6   5  12    4.68    1.57
   6  -5  12    3.43    0.90
   6  -5  13   30.65    4.51
   6   5  13   32.63    4.69
   6   5  13   35.80    4.99
   6   5  14    7.30    2.83
   6   5  14    5.36    2.04
   6  -5  14    8.64    2.69
   6  -5  15    4.46    2.40
   6   5  15    3.38    1.41
   6   5  16    3.44    1.16
   6  -5  16    7.76    2.57
   6   5  16    4.21    2.75
   6   5  17    4.70    2.52
   6   5  17    8.97    2.86
   6   5  18    2.34    1.82
   6   5  18    1.20    1.80
   6   5  19    1.95    2.25
   6   5  20    0.21    1.14
   6   5  21    6.32    2.91
   6   5  22   10.53    3.14
  -6   5  22    6.30    2.39
   6   5  23   -2.85    2.24
  -6   5  23    1.10    2.42
   6   5  24    1.07    1.34
   6   5  25    4.43    2.50
   6   5  26    2.94    2.08
   6  -6 -25    3.70    2.29
   6  -6 -24   18.99    4.65
   6  -6 -23    7.56    2.81
   6  -6 -22   37.23    6.17
   6  -6 -21   11.77    3.64
   6  -6 -21    9.26    3.46
   6  -6 -20    3.83    2.44
   6  -6 -20    2.61    2.58
   6  -6 -19    5.55    2.96
   6  -6 -19    6.05    2.84
   6  -6 -18   78.49    8.52
   6  -6 -18   71.49    7.90
   6  -6 -17    9.03    3.27
   6  -6 -17   12.59    3.51
   6  -6 -16   -0.99    1.40
   6   6 -16    0.64    1.76
   6  -6 -16   -0.08    1.20
   6   6 -15    9.70    3.07
   6  -6 -15    4.32    2.01
   6  -6 -15    2.66    2.28
   6   6 -14    1.54    1.10
   6  -6 -14    1.48    1.31
   6  -6 -14   -0.17    1.50
   6   6 -13   11.45    2.79
   6  -6 -13    7.68    2.69
   6  -6 -13    7.69    2.69
   6   6 -12   84.83    7.86
   6  -6 -12   67.08    7.08
   6  -6 -12   82.59    7.93
   6   6 -11   15.41    3.40
   6  -6 -11   18.58    3.90
   6  -6 -11   10.08    3.34
   6   6 -10    3.03    1.01
   6  -6 -10    1.23    1.06
  -6   6 -10    1.76    1.78
   6  -6 -10    2.22    1.32
  -6   6  -9   17.72    3.32
   6   6  -9   16.10    3.66
   6  -6  -9   14.77    3.67
   6  -6  -9   13.67    3.30
   6   6  -8  180.90   11.21
  -6   6  -8  165.47   10.26
   6  -6  -8  183.35   11.31
   6  -6  -8  188.55   11.79
  -6   6  -7   24.33    4.21
   6  -6  -7   34.05    5.26
   6   6  -7   29.30    4.34
   6   6  -7   27.15    3.96
   6  -6  -7   26.23    4.49
   6   6  -6    0.95    1.51
   6  -6  -6   -0.08    1.32
  -6   6  -6    0.28    1.30
   6   6  -6   -0.07    1.08
   6  -6  -6    0.31    1.13
   6   6  -5   24.70    4.14
  -6   6  -5   23.91    3.90
   6  -6  -5   21.94    3.86
   6  -6  -5   22.88    4.08
   6   6  -5   25.92    3.70
   6   6  -4   97.85    8.21
   6   6  -4   88.42    7.03
  -6   6  -4   92.27    7.64
   6  -6  -4   86.21    7.72
   6  -6  -4   90.16    7.45
   6  -6  -3    3.79    2.43
   6   6  -3    2.32    1.12
   6   6  -3    0.65    0.82
   6  -6  -3    1.95    1.23
  -6   6  -3    2.53    1.78
   6  -6  -2  129.90    9.00
   6   6  -2  156.19   10.32
  -6   6  -2  168.37   10.63
   6  -6  -2  168.87   10.68
   6   6  -2  165.94    9.80
  -6   6  -1   32.91    4.66
   6   6  -1   36.00    5.18
   6  -6  -1   30.61    4.44
   6  -6  -1   31.80    4.81
   6   6  -1   24.25    3.82
   6  -6   0   -1.05    1.14
   6   6   0    3.32    1.31
   6   6   0    4.72    1.77
   6  -6   0    2.33    1.49
   6   6   1   29.87    4.51
   6  -6   1   32.12    4.34
   6  -6   1   27.86    4.65
   6   6   1   24.16    4.10
   6  -6   2  145.23    9.39
   6   6   2  163.46   10.38
   6  -6   2  160.57   10.32
   6   6   2  170.79   10.25
   6  -6   3    1.30    1.84
   6   6   3    0.63    1.08
   6   6   3    2.46    1.85
   6  -6   3    1.64    1.13
   6   6   4   90.99    7.80
   6   6   4   98.97    8.35
   6  -6   4   87.63    7.41
   6  -6   4   95.73    8.14
   6   6   5   23.34    4.14
   6  -6   5   27.13    4.09
   6  -6   5   31.83    4.49
   6   6   5   27.94    4.35
   6  -6   6    0.76    1.14
   6   6   6    0.53    1.08
   6   6   6    0.89    1.78
   6  -6   6   -0.04    0.66
   6   6   7   27.61    4.43
   6  -6   7   22.47    3.66
   6  -6   7   19.15    3.91
   6   6   7   30.52    4.59
   6  -6   8  163.83   10.35
   6  -6   8  189.44   11.18
   6   6   8  173.06   11.18
   6  -6   9   13.86    3.38
   6   6   9   16.42    3.61
   6   6   9   12.41    3.23
   6  -6   9   12.43    2.80
   6  -6  10    0.52    1.15
   6  -6  10    1.84    0.74
   6   6  10    2.08    1.82
   6   6  10    2.44    1.95
   6  -6  11   19.17    3.88
   6   6  11   15.35    3.36
   6   6  11   13.09    3.12
   6  -6  11   14.70    3.23
   6   6  12   83.59    8.11
   6  -6  12   54.54    6.27
   6   6  12   73.42    7.56
   6  -6  12   77.12    7.39
   6   6  13    4.35    2.28
   6  -6  13    5.15    2.36
   6   6  13    4.86    1.63
   6  -6  13    6.62    2.39
   6   6  14    0.65    0.78
   6  -6  14    1.22    1.92
   6   6  14   -0.01    1.91
   6   6  15    3.81    1.89
   6  -6  15    2.49    1.42
   6   6  15    2.85    1.96
   6   6  16   -0.19    1.16
   6   6  16    1.48    0.80
   6   6  17    8.35    2.83
  -6   6  17    7.80    3.14
   6   6  17    5.60    2.67
   6   6  18   69.80    8.23
  -6   6  18   69.20    7.90
   6   6  18   67.52    7.62
   6   6  19    7.74    2.81
  -6   6  19    7.38    2.53
  -6   6  20    1.37    2.50
   6   6  20    1.50    2.38
  -6   6  21   17.96    4.53
   6   6  21   11.75    2.95
  -6   6  22   27.19    5.52
   6   6  22   39.34    6.18
  -6   6  23    4.30    3.77
   6   6  23    1.81    1.51
   6   6  24    8.49    2.98
   6   6  25    5.74    1.74
   6  -7 -23    0.66    1.90
   6  -7 -22   -2.93    1.89
   6  -7 -21   10.49    2.72
   6  -7 -21   13.18    4.05
   6  -7 -20    6.73    2.75
   6  -7 -20    6.34    2.50
   6  -7 -19    3.37    2.03
   6  -7 -19    5.80    3.30
   6  -7 -18   13.95    3.49
   6  -7 -18   14.33    3.91
   6  -7 -17    3.88    1.85
   6  -7 -17   -1.45    1.70
   6  -7 -16    1.46    2.30
   6  -7 -16    3.45    2.33
   6  -7 -15    8.96    2.86
   6   7 -15    7.71    2.93
   6  -7 -15    6.75    2.36
   6   7 -14    6.27    2.59
   6  -7 -14    8.16    3.00
   6  -7 -14    5.37    2.49
   6   7 -13   21.49    4.56
   6  -7 -13   25.32    4.99
   6  -7 -13   14.73    3.84
   6   7 -12    6.97    3.40
   6  -7 -12    4.35    1.77
   6  -7 -12    5.26    2.67
   6   7 -11    5.06    2.35
   6  -7 -11    0.14    2.01
   6  -7 -11    1.82    1.24
   6   7 -10   19.50    4.13
   6  -7 -10   13.31    3.63
   6  -7 -10   15.52    4.11
   6   7  -9    1.77    1.77
   6  -7  -9    2.39    2.13
   6  -7  -9    3.39    0.91
  -6   7  -9    3.00    2.48
  -6   7  -8   30.11    4.89
   6  -7  -8   28.02    4.83
   6   7  -8   25.74    4.88
   6  -7  -8   35.01    5.36
   6   7  -7    5.71    2.53
  -6   7  -7    7.74    2.70
   6  -7  -7    5.87    2.43
   6  -7  -7    8.11    3.04
   6   7  -6   -1.03    1.35
   6   7  -6    2.56    1.85
  -6   7  -6    4.04    1.89
   6  -7  -6    1.96    1.77
   6  -7  -6    2.19    1.93
   6   7  -5    8.71    2.16
   6   7  -5   10.34    2.99
  -6   7  -5   16.48    3.60
   6  -7  -5   18.24    3.62
   6  -7  -5    8.79    3.18
   6   7  -4   44.70    5.95
  -6   7  -4   42.29    5.71
   6  -7  -4   52.74    6.14
   6  -7  -4   51.80    6.35
   6   7  -4   43.85    5.36
   6   7  -3   20.10    4.25
   6   7  -3   19.72    3.34
   6  -7  -3   18.29    3.62
  -6   7  -3   18.70    3.83
   6  -7  -3   17.85    3.97
   6   7  -2   69.47    7.26
   6  -7  -2   60.65    6.43
  -6   7  -2   63.28    6.87
   6  -7  -2   62.03    6.81
   6   7  -2   58.59    6.30
   6   7  -1    8.25    2.38
   6   7  -1    7.62    2.32
  -6   7  -1    7.60    2.04
   6  -7  -1    7.16    2.59
   6  -7  -1    1.84    0.89
   6   7   0    0.90    1.46
  -6   7   0   -0.75    0.71
   6  -7   0    0.55    0.94
   6  -7   0    0.39    0.92
   6  -7   1    3.31    1.53
   6   7   1    4.22    2.32
   6   7   1    0.96    1.00
   6  -7   1    6.58    2.47
  -6   7   1    7.33    2.81
   6   7   2   69.89    6.90
   6   7   2   70.89    7.30
  -6   7   2   53.98    6.52
   6  -7   2   54.83    6.11
   6  -7   2   62.42    7.05
   6  -7   3   19.88    4.07
  -6   7   3   24.42    4.29
   6   7   3   15.97    3.08
   6   7   3   17.58    3.93
   6  -7   3   21.94    3.68
   6   7   4   45.52    5.69
   6   7   4   51.54    6.46
  -6   7   4   44.18    5.83
   6  -7   4   39.47    5.18
   6  -7   4   47.38    5.93
   6  -7   5    7.33    2.89
   6   7   5   12.82    3.09
   6   7   5   12.64    3.22
  -6   7   5    6.48    2.03
   6  -7   5    9.12    2.61
   6  -7   6    3.44    1.53
   6   7   6    3.61    1.68
   6   7   6    0.31    1.70
  -6   7   6    3.27    1.83
   6  -7   6    1.85    1.90
   6  -7   7    3.27    1.40
   6   7   7    7.18    2.75
   6   7   7    8.99    3.00
   6  -7   7    5.20    1.95
  -6   7   7    7.77    3.05
   6   7   8   38.48    5.20
  -6   7   8   33.49    5.16
   6  -7   8   33.92    5.00
   6  -7   8   31.68    5.03
   6   7   8   46.06    5.94
   6  -7   9    3.30    2.46
   6   7   9    4.00    2.79
  -6   7   9    2.13    1.53
   6   7   9    1.41    1.15
   6  -7   9    2.71    1.08
   6  -7  10   10.33    3.70
   6   7  10   13.79    3.55
   6   7  10   10.83    3.00
  -6   7  10   20.13    4.11
   6  -7  11    5.30    2.28
   6   7  11    3.67    2.29
   6   7  11    3.20    2.24
  -6   7  11    4.62    2.49
   6  -7  12    4.04    2.05
   6   7  12    5.28    2.33
   6   7  12    5.97    1.99
  -6   7  12    4.12    2.25
   6  -7  13   12.33    3.43
   6   7  13   14.50    3.48
   6   7  13   15.89    4.01
  -6   7  13    9.60    2.28
  -6   7  14    2.51    1.27
   6   7  14    6.22    3.04
   6   7  14    9.08    3.55
   6   7  15    4.31    2.60
   6   7  15    4.00    1.33
  -6   7  15    4.73    2.54
   6   7  16    3.83    2.33
   6   7  16    4.89    2.94
  -6   7  16    1.98    1.42
   6   7  17    3.80    2.20
   6   7  17    7.39    3.11
  -6   7  17    1.56    2.01
  -6   7  18   17.44    3.97
   6   7  18   18.15    3.97
   6   7  18    9.07    2.81
  -6   7  19    9.49    3.38
   6   7  19    1.11    0.87
  -6   7  20    4.45    2.36
   6   7  20    9.32    2.68
  -6   7  21    9.40    3.36
   6   7  21   13.79    4.21
  -6   7  22    3.80    2.14
   6   7  22    1.44    1.06
   6   7  23    8.39    3.88
  -6   7  23    4.39    2.83
   6  -8 -21   10.65    3.29
   6  -8 -20    0.83    2.00
   6  -8 -20    7.33    3.36
   6  -8 -19   10.44    4.07
   6  -8 -19   14.25    4.12
   6  -8 -18   11.86    3.45
   6  -8 -18   14.24    4.12
   6  -8 -17    8.25    2.86
   6  -8 -17    5.18    2.06
   6  -8 -16    6.71    3.16
   6  -8 -16    3.84    1.91
   6  -8 -15    7.38    2.90
   6  -8 -15    8.29    2.54
   6   8 -14   12.93    3.83
   6  -8 -14    9.89    3.56
   6  -8 -14   15.94    3.67
   6  -8 -13   20.51    4.72
   6   8 -13   12.89    3.62
   6  -8 -13   17.90    4.46
   6   8 -12   29.16    5.35
   6  -8 -12   15.49    3.69
   6  -8 -12   21.85    4.61
   6   8 -11   13.08    3.59
   6  -8 -11    9.82    2.84
   6  -8 -11   14.03    3.56
   6   8 -10    8.14    3.13
   6  -8 -10    7.11    2.21
   6  -8 -10    5.79    2.64
   6   8  -9    9.87    3.05
  -6   8  -9   14.28    3.93
   6  -8  -9    6.22    2.77
   6  -8  -9    7.95    3.41
   6   8  -8   42.06    6.07
  -6   8  -8   44.92    6.07
   6  -8  -8   50.45    6.63
   6  -8  -8   44.70    6.10
   6   8  -7   18.42    4.31
   6  -8  -7   19.01    4.21
   6  -8  -7   14.15    3.24
  -6   8  -7   16.30    3.87
   6   8  -6   10.32    2.88
   6  -8  -6    5.35    2.22
  -6   8  -6    6.21    2.08
   6  -8  -6    8.08    2.20
   6   8  -5   14.20    3.71
   6  -8  -5   15.68    4.22
  -6   8  -5   16.72    4.07
   6  -8  -5   24.11    4.51
  -6   8  -4   13.96    3.29
   6   8  -4   25.09    4.81
   6   8  -4   20.62    4.12
   6  -8  -4   21.35    4.12
   6  -8  -4   21.02    4.29
   6   8  -3    2.24    1.64
   6   8  -3    3.02    1.70
  -6   8  -3    2.49    1.38
   6  -8  -3   -0.58    1.14
   6  -8  -3    2.28    2.29
   6   8  -2   25.92    4.65
  -6   8  -2   28.14    4.86
   6  -8  -2   31.81    5.09
   6  -8  -2   31.56    4.91
   6   8  -2   39.09    5.32
   6   8  -1    3.68    0.99
   6   8  -1    8.95    2.78
  -6   8  -1    8.01    2.43
   6  -8  -1    8.30    2.99
   6  -8  -1   12.25    3.97
   6   8   0   -0.58    1.19
  -6   8   0    2.93    1.24
   6  -8   0    0.68    1.15
   6   8   0    1.51    0.68
   6  -8   0    0.49    1.17
  -6   8   1   12.87    3.54
   6   8   1    8.38    2.46
   6  -8   1    8.06    2.87
   6   8   1    7.16    2.08
   6  -8   1    6.25    2.46
   6   8   2   43.79    5.77
   6   8   2   37.78    5.28
  -6   8   2   33.35    5.47
   6  -8   2   37.17    5.65
   6  -8   2   27.98    5.13
  -6   8   3    2.10    1.99
   6   8   3   -0.27    1.21
   6   8   3    0.17    1.39
   6  -8   3   -0.92    1.54
   6  -8   3    0.89    0.85
   6   8   4   24.59    4.59
   6   8   4   24.72    4.17
  -6   8   4   22.33    4.42
   6  -8   4   21.10    3.86
   6   8   5   19.21    4.12
   6   8   5   15.16    3.73
  -6   8   5   14.39    3.58
   6  -8   5   18.31    4.37
   6   8   6    9.49    2.33
   6   8   6    6.63    2.11
  -6   8   6    3.07    2.13
   6  -8   6    8.19    3.04
   6   8   7   15.50    3.68
  -6   8   7   18.65    4.59
   6  -8   7   27.90    4.98
   6   8   7   13.34    3.30
   6   8   8   39.78    5.79
  -6   8   8   43.90    6.46
   6  -8   8   38.40    5.79
   6   8   8   37.81    5.48
   6  -8   9    4.32    2.46
   6   8   9    6.29    1.69
  -6   8   9   -0.38    1.55
   6  -8  10    6.93    2.78
  -6   8  10    4.43    1.75
   6   8  10    3.93    2.20
   6   8  10    4.64    1.85
   6  -8  11   12.44    3.41
  -6   8  11    8.20    3.33
   6   8  11   15.61    3.63
   6   8  11    8.48    2.52
   6  -8  12   25.28    4.89
   6   8  12   34.11    5.92
   6   8  12   21.44    4.26
  -6   8  12   21.63    4.72
   6   8  13   16.89    3.60
   6   8  13   16.00    3.90
  -6   8  13   15.49    4.41
   6   8  14   12.82    3.23
   6   8  14    9.17    2.83
  -6   8  14   11.97    3.46
   6   8  15    8.52    3.09
   6   8  15   10.99    3.44
  -6   8  15    4.46    2.57
   6   8  16    4.90    2.40
   6   8  16    8.04    3.48
  -6   8  16    7.14    3.33
   6   8  17    9.64    3.17
   6   8  17   11.27    3.23
  -6   8  17    2.99    2.65
   6   8  18   14.61    3.34
   6   8  18   13.54    4.02
  -6   8  18   14.68    3.99
   6   8  19   10.30    3.61
  -6   8  19    4.94    3.03
   6   8  19    6.54    3.41
   6   8  20    3.93    2.34
  -6   8  20    7.92    3.37
  -6   8  21   12.20    4.59
   6   8  21    9.42    3.47
   6  -9 -17   -0.56    1.25
   6  -9 -17   -0.51    1.53
   6  -9 -16    1.06    1.86
   6  -9 -16   -0.31    1.27
   6  -9 -15   -0.24    2.41
   6  -9 -15    1.06    2.39
   6   9 -14    0.24    0.77
   6  -9 -14    8.08    3.59
   6  -9 -14    4.90    2.08
   6   9 -13    3.43    2.35
   6  -9 -13    1.84    1.79
   6  -9 -13    1.15    2.03
   6   9 -12    1.28    1.55
   6  -9 -12    7.89    2.78
   6  -9 -12    2.70    2.31
   6   9 -11    1.38    1.56
   6  -9 -11    1.47    1.91
   6  -9 -11    0.95    1.30
   6   9 -10    1.98    1.35
   6  -9 -10    0.46    1.69
   6  -9 -10    0.14    1.12
   6  -9  -9    0.79    1.61
   6   9  -9    4.74    2.61
   6  -9  -9    5.67    2.33
   6  -9  -8    1.64    1.09
   6   9  -8    2.68    2.22
  -6   9  -8    2.40    1.86
   6  -9  -8    1.99    1.21
  -6   9  -7    4.44    2.02
   6   9  -7    2.31    2.02
   6  -9  -7    7.77    3.49
   6  -9  -7    4.62    3.28
   6  -9  -6    7.04    3.14
   6   9  -6    4.37    2.42
  -6   9  -6    3.03    1.97
   6  -9  -6    5.67    2.72
   6  -9  -5    2.47    2.33
   6   9  -5    6.69    2.23
  -6   9  -5    8.38    2.93
   6  -9  -5    6.68    1.60
   6   9  -4    0.31    1.45
  -6   9  -4    1.22    2.20
   6  -9  -4    0.10    1.70
   6  -9  -4    0.82    1.73
   6  -9  -3    0.07    1.13
   6   9  -3    1.67    1.80
  -6   9  -3    4.16    2.17
   6  -9  -3    2.53    2.11
   6   9  -2   -0.73    1.58
   6   9  -2   -3.26    2.01
  -6   9  -2    1.18    1.90
   6  -9  -2   -0.28    1.13
   6   9  -1   14.11    3.61
  -6   9  -1    9.23    3.22
   6   9  -1    5.70    2.32
   6  -9  -1   11.43    3.49
   6   9   0    6.17    2.54
   6   9   0    1.36    1.12
  -6   9   0    5.03    2.54
   6  -9   0    2.87    2.57
   6   9   1   12.61    3.59
  -6   9   1    6.01    2.03
   6  -9   1   11.03    3.38
   6   9   1    7.12    2.43
   6   9   2   -1.43    1.75
  -6   9   2   -0.82    2.37
   6   9   2    1.70    1.00
   6  -9   2    0.69    1.54
   6   9   3    1.67    1.04
  -6   9   3    2.34    1.42
   6   9   3    4.80    1.68
   6  -9   3    2.20    2.04
   6  -9   4    0.69    0.95
   6   9   4    1.34    2.13
  -6   9   4   -0.11    1.16
   6   9   4   -0.05    1.45
   6   9   5    6.43    2.16
  -6   9   5    6.81    2.58
   6   9   5    4.95    1.80
   6  -9   5    6.59    2.61
   6   9   6    7.29    2.98
  -6   9   6    4.47    2.98
   6   9   6    3.68    1.85
   6  -9   6    8.29    2.75
   6   9   7   -0.22    2.09
   6   9   7    5.63    2.20
  -6   9   7    3.15    2.47
   6  -9   7    2.64    1.35
   6   9   8    1.99    1.61
   6  -9   8   -0.19    1.46
   6   9   8    1.39    1.54
  -6   9   8    3.39    2.12
   6   9   9   -0.86    1.34
   6   9   9   -0.89    1.43
  -6   9   9    4.50    2.56
   6  -9   9   -0.04    1.77
   6   9  10    3.75    1.84
   6   9  10    0.47    1.73
  -6   9  10    2.61    1.89
   6  -9  10    4.72    2.33
   6   9  11   -0.53    1.50
   6   9  11    1.39    1.70
  -6   9  11    1.95    2.05
   6   9  12    7.07    3.13
   6   9  12    9.13    3.45
  -6   9  12    8.56    2.90
   6   9  13   -3.50    2.71
   6   9  13   -0.98    1.54
  -6   9  13    3.47    2.11
   6   9  14    1.76    1.42
   6   9  14    1.33    1.55
  -6   9  14    4.23    2.16
   6   9  15    2.68    3.14
   6   9  15    0.65    1.53
  -6   9  15   -1.73    1.37
   6   9  16   -1.13    1.83
   6   9  16   -0.73    1.46
  -6   9  16   -1.59    1.90
   6   9  17   -0.41    1.46
   6   9  17   -0.35    1.85
  -6   9  17   -1.17    1.52
   6  10 -13    0.70    1.12
   6 -10 -13   -0.51    2.53
   6  10 -12    6.54    2.30
   6 -10 -12    1.72    1.64
   6 -10 -12    6.47    2.88
   6 -10 -11    3.24    1.84
   6  10 -11    4.15    2.57
   6 -10 -11    1.19    1.20
   6  10 -10    0.72    1.99
   6 -10 -10    1.21    1.27
   6  10  -9    0.84    2.04
   6 -10  -9    2.57    1.55
   6  10  -8    8.34    3.56
   6 -10  -8   13.21    3.50
   6  10  -7    1.05    1.42
  -6  10  -7    1.22    1.79
   6 -10  -7    5.22    3.28
   6  10  -6    3.60    1.65
  -6  10  -6    3.58    1.82
   6 -10  -6    4.20    2.75
   6 -10  -5    5.41    2.16
   6  10  -5    0.83    1.01
  -6  10  -5    8.12    3.19
   6  10  -4    4.97    1.01
   6 -10  -4    9.01    3.32
   6  10  -3    4.28    2.28
  -6  10  -3    2.15    1.97
   6 -10  -3    2.40    1.79
   6  10  -2    7.41    3.07
  -6  10  -2   13.09    3.80
   6 -10  -2   12.75    3.41
   6  10  -1    0.64    1.21
   6  10  -1    1.84    1.84
  -6  10  -1    3.87    2.68
   6 -10  -1    2.35    1.79
   6  10   0   -2.00    1.70
   6  10   0   -0.25    0.95
  -6  10   0   -1.82    1.13
   6 -10   0    0.40    1.08
   6  10   1    3.48    2.09
  -6  10   1    3.71    2.73
   6  10   1    6.98    3.05
   6 -10   1    0.87    1.28
   6  10   2   18.25    4.51
   6  10   2   14.47    3.71
  -6  10   2   11.34    3.10
   6 -10   2   12.85    3.46
   6  10   3    2.01    0.94
  -6  10   3   -1.49    2.13
   6  10   3    3.33    2.16
   6 -10   3   -0.60    0.98
   6  10   4    4.57    2.29
  -6  10   4    4.54    2.09
   6  10   4   11.12    3.69
   6 -10   4    8.38    2.62
   6  10   5    9.16    3.17
   6  10   5    7.08    2.80
  -6  10   5    1.25    2.18
   6 -10   5    5.19    2.55
   6  10   6    1.49    2.32
   6  10   6    3.07    2.34
  -6  10   6    0.33    1.11
   6 -10   6    1.76    2.46
   6  10   7    6.34    3.19
   6  10   7    2.30    1.64
  -6  10   7    2.46    2.17
   6 -10   7   10.01    3.38
   6  10   8   13.55    4.04
   6 -10   8    7.78    3.26
   6  10   8    5.22    2.89
  -6  10   9    2.80    2.11
   6  10   9    6.01    2.85
   6  10   9   -1.52    2.23
   6 -10   9    2.40    2.54
  -6  10  10    1.71    1.95
   6  10  10    0.66    1.75
   6  10  10    1.36    1.38
   6  10  11    3.19    3.20
   6  10  11    2.50    1.50
  -6  10  11    4.38    2.63
   6  10  12    4.92    2.94
   6  10  12    6.67    2.41
  -6  10  12   10.34    3.90
  -6  10  13    3.36    2.74
   6  10  13    0.13    1.36
   6  10  13    1.33    1.13
   6  11  -6    2.80    2.29
  -6  11  -6    0.22    1.84
   6 -11  -6    5.09    2.30
   6  11  -5   -0.31    1.51
  -6  11  -5    2.04    1.52
   6 -11  -5    2.65    1.49
   6  11  -4   -0.91    1.80
  -6  11  -4   -0.45    2.16
   6 -11  -4   -0.74    1.54
   6  11  -3    0.99    1.40
  -6  11  -3    1.32    1.77
   6 -11  -3    0.26    1.52
   6  11  -2    4.40    2.72
  -6  11  -2    0.47    1.36
   6 -11  -2    2.81    1.27
   6  11  -1    1.27    1.49
  -6  11  -1    2.65    1.74
   6 -11  -1    4.97    2.10
   6  11   0    2.70    1.52
  -6  11   0    2.87    2.96
   6 -11   0   -2.69    2.57
   6  11   1    4.75    1.67
   6  11   1   -1.79    1.47
  -6  11   1    2.65    1.65
   6 -11   1    0.19    2.23
   6  11   2    0.61    1.12
   6  11   2    2.02    2.58
  -6  11   2    0.83    1.72
   6 -11   2    0.11    1.13
   6  11   3    4.15    2.79
   6  11   3   -0.44    1.63
  -6  11   3   -0.91    1.68
   6 -11   3    1.00    1.50
   6  11   4   -0.58    1.80
  -6  11   4   -3.34    2.38
   6 -11   4   -0.24    1.39
   6  11   4    0.45    1.75
   6  11   5    5.72    3.40
   6  11   5    2.44    3.24
  -6  11   5    0.49    1.44
   6 -11   5    0.22    2.25
   6  11   6    0.09    1.30
   6  11   6    1.51    1.37
  -6  11   6    8.13    3.54
   6 -11   6    4.79    3.64
   7   0 -28    0.85    1.84
   7   0 -27   -3.20    2.57
   7   0 -26   -2.68    2.19
   7   0 -25   -0.05    1.48
   7   0 -24   -0.05    1.07
   7   0 -23   -0.03    1.07
   7   0 -22    0.71    1.89
   7   0 -21    1.14    1.29
   7   0 -20    0.24    1.39
   7   0 -19    0.28    0.83
   7   0 -18    0.08    1.75
   7   0 -17   -0.18    1.47
   7   0 -16    0.68    1.63
   7   0 -15    0.58    1.73
   7   0 -14    0.11    0.93
   7   0 -14    4.33    1.91
   7   0 -13    0.87    0.99
   7   0 -13    0.24    1.12
   7   0 -12    0.42    1.01
   7   0 -12   -0.44    0.93
   7   0 -11    0.04    0.92
   7   0 -11   -0.28    0.63
   7   0 -10   -0.59    0.49
   7   0 -10    0.33    0.90
   7   0  -9   -0.24    0.44
   7   0  -9   -0.82    0.95
   7   0  -8   -0.43    0.64
   7   0  -8    0.68    0.56
   7   0  -8   -0.26    0.68
   7   0  -7    0.14    0.96
   7   0  -7    0.31    0.76
   7   0  -7   -0.11    0.56
   7   0  -6   -0.33    0.78
   7   0  -6    1.60    1.29
   7   0  -6    1.01    1.25
   7   0  -5    0.39    0.47
   7   0  -5   -0.08    0.55
   7   0  -5    0.11    0.84
   7   0  -4   -0.42    0.77
   7   0  -4   -0.29    0.53
   7   0  -4   -0.34    0.71
   7   0  -3    0.23    0.75
   7   0  -3    0.11    0.96
   7   0  -3    0.38    0.85
   7   0  -2   -0.46    1.03
   7   0  -2    0.21    0.40
   7   0  -2    0.49    0.62
   7   0  -1   -0.66    1.02
   7   0  -1    0.36    1.13
   7   0  -1   -0.35    0.77
   7   0   0   -0.36    0.71
   7   0   0    0.39    0.62
   7   0   0   -0.38    0.77
   7   0   1   -0.20    0.47
   7   0   1    0.30    0.42
   7   0   2    0.20    0.45
   7   0   2    0.06    0.57
   7   0   3    0.69    0.95
   7   0   3   -0.56    0.88
   7   0   4    0.06    0.48
   7   0   4   -0.17    0.56
   7   0   5    0.08    0.73
   7   0   5   -0.17    0.51
   7   0   6    0.84    0.80
   7   0   6   -0.35    0.59
   7   0   7   -0.34    0.65
   7   0   7   -0.20    0.46
   7   0   8   -0.14    0.68
   7   0   8   -0.40    0.53
   7   0   9    0.53    0.85
   7   0   9   -0.10    0.79
   7   0  10    0.03    0.63
   7   0  10    0.35    0.57
   7   0  11   -0.17    1.20
   7   0  11   -0.21    0.55
   7   0  12    0.21    0.58
   7   0  12   -0.28    0.32
   7   0  13   -0.19    0.75
   7   0  13    0.71    0.66
   7   0  14   -0.28    1.08
   7   0  15    2.13    2.24
   7   0  16    2.32    2.06
   7   0  17   -1.08    1.24
   7   0  18    0.56    0.95
   7   0  19   -0.99    1.00
   7   0  20   -0.79    1.55
   7   0  21   -0.59    1.25
   7   0  22    1.07    1.63
   7   0  23   -2.13    1.99
   7  -1 -29    1.12    1.10
   7  -1 -28   29.18    5.60
   7  -1 -27    5.70    3.01
   7  -1 -26   -1.82    1.92
   7   1 -25    0.29    2.58
   7  -1 -25    8.66    3.08
   7   1 -24   55.63    7.02
   7  -1 -24   72.22    8.23
   7   1 -23    4.07    2.39
   7  -1 -23    2.32    1.02
   7   1 -22   40.11    5.75
   7  -1 -22   44.50    6.19
   7   1 -21   20.88    4.62
   7  -1 -21   19.67    4.23
   7   1 -20   25.32    4.54
   7  -1 -20   30.01    4.90
   7   1 -19   30.24    4.64
   7  -1 -19   21.05    4.11
   7   1 -18   39.87    5.20
   7   1 -17   22.57    3.83
   7  -1 -17   26.00    4.46
   7   1 -16  298.16   13.42
   7  -1 -16  305.96   14.40
   7   1 -15   64.39    6.23
   7  -1 -15   71.84    6.86
   7  -1 -15   67.51    5.70
   7   1 -14  434.83   15.70
   7  -1 -14  419.39   13.94
   7  -1 -14  423.31   16.28
   7   1 -13   63.97    5.82
   7  -1 -13   67.70    6.42
   7  -1 -13   58.20    5.19
   7   1 -13   60.73    5.72
   7  -1 -12   92.53    7.30
   7   1 -12   94.38    6.92
   7   1 -12   94.77    5.18
   7  -1 -12   91.49    6.35
   7   1 -12   90.33    6.88
   7   1 -11   95.01    5.28
   7   1 -11  105.50    7.17
   7  -1 -11  111.34    7.85
   7   1 -11  108.87    7.33
   7  -1 -11   96.77    6.49
   7   1 -10   28.77    2.93
   7  -1 -10   36.51    4.27
   7   1 -10   30.83    3.85
   7   1 -10   25.92    3.53
   7  -1 -10   25.21    3.29
   7   1  -9   22.87    2.74
   7   1  -9   16.95    2.92
   7  -1  -9   24.30    3.63
   7   1  -9   25.25    3.49
   7  -1  -9   25.55    3.32
   7  -1  -8   81.10    5.78
   7   1  -8   86.67    5.20
   7   1  -8   81.63    5.84
   7  -1  -8   84.95    6.59
   7   1  -8   92.45    6.57
   7  -1  -7   76.78    5.68
   7   1  -7   72.52    4.74
   7  -1  -7   79.47    6.32
   7   1  -7   77.69    5.79
   7   1  -7   75.77    5.85
   7  -1  -6  232.29    9.87
   7   1  -6  244.10    9.01
   7  -1  -6  221.97   10.22
   7   1  -6  231.57    9.45
   7   1  -6  220.60    9.94
   7  -1  -5  287.39   10.95
   7   1  -5  278.51    9.69
   7   1  -5  282.11   11.05
   7  -1  -5  281.01   11.44
   7   1  -5  273.64   10.25
   7  -1  -4  165.99    8.69
   7   1  -4  172.52    8.11
   7  -1  -4  169.57    8.36
   7   1  -4  151.19    7.23
   7   1  -4  166.28    8.51
   7  -1  -3  370.98   12.39
   7   1  -3  358.39   12.33
   7   1  -3  380.47   11.94
   7  -1  -3  353.83   12.56
   7   1  -3  352.15   11.15
   7  -1  -2  603.99   16.22
   7  -1  -2  615.23   15.86
   7   1  -2  638.85   15.17
   7   1  -2  617.42   15.23
   7   1  -2  574.93   15.53
   7  -1  -1   25.64    3.30
   7  -1  -1   30.99    3.51
   7   1  -1   25.72    3.05
   7   1  -1   25.12    2.97
   7   1  -1   22.75    3.03
   7   1   0    2.85    1.16
   7   1   0    3.04    1.38
   7  -1   0    1.65    0.54
   7  -1   0    2.91    1.30
   7  -1   1   32.81    3.77
   7   1   1   25.65    3.17
   7   1   1   24.82    3.22
   7  -1   1   23.52    3.31
   7  -1   2  596.84   15.97
   7   1   2  600.38   15.68
   7   1   2  591.13   14.91
   7   1   3  358.55   12.31
   7   1   3  336.70   11.27
   7   1   4  168.58    7.84
   7   1   4  174.91    8.69
   7  -1   5  275.72   11.13
   7   1   5  293.11   10.38
   7   1   5  280.92   11.12
   7  -1   6  237.81   10.42
   7   1   6  217.11    8.79
   7   1   6  239.63   10.49
   7   1   7   73.04    6.00
   7  -1   7   76.08    5.97
   7   1   7   72.70    5.12
   7  -1   8   83.76    6.35
   7   1   8   80.36    5.43
   7   1   8   81.48    6.20
   7   1   9   14.19    2.76
   7  -1   9   18.33    3.13
   7   1   9   19.25    2.57
   7  -1  10   26.01    3.51
   7   1  10   30.30    3.89
   7   1  10   29.57    3.35
   7   1  11   91.60    7.08
   7  -1  11   80.10    6.50
   7   1  11   97.68    5.83
   7   1  12   88.85    6.98
   7  -1  12  100.93    7.42
   7   1  12   89.57    5.45
   7   1  13   61.38    5.82
   7  -1  13   58.22    5.71
   7   1  13   53.92    4.26
   7   1  14  440.57   16.52
   7  -1  14  445.29   16.12
   7   1  14  440.11   12.05
   7   1  15   70.83    6.72
   7  -1  15   64.21    6.37
   7   1  16  315.93   14.37
   7  -1  16  315.33   14.04
   7   1  17   26.30    4.19
   7  -1  17   23.98    4.29
   7  -1  18   30.69    4.50
   7   1  18   42.30    5.53
   7  -1  19   24.64    4.48
   7   1  19   27.79    4.32
   7  -1  20   30.94    4.70
   7   1  20   30.98    4.91
   7  -1  21   22.33    4.11
   7   1  21   24.50    4.58
   7  -1  22   45.01    5.99
   7   1  22   41.65    5.86
   7   1  23    4.60    2.24
   7   1  24   60.41    7.23
   7  -2 -29    2.94    1.25
   7  -2 -28   -5.67    3.04
   7  -2 -27    0.11    1.02
   7  -2 -26   -1.68    1.76
   7  -2 -25    6.34    2.40
   7  -2 -24    5.05    3.07
   7  -2 -23    8.41    2.80
   7  -2 -22    3.53    2.52
   7  -2 -21   24.48    4.62
   7   2 -20   -4.77    1.83
   7  -2 -20    7.97    3.17
   7   2 -19   -0.85    1.30
   7  -2 -19   -0.56    2.06
   7  -2 -18   39.41    5.58
   7   2 -18   35.30    4.83
   7   2 -17   19.84    3.69
   7  -2 -17   19.56    3.89
   7  -2 -17   27.13    4.66
   7   2 -17   23.55    3.68
   7   2 -16  191.73   10.43
   7  -2 -16  186.74   10.79
   7   2 -16  192.63   10.88
   7  -2 -15   61.35    6.09
   7   2 -15   57.47    5.58
   7  -2 -15   62.72    6.62
   7   2 -15   70.37    6.29
   7   2 -14   54.23    5.28
   7  -2 -14   63.61    6.49
   7  -2 -14   53.66    5.42
   7   2 -14   57.35    5.66
   7   2 -13   46.47    4.92
   7  -2 -13   44.23    5.18
   7  -2 -13   42.57    4.68
   7   2 -13   56.93    5.74
   7   2 -12   95.03    6.53
   7  -2 -12   89.47    7.29
   7  -2 -12   81.61    6.50
   7   2 -12   74.35    6.17
   7  -2 -11    4.03    1.75
   7   2 -11    9.12    1.55
   7  -2 -11    9.10    2.15
   7   2 -11    7.19    1.94
   7   2 -11   12.19    2.60
   7   2 -10   53.55    3.77
   7   2 -10   58.09    4.96
   7  -2 -10   55.98    5.59
   7  -2 -10   61.05    5.54
   7   2 -10   61.18    5.66
   7   2  -9  107.62    5.46
   7  -2  -9  103.78    7.65
   7   2  -9  105.62    6.31
   7   2  -9   96.09    7.00
   7  -2  -9   95.10    6.87
   7  -2  -8  214.95   10.78
   7   2  -8  220.86    8.21
   7   2  -8  221.45    9.02
   7   2  -8  236.26   10.77
   7  -2  -8  227.17   10.55
   7   2  -7    8.85    2.03
   7  -2  -7   12.13    2.33
   7  -2  -7    8.25    2.29
   7   2  -7   10.75    1.98
   7   2  -7    9.10    1.74
   7  -2  -6   26.70    3.38
   7  -2  -6   29.01    3.93
   7   2  -6   31.10    3.31
   7   2  -6   31.35    3.23
   7   2  -6   31.16    3.90
   7  -2  -5  142.73    8.21
   7  -2  -5  155.17    8.76
   7   2  -5  155.73    7.34
   7   2  -5  160.19    7.24
   7   2  -5  149.14    8.35
   7  -2  -4   29.14    3.79
   7  -2  -4   32.07    3.95
   7   2  -4   31.40    3.25
   7   2  -4   29.44    3.15
   7   2  -4   30.27    3.83
   7  -2  -3  135.94    8.01
   7  -2  -3  137.67    8.10
   7   2  -3  139.98    6.91
   7   2  -3  150.66    7.35
   7   2  -3  153.42    8.18
   7  -2  -2   83.07    6.22
   7  -2  -2   77.14    6.01
   7   2  -2   76.67    5.19
   7   2  -2   84.35    5.69
   7   2  -2   75.12    5.73
   7   2  -1    2.61    0.97
   7  -2  -1    2.47    1.46
   7  -2  -1    3.62    1.64
   7   2  -1    3.55    1.48
   7   2   0    0.74    1.01
   7  -2   0   -0.03    0.82
   7   2   0    0.35    0.68
   7  -2   0   -0.09    0.98
   7   2   1    1.01    0.56
   7  -2   1    2.46    1.17
   7   2   1    3.80    1.33
   7  -2   1    3.24    1.50
   7   2   2   74.75    5.62
   7  -2   2   75.08    5.94
   7   2   2   66.21    5.39
   7  -2   2   72.70    5.89
   7   2   3  134.48    7.53
   7  -2   3  147.73    8.25
   7   2   3  147.32    7.98
   7   2   4   29.16    3.44
   7   2   4   28.44    3.50
   7  -2   4   28.85    3.73
   7   2   5  150.82    7.95
   7  -2   5  145.18    8.47
   7   2   6   29.09    3.58
   7   2   6   26.59    3.55
   7  -2   6   30.12    3.84
   7   2   7   10.92    2.18
   7  -2   7    7.88    1.94
   7   2   7    7.89    1.99
   7   2   8  209.97    9.50
   7   2   8  230.46   10.88
   7  -2   8  228.70   10.70
   7   2   9  102.76    6.51
   7   2   9  102.50    7.41
   7  -2   9  109.68    7.53
   7   2  10   60.87    5.06
   7   2  10   61.14    5.81
   7  -2  10   68.17    6.03
   7   2  11    9.99    2.23
   7  -2  11    7.41    2.25
   7   2  11   11.28    2.73
   7   2  12   95.31    6.40
   7   2  12   94.83    7.36
   7  -2  12   88.71    7.14
   7   2  13   40.29    4.11
   7   2  13   42.30    5.11
   7  -2  13   46.35    5.47
   7   2  14   56.52    6.03
   7  -2  14   53.13    5.72
   7   2  14   52.89    4.83
   7   2  15   63.48    6.50
   7  -2  15   63.42    6.38
   7   2  15   58.87    5.02
   7   2  16  195.80   11.53
   7  -2  16  185.86   11.04
   7  -2  17   21.18    3.94
   7   2  17   17.52    3.66
   7   2  18   39.76    5.30
   7  -2  18   47.31    5.84
   7   2  19   -0.24    1.05
   7  -2  19    0.21    1.43
   7   2  20   13.59    3.16
   7  -2  20    9.54    3.05
   7   2  21   18.85    4.03
   7  -2  21   15.32    3.21
   7   2  22    5.53    2.27
   7   2  23    3.41    2.19
   7   2  24    3.67    1.55
   7   2  25    8.93    3.33
   7  -3 -28   13.24    3.94
   7  -3 -27    1.22    2.31
   7  -3 -26    5.88    1.04
   7  -3 -25    4.20    1.37
   7  -3 -24   51.99    7.51
   7  -3 -23    4.59    2.57
   7  -3 -22    2.70    2.31
   7  -3 -21   -1.22    1.26
   7  -3 -20   98.76    9.00
   7  -3 -19   11.16    3.31
   7  -3 -18  240.73   13.81
   7  -3 -18  227.26   12.58
   7   3 -18  228.82   12.60
   7  -3 -17   22.36    4.50
   7  -3 -17   31.78    4.57
   7   3 -17   24.12    3.96
   7  -3 -16    9.77    2.97
   7  -3 -16    9.83    2.86
   7   3 -16    6.16    1.76
   7  -3 -15   22.73    4.20
   7  -3 -15   17.48    3.46
   7   3 -15   21.19    3.68
   7  -3 -14  528.78   19.19
   7   3 -14  496.60   17.41
   7   3 -13    4.20    2.23
   7   3 -13   11.76    2.83
   7  -3 -13    5.97    2.56
   7  -3 -13    6.99    1.90
   7  -3 -12  651.82   20.62
   7   3 -12  623.27   16.14
   7   3 -12  632.61   19.20
   7  -3 -12  604.38   19.01
   7   3 -11   66.65    6.11
   7   3 -11   80.49    5.54
   7  -3 -11   64.82    6.44
   7  -3 -11   70.19    6.42
   7  -3 -10   20.12    3.50
   7   3 -10   18.23    2.52
   7  -3 -10   19.38    3.85
   7   3 -10   22.27    3.61
   7  -3  -9   27.38    4.08
   7   3  -9   27.54    2.79
   7   3  -9   24.75    2.94
   7  -3  -9   22.50    3.44
   7   3  -9   32.85    4.29
   7   3  -8  524.65   13.20
   7  -3  -8  560.98   17.84
   7  -3  -8  545.55   17.37
   7   3  -8  557.06   17.16
   7   3  -7   10.91    2.61
   7   3  -7   13.97    2.19
   7  -3  -7    6.96    2.22
   7   3  -7   16.59    2.19
   7  -3  -7   15.75    2.96
   7   3  -6  352.05   10.42
   7   3  -6  367.07   11.37
   7  -3  -6  339.40   13.48
   7   3  -6  365.21   13.83
   7   3  -5   42.50    3.68
   7  -3  -5   40.25    4.71
   7  -3  -5   33.33    4.32
   7   3  -5   49.96    5.05
   7   3  -5   43.42    3.90
   7   3  -4    2.99    1.01
   7  -3  -4    2.34    1.75
   7   3  -4    3.08    1.29
   7  -3  -4    2.00    1.48
   7   3  -4    2.90    0.93
   7  -3  -3   21.03    3.42
   7   3  -3   21.12    2.95
   7   3  -3   22.53    2.68
   7  -3  -3   14.59    2.88
   7   3  -3   18.39    3.04
   7   3  -2  614.93   17.68
   7  -3  -2  604.35   17.86
   7   3  -2  617.27   15.78
   7  -3  -2  616.46   17.88
   7   3  -2  613.90   13.97
   7   3  -1   18.43    3.07
   7  -3  -1   15.15    3.03
   7   3  -1   20.90    3.03
   7  -3  -1   17.77    3.31
   7   3   0    1.91    0.66
   7  -3   0    2.33    1.23
   7   3   0    2.36    1.60
   7  -3   0    0.76    0.83
   7   3   1   22.45    3.40
   7  -3   1   26.27    3.69
   7   3   1   24.52    3.41
   7  -3   1   21.91    3.42
   7  -3   2  585.00   17.53
   7   3   2  630.73   17.37
   7   3   2  646.80   17.64
   7  -3   2  597.00   17.31
   7   3   3   21.98    3.20
   7  -3   3   24.56    3.48
   7   3   3   24.70    3.53
   7  -3   3   20.05    3.20
   7   3   4    0.60    1.03
   7   3   4    0.93    0.95
   7  -3   4    2.24    1.17
   7  -3   4    0.79    1.26
   7   3   5   42.64    4.70
   7  -3   5   51.17    5.22
   7   3   6  341.37   12.93
   7  -3   6  348.96   13.52
   7   3   6  358.81   13.72
   7   3   7   10.02    2.31
   7   3   7   12.61    2.58
   7  -3   7   11.70    2.57
   7   3   8  562.04   16.71
   7  -3   8  542.24   17.24
   7   3   8  536.78   17.40
   7   3   9   23.83    3.50
   7  -3   9   29.52    4.02
   7   3   9   22.33    3.73
   7  -3  10   19.75    3.51
   7   3  10   21.12    3.32
   7   3  10   17.40    3.33
   7   3  11   72.62    5.97
   7  -3  11   66.82    6.27
   7   3  11   68.59    6.44
   7   3  12  587.41   17.43
   7  -3  12  624.92   19.23
   7   3  12  606.62   19.94
   7   3  13    7.49    2.02
   7  -3  13    5.42    1.74
   7   3  14  499.94   16.35
   7  -3  14  514.27   17.93
   7   3  14  485.67   18.26
   7  -3  15   16.27    3.49
   7   3  15   16.10    2.88
   7   3  15   26.21    4.10
   7   3  16   10.22    2.82
   7   3  16    7.88    2.20
   7  -3  16    7.15    2.77
   7   3  17   21.68    3.81
   7  -3  17   21.90    4.05
   7   3  18  230.09   13.41
   7  -3  18  224.62   12.64
   7  -3  19   13.13    2.95
   7   3  19   15.44    3.81
   7   3  20   82.82    8.09
   7   3  21    6.79    2.08
   7   3  22    0.22    1.41
   7   3  23    4.58    1.54
   7   3  24   51.49    7.08
   7   3  25    5.83    2.13
   7   3  26    1.30    1.94
   7  -4 -27    5.33    2.81
   7  -4 -26   -1.16    1.28
   7  -4 -25   -0.42    1.70
   7  -4 -24    0.24    1.37
   7  -4 -23    1.10    1.89
   7  -4 -22    9.46    3.11
   7  -4 -21    6.06    2.60
   7  -4 -20    1.59    1.93
   7  -4 -19   75.17    7.62
   7  -4 -19   93.28    8.72
   7  -4 -18   29.21    4.96
   7  -4 -18   26.31    4.53
   7  -4 -17    6.50    2.78
   7  -4 -17    5.82    2.44
   7   4 -17    4.03    1.46
   7   4 -16    4.69    1.96
   7  -4 -16    6.93    2.41
   7  -4 -16    8.08    2.51
   7   4 -15   19.70    3.72
   7  -4 -15   29.59    4.82
   7  -4 -15   22.59    4.06
   7   4 -14   45.42    5.40
   7  -4 -14   54.23    6.34
   7  -4 -14   61.00    6.60
   7  -4 -13   51.68    6.11
   7  -4 -13   49.64    5.94
   7   4 -13   64.12    6.50
   7  -4 -12   12.92    3.19
   7   4 -12   15.72    3.55
   7  -4 -12   14.84    3.21
   7  -4 -11  108.35    8.51
   7   4 -11   98.15    7.81
   7  -4 -11  123.58    9.09
   7  -4 -10   16.47    3.04
   7   4 -10   20.88    3.92
   7  -4 -10   21.06    3.79
   7  -4  -9    3.70    1.70
   7   4  -9    4.78    1.65
   7  -4  -9    3.07    1.60
   7  -4  -8   41.63    5.34
   7  -4  -8   43.62    5.08
   7   4  -8   44.62    3.91
   7   4  -8   46.63    5.42
   7   4  -7  286.11   10.32
   7  -4  -7  276.00   12.87
   7   4  -7  275.07   12.59
   7  -4  -7  288.70   13.37
   7   4  -6   22.27    3.80
   7   4  -6   20.28    2.89
   7  -4  -6   29.90    4.44
   7  -4  -6   24.85    3.89
   7   4  -5    3.09    1.50
   7  -4  -5    3.80    1.63
   7  -4  -5    2.06    0.66
   7   4  -5    3.11    1.10
   7   4  -5    3.16    1.09
   7   4  -4    3.17    1.03
   7   4  -4    3.24    1.26
   7  -4  -4    3.25    1.76
   7  -4  -4    3.68    1.50
   7   4  -4    2.68    0.75
   7   4  -3   32.67    4.23
   7   4  -3   38.73    4.20
   7  -4  -3   33.13    4.10
   7   4  -3   33.96    3.19
   7  -4  -3   45.71    5.14
   7   4  -2    4.45    1.51
   7  -4  -2    2.33    0.73
   7   4  -2    1.39    1.25
   7  -4  -2    5.69    2.23
   7   4  -1    3.74    1.37
   7  -4  -1    8.72    2.20
   7   4  -1    7.77    1.90
   7  -4  -1    5.36    1.75
   7   4   0   -0.81    1.12
   7  -4   0    0.55    0.87
   7   4   0    0.38    1.25
   7  -4   0    1.20    0.76
   7   4   1    8.75    2.44
   7  -4   1    5.81    2.25
   7   4   1   10.18    2.28
   7  -4   1    7.97    2.30
   7  -4   2    2.20    1.31
   7   4   2    2.09    1.27
   7  -4   2    0.67    0.53
   7  -4   3   37.62    4.83
   7   4   3   40.17    4.83
   7  -4   3   36.98    4.55
   7  -4   4    1.80    1.10
   7   4   4    2.72    1.21
   7  -4   4    3.40    1.49
   7   4   4    4.05    1.46
   7   4   5    0.87    1.27
   7  -4   5    5.75    2.19
   7  -4   5    2.52    1.43
   7   4   5    3.66    1.72
   7   4   6   24.74    3.55
   7   4   6   32.41    4.36
   7  -4   6   22.94    3.50
   7  -4   6   28.79    4.12
   7   4   7  261.58   12.17
   7  -4   7  255.30   12.43
   7  -4   7  260.25   12.18
   7   4   7  276.48   12.81
   7   4   8   43.56    4.98
   7  -4   8   33.14    4.72
   7   4   8   49.60    5.45
   7   4   9    4.36    1.60
   7  -4   9    1.94    1.53
   7   4   9    3.52    1.48
   7   4  10   23.10    3.66
   7  -4  10   26.33    4.08
   7   4  11  121.57    8.42
   7  -4  11   96.10    7.68
   7   4  11  122.91    9.02
   7   4  12   18.66    3.39
   7  -4  12   11.86    3.12
   7   4  12   14.75    3.48
   7   4  13   66.52    6.37
   7  -4  13   55.72    6.36
   7   4  13   58.83    6.62
   7   4  14   56.06    5.82
   7  -4  14   51.98    6.23
   7  -4  15   28.46    4.45
   7   4  15   21.98    3.67
   7   4  15   13.91    2.97
   7   4  16    4.17    1.76
   7   4  16    4.80    1.83
   7  -4  16    7.64    2.12
   7   4  17    0.74    2.01
   7   4  17    2.35    1.58
   7  -4  17    3.86    2.22
   7  -4  18   33.01    5.17
   7   4  18   26.71    4.45
   7   4  19   72.60    7.78
   7   4  20    0.50    1.30
   7   4  21    7.39    2.58
   7   4  22   12.93    3.28
   7   4  23   -1.84    1.82
   7   4  24    0.55    0.96
   7   4  25    0.76    1.35
   7   4  26    1.76    1.30
   7   4  27    6.60    3.08
   7  -5 -26    0.61    1.04
   7  -5 -25    6.62    2.39
   7  -5 -24   22.78    4.89
   7  -5 -23    2.27    2.28
   7  -5 -22   30.99    5.25
   7  -5 -21    6.56    2.66
   7  -5 -20    3.71    2.50
   7  -5 -20    2.36    1.39
   7  -5 -19   19.30    4.48
   7  -5 -19   18.65    4.63
   7  -5 -18   74.50    8.21
   7  -5 -18   71.55    7.95
   7   5 -17   23.09    4.33
   7  -5 -17   22.99    4.68
   7  -5 -17   25.73    4.51
   7   5 -16    2.44    1.48
   7  -5 -16    2.23    1.20
   7  -5 -16    4.84    2.65
   7   5 -15    7.46    2.16
   7  -5 -15    6.20    2.53
   7  -5 -15    2.90    2.14
   7   5 -14    1.82    1.84
   7  -5 -14    1.86    1.53
   7  -5 -14    6.93    2.40
   7   5 -13   -0.28    1.33
   7  -5 -13    1.99    2.03
   7  -5 -13    0.80    1.55
   7  -5 -12  113.47    9.22
   7  -5 -12  110.71    9.17
   7   5 -12   95.57    8.28
   7  -5 -11   31.59    5.03
   7  -5 -11   19.20    3.68
   7   5 -11   25.58    4.10
   7   5 -10    5.49    1.97
  -7   5 -10    6.76    1.96
   7  -5 -10    2.30    1.66
   7  -5 -10    5.32    2.14
   7   5  -9   10.00    2.63
   7  -5  -9    8.49    3.03
  -7   5  -9   10.57    2.34
   7  -5  -9   13.71    3.26
   7   5  -8  131.38    9.31
  -7   5  -8  110.81    7.91
   7  -5  -8  118.96    8.88
   7  -5  -8  115.47    8.97
   7   5  -7   29.62    3.61
   7  -5  -7   29.85    4.46
   7  -5  -7   29.55    4.50
   7  -5  -6    5.09    1.91
   7   5  -6    6.76    1.89
   7   5  -6    5.42    2.14
   7   5  -5   18.26    3.49
   7   5  -5   17.42    3.05
   7  -5  -5   12.89    2.82
   7  -5  -5   18.47    3.50
   7   5  -4   26.13    4.16
   7   5  -4   25.01    3.58
   7  -5  -4   24.35    4.05
   7  -5  -4   32.60    4.54
   7   5  -3   20.01    3.33
   7   5  -3   26.60    3.84
   7  -5  -3   28.74    4.43
   7  -5  -3   25.49    4.13
   7   5  -2  160.87    9.22
   7   5  -2  173.80   10.37
   7  -5  -2  137.04    9.12
   7  -5  -2  157.98   10.11
   7  -5  -1    8.09    2.57
   7   5  -1    7.55    2.26
   7   5  -1    7.07    1.89
   7  -5  -1    5.45    1.93
   7  -5   0   -0.44    1.18
   7  -5   0   -1.10    1.26
   7   5   0   -0.55    1.19
   7   5   0    2.68    1.51
   7  -5   1    9.15    2.73
   7   5   1    7.64    2.96
   7  -5   1    7.84    2.11
   7   5   1   11.10    2.60
   7   5   2  156.11    9.74
   7  -5   2  152.79    9.72
   7   5   2  157.70    9.55
   7  -5   2  153.78   10.05
   7   5   3   26.48    3.86
   7   5   3   29.98    4.31
   7  -5   3   26.39    3.95
   7  -5   3   24.64    3.83
   7   5   4   23.64    3.94
   7   5   4   23.26    3.91
   7  -5   4   23.57    3.76
   7  -5   4   30.91    4.49
   7  -5   5   17.86    3.38
   7   5   5   18.26    3.50
   7  -5   5   15.23    3.51
   7   5   5   18.77    3.48
   7   5   6   11.82    3.26
   7  -5   6    9.02    2.18
   7  -5   6   15.73    3.13
   7   5   6    8.81    2.21
   7  -5   7   31.57    4.63
   7   5   7   28.86    4.66
   7   5   7   33.50    4.84
   7  -5   7   30.75    4.39
   7  -5   8  113.82    8.74
   7   5   8  130.47    9.13
   7   5   8  117.05    8.77
   7  -5   8  135.19    9.28
   7   5   9   12.26    2.93
   7  -5   9    5.96    2.27
   7   5   9   11.46    2.80
   7  -5   9   10.84    2.02
   7   5  10    3.62    0.77
   7  -5  10    4.32    1.43
   7   5  10    6.94    2.39
   7  -5  10    5.20    2.52
   7  -5  11   35.19    5.02
   7   5  11   25.15    4.28
   7   5  11   27.44    4.27
   7  -5  12  109.78    8.78
   7   5  12  116.13    8.88
   7   5  12  117.80    9.34
   7   5  13   -1.59    1.74
   7  -5  13    3.61    2.33
   7   5  13    2.87    2.25
   7   5  14    4.64    2.00
   7  -5  14    3.49    2.10
   7   5  14    3.40    1.37
   7   5  15    8.31    2.78
   7  -5  15    7.52    2.51
   7   5  15    5.90    2.32
   7   5  16    6.51    2.36
   7  -5  16    1.03    1.44
   7   5  16    1.06    2.27
   7   5  17   26.29    4.70
   7  -5  17   15.93    3.78
   7   5  17   22.30    4.25
   7   5  18   97.25    9.07
   7   5  19   17.59    3.83
   7   5  20    1.35    0.86
   7   5  21    1.33    1.40
   7   5  22   32.63    5.93
   7   5  23    1.33    1.32
   7   5  24   26.59    5.08
   7   5  25    1.01    1.74
   7   5  26    0.85    1.23
   7  -6 -24    1.22    2.08
   7  -6 -23    0.94    1.40
   7  -6 -22    3.48    2.52
   7  -6 -21   10.51    2.74
   7  -6 -21    2.89    1.97
   7  -6 -20   -0.01    1.57
   7  -6 -20   -1.59    1.78
   7  -6 -19    0.10    1.37
   7  -6 -19    5.73    2.21
   7  -6 -18   -0.92    0.94
   7  -6 -18   -0.55    1.64
   7  -6 -17    4.82    2.70
   7  -6 -17    0.27    1.45
   7   6 -16    0.86    1.87
   7  -6 -16   -0.32    1.40
   7  -6 -16    1.68    1.55
   7   6 -15    1.59    1.64
   7  -6 -15    1.52    1.14
   7  -6 -15    1.07    1.97
   7   6 -14    1.32    1.53
   7  -6 -14    2.31    1.72
   7  -6 -14    4.58    2.52
   7   6 -13   12.55    3.33
   7  -6 -13   14.01    3.72
   7  -6 -13    8.15    3.19
   7   6 -12    4.58    1.47
   7  -6 -12    7.48    2.55
   7  -6 -12    7.11    2.96
   7  -6 -11   10.48    3.17
   7   6 -11   13.31    3.64
   7  -6 -11    8.33    2.72
   7   6 -10    6.86    2.72
  -7   6 -10    3.05    1.43
   7  -6 -10    3.42    2.09
   7  -6 -10    5.31    1.85
   7   6  -9    1.18    1.58
  -7   6  -9    1.95    1.88
   7  -6  -9    1.78    1.19
   7  -6  -9    2.37    1.37
   7   6  -8    0.68    0.82
  -7   6  -8    1.40    0.77
   7  -6  -8    1.24    1.35
   7  -6  -8    0.13    0.67
   7   6  -7    4.42    1.31
  -7   6  -7    4.85    1.75
   7  -6  -7    2.15    1.34
  -7   6  -6    2.54    2.00
   7   6  -6    3.55    2.15
   7   6  -6    0.90    1.19
   7  -6  -6    1.15    1.13
   7  -6  -6    1.23    0.77
   7  -6  -5   17.49    3.50
   7   6  -5   15.42    3.45
  -7   6  -5   22.92    3.94
   7   6  -5   25.38    3.88
   7  -6  -5   21.39    4.01
   7   6  -4    9.75    2.14
   7  -6  -4    5.96    2.08
  -7   6  -4    7.55    2.58
   7   6  -4    6.30    2.11
   7  -6  -4    7.22    2.33
   7  -6  -3   -1.75    1.75
   7   6  -3    0.63    1.49
   7  -6  -3   -1.37    1.38
   7   6  -3    0.25    1.23
   7  -6  -2    4.65    2.39
   7   6  -2    3.60    1.54
   7  -6  -2    3.51    1.58
   7   6  -2    4.09    1.45
   7  -6  -1    6.81    2.21
   7   6  -1    8.02    2.48
   7  -6  -1    7.32    2.03
   7   6  -1    7.93    2.40
   7  -6   0    2.44    1.86
   7   6   0    0.97    0.81
   7  -6   0    4.68    1.82
   7   6   0    1.23    1.11
   7   6   1    9.60    2.66
   7  -6   1   10.00    2.76
   7   6   1   12.81    3.16
   7  -6   1   11.86    3.11
   7   6   2    6.32    2.31
   7  -6   2    1.18    1.37
   7   6   2    3.07    1.56
   7  -6   2    5.97    2.45
   7   6   3    0.84    0.66
   7  -6   3    1.53    1.07
   7   6   3    1.20    1.62
   7  -6   3    0.99    1.93
   7   6   4   10.05    2.72
   7  -6   4    7.74    2.78
   7   6   4    8.86    2.19
   7  -6   4    8.66    2.75
   7   6   5   18.36    3.56
   7  -6   5   16.05    3.80
   7   6   5   12.83    3.11
   7  -6   5   14.74    3.24
   7   6   6    0.44    0.94
   7  -6   6    2.38    1.42
   7   6   6    1.54    1.14
   7  -6   6    3.68    2.26
   7   6   7    5.15    2.21
   7  -6   7    5.94    2.57
   7   6   7    4.67    1.78
   7  -6   7    8.33    3.26
   7   6   8   -0.06    0.96
   7  -6   8    1.18    0.84
   7  -6   8    1.93    1.30
   7   6   8   -0.42    1.88
   7   6   9    1.33    1.37
   7  -6   9    3.69    1.39
   7   6   9    0.81    1.51
   7  -6   9    3.07    1.37
   7   6  10    2.93    0.81
   7  -6  10    3.73    1.88
   7   6  10    3.86    2.10
   7  -6  10    6.76    3.10
   7  -6  11   15.07    3.46
   7   6  11   17.39    3.88
   7  -6  11   16.50    3.37
   7   6  11    9.68    3.29
   7  -6  12    7.11    3.05
   7   6  12    7.61    2.75
   7  -6  12    5.94    2.22
   7   6  12    6.71    2.55
   7  -6  13    3.74    2.15
   7   6  13    4.71    2.33
   7  -6  14    0.32    1.29
   7   6  14    1.20    1.45
   7   6  14    1.06    1.34
   7  -6  14    0.36    1.48
   7  -6  15    3.20    1.99
   7   6  15    3.17    2.40
   7   6  15    6.02    2.56
   7   6  16   -0.97    2.43
   7   6  16    0.89    1.51
   7   6  17   -2.43    2.21
   7   6  17   -1.53    0.85
   7   6  18    5.71    2.56
   7   6  18    0.44    1.03
   7   6  19    3.85    2.07
  -7   6  20   -1.88    2.34
   7   6  20   -0.47    1.20
   7   6  21    7.69    3.45
  -7   6  21    5.35    2.77
   7   6  22    1.98    2.40
  -7   6  22   -1.97    1.68
  -7   6  23    1.13    2.56
   7   6  23    2.11    2.56
  -7   6  24    0.20    1.38
   7   6  24    0.79    1.20
   7  -7 -22    2.63    2.43
   7  -7 -22   10.77    4.06
   7  -7 -21    9.80    3.09
   7  -7 -21    5.25    3.14
   7  -7 -20   12.66    3.36
   7  -7 -20    4.86    2.15
   7  -7 -19   -0.34    1.50
   7  -7 -19    3.06    2.40
   7  -7 -18   35.70    6.14
   7  -7 -18   35.87    6.05
   7  -7 -17    8.23    2.62
   7  -7 -17    3.91    2.12
   7   7 -16   -3.25    0.67
   7  -7 -16    0.58    1.61
   7  -7 -16   -0.58    1.17
   7   7 -15    0.94    1.13
   7  -7 -15    1.59    1.91
   7  -7 -15   -0.47    1.58
   7   7 -14   12.55    3.47
   7  -7 -14   11.81    3.28
   7  -7 -14   19.05    4.27
   7   7 -13    3.89    2.45
   7  -7 -13    5.84    2.32
   7  -7 -13    4.63    2.21
   7   7 -12   59.28    7.36
   7  -7 -12   88.36    8.72
   7  -7 -12   78.82    8.41
   7   7 -11    9.32    2.88
   7  -7 -11    4.75    2.48
   7  -7 -11    4.83    2.11
   7   7 -10    1.94    1.36
   7  -7 -10    0.27    1.86
   7  -7 -10    0.72    1.54
   7   7  -9    2.22    2.03
   7  -7  -9    1.69    1.30
  -7   7  -9    0.52    1.54
   7  -7  -9    4.82    2.22
   7   7  -8  120.24    9.57
  -7   7  -8   93.33    8.32
   7  -7  -8  111.54    9.55
   7  -7  -8  123.10    9.76
   7   7  -7    8.05    2.83
   7  -7  -7    8.27    3.34
  -7   7  -7    3.68    2.52
   7  -7  -7    5.73    2.40
   7   7  -6   13.20    3.02
   7  -7  -6   23.33    4.74
  -7   7  -6   17.98    3.94
   7  -7  -6   16.66    3.93
   7   7  -5   13.91    3.31
   7  -7  -5   15.74    4.11
  -7   7  -5    6.20    2.66
   7   7  -5    6.46    1.86
   7  -7  -5   12.46    3.17
   7   7  -4   37.12    5.23
  -7   7  -4   37.31    5.51
   7  -7  -4   46.99    5.81
   7   7  -4   26.85    4.38
   7  -7  -4   35.28    5.50
  -7   7  -3   -0.42    0.82
   7   7  -3   -0.29    1.03
   7  -7  -3    1.88    1.35
   7   7  -3    0.58    0.63
   7  -7  -3    2.40    1.88
   7   7  -2   68.26    7.27
  -7   7  -2   57.38    6.79
   7  -7  -2   55.40    6.44
   7  -7  -2   54.39    6.63
   7   7  -2   51.30    5.97
   7  -7  -1   12.84    3.29
   7   7  -1    9.88    2.93
   7   7  -1    9.19    2.75
  -7   7  -1    9.33    3.17
   7  -7  -1    6.99    2.55
   7  -7   0    0.58    1.84
   7   7   0   -0.55    0.89
   7   7   0   -0.54    1.49
  -7   7   0    0.45    1.54
   7  -7   0    2.66    2.20
   7  -7   1    4.03    1.34
   7   7   1    8.69    2.64
   7   7   1   13.70    3.22
   7  -7   1    5.48    2.28
  -7   7   1   10.29    2.80
   7   7   2   52.20    6.28
   7  -7   2   58.83    6.49
  -7   7   2   54.98    6.64
   7  -7   2   50.39    6.27
   7   7   2   65.25    6.89
   7  -7   3   -0.27    1.44
   7   7   3   -0.05    1.15
   7   7   3    0.35    1.22
  -7   7   3    0.01    1.31
   7  -7   3    0.81    1.96
   7   7   4   37.88    5.61
   7  -7   4   34.19    5.01
   7  -7   4   34.81    5.14
   7   7   4   37.10    5.16
  -7   7   4   38.82    5.65
   7  -7   5    9.30    2.68
   7   7   5   15.39    3.10
   7   7   5   13.19    3.50
  -7   7   5    8.27    2.47
   7  -7   5    9.44    2.82
   7  -7   6   13.21    3.68
   7   7   6   18.83    3.82
   7   7   6   21.43    4.25
   7  -7   6   21.47    4.04
   7  -7   7    3.39    1.74
   7   7   7    5.72    2.63
   7   7   7    4.56    2.36
   7  -7   7    5.43    2.60
   7   7   8  108.19    9.23
   7  -7   8  103.38    8.92
   7   7   8  100.30    8.91
   7  -7   8  113.41    9.38
   7  -7   9    1.23    1.68
   7   7   9    0.91    0.71
   7   7   9    2.39    1.91
   7  -7   9    1.66    1.82
   7   7  10    1.39    2.01
   7  -7  10    0.01    1.48
   7   7  10    0.15    1.46
   7  -7  10    0.47    1.60
   7   7  11    5.24    2.11
   7  -7  11    4.21    2.62
   7   7  11    6.29    2.59
  -7   7  11    2.15    2.11
   7   7  12   74.87    7.87
  -7   7  12   67.21    7.82
   7   7  12   65.96    7.49
   7  -7  12   82.16    8.07
   7   7  13    1.30    1.15
   7  -7  13    3.89    2.36
   7   7  13    5.00    1.73
  -7   7  13    6.03    2.75
   7  -7  14   16.24    4.09
   7   7  14   26.56    4.87
  -7   7  14   25.13    5.17
   7   7  14   11.81    3.68
  -7   7  15    3.95    2.40
   7   7  15    2.54    1.66
   7   7  15    3.25    1.30
   7   7  16    0.19    1.86
  -7   7  16    5.30    2.20
   7   7  16    2.21    1.68
   7   7  17    7.80    3.17
  -7   7  17    1.83    1.71
   7   7  17    5.44    3.01
   7   7  18   44.56    6.74
  -7   7  18   45.35    6.72
   7   7  18   39.93    6.55
  -7   7  19   -1.32    1.54
   7   7  19   -1.29    1.49
   7   7  20   12.63    3.69
  -7   7  20   14.82    3.41
  -7   7  21    0.46    1.85
   7   7  21    3.78    2.67
   7   7  22    6.72    3.23
  -7   7  22   10.80    3.66
   7  -8 -20    1.10    2.06
   7  -8 -20    0.23    1.71
   7  -8 -19   -0.67    1.48
   7  -8 -19   -3.16    2.43
   7  -8 -18    1.60    1.26
   7  -8 -18   -0.08    1.10
   7  -8 -17    1.54    1.48
   7  -8 -17    7.13    2.45
   7  -8 -16   -0.74    1.74
   7  -8 -16    0.09    1.09
   7   8 -15    7.65    3.57
   7  -8 -15    1.35    2.39
   7  -8 -15    1.92    1.63
   7   8 -14    6.13    3.19
   7  -8 -14    3.92    2.42
   7  -8 -14    2.50    1.32
   7   8 -13   -1.47    2.02
   7  -8 -13   -1.22    2.22
   7  -8 -13    1.31    1.70
   7   8 -12   -1.06    2.21
   7  -8 -12    0.34    1.23
   7  -8 -12   -0.23    1.72
   7   8 -11    5.11    2.36
   7  -8 -11    2.26    1.82
   7  -8 -11    1.71    1.53
   7  -8 -10    1.54    2.28
   7   8 -10    2.16    2.23
   7  -8 -10    0.73    1.10
   7  -8  -9    0.91    1.01
   7   8  -9    1.67    1.79
   7  -8  -9    5.33    2.41
   7   8  -8    2.30    1.68
  -7   8  -8    2.49    1.55
   7  -8  -8    4.62    2.18
   7  -8  -8    3.57    2.20
   7   8  -7   -0.07    0.99
  -7   8  -7    4.78    2.73
   7  -8  -7   -1.59    1.03
   7  -8  -7    2.53    1.91
   7   8  -6    2.23    0.89
  -7   8  -6    4.94    1.87
   7  -8  -6    1.03    2.02
   7  -8  -6    5.67    2.33
   7   8  -5    1.43    1.21
  -7   8  -5    2.20    1.85
   7  -8  -5    1.63    1.44
   7  -8  -5    0.45    0.83
   7   8  -4    9.57    3.60
   7   8  -4    6.16    2.58
   7  -8  -4   -2.36    2.22
   7  -8  -4    6.44    2.51
  -7   8  -4    4.57    2.18
   7   8  -3    0.44    1.89
   7   8  -3   -0.35    0.83
  -7   8  -3   -0.81    1.16
   7  -8  -3    0.16    1.65
   7  -8  -3    1.73    2.05
   7   8  -2    3.59    2.00
   7   8  -2    1.98    1.20
   7  -8  -2    0.32    1.20
  -7   8  -2    5.21    2.16
   7  -8  -2    1.11    1.29
   7   8  -1    0.66    1.78
   7   8  -1    2.04    2.13
  -7   8  -1    0.14    1.75
   7  -8  -1    0.89    1.02
   7  -8  -1   -0.02    1.26
   7   8   0    2.06    1.52
   7   8   0    2.14    2.30
  -7   8   0   -0.57    1.60
   7  -8   0    0.60    1.21
   7  -8   0   -1.41    0.97
   7   8   1   -0.01    0.89
   7   8   1    0.82    2.18
  -7   8   1    0.49    1.23
   7  -8   1    2.93    1.57
   7  -8   1    2.61    2.47
   7   8   2    2.93    1.68
   7   8   2    7.76    2.84
  -7   8   2    9.11    2.71
   7  -8   2    2.38    1.38
   7  -8   2    0.81    1.16
   7   8   3   -1.18    2.45
   7   8   3    0.40    1.88
   7  -8   3    0.23    2.11
  -7   8   3    1.47    1.89
   7  -8   3   -0.57    1.23
   7  -8   4   -0.56    2.08
  -7   8   4    5.74    2.92
   7   8   4    6.54    2.72
   7   8   4    2.76    1.84
   7  -8   4    2.97    1.64
   7  -8   5    5.96    2.49
   7   8   5    5.71    3.41
   7   8   5    2.77    2.79
  -7   8   5    0.92    2.33
   7  -8   6   -0.39    1.92
  -7   8   6    1.76    1.10
   7   8   6    0.71    1.27
   7   8   6    3.96    1.63
   7  -8   7   -0.30    1.46
   7   8   7   -0.04    0.76
   7   8   7    0.68    1.44
  -7   8   7    1.21    1.16
   7  -8   8    2.50    1.27
   7   8   8    6.05    2.23
   7   8   8    4.78    2.13
  -7   8   8    2.25    1.61
   7  -8   9    0.46    1.38
   7   8   9    2.49    1.93
   7   8   9    5.51    2.63
  -7   8   9    2.99    1.38
   7  -8  10    1.81    1.32
   7   8  10    0.99    1.09
   7   8  10   -0.97    1.83
  -7   8  10    0.59    1.20
   7  -8  11    3.34    2.07
   7   8  11    5.80    2.65
   7   8  11    1.22    1.35
  -7   8  11    0.01    1.85
   7  -8  12   -1.20    1.07
   7   8  12   -0.12    1.76
   7   8  12   -0.75    1.85
  -7   8  12   -2.33    2.76
   7   8  13    0.12    0.89
   7   8  13    3.90    2.73
  -7   8  13    2.85    1.34
   7   8  14    4.27    2.41
   7   8  14    0.92    1.82
  -7   8  14    3.26    2.31
   7   8  15    0.76    1.25
  -7   8  15    2.23    1.35
   7   8  15    2.84    2.42
   7   8  16    2.75    2.09
  -7   8  16    3.57    2.47
   7   8  16    1.00    1.30
   7   8  17    5.43    2.34
   7   8  17    7.78    3.10
  -7   8  17    2.98    1.98
   7   8  18   -0.08    2.24
  -7   8  18    0.14    1.57
   7   8  18    0.53    1.36
  -7   8  19   -1.46    1.98
   7   8  19   -0.70    2.37
  -7   8  20   -0.86    2.80
   7   8  20   -1.19    1.77
   7  -9 -17    2.43    1.40
   7  -9 -17    2.36    3.13
   7  -9 -16    1.43    1.32
   7  -9 -16   -2.32    2.68
   7  -9 -15    3.62    2.91
   7  -9 -15    2.92    1.98
   7   9 -14   12.55    3.59
   7  -9 -14   14.61    4.31
   7  -9 -13    3.12    1.89
   7  -9 -13    2.07    0.92
   7   9 -12   22.46    5.52
   7  -9 -12   36.90    6.25
   7  -9 -12   32.91    5.52
   7  -9 -11    1.67    1.90
   7   9 -11    2.85    2.46
   7  -9 -11    6.25    2.91
   7   9 -10    2.53    1.91
   7  -9 -10    1.91    1.80
   7  -9 -10    1.05    1.53
   7   9  -9    2.20    2.06
   7  -9  -9    1.44    2.31
   7  -9  -9    3.32    2.43
   7   9  -8   80.11    8.78
   7  -9  -8   50.68    7.14
   7  -9  -8   74.20    8.37
   7   9  -7    1.57    1.52
  -7   9  -7    1.51    1.06
   7  -9  -7   -1.77    1.32
   7  -9  -7    0.29    1.92
   7   9  -6   19.10    4.37
  -7   9  -6   13.45    3.69
   7  -9  -6   15.19    4.27
   7  -9  -6   21.39    4.99
   7  -9  -5    0.12    1.45
   7   9  -5    7.53    2.92
  -7   9  -5    0.71    1.99
   7  -9  -5    9.03    2.93
   7   9  -4   21.63    4.64
  -7   9  -4   20.83    4.51
   7  -9  -4   19.71    4.68
   7  -9  -4   23.43    5.20
   7   9  -3    0.63    1.34
  -7   9  -3    2.52    3.13
   7  -9  -3    2.10    1.43
   7  -9  -3    2.00    1.97
   7   9  -2   40.67    5.60
  -7   9  -2   30.42    5.32
   7  -9  -2   39.99    6.28
   7   9  -2   42.26    6.29
   7  -9  -2   34.78    5.35
   7   9  -1    1.30    1.76
   7   9  -1   -0.11    0.81
  -7   9  -1    1.28    1.03
   7   9   0    1.35    2.01
   7   9   0    2.05    1.97
  -7   9   0   -1.15    2.02
   7  -9   0    2.07    1.79
   7   9   1    3.39    2.30
   7   9   1    0.75    2.04
  -7   9   1    3.55    2.03
   7  -9   1    6.69    2.10
   7   9   2   47.07    6.43
  -7   9   2   37.82    6.05
   7  -9   2   41.59    6.46
   7   9   2   37.57    5.97
   7   9   3    0.86    1.21
   7   9   3    2.46    1.85
  -7   9   3   -0.23    1.04
   7  -9   3    2.91    1.96
   7   9   4   24.55    4.68
  -7   9   4   16.24    3.40
   7   9   4   28.98    5.38
   7  -9   4   14.22    3.49
   7   9   5    5.34    3.16
   7   9   5    2.76    1.61
  -7   9   5    7.38    2.85
   7  -9   5    4.00    1.32
  -7   9   6   29.07    5.20
   7   9   6   23.40    5.03
   7   9   6   12.97    4.05
   7  -9   6   16.94    4.43
   7   9   7   -1.69    2.00
   7   9   7    3.53    2.08
  -7   9   7   -0.70    1.38
   7  -9   7   -0.61    1.03
   7   9   8   61.35    7.68
  -7   9   8   81.85    8.75
   7   9   8   73.53    8.29
   7  -9   8   61.15    7.98
   7   9   9    0.63    1.89
   7   9   9    8.06    2.81
  -7   9   9    3.58    3.00
   7  -9   9    4.97    3.11
   7   9  10    0.19    1.74
   7   9  10   -0.20    1.34
  -7   9  10    5.04    3.08
   7  -9  10    1.81    2.16
   7   9  11    2.27    2.35
   7   9  11    2.58    2.05
  -7   9  11    2.49    2.64
   7  -9  11    2.00    1.48
   7   9  12   39.68    6.60
  -7   9  12   45.94    6.93
   7   9  12   40.05    6.23
   7   9  13    2.05    1.68
   7   9  13    2.37    1.29
  -7   9  13   -1.86    1.65
   7   9  14   20.20    4.86
  -7   9  14   25.97    5.30
   7   9  14   32.30    5.30
   7   9  15    1.41    1.43
   7   9  15    4.57    2.46
  -7   9  15    0.34    1.36
   7   9  16    0.82    1.33
  -7   9  16    0.76    1.35
   7   9  16   -0.28    1.48
   7   9  17    4.28    2.94
  -7   9  17    1.71    2.23
   7   9  17    3.05    2.02
   7  10 -12    1.30    2.26
   7 -10 -12    2.58    1.72
   7 -10 -12    0.48    1.96
   7  10 -11   11.59    3.59
   7 -10 -11    4.03    2.48
   7 -10 -11   12.43    4.20
   7  10 -10    0.71    1.68
   7 -10 -10    1.72    2.67
   7 -10 -10    0.78    1.44
   7  10  -9    1.85    2.74
   7 -10  -9    5.21    2.72
   7  10  -8    0.82    1.24
   7 -10  -8    2.39    2.05
   7  10  -7   10.28    3.90
   7 -10  -7   17.20    4.37
   7  10  -6    0.35    2.10
  -7  10  -6    1.48    2.35
   7 -10  -6    1.27    1.35
   7  10  -5    7.35    2.88
  -7  10  -5   12.87    3.69
   7 -10  -5    8.75    3.92
   7  10  -4   -2.38    2.50
  -7  10  -4    0.66    1.24
   7 -10  -4   -0.67    1.09
   7  10  -3    2.47    2.60
  -7  10  -3    1.07    2.60
   7 -10  -3    1.82    1.61
   7 -10  -2   -0.40    1.62
   7  10  -2    1.32    2.51
  -7  10  -2    0.19    2.10
   7  10  -1    0.03    1.81
  -7  10  -1    5.99    2.97
   7 -10  -1   -0.83    2.37
   7  10   0    3.57    2.18
   7  10   0   -0.10    2.05
  -7  10   0    0.77    1.55
   7 -10   0   -2.14    2.49
   7  10   1    0.95    1.61
   7  10   1    2.82    1.89
  -7  10   1    2.73    1.62
   7 -10   1    2.79    2.67
   7  10   2   -0.14    1.23
   7  10   2    0.97    1.58
  -7  10   2    1.11    2.38
   7 -10   2    0.29    1.33
   7  10   3   -0.10    1.23
   7  10   3   -0.21    1.38
  -7  10   3   -0.64    1.76
   7 -10   3   -1.50    1.98
   7  10   4    0.81    2.53
   7  10   4   -2.06    1.95
  -7  10   4    0.31    1.38
   7 -10   4    2.15    1.71
   7  10   5   11.33    3.42
   7  10   5   18.09    4.65
  -7  10   5    8.17    2.96
   7 -10   5    7.98    3.85
   7  10   6    3.57    1.62
   7  10   6   -0.79    1.98
  -7  10   6   -2.70    1.85
   7 -10   6   -1.80    1.28
   7  10   7    9.16    3.00
   7  10   7   13.04    3.77
  -7  10   7   10.76    3.19
   7 -10   7   13.25    3.92
   7  10   8    4.16    2.49
   7  10   8    3.86    2.87
  -7  10   8    1.47    1.70
   7 -10   8    1.67    1.29
   7  10   9    1.22    1.37
   7  10   9    1.64    2.49
  -7  10   9    0.41    0.93
   7 -10   9    1.66    2.22
   7  10  10    1.35    0.98
   7  10  10    3.16    1.95
  -7  10  10    2.05    1.15
   7  10  11    7.64    3.41
  -7  10  11    1.65    1.00
   7  10  12   -0.61    1.76
   7  10  12    2.63    1.88
  -7  10  12   -0.14    2.21
   7  11  -2    7.53    2.99
  -7  11  -2   13.68    4.19
   7 -11  -2    8.42    2.78
   7  11  -1   -0.52    1.53
  -7  11  -1    2.43    1.69
   7 -11  -1    1.16    1.44
   7  11   0    0.13    2.32
  -7  11   0   -0.08    1.92
   7 -11   0   -0.87    2.68
   7  11   1    0.47    2.48
   7  11   1    2.84    2.35
  -7  11   1    3.97    2.89
   7 -11   1    2.73    2.64
   7  11   2    6.15    2.94
   7  11   2   10.49    3.40
  -7  11   2    8.39    3.41
   7 -11   2   12.21    4.12
   8   0 -28   23.49    5.77
   8   0 -27   14.27    3.89
   8   0 -26   28.39    5.31
   8   0 -25    6.24    2.64
   8   0 -24   12.51    3.10
   8   0 -23    1.89    1.81
   8   0 -22   11.86    3.56
   8   0 -21   30.47    4.80
   8   0 -20    4.30    2.52
   8   0 -19   32.90    5.23
   8   0 -18   56.76    6.53
   8   0 -17  102.61    8.42
   8   0 -16   20.05    3.62
   8   0 -15  137.95    9.51
   8   0 -14   43.31    5.36
   8   0 -13   41.00    5.11
   8   0 -13   56.60    5.00
   8   0 -12  304.53   13.38
   8   0 -12  307.73   11.38
   8   0 -11  252.46   12.04
   8   0 -11  240.33   10.23
   8   0 -10   67.90    5.39
   8   0 -10   73.86    6.43
   8   0  -9  679.43   17.21
   8   0  -9  675.33   18.83
   8   0  -8  399.85   13.17
   8   0  -8  407.75   14.62
   8   0  -8  395.30   14.06
   8   0  -7    6.03    1.77
   8   0  -7    7.36    1.95
   8   0  -7    9.46    2.34
   8   0  -6  272.54   10.67
   8   0  -6  235.86   10.82
   8   0  -6  260.59   11.15
   8   0  -5   23.08    3.12
   8   0  -5   19.60    3.14
   8   0  -5   22.23    3.30
   8   0  -4  506.43   15.25
   8   0  -4  528.46   15.77
   8   0  -3  851.32   19.05
   8   0  -3  857.48   19.83
   8   0  -3  850.42   19.74
   8   0  -2  456.98   14.09
   8   0  -2  457.06   14.38
   8   0  -2  467.64   14.43
   8   0  -1   61.35    5.27
   8   0  -1   67.56    5.67
   8   0  -1   66.25    5.40
   8   0   0  736.15   18.07
   8   0   0  720.27   18.30
   8   0   0  727.03   17.54
   8   0   1   62.73    5.30
   8   0   1   62.77    5.14
   8   0   2  465.92   14.64
   8   0   2  453.65   13.85
   8   0   3  849.90   19.92
   8   0   3  847.50   18.37
   8   0   4  541.94   16.13
   8   0   4  529.78   14.49
   8   0   5   19.55    3.22
   8   0   5   18.25    2.64
   8   0   6  239.47   11.18
   8   0   6  250.33    9.74
   8   0   7    7.91    2.21
   8   0   7    7.92    1.71
   8   0   8  434.23   12.56
   8   0   8  414.84   14.94
   8   0   9  689.80   19.29
   8   0   9  664.80   15.51
   8   0  10   69.09    6.19
   8   0  10   71.85    5.06
   8   0  11  279.92   12.61
   8   0  11  248.41    9.31
   8   0  12  308.71   13.70
   8   0  12  279.39    9.77
   8   0  13   76.00    6.92
   8   0  13   67.83    4.60
   8   0  14   42.38    5.34
   8   0  15  138.81    9.68
   8   0  16   19.05    3.73
   8   0  17  114.48    9.04
   8   0  18   79.99    7.68
   8   0  19   38.47    5.60
   8   0  20    2.54    1.47
   8   0  21   31.18    4.91
   8   0  22   15.48    3.70
   8   0  23   -0.28    1.32
   8  -1 -28    3.38    2.73
   8  -1 -27    3.32    2.18
   8  -1 -26    6.68    3.38
   8  -1 -25    0.94    1.94
   8   1 -24   -2.37    1.51
   8  -1 -24    5.11    2.24
   8   1 -23    0.26    1.91
   8  -1 -23    1.51    1.44
   8   1 -22    1.92    1.83
   8  -1 -22    1.57    1.13
   8  -1 -21   -0.05    1.41
   8   1 -21    0.34    1.59
   8   1 -20    3.73    2.62
   8  -1 -20    2.89    1.55
   8   1 -19    7.34    2.78
   8  -1 -19    7.94    2.65
   8   1 -18   13.88    3.43
   8  -1 -18    9.57    2.52
   8   1 -17   25.61    4.05
   8  -1 -17   28.23    4.43
   8   1 -16   14.51    3.23
   8  -1 -16   17.23    3.62
   8   1 -15    9.23    2.92
   8  -1 -15    7.21    2.59
   8  -1 -15    8.46    2.56
   8  -1 -14    1.60    0.93
   8   1 -14    2.78    1.23
   8  -1 -14    3.67    2.15
   8  -1 -13    2.01    1.09
   8  -1 -13    1.47    1.12
   8   1 -13    2.54    0.91
   8   1 -13    1.96    0.77
   8  -1 -12    1.42    0.91
   8   1 -12    3.01    1.38
   8   1 -12    2.81    1.29
   8  -1 -12    3.00    1.39
   8   1 -12    6.03    2.11
   8   1 -11   23.20    2.85
   8   1 -11   20.97    3.19
   8   1 -11   27.70    4.04
   8  -1 -11   21.62    3.26
   8  -1 -11   23.12    3.79
   8   1 -10   20.86    2.71
   8   1 -10   14.34    2.98
   8  -1 -10   15.06    2.99
   8   1 -10   15.25    2.78
   8  -1 -10   14.01    2.74
   8  -1  -9   10.60    2.57
   8   1  -9   10.07    1.80
   8   1  -9   10.84    2.58
   8  -1  -9   10.89    2.48
   8   1  -9   10.00    2.34
   8  -1  -8   19.20    3.01
   8   1  -8   19.06    2.71
   8   1  -8   17.81    2.79
   8   1  -8   13.08    2.82
   8  -1  -8   18.83    3.31
   8  -1  -7   43.21    4.53
   8   1  -7   41.21    3.95
   8  -1  -7   39.69    4.75
   8   1  -7   35.79    4.16
   8   1  -7   36.76    4.29
   8   1  -6   14.56    2.46
   8  -1  -6    9.15    2.21
   8  -1  -6   11.16    2.59
   8   1  -6   10.27    2.34
   8   1  -6    7.61    2.10
   8  -1  -5    6.12    1.88
   8  -1  -5    7.89    1.97
   8   1  -5    6.58    1.76
   8   1  -5    6.22    1.57
   8   1  -5    9.70    2.22
   8  -1  -4   12.34    2.33
   8   1  -4   14.68    2.52
   8   1  -4    7.03    2.21
   8  -1  -4   11.55    2.25
   8   1  -4    7.80    1.71
   8  -1  -3   26.15    3.44
   8   1  -3   29.18    3.40
   8  -1  -3   38.24    4.30
   8   1  -3   31.82    3.71
   8   1  -3   25.31    3.38
   8  -1  -2   48.54    4.84
   8  -1  -2   37.24    4.13
   8   1  -2   47.28    4.48
   8   1  -2   43.30    4.43
   8   1  -2   38.44    4.36
   8  -1  -1   67.39    5.57
   8   1  -1   68.99    5.43
   8  -1  -1   70.01    5.70
   8   1  -1   68.87    5.47
   8   1  -1   71.15    5.68
   8   1   0    3.48    1.72
   8   1   0    3.23    1.60
   8  -1   0    3.01    1.08
   8  -1   0    0.73    0.63
   8  -1   1   76.79    6.10
   8   1   1   61.07    5.33
   8  -1   1   60.82    5.33
   8   1   1   62.28    5.20
   8  -1   2   48.99    4.85
   8   1   2   46.41    4.56
   8   1   2   47.15    4.46
   8   1   3   30.67    3.58
   8  -1   3   28.25    3.71
   8   1   3   29.86    3.75
   8   1   4    8.94    2.00
   8   1   4    5.07    1.34
   8  -1   4    8.21    2.07
   8   1   5    9.55    2.23
   8   1   5   10.70    2.28
   8  -1   5    5.83    1.99
   8   1   6    8.74    1.87
   8   1   6   12.60    2.54
   8  -1   6    9.37    2.21
   8  -1   7   38.44    4.43
   8   1   7   38.58    3.99
   8   1   7   34.29    4.34
   8  -1   8   17.29    3.04
   8   1   8   17.26    2.71
   8   1   8   17.14    3.04
   8  -1   9   10.49    2.51
   8   1   9   10.52    2.16
   8   1   9   11.66    2.68
   8   1  10   17.27    2.93
   8  -1  10   15.07    3.03
   8   1  10   16.04    2.53
   8  -1  11   24.91    3.84
   8   1  11   25.25    3.12
   8   1  11   28.63    4.23
   8   1  12    2.80    0.95
   8  -1  12    2.08    0.81
   8   1  12    1.25    0.89
   8   1  13    3.67    1.41
   8  -1  13    2.49    1.15
   8   1  13    3.50    1.53
   8   1  14    4.01    1.61
   8  -1  14    4.46    1.65
   8   1  14    1.86    0.84
   8  -1  15    9.85    2.66
   8   1  15   12.14    3.00
   8   1  16   14.72    3.19
   8  -1  16   13.85    2.87
   8  -1  17   21.39    3.85
   8   1  17   17.98    3.71
   8  -1  18   16.60    3.48
   8   1  18   17.39    3.27
   8  -1  19    9.15    2.79
   8   1  19    9.71    2.94
   8  -1  20    5.80    2.32
   8   1  20    1.41    2.01
   8  -1  21    2.08    1.92
   8   1  21    0.71    1.01
   8  -1  22    2.92    1.69
   8   1  22    4.28    1.78
   8   1  23    2.49    1.68
   8   1  24    4.52    1.79
   8   1  25    1.68    1.42
   8  -2 -28    9.21    3.31
   8  -2 -27    8.29    3.03
   8  -2 -26    0.70    2.08
   8  -2 -25   10.18    3.29
   8  -2 -24   23.31    4.73
   8  -2 -23    4.57    1.82
   8  -2 -22   16.97    4.04
   8  -2 -21   41.27    5.84
   8  -2 -20    2.57    1.84
   8  -2 -19   12.79    3.23
   8   2 -18   32.56    5.08
   8  -2 -18   37.33    5.42
   8   2 -17   30.54    4.46
   8  -2 -17   34.36    5.09
   8   2 -17   24.71    4.19
   8   2 -16   47.52    5.22
   8  -2 -16   50.21    6.31
   8  -2 -16   36.21    4.73
   8   2 -16   56.76    6.07
   8   2 -15  100.38    7.63
   8  -2 -15  105.73    8.73
   8   2 -15   94.47    7.88
   8  -2 -15   84.14    7.26
   8   2 -14   28.25    4.24
   8  -2 -14   31.68    4.84
   8  -2 -14   31.45    4.27
   8   2 -14   30.86    4.36
   8  -2 -13    7.46    2.40
   8   2 -13    8.07    2.16
   8  -2 -13   10.87    3.28
   8   2 -13   12.60    2.85
   8   2 -12   94.39    7.00
   8  -2 -12  108.75    8.46
   8  -2 -12   98.99    7.33
   8   2 -12  100.20    7.71
   8   2 -11  144.37    8.47
   8  -2 -11  163.89   10.24
   8  -2 -11  146.28    9.17
   8   2 -11  129.47    8.48
   8  -2 -10   12.45    2.75
   8  -2 -10   21.03    3.80
   8   2 -10   17.59    2.53
   8   2 -10   15.49    2.62
   8   2 -10   13.61    2.72
   8   2  -9   72.53    5.07
   8  -2  -9   88.14    7.24
   8   2  -9   69.02    5.68
   8   2  -9   81.53    6.72
   8  -2  -9   75.47    6.45
   8   2  -8   99.54    5.99
   8  -2  -8   82.03    6.94
   8   2  -8   92.72    6.55
   8   2  -8  101.14    7.40
   8  -2  -8   89.14    6.92
   8  -2  -7   71.97    6.10
   8   2  -7   72.99    5.30
   8  -2  -7   75.15    6.83
   8   2  -7   69.56    5.46
   8   2  -7   72.04    6.25
   8   2  -6    9.51    2.22
   8   2  -6    8.62    1.78
   8  -2  -6    9.58    2.20
   8  -2  -6   11.96    2.44
   8   2  -6    9.85    2.04
   8  -2  -5  132.99    8.53
   8   2  -5  147.69    7.63
   8   2  -5  135.84    7.60
   8   2  -5  124.87    8.07
   8  -2  -4  167.50    9.28
   8  -2  -4  170.42    9.69
   8   2  -4  165.82    8.24
   8   2  -4  173.74    8.53
   8   2  -4  175.34    9.47
   8  -2  -3  172.82    9.41
   8  -2  -3  136.47    8.48
   8   2  -3  162.33    8.17
   8   2  -3  150.05    8.01
   8   2  -3  141.98    8.36
   8  -2  -2  250.51   11.36
   8  -2  -2  250.23   11.55
   8   2  -2  252.60   10.28
   8   2  -2  258.82   10.54
   8   2  -2  246.18   10.90
   8  -2  -1  285.70   12.10
   8  -2  -1  268.56   11.93
   8   2  -1  270.41   11.57
   8  -2   0  138.00    8.44
   8  -2   0  128.71    8.29
   8   2   0  124.21    7.43
   8   2   0  125.44    7.87
   8  -2   1  251.33   11.31
   8  -2   1  262.11   11.62
   8   2   1  265.06   11.17
   8   2   1  265.14   11.08
   8   2   2  259.79   11.12
   8  -2   2  251.02   11.53
   8  -2   2  271.53   12.05
   8   2   2  244.45   10.70
   8   2   3  142.47    8.27
   8  -2   3  150.30    8.93
   8  -2   3  161.17    9.08
   8   2   3  153.01    8.39
   8   2   4  156.30    8.90
   8  -2   4  166.19    9.22
   8   2   4  164.98    8.72
   8   2   5  140.49    8.48
   8  -2   5  140.83    8.58
   8   2   5  140.05    8.03
   8   2   6   10.74    2.33
   8   2   6   14.61    3.02
   8  -2   6    5.34    1.40
   8   2   7   72.33    6.17
   8  -2   7   61.11    5.81
   8   2   7   65.87    5.42
   8   2   8   92.60    7.09
   8  -2   8   89.88    7.19
   8   2   8   94.57    6.50
   8   2   9   78.29    6.74
   8  -2   9   81.98    6.96
   8   2   9   82.69    6.21
   8   2  10   21.53    3.95
   8  -2  10   16.44    3.24
   8   2  10   21.78    3.28
   8   2  11  133.90    9.15
   8  -2  11  129.71    8.92
   8   2  11  142.44    8.20
   8   2  12   95.71    7.77
   8  -2  12   98.77    8.02
   8   2  12  105.38    7.02
   8   2  13   14.79    3.03
   8  -2  13   14.03    3.06
   8   2  13   13.84    2.73
   8   2  14   31.69    4.65
   8  -2  14   34.16    4.96
   8   2  14   26.35    3.54
   8   2  15  101.50    8.31
   8  -2  15  104.43    8.50
   8   2  15   83.84    6.21
   8   2  16   40.16    5.55
   8  -2  16   48.71    5.69
   8   2  17   27.66    4.84
   8  -2  17   36.56    5.30
   8   2  18   38.70    5.47
   8  -2  18   36.61    5.42
   8   2  19   11.56    3.07
   8  -2  19   13.34    3.02
   8   2  20    1.66    1.24
   8  -2  20    4.91    2.53
   8   2  21   40.24    5.79
   8  -2  21   41.80    6.36
   8   2  22   21.95    4.21
   8   2  23    2.07    2.21
   8   2  24   16.49    4.44
   8   2  25   15.02    4.36
   8   2  26    5.11    1.96
   8  -3 -27    5.43    2.83
   8  -3 -26   -1.44    1.83
   8  -3 -25   -1.36    0.86
   8  -3 -24    1.49    1.60
   8  -3 -23    3.68    2.28
   8  -3 -22    2.32    2.16
   8  -3 -21   -0.05    0.91
   8  -3 -20    1.12    0.92
   8  -3 -19    3.42    1.36
   8   3 -19    0.65    2.00
   8  -3 -18    7.74    3.08
   8  -3 -18    4.95    2.43
   8   3 -18    7.87    2.28
   8  -3 -17   63.91    7.12
   8  -3 -17   61.46    6.58
   8   3 -17   70.64    6.85
   8  -3 -16   43.14    5.78
   8  -3 -16   40.13    5.46
   8   3 -16   48.65    5.75
   8  -3 -15   31.78    4.92
   8  -3 -15   25.17    4.49
   8   3 -15   29.89    4.60
   8  -3 -14   25.96    4.41
   8  -3 -14   26.65    4.12
   8   3 -14   23.24    4.16
   8  -3 -13   16.36    3.50
   8  -3 -13   15.41    3.13
   8   3 -13   15.23    3.40
   8   3 -12    1.52    0.97
   8  -3 -12    0.16    1.16
   8  -3 -12    2.79    1.62
   8   3 -11   19.90    3.24
   8   3 -11   21.61    3.05
   8  -3 -11   23.13    3.60
   8  -3 -11   26.45    3.89
   8   3 -10   28.49    3.39
   8  -3 -10   21.97    3.96
   8  -3 -10   24.79    3.77
   8   3 -10   28.60    4.23
   8   3  -9   32.98    3.52
   8   3  -9   35.01    3.68
   8  -3  -9   36.48    4.99
   8  -3  -9   23.74    3.79
   8   3  -9   36.14    4.72
   8   3  -8   21.72    3.05
   8  -3  -8   32.09    4.46
   8   3  -8   27.37    3.17
   8  -3  -8   29.78    4.24
   8   3  -8   23.94    3.84
   8  -3  -7   41.68    5.22
   8   3  -7   47.73    4.13
   8   3  -7   50.42    4.48
   8  -3  -7   36.64    4.58
   8   3  -7   48.75    5.19
   8   3  -6   13.81    2.85
   8   3  -6   17.32    2.50
   8  -3  -6   12.24    2.64
   8   3  -6   17.71    2.77
   8  -3  -6   17.57    3.48
   8   3  -5    5.01    1.57
   8  -3  -5    2.94    1.76
   8   3  -5    4.10    1.46
   8  -3  -5    4.20    1.89
   8   3  -5    3.64    1.19
   8   3  -4    0.80    1.06
   8  -3  -4    0.07    0.81
   8   3  -4    1.22    1.28
   8  -3  -4    0.13    0.92
   8   3  -4    1.51    0.78
   8   3  -3   26.40    3.54
   8  -3  -3   21.34    3.40
   8  -3  -3   19.23    3.27
   8   3  -3   22.65    2.94
   8   3  -3   23.55    3.56
   8  -3  -2   24.93    3.91
   8   3  -2   24.62    3.24
   8  -3  -2   28.05    4.19
   8   3  -2   23.17    2.98
   8   3  -2   25.31    3.82
   8   3  -1   10.44    2.73
   8  -3  -1   12.46    2.81
   8  -3  -1   14.49    2.99
   8   3  -1   13.51    2.44
   8   3   0    5.27    1.97
   8  -3   0   11.79    2.65
   8  -3   0    6.61    1.83
   8   3   0    8.86    1.96
   8   3   1    8.45    2.40
   8  -3   1   14.75    2.83
   8  -3   1   10.73    2.61
   8   3   1   15.05    2.66
   8   3   2   30.57    4.09
   8  -3   2   34.15    4.44
   8   3   2   22.40    3.56
   8  -3   2   22.86    3.64
   8   3   3   24.30    3.68
   8  -3   3   23.79    3.60
   8   3   3   23.19    3.57
   8  -3   3   29.88    4.19
   8   3   4    0.11    0.49
   8  -3   4    1.84    1.42
   8  -3   4    0.08    1.02
   8   3   4    1.63    0.99
   8   3   5    0.93    0.82
   8  -3   5    1.54    1.12
   8  -3   5    3.08    1.61
   8   3   6   20.40    3.36
   8  -3   6   19.57    3.36
   8   3   6   16.69    3.29
   8   3   7   46.76    4.98
   8  -3   7   48.16    5.21
   8   3   7   47.95    5.35
   8  -3   8   23.45    3.59
   8   3   8   23.84    3.41
   8   3   8   24.87    3.52
   8   3   9   33.80    4.41
   8  -3   9   28.09    4.08
   8   3   9   30.04    4.24
   8   3  10   25.99    3.83
   8  -3  10   20.00    3.75
   8   3  10   30.34    4.54
   8   3  11   14.16    2.78
   8   3  11   23.34    3.89
   8  -3  11   21.10    3.66
   8   3  12    1.16    1.50
   8   3  12    0.68    0.84
   8  -3  12    2.92    2.19
   8   3  13   22.55    3.53
   8  -3  13   15.74    3.31
   8   3  14   26.71    3.85
   8   3  14   23.62    4.10
   8  -3  14   28.86    4.53
   8   3  15   22.44    3.76
   8   3  15   29.84    4.62
   8  -3  15   26.34    4.24
   8   3  16   43.38    5.13
   8   3  16   50.55    6.02
   8  -3  16   38.66    5.33
   8   3  17   69.44    7.39
   8  -3  17   73.71    7.28
   8  -3  18    5.62    0.95
   8   3  18    7.47    2.49
   8  -3  19    3.24    1.87
   8   3  19    6.19    2.23
   8  -3  20    1.58    1.34
   8   3  20    0.56    1.28
   8   3  21    1.02    1.10
   8   3  22    0.17    1.08
   8   3  23    3.33    2.73
   8   3  24    3.83    1.49
   8   3  25    0.06    1.20
   8   3  26    0.97    1.76
   8   3  27    3.16    2.79
   8  -4 -26    4.21    2.58
   8  -4 -25   15.87    4.05
   8  -4 -24   20.09    4.45
   8  -4 -23    1.12    1.09
   8  -4 -22   10.68    3.37
   8  -4 -21   19.85    3.79
   8  -4 -20   -0.13    1.79
   8  -4 -19   11.48    3.62
   8  -4 -19   11.48    3.77
   8  -4 -18    6.99    2.94
   8  -4 -18   12.16    3.38
   8   4 -18    9.12    2.56
   8  -4 -17    6.57    2.44
   8  -4 -17    2.71    1.86
   8   4 -17    2.26    1.60
   8  -4 -16   65.67    7.18
   8  -4 -16   48.16    5.95
   8   4 -16   63.99    6.65
   8  -4 -15   68.71    7.39
   8  -4 -15   75.92    7.65
   8   4 -15   67.82    7.20
   8  -4 -14   24.23    4.18
   8  -4 -14   21.48    4.02
   8   4 -14   22.93    4.21
   8   4 -13   13.38    3.33
   8  -4 -13    4.59    1.67
   8  -4 -13   11.15    3.11
   8  -4 -12   23.45    4.13
   8   4 -12   20.49    3.77
   8  -4 -12   16.31    3.26
   8  -4 -11   66.16    6.93
   8  -4 -11   67.74    7.00
   8   4 -11   73.15    7.02
   8  -4 -10   11.09    2.84
   8   4 -10   10.99    2.78
   8  -4 -10   11.83    3.15
   8  -4  -9   14.64    3.44
   8  -4  -9   13.65    3.50
   8   4  -9   19.40    3.86
   8   4  -8    5.69    1.70
   8  -4  -8    3.82    1.73
   8   4  -8    6.43    2.04
   8  -4  -8    3.03    1.42
   8  -4  -7   57.02    6.26
   8  -4  -7   51.39    5.84
   8   4  -7   51.11    4.76
   8   4  -7   54.88    5.96
   8   4  -6   10.65    2.84
   8  -4  -6   10.66    2.84
   8   4  -6    6.79    1.69
   8   4  -5  194.28    9.52
   8  -4  -5  208.11   11.60
   8   4  -5  194.79    8.21
   8  -4  -5  194.65   11.05
   8   4  -5  200.55   11.05
   8   4  -4   82.53    7.05
   8   4  -4   88.07    6.36
   8  -4  -4   80.45    7.18
   8   4  -4   78.05    5.16
   8  -4  -4   80.46    7.18
   8   4  -3   34.61    4.71
   8   4  -3   29.35    3.80
   8  -4  -3   32.40    4.54
   8   4  -3   30.24    3.37
   8  -4  -3   28.53    4.26
   8   4  -2  177.42   10.36
   8   4  -2  154.08    8.78
   8  -4  -2  150.57    9.56
   8   4  -2  145.72    7.42
   8  -4  -2  170.30   10.27
   8  -4  -1  297.24   13.66
   8   4  -1  330.02   14.25
   8   4  -1  322.63   12.97
   8  -4  -1  319.18   14.00
   8  -4   0   46.18    5.45
   8   4   0   55.49    6.04
   8   4   0   43.24    4.88
   8  -4   0   46.36    5.27
   8   4   1  322.70   14.00
   8  -4   1  309.38   13.87
   8   4   1  319.50   13.35
   8  -4   1  311.11   13.70
   8   4   2  149.10    9.66
   8  -4   2  161.76    9.91
   8   4   2  162.81    9.52
   8  -4   2  161.92    9.83
   8   4   3   24.14    4.13
   8  -4   3   33.06    4.40
   8   4   3   35.80    4.49
   8  -4   3   29.11    4.22
   8   4   4   89.61    7.27
   8  -4   4   88.60    7.52
   8   4   4   83.21    6.92
   8  -4   4   96.86    7.67
   8   4   5  193.98   10.91
   8  -4   5  198.76   11.09
   8   4   5  195.36   10.78
   8  -4   5  215.13   11.55
   8   4   6   15.64    3.10
   8   4   6   15.44    3.24
   8  -4   6   17.32    3.37
   8  -4   6   14.18    2.64
   8   4   7   46.08    5.57
   8  -4   7   57.70    6.25
   8   4   7   67.59    6.60
   8  -4   7   56.30    6.01
   8   4   8    6.68    2.87
   8   4   8    7.75    2.62
   8  -4   8    5.31    1.99
   8   4   9   15.44    3.38
   8   4   9   10.42    2.85
   8  -4   9   13.13    3.05
   8   4  10   14.34    3.33
   8   4  10   12.45    2.89
   8  -4  10   16.17    3.58
   8   4  11   52.32    5.90
   8   4  11   34.33    5.18
   8   4  12   18.36    3.47
   8   4  12   18.88    3.70
   8  -4  12   18.82    3.67
   8   4  13   15.74    3.48
   8   4  13   13.95    3.22
   8  -4  13    9.09    2.87
   8   4  14   27.97    4.27
   8  -4  14   24.64    4.46
   8   4  14   18.18    3.54
   8   4  15   80.85    7.23
   8  -4  15   83.48    8.05
   8   4  15   90.17    8.34
   8   4  16   53.80    6.21
   8  -4  16   51.02    6.23
   8   4  16   56.95    7.17
   8   4  17    2.58    2.01
   8  -4  17    5.56    1.96
   8   4  18   18.82    4.34
   8  -4  18   18.34    4.00
   8   4  19   11.28    3.40
   8   4  20    0.57    1.32
   8   4  21   14.26    3.49
   8   4  22   17.06    4.29
   8   4  23   -2.36    2.80
   8   4  24   12.99    3.41
   8   4  25   14.95    4.21
   8   4  26   -1.08    1.48
   8  -5 -25    1.86    1.05
   8  -5 -24    3.67    2.50
   8  -5 -23   -1.62    1.19
   8  -5 -22   -1.63    1.00
   8  -5 -21    0.90    1.24
   8  -5 -20    2.80    2.55
   8  -5 -20   -1.27    1.25
   8  -5 -19    4.52    2.71
   8  -5 -19    0.56    1.61
   8  -5 -18    1.01    1.24
   8  -5 -18    2.08    1.22
   8   5 -17    6.18    2.40
   8  -5 -17    3.99    1.96
   8  -5 -17    7.66    3.01
   8   5 -16   20.44    3.84
   8  -5 -16   26.07    5.21
   8  -5 -16   18.97    4.00
   8   5 -15   17.20    3.58
   8  -5 -15   16.74    3.56
   8  -5 -15   18.85    3.99
   8   5 -14   16.56    2.99
   8  -5 -14   10.29    3.01
   8  -5 -14   13.77    3.24
   8   5 -13    2.85    1.43
   8  -5 -13    6.12    2.90
   8  -5 -13    4.95    1.88
   8  -5 -12    8.73    3.15
   8  -5 -12    7.85    2.30
   8   5 -11    7.07    2.01
   8  -5 -11    5.09    1.83
   8  -5 -11   11.36    3.23
   8   5 -10   -0.66    0.67
  -8   5 -10    0.51    1.67
   8  -5 -10    0.15    1.52
   8  -5 -10    0.67    0.94
   8  -5  -9    1.21    1.00
   8   5  -9    3.96    2.29
   8  -5  -9    6.39    2.52
   8  -5  -8    8.10    2.30
   8   5  -8    7.11    2.30
   8  -5  -8   11.74    2.99
   8   5  -7   33.25    4.94
   8   5  -7   29.19    3.63
   8  -5  -7   27.01    4.45
   8  -5  -7   27.85    4.44
   8  -5  -6   12.72    3.56
   8   5  -6    9.67    2.70
   8   5  -6    8.71    2.20
   8  -5  -6   12.10    3.27
   8   5  -5    5.18    1.78
   8  -5  -5    9.92    3.15
   8   5  -5   10.35    2.68
   8  -5  -5    4.28    2.00
   8   5  -4   31.59    4.43
   8   5  -4   14.82    3.32
   8  -5  -4   26.78    4.22
   8  -5  -4   22.65    4.23
   8   5  -3   31.65    4.83
   8   5  -3   28.00    4.15
   8  -5  -3   21.63    4.15
   8  -5  -3   25.07    4.17
   8  -5  -2   18.71    3.59
   8   5  -2   17.03    3.64
   8   5  -2   11.56    2.49
   8  -5  -2   13.12    2.99
   8   5  -1   10.03    2.86
   8  -5  -1    8.89    2.38
   8   5  -1    8.21    1.89
   8  -5  -1   11.17    3.25
   8   5   0   11.18    2.59
   8  -5   0    6.67    2.24
   8   5   0    8.94    2.08
   8  -5   0    9.00    2.86
   8   5   1   10.91    2.68
   8  -5   1   12.20    2.95
   8   5   1    5.12    2.13
   8  -5   1   11.76    3.06
   8   5   2   15.19    3.07
   8  -5   2   11.61    2.91
   8   5   2   14.33    3.36
   8  -5   2   20.62    3.99
   8   5   3   27.52    4.36
   8   5   3   13.26    2.88
   8  -5   3   22.20    3.99
   8  -5   3   27.69    4.29
   8   5   4   18.82    3.52
   8  -5   4   18.62    3.71
   8   5   4   27.97    4.33
   8  -5   4   21.75    3.67
   8   5   5   11.95    2.63
   8  -5   5    7.78    2.67
   8   5   5    9.62    2.80
   8  -5   5    9.90    2.87
   8   5   6   10.87    2.90
   8  -5   6   11.35    3.18
   8   5   6    9.69    2.77
   8  -5   6   11.89    3.25
   8   5   7   25.88    4.48
   8  -5   7   22.39    3.91
   8   5   7   24.64    4.35
   8  -5   7   37.61    5.33
   8   5   8   11.22    3.12
   8  -5   8    9.23    2.86
   8   5   8    8.84    2.53
   8  -5   8    8.80    2.40
   8   5   9    6.56    2.46
   8  -5   9    4.43    1.98
   8   5   9    4.14    2.02
   8  -5   9    4.12    1.46
   8   5  10    1.68    2.15
   8  -5  10    0.59    0.94
   8   5  10    0.42    1.04
   8  -5  10    0.59    0.83
   8   5  11   12.64    3.35
   8  -5  11    7.63    2.71
   8   5  11    7.13    2.28
   8   5  12   11.65    3.28
   8  -5  12   14.25    3.30
   8   5  12    7.86    2.39
   8   5  13    4.65    2.43
   8  -5  13    5.41    2.22
   8   5  13    3.22    2.10
   8   5  14   18.43    3.62
   8  -5  14   13.89    3.74
   8   5  14   10.01    2.87
   8   5  15   12.70    3.36
   8  -5  15   13.32    3.38
   8   5  15   13.29    3.48
   8   5  16   15.70    3.28
   8   5  16   22.15    4.32
   8  -5  16   16.72    4.11
   8   5  17    6.78    2.90
   8   5  17    6.94    3.05
   8  -5  17    4.46    2.07
   8   5  18   -0.57    0.93
   8   5  19    1.54    1.06
   8   5  20   -0.32    1.77
   8   5  21    1.66    1.59
   8   5  22    3.19    3.08
   8   5  23   -1.51    1.60
   8   5  24    2.07    2.17
   8   5  25   -2.88    1.88
   8  -6 -24   14.94    3.89
   8  -6 -23    0.14    1.71
   8  -6 -22    4.96    2.44
   8  -6 -21    8.68    3.32
   8  -6 -21   15.68    4.90
   8  -6 -20   -0.84    1.57
   8  -6 -20    0.82    1.19
   8  -6 -19    7.35    2.94
   8  -6 -19    9.53    3.17
   8  -6 -18    4.18    1.68
   8  -6 -18   16.29    4.32
   8  -6 -17    9.78    2.78
   8  -6 -17    7.16    2.59
   8   6 -16    9.14    3.16
   8  -6 -16   10.87    3.12
   8  -6 -16   12.76    3.91
   8  -6 -15   50.70    6.63
   8  -6 -15   39.44    6.18
   8   6 -15   47.86    6.41
   8   6 -14    8.76    2.44
   8  -6 -14   18.09    4.04
   8  -6 -14   14.90    3.69
   8  -6 -13    0.36    1.91
   8   6 -13   -1.66    1.79
   8  -6 -13    0.87    1.29
   8  -6 -12   28.53    4.79
   8  -6 -12   33.69    5.40
   8   6 -12   33.52    5.21
   8  -6 -11   68.81    7.44
   8  -6 -11   71.63    7.81
   8   6 -11   66.97    7.29
   8   6 -10    6.14    2.50
   8  -6 -10    8.38    2.50
   8  -6 -10   14.42    3.77
   8   6  -9   36.52    5.04
  -8   6  -9   42.14    5.35
   8  -6  -9   37.71    5.18
   8  -6  -9   36.44    5.33
   8   6  -8   18.86    4.16
  -8   6  -8   13.93    3.25
   8  -6  -8   12.79    3.00
   8  -6  -8   14.34    3.59
   8  -6  -7    5.20    2.36
   8   6  -7    6.65    2.73
  -8   6  -7    8.78    2.71
   8  -6  -7    5.21    2.32
   8   6  -6   65.26    6.94
  -8   6  -6   78.90    7.36
   8  -6  -6   92.25    8.30
   8  -6  -6   84.34    8.09
   8  -6  -5   86.28    7.99
   8   6  -5  103.27    8.69
   8   6  -5   94.78    7.75
   8  -6  -5   97.59    8.69
   8  -6  -4    5.55    2.04
   8   6  -4    9.90    3.27
   8   6  -4    7.84    2.19
   8  -6  -4    6.69    2.41
   8   6  -3   17.64    3.64
   8   6  -3   27.47    4.36
   8  -6  -3   24.43    4.11
   8  -6  -3   31.24    4.99
   8   6  -2   27.77    4.35
   8   6  -2   41.74    5.30
   8  -6  -2   27.99    4.40
   8  -6  -2   33.16    4.65
   8   6  -1   43.30    5.69
   8  -6  -1   48.58    5.80
   8  -6  -1   44.60    5.97
   8   6   0   53.52    6.53
   8   6   0   57.90    6.22
   8  -6   0   49.53    6.09
   8  -6   0   50.18    6.18
   8   6   1   50.32    5.73
   8  -6   1   43.63    5.37
   8  -6   1   55.41    6.53
   8   6   2   28.36    4.49
   8  -6   2   33.77    5.03
   8  -6   2   23.96    4.37
   8  -6   3   23.22    4.08
   8   6   3   25.79    4.21
   8   6   3   22.41    3.92
   8  -6   3   20.75    4.14
   8  -6   4    5.94    2.09
   8   6   4    5.59    2.07
   8   6   4    7.17    2.66
   8  -6   4    4.27    1.34
   8   6   5   89.33    8.18
   8   6   5   77.74    7.34
   8  -6   5   94.43    8.13
   8  -6   5   96.58    8.27
   8   6   6   93.43    8.23
   8   6   6   79.53    7.52
   8  -6   6   75.46    7.41
   8  -6   6   93.15    8.17
   8  -6   7    9.30    2.90
   8   6   7   14.83    3.36
   8   6   7    7.53    2.20
   8  -6   7   14.20    3.39
   8  -6   8   14.15    3.54
   8   6   8   15.24    3.61
   8   6   8   12.35    2.85
   8  -6   8   20.92    4.34
   8   6   9   48.00    6.10
   8   6   9   37.20    5.66
   8  -6   9   31.56    4.91
   8  -6   9   41.81    5.72
   8   6  10   10.40    2.61
   8  -6  10    9.70    2.75
   8   6  10    7.74    2.79
   8  -6  10   12.50    3.21
   8   6  11   63.82    6.96
   8   6  11   59.99    6.81
   8  -6  11   69.57    7.18
   8  -6  11   63.38    7.15
   8   6  12   31.49    5.14
   8   6  12   28.54    4.53
   8  -6  12   25.36    4.39
   8  -6  12   38.76    5.70
   8   6  13    1.61    0.77
   8   6  13    0.98    1.07
   8  -6  13    3.29    1.91
   8  -6  13    3.22    2.03
   8   6  14   24.83    4.72
   8  -6  14   26.19    4.64
   8   6  14   21.76    4.40
   8  -6  14   14.92    3.23
   8   6  15   48.67    6.57
   8   6  15   42.39    6.28
   8  -6  15   51.31    6.51
   8   6  16    4.69    1.50
   8  -6  16   10.55    3.26
   8   6  16   13.54    3.51
   8   6  17    9.99    3.27
   8   6  17   13.09    3.59
   8   6  18   19.53    4.56
   8   6  19    4.34    2.74
   8   6  20    1.11    1.06
   8   6  21   10.04    3.40
   8   6  22    4.22    2.77
  -8   6  22    0.11    1.44
   8   6  23    3.23    3.07
  -8   6  23    0.91    2.97
   8   6  24    7.02    3.31
  -8   6  24    8.86    3.11
   8  -7 -22    2.98    2.22
   8  -7 -22    4.33    3.02
   8  -7 -21    3.31    1.76
   8  -7 -21    1.07    1.48
   8  -7 -20    7.77    3.72
   8  -7 -20    0.38    1.15
   8  -7 -19    0.69    1.43
   8  -7 -19    2.03    1.77
   8  -7 -18    2.33    1.95
   8  -7 -18    2.43    1.93
   8  -7 -17    1.03    1.15
   8  -7 -17    2.59    2.54
   8   7 -16   -0.04    2.38
   8  -7 -16    4.05    2.28
   8  -7 -16    2.09    2.23
   8   7 -15    1.45    1.01
   8  -7 -15    0.42    1.52
   8  -7 -15    1.34    1.33
   8  -7 -14    1.64    1.12
   8   7 -14    2.95    1.01
   8  -7 -14    3.80    3.03
   8   7 -13    2.80    1.08
   8  -7 -13    4.36    2.59
   8  -7 -13    0.05    0.84
   8   7 -12   12.12    2.97
   8  -7 -12   12.80    3.68
   8  -7 -12   16.15    4.04
   8   7 -11   18.69    3.88
   8  -7 -11   15.15    3.46
   8  -7 -11   21.11    4.21
   8   7 -10    5.94    2.02
   8  -7 -10   10.71    2.62
   8   7  -9    0.38    1.68
   8  -7  -9    2.91    2.30
   8  -7  -9    2.36    1.32
   8   7  -8   16.18    4.00
  -8   7  -8   16.91    3.60
   8  -7  -8   19.39    4.33
   8  -7  -8   12.06    2.98
   8   7  -7   22.64    4.41
  -8   7  -7   25.95    4.82
   8  -7  -7   18.71    4.19
   8  -7  -7   18.48    4.11
   8   7  -6    4.96    2.22
  -8   7  -6   10.71    2.97
   8  -7  -6   10.05    3.30
   8  -7  -6    9.70    3.11
   8   7  -5   28.76    4.88
  -8   7  -5   29.64    4.83
   8  -7  -5   34.38    5.33
   8  -7  -5   33.51    5.13
   8  -7  -4   11.51    3.57
   8   7  -4    9.44    3.27
   8   7  -4    7.77    2.56
  -8   7  -4    9.92    2.99
   8  -7  -4   11.92    3.44
   8   7  -3   16.10    3.42
   8  -7  -3   14.65    3.45
   8   7  -3   11.14    2.52
  -8   7  -3   14.29    3.49
   8  -7  -3   19.02    4.02
   8  -7  -2   13.23    3.70
  -8   7  -2   14.00    3.20
   8   7  -2   14.45    3.77
   8  -7  -2   11.22    2.94
   8   7  -2   19.53    3.73
   8   7  -1   29.50    5.04
  -8   7  -1   30.37    4.96
   8  -7  -1   31.15    5.20
   8   7  -1   31.75    4.96
   8  -7  -1   34.97    5.39
   8   7   0   51.85    6.36
   8  -7   0   45.65    6.04
   8   7   0   39.28    5.46
   8  -7   0   45.68    6.18
  -8   7   0   45.09    5.69
   8   7   1   34.84    5.28
   8   7   1   28.24    4.40
   8  -7   1   20.43    3.95
   8  -7   1   33.33    5.17
   8  -7   2   13.19    3.67
   8   7   2   16.46    3.67
   8  -7   2   10.93    3.09
   8   7   2   15.23    3.05
   8  -7   3   17.11    3.62
   8   7   3   14.30    3.73
   8  -7   3   18.76    3.94
   8   7   3   16.14    3.53
   8  -7   4    8.61    3.11
   8   7   4    4.02    1.96
   8  -7   4    7.75    2.78
   8   7   4   11.85    3.20
   8   7   5   31.15    4.72
   8  -7   5   26.83    4.97
   8   7   5   33.79    5.27
   8  -7   5   28.39    4.77
   8  -7   6    8.89    3.02
   8   7   6   11.52    3.16
   8  -7   6    8.23    2.43
   8   7   6    6.07    2.41
   8  -7   7   18.44    3.88
   8   7   7   17.73    4.05
   8  -7   7   21.09    4.31
   8   7   7   13.84    3.62
   8  -7   8   20.46    4.43
   8   7   8   25.91    4.82
   8  -7   8   17.58    3.57
   8   7   8   18.53    4.12
   8  -7   9    1.24    1.30
   8   7   9    2.55    1.73
   8  -7   9   -1.75    2.02
   8   7   9    0.02    1.55
   8  -7  10   10.08    3.08
   8   7  10   13.48    2.83
   8   7  10   10.19    3.04
   8  -7  10   10.45    3.59
   8  -7  11   13.49    2.85
   8   7  11   21.04    3.80
   8   7  11   12.53    3.44
   8  -7  11   24.33    4.74
   8  -7  12   13.00    3.13
   8   7  12   15.30    3.61
   8   7  12   11.49    3.00
   8  -7  13    0.56    1.39
   8   7  13    0.21    0.87
   8  -7  14    4.23    2.03
   8   7  14    2.76    1.33
   8   7  14    3.57    2.66
   8   7  15    2.71    2.75
   8   7  15   -0.94    1.30
  -8   7  16    1.73    2.01
   8   7  16    1.57    1.61
   8   7  16    6.37    2.68
   8   7  17   -0.02    1.65
   8   7  17   -1.41    1.16
  -8   7  17   -4.53    2.47
   8   7  18    3.18    1.58
  -8   7  18   -0.54    1.34
  -8   7  19    3.18    2.08
   8   7  19    2.12    1.76
   8   7  20    3.87    2.62
  -8   7  20    3.35    1.83
   8   7  21    2.03    2.28
  -8   7  21    2.04    2.16
  -8   7  22    0.58    2.04
   8   7  22   -0.83    2.22
   8  -8 -19    1.64    2.79
   8  -8 -19   -1.53    1.43
   8  -8 -18    7.11    2.77
   8  -8 -18    6.67    2.85
   8  -8 -17   21.03    4.42
   8  -8 -17   16.28    4.00
   8  -8 -16   -1.56    1.69
   8  -8 -16   -0.33    2.16
   8   8 -15    8.06    3.20
   8  -8 -15    6.09    2.05
   8  -8 -15    9.64    3.37
   8   8 -14    8.82    3.66
   8  -8 -14    6.65    3.01
   8  -8 -14    4.11    1.81
   8   8 -13   -2.03    2.54
   8  -8 -13   -0.67    1.71
   8  -8 -13    4.17    2.32
   8  -8 -12   20.91    4.52
   8   8 -12   23.57    4.95
   8  -8 -12   13.45    3.67
   8   8 -11   35.49    5.50
   8  -8 -11   35.45    5.66
   8  -8 -11   27.22    4.94
   8   8 -10    1.95    1.21
   8  -8 -10    2.23    1.66
   8  -8 -10   -0.21    1.20
   8   8  -9   17.76    4.44
   8  -8  -9   28.69    5.43
   8  -8  -9   13.96    4.22
   8   8  -8   18.68    4.07
  -8   8  -8   24.05    5.68
   8  -8  -8   26.59    4.97
   8  -8  -8   18.09    4.39
   8   8  -7    6.37    2.38
  -8   8  -7    5.63    2.68
   8  -8  -7    9.10    3.19
   8  -8  -7    4.92    2.34
   8   8  -6   10.12    3.52
  -8   8  -6    7.35    2.95
   8  -8  -6    9.02    3.17
   8  -8  -6    6.27    2.71
   8   8  -5   25.10    4.73
  -8   8  -5   39.48    5.89
   8  -8  -5   30.32    5.55
   8  -8  -5   33.68    5.51
   8   8  -4    1.22    1.59
   8  -8  -4   -0.53    1.71
   8  -8  -4    1.58    1.34
   8   8  -3    5.97    2.07
  -8   8  -3    5.90    2.71
   8  -8  -3    5.78    1.88
   8   8  -3    2.13    1.88
   8  -8  -3    2.56    1.45
   8   8  -2   17.36    4.16
   8   8  -2   16.95    3.80
  -8   8  -2   18.22    4.20
   8  -8  -2   23.41    4.39
   8  -8  -2   10.31    2.87
  -8   8  -1   18.01    3.77
   8   8  -1   14.79    4.07
   8  -8  -1   13.18    3.16
   8   8  -1   24.22    4.15
   8  -8  -1   19.63    4.16
   8   8   0    1.11    0.80
  -8   8   0    1.70    2.13
   8  -8   0    3.41    2.15
   8   8   0    0.23    1.42
   8  -8   0    2.67    1.99
   8  -8   1   12.42    3.04
   8   8   1   13.61    3.61
  -8   8   1   17.43    4.06
   8  -8   1   19.80    4.39
   8   8   1   16.47    3.57
   8  -8   2   19.09    3.99
   8   8   2   15.52    4.10
  -8   8   2   14.06    3.68
   8  -8   2   10.18    3.54
   8   8   2   23.26    4.68
   8  -8   3    5.08    2.40
   8   8   3    6.90    2.66
  -8   8   3    3.07    1.59
   8  -8   3    3.88    2.37
   8   8   3    5.16    1.90
   8  -8   4    3.84    1.86
   8   8   4    5.88    2.36
  -8   8   4    2.69    1.03
   8  -8   4    5.96    2.00
   8   8   4    4.80    2.80
   8  -8   5   24.90    4.91
   8   8   5   32.98    5.26
  -8   8   5   38.17    5.56
   8  -8   5   27.76    4.65
   8   8   5   32.72    5.11
  -8   8   6    9.23    2.62
   8  -8   6    8.88    2.54
   8   8   6    8.98    3.51
   8   8   6    6.17    2.53
   8  -8   7    5.01    1.69
   8   8   7    5.27    1.76
  -8   8   7    3.81    1.51
   8   8   7    5.95    2.39
   8  -8   8   20.48    4.31
   8   8   8   21.70    4.39
  -8   8   8   22.03    4.86
   8   8   8   15.62    3.85
   8  -8   9   16.90    4.01
   8   8   9   27.72    4.95
  -8   8   9   14.22    3.83
   8   8   9   28.74    5.21
   8  -8  10    0.50    1.30
   8   8  10    3.01    2.61
  -8   8  10    1.88    2.16
   8   8  10    5.16    2.63
   8   8  11   44.96    6.52
  -8   8  11   38.78    6.28
   8   8  11   31.81    5.60
   8  -8  11   37.12    5.81
  -8   8  12   16.58    4.12
   8  -8  12    8.08    3.93
   8   8  12   20.67    4.53
   8   8  12   22.98    4.30
   8  -8  13    3.88    2.95
   8   8  13    2.22    2.46
  -8   8  13    3.22    1.89
   8   8  13   -0.28    1.27
   8   8  14    9.29    3.46
  -8   8  14   10.21    3.49
   8   8  14    7.53    2.98
   8   8  15   12.84    3.23
  -8   8  15   12.53    3.61
   8   8  15    9.27    2.75
   8   8  16    2.88    3.69
  -8   8  16   -1.21    1.62
   8   8  16    0.98    2.17
   8   8  17   22.94    5.04
  -8   8  17   13.71    3.49
   8   8  17   18.60    4.55
   8   8  18   10.21    3.43
   8   8  18    6.04    1.40
  -8   8  18    4.91    3.52
   8   8  19   -0.23    1.91
  -8   8  19   -0.44    1.21
   8  -9 -16   -2.15    1.98
   8  -9 -16   -1.40    2.07
   8  -9 -15   -0.39    2.47
   8  -9 -15    4.21    1.37
   8   9 -14    3.64    2.72
   8  -9 -14    2.08    1.00
   8  -9 -14   -0.51    1.78
   8   9 -13    4.22    2.85
   8  -9 -13    1.87    1.66
   8  -9 -13    1.15    1.75
   8   9 -12    0.85    2.38
   8  -9 -12   -2.30    2.08
   8  -9 -12    1.21    2.21
   8   9 -11    2.56    2.62
   8  -9 -11    1.39    1.39
   8  -9 -11    3.20    2.28
   8  -9 -10    2.62    2.74
   8   9 -10   -1.81    2.83
   8  -9 -10    1.39    2.31
   8  -9  -9    0.85    1.57
   8  -9  -9   -1.14    1.86
   8   9  -8    3.40    2.43
   8  -9  -8    5.55    3.12
   8  -9  -8    9.26    3.70
   8   9  -7    1.28    1.71
  -8   9  -7    0.08    1.78
   8  -9  -7    0.43    0.93
   8  -9  -7   -3.41    2.75
   8   9  -6    1.03    1.67
   8  -9  -6   -0.18    2.78
  -8   9  -6    0.39    0.97
   8  -9  -6    3.25    2.04
   8   9  -5    3.85    2.33
  -8   9  -5    4.15    2.04
   8  -9  -5    6.84    2.68
   8  -9  -5    4.63    2.40
   8   9  -4    0.96    1.57
  -8   9  -4   -0.45    2.11
   8  -9  -4    0.80    2.14
   8  -9  -4   -1.55    2.43
   8   9  -3    2.72    1.83
  -8   9  -3    1.70    1.79
   8  -9  -3    6.87    2.68
   8  -9  -3    4.78    2.68
   8  -9  -2    4.79    2.89
   8   9  -2    8.72    3.53
  -8   9  -2    3.70    1.90
   8  -9  -2    4.10    2.22
   8   9  -1    4.40    2.49
  -8   9  -1    1.98    1.74
   8  -9  -1    0.16    2.02
   8   9  -1    1.77    1.71
   8  -9  -1    2.44    1.46
   8   9   0    3.10    1.80
  -8   9   0    3.34    1.48
   8   9   0    3.05    2.43
   8  -9   0    2.93    1.39
   8   9   1    2.77    1.62
  -8   9   1    0.35    1.19
   8   9   1    2.25    1.39
   8  -9   1    3.52    1.99
   8   9   2   -0.80    2.31
  -8   9   2    5.19    3.21
   8   9   2    8.29    2.74
   8  -9   2    5.16    2.21
   8   9   3    0.46    2.25
  -8   9   3    0.03    1.53
   8  -9   3    2.98    2.42
   8   9   3    1.02    1.53
   8   9   4    2.12    1.55
   8   9   4    1.15    1.68
  -8   9   4    1.18    1.52
   8  -9   4    2.48    2.44
   8   9   5    5.75    2.91
   8   9   5    3.57    2.94
  -8   9   5    8.02    2.92
   8  -9   5    4.18    2.98
   8   9   6    1.35    1.86
  -8   9   6    2.05    1.80
   8  -9   6   -0.12    1.76
   8   9   7    3.32    2.01
   8   9   7    0.14    1.89
  -8   9   7    0.96    1.68
   8  -9   7    0.47    1.84
   8   9   8    4.65    2.28
  -8   9   8    7.16    3.27
   8   9   8    5.54    2.67
   8  -9   8    3.13    1.10
   8   9   9   -0.50    1.35
  -8   9   9    0.79    1.07
   8   9   9   -1.41    2.06
   8  -9   9    2.09    2.61
   8   9  10    4.27    3.02
  -8   9  10    2.92    2.32
   8   9  10    0.54    1.30
   8  -9  10    0.93    1.50
   8   9  11    0.61    1.61
  -8   9  11   -0.03    1.38
   8   9  11    3.84    1.95
   8  -9  11    3.34    1.83
   8   9  12    2.07    2.62
  -8   9  12    6.94    2.72
   8   9  12    6.17    2.54
  -8   9  13    3.08    2.11
   8   9  13   -0.03    1.34
   8   9  13    2.44    2.15
   8   9  14    3.92    2.89
  -8   9  14   -0.07    1.55
   8   9  14    1.34    0.76
   8   9  15    3.10    1.98
   8   9  15    0.33    1.39
   8   9  16    2.34    1.43
   8   9  16    4.05    2.37
  -8   9  16    3.16    2.33
   8  10 -11    4.22    2.15
   8 -10 -11    2.37    2.14
   8 -10 -11    4.34    3.33
   8  10 -10   -2.85    2.29
   8 -10 -10   -2.75    2.76
   8 -10 -10    2.33    1.75
   8 -10  -9    9.70    3.55
   8  10  -9    8.94    3.96
   8 -10  -9    3.12    1.66
   8  10  -8    2.71    1.99
   8 -10  -8    6.19    2.29
   8  10  -7    3.71    2.77
   8 -10  -7    2.28    2.34
   8  10  -6   -0.97    1.89
  -8  10  -6    0.96    2.31
   8 -10  -6   -1.32    2.13
   8  10  -5    8.34    3.40
  -8  10  -5    3.01    1.69
   8 -10  -5    5.59    1.39
   8  10  -4    5.48    2.04
  -8  10  -4    5.87    2.72
   8 -10  -4    5.67    2.27
   8  10  -3    2.48    2.75
  -8  10  -3   -0.63    1.61
   8 -10  -3   -0.19    1.91
   8  10  -2    7.87    3.05
  -8  10  -2    8.58    3.11
   8 -10  -2    7.64    2.79
  -8  10  -1    5.20    1.82
   8 -10  -1    3.33    2.28
   8  10   0    0.05    1.02
  -8  10   0   -0.89    1.30
   8 -10   0   -1.05    2.03
   8  10   1    8.40    3.15
  -8  10   1    7.45    2.92
   8 -10   1    6.93    2.89
   8  10   1    6.65    3.24
   8  10   2    3.81    1.30
  -8  10   2    5.79    2.45
   8 -10   2    5.59    2.63
   8  10   2    7.35    3.06
   8  10   3   -1.70    1.67
  -8  10   3    2.61    2.12
   8 -10   3    1.88    1.38
   8  10   3   -0.35    1.48
   8  10   4    3.66    3.11
  -8  10   4    2.85    1.73
   8 -10   4   -0.10    1.84
   8  10   4   -1.52    1.98
   8  10   5   12.73    3.53
  -8  10   5    6.83    2.43
   8 -10   5   13.12    4.07
   8  10   5   15.64    4.07
   8  10   6    2.21    2.56
  -8  10   6    1.53    2.04
   8 -10   6   -0.17    1.06
   8  10   6    0.75    1.24
   8  10   7    0.09    1.16
  -8  10   7    2.59    1.06
   8 -10   7    1.47    1.30
   8  10   7   -0.41    1.59
   8  10   8    5.02    2.45
  -8  10   8    2.38    1.64
   8 -10   8    5.93    2.99
   8  10   8    5.62    2.24
   8  10   9   13.16    3.78
   8 -10   9    5.08    2.54
   8  10   9    7.45    3.07
  -8  10   9   12.06    3.72
   8  10  10   -1.23    1.60
  -8  10  10   -2.18    2.22
   8  10  10    0.52    1.08
   8  10  11    7.47    2.71
  -8  10  11    1.89    1.50
   8  10  11    1.57    2.31
   9   0 -26    1.51    2.32
   9   0 -25   -0.43    1.14
   9   0 -24   -0.45    1.61
   9   0 -23    1.59    2.33
   9   0 -22   -0.09    0.92
   9   0 -21    0.10    1.06
   9   0 -20   -2.02    2.24
   9   0 -19    0.81    2.00
   9   0 -18   -1.32    1.86
   9   0 -17   -0.66    1.88
   9   0 -16    1.52    1.90
   9   0 -15   -0.35    0.76
   9   0 -14    1.32    1.99
   9   0 -13    0.86    0.94
   9   0 -13    0.52    1.78
   9   0 -12   -0.38    0.75
   9   0 -12   -0.54    0.83
   9   0 -11    0.54    1.09
   9   0 -11    0.53    0.75
   9   0 -10    0.48    0.63
   9   0 -10    0.34    1.29
   9   0  -9   -0.62    0.98
   9   0  -9   -0.46    0.97
   9   0  -8    0.71    0.64
   9   0  -8    0.74    1.60
   9   0  -7   -0.08    0.99
   9   0  -7    0.11    0.91
   9   0  -7    0.83    0.96
   9   0  -6    0.06    0.69
   9   0  -6    0.97    1.18
   9   0  -6   -0.95    1.31
   9   0  -5   -0.18    0.88
   9   0  -5    0.30    0.96
   9   0  -5    0.01    0.82
   9   0  -4    0.49    0.82
   9   0  -4    0.06    1.05
   9   0  -4   -0.10    0.81
   9   0  -3    0.37    1.08
   9   0  -3    0.58    1.63
   9   0  -3    0.03    0.75
   9   0  -2   -0.51    0.83
   9   0  -2   -0.37    0.75
   9   0  -2    0.81    1.27
   9   0  -1    0.79    0.85
   9   0  -1   -0.20    0.77
   9   0  -1    0.44    0.77
   9   0   0    0.14    0.61
   9   0   0    0.37    1.16
   9   0   0    0.18    1.00
   9   0   1   -0.30    0.84
   9   0   1   -0.41    0.48
   9   0   2   -0.48    0.98
   9   0   2    0.04    1.25
   9   0   3    0.48    0.92
   9   0   3   -0.36    0.85
   9   0   4   -0.57    1.22
   9   0   4   -0.17    0.75
   9   0   5    1.17    0.90
   9   0   5    0.58    0.59
   9   0   6    0.36    1.06
   9   0   6    0.33    0.60
   9   0   7    0.46    0.92
   9   0   7    0.74    0.80
   9   0   8   -0.33    0.67
   9   0   8    1.41    1.24
   9   0   9    0.05    0.77
   9   0   9    0.33    0.80
   9   0  10    0.72    0.66
   9   0  10    0.59    0.50
   9   0  11   -0.94    1.84
   9   0  11   -0.22    0.83
   9   0  12    0.82    0.99
   9   0  12    1.27    1.48
   9   0  13    0.76    1.15
   9   0  13    0.34    0.79
   9   0  14    0.18    1.38
   9   0  15    0.20    0.87
   9   0  16   -0.22    1.39
   9   0  17   -0.64    1.65
   9   0  18    0.96    1.99
   9   0  19   -1.64    1.75
   9   0  20    1.03    1.02
   9   0  21    0.96    1.94
   9   0  22   -0.78    1.40
   9   0  23   -1.29    1.46
   9   0  24   -1.47    1.81
   9  -1 -28    8.66    4.15
   9  -1 -27    7.17    3.11
   9  -1 -26   13.39    4.28
   9  -1 -25    4.06    2.54
   9  -1 -24    0.41    1.35
   9  -1 -23    6.28    2.93
   9   1 -22   14.83    3.85
   9  -1 -22   23.07    4.68
   9   1 -21   38.00    5.71
   9  -1 -21   35.79    5.99
   9   1 -20   12.90    3.43
   9  -1 -20   16.37    3.90
   9  -1 -19   33.57    5.43
   9   1 -19   24.55    4.26
   9   1 -18    3.63    1.60
   9  -1 -18    3.57    1.23
   9   1 -17  189.98   11.56
   9  -1 -17  183.54   11.81
   9   1 -16   49.35    5.87
   9  -1 -16   45.50    5.94
   9   1 -15  128.84    9.36
   9  -1 -15  116.69    8.93
   9  -1 -14    4.87    1.73
   9  -1 -14    3.83    1.92
   9   1 -14    5.12    1.48
   9  -1 -13    1.43    1.20
   9   1 -13    4.34    1.33
   9  -1 -13    6.18    2.51
   9   1 -13    5.24    2.49
   9  -1 -12   59.77    6.38
   9   1 -12   47.67    5.44
   9   1 -12   54.19    5.69
   9  -1 -12   55.43    5.57
   9   1 -11  378.70   13.05
   9  -1 -11  391.70   15.83
   9   1 -11  387.62   14.98
   9   1 -11  417.04   15.71
   9  -1 -11  381.20   14.48
   9   1 -10   37.60    4.14
   9   1 -10   34.36    4.48
   9  -1 -10   34.72    4.87
   9   1 -10   41.73    4.87
   9  -1 -10   48.82    5.21
   9  -1  -9  303.93   12.70
   9   1  -9  299.60   11.42
   9  -1  -9  300.36   13.51
   9   1  -9  315.01   13.12
   9   1  -9  321.27   13.52
   9  -1  -8   89.51    6.82
   9   1  -8   91.68    6.38
   9  -1  -8   84.57    7.15
   9   1  -8   95.70    7.29
   9   1  -8   91.17    7.13
   9  -1  -7   84.49    6.54
   9   1  -7   81.03    6.05
   9  -1  -7   84.95    6.88
   9   1  -7   86.79    6.69
   9   1  -7   78.34    6.63
   9  -1  -6  123.52    8.06
   9   1  -6  123.92    7.41
   9  -1  -6  108.44    7.87
   9   1  -6  116.70    7.79
   9   1  -6  106.06    7.60
   9  -1  -5  249.88   11.45
   9   1  -5  233.05   10.41
   9  -1  -5  241.92   11.74
   9   1  -5  240.53   11.01
   9   1  -5  245.55   11.36
   9  -1  -4  209.32   10.50
   9   1  -4  205.23    9.71
   9  -1  -4  189.60   10.27
   9   1  -4  215.63   10.30
   9   1  -4  211.70   10.53
   9  -1  -3  231.80   10.81
   9   1  -3  251.07   11.39
   9   1  -3  251.54   10.82
   9  -1  -3  249.07   11.65
   9   1  -3  238.29   10.83
   9   1  -2  140.80    8.15
   9  -1  -2  130.93    8.54
   9  -1  -2  136.07    8.31
   9   1  -2  128.61    8.08
   9   1  -2  144.77    8.57
   9  -1  -1  380.63   14.07
   9   1  -1  363.14   13.22
   9  -1  -1  373.52   14.17
   9   1  -1  393.92   13.95
   9   1  -1  367.58   13.68
   9  -1   0  645.24   18.31
   9  -1   0  658.63   19.11
   9   1   0  681.85   18.14
   9   1   0  646.82   18.10
   9  -1   1  380.90   14.09
   9   1   1  358.13   13.42
   9  -1   1  362.49   14.20
   9   1   1  349.63   13.28
   9  -1   2  133.53    8.47
   9   1   2  129.71    8.11
   9  -1   2  130.08    8.34
   9   1   2  130.23    8.07
   9  -1   3  259.85   11.93
   9   1   3  259.74   11.68
   9   1   3  243.27   10.89
   9  -1   4  227.65   11.32
   9   1   4  211.57   10.61
   9   1   4  198.86    9.81
   9   1   5  249.24   11.62
   9   1   5  254.41   11.07
   9  -1   6  133.10    8.73
   9   1   6  115.75    8.04
   9   1   6  114.87    7.32
   9  -1   7   88.70    7.10
   9   1   7  100.20    7.39
   9   1   7   89.25    6.33
   9   1   8   78.30    6.86
   9   1   8   78.85    6.13
   9  -1   9  315.28   13.87
   9   1   9  299.55   13.40
   9   1   9  319.85   12.25
   9  -1  10   40.76    5.11
   9   1  10   41.07    4.52
   9   1  10   36.61    4.83
   9  -1  11  409.52   16.13
   9   1  11  390.60   13.41
   9   1  11  403.54   16.24
   9   1  12   54.16    4.95
   9   1  12   50.95    5.91
   9  -1  12   68.89    6.67
   9  -1  13    2.03    1.89
   9   1  13    6.80    2.21
   9   1  13    3.81    0.80
   9  -1  14    3.63    1.84
   9   1  14    6.42    1.94
   9   1  14    3.80    1.67
   9  -1  15  139.76    9.96
   9   1  15  134.17    9.86
   9  -1  16   46.39    5.92
   9   1  16   41.16    5.68
   9  -1  17  166.18   11.35
   9   1  17  189.85   12.16
   9  -1  18    8.52    2.86
   9   1  18    4.68    2.18
   9  -1  19   30.14    5.04
   9   1  19   34.46    5.26
   9  -1  20    7.99    2.96
   9   1  20    8.76    2.83
   9  -1  21   43.47    6.21
   9   1  21   44.89    6.50
   9   1  22   17.33    4.01
   9  -1  22   26.63    5.05
   9   1  23    5.41    2.08
   9  -1  23    3.07    2.07
   9   1  24    0.92    1.98
   9   1  25   11.06    3.63
   9  -2 -27    0.09    1.01
   9  -2 -26    7.17    2.86
   9  -2 -25    0.29    1.93
   9  -2 -24   -0.17    1.48
   9  -2 -23   -0.19    1.40
   9  -2 -22    3.01    1.95
   9  -2 -21    0.42    1.03
   9  -2 -20   -0.44    1.09
   9  -2 -19   -0.79    1.40
   9  -2 -18   10.65    3.00
   9   2 -17    7.90    3.50
   9  -2 -17    0.28    1.12
   9   2 -17    4.96    2.24
   9   2 -16    5.79    2.28
   9  -2 -16    2.65    1.24
   9   2 -16    6.21    2.40
   9  -2 -16    5.71    2.85
   9   2 -15    2.05    2.16
   9  -2 -15   -0.95    1.14
   9   2 -15    0.58    1.39
   9  -2 -15    2.42    1.81
   9   2 -14    1.99    1.07
   9  -2 -14    1.02    1.59
   9  -2 -14    2.94    1.39
   9   2 -14    0.64    1.09
   9  -2 -13    1.83    1.26
   9   2 -13    3.97    1.69
   9  -2 -13    1.82    1.56
   9   2 -13    0.28    0.81
   9  -2 -12    6.00    2.19
   9  -2 -12    4.59    1.75
   9   2 -12    7.19    1.99
   9   2 -12    9.20    2.55
   9  -2 -11    6.59    2.25
   9   2 -11    7.24    2.31
   9  -2 -11    8.02    2.28
   9   2 -11    6.16    2.23
   9  -2 -10    0.04    0.68
   9   2 -10   -0.70    0.54
   9   2 -10    1.44    0.79
   9  -2 -10   -0.77    1.56
   9   2 -10    2.67    1.92
   9  -2  -9    0.79    0.66
   9  -2  -9    0.33    1.00
   9   2  -9   -0.34    1.01
   9   2  -9    1.33    0.96
   9   2  -9    1.13    0.96
   9  -2  -8   15.38    3.12
   9   2  -8   16.97    2.64
   9  -2  -8   19.19    3.45
   9   2  -8   15.07    2.59
   9   2  -8   16.75    3.15
   9   2  -7   12.57    2.62
   9  -2  -7    9.24    2.13
   9  -2  -7   10.06    2.67
   9   2  -7   10.31    2.32
   9   2  -7    5.94    1.63
   9   2  -6    3.30    1.65
   9  -2  -6    7.49    2.08
   9  -2  -6    6.14    2.27
   9   2  -6    6.91    2.04
   9   2  -6    6.50    1.82
   9   2  -5    3.03    0.99
   9   2  -5    3.06    1.33
   9  -2  -5    3.14    1.57
   9  -2  -5    2.47    1.12
   9   2  -5    3.47    1.34
   9   2  -4    1.04    1.18
   9   2  -4    1.33    0.68
   9  -2  -4    0.86    0.53
   9  -2  -4    1.01    1.17
   9   2  -4    1.79    0.82
   9   2  -3    4.72    1.97
   9   2  -3    9.07    2.27
   9  -2  -3    6.67    2.06
   9  -2  -3    4.30    1.76
   9   2  -3    8.76    2.28
   9   2  -2   10.22    2.44
   9   2  -2    7.04    1.86
   9  -2  -2    8.82    2.46
   9  -2  -2   10.20    2.48
   9   2  -2    5.44    1.64
   9  -2  -1   28.31    3.71
   9  -2  -1   25.06    3.74
   9   2  -1   26.13    3.47
   9   2  -1   25.29    3.55
   9   2  -1   26.27    3.66
   9  -2   0   20.35    3.48
   9  -2   0   15.88    2.87
   9   2   0   15.77    2.82
   9   2   0   14.49    2.82
   9  -2   1   20.93    3.54
   9  -2   1   23.09    3.84
   9   2   1   30.66    4.03
   9   2   2    8.72    2.23
   9   2   2    8.67    2.37
   9  -2   2   11.79    2.60
   9  -2   2   10.20    2.67
   9   2   3    4.97    1.40
   9   2   3    6.92    1.75
   9  -2   3   11.14    2.56
   9  -2   3    7.17    2.02
   9   2   4    0.26    0.56
   9   2   4    1.12    1.26
   9  -2   4    0.62    0.94
   9   2   5    1.88    1.50
   9   2   5    3.63    1.17
   9  -2   5    3.74    1.68
   9   2   6    5.19    1.52
   9   2   6    7.19    2.14
   9  -2   6    4.99    1.73
   9   2   7   13.38    2.67
   9   2   7   14.78    3.00
   9  -2   7   10.12    2.69
   9   2   8   13.59    2.90
   9  -2   8   19.17    3.42
   9   2   8   15.98    2.87
   9   2   9    1.19    1.05
   9   2   9    0.11    1.14
   9  -2   9   -0.50    0.86
   9   2  10    1.49    1.20
   9   2  10   -0.15    1.03
   9  -2  10    0.11    1.40
   9   2  11    7.59    1.85
   9   2  11    4.86    1.46
   9  -2  11    8.00    2.39
   9   2  12    8.40    1.97
   9   2  12    6.44    2.59
   9  -2  12    7.69    1.57
   9   2  13    1.57    0.84
   9   2  13    0.61    1.44
   9  -2  13    4.32    2.39
   9   2  14    2.00    1.50
   9   2  14    2.23    0.89
   9  -2  14    1.65    1.92
   9   2  15   -0.47    1.39
   9  -2  15    2.03    1.83
   9   2  16    3.78    1.72
   9  -2  16    3.47    1.44
   9   2  17    2.76    1.11
   9  -2  17    5.62    2.75
   9  -2  18    6.66    2.44
   9   2  18   10.45    3.13
   9   2  19    2.89    2.56
   9  -2  19    0.52    1.55
   9   2  20   -0.29    0.94
   9  -2  20    0.55    1.49
   9   2  21    0.86    1.23
   9  -2  21    3.82    2.11
   9   2  22    3.61    1.56
   9   2  23    4.77    2.28
   9   2  24    1.41    1.73
   9   2  25    5.54    3.91
   9   2  26    1.37    2.69
   9  -3 -27   27.30    5.44
   9  -3 -26    4.90    1.60
   9  -3 -25   30.44    5.76
   9  -3 -24    0.90    1.70
   9  -3 -23    5.23    2.69
   9  -3 -22   34.75    5.60
   9  -3 -21   36.64    6.08
   9  -3 -20    0.14    1.17
   9  -3 -19   12.98    3.07
   9   3 -19   18.46    4.11
   9  -3 -18   32.49    5.17
   9   3 -18   30.29    5.11
   9  -3 -17   22.32    4.82
   9  -3 -17   15.76    3.35
   9   3 -17   11.70    3.05
   9  -3 -16  203.44   12.97
   9  -3 -16  210.27   12.63
   9  -3 -15   21.93    4.02
   9  -3 -15   22.89    4.27
   9   3 -15   32.58    4.74
   9  -3 -14   54.74    6.54
   9  -3 -14   56.19    6.35
   9   3 -14   52.68    6.02
   9  -3 -13   44.55    5.79
   9  -3 -13   35.88    5.22
   9   3 -13   42.39    5.51
   9  -3 -12  239.97   13.23
   9  -3 -12  210.94   11.93
   9   3 -12  242.46   12.87
   9  -3 -11  243.23   13.03
   9  -3 -11  257.72   13.08
   9   3 -11  269.60   13.40
   9  -3 -10  350.47   15.71
   9   3 -10  367.04   13.27
   9  -3 -10  352.43   15.46
   9   3 -10  397.81   15.94
   9   3  -9    3.30    1.73
   9  -3  -9    1.88    1.39
   9   3  -9    3.01    1.32
   9  -3  -9    1.87    1.69
   9   3  -9    3.64    1.13
   9   3  -8   63.00    5.22
   9   3  -8   59.77    5.18
   9  -3  -8   54.62    5.91
   9   3  -8   61.46    6.20
   9  -3  -8   70.01    6.68
   9  -3  -7  624.39   20.24
   9   3  -7  614.93   16.38
   9   3  -7  627.30   16.65
   9   3  -7  599.88   19.22
   9  -3  -7  607.00   19.48
   9  -3  -6   67.10    6.59
   9   3  -6   55.06    5.05
   9   3  -6   58.58    5.18
   9   3  -6   50.90    5.37
   9  -3  -6   62.14    6.20
   9  -3  -5  864.12   23.13
   9   3  -5  792.62   18.84
   9  -3  -5  837.39   23.11
   9   3  -5  830.75   19.82
   9   3  -5  840.72   22.29
   9  -3  -4  426.46   16.26
   9  -3  -4  420.46   16.28
   9   3  -4  389.69   13.50
   9   3  -4  422.81   14.35
   9   3  -4  420.29   15.66
   9   3  -3   -0.24    1.14
   9  -3  -3   -0.42    1.31
   9   3  -3    1.92    1.37
   9  -3  -3    1.62    1.67
   9   3  -3    0.89    0.99
   9  -3  -2   36.55    4.92
   9  -3  -2   32.23    4.77
   9   3  -2   30.75    3.83
   9   3  -2   31.76    4.29
   9   3  -2   32.65    4.18
   9   3  -1 1260.22   25.35
   9  -3  -1 1267.55   27.65
   9   3  -1 1280.60   26.88
   9   3   0   21.26    3.34
   9   3   0   13.99    2.61
   9  -3   0   24.62    3.91
   9  -3   0   16.15    2.70
   9   3   1 1253.77   25.82
   9  -3   1 1292.36   28.20
   9  -3   1 1238.50   27.45
   9   3   1 1252.35   26.60
   9   3   2   30.07    4.10
   9  -3   2   32.24    4.60
   9  -3   2   28.74    4.27
   9   3   2   41.21    4.83
   9   3   3    0.53    1.44
   9  -3   3    4.78    1.76
   9   3   3    2.90    1.19
   9  -3   3   -0.20    1.12
   9   3   4  413.21   15.42
   9  -3   4  402.93   15.67
   9   3   4  417.69   15.54
   9  -3   4  413.95   16.06
   9   3   5  864.23   22.54
   9  -3   5  831.70   22.90
   9  -3   5  868.37   23.22
   9   3   5  835.42   21.80
   9   3   6   56.92    6.05
   9  -3   6   57.48    6.13
   9   3   6   54.16    5.65
   9   3   7  639.54   19.22
   9   3   7  622.41   19.70
   9  -3   7  601.86   19.60
   9   3   8   56.48    5.85
   9   3   8   78.31    6.94
   9  -3   8   70.94    6.77
   9   3   9    1.78    0.79
   9  -3   9    2.54    1.11
   9   3   9    3.33    2.16
   9   3  10  367.94   14.69
   9   3  10  354.85   15.63
   9  -3  10  374.34   15.78
   9   3  11  243.59   12.11
   9   3  11  265.30   13.51
   9  -3  11  265.74   13.50
   9   3  12  233.31   12.65
   9  -3  12  225.81   12.50
   9   3  12  224.28   11.59
   9   3  13   40.42    5.61
   9  -3  13   38.63    5.39
   9   3  13   40.54    5.05
   9   3  14   57.21    6.44
   9  -3  14   59.18    6.58
   9   3  14   48.76    5.52
   9   3  15   36.50    5.45
   9  -3  15   26.49    4.13
   9   3  15   32.58    4.62
   9   3  16  215.10   12.84
   9  -3  16  215.21   12.70
   9  -3  17   18.94    3.74
   9   3  17   16.76    3.76
   9   3  18   41.94    5.83
   9  -3  18   33.70    5.05
   9  -3  19   11.68    2.78
   9   3  19   17.42    4.43
   9  -3  20    1.96    2.31
   9   3  20    1.48    1.12
   9   3  21   32.00    5.70
   9   3  22   35.87    5.81
   9   3  23    4.38    2.54
   9   3  24    8.70    3.08
   9   3  25   32.86    5.86
   9   3  26    0.10    1.24
   9   3  27   25.01    5.83
   9  -4 -26   -1.54    1.36
   9  -4 -25   -1.83    1.93
   9  -4 -24    1.64    1.38
   9  -4 -23    1.36    1.69
   9  -4 -22   -1.33    1.83
   9  -4 -21    4.29    2.35
   9  -4 -20    1.03    1.36
   9  -4 -19    2.04    2.05
   9  -4 -18    3.39    2.08
   9   4 -18    3.11    1.94
   9  -4 -18    0.16    0.86
   9  -4 -17   77.75    8.02
   9  -4 -17   74.40    7.89
   9   4 -17   75.24    7.64
   9  -4 -16    2.28    2.00
   9  -4 -16   -1.05    1.96
   9   4 -16    0.35    0.80
   9  -4 -15    7.84    2.78
   9  -4 -15    4.63    1.23
   9   4 -15    6.16    2.23
   9   4 -14    9.26    2.41
   9  -4 -14    9.55    3.41
   9  -4 -14    6.61    2.50
   9   4 -13    3.04    2.61
   9  -4 -13    0.17    0.90
   9  -4 -13    1.70    1.11
   9  -4 -12   37.12    5.28
   9  -4 -12   30.60    4.93
   9   4 -12   40.74    5.40
   9  -4 -11  112.48    9.20
   9  -4 -11  112.81    9.07
   9   4 -11  134.08    9.66
   9   4 -10    3.55    1.47
   9  -4 -10    0.28    0.86
   9  -4 -10   -1.15    1.86
   9  -4  -9   74.96    7.46
   9  -4  -9   85.38    7.70
   9   4  -9   93.19    8.03
   9  -4  -8   61.65    6.79
   9   4  -8   57.36    5.27
   9  -4  -8   67.23    6.81
   9   4  -8   53.03    5.96
   9   4  -7    0.02    2.09
   9  -4  -7    0.24    0.80
   9   4  -7   -1.41    0.93
   9  -4  -7    0.68    1.58
   9  -4  -6  105.69    8.71
   9  -4  -6  110.70    8.72
   9   4  -6  110.64    7.53
   9   4  -6  106.86    8.35
   9  -4  -5   52.16    5.88
   9  -4  -5   55.92    6.30
   9   4  -5   48.09    5.55
   9   4  -5   58.58    5.43
   9   4  -4   33.74    4.11
   9  -4  -4   38.96    5.13
   9   4  -4   31.96    3.66
   9  -4  -4   41.18    5.20
   9   4  -4   38.92    4.95
   9   4  -3   10.61    2.91
   9  -4  -3   14.73    3.28
   9   4  -3    9.58    2.35
   9  -4  -3    7.14    2.41
   9   4  -3    9.59    2.02
   9  -4  -2   79.41    7.20
   9   4  -2   73.86    6.32
   9  -4  -2   74.03    7.04
   9   4  -2   91.30    6.24
   9   4  -2   74.70    7.07
   9   4  -1   -1.00    1.39
   9  -4  -1    2.67    1.65
   9  -4  -1    0.90    1.04
   9   4  -1    3.30    1.62
   9   4   0  246.25   12.48
   9  -4   0  258.27   13.05
   9   4   0  238.25   11.52
   9  -4   0  229.11   12.36
   9   4   1    1.15    0.91
   9  -4   1    0.59    1.18
   9  -4   1   -1.22    0.97
   9   4   1    2.84    1.49
   9   4   2   92.31    7.76
   9  -4   2   90.65    7.70
   9   4   2   88.48    7.18
   9  -4   2   81.11    7.43
   9   4   3   12.20    2.87
   9   4   3    8.60    2.64
   9  -4   3   11.32    3.24
   9  -4   3   12.22    2.78
   9   4   4   39.21    4.71
   9  -4   4   33.76    4.89
   9   4   4   33.51    4.43
   9  -4   4   33.33    4.75
   9   4   5   49.90    5.60
   9  -4   5   58.41    6.36
   9   4   5   51.59    5.52
   9  -4   5   61.30    6.23
   9   4   6  121.00    8.73
   9  -4   6  118.89    9.00
   9   4   6  111.10    8.60
   9  -4   6  121.16    9.08
   9   4   7    0.01    0.83
   9   4   7    0.01    1.82
   9  -4   7    1.88    2.24
   9  -4   7    0.78    1.72
   9   4   8   73.44    6.90
   9  -4   8   49.18    5.66
   9   4   8   64.82    6.66
   9  -4   8   64.16    6.60
   9   4   9   83.66    7.41
   9  -4   9   86.24    7.94
   9   4   9   84.13    7.61
   9   4  10    2.17    0.70
   9   4  10    2.02    1.25
   9  -4  10   -0.58    1.86
   9   4  11  128.95    9.45
   9  -4  11  132.06    9.77
   9   4  11  110.26    8.94
   9   4  12   29.88    4.69
   9  -4  12   40.28    5.58
   9   4  12   24.27    4.60
   9   4  13    2.79    1.11
   9   4  13    3.35    1.56
   9  -4  13    0.83    1.00
   9   4  14    9.87    2.63
   9   4  14    5.50    2.78
   9  -4  14   10.92    2.97
   9   4  15    3.57    1.67
   9   4  15    4.83    1.65
   9  -4  15    5.77    2.12
   9   4  16    0.80    0.92
   9   4  16    0.85    0.97
   9  -4  16    0.56    1.93
   9  -4  17   79.47    7.98
   9   4  17   70.55    7.61
   9  -4  18    2.03    2.40
   9   4  18    3.19    1.82
   9  -4  19   -1.47    1.89
   9   4  19    0.92    1.91
   9   4  20   -0.40    1.36
   9   4  21    1.69    1.86
   9   4  22    0.75    1.29
   9   4  23    4.04    2.73
   9   4  24   -0.16    1.24
   9   4  25   -2.55    1.37
   9   4  26    3.75    2.73
   9  -5 -24    0.94    1.63
   9  -5 -23    2.42    2.03
   9  -5 -22    5.95    3.19
   9  -5 -21   21.05    4.39
   9  -5 -20    2.94    1.60
   9  -5 -19    4.22    2.51
   9  -5 -19    3.99    1.77
   9  -5 -18   -1.50    1.28
   9  -5 -18    0.90    1.65
   9  -5 -17    3.49    2.15
   9  -5 -17    2.48    1.30
   9   5 -17   -0.47    1.08
   9   5 -16    7.15    2.83
   9  -5 -16    1.90    1.98
   9  -5 -16    2.09    1.47
   9  -5 -15   91.21    9.07
   9  -5 -15   76.05    8.20
   9   5 -15   81.40    8.25
   9   5 -14   14.15    3.44
   9  -5 -14   18.10    3.99
   9  -5 -14    9.60    3.08
   9   5 -13    0.31    1.50
   9  -5 -13    0.87    1.02
   9  -5 -13    0.35    1.31
   9   5 -12   21.30    3.96
   9  -5 -12   22.70    4.13
   9  -5 -12   22.09    4.28
   9  -5 -11   86.31    8.17
   9  -5 -11   93.21    8.67
   9   5 -11   81.31    7.58
   9  -5 -10    9.22    2.97
   9   5 -10    5.78    2.15
   9  -5 -10    5.48    2.01
   9  -5  -9    4.59    1.81
   9   5  -9    8.20    2.91
   9  -5  -9    6.75    2.13
   9  -5  -8    1.30    1.80
   9   5  -8   -0.58    0.74
   9  -5  -8    0.26    0.91
   9   5  -7   22.23    3.91
   9  -5  -7   17.93    3.82
   9  -5  -7   24.89    4.47
   9   5  -6   17.71    3.21
   9  -5  -6   15.00    3.40
   9   5  -6   10.33    2.81
   9  -5  -6   12.56    3.00
   9   5  -5  181.85    9.94
   9  -5  -5  194.86   11.99
   9  -5  -5  178.21   11.29
   9   5  -5  175.78   11.12
   9   5  -4   29.38    4.59
   9   5  -4   20.96    3.38
   9  -5  -4   22.31    4.26
   9  -5  -4   19.09    4.05
   9   5  -3    9.28    2.60
   9  -5  -3    8.71    2.84
   9  -5  -3    6.39    2.56
   9   5  -3    7.74    1.94
   9   5  -2    4.99    2.01
   9   5  -2    7.16    2.73
   9  -5  -2    8.96    3.10
   9  -5  -2   12.18    3.22
   9  -5  -1  183.97   11.51
   9   5  -1  174.19   10.27
   9  -5  -1  169.85   11.00
   9   5   0   21.65    3.73
   9  -5   0   16.91    3.73
   9   5   0   27.29    4.28
   9  -5   0   23.39    4.10
   9   5   1  171.78   11.10
   9   5   1  173.10   10.66
   9  -5   1  175.25   11.23
   9  -5   1  176.28   11.27
   9   5   2    6.86    2.39
   9   5   2    6.90    2.26
   9  -5   2    4.75    2.33
   9  -5   2    9.24    2.23
   9   5   3    3.80    1.82
   9   5   3    6.70    2.19
   9  -5   3    9.64    2.59
   9  -5   3    7.14    2.80
   9   5   4   30.19    4.60
   9   5   4   18.00    3.47
   9  -5   4   21.67    4.03
   9  -5   4   18.10    3.16
   9  -5   5  171.94   11.19
   9   5   5  183.19   11.55
   9   5   5  155.45   10.34
   9  -5   5  158.93   10.89
   9   5   6   16.65    3.24
   9   5   6   17.05    3.60
   9  -5   6   13.16    3.04
   9  -5   6   14.69    3.13
   9   5   7   21.10    3.92
   9   5   7   18.47    3.73
   9  -5   7   18.14    3.92
   9  -5   7   25.65    4.50
   9   5   8    0.47    0.95
   9   5   8    0.56    1.23
   9  -5   8    0.74    1.30
   9  -5   8   -0.92    1.09
   9   5   9    9.34    1.77
   9   5   9    8.86    2.73
   9  -5   9    3.52    1.88
   9  -5   9    8.29    3.14
   9   5  10    2.48    1.94
   9  -5  10    4.15    2.13
   9  -5  10    0.21    0.87
   9   5  11  103.28    8.83
   9  -5  11  116.88    9.63
   9   5  11  100.39    8.66
   9  -5  11   95.56    8.43
   9   5  12   16.43    3.79
   9   5  12   14.22    3.11
   9  -5  12   24.58    4.31
   9   5  13   -0.43    1.49
   9   5  13    1.78    2.03
   9  -5  13   -0.94    1.40
   9   5  14    7.35    2.87
   9   5  14   14.43    4.00
   9  -5  14   14.00    3.39
   9   5  15   61.77    6.94
   9  -5  15   69.31    7.70
   9   5  15   80.72    8.24
   9   5  16    3.52    1.93
   9   5  16   10.10    3.30
   9  -5  16    5.15    2.83
   9   5  17    2.19    1.47
   9  -5  17    2.85    1.17
   9   5  18    1.04    1.00
   9  -5  18    3.10    1.80
   9   5  19    6.91    2.90
   9   5  20    5.88    2.85
   9   5  21   10.89    3.51
   9   5  22    2.31    1.74
   9   5  23    0.45    1.93
   9   5  24    0.95    2.42
   9  -6 -23    3.62    3.03
   9  -6 -22    4.01    2.50
   9  -6 -21   -0.95    1.19
   9  -6 -20   -1.94    1.76
   9  -6 -20    0.93    1.29
   9  -6 -19    7.44    3.48
   9  -6 -19    8.47    3.52
   9  -6 -18    8.07    2.85
   9  -6 -18    4.68    2.65
   9   6 -17    2.49    2.45
   9  -6 -17    1.88    1.28
   9  -6 -17    1.33    2.01
   9   6 -16   14.68    3.76
   9  -6 -16   10.27    2.92
   9  -6 -16   10.19    3.42
   9   6 -15   15.53    3.59
   9  -6 -15    9.79    3.96
   9  -6 -15    9.56    3.17
   9   6 -14    6.11    2.82
   9  -6 -14    2.79    1.35
   9  -6 -14    6.64    1.99
   9   6 -13    5.35    2.83
   9  -6 -13    3.86    2.17
   9  -6 -13    6.01    2.26
   9   6 -12    1.82    2.17
   9  -6 -12    0.96    1.78
   9  -6 -12    2.62    2.40
   9   6 -11    1.12    1.62
   9  -6 -11   -0.22    1.05
   9  -6 -11   -1.17    1.66
   9   6 -10   15.49    3.46
   9  -6 -10   12.31    3.52
   9  -6 -10    6.24    2.72
   9   6  -9    0.71    1.56
  -9   6  -9   -2.07    1.22
   9  -6  -9    0.65    1.37
   9  -6  -9    2.50    1.94
   9  -6  -8   15.59    3.96
  -9   6  -8   23.99    4.38
   9  -6  -8   31.45    5.21
   9   6  -8   34.18    5.09
   9  -6  -7   21.61    4.32
   9   6  -7   17.14    3.35
   9  -6  -7   25.13    4.50
   9  -6  -6    0.74    1.45
   9   6  -6    2.62    2.04
   9  -6  -6    0.75    0.95
   9  -6  -5    1.54    2.21
   9   6  -5    5.40    3.28
   9  -6  -5    3.61    2.30
   9   6  -5   -0.16    0.97
   9   6  -4    7.27    2.09
   9  -6  -4   11.04    3.17
   9   6  -4    6.74    2.39
   9  -6  -4    6.33    2.59
   9  -6  -3    4.09    1.87
   9   6  -3    2.63    1.73
   9   6  -3    2.18    1.77
   9  -6  -3   -1.02    1.45
   9  -6  -2    0.98    0.91
   9   6  -2    1.90    2.07
   9   6  -2    4.15    1.93
   9  -6  -2    2.06    1.67
   9   6  -1   28.10    4.28
   9   6  -1   17.82    3.46
   9  -6  -1   29.93    4.91
   9  -6  -1   22.38    4.60
   9   6   0   24.40    4.06
   9   6   0   27.38    4.53
   9  -6   0   31.12    4.68
   9  -6   0   26.29    4.77
   9   6   1   23.03    4.47
   9  -6   1   17.89    4.09
   9   6   1   27.78    4.49
   9  -6   1   23.52    3.82
   9  -6   2    4.08    1.44
   9   6   2    2.17    1.63
   9   6   2    0.71    1.52
   9  -6   2    3.57    1.63
   9   6   3    4.08    2.53
   9  -6   3    2.37    1.93
   9   6   3    0.57    0.92
   9  -6   3    1.38    1.21
   9   6   4    8.87    3.28
   9  -6   4    6.97    2.16
   9   6   4    8.59    2.66
   9  -6   4    4.31    0.99
   9   6   5    3.21    2.08
   9  -6   5   -0.85    1.39
   9   6   5    2.00    1.39
   9  -6   5    0.95    1.33
   9   6   6    0.59    1.98
   9  -6   6   -0.79    2.17
   9   6   6    0.09    1.22
   9  -6   6    1.39    0.93
   9   6   7   18.88    3.64
   9  -6   7   17.22    3.76
   9   6   7   15.44    3.54
   9  -6   7   24.94    4.52
   9   6   8   30.90    5.32
   9  -6   8   18.67    3.87
   9   6   8   25.58    4.61
   9  -6   8   20.88    4.18
   9   6   9    2.62    2.12
   9  -6   9    3.62    1.63
   9   6   9    2.62    1.99
   9  -6   9    2.51    2.09
   9   6  10   14.25    3.53
   9  -6  10   12.33    3.30
   9   6  10   14.43    3.61
   9  -6  10    8.33    2.67
   9   6  11    0.93    1.57
   9  -6  11   -0.94    1.67
   9   6  11    0.94    1.09
   9  -6  11    1.30    1.88
   9   6  12    2.36    0.99
   9  -6  12    2.49    1.74
   9   6  12    2.58    2.06
   9  -6  12    2.02    1.06
   9   6  13   11.93    3.29
   9  -6  13    6.75    2.73
   9   6  13   10.50    3.42
   9  -6  13    1.48    1.20
   9   6  14    3.16    1.66
   9  -6  14    2.91    1.98
   9   6  14    1.87    1.70
   9  -6  14    2.59    1.04
   9   6  15   15.30    4.19
   9  -6  15   16.04    3.68
   9   6  15   15.86    3.35
   9  -6  15   13.66    3.69
   9   6  16   14.27    3.90
   9  -6  16   12.05    3.62
   9   6  16    7.27    2.55
   9   6  17    1.94    1.57
   9   6  17    1.88    1.61
   9   6  18    6.02    2.58
   9   6  19    6.55    2.80
   9   6  20    4.24    2.97
   9   6  21   -0.71    1.90
   9   6  22    6.36    3.42
   9   6  23   -1.72    1.46
   9  -7 -21    8.74    3.06
   9  -7 -21    7.45    2.82
   9  -7 -20    0.96    1.29
   9  -7 -20    0.07    1.82
   9  -7 -19    1.58    2.15
   9  -7 -19    6.90    3.83
   9  -7 -18    7.21    2.91
   9  -7 -18    3.30    2.54
   9  -7 -17    4.25    1.41
   9  -7 -17    5.33    3.16
   9   7 -16    2.10    2.67
   9  -7 -16    0.72    1.58
   9  -7 -16    0.96    2.06
   9  -7 -15   65.55    8.13
   9  -7 -15   48.32    7.37
   9   7 -15   55.93    7.08
   9  -7 -14    1.20    1.97
   9   7 -14    6.74    2.56
   9  -7 -14    0.36    2.05
   9   7 -13    3.41    1.71
   9  -7 -13    0.39    1.87
   9  -7 -13   -1.48    1.68
   9   7 -12    5.13    2.51
   9  -7 -12    2.24    2.36
   9  -7 -12    2.42    2.70
   9  -7 -11   61.28    7.27
   9  -7 -11   60.06    7.55
   9   7 -11   54.89    7.07
   9   7 -10    9.53    3.30
   9  -7 -10   12.69    3.56
   9  -7 -10    8.56    2.58
   9   7  -9   16.12    3.76
   9  -7  -9   11.74    3.13
   9  -7  -9   19.90    4.25
   9   7  -8    7.56    2.90
  -9   7  -8    3.05    2.55
   9  -7  -8    3.14    2.28
   9  -7  -8    8.30    2.36
   9  -7  -7    1.66    1.01
   9   7  -7    4.05    2.94
  -9   7  -7    3.91    2.62
   9  -7  -7    3.13    2.17
   9   7  -6   15.33    3.84
  -9   7  -6   23.43    4.78
   9  -7  -6   15.24    3.81
   9  -7  -6   21.33    4.18
   9   7  -5   73.66    7.65
  -9   7  -5   78.88    8.02
   9  -7  -5   96.17    8.92
   9  -7  -5   75.41    8.17
   9  -7  -4    1.66    2.09
   9   7  -4    3.21    2.55
   9   7  -4    2.63    1.66
  -9   7  -4    2.54    0.91
   9  -7  -4    7.03    2.40
   9  -7  -3    1.62    1.15
   9   7  -3    8.94    3.06
   9   7  -3   11.52    3.05
  -9   7  -3    4.70    1.30
   9  -7  -3    6.07    2.86
   9  -7  -2   -0.82    1.66
   9   7  -2    1.58    1.08
   9  -7  -2   -0.59    1.50
   9   7  -1   61.21    6.95
   9   7  -1   51.36    6.07
   9  -7  -1   48.65    6.68
   9  -7  -1   55.69    6.66
   9   7   0   85.08    8.29
   9   7   0   95.30    8.44
   9  -7   0   96.74    8.67
   9  -7   0  106.86    9.38
   9   7   1   52.27    6.83
   9   7   1   58.84    6.80
   9  -7   1   38.51    5.84
   9  -7   1   52.72    6.57
   9  -7   2    4.06    3.40
   9   7   2    1.91    1.46
   9   7   2    5.58    2.40
   9  -7   2    1.03    2.09
   9  -7   3   10.06    3.19
   9   7   3    7.02    3.14
   9  -7   3    6.81    1.81
   9  -7   4   -0.93    1.80
   9   7   4   -1.93    1.27
   9  -7   4    1.26    1.27
   9   7   5   68.83    7.80
   9   7   5   82.97    8.26
   9  -7   5   73.76    8.10
   9  -7   5   74.69    7.73
   9  -7   6   15.13    3.67
   9   7   6   13.54    3.67
   9   7   6   17.75    3.65
   9  -7   6   23.01    4.63
   9  -7   7    3.73    2.34
   9   7   7    1.04    1.04
   9   7   7    2.84    1.71
   9  -7   7    1.38    1.69
   9  -7   8   10.18    3.53
   9   7   8    4.07    1.82
   9   7   8    5.59    2.63
   9  -7   8    4.72    1.57
   9  -7   9   15.74    4.24
   9   7   9   17.74    3.97
   9  -7   9   16.73    3.76
   9   7   9   15.11    3.23
   9  -7  10    7.36    3.23
   9   7  10    7.56    3.16
   9   7  10    8.99    3.12
   9  -7  10    9.12    3.54
   9   7  11   77.08    8.17
   9   7  11   59.11    7.37
   9  -7  11   61.73    7.60
   9  -7  11   70.56    8.15
   9  -7  12    1.94    1.92
   9   7  12   -0.71    1.20
   9  -7  12    1.49    2.05
   9  -7  13   -0.29    1.82
   9   7  13    3.25    1.95
   9   7  13    1.49    1.17
   9  -7  14    2.24    1.69
   9   7  14    3.32    3.06
   9   7  14    5.45    3.19
   9   7  15   52.99    6.66
   9  -7  15   48.65    7.10
   9   7  16    3.56    1.77
   9   7  16    1.68    2.07
   9   7  17    2.97    1.28
   9   7  17    4.14    2.25
   9   7  18    0.74    1.29
   9   7  19    0.17    1.01
  -9   7  19    0.36    2.26
   9   7  20    8.36    3.58
  -9   7  20    6.60    2.98
   9   7  21    4.72    2.19
  -9   7  21    5.45    2.33
   9  -8 -18    2.73    2.44
   9  -8 -18    1.24    1.03
   9  -8 -17    0.15    1.81
   9  -8 -17   -2.79    2.92
   9  -8 -16   -1.02    1.92
   9  -8 -16   -0.39    1.43
   9   8 -15    2.48    2.60
   9  -8 -15    2.90    2.05
   9  -8 -15    0.15    1.56
   9   8 -14   -1.53    1.26
   9  -8 -14    0.95    1.58
   9  -8 -14    0.71    1.95
   9   8 -13   -0.32    1.29
   9  -8 -13    1.17    1.65
   9  -8 -13   -0.01    1.49
   9   8 -12    3.74    1.97
   9  -8 -12    1.78    1.16
   9  -8 -12   -0.30    1.63
   9   8 -11   -1.51    1.84
   9  -8 -11    0.51    1.56
   9  -8 -11   -0.18    0.95
   9   8 -10    3.29    2.33
   9  -8 -10    4.36    2.00
   9  -8 -10    8.21    3.15
   9   8  -9    0.39    2.45
   9  -8  -9    0.15    2.59
   9  -8  -9   -0.11    1.19
   9   8  -8    2.70    1.96
   9  -8  -8   -0.16    1.72
   9  -8  -8    5.78    3.13
   9   8  -7    3.75    1.63
  -9   8  -7    4.76    2.66
   9  -8  -7    1.12    1.40
   9  -8  -7    7.00    3.04
   9   8  -6   10.48    3.36
  -9   8  -6   10.50    3.38
   9  -8  -6    7.60    2.77
   9  -8  -6    9.60    3.49
   9   8  -5    3.75    2.06
  -9   8  -5   -0.21    1.49
   9  -8  -5    2.03    2.09
   9  -8  -5   -0.81    1.18
   9   8  -4    3.02    2.73
  -9   8  -4    3.85    2.66
   9  -8  -4    4.03    2.66
   9  -8  -4    3.14    2.48
   9   8  -3    6.46    2.28
  -9   8  -3    1.39    2.23
   9  -8  -3    5.85    2.11
   9  -8  -3    6.80    2.69
   9   8  -2    7.09    3.50
   9   8  -2    8.79    3.10
  -9   8  -2    7.12    2.33
   9  -8  -2   11.69    3.08
   9  -8  -2    2.01    1.01
   9  -8  -1    0.67    2.05
   9   8  -1    2.73    2.00
   9   8  -1    1.88    1.53
  -9   8  -1    3.76    2.36
   9  -8  -1    4.34    2.51
   9  -8   0    2.91    1.99
   9   8   0    0.87    0.98
   9   8   0    4.16    2.10
   9  -8   0    1.33    1.86
  -9   8   0    4.03    2.38
   9  -8   1    2.55    1.87
   9   8   1    0.26    1.14
   9   8   1    2.07    1.56
  -9   8   1    1.88    2.11
   9  -8   1    4.51    2.62
  -9   8   2   10.58    3.01
   9  -8   2    7.31    2.82
   9   8   2    3.67    1.33
   9   8   2    5.89    2.86
   9  -8   2    7.08    2.75
   9  -8   3    4.20    1.79
   9   8   3    0.69    1.36
  -9   8   3    2.74    1.38
   9   8   3    2.22    1.66
   9  -8   3    2.00    2.96
   9  -8   4    4.73    2.27
   9   8   4    1.10    1.02
   9   8   4    0.30    1.81
  -9   8   4    4.82    2.78
   9  -8   4    1.12    1.73
   9  -8   5    3.17    2.72
   9   8   5    3.25    1.68
  -9   8   5    2.18    1.00
   9   8   5    2.84    1.79
   9  -8   5    2.38    2.58
   9  -8   6   16.45    4.03
   9   8   6   11.21    3.66
  -9   8   6   12.55    3.40
   9   8   6    6.29    2.37
   9  -8   6   11.72    3.86
   9  -8   7    4.39    2.64
   9   8   7    6.00    2.73
  -9   8   7    6.04    2.06
   9   8   7    2.81    1.91
   9  -8   8    4.08    1.21
   9   8   8    0.43    1.14
   9   8   8    3.04    1.78
  -9   8   8    3.74    2.68
   9  -8   9   -0.83    1.21
   9   8   9   -0.50    1.22
   9   8   9    0.06    1.13
  -9   8   9    0.98    1.59
   9  -8  10    2.21    2.52
   9   8  10    3.12    2.43
  -9   8  10    3.07    2.31
   9   8  10    2.54    0.86
   9  -8  11    3.89    2.58
   9   8  11    5.32    1.85
  -9   8  11    2.80    1.75
   9   8  11    0.59    1.60
   9  -8  12    2.32    2.42
   9   8  12    0.47    2.04
   9   8  12    1.05    1.98
  -9   8  12    1.72    2.46
   9  -8  13    4.33    2.35
   9   8  13    3.07    1.77
   9   8  13   -1.18    1.05
  -9   8  13   -0.73    1.13
   9   8  14    1.16    0.87
  -9   8  14   -0.83    1.69
   9   8  15    0.20    2.03
   9   8  15   -0.75    1.39
  -9   8  15   -0.08    1.51
   9   8  16    1.00    2.78
   9   8  16    0.88    1.37
  -9   8  16   -0.20    1.48
  -9   8  17   -1.74    1.98
   9   8  17   -0.27    2.82
   9   8  17   -1.75    1.76
   9   8  18    1.45    2.22
  -9   8  18    1.47    1.80
   9   9 -14    2.54    3.03
   9  -9 -14   -0.66    2.56
   9  -9 -14    2.29    2.57
   9   9 -13   -0.09    2.09
   9  -9 -13    0.19    1.83
   9  -9 -13    5.07    2.57
   9   9 -12   -0.88    1.00
   9  -9 -12    1.19    2.82
   9  -9 -12    1.51    1.65
   9   9 -11   14.53    4.18
   9  -9 -11   13.75    4.30
   9  -9 -11   14.86    4.22
   9   9 -10   16.45    3.53
   9  -9 -10   19.75    4.78
   9  -9 -10   22.77    4.79
   9  -9  -9    5.92    3.08
   9  -9  -9    9.68    3.71
   9   9  -8    0.31    1.57
   9  -9  -8   -1.44    1.34
   9  -9  -8    2.64    2.70
   9   9  -7   12.85    3.30
   9  -9  -7   11.00    3.58
   9  -9  -7   11.12    3.69
   9   9  -6   15.40    4.43
  -9   9  -6   17.53    4.53
   9  -9  -6   12.97    4.13
   9  -9  -6    9.31    3.34
   9   9  -5   40.47    6.26
  -9   9  -5   35.05    6.03
   9  -9  -5   44.04    6.23
   9  -9  -5   45.79    6.64
   9   9  -4    3.50    2.02
  -9   9  -4    6.50    3.07
   9  -9  -4   10.79    4.00
   9  -9  -4    2.87    1.78
   9   9  -3    4.38    3.33
  -9   9  -3   -1.22    1.46
   9  -9  -3    2.29    1.93
   9  -9  -3    0.01    0.94
   9   9  -2    0.02    0.97
  -9   9  -2   -0.57    2.08
   9  -9  -2   -2.84    2.74
   9  -9  -2    0.37    0.87
   9   9  -1   14.21    3.83
  -9   9  -1   28.52    5.91
   9   9  -1   19.41    4.22
   9  -9  -1   22.71    4.83
   9  -9  -1   14.03    3.75
   9   9   0   24.70    5.23
  -9   9   0   19.85    4.55
   9   9   0   17.02    4.37
   9  -9   0   17.60    4.05
   9  -9   0   19.51    4.65
   9   9   1   19.72    4.74
  -9   9   1   23.20    4.82
   9   9   1   18.77    4.09
   9  -9   1   19.08    4.70
   9   9   2   -2.00    2.44
   9   9   2    2.52    2.02
  -9   9   2   -1.52    1.07
   9  -9   2   -1.42    2.00
   9   9   3    1.82    1.49
  -9   9   3   -0.85    1.85
   9   9   3    2.82    2.46
   9  -9   3    4.04    3.22
   9   9   4    4.40    2.29
  -9   9   4    8.51    2.11
   9   9   4    7.21    2.94
   9  -9   4    3.15    2.28
   9   9   5   45.14    6.66
  -9   9   5   54.46    7.42
   9   9   5   50.05    6.64
   9  -9   5   38.42    6.14
   9  -9   6    6.99    3.08
   9   9   6   11.84    3.90
  -9   9   6    5.36    1.74
   9   9   6    8.90    3.36
   9  -9   7   12.13    3.03
   9   9   7    8.55    3.13
  -9   9   7   10.17    3.29
   9   9   7   11.46    3.63
   9  -9   8   -2.52    2.04
   9   9   8    3.34    1.75
  -9   9   8    1.76    2.18
   9   9   8   -0.09    0.92
   9  -9   9   15.84    3.95
   9   9   9   13.88    3.91
  -9   9   9   12.77    3.98
   9   9   9   10.07    3.32
   9  -9  10   16.55    4.65
   9   9  10   14.24    3.85
  -9   9  10   20.12    4.01
   9   9  10   19.05    4.49
   9  -9  11   12.34    3.65
   9   9  11   19.45    4.58
  -9   9  11   17.87    4.36
   9   9  11   18.57    4.35
   9  -9  12   -0.27    1.62
   9   9  12    4.79    2.16
  -9   9  12    6.65    2.94
   9   9  12    0.16    1.59
   9   9  13    2.56    2.44
   9   9  13    0.48    1.31
  -9   9  13   -0.03    1.17
   9   9  14    0.51    1.32
  -9   9  14   -0.88    1.60
   9   9  14   -0.61    1.38
   9  10  -9   10.82    3.77
   9 -10  -9   12.29    3.50
   9 -10  -9   15.73    4.12
   9  10  -8    9.21    3.27
   9 -10  -8   11.33    2.93
   9 -10  -8   13.86    4.00
   9  10  -7   -1.16    1.80
   9 -10  -7    2.51    1.56
   9  10  -6   24.55    5.27
   9 -10  -6   25.93    5.51
   9  10  -5    7.47    3.03
  -9  10  -5   -1.07    2.15
   9 -10  -5    3.42    2.37
   9  10  -4    1.47    1.66
  -9  10  -4    3.14    1.44
   9 -10  -4    1.31    2.69
   9  10  -3   -0.14    1.11
  -9  10  -3    3.06    2.58
   9 -10  -3    0.03    1.54
   9  10  -2    7.82    2.78
  -9  10  -2   11.59    3.04
   9 -10  -2   10.70    3.77
   9  10  -1    1.82    2.00
  -9  10  -1    6.50    2.48
   9 -10  -1    0.91    2.35
   9  10   0   38.26    6.34
  -9  10   0   32.69    5.89
   9 -10   0   35.19    6.03
   9  10   1    2.21    2.06
  -9  10   1    2.84    2.17
   9  10   1   -2.12    2.04
   9 -10   1   -1.80    1.62
   9  10   2   12.71    3.88
  -9  10   2   13.29    3.88
   9  10   2   13.30    3.45
   9 -10   2   13.84    3.94
   9  10   3   -1.66    1.69
  -9  10   3    0.70    2.16
   9  10   3    4.17    2.13
   9 -10   3   -1.69    2.14
  -9  10   4   -0.09    1.82
   9  10   4    1.62    1.21
   9 -10   4    3.67    2.36
   9  10   5    4.98    2.64
  -9  10   5    6.21    3.02
   9  10   5    3.34    1.93
   9 -10   5   10.11    3.89
   9  10   6   21.61    5.00
  -9  10   6   23.69    4.78
   9  10   6   17.38    4.41
   9 -10   6   33.86    6.00
   9  10   7    1.55    1.89
  -9  10   7    3.77    2.83
   9  10   7    1.60    0.98
   9 -10   7    4.68    1.34
   9  10   8   11.99    3.62
  -9  10   8    5.97    2.50
   9  10   8   10.28    3.54
   9 -10   8   13.36    4.15
   9  10   9   18.12    4.45
  -9  10   9    7.69    2.73
   9  10   9   15.18    3.88
   9 -10   9   11.74    4.05
  10   0 -26    3.14    3.26
  10   0 -25    4.85    2.02
  10   0 -24   21.57    4.41
  10   0 -23   27.40    5.04
  10   0 -22   18.87    4.79
  10   0 -21   52.64    6.75
  10   0 -20   13.95    3.71
  10   0 -19   34.25    5.40
  10   0 -18   67.47    7.56
  10   0 -17  108.48    9.40
  10   0 -16   50.74    6.21
  10   0 -15  104.52    8.73
  10   0 -14   65.48    6.83
  10   0 -13   -2.44    1.13
  10   0 -13  110.64    8.92
  10   0 -12  131.40    9.47
  10   0 -12  130.94    8.65
  10   0 -11  112.62    7.86
  10   0 -11  121.41    8.84
  10   0 -10   48.68    5.22
  10   0 -10   48.00    5.35
  10   0  -9  111.15    7.72
  10   0  -8  105.08    7.60
  10   0  -8  113.21    8.32
  10   0  -7   77.72    6.43
  10   0  -7   71.19    6.50
  10   0  -7   91.92    7.37
  10   0  -6   40.15    4.62
  10   0  -6   33.83    4.56
  10   0  -6   38.02    4.67
  10   0  -5  112.05    7.74
  10   0  -5  116.15    8.22
  10   0  -5  135.17    8.84
  10   0  -4  157.95    9.21
  10   0  -4  144.93    9.15
  10   0  -4  135.26    8.70
  10   0  -3  141.17    8.70
  10   0  -3  145.26    9.12
  10   0  -3  140.07    8.82
  10   0  -2  108.55    7.66
  10   0  -2  101.58    7.71
  10   0  -2  111.30    7.79
  10   0  -1   56.09    5.61
  10   0  -1   48.67    5.27
  10   0  -1   49.80    5.08
  10   0   0    0.58    0.70
  10   0   0    0.40    0.66
  10   0   0    1.12    0.68
  10   0   1   59.39    5.77
  10   0   1   56.65    5.73
  10   0   1   56.14    5.41
  10   0   2   91.72    7.27
  10   0   2  113.78    7.60
  10   0   3  151.05    9.38
  10   0   3  150.10    8.63
  10   0   4  157.12    9.57
  10   0   4  168.02    9.35
  10   0   5  114.64    8.11
  10   0   5  118.19    7.67
  10   0   6   28.19    4.14
  10   0   6   27.37    3.71
  10   0   7   77.21    7.07
  10   0   7   85.94    6.43
  10   0   8  104.06    7.97
  10   0   8  103.75    7.28
  10   0   9   99.62    7.93
  10   0   9  100.04    6.86
  10   0  10   48.01    5.59
  10   0  10   49.86    4.83
  10   0  11  110.91    8.59
  10   0  11  121.84    7.62
  10   0  12  161.93   10.56
  10   0  12  127.92    7.68
  10   0  13  119.61    9.47
  10   0  14   53.22    6.35
  10   0  15  106.78    9.14
  10   0  16   36.69    5.29
  10   0  17  105.26    9.05
  10   0  18   75.28    7.79
  10   0  19   27.30    5.50
  10   0  20   21.16    4.17
  10   0  21   54.27    7.25
  10   0  22   11.56    3.31
  10   0  23   28.42    5.61
  10   0  24   12.27    3.76
  10  -1 -27   -0.08    2.21
  10  -1 -26    1.38    1.62
  10  -1 -25    4.48    2.39
  10  -1 -24    0.05    1.68
  10  -1 -23    4.74    2.52
  10  -1 -22    0.32    1.15
  10   1 -21    3.16    2.30
  10  -1 -21    2.93    1.83
  10   1 -20    0.45    0.91
  10  -1 -20    2.25    1.79
  10  -1 -19    2.82    2.29
  10   1 -19    2.03    1.30
  10   1 -18    0.58    0.93
  10  -1 -18    1.60    1.63
  10   1 -17    4.40    2.38
  10  -1 -17    8.10    2.91
  10   1 -16    6.16    2.06
  10  -1 -16    6.31    1.99
  10   1 -15    9.24    2.92
  10  -1 -15    9.12    3.21
  10  -1 -14    0.16    1.35
  10   1 -14   -0.29    1.30
  10  -1 -14    1.19    2.21
  10  -1 -13   10.34    2.46
  10   1 -13   14.53    3.64
  10  -1 -13   18.66    3.78
  10   1 -13   17.17    3.13
  10  -1 -12   13.36    3.09
  10   1 -12    9.83    2.55
  10  -1 -12   13.65    3.25
  10   1 -12   11.10    2.95
  10  -1 -11    0.24    1.45
  10   1 -11   -0.45    0.58
  10   1 -11   -0.16    0.76
  10  -1 -11   -0.27    1.06
  10   1 -11    1.61    1.46
  10  -1 -10    1.51    1.06
  10   1 -10    1.27    1.32
  10  -1 -10    1.76    1.22
  10   1 -10    1.78    1.24
  10   1 -10    2.00    1.61
  10  -1  -9    3.97    1.14
  10   1  -9    2.97    1.51
  10  -1  -9    3.59    1.49
  10   1  -9    1.51    0.88
  10   1  -9    3.95    1.51
  10  -1  -8    0.66    0.60
  10   1  -8   -0.27    0.84
  10  -1  -8    0.78    1.19
  10   1  -8    2.82    1.50
  10   1  -8    0.53    1.49
  10   1  -7   18.09    3.34
  10  -1  -7   22.28    3.81
  10   1  -7   15.53    2.92
  10  -1  -7   20.95    3.72
  10   1  -7   16.02    3.40
  10  -1  -6    9.49    2.56
  10  -1  -6    6.68    1.62
  10   1  -6   10.25    2.35
  10   1  -6    5.96    1.88
  10   1  -6    7.32    1.76
  10  -1  -5    1.14    1.26
  10  -1  -5   -0.19    1.14
  10   1  -5    0.61    0.90
  10   1  -5    1.56    0.49
  10   1  -5    1.83    1.96
  10  -1  -4    0.95    0.86
  10  -1  -4    2.25    1.68
  10   1  -4    3.75    1.80
  10   1  -4    1.05    1.50
  10   1  -4    1.07    0.88
  10  -1  -3    5.12    1.86
  10  -1  -3    1.42    0.89
  10   1  -3    0.50    0.81
  10   1  -3    3.15    1.76
  10   1  -3    2.63    0.90
  10  -1  -2    1.90    1.17
  10  -1  -2    3.14    1.48
  10   1  -2    2.40    1.69
  10   1  -2    4.30    1.38
  10   1  -2    2.00    1.29
  10  -1  -1   16.80    3.38
  10   1  -1   22.15    3.32
  10   1  -1   22.57    3.47
  10  -1  -1   16.94    3.20
  10   1  -1   17.88    3.06
  10   1   0   10.76    2.39
  10  -1   0   16.07    2.92
  10  -1   0   16.61    3.38
  10   1   0   12.39    2.70
  10   1   0   13.29    2.54
  10   1   1   18.35    3.16
  10  -1   1   14.45    3.02
  10  -1   1   13.69    2.92
  10   1   1   16.71    3.22
  10   1   2    0.22    0.96
  10  -1   2    4.06    1.30
  10  -1   2    2.37    1.30
  10   1   2    4.06    1.74
  10   1   3    2.37    0.53
  10  -1   3    5.24    2.19
  10   1   3    5.73    1.84
  10   1   4    0.79    1.75
  10  -1   4    2.28    0.94
  10   1   4    1.76    1.11
  10   1   5    1.11    0.87
  10  -1   5    1.50    1.45
  10   1   5    0.30    0.45
  10   1   6    9.74    2.41
  10  -1   6    6.38    2.32
  10   1   6    8.14    2.35
  10   1   7   18.35    3.54
  10  -1   7   15.86    3.19
  10   1   7   14.54    2.85
  10   1   8    0.96    0.91
  10  -1   8    1.34    1.59
  10   1   8    1.19    0.99
  10   1   9    2.39    1.97
  10  -1   9    1.97    1.35
  10   1   9    5.81    1.88
  10   1  10    3.24    1.61
  10  -1  10    1.82    1.84
  10   1  10    0.94    0.66
  10   1  11    0.86    1.26
  10  -1  11   -0.83    1.47
  10   1  11    0.54    1.07
  10   1  12   20.15    3.88
  10   1  12    9.02    2.29
  10  -1  12   15.82    3.36
  10   1  13   14.29    3.20
  10   1  13   11.83    2.38
  10  -1  13   14.78    3.33
  10   1  14    3.00    2.52
  10  -1  14   -1.19    1.74
  10   1  15    8.73    2.42
  10  -1  15    5.47    1.98
  10   1  16    4.63    1.63
  10  -1  16    4.32    1.81
  10   1  17    1.29    2.12
  10  -1  17    5.28    2.39
  10   1  18   -0.31    1.44
  10  -1  18    1.92    2.08
  10   1  19    3.34    2.05
  10  -1  19    1.94    1.70
  10   1  20    3.75    1.52
  10  -1  20    1.21    2.08
  10   1  21    1.20    1.75
  10  -1  21   -0.22    1.67
  10   1  22    3.42    2.02
  10  -1  22   -0.82    2.10
  10   1  23    2.31    2.57
  10  -1  23    0.41    1.59
  10   1  24    0.09    1.32
  10   1  25    1.68    2.46
  10  -2 -26    2.80    1.93
  10  -2 -25   15.34    4.04
  10  -2 -24    9.54    3.40
  10  -2 -23    7.27    3.33
  10  -2 -22    8.30    2.83
  10  -2 -21   11.44    3.81
  10  -2 -20    5.41    3.10
  10  -2 -19   20.58    4.23
  10  -2 -18   48.57    6.24
  10  -2 -17   38.27    5.65
  10   2 -16   32.05    5.18
  10  -2 -16   31.85    4.96
  10   2 -16   22.07    4.28
  10   2 -15   60.12    6.33
  10  -2 -15   66.44    7.23
  10  -2 -15   61.40    6.72
  10   2 -15   81.90    7.82
  10   2 -14   40.76    5.41
  10  -2 -14   53.46    6.47
  10  -2 -14   42.48    5.41
  10   2 -14   49.18    5.68
  10   2 -13   57.79    6.04
  10  -2 -13   44.46    5.74
  10  -2 -13   38.81    5.15
  10   2 -13   52.26    6.09
  10   2 -12  102.65    7.85
  10  -2 -12  107.44    8.77
  10  -2 -12  114.98    8.75
  10   2 -12  105.18    8.21
  10   2 -11  170.61   10.04
  10  -2 -11  142.45   10.03
  10   2 -11  172.24   10.66
  10  -2 -11  166.32   10.32
  10   2 -10   45.64    4.88
  10  -2 -10   49.91    6.17
  10   2 -10   54.39    5.65
  10   2 -10   49.03    5.65
  10  -2 -10   56.29    6.05
  10   2  -9   94.87    6.89
  10  -2  -9   91.19    7.98
  10   2  -9   90.78    7.39
  10   2  -9   92.78    7.64
  10  -2  -9  107.63    8.36
  10  -2  -8   98.36    7.84
  10   2  -8   94.58    6.77
  10  -2  -8  111.67    8.83
  10   2  -8   98.61    7.27
  10   2  -8  102.82    8.04
  10  -2  -7   38.12    4.85
  10   2  -7   53.22    5.26
  10  -2  -7   34.56    5.06
  10   2  -7   47.71    5.09
  10   2  -7   46.99    5.50
  10  -2  -6   46.04    5.32
  10   2  -6   47.56    4.82
  10  -2  -6   50.96    5.82
  10   2  -6   51.13    5.32
  10   2  -6   42.72    5.28
  10   2  -5  115.78    7.78
  10  -2  -5  117.20    8.49
  10   2  -5  121.05    7.97
  10  -2  -5   97.85    7.96
  10   2  -5  116.03    8.41
  10  -2  -4   68.21    6.45
  10   2  -4   76.38    6.35
  10  -2  -4   76.36    7.00
  10   2  -4   84.18    6.71
  10   2  -4   75.03    6.96
  10  -2  -3  119.77    8.63
  10   2  -3  143.19    8.64
  10   2  -3  140.68    8.76
  10  -2  -3  141.46    9.56
  10   2  -3  137.94    9.20
  10  -2  -2  208.32   11.24
  10  -2  -2  214.89   11.67
  10   2  -2  200.00   10.45
  10   2  -2  230.90   11.03
  10   2  -2  219.01   11.20
  10  -2  -1  134.97    9.07
  10  -2  -1  110.55    8.36
  10   2  -1  130.10    8.81
  10   2  -1  123.27    8.16
  10   2  -1  139.95    8.95
  10  -2   0   43.72    5.18
  10  -2   0   38.83    5.07
  10   2   0   43.37    5.06
  10   2   0   38.25    4.84
  10  -2   1  134.64    9.01
  10  -2   1  132.25    9.13
  10   2   1  118.56    8.15
  10   2   1  136.87    8.79
  10  -2   2  209.86   11.40
  10  -2   2  224.21   12.00
  10   2   2  212.91   11.16
  10   2   2  222.00   11.27
  10  -2   3  156.54    9.88
  10  -2   3  139.99    9.36
  10   2   3  134.90    8.69
  10   2   3  150.19    9.21
  10  -2   4   74.95    6.96
  10  -2   4   84.00    7.35
  10   2   4   87.00    7.22
  10   2   4   86.40    6.92
  10  -2   5  121.87    8.91
  10   2   5  109.54    7.75
  10   2   5  107.54    8.16
  10  -2   6   56.66    6.04
  10   2   6   43.66    4.90
  10   2   6   51.41    5.61
  10  -2   7   39.39    5.06
  10   2   7   48.40    5.26
  10   2   7   57.00    6.12
  10  -2   8  117.96    9.09
  10   2   8  102.85    7.63
  10   2   8  122.38    8.78
  10  -2   9  101.80    8.40
  10   2   9  101.15    7.68
  10   2   9  104.96    8.52
  10  -2  10   50.09    5.94
  10   2  10   48.72    5.24
  10   2  10   44.21    5.90
  10  -2  11  159.41   10.70
  10   2  11  141.06    8.98
  10   2  11  150.84   10.34
  10  -2  12  105.23    8.77
  10   2  12  100.21    7.50
  10   2  12  119.78    9.20
  10  -2  13   51.59    6.17
  10   2  13   40.76    4.90
  10   2  13   53.15    6.24
  10  -2  14   34.65    5.20
  10   2  14   33.50    4.51
  10   2  14   47.95    6.04
  10  -2  15   81.59    7.89
  10   2  15   66.24    7.08
  10  -2  16   22.19    4.29
  10   2  16   29.02    4.96
  10  -2  17   48.18    6.39
  10   2  17   41.36    6.08
  10  -2  18   53.49    6.74
  10   2  18   47.95    6.41
  10   2  19   19.90    4.32
  10  -2  19   23.14    4.64
  10   2  20    1.76    1.63
  10  -2  20   -0.46    1.45
  10   2  21   15.97    4.14
  10  -2  21   16.19    3.99
  10   2  22   10.02    3.23
  10  -2  22   15.33    3.64
  10   2  23    6.32    2.52
  10   2  24    9.87    3.26
  10   2  25    8.73    3.98
  10   2  26    2.40    2.64
  10  -3 -26   -0.76    1.69
  10  -3 -25    0.28    1.48
  10  -3 -24    1.44    2.18
  10  -3 -23    3.16    1.76
  10  -3 -22    3.29    2.85
  10  -3 -21    2.44    1.58
  10  -3 -20    0.79    1.41
  10  -3 -19   -1.57    1.66
  10   3 -19   -1.88    1.62
  10  -3 -18    0.79    1.34
  10   3 -18    0.01    1.57
  10  -3 -17    0.61    1.14
  10   3 -17   -1.83    1.58
  10  -3 -16    2.55    1.81
  10   3 -16    1.81    0.97
  10  -3 -16    1.54    1.26
  10  -3 -15   -0.76    1.21
  10   3 -15    1.20    0.80
  10  -3 -15   -0.66    1.54
  10  -3 -14   -0.76    1.15
  10  -3 -14   -0.06    1.57
  10   3 -14   -0.34    1.14
  10  -3 -13    4.51    1.91
  10  -3 -13    7.64    2.57
  10   3 -13   10.19    2.38
  10  -3 -12    6.32    2.55
  10  -3 -12    5.55    1.89
  10   3 -12   11.68    3.07
  10  -3 -11    0.27    0.99
  10  -3 -11    2.22    1.74
  10   3 -11   -0.23    0.75
  10   3 -10    6.77    2.25
  10  -3 -10   15.71    3.18
  10   3 -10   19.51    3.97
  10  -3 -10   20.02    3.86
  10   3  -9    4.95    1.77
  10  -3  -9    0.77    0.70
  10  -3  -9    3.51    1.38
  10   3  -9    0.16    1.09
  10  -3  -8    0.41    0.71
  10  -3  -8   -0.85    1.26
  10   3  -8    0.45    0.82
  10   3  -8    0.25    0.60
  10   3  -7    8.98    2.80
  10   3  -7   10.79    2.33
  10  -3  -7   14.75    3.22
  10  -3  -7   11.71    2.78
  10   3  -7   14.44    2.69
  10   3  -6    7.32    2.47
  10   3  -6   10.20    2.45
  10  -3  -6    8.66    2.55
  10  -3  -6    7.77    2.40
  10   3  -6    7.46    2.04
  10   3  -5    0.43    0.92
  10   3  -5    2.15    1.06
  10  -3  -5    4.49    2.06
  10  -3  -5    3.21    1.44
  10   3  -5    1.81    1.09
  10   3  -4   12.20    2.60
  10   3  -4   17.26    3.07
  10  -3  -4   17.60    3.47
  10  -3  -4   14.32    3.23
  10   3  -4    9.95    2.27
  10   3  -3    2.27    1.44
  10   3  -3    0.99    1.39
  10  -3  -3    1.73    1.85
  10  -3  -3   -0.02    1.72
  10   3  -3    2.42    1.54
  10   3  -2    3.23    0.69
  10  -3  -2    4.98    2.10
  10   3  -2    3.89    1.44
  10  -3  -2    5.89    2.55
  10   3  -2    6.63    1.79
  10   3  -1    4.72    2.17
  10  -3  -1    8.44    2.19
  10   3  -1    4.93    1.92
  10  -3  -1    5.76    1.83
  10   3  -1   10.62    2.54
  10   3   0    5.58    2.46
  10  -3   0    6.05    1.31
  10   3   0    8.60    2.45
  10  -3   0    6.32    1.74
  10   3   1    7.50    2.14
  10  -3   1    6.47    2.14
  10   3   1    8.91    2.50
  10  -3   1   11.57    3.17
  10   3   2    6.24    1.72
  10  -3   2    5.12    1.57
  10   3   2    4.10    1.70
  10  -3   2    7.87    2.20
  10   3   3    0.93    0.75
  10  -3   3   -0.23    1.50
  10   3   3    2.91    1.66
  10  -3   3    2.71    1.70
  10   3   4   14.63    3.25
  10  -3   4   14.43    3.06
  10   3   4   17.50    3.18
  10  -3   4   14.41    3.25
  10   3   5    1.07    1.53
  10  -3   5    2.35    1.73
  10   3   5    2.67    1.22
  10  -3   5   -0.76    0.80
  10  -3   6   12.57    2.77
  10   3   6    8.94    2.61
  10   3   6    5.69    1.57
  10  -3   6   13.73    2.98
  10   3   7   14.59    3.16
  10  -3   7   12.05    2.65
  10   3   7   10.80    2.88
  10   3   8    0.68    1.44
  10  -3   8    0.79    1.32
  10   3   8   -0.34    1.46
  10   3   9    4.03    2.29
  10  -3   9    5.29    2.51
  10   3   9    4.54    1.75
  10  -3  10   12.74    3.09
  10   3  10   17.26    3.48
  10   3  10   20.65    3.97
  10   3  11    5.18    2.40
  10  -3  11    0.78    1.07
  10   3  11    1.21    2.08
  10   3  12    5.58    2.70
  10  -3  12    2.68    2.18
  10   3  12    8.02    2.73
  10   3  13    7.92    2.92
  10  -3  13    9.40    2.88
  10   3  13    8.88    3.09
  10   3  14    0.34    0.76
  10  -3  14    0.22    1.04
  10   3  14   -0.10    1.86
  10   3  15    0.25    1.32
  10  -3  15    0.45    1.02
  10   3  15    0.45    0.78
  10  -3  16    4.25    1.44
  10   3  16    7.95    2.60
  10  -3  17    3.36    2.30
  10   3  17    0.75    1.97
  10  -3  18   -1.61    1.98
  10   3  18    1.34    1.01
  10   3  19   -0.12    1.55
  10  -3  19    1.21    1.79
  10   3  20    1.28    1.52
  10  -3  20    3.87    2.47
  10   3  21   -1.99    1.92
  10  -3  21   -1.61    1.78
  10   3  22    1.03    2.02
  10   3  23    0.08    1.37
  10   3  24    1.16    1.97
  10   3  25    1.70    2.05
  10   3  26    1.14    2.30
  10  -4 -25    8.53    3.72
  10  -4 -24    4.33    2.44
  10  -4 -23    2.59    2.14
  10  -4 -22    6.24    2.69
  10  -4 -21    8.38    2.61
  10  -4 -20    8.53    3.07
  10  -4 -19   12.93    3.36
  10   4 -19   20.63    4.93
  10  -4 -18   34.30    5.86
  10   4 -18   27.42    4.78
  10  -4 -17   17.43    4.26
  10  -4 -17   25.09    4.59
  10   4 -17   23.19    4.47
  10  -4 -16   15.84    3.74
  10  -4 -16   22.98    4.42
  10   4 -16   21.94    4.05
  10  -4 -15   36.94    5.43
  10  -4 -15   28.37    5.02
  10   4 -15   38.55    5.68
  10  -4 -14   44.90    6.22
  10  -4 -14   37.08    5.46
  10   4 -14   47.31    5.91
  10  -4 -13   34.08    5.53
  10  -4 -13   37.52    5.32
  10   4 -13   47.29    6.27
  10  -4 -12   62.43    7.26
  10  -4 -12   56.76    6.67
  10   4 -12   65.42    6.87
  10  -4 -11  117.24    9.45
  10  -4 -11   92.68    8.33
  10   4 -11   98.34    8.34
  10  -4 -10   42.31    5.60
  10  -4 -10   33.56    5.26
  10   4 -10   37.42    5.17
  10  -4  -9   43.92    5.79
  10  -4  -9   27.58    4.61
  10   4  -9   44.04    5.77
  10  -4  -8   59.87    6.88
  10  -4  -8   83.65    7.73
  10   4  -8   65.08    6.81
  10   4  -7   17.36    3.80
  10  -4  -7   17.11    3.54
  10  -4  -7   14.29    3.40
  10   4  -7   21.07    3.40
  10  -4  -6   18.94    3.60
  10  -4  -6   25.50    4.12
  10   4  -6   30.64    4.04
  10   4  -6   25.43    4.42
  10  -4  -5   65.28    6.99
  10   4  -5   65.12    5.95
  10   4  -5   63.46    6.45
  10  -4  -5   63.01    6.74
  10  -4  -4   33.21    4.88
  10   4  -4   29.24    4.05
  10   4  -4   34.92    5.09
  10  -4  -4   29.40    4.85
  10  -4  -3   29.00    4.74
  10  -4  -3   35.32    5.13
  10   4  -3   31.11    4.15
  10   4  -3   32.67    4.88
  10   4  -3   34.94    4.55
  10  -4  -2  123.06    9.26
  10   4  -2  112.10    8.25
  10  -4  -2  117.01    9.16
  10   4  -2  104.97    7.36
  10   4  -2  106.20    8.50
  10  -4  -1  102.92    8.55
  10   4  -1  111.23    8.21
  10  -4  -1  111.55    9.16
  10   4  -1  113.43    8.75
  10  -4   0   64.50    6.61
  10   4   0   59.41    6.22
  10  -4   0   84.88    7.74
  10   4   0   73.21    6.90
  10  -4   1   97.54    8.50
  10   4   1  114.16    8.34
  10  -4   1  112.38    8.92
  10   4   1  113.25    8.60
  10  -4   2  123.59    9.47
  10   4   2  137.45    9.13
  10  -4   2  118.27    8.97
  10   4   2  116.50    8.87
  10  -4   3   31.60    4.85
  10   4   3   29.76    4.37
  10  -4   3   30.45    4.72
  10   4   3   42.15    5.48
  10   4   4   24.35    3.93
  10  -4   4   33.75    4.85
  10   4   4   28.87    4.44
  10  -4   4   36.50    4.92
  10   4   5   68.93    6.92
  10  -4   5   59.08    6.56
  10   4   5   71.12    6.89
  10  -4   5   56.39    6.70
  10   4   6   26.23    4.02
  10  -4   6   23.43    4.41
  10   4   6   24.12    4.13
  10  -4   6   21.84    4.05
  10   4   7   19.55    3.62
  10  -4   7   20.27    4.08
  10  -4   7    8.38    2.44
  10   4   7   17.43    3.69
  10   4   8   53.00    5.90
  10  -4   8   55.30    6.45
  10   4   8   56.30    6.51
  10  -4   8   57.47    6.46
  10   4   9   37.94    5.25
  10  -4   9   31.16    4.83
  10   4   9   32.33    4.81
  10   4  10   36.16    4.98
  10  -4  10   35.46    5.19
  10   4  10   36.07    4.99
  10   4  11   89.28    8.02
  10  -4  11   90.65    8.60
  10   4  11   89.67    8.27
  10   4  12   52.90    6.18
  10  -4  12   53.96    6.48
  10   4  12   43.05    5.95
  10   4  13   38.71    5.42
  10  -4  13   34.53    5.33
  10   4  13   38.49    5.48
  10   4  14   40.00    5.51
  10  -4  14   33.29    5.35
  10   4  14   44.63    5.72
  10   4  15   32.65    5.19
  10   4  15   32.45    5.02
  10  -4  15   40.06    5.86
  10  -4  16   10.51    3.16
  10   4  16   20.70    4.30
  10   4  17   21.08    4.53
  10  -4  17   24.02    5.16
  10   4  18   31.84    5.21
  10  -4  18   23.92    4.84
  10  -4  19   11.00    2.92
  10   4  19    4.94    1.45
  10   4  20    2.43    1.45
  10   4  21    5.94    1.53
  10   4  22    8.18    3.45
  10   4  23    0.79    1.75
  10   4  24   10.80    3.98
  10   4  25   11.47    3.59
  10  -5 -24    2.16    2.32
  10  -5 -23    2.35    2.29
  10  -5 -22    3.06    1.65
  10  -5 -21    2.66    3.26
  10  -5 -20   -0.24    1.25
  10  -5 -19    0.40    2.18
  10  -5 -19    9.07    4.13
  10  -5 -18   -0.45    0.85
  10  -5 -18    1.58    0.94
  10   5 -18   -0.81    1.58
  10  -5 -17   -0.89    1.67
  10  -5 -17    2.61    2.28
  10   5 -17    2.34    2.03
  10  -5 -16    5.60    2.24
  10  -5 -16    6.30    3.25
  10   5 -16   13.30    3.56
  10   5 -15    5.42    2.28
  10  -5 -15    6.52    2.70
  10   5 -14    5.04    2.43
  10  -5 -14    5.77    2.57
  10  -5 -14    2.73    2.04
  10   5 -13    0.68    1.79
  10  -5 -13    2.56    2.26
  10  -5 -13    2.05    1.64
  10   5 -12    0.41    1.22
  10  -5 -12   -0.27    0.82
  10  -5 -11    0.27    0.99
  10   5 -11    3.60    1.86
  10  -5 -11    2.97    2.13
  10  -5 -10   11.36    2.97
  10   5 -10   18.32    3.89
  10  -5 -10   10.16    3.05
  10  -5  -9    1.21    1.07
  10   5  -9    1.78    1.76
  10  -5  -9    4.20    1.81
  10   5  -8    6.23    2.47
  10  -5  -8   14.67    3.39
  10  -5  -8   15.46    3.69
  10   5  -7    9.89    3.29
  10  -5  -7    8.82    2.61
  10  -5  -7   13.17    3.68
  10   5  -6    3.43    1.76
  10  -5  -6    4.59    1.91
  10   5  -6    3.13    1.52
  10  -5  -6    2.78    1.61
  10   5  -5    5.46    2.44
  10  -5  -5    4.10    1.85
  10   5  -5    7.70    1.97
  10  -5  -5    5.86    2.28
  10  -5  -4   21.29    4.52
  10   5  -4   14.44    2.79
  10  -5  -4   26.09    4.81
  10   5  -4   20.17    4.09
  10   5  -3    8.37    2.91
  10  -5  -3   10.26    3.12
  10  -5  -3    8.11    2.69
  10   5  -3   11.16    2.71
  10  -5  -2   13.01    3.29
  10  -5  -2   17.23    3.87
  10   5  -2   21.35    3.53
  10   5  -2   24.58    4.35
  10   5  -1   50.42    6.15
  10   5  -1   52.56    5.97
  10  -5  -1   62.59    6.84
  10  -5  -1   64.17    6.88
  10   5   0   35.15    4.98
  10   5   0   27.73    4.20
  10  -5   0   24.00    4.25
  10  -5   0   22.90    4.23
  10   5   1   57.46    6.68
  10   5   1   61.24    6.55
  10  -5   1   57.86    6.58
  10  -5   1   64.54    7.01
  10  -5   2   18.59    4.38
  10   5   2   20.61    3.80
  10  -5   2   21.69    4.13
  10   5   2   17.11    3.38
  10   5   3    9.28    2.85
  10   5   3   11.14    2.89
  10  -5   3    3.61    2.82
  10  -5   3   15.16    3.15
  10   5   4   17.01    3.30
  10   5   4   21.62    3.71
  10  -5   4   19.89    4.00
  10  -5   4   24.61    4.39
  10   5   5    5.05    1.84
  10  -5   5    3.23    1.51
  10  -5   5    3.95    1.93
  10   5   6    5.60    2.33
  10   5   6    5.46    2.81
  10  -5   6    6.06    2.25
  10  -5   6    5.51    2.76
  10   5   7   12.89    2.95
  10   5   7   11.21    3.04
  10  -5   7   10.13    3.31
  10  -5   7   10.90    3.07
  10   5   8   12.56    2.79
  10   5   8   14.10    3.40
  10  -5   8   14.43    3.52
  10  -5   8   19.24    4.03
  10   5   9    3.49    2.30
  10   5   9    1.51    1.19
  10  -5   9    1.45    2.07
  10  -5   9   -0.21    1.77
  10   5  10    7.26    2.49
  10   5  10   11.33    2.80
  10  -5  10   16.60    4.05
  10  -5  10   13.44    3.13
  10   5  11    1.40    1.44
  10   5  11    3.20    1.84
  10  -5  11   -0.65    1.00
  10  -5  11    3.23    2.42
  10   5  12    1.53    1.14
  10   5  12    1.08    2.25
  10  -5  12    0.01    1.81
  10  -5  12    3.58    2.34
  10   5  13    0.31    1.25
  10   5  13    2.55    1.94
  10  -5  13    0.66    1.83
  10   5  14    2.83    1.51
  10   5  14    2.77    1.09
  10  -5  14    5.03    2.22
  10   5  15   10.41    3.38
  10   5  15    6.41    2.72
  10  -5  15    3.71    1.96
  10   5  16   10.35    3.40
  10   5  16   12.45    3.49
  10  -5  16    3.17    1.94
  10  -5  17    1.77    2.44
  10   5  17    1.03    2.27
  10  -5  18    1.61    2.06
  10   5  18   -0.13    1.29
  10   5  19    1.10    1.05
  10   5  20   -0.29    1.08
  10   5  21    2.61    2.37
  10   5  22    2.97    2.04
  10   5  23    1.58    2.21
  10   5  24    3.37    3.27
  10  -6 -22    3.34    1.87
  10  -6 -21   15.20    4.20
  10  -6 -20   15.31    4.42
  10  -6 -20    5.02    3.45
  10  -6 -19    7.91    2.65
  10  -6 -19    6.37    2.79
  10  -6 -18   12.38    3.62
  10  -6 -18   14.38    4.15
  10   6 -17   11.42    3.35
  10  -6 -17   11.06    3.59
  10  -6 -17   12.11    3.83
  10   6 -16   19.98    4.38
  10  -6 -16   14.83    4.23
  10  -6 -16   17.81    4.56
  10  -6 -15   36.28    5.71
  10  -6 -15   33.71    5.69
  10   6 -15   41.01    5.96
  10  -6 -14   35.55    6.04
  10  -6 -14   35.46    5.73
  10   6 -14   34.40    5.70
  10   6 -13   18.80    3.74
  10  -6 -13   23.64    5.07
  10  -6 -13   17.26    4.03
  10   6 -12   23.86    4.47
  10  -6 -12   13.85    3.63
  10  -6 -12   13.84    3.54
  10   6 -11   16.67    3.83
  10  -6 -11   24.48    4.68
  10  -6 -11   21.64    4.45
  10   6 -10   21.16    4.09
  10  -6 -10   24.05    4.40
  10  -6 -10   13.67    3.31
  10   6  -9   22.93    4.38
  10  -6  -9   32.16    5.34
  10  -6  -9   25.40    4.67
  10  -6  -8   33.33    5.48
  10  -6  -8   32.64    5.12
  10   6  -8   23.97    4.64
  10  -6  -7    9.24    3.01
  10   6  -7    9.53    2.58
  10  -6  -7    5.48    2.24
  10  -6  -6   14.31    3.71
  10   6  -6   10.38    3.19
  10  -6  -6    9.84    2.71
  10   6  -5   50.69    6.27
  10  -6  -5   32.04    5.60
  10  -6  -5   25.53    4.56
  10   6  -5   41.10    5.61
  10   6  -4   34.77    5.12
  10   6  -4   31.86    4.67
  10  -6  -4   30.03    5.11
  10  -6  -4   25.43    4.82
  10  -6  -3    4.71    2.02
  10   6  -3    3.03    2.41
  10  -6  -3    3.57    1.76
  10   6  -3    3.72    1.73
  10   6  -2   20.78    4.47
  10  -6  -2   12.65    3.42
  10  -6  -2   18.86    3.68
  10   6  -2   13.42    3.12
  10   6  -1   46.97    6.14
  10   6  -1   50.34    5.96
  10  -6  -1   55.13    6.45
  10  -6  -1   34.84    5.48
  10   6   0   46.64    6.18
  10   6   0   48.81    6.13
  10  -6   0   59.69    6.99
  10  -6   0   45.54    6.05
  10   6   1   53.18    6.23
  10   6   1   49.25    6.05
  10  -6   1   44.87    5.93
  10  -6   1   45.87    5.84
  10   6   2   22.22    4.14
  10  -6   2    8.27    2.15
  10   6   2   17.67    4.09
  10  -6   2   18.14    3.82
  10   6   3    4.42    1.82
  10   6   3    5.28    2.12
  10  -6   3    1.92    1.53
  10  -6   3    1.28    1.78
  10   6   4   30.64    4.53
  10   6   4   22.57    4.52
  10  -6   4   30.12    5.13
  10  -6   4   30.40    5.17
  10   6   5   35.75    5.70
  10   6   5   29.43    4.83
  10  -6   5   30.59    5.13
  10  -6   5   34.24    5.25
  10   6   6   23.19    4.62
  10   6   6   13.79    3.29
  10  -6   6   13.88    3.27
  10  -6   6   20.90    4.44
  10   6   7    4.50    2.25
  10   6   7    4.06    1.94
  10  -6   7    5.02    2.11
  10   6   8   26.60    4.77
  10   6   8   28.93    4.69
  10  -6   8   20.81    4.71
  10  -6   8   31.65    5.25
  10  -6   9   22.72    4.89
  10   6   9   23.39    4.86
  10   6   9   25.51    4.62
  10  -6   9   25.47    5.21
  10   6  10   24.13    4.74
  10   6  10   20.42    4.23
  10  -6  10   20.44    4.36
  10  -6  10   20.68    4.44
  10   6  11   13.75    3.80
  10   6  11   17.03    3.76
  10  -6  11   12.96    3.54
  10   6  12   18.19    3.91
  10   6  12   22.98    4.32
  10  -6  12   13.75    3.78
  10  -6  12   12.34    3.24
  10   6  13   26.48    4.74
  10  -6  13   17.47    4.05
  10   6  13   30.45    4.92
  10  -6  13   23.42    4.80
  10   6  14   31.18    5.29
  10   6  14   23.78    4.60
  10  -6  14   24.74    4.78
  10  -6  14   34.29    5.58
  10  -6  15   39.47    6.10
  10   6  15   41.93    6.15
  10   6  15   24.82    5.11
  10  -6  15   41.33    6.88
  10   6  16   20.77    4.49
  10   6  16   23.26    4.59
  10  -6  16   13.60    3.90
  10  -6  16   20.37    4.81
  10   6  17   13.43    3.52
  10  -6  17   18.48    4.69
  10   6  18   12.70    3.67
  10   6  19    0.62    1.31
  10   6  20   10.20    3.49
  10   6  21   12.73    3.48
  10   6  22    4.94    3.37
  10  -7 -20    3.45    2.83
  10  -7 -20    3.56    2.39
  10  -7 -19    0.26    1.51
  10  -7 -19    1.26    1.16
  10  -7 -18    3.20    2.60
  10  -7 -18    0.89    2.15
  10   7 -17   -1.37    2.06
  10  -7 -17    0.91    1.55
  10  -7 -17    3.43    2.90
  10   7 -16    4.74    2.98
  10  -7 -16    6.24    3.21
  10  -7 -16    3.45    1.90
  10   7 -15    4.81    2.91
  10  -7 -15    0.03    1.44
  10  -7 -15    3.86    2.38
  10  -7 -14    9.32    3.39
  10  -7 -14    4.51    2.12
  10   7 -13    6.02    2.43
  10  -7 -13    2.29    1.45
  10  -7 -13    4.12    2.40
  10   7 -12   -1.22    2.13
  10  -7 -12    1.79    1.08
  10  -7 -12    1.37    1.14
  10   7 -11   12.52    3.91
  10  -7 -11   12.83    3.69
  10  -7 -11   12.30    3.63
  10   7 -10   14.97    3.66
  10  -7 -10   11.27    2.71
  10  -7 -10   13.33    3.16
  10   7  -9    5.41    2.70
  10  -7  -9   11.08    3.19
  10  -7  -9    8.15    2.86
  10   7  -8    6.76    2.86
  10  -7  -8    5.28    2.72
  10  -7  -8    5.47    2.80
  10   7  -7    2.35    1.96
 -10   7  -7   -0.19    2.23
  10  -7  -7    0.90    1.59
  10  -7  -7    1.39    1.65
  10  -7  -6    2.87    1.27
  10   7  -6    3.45    2.01
 -10   7  -6    3.49    2.31
  10  -7  -6    9.64    3.12
  10  -7  -5    1.60    1.52
  10   7  -5    2.86    2.57
 -10   7  -5    2.47    1.53
  10  -7  -5    2.16    1.56
  10  -7  -4    1.27    1.59
  10  -7  -4    1.52    1.56
  10  -7  -3    2.83    2.37
  10   7  -3    2.63    0.77
  10   7  -3    6.04    1.98
  10  -7  -3    2.54    2.02
  10  -7  -2   10.09    3.25
  10   7  -2    4.11    1.94
  10   7  -2    5.91    2.89
  10  -7  -2    8.06    3.20
  10  -7  -1   20.20    4.25
  10   7  -1   17.80    4.36
  10   7  -1   15.30    3.68
  10  -7  -1   22.43    4.37
  10  -7   0    2.53    2.01
  10   7   0    7.18    2.80
  10   7   0    7.14    2.81
  10  -7   0    1.72    1.07
  10  -7   1   16.94    3.64
  10   7   1   14.72    4.09
  10   7   1   15.05    3.09
  10  -7   1   12.62    3.47
  10  -7   2    4.52    2.36
  10   7   2    5.90    2.97
  10   7   2    6.24    2.50
  10  -7   2    4.35    2.01
  10  -7   3    6.40    2.85
  10   7   3    4.95    2.53
  10   7   3    4.87    2.98
  10  -7   3    3.48    1.47
  10  -7   4    3.41    2.18
  10   7   4    0.42    1.52
  10   7   4    0.35    1.36
  10  -7   4    1.98    1.75
  10  -7   5    3.13    1.86
  10   7   5    0.54    2.12
  10   7   5    3.45    2.62
  10  -7   5    1.70    1.52
  10   7   6    3.96    1.68
  10   7   6    8.53    2.12
  10  -7   6    5.03    2.44
  10  -7   7    0.58    1.13
  10   7   7   -0.74    1.39
  10   7   7   -0.29    0.73
  10  -7   7   -0.17    1.36
  10  -7   8    5.34    1.64
  10   7   8   11.89    3.35
  10   7   8   13.67    3.50
  10  -7   8    8.60    2.95
  10  -7   9    8.17    3.27
  10   7   9   14.41    3.70
  10   7   9    5.64    2.71
  10  -7   9    5.91    3.01
  10  -7  10   12.20    4.07
  10   7  10   12.22    3.65
  10   7  10   10.55    3.44
  10  -7  10    7.00    2.64
  10  -7  11   13.04    3.89
  10   7  11    5.83    2.65
  10   7  11    8.79    2.97
  10  -7  11    9.49    3.63
  10   7  12    1.32    1.57
  10  -7  12    2.47    2.26
  10   7  12    2.18    2.14
  10  -7  12    1.84    1.92
  10   7  13    1.01    1.48
  10  -7  13    4.65    2.33
  10   7  13    1.48    1.36
  10  -7  13   -0.68    1.79
  10   7  14   12.34    3.30
  10  -7  14    9.29    3.46
  10   7  14   12.69    3.10
  10   7  15   -0.23    1.16
  10  -7  15    2.76    1.75
  10   7  15   -0.69    1.77
  10   7  16    7.94    2.39
  10   7  16    9.04    3.22
  10   7  17   -1.15    1.24
  10   7  18    3.81    1.87
  10   7  19   -0.37    1.51
  10   7  20    1.70    1.27
  10  -8 -17   -2.26    2.36
  10  -8 -17    6.42    3.30
  10  -8 -16   -2.36    1.57
  10  -8 -16   -0.35    1.23
  10   8 -15   14.52    4.38
  10  -8 -15   11.28    2.66
  10  -8 -15   18.58    4.48
  10   8 -14   14.34    3.96
  10  -8 -14   20.07    4.30
  10  -8 -14    7.34    3.25
  10  -8 -13    7.13    2.88
  10   8 -13    2.71    2.16
  10  -8 -13    2.03    1.91
  10   8 -12    4.50    2.42
  10  -8 -12    9.34    3.05
  10  -8 -12    6.49    3.13
  10   8 -11    5.99    1.71
  10  -8 -11    6.67    2.84
  10  -8 -11    4.09    3.01
  10   8 -10    5.89    2.88
  10  -8 -10    5.18    2.76
  10  -8 -10    4.06    2.42
  10   8  -9   15.80    4.14
  10  -8  -9   10.98    3.53
  10  -8  -9   12.62    3.50
  10   8  -8   13.69    3.69
  10  -8  -8   14.01    3.83
  10  -8  -8   20.39    5.04
  10   8  -7    5.03    1.71
 -10   8  -7    2.50    2.92
  10  -8  -7    3.10    2.40
  10  -8  -7    3.37    1.77
  10   8  -6   23.22    4.81
 -10   8  -6   22.05    4.72
  10  -8  -6   27.07    5.04
  10  -8  -6   19.32    4.53
  10   8  -5   17.42    5.20
 -10   8  -5   22.95    4.99
  10  -8  -5   31.52    5.69
  10  -8  -5   32.22    5.47
  10   8  -4   25.49    5.17
  10  -8  -4   29.59    5.86
 -10   8  -4   20.27    4.56
  10  -8  -4   28.45    4.81
  10  -8  -3    9.53    3.21
  10   8  -3    3.30    1.77
 -10   8  -3    5.17    1.71
  10  -8  -3    5.43    1.91
  10  -8  -2    6.49    2.83
  10   8  -2    8.59    2.83
  10   8  -2    6.60    2.61
 -10   8  -2    4.01    2.34
  10  -8  -2    5.15    1.32
  10  -8  -1    5.32    2.59
  10   8  -1    5.06    2.69
  10   8  -1    7.96    2.24
  10  -8  -1    4.58    2.58
 -10   8  -1    2.49    0.98
  10  -8   0    7.50    3.09
  10   8   0    8.78    3.19
  10   8   0   13.90    3.16
 -10   8   0   17.06    3.94
  10  -8   0   13.03    3.65
  10  -8   1    9.45    3.48
  10   8   1    8.87    3.24
  10   8   1    6.25    1.79
 -10   8   1   14.36    4.09
  10  -8   1    9.08    3.01
  10  -8   2    5.04    2.30
  10   8   2    7.85    2.31
  10   8   2    5.63    2.88
 -10   8   2    8.33    2.67
  10  -8   2    4.10    2.68
  10  -8   3    3.03    1.55
  10   8   3    7.33    2.74
  10   8   3    9.84    3.10
 -10   8   3   12.36    3.58
  10  -8   3    4.83    2.08
  10   8   4   29.83    5.25
  10  -8   4   20.52    4.24
  10   8   4   22.85    4.39
  10  -8   4   15.35    3.92
  10  -8   5   27.17    5.04
  10   8   5   25.81    5.05
  10   8   5   20.80    5.23
  10  -8   5   24.16    4.63
  10  -8   6   20.06    4.43
  10   8   6   24.68    4.59
  10   8   6   17.82    4.52
  10  -8   6   18.84    4.90
  10  -8   7    4.26    1.93
  10   8   7    6.20    2.71
  10   8   7   -0.26    1.16
  10  -8   7    0.73    1.72
  10  -8   8   15.12    3.89
  10   8   8   20.34    4.77
  10   8   8   14.07    4.03
  10  -8   9   10.05    2.31
  10   8   9   13.05    4.16
  10   8   9   10.02    4.16
  10  -8  10    5.38    1.35
  10   8  10    3.18    2.47
  10   8  10    3.44    2.95
  10  -8  11    3.78    1.92
  10   8  11    1.78    1.16
  10  -8  12    7.80    3.34
  10   8  12    8.00    3.63
  10   8  12    8.22    2.50
  10  -8  13    2.33    1.72
  10   8  13    4.07    2.93
  10   8  13   -2.76    1.98
 -10   8  13    7.95    3.23
  10  -8  14    7.96    3.45
  10   8  14   12.36    3.74
  10   8  14   17.86    4.40
 -10   8  14   11.03    3.94
  10   8  15   16.79    4.92
  10   8  15   17.16    4.03
 -10   8  15    9.64    2.95
  10   8  16   -2.92    2.10
  10   8  16   -0.43    2.05
 -10   8  16    1.89    1.61
  10   8  17    1.72    1.24
 -10   8  17    1.25    1.30
  10   9 -13   -0.99    1.04
  10  -9 -13   -1.12    1.73
  10  -9 -13    0.38    1.87
  10   9 -12    3.01    2.08
  10  -9 -12   -0.32    2.38
  10  -9 -12   -0.48    1.82
  10   9 -11    5.26    2.03
  10  -9 -11    1.82    1.76
  10  -9 -11    5.39    2.72
  10  -9 -10    3.03    1.63
  10  -9 -10    1.37    1.35
  10   9  -9   -0.80    2.14
  10  -9  -9    0.99    2.03
  10  -9  -9    0.59    1.15
  10   9  -8    2.43    2.48
  10  -9  -8   -0.58    1.93
  10  -9  -8    2.30    2.25
  10   9  -7   -0.50    1.06
  10  -9  -7   -0.65    2.68
  10  -9  -7    0.80    1.50
  10   9  -6    0.73    1.22
  10  -9  -6    2.47    1.88
  10  -9  -6    3.38    2.21
  10   9  -5    0.33    1.31
 -10   9  -5    1.58    2.29
  10  -9  -5    2.02    1.87
  10  -9  -5    3.87    2.57
  10   9  -4    2.34    1.76
 -10   9  -4    1.07    1.64
  10  -9  -4    3.20    1.72
  10  -9  -4    6.25    3.34
  10   9  -3    0.91    1.19
 -10   9  -3    1.57    1.44
  10  -9  -3    1.71    3.07
  10  -9  -3    0.62    1.05
  10   9  -2   -0.41    1.10
 -10   9  -2   -2.70    1.98
  10  -9  -2   -0.49    1.50
  10  -9  -2    1.13    1.83
  10   9  -1   -0.77    1.64
 -10   9  -1    4.10    2.62
  10  -9  -1    3.50    2.54
  10  -9  -1    4.26    1.68
  10   9   0    7.21    3.24
  10   9   0    0.76    1.72
 -10   9   0    5.31    3.07
  10  -9   0    7.78    3.37
  10  -9   0    7.35    3.34
  10   9   1    3.14    1.14
  10   9   1    0.86    2.24
 -10   9   1    5.24    2.32
  10  -9   1    3.53    2.59
  10  -9   1    4.53    2.68
  10   9   2   -2.29    1.51
  10   9   2   -0.14    1.69
 -10   9   2   -0.22    1.93
  10  -9   2    1.22    1.49
  10  -9   3    3.98    1.74
  10   9   3    0.06    1.55
  10   9   3    4.58    2.79
 -10   9   3    3.20    2.14
  10  -9   4    2.51    2.61
  10   9   4    1.81    1.14
  10   9   4    6.37    2.87
 -10   9   4    5.24    2.54
  10  -9   5   -2.97    2.10
  10   9   5    3.66    2.73
  10   9   5    2.86    2.52
 -10   9   5   -0.77    2.72
  10  -9   6    3.23    2.97
  10   9   6    2.69    2.42
  10   9   6    1.85    1.48
 -10   9   6    1.63    1.81
  10  -9   7    0.16    1.35
  10   9   7    0.70    2.00
  10   9   7   -0.10    1.81
 -10   9   7    2.22    2.19
  10  -9   8    2.34    2.18
  10   9   8    1.17    1.80
  10   9   8    4.53    2.30
 -10   9   8    1.80    2.08
  10  -9   9    6.75    3.41
  10   9   9    0.97    2.37
  10   9   9   -0.89    1.44
 -10   9   9    1.47    2.72
  10  -9  10    3.55    2.57
  10   9  10    3.55    2.40
  10   9  10    2.25    1.88
 -10   9  10    1.25    1.44
  10  -9  11    3.64    3.30
  10   9  11    7.34    3.06
  10   9  11   10.35    4.11
 -10   9  11    4.56    2.66
  10  -9  12    3.10    2.37
  10   9  12   -1.21    1.85
  10   9  12   -1.61    1.54
 -10   9  12   -1.89    2.16
  10   9  13    0.37    2.18
  10   9  13    1.02    0.86
 -10   9  13    1.07    2.09
  10  10  -6   12.29    3.30
  10 -10  -6    2.54    2.03
  10  10  -5    7.74    2.96
  10 -10  -5    3.38    1.49
  10  10  -4    4.77    2.34
 -10  10  -4    3.49    3.02
  10 -10  -4    4.45    2.22
  10  10  -3    1.59    1.89
 -10  10  -3   -2.39    2.14
  10 -10  -3    2.51    1.19
  10  10  -2    2.56    1.18
  10 -10  -2    0.72    1.42
  10  10  -1    3.24    2.25
 -10  10  -1    2.88    2.11
  10 -10  -1    1.12    1.81
  10  10   0    7.80    3.05
 -10  10   0    3.83    2.90
  10 -10   0    0.84    1.96
  10  10   1   -1.43    2.11
 -10  10   1    1.59    2.17
  10 -10   1    1.13    1.95
  10  10   2    0.25    1.16
  10  10   2    1.07    1.41
  10  10   3    3.22    2.25
  10  10   3   -0.34    1.56
 -10  10   3   -0.23    1.49
  10 -10   3   -1.54    2.85
  10  10   4   -0.50    2.24
  10  10   4    4.42    2.57
 -10  10   4    6.79    3.03
  10 -10   4    8.74    2.62
  10  10   5   -0.52    2.05
  10  10   5    2.44    2.22
 -10  10   5    3.63    1.79
  10 -10   5   -3.52    2.99
  10  10   6    5.78    2.60
  10  10   6    2.36    1.91
  10 -10   6    3.89    1.39
  11   0 -25    0.83    1.07
  11   0 -24   -1.82    2.77
  11   0 -23    0.90    1.16
  11   0 -22   -2.04    1.57
  11   0 -21    1.45    1.64
  11   0 -20   -0.58    1.17
  11   0 -19    1.73    2.30
  11   0 -18    2.06    1.48
  11   0 -17    1.07    1.78
  11   0 -16   -0.80    1.41
  11   0 -15    1.77    1.53
  11   0 -14    0.69    1.99
  11   0 -13   -0.97    1.20
  11   0 -12    0.26    0.72
  11   0 -12   -0.06    0.82
  11   0 -11   -0.52    1.17
  11   0 -11    0.96    1.88
  11   0 -10    0.23    0.95
  11   0 -10    0.52    0.77
  11   0  -9   -0.20    1.04
  11   0  -9   -0.66    1.20
  11   0  -8    0.01    1.38
  11   0  -8   -0.14    0.64
  11   0  -7    1.12    1.36
  11   0  -7    0.78    0.97
  11   0  -6    0.19    0.93
  11   0  -6    1.64    1.26
  11   0  -6    1.52    1.67
  11   0  -5   -0.61    1.01
  11   0  -5   -0.03    1.09
  11   0  -5    0.12    0.86
  11   0  -4    0.17    0.98
  11   0  -4   -0.50    0.67
  11   0  -4   -0.45    1.01
  11   0  -3   -0.33    1.18
  11   0  -3    1.32    1.15
  11   0  -3   -0.35    0.68
  11   0  -2    0.86    1.14
  11   0  -2    1.59    1.46
  11   0  -2    0.75    1.39
  11   0  -1   -0.35    1.42
  11   0  -1    1.14    1.61
  11   0  -1    1.61    1.33
  11   0   0    2.04    1.62
  11   0   0    0.82    1.42
  11   0   0    0.60    1.06
  11   0   1    0.30    0.62
  11   0   1    0.16    1.34
  11   0   1    0.05    1.02
  11   0   2   -0.42    0.99
  11   0   2   -0.42    0.55
  11   0   3    0.22    0.83
  11   0   3    0.72    1.33
  11   0   4    0.38    0.77
  11   0   4   -0.01    1.49
  11   0   5   -0.77    0.68
  11   0   5    0.28    0.74
  11   0   6    0.22    0.70
  11   0   6    0.49    1.11
  11   0   7   -0.66    0.99
  11   0   7   -0.16    0.94
  11   0   8   -0.98    1.34
  11   0   8   -0.32    0.63
  11   0   9    1.51    1.84
  11   0   9    0.16    1.17
  11   0  10    0.63    1.05
  11   0  10   -0.18    0.83
  11   0  11    0.11    1.35
  11   0  11    0.22    0.61
  11   0  12   -0.33    1.26
  11   0  12    0.84    0.83
  11   0  13   -0.61    1.14
  11   0  14    2.19    1.43
  11   0  15    1.36    1.57
  11   0  16   -0.35    1.35
  11   0  17   -0.37    1.17
  11   0  18    1.61    0.96
  11   0  19    1.44    1.84
  11   0  20    0.64    2.07
  11   0  21    1.16    2.34
  11   0  22   -0.49    2.12
  11   0  23   -0.49    2.11
  11   0  24   -2.25    1.74
  11  -1 -26    0.96    2.34
  11  -1 -25    5.39    3.21
  11  -1 -24   10.61    4.61
  11  -1 -23    8.27    2.61
  11  -1 -22    1.24    2.59
  11  -1 -21    6.59    2.54
  11   1 -20    6.43    3.59
  11  -1 -20    2.73    1.77
  11   1 -19   27.88    5.39
  11  -1 -19   29.74    4.99
  11   1 -18   93.50    8.91
  11  -1 -18   89.05    8.91
  11   1 -17   18.44    4.38
  11  -1 -17   14.77    3.73
  11   1 -16   -2.44    1.77
  11  -1 -16    0.02    1.08
  11   1 -15   25.93    4.43
  11  -1 -15   22.51    4.30
  11   1 -14   71.08    7.30
  11  -1 -14   75.88    7.73
  11   1 -13  221.56   12.57
  11  -1 -13  240.98   13.27
  11  -1 -13  198.01   11.74
  11   1 -12  207.16   12.03
  11  -1 -12  210.05   12.62
  11   1 -12  225.02   12.44
  11  -1 -12  203.82   11.73
  11  -1 -11    8.45    2.44
  11   1 -11    9.80    2.89
  11  -1 -11    6.93    2.38
  11   1 -11    9.92    2.88
  11  -1 -10   80.07    7.31
  11   1 -10   92.01    7.19
  11  -1 -10   93.16    8.20
  11   1 -10   90.87    7.72
  11   1 -10   91.30    7.79
  11  -1  -9  121.77    8.87
  11   1  -9  127.72    8.60
  11  -1  -9  126.85    9.42
  11   1  -9  121.18    8.88
  11   1  -9  116.96    8.96
  11  -1  -8   88.81    7.55
  11   1  -8  105.00    7.76
  11  -1  -8   87.23    7.86
  11   1  -8  104.58    8.12
  11   1  -8  100.99    8.04
  11  -1  -7  125.55    9.00
  11   1  -7  146.02    9.12
  11  -1  -7  128.24    9.34
  11   1  -7  119.74    8.63
  11   1  -7  150.88    9.67
  11  -1  -6   66.57    6.68
  11   1  -6   69.50    6.31
  11  -1  -6   74.59    7.10
  11   1  -6   81.32    7.11
  11   1  -6   76.04    6.68
  11  -1  -5   21.98    3.59
  11   1  -5   21.59    3.60
  11   1  -5   27.13    4.13
  11  -1  -5   17.40    3.35
  11   1  -5   33.15    4.26
  11   1  -4   17.29    3.30
  11  -1  -4   14.31    3.15
  11  -1  -4   17.54    3.59
  11   1  -4   12.25    2.73
  11   1  -4   13.16    2.47
  11  -1  -3  180.23   10.55
  11   1  -3  175.45   10.13
  11  -1  -3  183.36   11.09
  11   1  -3  147.71    9.50
  11   1  -3  173.85   10.25
  11  -1  -2  393.13   15.70
  11   1  -2  393.68   15.44
  11  -1  -2  404.49   16.37
  11   1  -2  415.13   16.03
  11   1  -2  384.03   15.30
  11  -1  -1   31.32    4.49
  11   1  -1   32.23    4.48
  11  -1  -1   25.51    4.02
  11   1  -1   27.73    4.05
  11   1  -1   32.51    4.52
  11   1   0    1.38    1.38
  11  -1   0    1.64    1.43
  11  -1   0    1.28    0.77
  11   1   0    1.86    1.48
  11   1   0    2.55    1.38
  11  -1   1   38.20    4.88
  11   1   1   29.92    4.39
  11  -1   1   28.35    4.18
  11   1   1   21.92    3.39
  11  -1   2  382.77   15.96
  11   1   2  398.77   15.49
  11  -1   2  408.36   16.39
  11   1   2  386.55   15.17
  11  -1   3  193.08   11.26
  11   1   3  165.19   10.33
  11  -1   3  185.04   10.97
  11   1   4   11.43    3.05
  11  -1   4   10.28    2.72
  11   1   4   12.41    2.44
  11  -1   5   26.91    4.41
  11   1   5   20.41    3.66
  11   1   5   26.48    3.93
  11  -1   6   70.92    6.92
  11   1   6   68.10    6.72
  11   1   6   74.08    6.40
  11  -1   7  148.88   10.08
  11   1   7  131.53    9.41
  11   1   7  144.22    9.15
  11  -1   8  104.94    8.41
  11   1   8  110.06    8.56
  11   1   8   95.08    7.28
  11  -1   9  118.96    9.33
  11   1   9  122.28    9.25
  11   1   9  111.67    8.03
  11  -1  10   86.15    7.95
  11   1  10   92.89    8.07
  11   1  10   89.26    7.10
  11   1  11    7.58    2.26
  11  -1  11   11.13    3.18
  11   1  11    8.87    2.43
  11  -1  12  203.96   12.30
  11   1  12  208.11   12.46
  11   1  12  226.52   11.47
  11  -1  13  237.13   13.30
  11   1  13  219.00   13.07
  11   1  13  216.16   11.15
  11  -1  14   76.96    7.89
  11   1  14   67.19    7.55
  11  -1  15   26.88    4.88
  11   1  15   29.74    4.88
  11   1  16    0.65    2.07
  11  -1  16   -0.05    1.12
  11   1  17   13.80    3.51
  11  -1  17   14.24    3.58
  11  -1  18   83.68    8.58
  11   1  18  100.36    9.25
  11  -1  19   39.58    5.93
  11   1  19   35.61    5.30
  11   1  20    4.32    1.42
  11  -1  20   -0.05    1.47
  11   1  21    4.41    2.89
  11  -1  21    8.13    2.93
  11   1  22    2.67    2.07
  11  -1  22   -1.48    1.81
  11   1  23    4.36    2.65
  11  -1  23    9.08    3.48
  11   1  24   26.73    5.49
  11   1  25    6.87    2.43
  11  -2 -26   -0.34    1.99
  11  -2 -25   -0.57    1.52
  11  -2 -24    2.00    2.12
  11  -2 -23   10.93    3.46
  11  -2 -22    0.75    1.32
  11  -2 -21    0.51    2.05
  11  -2 -20    0.11    1.07
  11  -2 -19    0.63    0.88
  11  -2 -18    0.85    0.88
  11  -2 -17   -2.49    1.22
  11  -2 -16   -0.34    0.90
  11   2 -16    2.46    0.75
  11  -2 -15   -0.92    1.59
  11   2 -15    0.27    0.97
  11  -2 -14    8.31    3.23
  11   2 -14    7.39    2.52
  11  -2 -14    6.34    2.68
  11   2 -14    0.10    1.19
  11  -2 -13    7.39    2.82
  11   2 -13    8.72    2.31
  11  -2 -13    7.38    2.24
  11   2 -13    8.24    2.91
  11  -2 -12    1.05    1.36
  11   2 -12   -0.60    1.13
  11  -2 -12    2.22    1.32
  11   2 -12    0.11    0.82
  11  -2 -11    2.44    1.66
  11   2 -11    2.89    0.88
  11  -2 -11    2.04    1.19
  11   2 -11    1.12    1.53
  11  -2 -10    0.53    0.90
  11  -2 -10    4.44    2.43
  11   2 -10    0.66    0.90
  11   2 -10    2.08    1.85
  11  -2  -9    1.00    1.72
  11   2  -9    2.15    1.59
  11  -2  -9    1.10    1.23
  11   2  -9    0.38    0.87
  11   2  -9    5.14    1.51
  11  -2  -8   29.22    4.46
  11   2  -8   26.36    3.77
  11  -2  -8   29.73    4.82
  11   2  -8   27.41    4.16
  11   2  -8   34.29    4.66
  11  -2  -7   20.28    3.93
  11   2  -7   21.90    3.61
  11  -2  -7   12.46    3.06
  11   2  -7   18.24    3.36
  11   2  -7   13.17    3.22
  11  -2  -6    3.10    2.38
  11  -2  -6    0.18    0.79
  11   2  -6    2.27    1.38
  11   2  -6    1.82    0.55
  11   2  -6    2.51    1.68
  11  -2  -5    6.73    2.05
  11  -2  -5   14.03    3.21
  11   2  -5   13.36    2.98
  11   2  -5   11.76    2.67
  11   2  -5   13.74    3.21
  11   2  -4    2.02    1.21
  11  -2  -4    1.87    1.38
  11  -2  -4    2.10    1.10
  11   2  -4    1.81    1.31
  11   2  -4    1.16    0.79
  11  -2  -3  199.66   11.55
  11   2  -3  197.47   10.77
  11  -2  -3  193.25   11.73
  11   2  -3  179.12   10.39
  11   2  -3  186.56   11.18
  11   2  -2    4.32    1.16
  11   2  -2    3.34    1.18
  11  -2  -2    4.22    1.29
  11  -2  -2    4.54    2.04
  11   2  -2    8.72    2.36
  11  -2  -1  122.57    9.05
  11   2  -1  127.09    8.90
  11  -2  -1  123.61    9.31
  11   2  -1  113.63    8.27
  11   2  -1  127.85    8.88
  11   2   0   -0.21    0.95
  11   2   0    1.08    1.21
  11  -2   0    0.29    1.47
  11  -2   0    0.01    1.15
  11   2   0   -0.11    1.44
  11  -2   1  107.15    8.46
  11  -2   1  118.44    9.00
  11   2   1  125.16    8.69
  11   2   1  107.71    8.21
  11   2   2   10.10    2.58
  11   2   2    9.09    2.68
  11  -2   2    3.66    2.08
  11  -2   2    5.96    2.48
  11  -2   3  195.65   11.36
  11  -2   3  203.57   11.84
  11   2   3  205.83   11.34
  11   2   3  179.03   10.55
  11   2   4    2.24    1.33
  11   2   4    5.74    2.40
  11  -2   4    0.37    1.50
  11  -2   4    1.05    1.50
  11   2   5   13.08    2.94
  11   2   5    7.41    2.26
  11  -2   5   11.70    2.96
  11   2   6    1.83    1.54
  11   2   6    1.77    0.60
  11  -2   6    4.55    2.09
  11   2   7   17.60    3.25
  11   2   7   16.00    3.21
  11  -2   7   19.00    3.71
  11  -2   8   35.19    4.94
  11   2   8   28.44    4.25
  11   2   8   28.94    4.29
  11   2   9    1.73    0.92
  11   2   9    2.48    1.45
  11  -2   9    0.54    0.94
  11   2  10    0.14    1.91
  11   2  10    1.57    2.01
  11  -2  10    0.10    1.52
  11   2  11    0.68    0.58
  11   2  11    0.40    0.80
  11  -2  11    2.25    1.53
  11   2  12    0.14    1.34
  11   2  12    2.34    1.16
  11  -2  12    0.55    1.14
  11   2  13    3.40    2.03
  11   2  13    7.06    2.09
  11  -2  13    8.12    2.59
  11   2  14    6.57    2.12
  11   2  14    4.07    1.67
  11  -2  14   10.24    3.02
  11   2  15   -1.63    2.22
  11  -2  15    2.53    2.13
  11   2  16    0.65    2.01
  11  -2  16    2.76    2.03
  11   2  17   -0.83    1.51
  11  -2  17    0.59    2.06
  11   2  18    1.09    1.27
  11  -2  18    3.32    1.13
  11   2  19    2.95    2.33
  11  -2  19    2.94    1.94
  11   2  20    5.29    2.46
  11  -2  20    5.12    2.41
  11   2  21   -0.59    1.52
  11  -2  21   -0.09    1.17
  11   2  22    2.15    1.95
  11  -2  22    2.20    1.70
  11   2  23    5.91    3.01
  11   2  24    1.61    0.99
  11   2  25    4.45    2.95
  11   2  26    4.17    3.08
  11  -3 -25   15.45    4.15
  11  -3 -24   13.13    4.11
  11  -3 -23   19.08    4.52
  11  -3 -22    5.92    2.80
  11  -3 -21    3.43    2.33
  11  -3 -20   10.78    3.12
  11  -3 -19   10.64    3.05
  11   3 -19    9.49    2.40
  11  -3 -18   47.08    6.63
  11   3 -18   50.80    6.33
  11  -3 -17   15.86    3.79
  11   3 -17   34.47    5.27
  11  -3 -16   -0.98    0.99
  11   3 -16    0.05    1.26
  11  -3 -16   -1.18    1.01
  11  -3 -15   11.21    3.15
  11  -3 -15   12.61    2.88
  11   3 -15    9.73    3.03
  11  -3 -14   26.38    4.89
  11  -3 -14   38.01    5.56
  11   3 -14   24.27    4.81
  11  -3 -13   50.05    6.22
  11  -3 -13   48.27    6.22
  11   3 -13   48.69    6.27
  11  -3 -12   40.14    5.28
  11  -3 -12   31.64    5.10
  11   3 -12   45.10    5.61
  11  -3 -11   69.10    7.26
  11  -3 -11   59.90    6.59
  11   3 -11   64.33    6.89
  11  -3 -10    8.62    2.73
  11  -3 -10    9.31    2.85
  11   3 -10    7.21    2.29
  11  -3  -9  350.69   16.49
  11   3  -9  374.38   16.38
  11  -3  -9  326.91   15.72
  11   3  -8   89.46    7.29
  11  -3  -8   81.05    8.05
  11   3  -8   73.47    6.49
  11   3  -8   83.06    7.69
  11  -3  -8   85.98    8.08
  11   3  -7   37.75    4.83
  11  -3  -7   41.48    5.54
  11   3  -7   39.41    4.64
  11   3  -7   46.98    5.78
  11  -3  -7   43.53    5.65
  11  -3  -6   22.17    4.08
  11   3  -6   18.82    3.30
  11  -3  -6   24.41    4.53
  11   3  -6   18.46    3.55
  11   3  -6   26.44    4.43
  11  -3  -5  241.40   12.94
  11  -3  -5  241.19   13.17
  11   3  -5  219.78   11.31
  11   3  -5  219.92   11.15
  11   3  -5  247.30   13.03
  11  -3  -4   85.76    7.79
  11  -3  -4   86.23    8.03
  11   3  -4   78.42    6.74
  11   3  -4   90.21    7.42
  11   3  -4   79.22    7.41
  11  -3  -3  891.61   25.24
  11  -3  -3  864.03   25.04
  11   3  -3  857.88   22.54
  11   3  -3  873.71   22.92
  11   3  -3  881.45   24.41
  11  -3  -2  104.72    8.66
  11  -3  -2  121.63    9.37
  11   3  -2  122.59    8.59
  11   3  -2  126.04    8.63
  11   3  -2  119.30    8.73
  11  -3  -1  789.82   23.86
  11  -3  -1  742.41   23.02
  11   3  -1  782.75   21.86
  11   3  -1  736.44   21.71
  11   3  -1  740.72   22.04
  11   3   0    9.05    2.27
  11   3   0    6.12    1.58
  11  -3   0    7.80    2.42
  11  -3   0    6.78    2.75
  11  -3   1  752.28   23.11
  11  -3   1  794.98   23.92
  11   3   1  778.97   22.57
  11  -3   2  116.04    9.06
  11  -3   2  108.12    8.99
  11   3   2  115.62    8.58
  11   3   2  108.21    8.36
  11  -3   3  868.28   24.89
  11  -3   3  872.56   24.82
  11   3   3  878.86   24.22
  11   3   3  879.48   23.91
  11  -3   4   97.52    8.55
  11  -3   4   98.56    8.57
  11   3   4   94.43    7.92
  11   3   4   82.15    7.31
  11  -3   5  242.67   13.16
  11  -3   5  223.30   12.77
  11   3   5  213.54   11.95
  11   3   5  234.55   12.58
  11   3   6   13.67    3.35
  11  -3   6   18.19    3.83
  11   3   6   15.60    3.64
  11  -3   6   19.07    3.68
  11   3   7   49.83    5.99
  11  -3   7   47.13    5.71
  11   3   7   46.12    5.53
  11   3   8   87.18    8.07
  11  -3   8   77.10    7.59
  11   3   8   78.08    7.11
  11   3   9  331.98   15.54
  11  -3   9  317.41   15.49
  11   3   9  343.00   15.14
  11   3  10    7.48    2.29
  11  -3  10   10.65    3.58
  11   3  10    6.54    2.19
  11   3  11   49.53    6.22
  11  -3  11   55.93    6.58
  11   3  11   59.53    6.78
  11   3  12   55.37    6.65
  11  -3  12   44.32    5.92
  11   3  12   48.18    5.77
  11   3  13   46.90    5.91
  11  -3  13   42.58    6.06
  11   3  13   47.57    5.85
  11   3  14   34.30    5.06
  11  -3  14   35.95    5.13
  11   3  14   24.56    4.36
  11   3  15   15.92    3.70
  11  -3  15    5.39    1.54
  11   3  16    1.20    1.40
  11  -3  16    0.56    1.75
  11   3  17   33.68    5.46
  11  -3  17   21.88    4.48
  11   3  18   42.70    6.53
  11  -3  18   44.87    6.47
  11   3  19   12.67    3.50
  11  -3  19   15.85    4.08
  11   3  20    4.06    2.57
  11  -3  20   10.08    3.64
  11   3  21    5.27    3.00
  11  -3  21    3.34    1.22
  11   3  22    7.11    3.03
  11   3  23   21.09    4.88
  11   3  24   15.75    4.09
  11   3  25   15.85    4.20
  11  -4 -24    2.88    2.91
  11  -4 -23   -0.28    2.55
  11  -4 -22    8.52    3.68
  11  -4 -21    4.90    2.75
  11  -4 -20    1.14    1.95
  11  -4 -19    2.02    1.43
  11   4 -19    0.46    1.70
  11  -4 -18   -0.90    2.18
  11   4 -18   -1.11    1.55
  11  -4 -17   -0.93    0.90
  11  -4 -17    0.68    1.91
  11   4 -17    0.02    1.36
  11  -4 -16    2.86    2.98
  11  -4 -16    4.55    2.65
  11   4 -16    0.99    0.98
  11   4 -15    2.98    1.05
  11  -4 -15    2.96    1.91
  11  -4 -14    0.36    1.60
  11  -4 -14    0.07    1.61
  11   4 -14    1.23    1.69
  11  -4 -13   -0.18    1.34
  11  -4 -13    1.78    2.22
  11   4 -13    2.37    1.66
  11   4 -12   15.31    3.66
  11  -4 -12   14.32    3.24
  11  -4 -12   17.27    3.64
  11   4 -11    7.18    2.52
  11  -4 -11    7.14    2.67
  11  -4 -11    7.28    2.22
  11  -4 -10   13.91    3.58
  11  -4 -10   24.15    4.83
  11   4 -10   21.27    4.31
  11   4  -9    5.81    1.52
  11  -4  -9    4.33    2.33
  11  -4  -9    9.34    2.73
  11  -4  -8   58.28    6.77
  11   4  -8   61.77    6.63
  11  -4  -8   44.84    5.84
  11   4  -7   11.19    2.72
  11   4  -7   10.35    3.08
  11  -4  -7    9.24    2.73
  11  -4  -7   11.27    3.25
  11   4  -6    2.40    1.87
  11  -4  -6    3.36    1.74
  11   4  -6    4.85    1.94
  11  -4  -6    2.57    1.99
  11   4  -5    5.83    2.46
  11  -4  -5    2.91    1.42
  11   4  -5    3.51    1.43
  11  -4  -5    3.06    1.31
  11  -4  -4  334.09   15.92
  11   4  -4  353.35   14.88
  11   4  -4  347.84   15.64
  11  -4  -4  330.07   15.60
  11  -4  -3   32.53    5.01
  11  -4  -3   32.98    5.28
  11   4  -3   30.23    4.60
  11   4  -3   33.30    4.71
  11  -4  -2   76.38    7.66
  11  -4  -2   68.92    7.38
  11   4  -2   84.57    7.13
  11   4  -2   91.98    7.77
  11   4  -2   83.31    7.51
  11  -4  -1  103.56    8.89
  11  -4  -1  116.40    9.55
  11   4  -1  115.88    8.27
  11   4  -1  127.16    9.26
  11   4  -1  125.99    8.96
  11   4   0    0.98    1.19
  11  -4   0    0.41    1.52
  11   4   0    0.89    1.79
  11  -4   0   -0.61    1.15
  11   4   1  117.27    8.76
  11  -4   1  110.99    9.03
  11  -4   1  104.03    8.77
  11   4   1  111.52    8.71
  11   4   2   76.55    7.17
  11  -4   2   80.22    7.52
  11  -4   2   80.65    7.95
  11   4   2   82.04    7.53
  11   4   3   38.70    5.40
  11  -4   3   37.04    5.51
  11  -4   3   38.22    5.24
  11   4   3   30.80    4.63
  11   4   4  318.80   14.87
  11  -4   4  345.05   16.12
  11  -4   4  334.01   15.98
  11   4   4  363.46   16.00
  11   4   5    4.75    1.90
  11  -4   5   -0.07    0.86
  11   4   5    3.24    2.22
  11  -4   5    4.44    2.22
  11   4   6    3.86    1.48
  11  -4   6    7.40    2.73
  11   4   6    3.14    1.66
  11  -4   6    1.11    1.47
  11   4   7   10.26    2.86
  11  -4   7    7.28    3.04
  11   4   7   10.19    2.87
  11  -4   7    6.87    2.57
  11   4   8   55.40    6.46
  11  -4   8   55.88    6.62
  11  -4   8   51.44    6.48
  11   4   8   55.51    6.29
  11   4   9    6.54    2.38
  11  -4   9    5.17    2.72
  11   4   9    1.87    1.31
  11  -4   9    8.80    3.18
  11   4  10   19.98    4.03
  11   4  10   24.62    4.64
  11  -4  10   22.44    4.28
  11   4  11    6.25    2.06
  11  -4  11    3.14    1.00
  11   4  11    7.61    2.81
  11   4  12   14.98    3.32
  11  -4  12    9.69    2.80
  11   4  12   16.77    3.75
  11   4  13   -0.21    0.92
  11  -4  13   -0.55    1.88
  11   4  13   -1.02    0.97
  11   4  14    0.03    0.95
  11  -4  14    1.02    0.96
  11   4  14    0.53    1.88
  11   4  15    2.58    1.26
  11  -4  15    4.22    2.38
  11   4  15   -0.10    1.50
  11  -4  16   -1.48    2.33
  11   4  16   -0.74    1.70
  11  -4  17   -0.18    2.37
  11   4  17    3.21    2.48
  11  -4  18   -0.38    1.47
  11   4  18    3.06    2.33
  11  -4  19    2.12    1.59
  11   4  19    0.19    1.08
  11  -4  20   -0.01    1.50
  11   4  20    3.12    2.44
  11   4  21    3.26    1.94
  11   4  22    7.42    3.49
  11   4  23    1.89    1.19
  11   4  24    5.97    2.42
  11  -5 -23    2.44    2.33
  11  -5 -22   12.26    3.54
  11  -5 -21   -1.50    1.14
  11  -5 -20    5.59    2.36
  11  -5 -19   15.25    3.98
  11  -5 -18   10.85    3.06
  11  -5 -18    6.47    2.55
  11   5 -18    9.84    3.27
  11  -5 -17    2.40    2.33
  11   5 -17   13.70    5.34
  11  -5 -17    9.89    3.15
  11  -5 -16   -0.19    1.44
  11   5 -16   -1.38    1.82
  11  -5 -15    6.51    3.09
  11  -5 -15    9.18    3.14
  11   5 -15   11.35    3.57
  11   5 -14   27.23    4.70
  11  -5 -14   30.36    5.47
  11  -5 -14   21.62    4.48
  11  -5 -13   35.32    5.42
  11  -5 -13   25.90    4.84
  11   5 -13   34.06    5.34
  11  -5 -12    1.92    1.11
  11   5 -12    3.99    1.60
  11  -5 -12    4.77    2.46
  11  -5 -11    1.39    1.02
  11   5 -11    3.52    1.75
  11  -5 -11    1.05    1.39
  11   5 -10    0.83    1.86
  11  -5 -10    0.16    1.00
  11  -5 -10    1.24    1.73
  11  -5  -9   36.96    5.65
  11  -5  -9   35.43    5.60
  11   5  -9   24.52    4.48
  11  -5  -8  110.20    9.57
  11  -5  -8  117.10    9.75
  11   5  -8   99.17    9.01
  11  -5  -7   29.80    5.03
  11  -5  -7   22.74    4.34
  11   5  -7   28.89    4.65
  11   5  -6   17.22    3.60
  11  -5  -6   15.91    3.81
  11  -5  -6   13.20    3.29
  11   5  -5    0.75    0.84
  11  -5  -5    1.57    2.01
  11   5  -5    2.32    1.30
  11  -5  -5    0.97    1.06
  11  -5  -4  118.19    9.84
  11  -5  -4  120.06    9.76
  11   5  -4  114.53    9.25
  11   5  -4  133.90    9.42
  11   5  -3   28.36    4.43
  11   5  -3   19.58    4.08
  11  -5  -3   22.60    4.33
  11  -5  -3   20.49    3.91
  11   5  -2   46.04    5.62
  11  -5  -2   37.86    5.56
  11  -5  -2   44.68    6.26
  11   5  -2   44.46    5.74
  11   5  -1   81.78    7.41
  11  -5  -1   74.63    7.83
  11  -5  -1   84.50    8.35
  11   5  -1   84.20    8.05
  11   5   0    1.28    1.94
  11  -5   0   -0.94    1.03
  11   5   0    2.35    1.39
  11  -5   0   -1.15    1.90
  11  -5   1   82.90    8.18
  11   5   1   78.61    7.39
  11  -5   1   74.64    8.04
  11   5   1   89.96    8.22
  11  -5   2   36.98    5.40
  11   5   2   39.46    5.45
  11  -5   2   34.19    5.05
  11   5   2   38.34    5.38
  11   5   3   31.59    4.81
  11  -5   3   31.97    5.20
  11   5   3   27.45    4.58
  11  -5   3   22.91    4.35
  11   5   4  120.19    9.54
  11  -5   4  128.30   10.03
  11   5   4  117.47    9.23
  11  -5   4  114.42    9.56
  11   5   5    2.59    1.80
  11  -5   5    1.85    1.23
  11  -5   5    1.24    1.68
  11   5   5   -0.05    1.69
  11   5   6    9.93    2.98
  11  -5   6   19.06    3.82
  11  -5   6   20.13    4.47
  11   5   6   15.29    3.34
  11   5   7   24.16    4.43
  11   5   7   26.17    4.43
  11  -5   7   22.39    4.22
  11  -5   7   25.00    4.96
  11   5   8  106.83    9.13
  11  -5   8  109.40    9.70
  11   5   8  106.09    9.28
  11  -5   8  101.66    9.40
  11   5   9   41.17    5.74
  11  -5   9   32.50    5.13
  11   5   9   34.93    5.11
  11  -5   9   27.57    4.72
  11   5  10    3.73    2.46
  11  -5  10    0.29    1.44
  11  -5  10   -0.29    1.12
  11   5  10    1.86    1.63
  11   5  11    5.89    2.78
  11  -5  11    0.14    1.61
  11  -5  11    3.26    1.70
  11   5  11    1.65    1.18
  11   5  12    6.03    3.00
  11  -5  12    4.40    1.63
  11  -5  12    7.71    2.27
  11   5  12   10.32    3.07
  11  -5  13   33.99    5.64
  11   5  13   27.07    4.86
  11   5  13   34.71    5.49
  11  -5  13   46.17    6.25
  11   5  14   24.22    4.60
  11   5  14   25.43    4.94
  11  -5  14   12.33    4.25
  11   5  15    4.21    2.39
  11  -5  15   12.08    3.60
  11   5  15    7.60    3.18
  11  -5  16   -1.92    1.88
  11   5  16    1.96    0.91
  11  -5  17    5.97    2.69
  11   5  17    4.90    1.62
  11  -5  18    8.79    4.00
  11   5  18    9.40    3.42
  11   5  19    3.60    1.23
  11   5  20    7.26    3.03
  11   5  21   -0.09    1.70
  11   5  22   11.71    3.67
  11   5  23    5.19    2.99
  11  -6 -21   -2.47    1.25
  11  -6 -20    5.60    2.40
  11  -6 -19    0.81    1.56
  11  -6 -19    3.19    1.85
  11  -6 -18   -1.02    2.28
  11  -6 -18    0.02    1.61
  11   6 -18    5.35    3.59
  11  -6 -17    0.70    1.04
  11  -6 -17   -2.02    2.17
  11   6 -17    2.82    2.46
  11   6 -16    1.87    1.76
  11  -6 -16    2.10    1.88
  11  -6 -16    0.50    1.42
  11   6 -15    3.79    2.22
  11  -6 -15    3.65    2.50
  11  -6 -15    2.62    2.46
  11   6 -14    5.45    2.37
  11  -6 -14    2.05    1.16
  11   6 -13    3.84    2.50
  11  -6 -13    2.87    2.14
  11  -6 -13    7.58    2.52
  11   6 -12    0.20    1.40
  11  -6 -12   -0.14    1.51
  11  -6 -12    2.35    1.88
  11   6 -11   -0.01    1.53
  11  -6 -11    0.17    1.29
  11  -6 -11    2.28    2.51
  11  -6 -10   15.44    3.72
  11   6 -10   16.05    3.96
  11  -6 -10   18.78    3.86
  11   6  -9    0.81    1.61
  11  -6  -9    2.38    1.47
  11  -6  -8   13.94    3.62
  11   6  -8   11.40    3.30
  11  -6  -8   11.86    3.56
  11  -6  -7    6.00    2.43
  11   6  -7    1.79    1.64
  11  -6  -7    1.43    1.41
  11  -6  -6   20.58    4.30
  11   6  -6   13.71    3.80
  11  -6  -6   14.14    3.90
  11   6  -5    1.86    2.23
  11  -6  -5    4.25    2.24
  11  -6  -5    5.44    2.43
  11   6  -4    2.89    2.35
  11  -6  -4    0.76    1.33
  11   6  -4    5.10    1.83
  11  -6  -4    1.77    1.28
  11   6  -3    5.97    2.64
  11  -6  -3    2.96    2.60
  11  -6  -3    0.51    1.93
  11   6  -3    1.89    1.47
  11   6  -2   25.23    4.48
  11  -6  -2   36.50    5.73
  11  -6  -2   36.67    5.55
  11   6  -2   32.22    5.44
  11   6  -1    4.05    1.75
  11  -6  -1    3.16    1.74
  11  -6  -1    0.68    1.22
  11   6  -1    2.12    1.46
  11   6   0   -0.54    1.10
  11  -6   0    0.78    1.46
  11  -6   0    1.29    1.60
  11   6   0    2.19    0.77
  11   6   1    1.05    1.69
  11  -6   1    0.78    1.52
  11  -6   1    3.15    2.25
  11   6   1    1.70    1.81
  11   6   2   26.57    4.77
  11  -6   2   21.55    4.76
  11  -6   2   26.83    5.09
  11   6   3   -0.41    2.17
  11  -6   3    3.35    2.02
  11  -6   3    3.67    2.29
  11   6   3   -0.01    1.06
  11   6   4    3.92    2.36
  11   6   4    3.53    2.00
  11  -6   4    6.31    2.40
  11  -6   4    0.97    1.42
  11   6   5    3.26    2.16
  11   6   5    3.90    0.88
  11  -6   5    3.09    1.73
  11  -6   5   -0.75    2.75
  11   6   6   10.01    2.73
  11   6   6   15.85    3.13
  11  -6   6   18.77    3.98
  11  -6   6   15.33    4.35
  11   6   7    4.68    2.56
  11   6   7    3.78    2.09
  11  -6   7    8.30    3.49
  11  -6   7    4.81    2.13
  11   6   8   12.32    3.56
  11   6   8   14.35    3.78
  11  -6   8   10.94    2.96
  11  -6   8    7.39    2.52
  11   6   9    1.56    1.16
  11   6   9    3.81    1.50
  11  -6   9    2.38    2.22
  11  -6   9    3.24    2.51
  11   6  10   19.94    4.23
  11   6  10   21.08    4.22
  11  -6  10   17.10    4.01
  11  -6  10   10.54    2.95
  11   6  11   -1.46    1.66
  11   6  11   -0.34    1.29
  11  -6  11    1.89    1.81
  11  -6  11    2.10    1.10
  11   6  12   -0.57    1.20
  11   6  12    1.63    2.23
  11  -6  12   -1.92    2.10
  11  -6  12    0.46    1.77
  11   6  13    9.64    3.06
  11   6  13    4.24    2.08
  11  -6  13    8.79    3.10
  11  -6  13    4.94    2.43
  11   6  14    5.66    1.76
  11   6  14    9.74    2.77
  11  -6  14    1.54    1.55
  11  -6  14    5.82    2.88
  11   6  15    1.27    1.59
  11   6  15    0.59    1.18
  11  -6  15    0.93    1.36
  11  -6  15    3.46    2.53
  11  -6  16    0.38    1.38
  11  -6  16    0.63    2.28
  11   6  16    0.60    1.79
  11  -6  17   -2.42    2.68
  11  -6  17    5.05    3.15
  11   6  17    1.31    1.95
  11  -6  18    4.02    3.60
  11   6  18   -0.05    1.56
  11   6  19    2.27    2.30
  11   6  20    3.69    2.45
  11   6  21    1.59    1.54
  11  -7 -18    9.81    2.30
  11  -7 -18    6.12    2.86
  11   7 -17    5.04    2.70
  11  -7 -17    6.51    3.21
  11  -7 -17    3.08    2.21
  11   7 -16    1.72    1.56
  11  -7 -16    0.30    1.57
  11  -7 -16    1.19    1.21
  11   7 -15    9.86    3.25
  11  -7 -15    9.54    3.89
  11  -7 -15    7.64    3.30
  11   7 -14   22.58    5.17
  11  -7 -14   20.85    4.54
  11  -7 -14   14.64    4.03
  11   7 -13   27.34    5.08
  11  -7 -13   16.39    4.03
  11  -7 -13   28.03    5.49
  11   7 -12   13.70    3.40
  11  -7 -12    8.17    2.87
  11  -7 -12   13.64    4.06
  11   7 -11    1.56    1.67
  11  -7 -11    3.18    1.72
  11  -7 -11    0.09    1.47
  11   7 -10    2.73    2.18
  11  -7 -10    6.41    2.85
  11  -7 -10    4.27    2.87
  11   7  -9   21.44    4.22
  11  -7  -9   13.11    3.68
  11  -7  -9   13.91    3.54
  11  -7  -8   33.79    5.89
  11  -7  -8   41.86    5.94
  11   7  -8   36.35    5.84
 -11   7  -7   44.82    6.59
  11  -7  -7   47.16    6.58
  11  -7  -7   36.77    6.04
  11   7  -7   57.90    7.55
  11  -7  -6   10.88    3.50
  11  -7  -6   10.19    3.44
  11  -7  -5    1.54    2.26
  11   7  -5    3.25    1.33
  11  -7  -5   -1.70    2.08
  11  -7  -4   11.83    3.78
  11   7  -4   15.75    3.79
  11  -7  -4   16.27    3.82
  11   7  -3   54.00    6.92
  11   7  -3   56.20    7.07
  11  -7  -3   45.46    6.48
  11  -7  -3   52.13    6.90
  11  -7  -2    3.22    1.87
  11   7  -2    8.47    3.11
  11   7  -2    6.45    2.08
  11  -7  -1    3.49    2.30
  11   7  -1    0.83    0.92
  11  -7  -1    0.74    1.98
  11   7  -1    1.17    1.51
  11   7   0    0.23    0.94
  11  -7   0    1.04    1.35
  11   7   0    1.32    1.42
  11  -7   0    1.51    2.04
  11   7   1    0.65    1.06
  11  -7   1    2.82    1.47
  11   7   1   -0.27    2.48
  11  -7   1    0.92    1.62
  11   7   2    7.17    3.16
  11  -7   2    8.17    3.03
  11   7   2   11.08    3.03
  11  -7   2    5.42    1.95
  11   7   3   53.13    6.84
  11  -7   3   56.95    7.25
  11  -7   3   47.15    6.74
  11   7   4   22.06    4.54
  11  -7   4   19.68    4.38
  11   7   4   15.28    3.81
  11  -7   4   15.70    3.95
  11   7   5    0.93    0.95
  11   7   5    1.91    1.90
  11  -7   5    2.14    1.92
  11  -7   5    0.20    1.96
  11   7   6   10.99    4.18
  11  -7   6    7.06    2.14
  11  -7   6   12.33    3.80
  11   7   7   46.25    6.39
  11   7   7   46.47    6.86
  11  -7   7   41.18    6.44
  11  -7   7   41.60    6.50
  11   7   8   42.57    6.29
  11  -7   8   26.11    5.21
  11   7   8   29.29    5.43
  11  -7   8   36.57    5.82
  11   7   9    9.40    2.79
  11   7   9   15.93    3.79
  11  -7   9   15.77    3.60
  11  -7   9   11.98    3.85
  11   7  10    1.15    1.62
  11   7  10    3.18    2.71
  11  -7  10    3.50    3.11
  11  -7  10    2.56    1.53
  11   7  11    1.16    1.31
  11   7  11    0.19    1.32
  11  -7  11    3.43    2.68
  11  -7  11    1.32    1.84
  11   7  12   14.83    3.73
  11   7  12   15.46    3.92
  11  -7  12   12.26    4.15
  11  -7  12    6.79    3.33
  11   7  13   33.65    5.72
  11  -7  13   18.81    4.47
  11   7  13   30.66    5.39
  11  -7  13   23.34    5.42
  11   7  14   20.66    4.74
  11   7  14   15.68    4.43
  11  -7  14   14.80    4.02
  11  -7  14   15.51    4.51
  11   7  15   10.65    3.29
  11   7  15    5.55    2.64
  11  -7  15   10.85    3.73
  11   7  16   -0.25    1.84
  11   7  16    2.04    2.46
  11   7  17   -0.73    2.71
  11   7  18    1.91    1.80
  11   8 -15   -1.22    1.41
  11  -8 -15    2.84    1.81
  11  -8 -15    0.27    2.08
  11   8 -14    1.69    2.22
  11  -8 -14   -2.10    2.19
  11  -8 -14   -0.81    2.18
  11   8 -13   -3.14    2.40
  11  -8 -13    0.53    1.33
  11  -8 -13   -0.47    1.72
  11   8 -12   -0.17    2.68
  11  -8 -12   -2.60    2.05
  11  -8 -12    0.17    1.29
  11   8 -11   -0.09    1.08
  11  -8 -11    0.68    1.56
  11  -8 -11   -0.19    1.69
  11   8 -10   -1.34    1.60
  11  -8 -10    1.71    2.04
  11  -8 -10    2.14    1.09
  11   8  -9    2.84    1.92
  11  -8  -9    2.12    1.36
  11  -8  -9    3.48    1.44
  11   8  -8    4.99    1.94
  11  -8  -8    5.67    2.76
  11  -8  -8    1.23    1.21
  11   8  -7    0.46    2.43
  11  -8  -7   -1.51    2.94
  11  -8  -7    0.27    1.02
  11   8  -6    0.97    1.48
 -11   8  -6    4.82    3.37
  11  -8  -6    1.66    1.93
  11  -8  -6    4.04    1.89
  11   8  -5    1.69    1.17
 -11   8  -5    2.50    2.09
  11  -8  -5    0.95    1.47
  11  -8  -5   -1.81    1.19
  11  -8  -4   -1.47    1.70
  11   8  -4    2.14    2.26
 -11   8  -4    1.22    2.39
  11  -8  -4    1.88    2.49
  11  -8  -3    0.75    2.58
  11   8  -3    0.84    2.58
 -11   8  -3    2.13    2.07
  11  -8  -3    1.05    1.76
  11  -8  -2    2.60    2.05
 -11   8  -2    0.59    1.93
  11   8  -2    0.45    1.29
  11  -8  -2   -0.45    1.38
  11  -8  -1    9.79    3.39
  11   8  -1    6.86    2.92
  11   8  -1    7.88    2.46
 -11   8  -1    6.24    3.13
  11  -8  -1    8.62    3.10
  11  -8   0    4.47    2.61
  11   8   0    3.25    1.54
  11   8   0    3.99    2.24
 -11   8   0   -1.08    1.91
  11  -8   0   -0.38    1.71
  11  -8   1    9.79    3.51
  11   8   1   12.10    3.54
  11   8   1   18.47    4.41
  11  -8   1   11.73    4.07
  11  -8   2    1.15    1.78
  11   8   2   -0.22    1.43
  11   8   2   -0.77    1.26
  11  -8   2    2.62    1.99
  11  -8   3    1.11    1.36
  11   8   3   -1.19    1.17
  11   8   3    0.99    2.15
  11  -8   3    2.91    2.35
  11  -8   4   -1.14    1.24
  11   8   4   -0.47    1.80
  11   8   4    1.72    2.45
  11  -8   4   -0.59    1.80
  11  -8   5    0.61    1.97
  11   8   5    0.19    1.42
  11   8   5    0.27    1.02
  11  -8   5    0.10    1.68
  11  -8   6    7.75    3.47
  11   8   6    3.40    2.07
  11   8   6    4.06    2.67
  11  -8   6    5.41    3.18
  11  -8   7    0.62    1.03
  11   8   7    2.03    1.91
  11   8   7    1.86    2.33
  11  -8   7    2.68    2.62
  11  -8   8    1.89    2.36
  11   8   8    3.45    2.68
  11   8   8    3.43    2.47
  11  -8   8   -1.80    1.32
  11  -8   9    2.50    2.34
  11   8   9    1.27    1.97
  11   8   9    0.06    1.16
  11  -8  10   -0.20    1.33
  11   8  10    1.48    2.26
  11   8  10    0.53    1.22
  11  -8  11   -1.35    1.23
  11   8  11    1.37    1.34
  11  -8  12    2.60    2.43
  11   8  12    2.49    2.59
  11   8  12    0.81    1.70
  11  -8  13    4.98    3.43
  11   8  13    6.26    3.35
  11   8  13    2.64    1.22
  11  -8  14   -0.23    1.20
  11   8  14   -1.40    2.22
  11   8  14    0.93    1.68
  11   8  15    3.51    1.30
  11   8  15   -0.69    2.15
  11   9 -11    1.07    1.52
  11  -9 -11    0.39    1.31
  11  -9 -11   -0.83    1.07
  11   9 -10    1.42    1.85
  11  -9 -10    0.47    1.22
  11  -9 -10    4.47    2.45
  11   9  -9    8.01    2.32
  11  -9  -9    6.00    2.33
  11  -9  -9    6.12    3.33
  11   9  -8    1.85    2.43
  11  -9  -8    4.12    2.42
  11  -9  -8    8.22    3.24
  11   9  -7   16.59    4.25
  11  -9  -7   27.36    5.55
  11  -9  -7   15.36    4.19
  11   9  -6    1.49    1.46
  11  -9  -6    2.14    2.84
  11  -9  -6    0.69    0.82
  11   9  -5    4.76    2.30
 -11   9  -5    1.92    1.66
  11  -9  -5   11.68    4.17
  11  -9  -5    7.37    3.52
  11   9  -4    2.31    1.97
 -11   9  -4    4.91    3.08
  11  -9  -4   -1.40    1.74
  11  -9  -4    2.90    2.19
  11   9  -3   27.55    6.32
 -11   9  -3   32.92    5.31
  11  -9  -3   50.42    7.45
  11  -9  -3   36.04    6.09
  11   9  -2    3.40    2.48
 -11   9  -2    5.81    2.83
  11  -9  -2   10.34    4.05
  11  -9  -2    7.98    3.21
  11   9  -1    4.42    2.18
 -11   9  -1    3.33    2.16
  11  -9  -1    1.77    1.90
  11  -9  -1    0.49    1.34
  11   9   0   -3.18    1.43
  11   9   0    0.86    1.32
 -11   9   0   -2.18    2.21
  11  -9   0    0.33    1.31
  11  -9   0    2.81    2.28
  11  -9   1   -0.36    1.53
  11   9   1    6.43    3.00
  11   9   1    6.60    3.42
 -11   9   1    1.26    1.24
  11  -9   1   -1.21    1.60
  11  -9   2    3.29    3.31
  11   9   2    7.62    2.60
  11   9   2    8.47    3.68
 -11   9   2    6.25    2.22
  11  -9   2    6.07    2.24
  11   9   3   54.09    7.23
  11   9   3   53.67    7.34
 -11   9   3   58.23    7.75
  11  -9   3   43.18    6.78
  11  -9   4    0.88    1.65
  11   9   4    6.68    3.31
  11   9   4    6.18    2.95
 -11   9   4    3.87    1.93
  11  -9   5    3.15    1.97
  11   9   5    6.64    3.32
  11   9   5    4.78    1.35
 -11   9   5    8.42    2.52
  11  -9   6    2.53    1.55
  11   9   6    3.32    1.90
  11   9   6    2.05    1.46
 -11   9   6    7.54    3.68
  11  -9   7   16.03    4.39
  11   9   7   12.58    3.72
  11   9   7   17.17    3.74
 -11   9   7   20.95    4.58
  11  -9   8    4.98    3.15
  11   9   8    7.33    2.55
  11   9   8    4.72    2.40
 -11   9   8    5.95    3.25
  11  -9   9    7.27    3.11
  11   9   9    4.11    1.98
  11   9   9    3.98    2.54
 -11   9   9    6.06    3.04
  11  -9  10    3.82    3.07
  11   9  10   -2.78    2.01
  11   9  10   -0.41    0.96
 -11   9  10   -2.65    2.44
  11  -9  11    4.25    3.05
  11   9  11    4.01    1.79
  11   9  11   -2.81    2.50
 -11   9  11    0.84    2.40
  12   0 -23   -0.18    1.82
  12   0 -22    1.26    1.93
  12   0 -21   -1.86    2.22
  12   0 -20   14.72    3.35
  12   0 -19   26.38    4.91
  12   0 -18   17.69    4.04
  12   0 -17   78.49    8.18
  12   0 -16   66.33    7.54
  12   0 -15    4.84    2.22
  12   0 -14  109.88    9.33
  12   0 -13  230.47   13.28
  12   0 -12   -0.48    0.66
  12   0 -12   82.32    7.93
  12   0 -11   97.04    8.08
  12   0 -11  110.06    9.26
  12   0 -10  135.59    9.61
  12   0 -10  129.05    9.89
  12   0  -9   25.12    4.21
  12   0  -9   26.25    4.38
  12   0  -8   73.30    7.12
  12   0  -8   69.93    7.03
  12   0  -7   14.16    3.12
  12   0  -7   13.68    3.14
  12   0  -6   67.67    6.59
  12   0  -6   58.65    6.37
  12   0  -5  121.72    8.95
  12   0  -5  122.97    9.07
  12   0  -5  115.80    8.59
  12   0  -4   73.34    6.86
  12   0  -4   60.20    6.27
  12   0  -4   64.04    6.55
  12   0  -3    6.69    2.31
  12   0  -3    3.77    1.64
  12   0  -2  230.36   12.32
  12   0  -2  248.56   13.19
  12   0  -2  235.52   12.20
  12   0  -1  522.69   18.70
  12   0  -1  551.41   19.45
  12   0  -1  494.27   18.09
  12   0   0  327.57   14.86
  12   0   0  340.96   15.50
  12   0   0  306.88   14.02
  12   0   1  485.71   18.41
  12   0   1  489.99   18.61
  12   0   1  536.96   18.32
  12   0   2  236.37   12.68
  12   0   2  221.05   12.38
  12   0   2  235.28   12.22
  12   0   3   15.27    3.62
  12   0   3   11.73    2.89
  12   0   4   84.65    7.64
  12   0   4   64.70    6.39
  12   0   5  117.14    9.09
  12   0   5  128.89    8.93
  12   0   6   52.06    6.09
  12   0   6   57.88    6.17
  12   0   7   12.61    3.18
  12   0   7   10.56    2.93
  12   0   8   75.32    7.58
  12   0   8   69.98    6.54
  12   0   9   36.12    5.35
  12   0   9   26.88    4.04
  12   0  10  125.26    9.66
  12   0  10  131.39    8.92
  12   0  11  105.05    8.96
  12   0  12   79.53    8.16
  12   0  13  217.48   13.34
  12   0  14  119.90    9.81
  12   0  15    2.90    1.60
  12   0  16   49.75    6.38
  12   0  17   82.09    8.68
  12   0  18   26.44    4.99
  12   0  19   26.33    5.19
  12   0  20   14.92    3.06
  12   0  21    1.21    1.07
  12   0  22    0.65    1.16
  12   0  23    0.11    2.04
  12   0  24   12.52    4.21
  12   0  25   14.05    5.19
  12  -1 -25   -2.01    1.79
  12  -1 -24    1.11    1.21
  12  -1 -23    1.12    1.23
  12  -1 -22    1.67    1.52
  12  -1 -21    2.98    2.41
  12  -1 -20    1.68    1.18
  12  -1 -19    1.17    1.23
  12   1 -18   -0.03    1.73
  12  -1 -18    0.19    1.16
  12   1 -17    8.26    2.81
  12  -1 -17    6.31    3.03
  12   1 -16    2.46    2.54
  12  -1 -16    1.72    0.98
  12   1 -15    2.95    1.56
  12  -1 -15    6.22    2.19
  12   1 -14    5.45    2.50
  12  -1 -14    2.54    2.14
  12  -1 -13    0.37    1.67
  12   1 -13    0.13    1.17
  12  -1 -13   -0.08    1.21
  12  -1 -12    3.85    0.75
  12   1 -12    4.46    2.12
  12  -1 -12    6.43    2.62
  12  -1 -11   13.40    3.20
  12   1 -11   23.06    4.25
  12  -1 -11   24.15    4.53
  12   1 -11   25.38    4.60
  12  -1 -10    9.34    2.91
  12   1 -10   13.80    2.83
  12  -1 -10   14.73    3.63
  12   1 -10   10.74    3.00
  12   1 -10   10.09    2.58
  12   1  -9   20.48    3.89
  12  -1  -9   17.90    3.63
  12  -1  -9   18.50    3.75
  12   1  -9   15.26    3.47
  12   1  -9   21.54    3.84
  12  -1  -8   13.42    3.04
  12   1  -8   10.51    2.76
  12  -1  -8    3.14    1.67
  12   1  -8   13.79    3.10
  12   1  -8   12.82    3.45
  12  -1  -7    0.21    0.76
  12   1  -7    0.10    1.21
  12  -1  -7    1.23    1.23
  12   1  -7    0.01    0.98
  12   1  -7    0.95    1.16
  12  -1  -6    8.03    2.68
  12   1  -6    6.37    2.26
  12  -1  -6    7.12    2.27
  12   1  -6    5.63    1.94
  12   1  -6    5.40    1.94
  12  -1  -5   16.65    3.47
  12   1  -5   14.32    3.06
  12  -1  -5   17.64    3.57
  12   1  -5   14.42    3.00
  12   1  -5   13.75    2.99
  12  -1  -4   43.72    5.47
  12   1  -4   43.38    5.30
  12  -1  -4   40.23    5.41
  12   1  -4   35.36    4.87
  12   1  -4   39.78    5.17
  12  -1  -3  104.14    8.37
  12   1  -3   78.70    7.25
  12  -1  -3   97.93    8.14
  12   1  -3   80.41    7.30
  12   1  -3   99.55    8.06
  12  -1  -2   54.21    6.30
  12   1  -2   64.63    6.40
  12  -1  -2   55.53    6.16
  12   1  -2   55.61    6.21
  12  -1  -1   14.71    3.11
  12   1  -1   22.91    4.08
  12  -1  -1   15.28    3.63
  12   1  -1   15.43    3.13
  12   1  -1   18.50    3.29
  12  -1   0    8.12    2.40
  12  -1   0    9.91    3.13
  12   1   0    9.54    2.95
  12   1   0   12.64    3.14
  12   1   0   10.35    2.89
  12   1   1   17.55    3.58
  12  -1   1   24.41    3.99
  12  -1   1   21.59    4.38
  12   1   1   17.01    3.49
  12   1   1   17.75    3.64
  12  -1   2   57.42    6.25
  12   1   2   60.01    6.08
  12  -1   2   63.74    6.60
  12   1   2   50.39    5.67
  12  -1   3   78.76    7.35
  12   1   3   90.09    7.86
  12  -1   3   88.26    7.93
  12   1   3   87.92    7.51
  12  -1   4   35.58    4.99
  12   1   4   39.99    5.34
  12   1   4   35.99    4.80
  12   1   5   18.61    3.54
  12  -1   5   10.14    2.75
  12   1   5   13.12    3.14
  12   1   6    7.36    2.23
  12  -1   6    6.25    2.08
  12   1   6    3.37    1.85
  12   1   7    0.22    1.12
  12  -1   7    0.57    0.95
  12   1   7   -0.41    1.33
  12   1   8    8.69    2.63
  12  -1   8    3.39    2.19
  12   1   8   10.35    3.10
  12   1   9   13.66    3.06
  12   1   9   20.88    4.12
  12  -1   9   18.49    3.77
  12   1  10   12.46    3.20
  12  -1  10   12.36    3.25
  12   1  10   12.70    3.29
  12  -1  11   14.26    3.45
  12   1  11   15.68    2.99
  12   1  12    6.13    2.49
  12  -1  12    3.01    1.99
  12   1  12   -0.45    0.78
  12   1  13    4.57    2.49
  12  -1  13   -0.64    1.03
  12   1  14    4.49    2.49
  12  -1  14    2.91    2.13
  12   1  15    5.33    2.17
  12  -1  15    3.11    2.30
  12   1  16    5.84    2.75
  12  -1  16    3.81    2.57
  12   1  17   11.62    3.78
  12  -1  17   10.20    3.48
  12   1  18    0.43    1.58
  12  -1  18    0.82    1.34
  12   1  19    2.99    2.77
  12  -1  19    0.85    0.99
  12   1  20    2.87    2.79
  12  -1  20    4.86    2.99
  12   1  21   11.01    3.71
  12  -1  21   -0.26    1.41
  12   1  22    3.69    2.33
  12  -1  22    4.59    2.71
  12   1  23    2.54    2.42
  12  -1  23    2.37    2.40
  12   1  24   -1.38    1.36
  12  -1  24   -0.56    1.58
  12   1  25   -0.63    2.08
  12  -2 -25    8.30    3.88
  12  -2 -24    4.18    2.44
  12  -2 -23    3.66    2.97
  12  -2 -22   10.85    3.80
  12  -2 -21    4.18    2.30
  12  -2 -20   12.53    3.45
  12  -2 -19    7.94    2.85
  12  -2 -18   24.34    5.02
  12  -2 -17   14.08    3.93
  12  -2 -16   15.01    3.76
  12   2 -16   18.58    3.76
  12  -2 -15   15.49    3.69
  12   2 -15   17.70    4.08
  12  -2 -14   17.30    3.99
  12  -2 -14   29.14    4.65
  12   2 -14   34.78    5.40
  12   2 -13   76.73    7.70
  12  -2 -13   65.36    7.36
  12   2 -13   76.74    7.79
  12  -2 -13   58.12    6.82
  12   2 -12   54.15    6.52
  12  -2 -12   49.40    6.29
  12   2 -12   49.18    6.09
  12  -2 -12   48.28    6.16
  12  -2 -11   16.51    3.66
  12   2 -11   26.26    4.53
  12  -2 -11   31.54    5.50
  12   2 -11   25.85    4.38
  12  -2 -10   37.31    5.35
  12   2 -10   27.70    4.76
  12   2 -10   29.84    4.73
  12  -2 -10   27.97    4.62
  12  -2  -9   65.86    7.06
  12   2  -9   52.56    5.98
  12  -2  -9   60.61    7.00
  12   2  -9   58.27    6.69
  12   2  -9   49.46    6.23
  12  -2  -8   65.27    7.02
  12   2  -8   78.63    7.00
  12  -2  -8   66.81    7.34
  12   2  -8   89.13    7.66
  12   2  -8   66.55    6.80
  12  -2  -7   31.50    4.83
  12   2  -7   41.25    5.23
  12  -2  -7   43.51    5.86
  12   2  -7   28.85    4.41
  12   2  -7   36.57    5.31
  12  -2  -6   27.64    4.20
  12   2  -6   32.46    4.52
  12  -2  -6   26.48    4.78
  12   2  -6   24.76    4.39
  12   2  -6   34.53    5.10
  12  -2  -5   66.86    7.05
  12   2  -5   68.84    6.65
  12  -2  -5   65.24    7.06
  12   2  -5   66.21    6.61
  12   2  -5   72.21    7.10
  12  -2  -4   97.24    8.44
  12   2  -4   92.16    7.68
  12  -2  -4   94.00    8.36
  12   2  -4   98.02    8.11
  12   2  -4  108.52    8.62
  12   2  -3   19.50    3.41
  12  -2  -3   27.96    4.59
  12  -2  -3   23.94    4.20
  12   2  -3   25.19    4.11
  12   2  -3   22.12    3.87
  12  -2  -2  130.28    9.73
  12   2  -2  119.98    8.91
  12  -2  -2  129.32    9.58
  12   2  -2  125.94    9.09
  12   2  -2  131.77    9.50
  12  -2  -1  251.97   13.40
  12   2  -1  252.43   12.65
  12  -2  -1  259.61   13.89
  12   2  -1  263.38   13.36
  12   2  -1  259.26   13.14
  12  -2   0  152.75   10.51
  12   2   0  146.08    9.68
  12  -2   0  154.76   10.67
  12   2   0  176.06   10.88
  12   2   0  156.48   10.30
  12  -2   1  250.51   13.34
  12   2   1  274.45   13.41
  12  -2   1  247.32   13.34
  12   2   1  255.73   13.14
  12  -2   2  137.04    9.89
  12   2   2  127.06    9.31
  12  -2   2  147.96   10.49
  12   2   2  109.25    8.69
  12  -2   3   26.21    4.33
  12   2   3   28.16    4.18
  12  -2   3   32.85    5.14
  12   2   3   28.07    4.52
  12  -2   4  103.67    8.87
  12   2   4  101.62    8.40
  12   2   4  116.05    8.91
  12  -2   5   67.44    6.82
  12  -2   5   63.74    6.79
  12   2   5   74.42    7.27
  12   2   5   71.13    6.90
  12  -2   6   23.96    4.11
  12   2   6   26.71    4.61
  12   2   6   38.12    4.97
  12  -2   7   37.51    5.26
  12   2   7   36.17    5.12
  12   2   7   31.22    4.80
  12  -2   8   88.72    8.10
  12   2   8   84.17    7.87
  12   2   8   68.57    6.81
  12  -2   9   66.68    7.17
  12   2   9   68.40    7.15
  12   2   9   59.83    6.52
  12  -2  10   39.77    5.66
  12   2  10   30.68    4.49
  12   2  10   33.43    5.06
  12   2  11   21.52    4.31
  12  -2  11   15.82    3.47
  12  -2  12   52.68    6.41
  12   2  12   44.21    6.12
  12   2  12   42.66    5.70
  12  -2  13   61.62    7.27
  12   2  13   70.01    7.62
  12   2  13   65.24    6.98
  12  -2  14   39.53    5.92
  12   2  14   35.83    5.67
  12   2  15   10.66    2.77
  12  -2  15   14.88    4.09
  12   2  16   10.53    2.89
  12  -2  16   21.66    4.53
  12  -2  17   21.24    4.88
  12   2  17   30.19    5.08
  12   2  18   25.85    4.97
  12  -2  18   23.83    4.90
  12   2  19   10.19    3.74
  12  -2  19   12.46    3.83
  12   2  20    8.03    3.05
  12  -2  20    6.36    2.04
  12   2  21    9.53    3.62
  12  -2  21    6.06    3.34
  12   2  22    6.81    3.30
  12  -2  22    8.31    2.88
  12   2  23    1.95    2.03
  12   2  24    5.78    2.92
  12   2  25    7.07    2.97
  12  -3 -24   -0.22    1.29
  12  -3 -23    2.14    1.08
  12  -3 -22    3.12    2.23
  12  -3 -21    9.14    3.81
  12  -3 -20    3.20    2.06
  12  -3 -19   -0.25    1.25
  12   3 -19    2.49    2.46
  12  -3 -18   16.60    4.23
  12   3 -18    6.21    2.33
  12  -3 -17    2.35    1.99
  12   3 -17    0.46    1.62
  12  -3 -16   -0.02    2.06
  12   3 -16    2.24    1.76
  12  -3 -15   -0.13    1.25
  12  -3 -15   -1.95    1.18
  12   3 -15   -0.36    1.81
  12  -3 -14    0.12    0.94
  12  -3 -14   -0.51    1.02
  12   3 -14    1.10    1.13
  12  -3 -13    1.97    0.94
  12  -3 -13    2.72    2.17
  12   3 -13   -1.15    1.51
  12  -3 -12   18.66    4.24
  12  -3 -12   23.75    4.59
  12   3 -12   22.83    4.47
  12  -3 -11   19.51    4.14
  12  -3 -11   23.95    4.30
  12   3 -11   13.82    3.47
  12  -3 -10   16.90    3.88
  12  -3 -10   16.88    4.00
  12   3 -10   15.92    3.59
  12  -3  -9   14.64    3.82
  12  -3  -9   13.22    3.33
  12   3  -9   10.35    2.58
  12  -3  -8   10.62    3.30
  12  -3  -8   15.13    3.50
  12   3  -8   -0.74    1.62
  12   3  -8   11.12    3.23
  12   3  -7    6.52    2.89
  12  -3  -7    4.32    1.28
  12  -3  -7    6.32    2.67
  12   3  -7    3.71    1.87
  12   3  -7    3.48    1.54
  12   3  -6    4.80    1.80
  12   3  -6    0.92    1.01
  12  -3  -6    2.81    1.71
  12  -3  -6    4.15    1.64
  12   3  -6    1.15    1.47
  12   3  -5   16.77    3.65
  12   3  -5   11.31    3.04
  12  -3  -5   10.32    3.06
  12  -3  -5   15.90    4.10
  12   3  -5   14.79    3.14
  12  -3  -4   91.07    8.51
  12  -3  -4   80.85    8.09
  12   3  -4   81.72    7.45
  12   3  -4   75.05    7.05
  12   3  -4   72.24    7.06
  12  -3  -3  134.64   10.16
  12  -3  -3  141.67   10.31
  12   3  -3  141.53    9.85
  12   3  -3  139.47    9.54
  12   3  -3  148.18   10.17
  12  -3  -2   75.30    7.61
  12  -3  -2   75.91    7.67
  12   3  -2   66.18    6.79
  12   3  -2   67.29    6.60
  12   3  -2   66.32    6.92
  12   3  -1   10.06    2.97
  12   3  -1    8.90    2.51
  12  -3  -1   10.25    2.85
  12  -3  -1   10.57    3.18
  12   3  -1    9.65    2.53
  12   3   0    7.45    2.14
  12   3   0   11.10    2.72
  12  -3   0   10.99    2.83
  12  -3   0    7.80    1.92
  12   3   0   12.45    3.19
  12   3   1   11.10    2.51
  12   3   1   11.41    2.90
  12  -3   1   12.95    3.77
  12  -3   1   12.53    3.34
  12  -3   2   63.66    6.93
  12  -3   2   74.32    7.62
  12   3   2   77.82    7.45
  12   3   2   57.23    6.23
  12  -3   3  146.89   10.56
  12  -3   3  171.63   11.28
  12   3   3  155.76   10.68
  12   3   3  153.64   10.43
  12  -3   4   64.60    7.28
  12  -3   4   86.32    8.26
  12   3   4   86.11    7.73
  12   3   4   93.01    8.10
  12   3   5   15.10    3.11
  12  -3   5   13.73    3.65
  12  -3   5   16.44    3.91
  12   3   5   22.92    4.19
  12   3   6    3.20    0.94
  12   3   6    3.05    1.37
  12  -3   6    1.33    0.99
  12  -3   6    3.32    1.28
  12   3   7    3.50    1.62
  12   3   7    3.45    1.80
  12  -3   7    2.04    1.33
  12  -3   7    5.55    2.25
  12   3   8    8.60    2.72
  12   3   8   10.64    2.89
  12  -3   8   16.67    3.99
  12   3   9   12.38    3.10
  12   3   9   11.74    3.15
  12  -3   9   19.33    4.27
  12   3  10   18.18    3.73
  12   3  10   17.51    4.16
  12  -3  10   17.51    3.79
  12   3  11   18.69    4.06
  12   3  11   15.56    3.71
  12  -3  11   20.92    4.30
  12  -3  12   29.32    4.95
  12   3  12   27.80    4.54
  12   3  12   30.05    5.12
  12   3  13    1.45    1.88
  12   3  13    3.52    2.39
  12  -3  13    2.94    2.08
  12   3  14    1.21    2.18
  12   3  14    0.25    1.41
  12  -3  14    3.93    1.40
  12   3  15   -0.57    0.92
  12  -3  15    1.14    1.65
  12   3  16    2.55    2.01
  12  -3  16    2.43    2.63
  12   3  17    2.12    1.22
  12  -3  17    4.67    2.51
  12   3  18    5.57    2.43
  12  -3  18    7.56    2.93
  12   3  19    4.94    2.07
  12  -3  19    3.42    2.21
  12   3  20    0.42    1.78
  12  -3  20    1.71    1.46
  12   3  21    0.66    2.34
  12  -3  21    1.52    1.48
  12   3  22    3.11    2.77
  12   3  23    5.19    2.58
  12   3  24   -0.82    3.03
  12  -4 -23    8.38    2.83
  12  -4 -22    8.09    2.80
  12  -4 -21    6.29    2.11
  12  -4 -20    7.30    2.74
  12  -4 -19    1.97    1.52
  12   4 -19    0.07    1.40
  12  -4 -18    6.29    3.25
  12   4 -18    3.14    1.73
  12  -4 -17   11.46    3.39
  12   4 -17    7.17    2.25
  12  -4 -16    7.44    3.09
  12   4 -16    3.73    1.95
  12  -4 -16    5.62    2.46
  12  -4 -15    8.06    3.09
  12   4 -15    4.75    2.30
  12  -4 -15    4.15    2.49
  12  -4 -14    7.83    2.83
  12  -4 -14   11.00    3.44
  12   4 -14   10.23    2.68
  12  -4 -13   14.85    3.64
  12  -4 -13   22.87    4.81
  12   4 -13   18.92    3.96
  12  -4 -12    7.21    3.05
  12  -4 -12    3.34    2.15
  12   4 -12    3.48    1.61
  12   4 -11    4.44    2.30
  12  -4 -11    0.43    1.72
  12  -4 -11    0.99    1.42
  12   4 -10   15.10    3.35
  12  -4 -10   18.37    4.07
  12  -4 -10    9.30    3.14
  12  -4  -9   42.22    6.06
  12  -4  -9   37.60    5.74
  12   4  -9   43.41    5.59
  12  -4  -8   52.40    6.79
  12   4  -8   76.25    7.83
  12  -4  -8   69.57    7.48
  12  -4  -7  106.00    9.65
  12   4  -7  105.29    8.99
  12  -4  -7  115.09    9.78
  12   4  -6   47.61    5.65
  12  -4  -6   25.90    4.68
  12   4  -6   39.09    5.72
  12  -4  -6   44.24    6.05
  12  -4  -5   68.60    7.23
  12   4  -5   85.21    7.60
  12   4  -5   73.63    7.60
  12  -4  -5   80.71    8.20
  12  -4  -4  139.49   10.49
  12  -4  -4  134.71   10.40
  12   4  -4  144.14    9.95
  12   4  -4  138.39   10.28
  12  -4  -3  119.97    9.98
  12  -4  -3  115.97    9.91
  12   4  -3  117.02    9.11
  12   4  -3  131.82    9.88
  12  -4  -2  115.95    9.67
  12  -4  -2  135.93   10.42
  12   4  -2  132.82    9.72
  12   4  -2  118.39    9.34
  12  -4  -1   73.90    7.87
  12  -4  -1   80.74    8.34
  12   4  -1   71.03    7.11
  12   4  -1   62.70    6.67
  12   4  -1   68.43    7.09
  12   4   0   22.84    4.15
  12  -4   0   17.65    3.98
  12   4   0   25.26    4.34
  12  -4   0   18.07    4.10
  12   4   0   21.81    4.17
  12  -4   1   63.41    7.37
  12  -4   1   72.02    7.78
  12   4   1   60.71    6.84
  12   4   1   61.69    6.76
  12  -4   2  130.34   10.26
  12  -4   2  124.72    9.99
  12   4   2  120.91    9.52
  12   4   2  119.88    9.16
  12  -4   3  113.99    9.85
  12  -4   3  139.05   10.64
  12   4   3  112.42    9.04
  12   4   3  115.53    9.27
  12   4   4  134.67    9.98
  12  -4   4  130.14   10.14
  12  -4   4  148.87   11.08
  12   4   4  142.23   10.35
  12   4   5   64.51    7.12
  12  -4   5   78.65    8.08
  12  -4   5   63.81    7.17
  12   4   5   84.47    7.86
  12   4   6   39.12    5.53
  12  -4   6   31.39    5.28
  12  -4   6   38.57    5.75
  12   4   6   45.29    5.59
  12   4   7   94.93    8.74
  12  -4   7  109.54    9.34
  12  -4   7   94.02    8.76
  12   4   7   89.21    7.91
  12   4   8   67.01    7.09
  12  -4   8   64.03    7.42
  12  -4   8   60.97    7.38
  12   4   8   68.44    7.15
  12   4   9   44.38    6.17
  12  -4   9   31.44    5.20
  12  -4   9   36.56    6.07
  12   4   9   35.06    5.28
  12   4  10   13.62    3.19
  12  -4  10   20.42    4.29
  12   4  10   16.46    4.08
  12  -4  10   16.04    3.72
  12   4  11    4.46    2.23
  12  -4  11    1.51    1.34
  12   4  11    6.79    2.63
  12   4  12    3.07    1.92
  12  -4  12    0.98    1.63
  12   4  12    1.72    0.94
  12   4  13   17.57    3.60
  12  -4  13   19.78    4.05
  12   4  13   20.74    4.19
  12   4  14   10.89    3.01
  12  -4  14    7.10    3.16
  12   4  14    7.50    2.29
  12  -4  15    1.91    1.41
  12   4  15    2.68    2.09
  12  -4  16   10.26    3.17
  12   4  16    4.96    1.60
  12  -4  17    6.37    3.51
  12   4  17    8.78    3.24
  12  -4  18    5.58    2.57
  12   4  18    1.53    2.07
  12  -4  19    2.81    1.42
  12   4  19   -1.03    1.33
  12  -4  20    3.95    2.56
  12   4  20    6.47    2.96
  12   4  21    2.02    1.82
  12   4  22    7.29    3.04
  12   4  23    9.82    3.22
  12  -5 -21    4.33    2.43
  12  -5 -20    1.46    2.16
  12  -5 -19    3.86    1.01
  12   5 -19   16.07    5.18
  12  -5 -18    0.33    1.42
  12   5 -18    0.14    1.47
  12  -5 -17    2.54    1.23
  12  -5 -17    8.24    2.82
  12   5 -17    3.80    2.21
  12  -5 -16    1.42    1.46
  12  -5 -16   -1.04    1.91
  12   5 -16    3.38    1.80
  12  -5 -15    2.82    2.04
  12  -5 -15   -1.22    1.12
  12   5 -15    0.53    1.99
  12  -5 -14   -0.69    1.31
  12  -5 -14    0.82    1.05
  12   5 -14    1.13    1.76
  12  -5 -13   10.56    3.82
  12   5 -13    5.02    2.26
  12  -5 -13    4.96    2.23
  12   5 -12    6.42    2.56
  12  -5 -12    2.18    1.85
  12  -5 -12    5.56    2.69
  12   5 -11    5.39    3.02
  12  -5 -11    5.05    2.33
  12  -5 -11    6.13    3.46
  12   5 -10   12.39    3.33
  12  -5 -10   15.27    4.27
  12  -5 -10   10.52    3.14
  12   5  -9    3.83    1.82
  12  -5  -9   11.24    3.73
  12  -5  -9   12.46    3.09
  12   5  -8   -1.48    1.93
  12  -5  -8    0.55    1.31
  12  -5  -8    1.99    1.91
  12   5  -7    3.35    1.63
  12  -5  -7    1.95    1.31
  12  -5  -7    4.61    2.15
  12   5  -6    0.45    1.53
  12  -5  -6    2.06    2.60
  12  -5  -6    2.82    2.61
  12   5  -5    2.82    1.48
  12  -5  -5   -0.10    1.64
  12   5  -5   -0.81    0.79
  12  -5  -5   -0.64    1.37
  12   5  -4    1.14    2.29
  12  -5  -4    1.19    2.31
  12   5  -4   -0.87    1.59
  12  -5  -4    0.30    1.71
  12   5  -3   12.43    3.09
  12  -5  -3   14.26    3.45
  12   5  -3   16.32    3.09
  12  -5  -3   11.67    3.22
  12   5  -2   14.71    3.26
  12  -5  -2   15.71    4.15
  12  -5  -2   25.33    5.01
  12   5  -2   30.58    4.52
  12   5  -1   15.52    3.89
  12  -5  -1   19.70    4.18
  12   5  -1   23.74    4.07
  12  -5  -1   18.97    3.94
  12   5   0   11.74    3.22
  12  -5   0    6.90    2.50
  12   5   0   12.66    3.24
  12  -5   0   11.19    3.44
  12   5   1   23.62    4.28
  12   5   1   23.84    4.14
  12  -5   1   15.99    3.48
  12  -5   1   18.67    4.18
  12  -5   2   23.86    4.37
  12   5   2   18.87    3.95
  12  -5   2   18.50    3.80
  12   5   2   26.27    4.60
  12   5   3   16.57    3.79
  12  -5   3   10.93    3.04
  12   5   3   17.86    3.80
  12  -5   3   16.07    4.41
  12   5   4    3.98    1.88
  12  -5   4    0.59    1.43
  12   5   4    1.19    2.02
  12  -5   4   -0.97    2.09
  12   5   5   -0.42    1.05
  12  -5   5    1.64    1.59
  12   5   5   -0.04    1.77
  12  -5   5    0.32    1.55
  12   5   6    1.77    2.14
  12  -5   6    2.88    1.06
  12   5   6    2.54    1.88
  12  -5   6    2.29    2.28
  12   5   7    8.90    2.81
  12  -5   7   12.78    3.65
  12   5   7    9.07    3.09
  12  -5   7    8.59    2.95
  12   5   8   -0.01    1.46
  12  -5   8    2.44    1.97
  12   5   8   -1.19    1.83
  12  -5   8   -2.39    2.56
  12   5   9    5.71    2.37
  12  -5   9   11.67    3.10
  12   5   9    2.83    2.11
  12  -5   9    9.88    3.68
  12   5  10   15.74    4.12
  12  -5  10   10.02    3.27
  12   5  10   10.41    2.62
  12  -5  10   12.00    3.26
  12   5  11    2.58    1.37
  12  -5  11    3.72    1.63
  12   5  11    1.11    1.81
  12  -5  11    3.71    2.44
  12   5  12    5.92    2.97
  12  -5  12    0.47    0.95
  12   5  12    6.08    2.36
  12  -5  12    3.73    1.05
  12   5  13    7.72    3.17
  12  -5  13    9.56    3.27
  12   5  13    4.99    2.38
  12  -5  13    9.68    3.37
  12   5  14   -0.21    1.43
  12  -5  14    0.62    2.09
  12   5  14    0.56    2.11
  12  -5  14    2.73    2.25
  12   5  15   -0.63    1.39
  12  -5  15   -0.35    1.30
  12   5  15    1.28    1.08
  12  -5  16   -0.06    1.11
  12   5  16    1.61    2.23
  12  -5  17    4.28    3.10
  12   5  17    8.63    2.87
  12  -5  18    1.61    2.01
  12   5  18    0.80    2.07
  12  -5  19    5.60    2.51
  12   5  19    1.31    2.46
  12   5  20   -1.36    2.52
  12   5  21   -0.95    1.24
  12  -6 -19    7.21    2.23
  12  -6 -18    0.74    1.49
  12  -6 -18   -1.79    2.17
  12   6 -18    2.49    2.25
  12  -6 -17   13.25    3.99
  12  -6 -17    8.29    3.09
  12   6 -17   11.54    3.59
  12  -6 -16    4.77    3.04
  12  -6 -16    9.32    3.21
  12   6 -16    8.31    3.69
  12   6 -15    3.13    2.43
  12  -6 -15    2.50    2.54
  12  -6 -15    4.00    2.77
  12   6 -14   26.08    5.08
  12  -6 -14   20.94    4.66
  12  -6 -14   13.03    3.78
  12  -6 -13   30.07    5.00
  12  -6 -13   30.23    5.40
  12   6 -13   36.39    5.97
  12   6 -12    4.75    2.41
  12  -6 -12    6.39    2.93
  12  -6 -12    1.91    1.48
  12  -6 -11    9.09    3.04
  12   6 -11   12.48    3.48
  12  -6 -11   11.99    3.88
  12   6 -10   24.56    4.61
  12  -6 -10   20.66    4.56
  12  -6 -10   24.01    5.32
  12  -6  -9   12.08    3.49
  12   6  -9    6.41    3.07
  12  -6  -9    7.11    2.64
  12   6  -8   30.23    4.93
  12  -6  -8   31.44    5.39
  12  -6  -8   37.21    5.68
  12  -6  -7   63.36    7.54
  12  -6  -7   58.56    7.31
  12   6  -7   63.10    7.37
  12   6  -6   13.72    3.46
  12  -6  -6   16.36    4.26
  12  -6  -6    7.87    3.07
  12   6  -5   20.45    4.14
  12  -6  -5   16.21    3.66
  12  -6  -5   18.07    3.95
  12   6  -4   13.88    3.83
  12  -6  -4   28.30    5.13
  12  -6  -4   28.94    5.08
  12   6  -4   32.09    4.96
  12   6  -3   46.70    6.04
  12  -6  -3   51.13    6.81
  12  -6  -3   46.20    6.59
  12   6  -2   34.12    5.07
  12  -6  -2   52.68    6.82
  12  -6  -2   43.22    6.36
  12   6  -2   51.23    6.61
  12   6  -1   11.94    3.78
  12  -6  -1   12.00    2.79
  12   6  -1   13.83    3.74
  12  -6  -1    8.78    3.27
  12   6   0   -0.25    1.00
  12  -6   0    3.02    2.32
  12   6   0    1.34    1.94
  12  -6   0    0.18    2.09
  12   6   1   17.38    4.19
  12  -6   1   11.51    3.26
  12  -6   1   10.38    2.93
  12   6   1   15.78    3.43
  12   6   2   50.14    6.25
  12  -6   2   47.32    6.43
  12  -6   2   57.20    7.33
  12   6   2   55.41    6.90
  12   6   3   54.36    6.71
  12  -6   3   62.95    7.57
  12  -6   3   68.59    7.70
  12   6   3   53.24    6.71
  12   6   4   35.67    5.50
  12   6   4   33.67    4.93
  12  -6   4   32.14    5.51
  12  -6   4   46.46    6.57
  12   6   5   18.21    3.77
  12   6   5   24.75    4.61
  12  -6   5   17.64    3.72
  12  -6   5   30.23    5.27
  12   6   6   15.63    3.71
  12  -6   6   12.55    3.92
  12  -6   6   19.52    4.25
  12   6   6   16.53    4.02
  12   6   7   62.84    7.26
  12  -6   7   55.67    7.06
  12   6   7   69.92    7.73
  12  -6   7   62.59    7.36
  12   6   8   45.78    6.70
  12  -6   8   32.96    5.63
  12   6   8   29.50    5.12
  12  -6   8   39.54    5.81
  12   6   9    6.51    3.47
  12  -6   9   11.97    3.40
  12  -6   9   10.36    3.16
  12   6   9   13.13    3.75
  12   6  10   13.40    3.32
  12  -6  10   24.69    4.99
  12  -6  10   21.92    4.65
  12   6  10   15.49    3.94
  12   6  11   20.44    4.34
  12  -6  11   12.74    3.58
  12  -6  11    8.71    2.85
  12   6  11   17.59    4.07
  12   6  12    4.79    3.02
  12  -6  12    6.16    2.25
  12  -6  12    3.66    1.70
  12   6  12   -0.53    1.44
  12  -6  13   39.96    6.70
  12   6  13   27.94    5.22
  12  -6  13   33.95    5.44
  12   6  13   27.71    4.87
  12   6  14   18.99    4.08
  12  -6  14   16.50    4.30
  12  -6  14   13.48    3.87
  12   6  14   11.96    3.56
  12   6  15    1.55    2.33
  12  -6  15    1.27    2.10
  12  -6  15    4.31    3.09
  12   6  15    0.65    1.13
  12  -6  16    6.01    2.68
  12  -6  16   15.17    4.88
  12   6  16    8.51    3.26
  12  -6  17   14.07    4.49
  12   6  17   15.39    3.78
  12  -6  17   18.13    4.77
  12   6  18   -2.22    1.29
  12  -6  18    1.51    1.63
  12   6  19   10.60    3.79
  12  -6  19   12.35    4.49
  12   7 -17   -0.72    1.68
  12  -7 -17    0.76    1.59
  12  -7 -17   -1.92    2.02
  12   7 -16   -0.43    2.00
  12  -7 -16   -0.41    2.01
  12  -7 -16   -0.34    1.05
  12   7 -15    7.05    2.14
  12  -7 -15   10.53    3.01
  12  -7 -15    6.45    3.04
  12   7 -14    4.05    3.51
  12  -7 -14    3.37    2.60
  12  -7 -14   -1.21    2.50
  12   7 -13    6.10    2.39
  12  -7 -13    7.34    2.64
  12  -7 -13   11.29    3.72
  12   7 -12    1.58    1.63
  12  -7 -12    3.97    2.65
  12  -7 -12    4.13    2.38
  12   7 -11    0.44    0.96
  12  -7 -11   -0.23    2.01
  12  -7 -11   -0.73    1.27
  12   7 -10    4.66    2.47
  12  -7 -10    3.18    2.82
  12  -7 -10    5.44    2.58
  12   7  -9   22.39    4.53
  12  -7  -9   19.02    4.48
  12  -7  -9   23.23    4.66
  12  -7  -8    2.31    1.42
  12   7  -8    2.66    2.25
  12  -7  -8    7.00    2.57
  12  -7  -7    7.40    2.76
  12   7  -7   13.15    3.73
  12  -7  -7   11.88    3.93
  12  -7  -6    1.49    0.94
  12  -7  -6   -0.21    1.79
  12  -7  -5   -0.52    0.97
  12   7  -5    0.26    2.51
  12  -7  -5    1.61    2.47
  12  -7  -4   14.96    3.55
  12   7  -4   13.34    4.27
  12  -7  -4   10.41    3.31
  12  -7  -3    5.01    2.86
  12   7  -3    4.50    2.65
  12  -7  -3    8.47    2.11
  12  -7  -2    4.89    2.63
  12   7  -2    0.58    1.67
  12  -7  -2    4.86    2.63
  12   7  -2    6.99    2.51
  12   7  -1    9.45    3.32
  12  -7  -1   11.32    2.81
  12  -7  -1   11.79    3.69
  12   7  -1   11.59    3.36
  12   7   0    6.45    2.69
  12  -7   0   12.61    3.48
  12  -7   0    5.53    2.29
  12   7   0    7.20    2.63
  12   7   1   11.85    3.20
  12  -7   1   12.07    3.51
  12  -7   1   18.05    4.25
  12   7   1   12.84    3.17
  12   7   2    5.13    2.71
  12  -7   2    4.28    1.69
  12  -7   2    5.70    2.52
  12   7   2   11.86    3.28
  12   7   3    4.58    2.44
  12  -7   3    8.17    2.98
  12  -7   3   14.34    4.06
  12   7   3    6.27    2.36
  12   7   4   15.35    4.54
  12  -7   4   13.86    3.37
  12  -7   4   10.41    4.09
  12   7   4    5.20    2.78
  12   7   5   -1.24    1.84
  12  -7   5    3.64    1.90
  12  -7   5   -1.05    1.77
  12   7   5    0.59    2.22
  12   7   6    1.75    2.01
  12  -7   6    3.09    2.12
  12  -7   6    1.20    2.84
  12   7   6    1.10    1.77
  12   7   7    7.00    4.08
  12  -7   7   12.28    3.24
  12  -7   7   10.74    4.06
  12   7   7   14.41    3.89
  12   7   8    6.40    2.39
  12   7   8    2.44    3.02
  12  -7   8    3.60    2.17
  12  -7   8    1.67    2.25
  12   7   9   23.58    4.67
  12  -7   9   20.78    5.06
  12   7   9   32.35    5.17
  12  -7   9   23.53    4.85
  12   7  10    3.78    1.74
  12  -7  10    6.28    2.57
  12  -7  10    2.00    1.36
  12   7  11    0.86    0.97
  12   7  11   -0.60    1.25
  12  -7  11   -0.78    1.21
  12  -7  11    2.24    1.90
  12   7  12    7.32    2.51
  12  -7  12    6.27    3.00
  12  -7  12    6.23    4.14
  12   7  12    6.45    2.81
  12   7  13   10.35    4.27
  12  -7  13    5.76    3.07
  12  -7  13    6.32    2.79
  12   7  13    7.84    2.88
  12   7  14    2.82    3.01
  12  -7  14    0.35    1.30
  12  -7  14    1.56    2.25
  12   7  14    1.39    0.92
  12   7  15    9.79    3.80
  12  -7  15    4.39    3.04
  12   7  15    6.74    2.53
  12  -7  16    2.34    3.13
  12   7  16    2.54    1.87
  12   7  17    4.58    3.52
  12   8 -14    1.86    1.21
  12  -8 -14    0.59    1.60
  12  -8 -14   -1.43    1.78
  12   8 -13    9.13    3.32
  12  -8 -13    3.73    2.34
  12  -8 -13    9.62    3.26
  12   8 -12   10.52    3.18
  12  -8 -12    8.43    3.35
  12  -8 -12    4.83    2.82
  12   8 -11   -1.33    1.31
  12  -8 -11    1.29    1.97
  12  -8 -11    2.81    2.25
  12   8 -10    6.93    3.06
  12  -8 -10    5.56    2.42
  12  -8 -10    7.19    3.50
  12   8  -9    5.51    2.44
  12  -8  -9    4.32    3.44
  12  -8  -9    2.68    2.00
  12   8  -8    0.37    1.88
  12  -8  -8    6.15    2.95
  12  -8  -8    7.27    3.25
  12   8  -7   25.20    4.63
  12  -8  -7   17.56    4.01
  12  -8  -7   18.68    4.83
  12   8  -6    6.21    2.56
  12  -8  -6   10.62    3.12
  12  -8  -6   10.78    3.63
  12  -8  -5    0.03    1.18
  12   8  -5   -0.43    1.80
 -12   8  -5    1.34    1.68
  12  -8  -5    0.95    1.74
  12  -8  -4    0.77    2.08
  12   8  -4    3.82    1.07
 -12   8  -4    3.23    2.43
  12  -8  -4    4.85    2.84
  12  -8  -3   12.41    2.98
  12   8  -3   12.98    3.93
 -12   8  -3   15.01    3.72
  12  -8  -3   13.01    3.77
  12  -8  -2    2.90    2.27
  12   8  -2    2.38    1.13
 -12   8  -2    4.37    1.54
  12  -8  -2    4.12    1.24
  12  -8  -1    3.43    1.94
  12  -8  -1    0.43    1.68
  12   8  -1   -1.59    1.29
  12  -8   0    2.69    1.93
  12   8   0    2.13    1.36
  12  -8   0   -0.69    1.70
  12   8   0   -0.34    1.16
  12  -8   1   -0.51    1.09
  12   8   1    0.62    2.69
  12  -8   1    1.52    1.85
  12   8   1    0.70    1.06
  12  -8   2    3.37    2.16
  12   8   2    6.10    2.79
  12  -8   2    2.49    2.82
  12   8   2    2.68    1.38
  12   8   3   22.39    4.65
  12  -8   3   17.71    4.61
  12   8   3   11.19    4.22
  12  -8   3   17.66    4.31
  12   8   4    4.22    2.56
  12  -8   4    7.25    2.69
  12   8   4    1.71    1.98
  12  -8   4    4.17    2.30
  12   8   5   -0.33    1.13
  12  -8   5    1.26    1.83
  12   8   5   -2.37    1.46
  12   8   6    6.76    2.15
  12  -8   6    7.96    3.21
  12   8   6    7.74    2.51
  12  -8   6    1.41    1.71
  12   8   7   16.72    4.07
  12  -8   7   14.34    3.83
  12   8   7   19.65    4.26
  12  -8   7   17.87    5.14
  12   8   8    5.47    2.96
  12  -8   8    1.65    1.01
  12   8   8    5.18    2.91
  12  -8   8   -0.24    2.77
  12   8   9   10.48    3.56
  12  -8   9    9.07    3.51
  12   8   9    7.59    3.17
  12   8  10    4.63    2.27
  12  -8  10    4.04    2.75
  12   8  10    9.75    3.03
  12   8  11    1.18    1.31
  12  -8  11   -1.35    1.96
  12   8  11   -1.84    2.58
  12   8  12    9.18    2.63
  12  -8  12    5.90    2.60
  12   8  12    5.27    2.32
  12   8  13   13.95    3.74
  12  -8  13    9.69    3.57
  12   8  13   11.27    3.52
  12   8  14    0.31    2.42
  12  -8  14    2.83    3.23
  12   8  14    3.80    2.19
  12   9  -8    1.78    1.63
  12  -9  -8   -0.81    2.00
  12  -9  -8    0.01    1.52
  12   9  -7   -1.48    1.79
  12  -9  -7    3.01    2.74
  12  -9  -7    2.13    2.23
  12   9  -6   -1.01    1.28
  12  -9  -6    0.46    1.60
  12  -9  -6    2.36    1.12
  12   9  -5    0.61    1.96
  12  -9  -5    2.41    2.91
  12  -9  -5   -0.03    1.76
  12   9  -4    2.13    3.05
 -12   9  -4   -0.36    1.83
  12  -9  -4    1.20    1.69
  12  -9  -4    6.21    3.42
  12   9  -3   11.14    3.77
 -12   9  -3    9.06    3.03
  12  -9  -3    2.66    2.42
  12  -9  -3    8.88    3.46
  12   9  -2    1.68    1.06
 -12   9  -2   -2.86    2.29
  12  -9  -2    2.73    3.08
  12  -9  -2   -1.48    1.40
  12  -9  -1    3.10    1.64
  12   9  -1    1.16    1.31
 -12   9  -1    2.89    1.93
  12  -9  -1    0.32    1.79
  12  -9   0   -0.48    1.54
  12   9   0    2.85    2.78
 -12   9   0    2.09    2.02
  12  -9   0    1.04    2.73
  12  -9   1   -0.47    1.98
  12   9   1   -0.60    1.48
 -12   9   1    2.62    2.45
  12  -9   1   -1.80    1.80
  12  -9   2   -0.85    1.48
  12   9   2    0.25    1.81
  12   9   2   -1.92    1.30
 -12   9   2    0.80    2.30
  12  -9   2   -0.47    2.38
  12  -9   3    5.30    2.23
  12   9   3   10.69    4.00
  12   9   3    6.17    2.30
 -12   9   3    7.19    2.64
  12  -9   4    1.10    1.19
  12   9   4   -0.76    1.07
 -12   9   4   -2.10    1.27
  12  -9   5   -0.45    1.75
  12   9   5   -0.06    1.17
  12   9   5    4.94    3.73
 -12   9   5    3.80    3.02
  12  -9   6    5.50    2.84
  12   9   6    2.56    2.27
  12   9   6   -1.27    2.65
 -12   9   6    2.21    2.55
  12  -9   7    3.02    2.37
  12   9   7    1.18    1.80
  12   9   7    2.27    1.17
 -12   9   7    0.20    1.58
  12  -9   8    1.43    1.52
  12   9   8   -0.89    1.83
  12   9   8   -1.22    1.69
 -12   9   8    0.59    1.58
  13   0 -22    0.64    1.87
  13   0 -21    0.68    1.50
  13   0 -20    1.59    2.42
  13   0 -19    1.15    2.12
  13   0 -18   -0.04    1.02
  13   0 -17   -3.07    2.24
  13   0 -16   -1.83    2.88
  13   0 -15   -1.07    1.16
  13   0 -14    1.37    1.74
  13   0 -13    0.65    1.32
  13   0 -12   -0.38    1.68
  13   0 -11    0.83    1.91
  13   0 -11   -1.27    1.93
  13   0 -10    0.55    0.95
  13   0 -10    0.52    1.24
  13   0  -9   -0.09    0.76
  13   0  -9   -1.12    1.60
  13   0  -8    0.74    1.22
  13   0  -8    2.35    1.59
  13   0  -7    1.18    1.15
  13   0  -7   -0.50    1.02
  13   0  -6   -0.92    1.12
  13   0  -6    0.94    0.93
  13   0  -5    1.26    1.84
  13   0  -5    0.42    0.71
  13   0  -4   -0.57    1.22
  13   0  -4    0.31    1.25
  13   0  -3   -0.93    1.46
  13   0  -3   -0.56    1.14
  13   0  -3    0.74    1.46
  13   0  -2    0.95    1.23
  13   0  -2    0.88    1.52
  13   0  -2   -0.20    1.30
  13   0  -1    1.41    0.80
  13   0  -1   -0.27    1.76
  13   0  -1    0.42    0.78
  13   0   0   -0.81    0.93
  13   0   0    0.18    1.31
  13   0   0    0.59    0.86
  13   0   1   -0.16    1.89
  13   0   1   -1.04    1.11
  13   0   1   -0.27    1.45
  13   0   2    0.31    1.25
  13   0   2   -0.47    1.42
  13   0   2    2.34    1.92
  13   0   3    0.57    1.19
  13   0   3   -1.10    1.40
  13   0   3    0.12    1.29
  13   0   4    0.41    1.19
  13   0   4   -0.44    0.82
  13   0   5    0.28    0.85
  13   0   5   -1.12    1.45
  13   0   6   -0.11    0.99
  13   0   6   -0.09    0.78
  13   0   7   -0.77    0.79
  13   0   7   -0.01    1.18
  13   0   8    1.25    0.88
  13   0   8    0.80    2.05
  13   0   9    0.01    0.81
  13   0   9   -1.06    1.18
  13   0  10    0.08    1.17
  13   0  11    0.25    0.98
  13   0  12    1.34    1.90
  13   0  13   -1.24    1.72
  13   0  14   -0.76    1.71
  13   0  15    1.28    1.70
  13   0  16   -0.06    1.27
  13   0  17   -0.29    1.81
  13   0  18    0.66    1.42
  13   0  19    1.02    2.11
  13   0  20   -0.86    1.18
  13   0  21    0.20    1.07
  13   0  22    1.84    3.01
  13   0  23   -0.64    1.64
  13   0  24    0.51    1.96
  13  -1 -24   -1.64    1.48
  13  -1 -23   -0.48    1.50
  13  -1 -22    3.95    1.98
  13  -1 -21   24.61    4.81
  13  -1 -20   16.87    4.19
  13  -1 -19    0.08    1.33
  13   1 -18    0.31    0.79
  13  -1 -18    0.23    1.83
  13   1 -17    5.33    2.96
  13  -1 -17    9.25    3.70
  13   1 -16   57.75    7.12
  13  -1 -16   58.37    6.96
  13   1 -15   11.16    3.44
  13  -1 -15   18.66    4.19
  13   1 -14   36.76    5.09
  13  -1 -14   43.92    6.01
  13   1 -13   10.62    2.79
  13  -1 -13    5.63    2.40
  13  -1 -12   27.14    5.00
  13   1 -12   23.03    4.35
  13  -1 -12   26.58    4.89
  13  -1 -11    2.10    2.29
  13  -1 -11    0.22    1.46
  13   1 -11    1.78    1.36
  13   1 -11    2.44    2.15
  13  -1 -10   56.46    6.46
  13   1 -10   70.79    7.02
  13  -1 -10   61.43    7.20
  13   1 -10   61.83    6.98
  13   1 -10   72.72    7.28
  13  -1  -9   55.27    6.63
  13   1  -9   58.68    6.20
  13  -1  -9   66.64    7.56
  13   1  -9   62.15    7.39
  13   1  -9   51.64    6.42
  13  -1  -8    1.89    1.43
  13   1  -8    3.33    2.09
  13  -1  -8    4.20    2.03
  13   1  -8    2.50    2.42
  13   1  -8    4.41    2.10
  13  -1  -7   18.24    4.16
  13   1  -7    8.16    1.98
  13  -1  -7   13.99    3.42
  13   1  -7   14.23    3.33
  13   1  -7   18.59    3.96
  13  -1  -6   35.59    5.06
  13   1  -6   51.27    5.87
  13  -1  -6   36.80    5.41
  13   1  -6   29.95    4.63
  13   1  -6   37.27    5.25
  13  -1  -5  162.57   10.70
  13   1  -5  169.46   10.83
  13  -1  -5  161.49   11.17
  13   1  -5  159.11   10.78
  13   1  -5  173.45   11.01
  13  -1  -4   15.29    3.84
  13  -1  -4   20.99    4.23
  13   1  -4   17.14    3.68
  13   1  -4   17.85    3.67
  13   1  -4   21.22    3.98
  13  -1  -3   50.47    6.00
  13   1  -3   38.09    5.39
  13  -1  -3   43.65    6.10
  13   1  -3   51.28    6.26
  13   1  -3   63.27    6.67
  13  -1  -2   67.61    7.16
  13   1  -2   71.38    7.05
  13  -1  -2   53.70    6.60
  13   1  -2   55.89    6.47
  13   1  -2   65.68    6.77
  13  -1  -1   14.09    3.03
  13  -1  -1   24.91    4.61
  13   1  -1   29.48    4.51
  13   1  -1   18.97    3.87
  13   1  -1   21.84    3.83
  13  -1   0  592.03   20.77
  13   1   0  625.20   21.17
  13  -1   0  626.90   21.80
  13   1   0  624.36   21.49
  13   1   0  595.98   20.25
  13  -1   1   22.40    4.12
  13   1   1   28.21    4.25
  13  -1   1   30.97    5.07
  13   1   1   32.64    5.15
  13   1   1   22.44    4.14
  13  -1   2   59.06    6.54
  13   1   2   55.59    6.26
  13  -1   2   56.98    6.87
  13   1   2   62.65    6.67
  13   1   2   54.55    6.38
  13  -1   3   48.93    6.19
  13   1   3   51.83    6.10
  13  -1   3   54.73    6.48
  13   1   3   62.23    6.48
  13   1   4   23.08    3.97
  13  -1   4   24.78    4.40
  13  -1   4   14.85    3.89
  13   1   4   28.13    4.38
  13  -1   5  158.55   10.99
  13   1   5  152.96   10.63
  13   1   5  163.43   10.61
  13  -1   6   39.68    5.83
  13   1   6   33.90    5.19
  13   1   6   34.01    4.96
  13   1   7   16.69    3.62
  13  -1   7    7.70    2.12
  13   1   7   11.80    3.17
  13  -1   8    3.30    1.14
  13   1   8    1.73    1.64
  13  -1   9   62.13    7.24
  13   1   9   49.96    6.31
  13   1   9   53.92    6.01
  13  -1  10   72.11    7.55
  13   1  10   61.77    7.17
  13   1  10   57.94    6.46
  13   1  11    2.34    1.55
  13  -1  11    3.54    1.76
  13   1  11    2.49    2.02
  13   1  12   20.46    4.44
  13  -1  12   28.76    5.31
  13   1  12   20.99    3.74
  13   1  13    2.58    1.64
  13  -1  13    4.03    2.38
  13  -1  14   41.17    6.11
  13   1  14   41.64    6.15
  13   1  15   20.11    4.47
  13  -1  15   12.21    3.16
  13  -1  16   43.83    6.57
  13   1  16   52.66    6.84
  13   1  17   10.09    2.78
  13  -1  17    8.59    3.03
  13   1  18   -0.81    2.07
  13  -1  18    0.99    1.61
  13   1  19   -0.51    1.69
  13  -1  19    2.40    2.06
  13   1  20   33.51    5.72
  13  -1  20   25.93    4.83
  13   1  21   22.08    4.79
  13  -1  21   20.90    5.00
  13   1  22    3.42    2.37
  13  -1  22   -1.67    2.50
  13   1  23    2.35    2.31
  13  -1  23    2.21    2.23
  13   1  24   -0.23    1.59
  13  -1  24   -0.49    3.08
  13  -2 -23    5.57    2.77
  13  -2 -22    3.05    2.00
  13  -2 -21    0.42    0.94
  13  -2 -20    2.21    2.11
  13  -2 -19    2.41    2.66
  13  -2 -18   -0.16    1.60
  13  -2 -17   21.30    4.84
  13  -2 -16   -0.12    1.34
  13  -2 -15    2.90    2.18
  13   2 -15    2.87    1.85
  13  -2 -14   -3.39    1.66
  13  -2 -14    1.09    1.55
  13   2 -14   -0.45    1.31
  13  -2 -13    2.34    2.28
  13  -2 -13    6.67    2.44
  13   2 -13    9.44    3.25
  13  -2 -12   16.91    3.99
  13   2 -12   20.67    4.36
  13  -2 -12   22.67    4.29
  13   2 -12   26.51    4.61
  13   2 -11   54.39    6.47
  13  -2 -11   63.91    7.29
  13   2 -11   39.54    5.77
  13  -2 -11   63.51    7.45
  13  -2 -10    6.75    2.72
  13  -2 -10    7.95    2.53
  13   2 -10    1.43    1.01
  13   2 -10    6.31    2.28
  13  -2  -9    8.08    3.10
  13  -2  -9    1.37    1.49
  13   2  -9    5.52    2.83
  13   2  -9    2.49    1.91
  13  -2  -8   26.43    4.79
  13   2  -8   27.57    4.37
  13  -2  -8   23.68    4.46
  13   2  -8   17.80    3.30
  13   2  -8   21.98    4.25
  13  -2  -7   12.96    3.31
  13  -2  -7   21.06    4.03
  13   2  -7   14.97    3.52
  13   2  -7   17.88    3.33
  13   2  -7   14.89    3.42
  13  -2  -6    1.53    1.72
  13  -2  -6    1.87    1.04
  13   2  -6    1.87    1.73
  13   2  -6    0.54    1.20
  13   2  -6    2.07    1.71
  13  -2  -5    0.65    1.01
  13  -2  -5    1.27    1.12
  13   2  -5    0.64    1.56
  13   2  -5   -0.60    1.23
  13   2  -5    0.06    1.68
  13  -2  -4    5.90    2.46
  13  -2  -4   13.12    3.10
  13   2  -4   12.25    3.39
  13   2  -4    8.33    2.76
  13   2  -4    8.06    2.52
  13  -2  -3   36.29    5.48
  13   2  -3   42.64    5.52
  13  -2  -3   37.04    5.47
  13   2  -3   34.81    5.07
  13   2  -3   42.77    5.44
  13   2  -2   18.17    3.65
  13  -2  -2   13.32    3.22
  13   2  -2   24.16    4.60
  13  -2  -2   11.15    3.27
  13   2  -2   21.25    3.79
  13   2  -1    9.82    2.27
  13  -2  -1   11.97    2.84
  13  -2  -1    8.92    3.35
  13   2  -1   13.18    3.14
  13   2  -1   12.71    3.29
  13  -2   0  246.90   13.69
  13   2   0  262.60   13.58
  13  -2   0  285.12   15.08
  13   2   0  254.62   13.60
  13   2   0  286.67   14.27
  13   2   1   13.58    3.43
  13  -2   1   18.05    4.02
  13  -2   1   15.19    3.67
  13   2   1   14.94    3.58
  13   2   1   14.44    3.16
  13   2   2   18.10    3.61
  13  -2   2   17.21    3.64
  13  -2   2   16.97    3.64
  13   2   2   15.71    2.98
  13  -2   3   40.94    5.63
  13   2   3   29.68    4.90
  13  -2   3   38.83    5.46
  13   2   3   37.09    5.27
  13   2   4    5.24    2.23
  13  -2   4    9.81    2.48
  13  -2   4   14.72    3.69
  13   2   4   14.79    3.57
  13   2   5   -0.07    1.14
  13  -2   5   -0.12    1.94
  13  -2   5   -0.53    1.78
  13   2   5    0.14    1.76
  13   2   6    0.15    0.84
  13  -2   6    2.96    2.27
  13  -2   6    3.16    1.92
  13   2   6    1.24    1.98
  13   2   7   11.55    3.09
  13  -2   7   22.77    4.21
  13   2   7   14.91    3.52
  13  -2   8   20.37    4.19
  13   2   8   33.73    4.98
  13   2   8   30.54    4.82
  13   2   9    7.11    2.71
  13  -2   9    4.73    1.12
  13   2   9    4.42    2.43
  13   2  10    3.62    2.29
  13  -2  10    6.69    3.17
  13   2  10    6.38    2.60
  13   2  11   43.72    6.16
  13   2  11   63.89    6.75
  13   2  12   23.08    4.29
  13  -2  12   15.89    3.62
  13   2  12   18.23    4.03
  13   2  13    4.07    2.04
  13  -2  13    5.00    2.58
  13   2  13    4.32    2.37
  13   2  14    0.57    1.30
  13  -2  14    3.24    1.66
  13   2  15    1.62    1.36
  13  -2  15    1.12    1.18
  13   2  16    3.49    2.58
  13  -2  16    4.49    1.24
  13   2  17   19.40    4.39
  13  -2  17   28.21    5.31
  13   2  18    0.40    1.55
  13  -2  18    3.39    2.57
  13   2  19   -1.41    1.35
  13  -2  19   -0.24    1.65
  13   2  20   -0.35    1.98
  13  -2  20    0.04    1.58
  13   2  21    0.48    1.90
  13  -2  21    4.19    2.62
  13   2  22    0.94    2.03
  13  -2  22    4.45    3.02
  13   2  23    2.20    1.71
  13  -2  23    0.70    2.13
  13  -3 -23    2.25    2.45
  13  -3 -22   13.45    3.92
  13  -3 -21    1.14    1.60
  13  -3 -20    9.72    3.40
  13  -3 -19    2.39    1.68
  13  -3 -18    2.83    1.47
  13   3 -18    6.13    1.98
  13  -3 -17    3.42    1.77
  13   3 -17    3.47    1.98
  13  -3 -16   79.29    8.43
  13   3 -16   74.58    7.76
  13  -3 -15   16.97    4.43
  13  -3 -15   18.33    4.59
  13   3 -15   13.12    3.74
  13  -3 -14   52.95    7.12
  13  -3 -14   49.15    6.61
  13   3 -14   53.84    6.51
  13  -3 -13    6.86    3.16
  13  -3 -13   14.90    3.39
  13   3 -13    9.68    3.25
  13  -3 -12   58.39    7.43
  13   3 -12   68.02    7.56
  13  -3 -12   50.72    7.16
  13  -3 -11    1.51    1.22
  13  -3 -11    2.85    2.06
  13   3 -11    5.04    2.74
  13  -3 -10  153.94   11.31
  13   3 -10  153.79   11.23
  13  -3 -10  132.71   10.54
  13  -3  -9   17.93    3.86
  13  -3  -9   16.15    3.40
  13   3  -9   20.64    4.00
  13  -3  -8   23.69    4.30
  13  -3  -8   27.29    4.95
  13   3  -8   21.80    4.35
  13  -3  -7   12.61    3.31
  13  -3  -7   15.46    3.91
  13   3  -7   14.70    3.45
  13   3  -7   11.84    3.48
  13  -3  -6   25.39    4.62
  13   3  -6   28.97    4.60
  13  -3  -6   25.08    4.59
  13   3  -6   30.69    4.44
  13   3  -6   28.50    4.80
  13   3  -5    7.77    2.62
  13   3  -5    4.88    1.62
  13  -3  -5    4.75    1.98
  13  -3  -5    4.51    1.94
  13   3  -5    5.92    2.30
  13  -3  -4  109.47    9.45
  13   3  -4  134.42    9.74
  13  -3  -4  133.12   10.45
  13   3  -4  124.08    9.46
  13   3  -4  113.89    9.68
  13   3  -3   14.74    3.50
  13   3  -3   12.41    3.24
  13  -3  -3   10.42    2.58
  13  -3  -3   19.84    4.47
  13   3  -3   12.06    2.96
  13   3  -2    3.34    2.35
  13   3  -2    1.39    1.61
  13  -3  -2    1.83    1.82
  13  -3  -2    1.70    2.73
  13   3  -2    0.25    1.34
  13   3  -1   16.45    3.58
  13   3  -1   13.59    3.00
  13  -3  -1   12.49    3.17
  13  -3  -1   12.03    3.82
  13   3  -1   17.70    3.52
  13  -3   0   51.71    6.65
  13  -3   0   57.34    6.53
  13   3   0   49.40    6.05
  13   3   0   49.46    6.36
  13   3   0   40.12    5.50
  13   3   1   13.81    3.70
  13   3   1   11.81    3.21
  13  -3   1   14.38    3.50
  13  -3   1   12.23    3.06
  13   3   1    8.77    2.48
  13   3   2   -0.14    1.63
  13   3   2    0.07    1.74
  13  -3   2    2.72    1.79
  13  -3   2    2.08    2.38
  13   3   3   12.02    3.29
  13   3   3   13.19    3.62
  13  -3   3   17.30    3.50
  13  -3   3    9.44    2.81
  13  -3   4  121.49    9.98
  13  -3   4  106.97    9.24
  13   3   4  113.44    9.38
  13   3   4  134.84    9.98
  13   3   5    6.22    2.22
  13   3   5    4.03    1.55
  13  -3   5    7.60    2.43
  13  -3   5    2.21    1.87
  13  -3   6   28.49    4.73
  13  -3   6   25.85    4.82
  13   3   6   31.60    5.18
  13   3   6   33.15    4.99
  13   3   7   16.83    3.69
  13   3   7   13.77    3.55
  13  -3   7   11.32    3.41
  13  -3   7    9.75    3.03
  13   3   8   19.92    4.23
  13  -3   8   35.57    5.49
  13  -3   8   23.55    4.60
  13   3   8   28.90    4.94
  13   3   9   19.66    4.02
  13   3   9   12.37    3.33
  13  -3   9   12.86    3.60
  13  -3  10  160.24   11.80
  13   3  10  131.70   10.13
  13   3  10  151.15   11.12
  13   3  11    1.80    1.15
  13   3  11    1.31    1.98
  13  -3  11    3.39    2.02
  13  -3  12   64.91    7.91
  13   3  12   59.62    6.94
  13   3  12   49.62    6.67
  13   3  13    7.83    2.55
  13   3  13    7.09    2.85
  13  -3  14   45.96    6.84
  13   3  14   49.18    6.61
  13   3  15   13.02    3.77
  13  -3  15    9.18    2.97
  13  -3  16   71.98    8.49
  13   3  16  107.73    9.99
  13   3  17    8.08    3.33
  13  -3  17    4.86    2.92
  13   3  18    5.13    3.15
  13  -3  18    6.05    2.51
  13   3  19    1.17    1.71
  13  -3  19    0.93    2.01
  13   3  20    8.49    3.47
  13  -3  20    7.82    4.02
  13   3  21    1.97    1.42
  13  -3  21    3.57    3.02
  13   3  22   12.39    3.35
  13   3  23    0.90    2.02
  13  -4 -21    7.46    3.18
  13  -4 -20    1.11    1.63
  13  -4 -19    4.50    2.42
  13   4 -19    6.62    2.92
  13  -4 -18   -0.23    1.99
  13   4 -18   -1.61    1.06
  13  -4 -17    8.51    2.66
  13   4 -17    4.07    1.06
  13  -4 -16    5.23    2.93
  13   4 -16    0.76    1.41
  13  -4 -16    2.73    3.63
  13  -4 -15    8.45    2.97
  13  -4 -15    2.83    1.74
  13   4 -15    6.86    2.59
  13  -4 -14    0.33    1.66
  13  -4 -14    2.55    1.07
  13   4 -14    0.37    1.52
  13  -4 -13   -1.21    1.04
  13  -4 -13    0.67    1.56
  13   4 -13   -1.55    1.42
  13  -4 -12    5.20    2.18
  13  -4 -12    5.14    2.52
  13   4 -12    0.48    1.54
  13  -4 -11   -0.60    1.09
  13  -4 -11   -1.32    1.57
  13   4 -11    0.91    1.93
  13  -4 -10    0.85    1.15
  13  -4 -10    1.30    1.75
  13   4 -10    4.61    2.62
  13  -4  -9   68.51    8.06
  13   4  -9   68.41    7.53
  13  -4  -9   67.80    7.87
  13   4  -8    1.23    1.52
  13  -4  -8    0.40    1.42
  13  -4  -8   -0.12    1.41
  13   4  -7    6.43    3.09
  13  -4  -7    5.31    2.10
  13  -4  -7    3.71    3.02
  13  -4  -6   45.38    6.51
  13   4  -6   46.90    6.13
  13   4  -6   42.55    5.90
  13  -4  -6   33.37    5.46
  13   4  -5    4.67    2.46
  13   4  -5    6.91    2.53
  13  -4  -5    2.43    1.67
  13  -4  -5    1.71    1.09
  13   4  -4   14.65    3.26
  13   4  -4    8.56    2.40
  13  -4  -4   14.70    3.80
  13  -4  -4   17.79    4.35
  13   4  -3    1.43    1.44
  13   4  -3    2.28    1.75
  13  -4  -3    2.28    1.68
  13  -4  -3    0.72    1.37
  13  -4  -2   62.99    7.16
  13  -4  -2   55.70    6.99
  13   4  -2   68.88    7.35
  13   4  -2   59.57    6.85
  13  -4  -1   42.93    5.86
  13  -4  -1   38.14    5.76
  13   4  -1   30.54    4.66
  13   4  -1   44.91    5.76
  13   4   0   -0.37    1.12
  13  -4   0   -1.33    1.66
  13   4   0   -0.24    1.49
  13  -4   0   -0.96    1.51
  13   4   0   -0.19    0.88
  13  -4   1   50.22    6.56
  13  -4   1   38.68    5.42
  13   4   1   38.46    5.28
  13   4   1   48.60    6.20
  13  -4   2   59.45    7.07
  13  -4   2   62.74    7.28
  13   4   2   73.11    7.69
  13   4   2   60.10    6.78
  13   4   3    1.59    2.20
  13  -4   3    0.49    1.06
  13   4   3    1.07    1.80
  13  -4   3    2.62    2.26
  13   4   4    8.26    2.59
  13  -4   4   14.02    3.43
  13   4   4   10.28    2.87
  13  -4   4   14.40    3.57
  13   4   5    0.89    1.10
  13  -4   5    1.36    1.03
  13   4   5    1.74    2.49
  13  -4   5    1.98    1.34
  13  -4   6   38.33    5.82
  13  -4   6   38.71    5.96
  13   4   6   41.59    5.68
  13   4   6   40.96    5.78
  13   4   7    6.81    2.85
  13  -4   7    2.94    1.39
  13   4   7    2.79    1.22
  13  -4   7    4.50    2.93
  13   4   8    1.08    2.14
  13  -4   8    3.86    2.32
  13   4   8   -0.04    1.18
  13  -4   8    1.04    1.69
  13  -4   9   85.63    8.77
  13  -4   9   65.67    7.88
  13   4   9   61.34    7.13
  13   4   9   66.98    7.36
  13   4  10    1.97    2.02
  13  -4  10    0.76    2.16
  13   4  10   -0.67    1.38
  13  -4  10    1.43    1.51
  13   4  11   -1.58    1.40
  13  -4  11    0.10    1.59
  13   4  11    1.41    1.44
  13  -4  11    0.46    1.97
  13   4  12    5.72    2.64
  13  -4  12    3.28    1.39
  13   4  12    3.43    2.46
  13   4  13    0.36    1.52
  13  -4  13   -1.36    2.16
  13   4  13   -0.27    1.18
  13   4  14    5.22    2.67
  13  -4  14    0.51    1.49
  13   4  14    1.84    1.97
  13  -4  15   12.60    4.26
  13   4  15    5.03    2.02
  13  -4  16   -0.64    1.78
  13   4  16    0.12    1.07
  13  -4  17    5.43    2.87
  13   4  17    4.72    2.19
  13  -4  18   -0.14    1.36
  13   4  18   -0.40    1.32
  13   4  19    7.65    2.89
  13  -4  19    5.71    2.64
  13   4  20   -0.58    1.47
  13  -4  20    2.03    2.57
  13   4  21    2.51    2.18
  13  -5 -20   12.22    3.67
  13  -5 -19   -1.21    1.96
  13   5 -19    0.02    2.57
  13  -5 -18    2.73    2.37
  13   5 -18   -1.44    1.76
  13  -5 -17    7.23    2.63
  13  -5 -17   13.70    4.84
  13   5 -17    9.68    3.63
  13  -5 -16    6.69    3.40
  13  -5 -16    6.45    2.41
  13   5 -16   11.91    3.44
  13  -5 -15    4.18    2.65
  13  -5 -15    2.57    3.07
  13   5 -15    1.69    1.62
  13  -5 -14    9.87    3.85
  13   5 -14   16.14    3.45
  13  -5 -14   18.88    4.35
  13  -5 -13    2.80    2.25
  13  -5 -13    1.14    1.46
  13   5 -13    3.53    2.13
  13   5 -12    8.38    2.81
  13  -5 -12    4.48    1.73
  13  -5 -12    5.85    2.44
  13   5 -11   26.05    4.84
  13  -5 -11   21.67    4.74
  13  -5 -11   13.28    3.58
  13   5 -10   13.95    3.88
  13  -5 -10    9.15    2.95
  13  -5 -10   11.38    3.39
  13   5  -9    4.73    2.64
  13  -5  -9    1.81    1.95
  13  -5  -9    2.70    1.91
  13   5  -8    1.94    1.63
  13  -5  -8    2.31    0.82
  13  -5  -8    0.98    1.28
  13   5  -7   15.19    3.69
  13  -5  -7   13.48    3.62
  13  -5  -7   15.56    3.83
  13  -5  -6   49.94    7.00
  13   5  -6   35.35    5.33
  13  -5  -6   37.50    5.96
  13   5  -5    5.22    2.24
  13  -5  -5    8.90    2.90
  13  -5  -5    6.78    2.94
  13  -5  -4   31.40    5.21
  13   5  -4   40.87    5.52
  13   5  -4   38.93    5.86
  13  -5  -4   35.58    5.46
  13   5  -3   22.26    4.40
  13  -5  -3   18.13    3.86
  13   5  -3   24.58    4.26
  13  -5  -3   26.14    4.76
  13  -5  -2   63.12    7.41
  13   5  -2   65.21    7.57
  13   5  -2   66.54    7.32
  13  -5  -2   69.20    7.77
  13  -5  -1   48.95    6.60
  13   5  -1   52.40    6.33
  13   5  -1   51.35    6.58
  13  -5  -1   48.61    6.34
  13   5   0   13.02    3.18
  13  -5   0    7.02    2.61
  13   5   0   13.92    3.42
  13  -5   0   10.06    3.07
  13  -5   1   61.73    7.28
  13  -5   1   47.80    6.56
  13   5   1   50.10    6.60
  13   5   1   52.88    6.62
  13  -5   2   70.92    7.86
  13  -5   2   77.41    8.29
  13   5   2   65.90    7.57
  13   5   2   60.01    6.86
  13   5   3   28.13    4.88
  13   5   3   16.16    3.41
  13  -5   3   20.66    4.38
  13  -5   3   25.02    4.83
  13   5   4   52.08    6.48
  13  -5   4   51.23    6.64
  13  -5   4   45.11    6.52
  13   5   4   29.96    5.33
  13   5   5    6.53    2.38
  13  -5   5   14.13    3.36
  13   5   5    9.18    3.03
  13  -5   5    7.77    3.04
  13   5   6   29.61    4.90
  13  -5   6   41.78    6.14
  13  -5   6   45.04    6.26
  13   5   6   53.04    6.73
  13   5   7   16.57    3.90
  13  -5   7   14.09    4.17
  13   5   7   18.76    3.99
  13  -5   7   11.11    2.81
  13   5   8    2.94    3.04
  13  -5   8    1.31    1.09
  13   5   8    0.86    1.48
  13  -5   8    3.67    2.08
  13  -5   9   -0.86    1.90
  13   5   9   -0.15    1.35
  13  -5   9    2.33    1.32
  13   5  10   10.97    3.70
  13  -5  10   13.08    3.48
  13   5  10    6.68    2.27
  13  -5  10   10.58    3.17
  13  -5  11   28.64    5.18
  13   5  11   21.95    4.60
  13  -5  11   33.37    5.63
  13   5  11   30.89    5.26
  13   5  12    8.49    2.83
  13  -5  12   12.21    4.10
  13   5  12    7.48    2.74
  13  -5  12   10.23    3.25
  13   5  13    1.84    2.69
  13  -5  13    1.91    2.90
  13   5  13    1.97    1.48
  13  -5  13    1.36    2.12
  13   5  14    6.22    2.50
  13  -5  14   15.01    3.72
  13   5  14   15.22    3.60
  13  -5  14   11.01    3.38
  13  -5  15    3.10    3.09
  13   5  15    3.36    2.37
  13  -5  15    5.71    2.34
  13  -5  16    5.95    2.43
  13   5  16    6.03    2.93
  13  -5  17   10.71    3.36
  13   5  17   12.13    3.72
  13  -5  18    3.67    2.35
  13   5  18    3.08    1.91
  13  -5  19    3.26    2.86
  13   5  19    0.20    1.62
  13   5  20    4.20    1.29
  13  -6 -18    0.21    1.59
  13   6 -18    1.27    1.66
  13  -6 -17    4.05    2.83
  13  -6 -17   -1.07    2.11
  13   6 -17    1.75    1.15
  13  -6 -16    1.34    1.34
  13  -6 -16   -0.55    1.68
  13   6 -16    1.53    1.78
  13  -6 -15    0.16    1.46
  13  -6 -15    0.24    1.40
  13   6 -15    0.22    1.07
  13   6 -14    2.59    3.04
  13  -6 -14    1.92    2.42
  13  -6 -14    1.57    1.86
  13   6 -13    3.83    2.06
  13  -6 -13    3.01    2.04
  13  -6 -13    6.40    3.37
  13   6 -12   -0.78    1.14
  13  -6 -12   -0.42    1.17
  13  -6 -12   -0.48    1.07
  13  -6 -11    2.93    1.82
  13   6 -11    7.34    2.73
  13  -6 -11    3.89    1.73
  13   6 -10    3.63    1.52
  13  -6 -10    1.88    2.14
  13  -6 -10    7.23    2.89
  13   6  -9    3.45    1.26
  13  -6  -9    2.74    1.40
  13  -6  -9    1.21    1.13
  13   6  -8    0.22    1.15
  13  -6  -8    3.66    1.77
  13  -6  -8   -0.57    1.72
  13   6  -7    6.18    2.83
  13  -6  -7    3.79    1.96
  13  -6  -7    4.98    2.40
  13   6  -6   -0.32    1.49
  13  -6  -6    3.31    2.28
  13  -6  -6    1.73    1.01
  13   6  -5    0.09    1.16
  13  -6  -5    0.37    1.88
  13  -6  -5    0.56    1.14
  13   6  -4    0.04    1.23
  13  -6  -4    0.81    1.82
  13  -6  -4    1.93    1.25
  13   6  -3    5.60    2.52
  13  -6  -3    7.59    3.16
  13   6  -3    5.62    2.73
  13  -6  -3    4.94    2.76
  13   6  -2    0.78    1.32
  13  -6  -2    1.93    2.18
  13   6  -2    0.49    1.37
  13  -6  -2    3.57    2.56
  13   6  -1    3.37    1.52
  13  -6  -1    4.05    2.66
  13   6  -1    1.42    0.87
  13  -6  -1    2.31    2.92
  13   6   0   -1.87    1.93
  13  -6   0    4.94    1.50
  13   6   0    3.20    2.40
  13  -6   0    3.97    2.69
  13   6   1    3.73    2.19
  13  -6   1    3.08    2.39
  13   6   1    2.81    1.46
  13  -6   1    1.58    0.99
  13   6   2    3.07    1.02
  13  -6   2    2.93    2.06
  13   6   2    1.93    2.19
  13  -6   2    1.36    2.43
  13   6   3    4.06    1.59
  13  -6   3    5.40    3.11
  13   6   3    5.25    2.42
  13  -6   3    6.86    2.75
  13   6   4   -1.10    1.81
  13  -6   4    0.19    1.69
  13   6   4    1.94    1.22
  13  -6   4   -1.12    2.04
  13   6   5   -0.40    1.05
  13  -6   5    0.55    1.52
  13   6   5   -0.36    1.07
  13  -6   5   -0.47    2.21
  13   6   6    0.02    1.44
  13  -6   6    0.89    1.53
  13   6   6    2.36    1.39
  13  -6   6    4.43    2.31
  13   6   7    2.78    1.12
  13  -6   7   -0.18    1.66
  13   6   7    3.82    2.27
  13  -6   7   -0.46    1.59
  13   6   8    3.26    2.66
  13  -6   8   -0.37    1.00
  13   6   8    3.07    1.91
  13  -6   8    0.58    2.24
  13   6   9    3.64    1.16
  13  -6   9    5.41    3.26
  13   6   9    1.82    1.13
  13  -6   9    0.35    1.11
  13   6  10    1.20    1.96
  13  -6  10    2.53    1.48
  13   6  10    4.10    1.66
  13  -6  10    3.05    2.25
  13   6  11    4.01    2.36
  13  -6  11    3.15    2.37
  13   6  11    2.45    1.80
  13  -6  11    3.51    1.51
  13   6  12   -2.00    2.32
  13  -6  12    2.17    1.90
  13   6  12    2.00    1.89
  13  -6  12   -0.30    2.73
  13   6  13    0.35    1.62
  13  -6  13    5.17    2.05
  13   6  13    4.25    2.81
  13  -6  13    1.42    1.41
  13   6  14    2.49    2.02
  13  -6  14   -1.78    2.58
  13   6  14    0.46    1.50
  13  -6  14    2.05    1.88
  13  -6  15    1.49    2.03
  13   6  15   -0.25    1.57
  13  -6  15    2.90    2.51
  13  -6  16   -3.05    2.45
  13   6  16    0.01    2.17
  13  -6  16   -0.15    2.27
  13  -6  17    1.26    1.98
  13   6  17    1.60    2.58
  13  -6  17    2.45    2.45
  13   6  18    0.49    1.46
  13  -6  18   -1.12    2.16
  13   7 -15    1.06    1.93
  13  -7 -15    1.66    1.36
  13  -7 -15    2.38    2.54
  13   7 -14    5.73    2.06
  13  -7 -14    9.35    3.07
  13  -7 -14    5.73    3.22
  13   7 -13    0.95    1.28
  13  -7 -13    2.35    2.14
  13  -7 -13    2.55    1.15
  13   7 -12    2.74    2.69
  13  -7 -12    3.24    2.68
  13  -7 -12   -1.08    2.39
  13   7 -11    3.40    2.35
  13  -7 -11    3.56    2.73
  13  -7 -11    3.94    2.14
  13   7 -10   22.33    4.59
  13  -7 -10   28.76    5.34
  13  -7 -10   25.97    5.23
  13  -7  -9    2.52    2.12
  13   7  -9    3.38    2.12
  13  -7  -9    3.81    3.25
  13   7  -8    4.42    2.28
  13  -7  -8   -1.04    1.77
  13  -7  -7    0.35    1.90
  13   7  -7    1.19    1.94
  13  -7  -7    1.61    1.38
  13  -7  -6   20.85    4.58
  13   7  -6   23.86    4.35
  13  -7  -6   17.61    4.45
  13  -7  -5    1.73    1.95
  13   7  -5    3.77    2.06
  13  -7  -5    2.24    3.02
  13  -7  -4   15.64    4.06
  13   7  -4   15.31    3.88
  13  -7  -4   16.93    4.09
  13   7  -3    5.22    2.22
  13  -7  -3    4.79    1.96
  13  -7  -3    8.81    3.33
  13   7  -2    9.13    2.66
  13  -7  -2    7.65    2.69
  13  -7  -2    6.33    3.13
  13   7  -1    5.82    2.48
  13  -7  -1    2.65    1.51
  13   7  -1    3.20    2.33
  13  -7  -1    7.75    3.04
  13   7   0    6.10    2.83
  13  -7   0   12.63    3.73
  13   7   0    3.78    1.40
  13  -7   0    7.39    2.71
  13   7   1    7.61    3.07
  13  -7   1    3.14    1.59
  13   7   1   11.30    3.71
  13  -7   1    6.37    2.57
  13   7   2    9.69    2.98
  13  -7   2   10.15    3.79
  13  -7   2   11.62    3.85
  13   7   2   13.71    3.60
  13   7   3    8.50    2.89
  13  -7   3    7.82    2.98
  13  -7   3    8.50    3.24
  13   7   3    5.89    2.34
  13   7   4   19.85    4.31
  13  -7   4   10.64    3.12
  13  -7   4   13.90    4.36
  13   7   4   16.54    3.30
  13   7   5    0.86    2.03
  13  -7   5    0.89    1.19
  13  -7   5    1.22    1.27
  13   7   5   -0.81    1.25
  13   7   6   21.37    4.68
  13  -7   6   23.33    4.86
  13  -7   6   20.89    4.41
  13   7   6   26.41    4.93
  13   7   7    2.10    1.29
  13  -7   7    2.83    2.06
  13  -7   7    3.28    2.33
  13   7   7    7.48    2.32
  13   7   8    4.62    1.54
  13  -7   8    3.34    1.95
  13   7   8    2.66    2.30
  13   7   9    4.39    3.12
  13  -7   9    3.57    1.84
  13  -7   9    2.04    1.94
  13   7   9    2.48    2.16
  13   7  10   32.40    5.89
  13  -7  10   28.89    5.59
  13  -7  10   27.11    5.34
  13   7  10   23.01    4.55
  13   7  11    0.96    1.51
  13  -7  11    0.78    1.21
  13  -7  11    3.46    1.87
  13   7  11    2.36    1.83
  13   7  12    3.11    1.69
  13  -7  12    2.63    2.11
  13  -7  12    4.75    2.72
  13   7  12    5.63    2.00
  13   7  13   -0.27    2.25
  13  -7  13    2.43    2.04
  13  -7  13    1.77    1.42
  13   7  13    4.90    2.33
  13   7  14    7.52    3.42
  13  -7  14    8.17    3.65
  13  -7  14    8.44    4.01
  13   7  14    3.11    1.90
  13  -7  15    4.29    3.16
  13   7  15    0.53    1.65
  13   8 -11    2.15    2.05
  13  -8 -11    5.82    3.15
  13  -8 -11    0.98    1.07
  13   8 -10    0.24    1.58
  13  -8 -10   -2.47    2.53
  13  -8 -10   -0.83    2.45
  13   8  -9    0.53    1.28
  13  -8  -9    1.59    3.16
  13  -8  -9    0.05    0.82
  13   8  -8    0.48    1.57
  13  -8  -8    3.74    2.12
  13  -8  -8    1.69    1.01
  13   8  -7   -1.02    1.25
  13  -8  -7    2.54    2.03
  13  -8  -7    0.40    1.18
  13  -8  -6    3.46    1.84
  13   8  -6   -0.40    1.91
  13  -8  -6   -0.56    1.49
  13  -8  -5    1.12    1.72
  13   8  -5    2.00    1.43
  13  -8  -5   -1.21    1.68
  13  -8  -4   -0.43    1.14
  13   8  -4    0.22    1.05
 -13   8  -4   -0.58    1.97
  13  -8  -4   -1.74    1.27
  13  -8  -3    0.04    1.54
  13   8  -3    1.14    1.63
  13  -8  -3   -0.73    2.19
  13  -8  -2    2.65    2.61
  13   8  -2   -0.36    1.95
  13  -8  -2    0.88    2.52
  13  -8  -1   -1.09    1.95
  13   8  -1    1.68    1.26
  13  -8  -1    1.90    2.47
  13  -8   0    1.40    1.93
  13   8   0   -0.87    2.25
  13  -8   0    1.57    1.79
  13  -8   1    0.38    2.62
  13   8   1    1.41    1.15
  13  -8   1   -0.53    2.93
  13   8   1   -2.29    2.18
  13  -8   2    0.44    1.73
  13   8   2    0.87    2.35
  13  -8   2    1.66    1.63
  13   8   2    1.53    2.33
  13  -8   3    2.66    2.44
  13   8   3    1.64    1.68
  13  -8   3    1.51    2.84
  13   8   3    2.09    2.23
  13  -8   4    2.27    2.36
  13   8   4    0.20    2.61
  13  -8   4   -0.19    2.03
  13   8   4   -1.71    2.61
  13  -8   5    4.69    2.38
  13   8   5    1.59    1.08
  13  -8   5    2.24    1.81
  13   8   5    3.16    2.67
  13   8   6    1.89    2.16
  13  -8   6    0.10    1.56
  13  -8   6    0.91    1.59
  13   8   6    0.11    1.20
  13   8   7    2.28    2.55
  13  -8   7    2.45    1.72
  13  -8   7    6.53    3.40
  13   8   7    0.30    1.32
  13   8   8   -0.20    1.22
  13  -8   8   -1.36    2.40
  13  -8   8    1.34    2.75
  13   8   8    1.51    1.58
  13   8   9    0.26    2.48
  13  -8   9   -2.36    1.27
  13  -8   9    0.59    2.04
  13   8   9   -1.79    2.47
  13   8  10   -0.14    2.06
  13  -8  10    5.81    3.19
  13   8  10   -0.94    2.02
  13   8  11   -0.61    1.38
  13  -8  11    0.87    1.46
  13   8  11   -0.75    1.51
  13   9  -4    8.06    3.50
  13  -9  -4   12.22    3.67
  13  -9  -4   10.45    3.52
  13   9  -3    2.70    1.25
 -13   9  -3   -0.91    1.45
  13  -9  -3   -0.18    2.28
  13  -9  -3    4.94    2.96
  13  -9  -2   -1.14    2.27
  13   9  -2    2.63    2.76
 -13   9  -2    1.79    2.15
  13  -9  -2    3.43    3.60
  13  -9  -1    1.41    1.45
  13   9  -1    4.51    2.46
 -13   9  -1    1.27    1.55
  13  -9  -1   -0.80    1.80
  13  -9   0    7.43    3.56
  13   9   0    5.36    2.82
 -13   9   0    5.81    2.31
  13  -9   0    2.45    1.63
  13  -9   1    0.70    1.78
  13   9   1    2.77    2.31
 -13   9   1    0.91    1.94
  13  -9   1   -0.25    1.68
  13  -9   2    4.87    3.27
  13   9   2   -0.77    1.90
 -13   9   2    3.10    2.28
  13  -9   2    5.44    2.92
  13   9   2   -0.13    1.79
  13  -9   3    2.96    1.31
  13   9   3   -1.13    2.45
 -13   9   3    3.87    2.67
  13  -9   3   -1.33    2.69
  13   9   3    2.25    1.71
  13  -9   4    4.08    2.40
  13   9   4   11.29    3.33
  13   9   4    6.03    2.89
  14   0 -21   24.98    6.10
  14   0 -20    8.52    2.91
  14   0 -19    0.41    1.68
  14   0 -18    3.16    2.71
  14   0 -17    8.01    3.72
  14   0 -16   29.75    5.37
  14   0 -15    3.38    2.27
  14   0 -14   14.06    3.63
  14   0 -13   32.37    5.59
  14   0 -12   61.02    7.41
  14   0 -11    7.98    2.93
  14   0 -10   56.79    6.77
  14   0 -10   55.71    7.26
  14   0  -9   10.04    2.84
  14   0  -9    8.17    2.87
  14   0  -8   13.97    3.73
  14   0  -8   15.11    3.61
  14   0  -7   71.05    7.52
  14   0  -7   77.29    8.28
  14   0  -6  150.19   10.82
  14   0  -6  116.68   10.13
  14   0  -5   46.02    6.26
  14   0  -5   45.91    6.17
  14   0  -4   90.32    8.49
  14   0  -4   85.49    8.37
  14   0  -3   63.74    6.80
  14   0  -3   42.85    5.77
  14   0  -2   26.83    4.53
  14   0  -2   28.46    4.60
  14   0  -1   36.83    5.34
  14   0  -1   41.52    5.76
  14   0   0   80.01    8.01
  14   0   0   98.50    9.04
  14   0   0   79.20    7.76
  14   0   1   28.90    4.79
  14   0   1   35.83    5.20
  14   0   1   31.28    4.68
  14   0   2   37.98    5.42
  14   0   2   31.24    5.17
  14   0   2   29.02    4.63
  14   0   3   60.58    7.08
  14   0   3   62.50    7.43
  14   0   3   59.71    6.97
  14   0   4  104.60    9.17
  14   0   4   91.97    8.66
  14   0   4   94.52    8.14
  14   0   5   48.92    6.45
  14   0   5   47.24    5.96
  14   0   6  122.51   10.14
  14   0   6  142.34   10.09
  14   0   7   70.18    7.54
  14   0   8    4.80    1.75
  14   0   9   14.19    3.42
  14   0  10   63.14    7.42
  14   0  11    7.20    2.90
  14   0  12   58.22    7.33
  14   0  13   29.30    5.10
  14   0  14    9.88    3.44
  14   0  15    3.09    2.88
  14   0  16   22.45    4.61
  14   0  17    2.58    1.32
  14   0  18    2.41    1.81
  14   0  19    5.56    2.35
  14   0  20   13.44    4.15
  14   0  21   14.34    4.03
  14   0  22    3.22    2.22
  14   0  23    2.83    1.35
  14  -1 -22   -0.70    1.52
  14  -1 -21    4.43    2.21
  14  -1 -20    0.51    1.38
  14  -1 -19    2.52    1.68
  14  -1 -18    7.50    3.09
  14  -1 -17   -0.02    1.48
  14   1 -16    0.09    1.69
  14  -1 -16    0.30    1.25
  14   1 -15    0.87    2.13
  14  -1 -15    0.37    1.02
  14   1 -14    3.06    2.08
  14  -1 -14   -2.03    2.13
  14   1 -13    0.24    1.82
  14  -1 -13    1.27    2.56
  14   1 -12    1.15    1.34
  14  -1 -12    0.08    1.39
  14  -1 -11   -0.40    1.16
  14  -1 -11    0.11    1.08
  14   1 -11   -0.13    1.75
  14  -1 -10    2.19    0.81
  14  -1 -10    3.20    2.01
  14   1 -10    5.18    2.55
  14  -1  -9    5.40    2.41
  14   1  -9    6.50    2.32
  14  -1  -9    9.94    2.82
  14   1  -9    4.07    1.62
  14   1  -9    8.73    2.82
  14  -1  -8    3.07    1.89
  14   1  -8    1.61    1.31
  14  -1  -8    0.45    0.81
  14   1  -8    0.19    1.19
  14   1  -8    3.18    2.39
  14  -1  -7   16.36    3.74
  14   1  -7   15.23    3.64
  14  -1  -7   12.49    3.46
  14   1  -7   16.35    3.51
  14   1  -7   19.81    3.92
  14  -1  -6    2.97    1.84
  14   1  -6    2.27    1.02
  14  -1  -6    3.05    2.06
  14   1  -6    1.25    1.81
  14   1  -6    1.04    1.58
  14  -1  -5    0.76    0.73
  14   1  -5    0.12    1.15
  14  -1  -5    0.93    1.57
  14   1  -5   -0.24    1.09
  14   1  -5    3.90    1.63
  14  -1  -4    7.42    2.40
  14  -1  -4    3.94    1.63
  14   1  -4    5.24    2.57
  14   1  -4    5.50    2.04
  14  -1  -3    8.01    2.26
  14  -1  -3   10.27    2.91
  14   1  -3    9.17    3.17
  14   1  -3    5.07    2.80
  14   1  -3    8.65    3.03
  14   1  -2   34.30    5.39
  14  -1  -2   21.10    4.26
  14  -1  -2   27.06    4.67
  14   1  -2   22.83    4.36
  14   1  -2   21.03    4.02
  14  -1  -1   27.54    4.67
  14   1  -1   24.39    4.68
  14  -1  -1   25.94    5.06
  14   1  -1   33.50    5.26
  14   1  -1   32.72    4.89
  14  -1   0   26.62    4.44
  14   1   0   24.65    4.41
  14  -1   0   25.44    4.48
  14   1   0   19.08    4.30
  14   1   0   22.67    4.08
  14  -1   1   32.25    4.86
  14   1   1   24.10    4.53
  14   1   1   32.57    5.14
  14  -1   1   24.57    4.48
  14   1   1   30.96    5.02
  14  -1   2   22.43    4.37
  14   1   2   27.13    4.37
  14   1   2   30.35    5.03
  14  -1   2   22.28    4.40
  14   1   2   25.06    4.46
  14  -1   3   12.00    3.29
  14  -1   3    4.62    1.87
  14   1   3    9.73    2.96
  14   1   3   11.28    3.23
  14   1   3   10.90    3.06
  14   1   4    3.88    1.60
  14  -1   4    6.78    2.81
  14  -1   4    5.30    1.85
  14   1   4    4.98    2.08
  14   1   5    0.28    0.72
  14  -1   5    0.35    1.22
  14  -1   5    1.60    1.74
  14   1   5    1.47    1.56
  14   1   6    1.83    1.42
  14  -1   6    4.26    1.99
  14   1   6    1.07    1.06
  14   1   7   17.95    3.79
  14  -1   7   12.79    3.08
  14   1   7   23.16    4.32
  14   1   8    1.64    1.40
  14  -1   8    1.15    1.41
  14   1   8    1.55    1.64
  14   1   9    7.52    2.96
  14  -1   9    5.93    0.96
  14   1   9    8.58    2.86
  14   1  10    6.37    2.91
  14  -1  10    3.09    2.62
  14   1  10    5.81    2.18
  14   1  11    1.29    1.23
  14  -1  11    0.55    1.22
  14   1  11   -1.11    1.80
  14   1  12   -1.18    2.40
  14  -1  12    3.58    2.06
  14   1  13   -0.65    1.23
  14  -1  13   -0.80    2.37
  14   1  14   -0.27    1.46
  14  -1  14    1.28    1.40
  14   1  15    6.08    2.82
  14  -1  15    8.15    3.01
  14   1  16    2.36    2.22
  14  -1  16    1.32    1.07
  14   1  17    0.69    1.62
  14  -1  17    0.14    1.67
  14   1  18   -0.05    1.52
  14  -1  18    6.13    3.33
  14   1  19    4.93    2.45
  14  -1  19    1.66    1.05
  14   1  20    0.73    0.95
  14  -1  20    1.30    1.57
  14   1  21   -0.06    2.00
  14  -1  21   -2.12    3.06
  14   1  22    0.40    1.20
  14  -1  22   -0.38    1.41
  14  -2 -22    3.09    1.15
  14  -2 -21    6.70    3.29
  14  -2 -20    3.50    1.92
  14  -2 -19   -0.48    1.13
  14  -2 -18    0.15    1.77
  14  -2 -17    6.59    3.20
  14  -2 -16   34.87    5.85
  14  -2 -15    1.58    2.00
  14  -2 -14   32.98    5.28
  14   2 -14   29.56    5.13
  14  -2 -13   10.78    3.44
  14  -2 -13   15.09    4.32
  14   2 -13    8.87    3.09
  14  -2 -12   13.58    3.51
  14  -2 -12   24.39    4.78
  14   2 -12   16.32    3.77
  14  -2 -11    0.24    0.92
  14  -2 -11    1.76    1.85
  14   2 -11    3.67    2.62
  14  -2 -10   33.04    5.50
  14   2 -10   28.90    4.74
  14   2 -10   30.07    5.05
  14  -2 -10   29.79    5.27
  14  -2  -9   35.23    5.57
  14  -2  -9   44.92    6.11
  14   2  -9   35.54    5.45
  14   2  -9   40.42    5.56
  14  -2  -8   12.97    3.83
  14   2  -8   15.20    4.04
  14  -2  -8   14.94    4.08
  14   2  -8   12.88    3.54
  14   2  -8    8.44    2.69
  14  -2  -7   11.24    3.32
  14  -2  -7   10.52    2.77
  14   2  -7    7.90    2.29
  14   2  -7    6.52    2.08
  14   2  -7   10.83    2.77
  14  -2  -6   38.80    5.80
  14   2  -6   26.50    4.78
  14  -2  -6   34.04    5.55
  14   2  -6   35.78    5.42
  14   2  -6   37.17    5.53
  14  -2  -5   36.53    5.61
  14   2  -5   25.99    4.37
  14  -2  -5   35.35    5.98
  14   2  -5   29.32    4.42
  14   2  -5   27.61    4.69
  14  -2  -4   49.33    6.54
  14   2  -4   52.41    6.34
  14  -2  -4   53.52    6.67
  14   2  -4   56.12    6.55
  14   2  -4   49.76    6.17
  14  -2  -3   15.51    3.82
  14  -2  -3   13.19    2.82
  14   2  -3   15.46    3.74
  14   2  -3   19.06    4.00
  14   2  -3   23.29    4.23
  14  -2  -2    7.09    2.94
  14  -2  -2   11.25    3.37
  14   2  -2    6.59    2.42
  14   2  -2    6.78    2.26
  14   2  -2    4.96    2.31
  14  -2  -1    7.61    2.90
  14  -2  -1    5.14    2.26
  14   2  -1   10.09    3.27
  14   2  -1    7.04    2.47
  14   2  -1    9.28    3.18
  14  -2   0   90.16    8.71
  14   2   0   87.77    8.28
  14  -2   0   90.10    8.66
  14   2   0  100.10    8.96
  14   2   0   93.71    8.44
  14   2   1    3.64    0.87
  14  -2   1    4.55    2.22
  14  -2   1    5.04    1.48
  14   2   1    6.19    2.35
  14   2   1    6.33    3.14
  14   2   2    5.35    1.93
  14  -2   2    2.88    1.62
  14  -2   2    4.94    1.98
  14   2   2    3.98    2.25
  14   2   2    6.70    2.58
  14  -2   3   19.51    3.96
  14   2   3   22.49    4.55
  14  -2   3   20.84    4.17
  14   2   3   10.14    3.56
  14  -2   4   51.57    6.75
  14   2   4   49.75    6.42
  14  -2   4   68.52    7.50
  14   2   4   62.62    6.94
  14  -2   5   28.57    4.94
  14   2   5   26.81    4.64
  14  -2   5   27.94    4.86
  14   2   5   28.03    4.65
  14  -2   6   26.38    4.75
  14   2   6   36.93    5.76
  14  -2   6   34.26    5.56
  14   2   6   42.89    5.98
  14   2   7    6.59    2.71
  14  -2   7   11.60    3.21
  14  -2   7   13.63    3.54
  14   2   7   10.43    3.10
  14   2   8   11.60    3.39
  14  -2   8   12.97    3.27
  14   2   8   15.70    3.67
  14  -2   9   33.95    5.42
  14   2   9   36.55    5.64
  14   2   9   26.86    4.99
  14  -2  10   25.74    4.88
  14   2  10   29.19    5.06
  14   2  10   29.72    4.57
  14   2  11    1.35    1.33
  14  -2  11   -0.79    1.46
  14   2  11    0.21    1.63
  14   2  12   15.19    3.53
  14  -2  12   24.88    4.91
  14   2  12   24.76    4.74
  14   2  13   11.42    3.26
  14  -2  13   16.50    4.35
  14  -2  14   27.03    5.02
  14   2  14   30.19    5.20
  14   2  15    5.51    2.34
  14  -2  15    5.96    2.78
  14   2  16   22.37    4.34
  14  -2  16   18.86    4.32
  14   2  17    4.43    1.93
  14  -2  17    6.41    2.82
  14   2  18   -0.22    1.85
  14  -2  18   -0.64    1.31
  14   2  19    1.80    1.44
  14  -2  19    3.94    3.19
  14   2  20   16.28    4.48
  14  -2  20   13.95    4.63
  14   2  21    9.01    3.67
  14  -2  21    2.29    2.61
  14   2  22    8.51    3.05
  14  -2  22    1.73    2.20
  14  -3 -21   -0.94    1.79
  14  -3 -20    1.28    2.02
  14  -3 -19    1.05    1.45
  14  -3 -18   -0.93    2.55
  14  -3 -17   -0.63    1.78
  14   3 -17    3.95    3.04
  14  -3 -16    6.28    2.76
  14   3 -16    6.65    2.92
  14  -3 -15    0.42    1.40
  14   3 -15    1.66    1.16
  14  -3 -14    2.10    1.68
  14  -3 -14    2.47    1.66
  14   3 -14   -0.29    1.52
  14  -3 -13    1.30    0.85
  14  -3 -13    2.22    2.18
  14   3 -13   -0.72    1.23
  14  -3 -12    1.55    1.63
  14  -3 -12    2.83    1.58
  14   3 -12   -0.66    1.75
  14  -3 -11    2.12    1.71
  14  -3 -11    2.42    2.69
  14   3 -11    5.14    1.43
  14  -3 -10   14.72    3.25
  14  -3 -10   11.59    3.60
  14   3 -10   13.85    3.24
  14  -3  -9    1.00    1.77
  14  -3  -9    3.75    2.43
  14   3  -9    3.01    1.53
  14  -3  -8    2.98    1.68
  14  -3  -8   -0.19    1.73
  14   3  -8    0.17    1.17
  14  -3  -7   -0.67    1.03
  14  -3  -7    1.54    1.70
  14   3  -7   -3.15    1.56
  14   3  -7    0.81    1.60
  14  -3  -6    5.32    2.96
  14  -3  -6    2.61    2.52
  14   3  -6    1.96    0.99
  14   3  -6    5.61    2.29
  14  -3  -5   11.99    2.99
  14  -3  -5    4.94    2.51
  14   3  -5    5.47    2.05
  14   3  -5    6.41    2.22
  14   3  -4    3.49    1.86
  14  -3  -4    0.58    1.92
  14  -3  -4    4.21    2.29
  14   3  -4    0.95    1.59
  14   3  -4    0.24    0.97
  14   3  -3   11.05    3.10
  14  -3  -3    8.01    2.72
  14  -3  -3   10.22    3.33
  14   3  -3   14.00    3.67
  14   3  -3    8.33    2.87
  14  -3  -2   57.33    7.14
  14   3  -2   48.61    6.26
  14  -3  -2   50.85    6.86
  14   3  -2   63.42    7.30
  14   3  -2   43.30    5.87
  14   3  -1   11.97    3.50
  14   3  -1   11.39    2.93
  14  -3  -1   15.87    4.10
  14  -3  -1   16.50    4.24
  14   3  -1   13.27    3.25
  14  -3   0   55.27    6.73
  14   3   0   58.13    6.75
  14  -3   0   55.15    6.90
  14   3   0   54.36    6.55
  14   3   0   47.42    6.35
  14   3   1   19.08    4.14
  14   3   1   13.22    3.66
  14  -3   1   14.11    3.70
  14  -3   1   16.21    3.71
  14   3   1   17.09    3.97
  14  -3   2   52.68    6.74
  14  -3   2   62.34    7.34
  14   3   2   45.92    5.96
  14   3   2   46.99    6.30
  14   3   3    7.92    2.82
  14   3   3   11.81    3.29
  14  -3   3   10.83    3.42
  14  -3   3   10.79    3.36
  14   3   4    0.96    1.03
  14   3   4   -0.43    1.22
  14  -3   4    0.64    1.73
  14  -3   4    1.16    1.51
  14   3   5   10.08    3.53
  14   3   5   11.86    3.44
  14  -3   5    6.84    2.54
  14  -3   5   10.83    3.57
  14   3   6    3.11    1.20
  14   3   6    2.54    1.77
  14  -3   6    6.90    2.71
  14  -3   6    1.21    1.82
  14   3   7    0.93    2.09
  14   3   7    0.71    1.22
  14  -3   7   -0.96    2.04
  14  -3   7    1.65    1.15
  14   3   8    0.29    1.68
  14   3   8    0.32    1.08
  14  -3   8   -0.29    2.07
  14  -3   8   -0.17    1.20
  14   3   9    0.68    1.16
  14   3   9    2.45    2.61
  14  -3   9   -0.01    2.16
  14  -3   9    2.21    1.67
  14   3  10   11.51    3.50
  14   3  10   16.90    3.86
  14  -3  10   14.01    3.59
  14   3  11   -0.45    1.28
  14   3  11    1.35    1.86
  14  -3  11    1.49    2.09
  14   3  12    0.45    1.30
  14   3  12    0.88    1.05
  14  -3  12   -0.67    1.63
  14   3  13    2.56    2.17
  14   3  13    3.34    2.14
  14  -3  13    2.07    2.32
  14   3  14    0.27    1.29
  14  -3  14    2.64    1.46
  14   3  15    1.37    1.84
  14  -3  15    2.07    1.93
  14   3  16    3.01    2.58
  14  -3  16    5.42    2.96
  14   3  17    1.13    1.16
  14  -3  17    0.62    2.29
  14   3  18    0.61    1.39
  14  -3  18    0.28    1.24
  14   3  19    0.57    1.70
  14  -3  19    1.69    2.12
  14   3  20    4.47    3.33
  14  -3  20    7.80    3.24
  14   3  21   -0.14    1.56
  14  -3  21    5.69    3.44
  14  -4 -20   12.45    4.09
  14   4 -20   12.52    4.39
  14  -4 -19    1.03    2.19
  14   4 -19   -0.96    2.08
  14  -4 -18   -0.42    1.38
  14   4 -18    2.04    1.83
  14  -4 -17   16.81    4.37
  14   4 -17   19.69    4.13
  14  -4 -16    5.52    2.55
  14   4 -16   13.50    3.70
  14  -4 -15    2.50    2.06
  14  -4 -15    6.97    2.21
  14   4 -15    4.28    1.60
  14  -4 -14   17.92    4.30
  14  -4 -14   16.05    3.96
  14   4 -14   13.30    3.72
  14  -4 -13    6.82    2.95
  14  -4 -13    6.37    3.44
  14   4 -13   11.27    3.45
  14  -4 -12   14.19    4.09
  14  -4 -12   16.58    3.95
  14   4 -12   18.22    4.20
  14  -4 -11   16.27    4.27
  14  -4 -11   22.48    4.91
  14   4 -11   18.48    3.99
  14  -4 -10    9.89    3.53
  14  -4 -10   12.97    3.44
  14   4 -10   14.70    2.97
  14  -4  -9   26.57    4.91
  14  -4  -9   19.17    4.02
  14   4  -9   20.85    4.43
  14  -4  -8    4.58    2.16
  14  -4  -8    3.81    2.63
  14   4  -8    4.21    2.64
  14   4  -7    4.71    2.49
  14  -4  -7    3.71    1.53
  14  -4  -7    8.52    2.49
  14   4  -6   28.77    4.69
  14  -4  -6   28.96    5.30
  14  -4  -6   41.47    6.14
  14   4  -5    5.71    2.46
  14   4  -5    9.56    2.75
  14  -4  -5    9.52    2.59
  14  -4  -5    5.76    2.41
  14  -4  -4   32.07    5.58
  14   4  -4   40.38    5.80
  14  -4  -4   30.20    5.05
  14   4  -4   32.45    5.47
  14  -4  -3   27.50    5.11
  14  -4  -3   35.23    5.77
  14   4  -3   29.16    5.23
  14   4  -3   39.07    5.79
  14   4  -2   10.09    2.78
  14   4  -2    5.80    2.10
  14  -4  -2    6.02    2.24
  14  -4  -2   11.05    3.47
  14   4  -1   16.24    3.84
  14   4  -1   19.79    3.83
  14  -4  -1   19.78    4.27
  14  -4  -1   14.66    3.80
  14  -4   0  190.43   12.86
  14  -4   0  195.01   13.35
  14   4   0  163.43   11.54
  14   4   0  172.10   12.19
  14   4   1   14.08    3.65
  14   4   1   17.79    3.79
  14  -4   1   18.55    4.25
  14  -4   1   20.68    4.53
  14   4   1   16.61    3.62
  14   4   2    5.36    2.90
  14   4   2    3.95    1.44
  14  -4   2    3.82    1.88
  14  -4   2    5.76    3.04
  14  -4   3   23.30    4.63
  14  -4   3   34.09    5.74
  14   4   3   28.02    4.60
  14   4   3   28.03    4.95
  14  -4   4   26.44    5.32
  14  -4   4   38.51    5.70
  14   4   4   29.31    5.36
  14   4   4   35.35    5.62
  14   4   5    5.00    2.47
  14   4   5    3.18    1.99
  14  -4   5    4.79    2.03
  14  -4   5    3.00    1.73
  14  -4   6   27.75    5.23
  14  -4   6   27.82    5.18
  14   4   6   44.22    6.08
  14   4   6   39.29    5.74
  14   4   7    3.65    2.29
  14   4   7   11.28    3.09
  14  -4   7    5.48    1.66
  14  -4   7    8.07    2.83
  14   4   8    1.23    1.61
  14   4   8    6.81    2.84
  14  -4   8    6.72    3.18
  14  -4   8    3.40    2.25
  14   4   9   25.42    5.08
  14  -4   9   15.26    4.00
  14  -4   9   24.83    4.71
  14   4   9   28.62    5.23
  14   4  10   16.62    3.70
  14   4  10   14.79    3.46
  14  -4  10   15.99    4.19
  14  -4  10   12.64    3.55
  14   4  11   18.47    4.43
  14   4  11   22.24    4.36
  14  -4  11   14.75    3.42
  14  -4  11   14.82    3.95
  14   4  12   14.20    4.18
  14   4  12   16.52    3.99
  14  -4  12   16.34    3.70
  14  -4  12   11.90    3.66
  14   4  13    7.17    2.82
  14   4  13    8.42    3.19
  14  -4  13   11.87    3.70
  14  -4  13    6.76    3.58
  14   4  14    7.77    2.93
  14  -4  14   17.84    4.42
  14   4  15    2.90    1.43
  14  -4  15    3.45    1.30
  14   4  16   17.67    4.54
  14  -4  16   12.62    3.98
  14   4  17   15.15    4.04
  14  -4  17    9.42    3.94
  14   4  18    6.04    3.11
  14  -4  18    4.77    2.64
  14   4  19   -1.11    2.23
  14  -4  19    0.84    1.74
  14   4  20   14.57    4.06
  14  -4  20   10.46    2.92
  14  -5 -18    0.94    1.71
  14   5 -18   -2.41    2.41
  14  -5 -17   -0.95    1.05
  14   5 -17    2.86    1.92
  14  -5 -16    2.60    2.06
  14   5 -16    4.89    2.63
  14  -5 -16    0.18    1.81
  14  -5 -15   -1.48    2.22
  14   5 -15    0.52    1.73
  14  -5 -15   -0.06    1.25
  14  -5 -14    1.75    1.43
  14  -5 -14    1.18    1.15
  14   5 -14   -0.28    1.97
  14  -5 -13    4.23    2.63
  14  -5 -13    4.77    1.87
  14   5 -13    1.71    2.11
  14  -5 -12    1.45    1.52
  14   5 -12    4.02    2.14
  14  -5 -11    0.24    1.14
  14  -5 -11   -1.50    2.37
  14   5 -10    8.81    3.66
  14  -5 -10    8.30    2.80
  14  -5 -10    5.38    1.62
  14   5  -9    2.52    1.37
  14  -5  -9    6.61    2.81
  14  -5  -9    8.18    3.20
  14   5  -8    2.25    1.99
  14  -5  -8   -0.98    0.98
  14  -5  -8   -0.34    1.70
  14   5  -7    5.79    2.65
  14  -5  -7    1.50    1.73
  14  -5  -7    1.80    1.28
  14   5  -6   -0.27    0.78
  14  -5  -6    1.37    1.92
  14  -5  -6   -1.67    3.22
  14   5  -5    0.37    1.81
  14  -5  -5    1.81    1.70
  14  -5  -5    0.29    1.57
  14   5  -4   11.72    3.65
  14  -5  -4   10.49    3.14
  14  -5  -4    9.69    3.47
  14   5  -4   16.41    4.69
  14   5  -3   -1.45    2.02
  14  -5  -3    3.95    2.25
  14   5  -3    1.92    1.39
  14  -5  -3    0.03    1.11
  14   5  -2    3.14    1.78
  14  -5  -2    7.84    2.17
  14   5  -2    2.58    1.76
  14  -5  -2    3.90    3.04
  14   5  -1   13.00    3.22
  14  -5  -1   15.54    3.98
  14   5  -1    8.01    2.93
  14  -5  -1   17.59    4.26
  14  -5   0   35.43    5.86
  14  -5   0   35.49    5.77
  14   5   0   35.44    5.45
  14   5   0   43.01    6.21
  14   5   1   10.12    3.18
  14  -5   1   14.96    4.04
  14   5   1   12.19    3.41
  14  -5   1    9.97    2.78
  14   5   2    3.80    0.90
  14  -5   2    4.82    2.43
  14   5   2    4.00    1.77
  14  -5   2    1.23    1.51
  14   5   3    4.81    2.33
  14  -5   3    2.10    1.36
  14   5   3    2.94    1.02
  14  -5   3    1.18    1.37
  14   5   4    6.91    2.85
  14  -5   4    6.45    2.65
  14   5   4   12.03    3.89
  14  -5   4    4.73    2.23
  14   5   5   -0.57    1.25
  14  -5   5    2.76    1.57
  14   5   5   -0.35    1.82
  14  -5   5    2.19    2.26
  14   5   6   -1.02    1.57
  14  -5   6    3.46    2.78
  14   5   6    1.94    2.37
  14  -5   6   -0.58    1.16
  14   5   7    0.69    1.56
  14  -5   7    2.11    1.45
  14   5   7    5.19    1.88
  14  -5   7    2.41    1.71
  14   5   8    0.74    2.11
  14  -5   8    3.01    1.85
  14   5   8    1.29    1.83
  14  -5   8    1.47    1.51
  14   5   9    4.18    2.26
  14  -5   9    2.69    2.06
  14   5   9    3.02    1.52
  14  -5   9    6.89    3.04
  14   5  10    6.09    3.11
  14  -5  10    9.37    2.93
  14   5  10    9.05    3.22
  14  -5  10   10.48    3.46
  14   5  11    2.59    2.03
  14  -5  11    2.92    1.71
  14   5  11    5.33    3.12
  14  -5  11   -0.12    2.23
  14   5  12    7.38    2.71
  14  -5  12    4.04    2.01
  14   5  12    5.35    2.92
  14  -5  12    9.58    3.14
  14   5  13    4.51    2.12
  14  -5  13    2.68    2.31
  14   5  13    4.57    2.50
  14  -5  13    2.10    1.35
  14  -5  14    5.76    3.40
  14   5  14    4.52    2.05
  14  -5  14    2.19    1.88
  14  -5  15    0.89    1.68
  14   5  15    1.05    1.55
  14  -5  15    0.92    1.80
  14  -5  16    1.16    1.35
  14   5  16   -0.83    1.20
  14  -5  16    0.68    1.59
  14  -5  17    4.24    3.01
  14   5  17   -0.57    1.59
  14  -5  17    2.32    2.67
  14  -5  18   -0.27    1.98
  14   5  18   -0.46    1.26
  14  -6 -16    6.70    3.13
  14  -6 -16   15.15    4.20
  14   6 -16    5.70    2.53
  14  -6 -15    1.58    1.59
  14  -6 -15    3.54    2.80
  14   6 -15    0.53    1.03
  14  -6 -14   -0.74    1.93
  14  -6 -14   -0.76    1.33
  14   6 -14   -0.55    1.81
  14   6 -13    2.73    2.32
  14  -6 -13    5.24    2.76
  14  -6 -13    3.28    2.17
  14   6 -12   13.87    3.96
  14  -6 -12   10.07    3.54
  14  -6 -12   12.42    3.86
  14   6 -11    0.42    1.53
  14  -6 -11    2.20    1.81
  14  -6 -11   -0.17    1.76
  14  -6 -10   37.96    6.41
  14  -6 -10   42.84    6.49
  14   6 -10   37.96    5.99
  14   6  -9   14.06    4.19
  14  -6  -9   11.12    3.36
  14  -6  -9   15.81    4.20
  14   6  -8    2.48    2.36
  14  -6  -8    1.88    2.00
  14  -6  -8    1.89    2.09
  14   6  -7    4.75    2.17
  14  -6  -7    6.47    3.07
  14  -6  -7    6.71    2.92
  14  -6  -6   42.00    6.28
  14  -6  -6   32.32    5.60
  14   6  -6   47.07    6.20
  14   6  -5    1.84    1.30
  14  -6  -5   -0.13    2.02
  14  -6  -5    0.91    1.59
  14  -6  -4   18.89    4.63
  14  -6  -4   37.53    5.98
  14   6  -4   38.18    6.02
  14   6  -3   16.77    3.81
  14  -6  -3   18.70    4.13
  14  -6  -3   10.44    2.84
  14   6  -2   13.11    3.58
  14  -6  -2   10.52    3.24
  14   6  -2   10.99    3.75
  14  -6  -2   16.37    4.57
  14   6  -1   14.89    3.73
  14  -6  -1    7.58    3.08
  14   6  -1   11.30    2.55
  14  -6  -1   14.08    3.96
  14  -6   0   96.97    9.66
  14   6   0   91.20    9.11
  14   6   0  100.56    9.58
  14  -6   0  107.34   10.38
  14   6   1    5.84    2.63
  14  -6   1   10.41    3.34
  14   6   1   16.84    4.05
  14  -6   1   16.37    3.95
  14   6   2    1.79    1.79
  14  -6   2   11.11    3.70
  14   6   2    6.81    2.70
  14  -6   2   12.04    3.98
  14   6   3   20.25    4.43
  14  -6   3   16.83    3.85
  14   6   3   19.04    4.29
  14  -6   3   20.23    5.03
  14   6   4   29.30    5.20
  14  -6   4   23.01    4.66
  14  -6   4   30.39    5.86
  14   6   4   35.21    5.54
  14   6   5    0.71    1.26
  14  -6   5    2.29    1.66
  14   6   5   -1.73    1.72
  14  -6   5    1.17    1.33
  14  -6   6   41.91    6.26
  14   6   6   32.60    5.30
  14  -6   6   49.66    7.56
  14   6   6   42.01    6.24
  14   6   7   10.07    3.07
  14  -6   7    6.09    3.41
  14   6   7   10.96    3.17
  14  -6   7    2.52    1.87
  14   6   8    4.66    2.84
  14  -6   8    0.33    1.16
  14   6   8    8.39    3.41
  14  -6   8    5.72    3.12
  14   6   9   17.36    4.16
  14  -6   9   10.55    3.91
  14   6   9    9.18    3.43
  14  -6   9   14.57    3.95
  14   6  10   30.82    5.31
  14  -6  10   21.74    4.96
  14  -6  10   33.53    5.89
  14   6  10   34.24    6.21
  14   6  11    4.09    2.40
  14  -6  11    2.43    1.39
  14   6  11   -0.19    1.75
  14  -6  11    0.35    2.13
  14   6  12   11.50    4.02
  14  -6  12    5.96    2.58
  14   6  12   12.36    3.37
  14   6  13    1.30    2.26
  14  -6  13    4.87    2.81
  14   6  13    2.26    2.13
  14  -6  13    5.52    3.26
  14   6  14    4.46    1.74
  14  -6  14    2.08    1.35
  14   6  14    0.97    1.50
  14  -6  14    3.51    2.22
  14  -6  15    3.08    1.95
  14   6  15   -0.12    1.35
  14  -6  15    0.41    1.96
  14  -6  16   13.66    4.86
  14   6  16    9.73    3.69
  14  -6  16   13.06    4.19
  14   7 -13    3.63    1.69
  14  -7 -13    1.02    2.40
  14  -7 -13   -0.66    1.92
  14   7 -12   -1.16    1.78
  14  -7 -12    3.29    2.08
  14  -7 -12    0.20    1.70
  14   7 -11    0.98    1.51
  14  -7 -11   -0.10    2.64
  14  -7 -11    1.45    1.85
  14  -7 -10    0.10    1.09
  14   7 -10    2.28    1.82
  14  -7 -10    1.86    2.36
  14  -7  -9    4.15    2.82
  14   7  -9   -0.70    1.98
  14  -7  -9    3.33    2.96
  14  -7  -8    1.99    1.01
  14   7  -8    0.54    1.23
  14  -7  -7    5.08    3.24
  14   7  -7    5.51    2.23
  14  -7  -7    5.17    2.62
  14   7  -6    6.79    2.85
  14  -7  -6    2.56    1.83
  14  -7  -6    3.82    1.32
  14   7  -5    9.19    3.18
  14  -7  -5    7.92    3.07
  14  -7  -5   15.08    4.05
  14   7  -4    2.55    1.77
  14  -7  -4    3.51    1.19
  14  -7  -4   -0.94    1.29
  14   7  -3    1.66    1.38
  14  -7  -3    6.07    2.29
  14  -7  -3    2.30    1.93
  14   7  -2    2.00    1.38
  14  -7  -2    1.73    2.59
  14  -7  -2    5.79    3.40
  14   7  -1    0.34    1.29
  14  -7  -1   -2.21    1.66
  14  -7  -1    0.37    2.43
  14   7   0   11.64    2.93
  14  -7   0   17.15    4.47
  14   7   0   10.52    3.39
  14  -7   0   11.15    3.53
  14   7   1   -1.30    2.31
  14  -7   1   -0.25    1.95
  14   7   1   -1.34    1.96
  14  -7   1   -0.37    1.05
  14   7   2    3.06    2.38
  14  -7   2    2.61    2.20
  14   7   2    7.32    2.69
  14  -7   2    3.22    2.08
  14   7   3    6.41    2.51
  14  -7   3    3.01    2.39
  14   7   3    3.09    3.06
  14  -7   3    4.14    2.60
  14   7   4    0.19    1.69
  14  -7   4    6.73    2.24
  14   7   4    1.10    1.41
  14  -7   4    2.79    2.50
  14   7   5    9.71    2.87
  14  -7   5   11.99    3.18
  14   7   5    7.18    2.75
  14  -7   5    7.66    2.31
  14   7   6    7.05    3.03
  14  -7   6    8.55    3.02
  14   7   6    5.87    2.68
  14  -7   6    6.39    2.45
  14   7   7   -0.91    1.33
  14  -7   7    3.44    2.22
  14   7   7    3.51    1.85
  14  -7   7    1.87    1.92
  14   7   8    3.57    2.55
  14  -7   8    3.14    2.42
  14   7   8    1.61    1.40
  14  -7   8    7.43    3.98
  14   7   9   -0.44    1.42
  14  -7   9   -0.78    1.69
  14   7   9    0.06    2.05
  14  -7   9   -0.99    2.39
  14   7  10    2.93    2.49
  14  -7  10   -1.78    1.50
  14   7  10    2.45    2.43
  14  -7  10   -0.57    2.06
  14   7  11    4.13    2.06
  14  -7  11   -1.22    2.62
  14   7  11    1.05    1.45
  14  -7  11    1.07    1.36
  14   7  12    4.27    3.13
  14  -7  12    5.64    2.50
  14   7  12    3.71    2.70
  14  -7  12    0.89    2.27
  14   7  13   -0.57    1.59
  14  -7  13   -0.86    1.86
  14   7  13    3.31    2.78
  14  -7  13    2.92    2.76
  14   8  -8    4.62    2.71
  14  -8  -8    3.58    2.93
  14  -8  -8    4.95    2.56
  14  -8  -7    2.54    1.68
  14   8  -7    3.06    2.27
  14  -8  -7    2.16    2.64
  14  -8  -6    3.77    2.96
  14   8  -6    2.36    1.80
  14  -8  -6    1.09    1.45
  14  -8  -5   -1.40    1.55
  14   8  -5   -1.18    1.60
  14  -8  -5    2.36    2.91
  14  -8  -4    7.06    2.69
  14   8  -4    8.22    2.44
  14  -8  -4    9.22    3.11
  14  -8  -3    4.15    2.54
  14   8  -3    6.88    3.21
  14  -8  -3    1.07    1.49
  14  -8  -2    0.09    1.46
  14   8  -2    1.88    1.67
  14  -8  -1   -0.09    1.65
  14   8  -1    3.41    1.59
  14  -8  -1    3.51    2.41
  14  -8   0    1.36    1.66
  14   8   0    4.55    2.26
  14  -8   0   -0.02    2.07
  14  -8   1    1.32    1.61
  14   8   1    2.15    1.37
  14   8   1   -1.32    1.61
  14  -8   1    2.52    2.21
  14   8   2    1.12    1.87
  14  -8   2   -0.42    2.22
  14   8   2    0.56    1.24
  14  -8   2    0.46    1.14
  14   8   3    2.60    1.10
  14  -8   3   -0.01    2.61
  14   8   3    3.62    2.56
  14  -8   3    2.83    1.58
  14   8   4    6.93    2.58
  14  -8   4    3.82    1.67
  14  -8   4   10.05    2.87
  14   8   4   11.83    3.73
  14   8   5   -1.10    1.22
  14  -8   5    0.59    1.33
  14  -8   5    0.65    2.02
  14   8   5    2.69    2.38
  14   8   6    0.46    2.13
  14  -8   6    9.28    4.11
  14  -8   6    6.37    2.32
  14   8   6    2.84    2.55
  14   8   7    1.22    2.14
  14  -8   7   -0.86    1.70
  14  -8   7    1.31    2.02
  14   8   7    4.28    2.04
  14   8   8    6.09    3.49
  14  -8   8    7.80    3.59
  14  -8   8    2.67    2.15
  14   8   8    3.38    2.33
  15   0 -20   -3.16    1.28
  15   0 -19   -1.08    1.82
  15   0 -18    1.46    2.56
  15   0 -17    2.29    3.20
  15   0 -16    1.18    2.55
  15   0 -15    1.18    1.03
  15   0 -14   -1.06    1.26
  15   0 -13   -0.02    1.91
  15   0 -12   -1.18    1.42
  15   0 -11   -0.30    1.78
  15   0 -10    2.73    3.20
  15   0 -10    0.14    1.49
  15   0  -9   -0.27    1.31
  15   0  -9   -1.90    2.13
  15   0  -8   -0.70    0.81
  15   0  -8    1.30    1.45
  15   0  -7   -1.20    1.98
  15   0  -7    1.13    1.76
  15   0  -6    0.20    1.26
  15   0  -6   -0.29    1.76
  15   0  -5   -0.60    1.52
  15   0  -5   -0.04    1.43
  15   0  -4    0.71    1.48
  15   0  -4   -0.43    1.46
  15   0  -3    0.94    1.46
  15   0  -3   -0.68    1.49
  15   0  -2   -0.05    0.94
  15   0  -2   -0.19    0.87
  15   0  -1    1.16    1.17
  15   0  -1    0.01    0.93
  15   0   0    0.67    1.25
  15   0   0    0.66    1.06
  15   0   1    1.46    1.59
  15   0   1    1.14    1.09
  15   0   2    0.98    1.47
  15   0   2    0.54    1.22
  15   0   3    0.95    1.23
  15   0   3   -0.36    1.50
  15   0   4    1.39    1.39
  15   0   4   -0.30    1.11
  15   0   5    1.57    2.01
  15   0   5   -0.28    0.86
  15   0   6   -0.13    1.78
  15   0   7   -0.05    1.67
  15   0   8    0.02    1.32
  15   0   9    0.92    0.77
  15   0  10   -1.16    1.06
  15   0  11    1.08    1.29
  15   0  12   -0.47    2.41
  15   0  13    0.06    1.32
  15   0  14   -0.29    1.02
  15   0  15   -1.48    1.49
  15   0  16    1.92    1.05
  15   0  17    0.40    1.83
  15   0  18   -0.82    1.55
  15   0  19    1.91    1.52
  15   0  20   -0.54    1.91
  15   0  21    1.46    2.77
  15  -1 -21    1.15    1.89
  15  -1 -20    0.75    2.09
  15  -1 -19    7.32    3.16
  15  -1 -18   -0.43    1.51
  15  -1 -17   16.17    3.97
  15  -1 -16    7.69    3.16
  15   1 -15    8.22    4.17
  15  -1 -15    2.18    2.45
  15   1 -14    5.25    1.68
  15  -1 -14    3.08    1.79
  15   1 -13   48.53    6.84
  15  -1 -13   60.50    7.41
  15   1 -12   11.00    3.48
  15  -1 -12    8.63    2.83
  15  -1 -11    1.45    1.55
  15  -1 -11    4.42    2.14
  15   1 -11    0.86    1.19
  15  -1 -10    3.47    2.16
  15  -1 -10    1.32    1.12
  15   1 -10    3.52    2.20
  15  -1  -9    2.02    1.43
  15   1  -9   -0.74    0.88
  15  -1  -9    1.07    2.28
  15   1  -9    3.10    1.54
  15  -1  -8   15.92    4.07
  15   1  -8   15.91    3.60
  15  -1  -8   11.16    2.95
  15   1  -8    9.03    2.97
  15   1  -8   20.63    4.13
  15  -1  -7   53.56    6.67
  15   1  -7   56.94    6.96
  15  -1  -7   46.92    6.68
  15   1  -7   66.34    7.57
  15   1  -7   50.49    6.62
  15  -1  -6    2.39    0.99
  15   1  -6    2.31    1.95
  15  -1  -6    2.58    1.48
  15   1  -6    2.87    1.82
  15   1  -6    1.59    1.45
  15  -1  -5   19.32    4.03
  15   1  -5   16.48    3.56
  15  -1  -5   10.76    3.12
  15   1  -5   12.06    3.49
  15   1  -5   12.23    3.67
  15  -1  -4   17.06    3.70
  15   1  -4   11.01    3.04
  15  -1  -4   13.98    3.26
  15   1  -4   16.91    4.03
  15   1  -4   17.14    4.03
  15  -1  -3   37.18    5.59
  15   1  -3   37.86    5.62
  15  -1  -3   37.62    5.60
  15   1  -3   43.84    6.09
  15   1  -3   38.59    5.54
  15  -1  -2    1.79    1.01
  15  -1  -2    3.43    2.57
  15   1  -2    0.18    1.76
  15   1  -2    2.15    0.92
  15   1  -2    1.82    0.80
  15  -1  -1    0.89    1.68
  15  -1  -1    1.33    2.16
  15   1  -1    0.34    1.57
  15   1  -1    0.08    1.16
  15   1  -1   -1.91    2.06
  15  -1   0   -0.20    0.83
  15  -1   0   -0.84    0.95
  15   1   0   -0.97    1.31
  15   1   0   -0.38    0.81
  15   1   0   -0.78    1.09
  15  -1   1    1.20    1.12
  15  -1   1   -0.55    1.27
  15   1   1    1.76    2.80
  15   1   1   -0.77    1.33
  15   1   1    0.73    0.99
  15  -1   2   -0.26    1.00
  15  -1   2    2.27    2.13
  15   1   2   -0.57    1.68
  15   1   2    0.70    1.41
  15   1   2    1.16    0.97
  15  -1   3   45.69    6.35
  15   1   3   46.43    6.12
  15  -1   3   51.25    7.06
  15   1   3   44.31    6.38
  15   1   3   41.22    5.65
  15  -1   4    8.30    2.35
  15  -1   4   16.43    3.96
  15   1   4   15.18    3.58
  15   1   4   18.66    4.01
  15   1   4   15.45    3.66
  15  -1   5   21.65    4.46
  15  -1   5   13.81    3.74
  15   1   5   17.31    3.77
  15   1   5   14.02    3.35
  15   1   6    1.59    2.16
  15  -1   6    5.74    2.61
  15  -1   6    3.89    1.64
  15   1   6    2.79    1.65
  15  -1   7   51.01    6.72
  15   1   7   59.73    7.09
  15   1   7   51.88    6.53
  15   1   8   11.97    3.58
  15  -1   8    8.98    3.25
  15   1   8   12.36    2.99
  15   1   9    0.86    1.35
  15  -1   9    1.91    1.68
  15   1   9    0.63    1.99
  15   1  10    3.73    1.94
  15  -1  10    2.73    1.95
  15   1  10    3.38    1.63
  15   1  11    4.10    2.38
  15  -1  11    1.41    1.36
  15   1  11    2.88    2.25
  15   1  12    5.52    2.55
  15  -1  12   10.45    3.07
  15  -1  13   72.51    8.13
  15   1  13   61.28    7.33
  15   1  14    1.86    1.42
  15  -1  14    6.42    3.43
  15   1  15    1.88    1.52
  15  -1  15   -2.59    2.09
  15   1  16    7.89    2.92
  15  -1  16   13.35    3.77
  15   1  17   10.07    2.68
  15  -1  17    9.62    3.38
  15   1  18    1.94    1.30
  15  -1  18    2.28    1.54
  15   1  19    6.62    3.25
  15  -1  19    2.77    2.14
  15   1  20   -1.89    2.42
  15  -1  20   -0.13    1.24
  15   1  21    0.17    1.21
  15  -1  21   -2.59    2.88
  15  -2 -20    1.23    2.25
  15  -2 -19    2.43    2.04
  15  -2 -18   -1.87    2.13
  15  -2 -17   -1.40    2.49
  15  -2 -16    2.67    2.35
  15  -2 -15    1.13    2.05
  15  -2 -14    3.76    2.80
  15  -2 -13   12.69    3.82
  15   2 -13   14.58    3.96
  15  -2 -12    2.46    2.25
  15  -2 -12    0.68    1.73
  15   2 -12    0.28    1.20
  15  -2 -11    5.52    2.34
  15  -2 -11    3.27    2.41
  15   2 -11    4.61    2.25
  15  -2 -10    2.08    1.39
  15   2 -10    2.35    1.54
  15   2 -10    1.16    1.32
  15  -2  -9    0.59    1.80
  15  -2  -9    1.72    1.62
  15   2  -9    0.38    1.16
  15   2  -9    3.13    2.13
  15  -2  -8    0.36    1.09
  15  -2  -8    4.85    2.45
  15   2  -8    3.52    1.79
  15   2  -8    1.83    1.71
  15  -2  -7   13.61    3.52
  15   2  -7    6.41    2.07
  15  -2  -7    2.48    1.23
  15   2  -7   11.72    3.24
  15   2  -7    4.64    2.47
  15  -2  -6    2.65    1.55
  15  -2  -6    0.53    1.12
  15   2  -6    0.23    0.89
  15   2  -6    2.90    2.11
  15   2  -6    0.27    1.52
  15  -2  -5    6.08    2.96
  15  -2  -5    5.91    1.91
  15   2  -5    4.34    1.68
  15   2  -5    4.24    1.63
  15   2  -5    1.89    0.82
  15  -2  -4    0.99    1.63
  15  -2  -4    0.63    1.34
  15   2  -4    0.97    1.38
  15   2  -4    3.04    2.22
  15   2  -4    4.51    2.61
  15  -2  -3    2.12    2.16
  15  -2  -3   -0.52    1.00
  15   2  -3   -0.48    1.51
  15   2  -3    1.01    0.88
  15   2  -3    0.44    1.74
  15  -2  -2    2.83    1.89
  15  -2  -2    1.77    2.22
  15   2  -2    3.01    1.95
  15   2  -2    2.02    1.56
  15   2  -2   -0.13    0.94
  15  -2  -1    1.08    1.15
  15  -2  -1   -0.28    1.01
  15   2  -1   -0.99    1.46
  15   2  -1    0.18    0.81
  15   2  -1    3.49    2.13
  15  -2   0   -0.73    1.10
  15  -2   0   -0.52    1.29
  15   2   0   -0.25    1.64
  15   2   0   -0.44    1.55
  15   2   0    0.01    1.14
  15   2   1    0.39    1.28
  15  -2   1    1.62    0.75
  15  -2   1    1.90    1.56
  15   2   1    0.76    1.36
  15   2   1    2.71    1.95
  15   2   2    0.28    1.06
  15  -2   2    2.00    1.36
  15  -2   2    3.31    2.83
  15   2   2   -0.07    0.95
  15   2   2    0.73    0.95
  15   2   3   -0.14    0.87
  15  -2   3   -0.01    1.60
  15  -2   3    1.54    0.94
  15   2   3   -0.29    1.76
  15   2   3   -0.84    1.52
  15   2   4    2.62    2.10
  15  -2   4    4.31    2.49
  15  -2   4    2.48    2.01
  15   2   4    1.04    1.29
  15   2   5    7.76    2.87
  15  -2   5    2.46    1.31
  15  -2   5    5.49    1.43
  15   2   5    3.06    1.74
  15   2   6    1.74    2.15
  15  -2   6    0.92    1.98
  15  -2   6   -0.73    2.21
  15   2   6   -0.13    0.96
  15   2   7    6.63    2.90
  15  -2   7   11.42    3.98
  15  -2   7   11.13    3.51
  15   2   7    5.78    2.28
  15   2   8    1.68    1.26
  15  -2   8    1.49    1.15
  15  -2   8    5.15    2.51
  15   2   8    5.74    2.00
  15   2   9    2.84    1.87
  15  -2   9    2.18    1.33
  15   2   9    1.91    1.96
  15   2  10    5.46    1.65
  15  -2  10    6.53    3.24
  15   2  10    5.16    3.18
  15   2  11    6.39    3.00
  15  -2  11    7.70    3.06
  15   2  11    1.13    1.80
  15   2  12   -0.41    1.52
  15  -2  12    0.26    1.79
  15   2  13   10.19    3.67
  15  -2  13   17.73    4.47
  15   2  14    8.47    2.63
  15  -2  14    6.51    2.66
  15   2  15    3.63    1.14
  15  -2  15    1.25    2.21
  15   2  16    6.25    3.34
  15  -2  16    2.93    2.41
  15   2  17    1.45    1.75
  15  -2  17    0.58    1.09
  15   2  18    2.85    2.33
  15  -2  18   -0.39    1.27
  15   2  19    1.60    1.51
  15  -2  19    0.33    2.25
  15   2  20    3.84    3.43
  15  -2  20   -3.31    2.02
  15  -3 -20    4.59    3.53
  15  -3 -19    1.13    1.72
  15  -3 -18   11.35    3.57
  15  -3 -17   18.37    4.49
  15   3 -17   13.27    3.58
  15  -3 -16    3.53    2.78
  15   3 -16   -0.68    1.64
  15  -3 -15   -2.62    2.39
  15   3 -15    1.80    1.02
  15  -3 -14    9.98    3.52
  15   3 -14    3.26    1.65
  15  -3 -13    2.06    2.17
  15  -3 -13    2.98    1.20
  15   3 -13    2.94    2.43
  15  -3 -12   30.27    5.67
  15   3 -12   29.15    5.28
  15  -3 -12   33.25    6.11
  15  -3 -11    5.49    3.05
  15  -3 -11    4.57    2.48
  15   3 -11    7.80    2.75
  15  -3 -10   -0.39    1.58
  15  -3 -10    2.03    1.33
  15   3 -10    1.52    2.49
  15  -3  -9    2.76    0.84
  15  -3  -9    4.58    2.19
  15   3  -9    1.99    1.61
  15  -3  -8   11.00    3.45
  15  -3  -8   16.20    4.05
  15   3  -8   11.15    4.01
  15  -3  -7    8.23    3.33
  15  -3  -7    5.59    2.79
  15   3  -7    7.25    2.69
  15  -3  -6   12.84    3.26
  15  -3  -6   16.08    3.94
  15   3  -6   18.38    3.95
  15   3  -6   13.77    3.59
  15  -3  -5    8.98    3.39
  15  -3  -5    7.62    2.65
  15   3  -5   10.80    2.78
  15   3  -5   11.99    3.33
  15  -3  -4    5.71    2.19
  15   3  -4   13.51    4.50
  15  -3  -4   11.99    3.43
  15   3  -4   14.98    2.99
  15   3  -4   11.19    2.68
  15  -3  -3   42.43    6.07
  15   3  -3   47.47    6.24
  15  -3  -3   42.18    6.32
  15   3  -3   41.29    5.90
  15   3  -3   45.97    6.30
  15   3  -2    6.99    2.61
  15  -3  -2   13.53    3.43
  15  -3  -2   19.90    4.49
  15   3  -2   14.93    3.40
  15   3  -2   23.09    4.74
  15   3  -1    6.81    2.51
  15  -3  -1   11.82    3.20
  15  -3  -1   11.52    3.69
  15   3  -1   12.61    3.61
  15   3  -1    7.83    2.79
  15   3   0   16.73    3.95
  15  -3   0   14.91    3.87
  15  -3   0   11.32    3.01
  15   3   0   11.99    3.79
  15   3   0    8.02    3.30
  15   3   1    9.43    3.27
  15  -3   1   13.02    3.20
  15  -3   1   10.24    2.96
  15   3   1   12.97    3.77
  15   3   1   11.28    3.33
  15   3   2   20.05    4.40
  15  -3   2   15.70    3.85
  15  -3   2   19.36    4.85
  15   3   2   15.52    3.83
  15   3   2   13.20    3.45
  15  -3   3   48.23    6.62
  15   3   3   40.25    6.06
  15  -3   3   35.69    5.94
  15   3   3   42.41    6.08
  15   3   4    8.38    2.74
  15   3   4    5.02    2.44
  15  -3   4    6.09    2.57
  15  -3   4   10.05    2.99
  15   3   5    8.05    2.79
  15   3   5    7.11    3.18
  15  -3   5   10.12    2.78
  15  -3   5    8.53    3.58
  15   3   6   12.40    3.59
  15   3   6   17.49    3.93
  15  -3   6   14.55    3.53
  15  -3   6   15.29    4.33
  15   3   7    8.96    2.82
  15   3   7   10.79    3.47
  15  -3   7    8.39    2.69
  15  -3   7   10.33    2.95
  15   3   8   15.32    4.21
  15   3   8   16.64    3.65
  15  -3   8   10.82    3.08
  15  -3   8   15.36    3.71
  15   3   9    6.21    2.23
  15  -3   9   10.42    3.79
  15  -3   9    3.81    1.79
  15   3   9    6.16    3.04
  15   3  10    0.71    1.88
  15  -3  10   -0.85    1.61
  15  -3  10    3.06    1.64
  15   3  10    5.23    2.77
  15   3  11    6.88    2.38
  15  -3  11    6.18    2.85
  15  -3  11    6.93    3.52
  15   3  11    2.88    2.09
  15   3  12   25.18    4.78
  15  -3  12   24.70    5.21
  15   3  12   17.48    4.75
  15   3  13    0.85    1.96
  15  -3  13    2.86    2.09
  15   3  14   11.68    3.64
  15  -3  14    8.01    3.01
  15   3  15   -2.38    2.60
  15  -3  15    5.82    2.80
  15   3  16    1.06    2.23
  15  -3  16    0.48    2.13
  15   3  17   25.23    5.36
  15  -3  17   20.24    5.37
  15   3  18   15.86    4.33
  15  -3  18   11.80    3.80
  15   3  19    2.42    1.55
  15  -3  19    1.43    2.17
  15   3  20   -2.06    1.38
  15  -3  20   -2.48    2.31
  15  -4 -18    2.60    2.42
  15   4 -18    0.86    2.12
  15  -4 -17    2.55    1.66
  15   4 -17    4.19    2.83
  15  -4 -16    6.36    2.92
  15   4 -16    3.33    2.34
  15  -4 -15    6.44    3.03
  15   4 -15    2.20    2.26
  15  -4 -14    8.30    3.57
  15  -4 -14   15.14    4.23
  15   4 -14    7.12    2.53
  15  -4 -13    4.83    2.93
  15  -4 -13    8.85    3.46
  15   4 -13    5.89    2.61
  15  -4 -12   -0.17    1.77
  15  -4 -12    4.12    2.59
  15   4 -12    2.73    2.43
  15  -4 -11    7.32    3.00
  15  -4 -11    7.46    3.28
  15  -4 -10    0.45    1.08
  15  -4 -10    3.94    2.11
  15   4 -10    2.85    1.04
  15  -4  -9    2.88    2.10
  15  -4  -9    4.16    1.40
  15   4  -9    3.67    2.29
  15  -4  -8    5.47    2.52
  15   4  -8    7.59    2.52
  15  -4  -7   16.94    4.01
  15  -4  -7   12.12    3.03
  15   4  -7   17.81    3.99
  15  -4  -6    4.47    1.35
  15  -4  -6    5.31    3.16
  15   4  -6    5.42    1.81
  15  -4  -5    6.83    3.11
  15  -4  -5    5.63    2.55
  15   4  -5    9.35    2.72
  15   4  -4    3.85    2.38
  15   4  -4    2.36    1.23
  15  -4  -4    3.05    2.11
  15  -4  -4    7.22    2.67
  15   4  -3    4.31    1.80
  15   4  -3    0.35    0.94
  15  -4  -3    3.99    1.70
  15  -4  -3    2.05    1.95
  15   4  -2   -0.87    1.17
  15   4  -2   -0.82    2.21
  15  -4  -2    0.55    1.15
  15  -4  -2    2.54    3.58
  15   4  -1    8.07    2.98
  15   4  -1    6.40    2.77
  15  -4  -1    6.41    2.89
  15  -4  -1    2.61    2.12
  15   4   0    4.70    2.70
  15   4   0    8.08    2.58
  15  -4   0    7.96    2.66
  15  -4   0   10.62    3.49
  15   4   1    6.13    2.61
  15   4   1    9.43    3.12
  15  -4   1    4.71    2.14
  15  -4   1    7.04    2.62
  15   4   2   -0.80    1.92
  15   4   2    0.41    0.89
  15  -4   2    1.02    1.59
  15  -4   2    2.43    1.29
  15   4   3   -0.72    1.55
  15   4   3    0.38    2.07
  15  -4   3    0.94    1.08
  15  -4   3   -0.28    1.32
  15   4   4    4.41    2.39
  15   4   4    5.57    2.62
  15  -4   4    1.66    1.74
  15  -4   4    0.96    2.25
  15   4   5    3.75    1.91
  15   4   5    5.03    1.98
  15  -4   5    7.33    2.64
  15  -4   5    9.43    3.47
  15   4   6    8.18    2.81
  15   4   6    7.26    3.09
  15  -4   6    9.20    2.14
  15  -4   6   13.72    4.01
  15   4   7   14.89    3.62
  15   4   7   15.38    3.74
  15  -4   7   11.33    3.31
  15  -4   7   13.52    3.91
  15   4   8   12.39    3.66
  15   4   8   11.24    2.67
  15  -4   8   10.01    3.41
  15  -4   8   10.06    3.37
  15   4   9    8.03    2.81
  15   4   9    5.87    2.42
  15  -4   9    4.82    3.00
  15  -4   9    5.47    1.52
  15   4  10    2.28    2.14
  15   4  10    1.66    0.93
  15  -4  10   -0.01    1.33
  15  -4  10   -0.85    1.82
  15   4  11   11.41    3.21
  15   4  11   10.57    3.45
  15  -4  11   15.06    3.56
  15  -4  11   12.15    4.15
  15   4  12    4.00    2.49
  15   4  12    4.82    2.09
  15  -4  12   -2.12    1.42
  15  -4  12    3.80    2.76
  15   4  13    7.95    3.21
  15  -4  13    5.48    3.12
  15  -4  13    2.94    2.41
  15   4  14    9.01    3.08
  15  -4  14    7.65    2.70
  15  -4  14    8.05    3.43
  15   4  15    4.95    2.28
  15  -4  15    8.78    3.21
  15   4  16    5.62    2.81
  15  -4  16    2.50    2.52
  15   4  17    5.79    3.30
  15  -4  17   -0.27    1.92
  15   4  18    1.32    1.40
  15  -4  18   -0.60    2.29
  15  -5 -17    5.84    2.78
  15   5 -17   10.32    3.26
  15  -5 -16    0.31    1.55
  15   5 -16    3.99    2.39
  15  -5 -15    6.96    3.21
  15   5 -15    3.06    1.58
  15  -5 -15    4.55    2.83
  15  -5 -14    2.66    2.38
  15  -5 -14    6.17    3.21
  15   5 -14    8.74    3.21
  15  -5 -13   13.70    3.89
  15  -5 -13   22.78    4.95
  15   5 -13   19.17    4.30
  15  -5 -12    0.94    1.45
  15  -5 -12    2.68    2.06
  15   5 -12   -0.27    1.15
  15  -5 -11    0.02    0.96
  15  -5 -11    1.58    1.52
  15  -5 -10   10.06    3.94
  15  -5 -10   10.74    3.67
  15   5 -10    9.21    2.39
  15  -5  -9   24.14    5.13
  15  -5  -9   36.48    5.87
  15   5  -9   26.25    4.93
  15   5  -8    2.04    1.64
  15  -5  -8    1.27    1.07
  15  -5  -8    0.73    2.32
  15   5  -7    6.31    2.81
  15  -5  -7   13.57    3.52
  15  -5  -7   12.34    3.84
  15   5  -6    6.20    2.78
  15  -5  -6    8.47    3.38
  15  -5  -6    3.63    2.38
  15   5  -5    2.04    2.72
  15  -5  -5    2.84    1.96
  15  -5  -5    0.85    1.82
  15   5  -4    5.51    2.60
  15  -5  -4    5.10    2.11
  15  -5  -4    7.94    2.85
  15   5  -3   27.46    4.76
  15  -5  -3   31.89    5.17
  15   5  -3   24.97    5.01
  15  -5  -3   26.28    5.11
  15   5  -2    1.02    1.52
  15   5  -2    1.96    1.01
  15  -5  -2    3.11    2.20
  15  -5  -2    1.99    1.52
  15   5  -1   18.18    3.85
  15   5  -1   21.74    4.77
  15  -5  -1   19.99    4.50
  15  -5  -1   18.92    4.79
  15   5   0   20.79    4.73
  15  -5   0   23.72    4.44
  15   5   0   16.84    4.25
  15  -5   0   13.29    4.12
  15   5   1   22.17    4.35
  15  -5   1   26.99    4.88
  15  -5   1   23.82    4.78
  15   5   1   25.74    5.22
  15   5   2    1.91    1.45
  15  -5   2   -0.59    1.29
  15   5   2    2.07    1.31
  15  -5   2    1.85    1.93
  15   5   3   28.78    4.89
  15  -5   3   22.42    4.56
  15   5   3   28.85    4.86
  15  -5   3   26.77    5.19
  15   5   4    7.49    2.42
  15  -5   4    0.95    1.51
  15   5   4    6.76    3.17
  15  -5   4    4.98    2.44
  15   5   5    2.05    1.20
  15  -5   5   -0.56    1.41
  15   5   5    1.26    1.35
  15  -5   5   -0.55    1.56
  15   5   6    9.53    3.01
  15  -5   6    6.22    2.72
  15   5   6    6.63    2.51
  15  -5   6    8.21    3.07
  15   5   7    9.47    2.99
  15  -5   7   17.36    4.10
  15   5   7   11.48    3.21
  15  -5   7    9.11    3.40
  15   5   8   -0.45    2.24
  15  -5   8    2.00    2.34
  15   5   8    3.57    2.25
  15  -5   8    2.40    2.40
  15   5   9   24.61    4.66
  15  -5   9   32.47    5.61
  15  -5   9   33.69    5.77
  15   5   9   45.97    6.52
  15   5  10    6.23    3.12
  15  -5  10    7.79    2.22
  15   5  10   14.03    3.48
  15  -5  10   10.69    2.74
  15   5  11   -0.23    2.37
  15  -5  11    7.14    3.62
  15   5  11    2.90    2.20
  15  -5  11    4.35    1.82
  15   5  12    1.50    1.62
  15  -5  12    3.37    1.57
  15   5  12    3.17    2.39
  15  -5  12    4.57    2.18
  15   5  13    8.56    3.16
  15  -5  13   13.83    3.49
  15   5  13   14.96    3.94
  15  -5  13   10.47    4.47
  15  -5  14   -0.24    1.98
  15  -5  14    1.63    1.92
  15  -5  15    2.78    2.10
  15   5  15    3.14    2.23
  15  -5  15    7.72    3.92
  15  -5  16    1.98    2.16
  15   5  16    3.87    3.17
  15  -5  16    4.42    2.74
  15  -5  17    4.77    2.72
  15   5  17    8.12    2.93
  15  -5  17    4.77    2.18
  15  -6 -14   -0.35    1.39
  15  -6 -14    0.18    1.13
  15   6 -14    1.68    2.23
  15  -6 -13   -1.58    2.01
  15  -6 -13    3.80    3.64
  15   6 -13    0.80    2.08
  15  -6 -12    0.44    1.54
  15  -6 -12    2.00    1.47
  15   6 -12    0.66    1.03
  15   6 -11   -0.35    1.57
  15  -6 -11   -0.71    1.55
  15  -6 -11   -0.17    2.03
  15   6 -10    4.78    2.39
  15  -6 -10    1.89    2.69
  15  -6 -10    2.40    1.62
  15   6  -9    2.64    2.10
  15  -6  -9    2.72    1.95
  15  -6  -9    1.31    1.27
  15   6  -8   -0.19    1.06
  15  -6  -8   -1.15    1.91
  15   6  -7    2.78    2.43
  15  -6  -7   -1.14    2.04
  15  -6  -7    0.76    1.31
  15  -6  -6    3.18    1.28
  15  -6  -6    2.91    2.26
  15   6  -5    1.75    2.48
  15  -6  -5    0.15    1.12
  15  -6  -5    0.96    1.48
  15   6  -4   11.49    3.49
  15  -6  -4    4.76    2.01
  15  -6  -4    9.21    3.87
  15   6  -3   -0.67    1.71
  15  -6  -3    0.03    2.06
  15  -6  -3    0.39    2.87
  15   6  -2    3.12    2.04
  15  -6  -2    4.75    2.56
  15  -6  -2    2.61    2.37
  15   6  -1    8.96    2.65
  15  -6  -1    8.17    3.08
  15   6  -1    9.03    3.10
  15  -6  -1    6.56    2.95
  15   6   0   10.37    3.48
  15  -6   0   10.53    3.48
  15   6   0   11.01    3.55
  15  -6   0   12.53    3.66
  15   6   1    9.50    3.37
  15  -6   1   16.92    4.81
  15   6   1    7.93    2.50
  15  -6   1   13.88    4.16
  15   6   2    5.89    2.51
  15  -6   2    2.89    1.29
  15   6   2    1.43    1.87
  15  -6   2    7.32    2.58
  15   6   3    0.87    1.37
  15  -6   3    2.16    1.95
  15   6   3   -1.83    1.92
  15  -6   3   -0.61    2.79
  15   6   4    4.15    1.84
  15  -6   4    6.20    2.13
  15   6   4    7.35    2.49
  15  -6   4   12.85    4.38
  15   6   5   -0.24    1.23
  15  -6   5    1.24    1.62
  15   6   5    0.77    2.00
  15  -6   5    0.94    2.91
  15   6   6    3.04    1.18
  15  -6   6    3.01    1.93
  15   6   6    2.81    2.16
  15  -6   6    2.61    2.25
  15   6   7    2.60    1.72
  15  -6   7   -0.63    1.67
  15   6   7    2.61    1.48
  15  -6   7    1.50    1.63
  15   6   8    3.67    2.36
  15  -6   8    2.45    1.14
  15   6   8   -0.93    1.70
  15  -6   8    0.35    1.08
  15   6   9    0.62    1.38
  15  -6   9    2.14    2.16
  15   6   9    1.88    2.16
  15  -6   9    0.94    2.27
  15   6  10    2.43    1.75
  15  -6  10    0.36    1.82
  15   6  10    4.06    2.32
  15  -6  10    5.65    3.42
  15   6  11   -1.87    1.69
  15  -6  11   -0.89    1.32
  15   6  11    2.86    3.46
  15  -6  11    0.78    1.37
  15   6  12    3.18    2.20
  15  -6  12    5.50    2.08
  15   6  12    3.66    2.43
  15  -6  12    2.54    2.86
  15   6  13    1.13    1.92
  15  -6  13   -0.41    1.61
  15   6  13    1.22    2.45
  15  -6  13    2.05    2.84
  15  -6  14   -0.11    1.36
  15   6  14   -0.84    1.20
  15  -6  14   -1.72    2.82
  15  -7 -10    2.19    1.07
  15   7 -10    2.55    1.16
  15  -7 -10    2.25    2.06
  15   7  -9    7.47    2.45
  15  -7  -9   11.14    4.18
  15  -7  -9    7.33    2.17
  15   7  -8    0.77    1.08
  15  -7  -8    0.48    1.13
  15  -7  -8   -0.43    2.03
  15   7  -7    8.19    2.93
  15  -7  -7    2.72    2.74
  15  -7  -7    6.28    3.36
  15   7  -6    1.03    1.42
  15  -7  -6    2.60    2.73
  15  -7  -6   -0.16    1.76
  15   7  -5    0.53    1.33
  15  -7  -5    3.63    2.54
  15  -7  -5    2.83    1.39
  15   7  -4    3.22    2.78
  15  -7  -4    3.44    2.45
  15  -7  -4    4.10    1.67
  15   7  -3   10.53    3.04
  15  -7  -3   13.85    3.61
  15  -7  -3   10.90    3.79
  15  -7  -2    0.84    1.10
  15  -7  -2   -0.19    1.89
  15   7  -1    4.39    2.41
  15  -7  -1    8.90    3.25
  15   7   0    7.48    4.02
  15  -7   0    3.95    2.66
  15   7   0    6.46    2.51
  15  -7   0    5.82    2.71
  15   7   1   11.79    3.90
  15  -7   1    8.92    2.73
  15   7   1   11.54    3.84
  15  -7   1    8.22    2.92
  15   7   2    1.92    1.79
  15  -7   2    3.74    1.53
  15   7   2   -0.29    1.66
  15  -7   2    0.69    1.48
  15   7   3    7.11    3.00
  15  -7   3    8.91    3.37
  15   7   3    7.27    2.46
  15  -7   3    9.73    3.58
  15   7   4    3.74    2.48
  15  -7   4   -0.95    2.41
  15  -7   4    2.94    2.65
  15   7   5    1.36    1.34
  15  -7   5    2.19    1.33
  15   7   5    0.22    0.86
  15  -7   5   -0.26    2.79
  15   7   6    2.33    1.37
  15  -7   6    1.27    1.98
  15   7   6    1.64    1.84
  15  -7   6    0.02    1.54
  15   7   7    3.57    2.41
  15  -7   7    7.48    3.60
  15   7   7    3.26    2.59
  15  -7   7    2.38    3.39
  15   7   8    1.87    2.28
  15  -7   8   -1.45    2.30
  15   7   8    0.21    1.72
  15  -7   8    2.22    2.36
  15   7   9   12.52    4.19
  15  -7   9    5.62    2.92
  15   7   9    3.30    2.57
  15  -7   9    7.92    3.41
  15   7  10    1.62    2.02
  15   7  10    2.00    1.17
  15  -7  10   -0.69    1.94
  15  -8  -3   -0.15    1.62
  15   8  -3    1.15    2.10
  15  -8  -3   -0.49    1.18
  15   8  -2    5.42    2.28
  15  -8  -2    2.78    2.38
  15  -8  -2    7.08    3.20
  15   8  -1    1.85    2.08
  15  -8  -1    3.35    2.49
  15  -8  -1   -0.91    2.81
  15   8   0   -1.95    2.15
  15  -8   0    6.06    3.61
  15  -8   0    6.80    3.15
  15   8   1    1.59    1.75
  15  -8   1    1.18    2.31
  15  -8   1    1.02    3.00
  15   8   2    3.55    2.68
  15  -8   2    0.81    1.89
  15   8   2    1.53    1.53
  15  -8   2    0.29    2.28
  15   8   3    0.58    1.39
  15  -8   3    2.56    2.22
  15   8   3   -1.15    1.89
  15  -8   3    3.49    4.32
  16   0 -18    7.84    2.26
  16   0 -17   28.00    5.46
  16   0 -16    5.02    2.10
  16   0 -15    0.36    1.68
  16   0 -14    0.44    1.79
  16   0 -13   56.86    8.03
  16   0 -12   11.03    3.75
  16   0 -11    9.64    3.52
  16   0 -10   10.98    4.19
  16   0  -9    8.76    3.53
  16   0  -9    7.30    2.54
  16   0  -8    8.13    3.13
  16   0  -8   14.28    3.81
  16   0  -7   55.81    7.46
  16   0  -7   59.64    7.60
  16   0  -6    6.59    2.73
  16   0  -6   11.72    3.03
  16   0  -5    3.99    2.62
  16   0  -5    2.64    2.48
  16   0  -4   18.81    4.29
  16   0  -4   19.69    4.53
  16   0  -3   40.75    5.92
  16   0  -3   39.33    6.03
  16   0  -2   71.24    7.94
  16   0  -2   53.29    6.84
  16   0  -1   10.24    3.53
  16   0  -1   16.29    4.10
  16   0   0    2.23    2.14
  16   0   0    5.06    2.50
  16   0   1    7.41    2.06
  16   0   1   11.13    3.20
  16   0   2   73.84    7.92
  16   0   2   60.68    7.34
  16   0   3   33.21    5.64
  16   0   3   34.92    5.35
  16   0   4   15.67    4.01
  16   0   4   17.15    4.36
  16   0   5    0.67    1.38
  16   0   5    5.56    2.96
  16   0   6    6.41    2.55
  16   0   6    3.00    2.02
  16   0   7   44.72    6.63
  16   0   8   14.42    3.99
  16   0   9    6.75    2.22
  16   0  10    8.10    2.82
  16   0  11    6.62    2.52
  16   0  12    7.09    2.65
  16   0  13   63.08    8.04
  16   0  14    3.95    2.22
  16   0  15    6.18    3.15
  16   0  16   17.62    4.53
  16   0  17   26.18    5.43
  16   0  18   14.50    4.19
  16   0  19   16.77    4.46
  16  -1 -19    2.80    2.12
  16  -1 -18   -2.52    1.48
  16  -1 -17    0.27    1.16
  16  -1 -16   -1.10    1.24
  16  -1 -15    0.75    2.28
  16   1 -14   -6.80    2.57
  16  -1 -14   12.30    3.94
  16   1 -13    1.62    1.66
  16  -1 -13   -0.17    1.82
  16   1 -12    0.80    1.66
  16  -1 -12    1.17    1.06
  16  -1 -11   -0.36    1.82
  16   1 -11   -0.77    2.52
  16  -1 -10    0.12    1.35
  16  -1 -10   -0.03    0.94
  16   1 -10    0.71    1.46
  16  -1  -9    1.10    1.92
  16  -1  -9    0.58    1.39
  16   1  -9    2.25    2.50
  16  -1  -8   -0.02    1.51
  16   1  -8    0.88    1.40
  16  -1  -8   -1.27    1.10
  16   1  -8    1.80    1.17
  16  -1  -7    0.58    1.82
  16   1  -7    0.10    0.91
  16  -1  -7    1.91    2.55
  16   1  -7   -0.03    3.06
  16  -1  -6    2.45    2.56
  16   1  -6    2.35    1.96
  16  -1  -6    3.85    2.86
  16   1  -6    2.52    1.09
  16   1  -6    3.37    2.45
  16  -1  -5    5.73    1.91
  16   1  -5    5.38    2.82
  16  -1  -5    5.11    3.28
  16   1  -5    8.18    2.90
  16   1  -5   14.36    3.27
  16  -1  -4    1.63    1.59
  16   1  -4   -0.28    0.98
  16  -1  -4    0.42    1.92
  16   1  -4    0.93    1.44
  16   1  -4   -0.88    1.12
  16  -1  -3    9.49    2.90
  16   1  -3   11.53    3.47
  16  -1  -3   10.93    3.68
  16   1  -3   15.45    3.93
  16   1  -3   14.31    4.19
  16  -1  -2    0.22    1.91
  16   1  -2   -1.33    1.64
  16  -1  -2    0.29    1.95
  16   1  -2   -0.49    1.65
  16   1  -2    2.91    1.72
  16  -1  -1    0.98    1.26
  16   1  -1    1.53    0.88
  16  -1  -1   -0.06    2.25
  16   1  -1    3.67    2.68
  16  -1   0    1.55    1.50
  16  -1   0    2.65    1.65
  16   1   0    3.63    1.81
  16   1   0    2.49    1.57
  16   1   0    3.62    2.16
  16  -1   1    6.19    1.95
  16  -1   1    1.75    1.23
  16   1   1    4.12    1.91
  16   1   1    3.89    1.97
  16   1   1    2.50    1.27
  16  -1   2    3.40    2.30
  16  -1   2    1.84    1.79
  16   1   2    0.06    1.42
  16   1   2    0.41    0.86
  16   1   2   -0.23    1.48
  16  -1   3    9.11    3.19
  16  -1   3   10.60    3.53
  16   1   3    7.95    2.97
  16   1   3   12.56    3.42
  16   1   3    9.85    2.54
  16  -1   4   -1.28    2.28
  16  -1   4   -0.59    1.74
  16   1   4    0.96    1.49
  16   1   4   -0.70    1.06
  16   1   4    2.43    2.37
  16  -1   5    7.52    3.03
  16  -1   5    9.42    3.10
  16   1   5    7.71    3.07
  16   1   5    6.46    1.75
  16   1   5    8.35    2.67
  16  -1   6    4.69    2.15
  16  -1   6    0.84    2.10
  16   1   6    1.84    1.41
  16   1   6    1.89    2.13
  16  -1   7    0.78    2.34
  16  -1   7    1.47    1.85
  16   1   7    0.32    1.97
  16   1   7   -0.55    1.27
  16  -1   8    1.81    1.96
  16  -1   8    1.25    2.80
  16   1   8    1.62    2.26
  16   1   8    0.53    1.47
  16  -1   9    4.48    2.57
  16   1   9    1.11    2.87
  16   1   9    5.33    2.12
  16   1  10    0.31    1.02
  16  -1  10    1.43    1.20
  16   1  10   -0.91    1.21
  16   1  11   -0.29    1.96
  16  -1  11    0.08    1.96
  16   1  12    0.14    1.41
  16  -1  12   -0.86    2.21
  16   1  13    2.11    2.20
  16  -1  13    1.24    1.80
  16   1  14    7.98    3.07
  16  -1  14   13.92    3.91
  16   1  15    1.22    2.60
  16  -1  15   -0.29    1.28
  16   1  16    1.84    2.75
  16  -1  16    1.10    1.79
  16   1  17    1.78    2.09
  16  -1  17    4.23    2.63
  16   1  18   -0.95    1.67
  16  -1  18    1.58    1.46
  16   1  19   -0.68    2.29
  16  -1  19    0.66    2.40
  16  -2 -19    8.66    3.60
  16  -2 -18    5.38    3.57
  16  -2 -17   27.29    5.62
  16  -2 -16    2.85    2.54
  16  -2 -15    0.65    1.09
  16  -2 -14    3.25    3.01
  16  -2 -13   39.94    6.50
  16  -2 -12    3.15    3.07
  16  -2 -12   10.00    3.27
  16   2 -12    5.61    3.10
  16  -2 -11    7.55    3.56
  16  -2 -11   11.91    3.85
  16   2 -11   10.71    3.29
  16  -2 -10   -1.02    2.27
  16  -2 -10    2.33    2.71
  16   2 -10    2.39    1.56
  16  -2  -9    3.67    1.55
  16  -2  -9    7.09    2.70
  16   2  -9    6.44    2.46
  16  -2  -8    2.73    1.30
  16  -2  -8    0.80    1.92
  16   2  -8    4.27    2.90
  16   2  -8    5.13    1.98
  16  -2  -7   25.20    4.79
  16  -2  -7   27.87    5.38
  16   2  -7   31.54    5.39
  16   2  -7   24.23    4.74
  16  -2  -6    5.41    1.97
  16   2  -6    2.86    1.27
  16  -2  -6    6.06    2.74
  16   2  -6    1.46    1.94
  16   2  -6    3.16    2.44
  16  -2  -5    2.96    2.11
  16  -2  -5    6.59    2.08
  16   2  -5    1.61    1.00
  16   2  -5    1.09    1.58
  16   2  -5    4.60    2.34
  16  -2  -4    2.59    1.28
  16  -2  -4    1.40    1.84
  16   2  -4    1.21    1.31
  16   2  -4    4.32    1.79
  16   2  -4    5.34    2.42
  16  -2  -3   34.88    5.78
  16   2  -3   33.50    5.31
  16  -2  -3   40.72    6.26
  16   2  -3   41.09    6.31
  16   2  -3   22.20    4.13
  16  -2  -2    4.12    2.14
  16  -2  -2    5.79    2.40
  16   2  -2    4.44    1.88
  16   2  -2    0.90    1.16
  16   2  -2    2.15    1.88
  16  -2  -1    3.03    2.25
  16  -2  -1    3.71    2.33
  16   2  -1    2.66    1.71
  16   2  -1    1.46    1.93
  16   2  -1    3.56    1.81
  16  -2   0    2.43    2.03
  16  -2   0    0.38    1.42
  16   2   0    1.41    1.59
  16   2   0   -0.42    1.45
  16   2   0    2.88    1.88
  16  -2   1    1.64    1.44
  16  -2   1    4.33    2.43
  16   2   1    4.87    2.49
  16   2   1    2.13    1.71
  16   2   1    2.95    1.97
  16  -2   2    4.39    2.20
  16  -2   2    5.39    2.18
  16   2   2    4.76    3.16
  16   2   2    1.38    1.33
  16   2   2    5.42    2.63
  16  -2   3   35.87    5.74
  16   2   3   38.28    5.69
  16  -2   3   37.29    5.79
  16   2   3   39.39    6.07
  16   2   3   39.35    5.93
  16   2   4    5.11    3.06
  16  -2   4    2.54    2.02
  16   2   4    4.08    2.82
  16   2   4    0.98    1.22
  16   2   5    1.76    1.30
  16  -2   5    0.31    1.49
  16   2   5   -0.17    1.84
  16   2   6    1.99    1.14
  16  -2   6    8.24    3.25
  16  -2   6    4.72    3.25
  16   2   6    2.31    1.47
  16   2   7   25.17    5.17
  16  -2   7   23.31    5.05
  16  -2   7   30.80    5.07
  16   2   7   36.89    5.52
  16   2   8    9.54    3.32
  16  -2   8    4.34    2.19
  16  -2   8    7.24    3.49
  16   2   8    0.70    1.63
  16   2   9    4.57    2.80
  16  -2   9    4.05    2.64
  16  -2   9    4.82    1.86
  16   2   9    3.26    1.14
  16   2  10    5.34    2.86
  16  -2  10    4.15    2.31
  16  -2  10    0.55    1.25
  16   2  10    4.40    2.43
  16   2  11    5.13    2.34
  16  -2  11    9.17    3.17
  16   2  11   10.46    3.32
  16   2  12    8.09    2.99
  16  -2  12   13.88    3.90
  16   2  13   39.98    6.36
  16  -2  13   19.26    4.12
  16   2  14    1.94    1.75
  16  -2  14    3.50    1.95
  16   2  15   -0.05    2.40
  16  -2  15   -1.64    2.67
  16   2  16   -0.27    1.34
  16  -2  16    0.01    1.88
  16   2  17   21.78    5.07
  16  -2  17   21.36    4.93
  16   2  18    6.23    3.38
  16  -2  18    9.74    3.97
  16   2  19   -1.74    1.74
  16  -2  19    1.62    2.41
  16  -3 -18    0.10    2.12
  16  -3 -17   -1.98    1.27
  16  -3 -16    2.38    2.27
  16   3 -16    3.00    2.14
  16  -3 -15   -0.23    1.30
  16   3 -15    1.71    2.56
  16  -3 -14    1.80    2.35
  16   3 -14   -2.88    2.60
  16  -3 -13    0.04    1.44
  16   3 -13    0.89    2.28
  16  -3 -12    0.30    1.66
  16  -3 -12    0.87    1.54
  16   3 -12   -1.23    2.00
  16  -3 -11    6.76    3.15
  16  -3 -11    0.90    1.57
  16   3 -11    3.60    2.79
  16  -3 -10   -0.59    1.82
  16  -3 -10    3.14    2.62
  16   3 -10   -0.19    1.71
  16  -3  -9    2.73    1.84
  16  -3  -9    1.04    1.50
  16   3  -9    3.03    1.52
  16  -3  -8    1.61    1.66
  16  -3  -8    0.14    1.18
  16   3  -8    3.34    2.04
  16  -3  -7    0.74    1.46
  16  -3  -7    1.74    0.87
  16   3  -7    2.14    2.03
  16  -3  -6    0.27    1.99
  16  -3  -6    0.71    1.72
  16   3  -6   -1.95    2.04
  16  -3  -5    3.14    2.07
  16  -3  -5    1.62    1.84
  16   3  -5    2.02    2.20
  16   3  -5   -0.63    1.70
  16  -3  -4    1.28    2.45
  16  -3  -4    1.62    1.22
  16   3  -4    0.17    1.52
  16   3  -4   -2.99    2.27
  16  -3  -3    0.12    1.20
  16  -3  -3   -0.68    2.25
  16   3  -3   -3.41    1.77
  16   3  -3    1.23    2.50
  16   3  -3    0.78    1.93
  16  -3  -2   -0.35    1.79
  16  -3  -2   -0.62    1.78
  16   3  -2    0.09    1.75
  16   3  -2   -0.41    0.84
  16   3  -2    0.95    2.24
  16   3  -1    1.25    1.96
  16  -3  -1   -0.24    1.89
  16  -3  -1    3.24    2.17
  16   3  -1    1.75    1.00
  16   3  -1    1.18    1.96
  16   3   0   -1.34    1.89
  16  -3   0    0.19    1.34
  16  -3   0    1.66    2.53
  16   3   0   -1.30    1.65
  16   3   0   -0.65    1.14
  16   3   1    3.07    2.14
  16  -3   1    1.35    1.40
  16  -3   1    0.63    1.31
  16   3   1    1.32    1.80
  16   3   1   -0.76    1.24
  16   3   2   -1.52    0.94
  16  -3   2    0.59    1.15
  16  -3   2    1.52    2.25
  16   3   2   -1.16    0.96
  16   3   2    2.83    1.87
  16   3   3    4.00    2.66
  16  -3   3    0.15    0.81
  16  -3   3   -1.40    2.30
  16   3   3   -0.63    0.99
  16   3   3    2.53    1.15
  16   3   4   -1.15    1.08
  16  -3   4    0.62    1.37
  16  -3   4    0.06    2.28
  16   3   4    3.46    2.31
  16   3   4   -0.77    1.02
  16   3   5    0.70    1.89
  16  -3   5    3.18    2.30
  16  -3   5    5.06    2.91
  16   3   5    2.42    1.98
  16   3   6    0.31    0.83
  16  -3   6    2.39    1.79
  16  -3   6   -0.23    1.58
  16   3   6    0.29    1.50
  16   3   7    0.38    1.70
  16  -3   7    0.23    1.33
  16  -3   7    4.38    3.58
  16   3   7    6.37    3.18
  16   3   8    2.03    1.95
  16  -3   8   -0.09    1.80
  16  -3   8    1.13    1.19
  16   3   8    1.95    2.43
  16   3   9    2.44    2.45
  16  -3   9    0.02    1.95
  16  -3   9    1.55    1.44
  16   3   9    2.05    1.07
  16   3  10    1.42    3.04
  16  -3  10    0.26    1.89
  16  -3  10    1.53    2.25
  16   3  10   -0.56    1.26
  16   3  11    1.85    1.10
  16  -3  11    6.62    2.25
  16  -3  11    5.60    2.50
  16   3  11   -0.89    1.87
  16   3  12    2.57    2.34
  16  -3  12    0.40    1.13
  16  -3  12    0.04    1.59
  16   3  13   -1.28    1.75
  16  -3  13    2.56    2.12
  16  -3  13    1.33    2.32
  16   3  14   -0.40    1.42
  16  -3  14    1.65    2.02
  16   3  15   -0.40    1.13
  16  -3  15    0.03    1.64
  16   3  16    0.67    2.00
  16  -3  16   -1.78    1.90
  16   3  17   -0.19    1.48
  16  -3  17   -2.53    2.87
  16   3  18    1.57    2.36
  16  -3  18    1.20    1.67
  16  -4 -16    4.99    1.88
  16   4 -16    7.74    3.04
  16  -4 -15    1.33    1.99
  16   4 -15    2.66    1.38
  16  -4 -14    6.32    4.21
  16  -4 -14    5.04    1.89
  16   4 -14    7.60    3.00
  16  -4 -13   27.09    5.26
  16  -4 -13   25.04    4.93
  16   4 -13   30.14    5.49
  16  -4 -12   10.33    3.32
  16  -4 -12   14.03    4.68
  16   4 -12   11.78    3.36
  16  -4 -11    6.92    3.70
  16  -4 -11    3.90    1.95
  16   4 -11    6.07    2.81
  16  -4 -10    0.87    1.88
  16  -4 -10    8.27    3.49
  16   4 -10    6.58    2.93
  16  -4  -9   15.11    3.50
  16  -4  -9   15.32    3.68
  16   4  -9   14.97    4.23
  16  -4  -8    1.69    1.56
  16   4  -8   -2.36    1.61
  16  -4  -7   21.39    4.70
  16  -4  -7   15.84    4.47
  16   4  -7   17.39    3.81
  16  -4  -6    2.66    2.85
  16  -4  -6    2.57    1.92
  16   4  -6    0.96    1.14
  16  -4  -5    6.86    2.76
  16  -4  -5   10.59    3.41
  16   4  -5    6.95    2.30
  16  -4  -4    5.20    2.64
  16  -4  -4    1.63    1.14
  16   4  -4    6.09    2.84
  16   4  -4    5.06    2.94
  16  -4  -3   26.06    5.34
  16   4  -3   36.96    5.88
  16  -4  -3   28.87    5.16
  16   4  -3   31.96    5.17
  16   4  -2    3.17    1.28
  16  -4  -2    5.71    2.47
  16  -4  -2    6.22    2.18
  16   4  -2    0.21    1.48
  16   4  -1    8.05    3.06
  16   4  -1    6.29    2.49
  16  -4  -1    8.15    2.66
  16  -4  -1    8.98    3.31
  16   4   0   -0.38    1.29
  16   4   0   -0.15    1.44
  16  -4   0    2.05    2.77
  16  -4   0    1.87    2.20
  16   4   1    7.24    2.85
  16   4   1    7.93    3.32
  16  -4   1    8.60    2.87
  16  -4   1    5.28    2.11
  16   4   2    7.28    2.03
  16   4   2    6.33    2.48
  16  -4   2    5.60    2.22
  16  -4   2    6.11    2.16
  16   4   3   30.78    5.24
  16  -4   3   36.93    5.67
  16  -4   3   41.62    6.22
  16   4   3   41.72    6.19
  16   4   4    4.33    2.19
  16   4   4    1.55    1.60
  16  -4   4    5.56    2.71
  16  -4   4    4.17    2.73
  16   4   5    6.50    2.34
  16   4   5    7.97    2.70
  16  -4   5    6.89    2.85
  16  -4   5   12.06    3.40
  16   4   6   -0.09    1.13
  16  -4   6    1.27    1.24
  16  -4   6   -0.84    1.05
  16   4   7   22.43    4.63
  16   4   7    7.52    2.64
  16  -4   7   16.31    4.47
  16  -4   7   15.54    3.83
  16   4   8    1.19    1.30
  16   4   8   -1.25    1.29
  16  -4   8    2.04    1.28
  16  -4   8    1.44    2.09
  16   4   9   11.04    3.50
  16   4   9   18.42    4.49
  16  -4   9   15.73    4.33
  16  -4   9   10.40    3.11
  16   4  10    5.86    3.04
  16   4  10    6.51    3.04
  16  -4  10    5.10    3.06
  16  -4  10    7.41    2.79
  16   4  11    5.20    3.36
  16   4  11    9.12    2.78
  16  -4  11    5.30    2.35
  16  -4  11    1.74    1.28
  16   4  12    3.96    2.78
  16   4  12   11.38    3.21
  16  -4  12    6.15    3.19
  16  -4  12    4.11    2.80
  16  -4  13   39.49    6.78
  16   4  13   25.14    5.38
  16  -4  13   23.57    5.74
  16   4  14    5.12    1.62
  16  -4  14    4.14    1.45
  16   4  15   -0.01    2.03
  16  -4  15    4.77    2.96
  16  -4  15    0.32    1.75
  16   4  16    3.85    2.79
  16  -4  16    7.85    3.63
  16  -4  16    5.14    3.25
  16  -5 -14    7.56    3.37
  16  -5 -14    6.74    2.89
  16   5 -14    0.10    0.94
  16  -5 -13    0.05    1.74
  16  -5 -13    0.55    2.08
  16   5 -13    0.65    2.02
  16  -5 -12    0.10    2.23
  16  -5 -12    3.23    2.81
  16   5 -12    3.72    1.80
  16  -5 -11    3.35    1.83
  16  -5 -11    7.51    3.08
  16   5 -11    1.94    2.03
  16  -5 -10    6.74    2.89
  16  -5 -10    5.97    2.25
  16   5 -10    7.60    3.08
  16  -5  -9    3.60    1.97
  16  -5  -9    0.76    2.23
  16   5  -9    3.56    2.45
  16  -5  -8    1.03    1.00
  16  -5  -8    1.01    1.34
  16   5  -8    2.90    1.70
  16  -5  -7    0.76    1.75
  16  -5  -7    0.27    1.39
  16   5  -7   -1.13    0.92
  16   5  -6   -0.68    1.45
  16  -5  -6   -0.10    1.63
  16  -5  -6    2.14    2.33
  16   5  -5    8.11    3.01
  16  -5  -5    8.55    3.75
  16  -5  -5    6.77    3.60
  16   5  -4    2.79    1.30
  16  -5  -4    7.27    2.33
  16  -5  -4    1.83    2.60
  16  -5  -3    2.76    1.83
  16  -5  -3    0.15    1.36
  16   5  -2    0.81    1.27
  16   5  -2   -1.39    1.90
  16  -5  -2   -1.04    1.23
  16  -5  -2    0.05    1.79
  16   5  -1    2.22    0.99
  16   5  -1    1.94    2.03
  16  -5  -1    5.54    2.82
  16  -5  -1    0.91    2.06
  16   5   0    1.55    2.23
  16   5   0    1.60    1.00
  16  -5   0    2.40    2.43
  16  -5   0   -1.96    1.25
  16   5   1    8.15    2.59
  16   5   1    3.89    2.37
  16  -5   1    6.68    3.16
  16  -5   1   12.26    3.70
  16   5   2   -1.93    1.78
  16   5   2    0.92    1.29
  16  -5   2    1.53    1.73
  16  -5   2    2.54    2.47
  16   5   3   -0.58    1.31
  16   5   3    6.36    2.66
  16  -5   3    2.24    1.99
  16  -5   3    0.71    2.05
  16   5   4    6.95    2.76
  16   5   4    2.86    1.91
  16  -5   4    1.47    1.30
  16  -5   4    1.78    1.51
  16   5   5    8.09    2.92
  16   5   5    9.15    2.83
  16  -5   5    7.88    3.47
  16  -5   5    1.36    2.04
  16   5   6    3.08    2.53
  16   5   6    0.49    1.55
  16  -5   6   -1.12    1.78
  16  -5   6   -0.63    1.20
  16   5   7    1.86    2.14
  16  -5   7   -0.96    2.13
  16   5   7   -0.34    1.89
  16  -5   7   -2.00    1.98
  16   5   8   -0.40    1.59
  16  -5   8    0.39    1.62
  16   5   8   -0.34    1.13
  16  -5   8    3.85    1.28
  16   5   9   -0.90    1.35
  16  -5   9   -0.60    1.77
  16   5   9    0.64    1.99
  16  -5   9    2.43    2.24
  16   5  10   -0.83    1.26
  16  -5  10    3.96    1.69
  16   5  10    4.83    2.67
  16  -5  10    3.71    2.68
  16   5  11    3.26    2.54
  16  -5  11    1.75    1.56
  16   5  11    3.20    2.59
  16  -5  11    3.15    2.39
  16   5  12    0.95    1.98
  16  -5  12    2.49    1.73
  16   5  12    4.62    2.21
  16  -5  12    1.37    1.76
  16  -5  13    2.14    2.75
  16   5  13    0.28    0.97
  16  -5  13    5.23    4.12
  16   5  14    3.60    2.52
  16  -5  14    5.31    3.49
  16  -5  14   12.94    3.77
  16  -6 -11    5.91    2.92
  16  -6 -11    4.60    2.38
  16   6 -11    4.37    2.23
  16  -6 -10    0.75    1.69
  16  -6 -10    6.20    3.35
  16   6 -10    3.88    2.61
  16   6  -9   11.99    4.09
  16  -6  -9   10.89    3.41
  16  -6  -9   11.20    4.17
  16   6  -8   -1.44    1.33
  16  -6  -8    0.47    1.73
  16  -6  -8    2.71    1.87
  16   6  -7   14.71    3.68
  16  -6  -7   17.51    4.85
  16  -6  -7    6.82    2.90
  16   6  -6    2.73    0.96
  16  -6  -6    2.52    1.48
  16   6  -5    2.08    1.86
  16  -6  -5   -0.39    1.12
  16  -6  -5    2.54    2.39
  16   6  -4    0.96    1.25
  16  -6  -4    0.54    1.81
  16  -6  -4    5.33    1.47
  16   6  -3   19.70    5.01
  16  -6  -3    7.64    2.81
  16  -6  -3   22.08    4.99
  16   6  -2   20.69    4.08
  16  -6  -2    9.65    3.07
  16  -6  -2   21.12    4.47
  16   6  -1   14.32    4.16
  16  -6  -1   16.54    4.49
  16   6  -1   21.26    5.39
  16  -6  -1   15.13    3.78
  16   6   0    4.35    2.76
  16  -6   0    3.92    2.99
  16   6   0    2.25    1.67
  16  -6   0    3.65    2.44
  16   6   1   13.23    3.25
  16  -6   1    9.06    3.27
  16   6   1   11.16    3.91
  16  -6   1   14.17    4.03
  16   6   2   13.85    3.72
  16  -6   2   17.96    4.39
  16   6   2   15.53    3.74
  16  -6   2   16.47    4.44
  16   6   3   13.64    3.72
  16  -6   3   13.03    4.41
  16   6   3   11.70    3.28
  16  -6   3   25.49    5.21
  16   6   4    0.07    2.26
  16  -6   4   -0.07    1.05
  16   6   4    5.41    2.60
  16  -6   4    2.08    2.02
  16   6   5    1.01    1.19
  16  -6   5    2.04    2.35
  16   6   5    0.64    1.87
  16  -6   5   -0.82    2.18
  16   6   6    1.60    1.30
  16  -6   6    6.01    3.51
  16   6   6    1.67    2.07
  16  -6   6    0.75    2.00
  16   6   7    5.17    1.62
  16  -6   7   10.23    3.61
  16   6   7   15.54    4.15
  16  -6   7   16.37    4.57
  16   6   8   -2.57    3.06
  16  -6   8    4.85    3.77
  16   6   8    1.44    1.77
  16  -6   8    4.11    3.34
  16   6   9    5.22    2.38
  16  -6   9    9.49    3.87
  16   6   9   20.05    4.57
  16  -6   9   16.70    4.58
  16   6  10    2.11    2.36
  16  -6  10   -0.58    1.55
  16   6  10    6.16    2.46
  16  -6  10    4.84    2.31
  16   6  11    0.66    2.19
  16  -6  11    3.67    2.86
  16   6  11    7.57    3.29
  16  -6  11    4.08    3.29
  16   7  -6    2.20    2.17
  16  -7  -6    1.72    2.31
  16  -7  -6    2.09    1.54
  16   7  -5    8.51    3.29
  16  -7  -5    6.23    2.12
  16   7  -4   -0.02    1.29
  16  -7  -4   -0.15    0.84
  16  -7  -4    0.33    1.90
  16   7  -3    2.43    2.31
  16  -7  -3    2.26    1.73
  16   7  -2   -2.54    2.00
  16  -7  -2    0.93    1.72
  16  -7  -2   -0.40    1.54
  16   7  -1   -0.85    1.87
  16  -7  -1   -0.45    2.28
  16  -7  -1   -0.56    1.52
  16   7   0    0.90    1.27
  16  -7   0    2.85    2.21
  16  -7   0    2.89    2.55
  16   7   1    2.05    2.01
  16  -7   1    0.95    2.27
  16   7   1    3.47    2.56
  16  -7   1   -0.06    1.85
  16   7   2    1.53    2.32
  16  -7   2    1.46    1.14
  16   7   2    2.25    1.88
  16  -7   2    0.02    1.42
  16   7   3    2.49    1.96
  16  -7   3    7.29    2.61
  16   7   3    1.26    1.82
  16  -7   3    4.20    2.39
  16   7   4    0.30    2.40
  16  -7   4    0.22    1.24
  16   7   4   -1.23    2.37
  16  -7   4    4.58    2.21
  16   7   5    7.50    2.89
  16  -7   5    2.08    1.78
  16   7   5    9.31    3.37
  16  -7   5   11.53    4.48
  16   7   6    1.15    1.25
  16  -7   6    1.94    2.74
  16   7   6    5.99    3.37
  16  -7   6    4.39    2.10
  17   0 -17   10.41    4.86
  17   0 -16   -0.41    1.58
  17   0 -15   -2.11    2.48
  17   0 -14    0.67    1.20
  17   0 -13   -0.80    1.43
  17   0 -12    2.25    2.46
  17   0 -11   -3.06    2.04
  17   0 -10    2.44    2.82
  17   0  -9   -3.55    1.86
  17   0  -9    1.87    2.12
  17   0  -8   -1.23    1.05
  17   0  -8    2.44    1.94
  17   0  -7   -0.46    1.55
  17   0  -7   -0.51    2.20
  17   0  -6    0.22    1.89
  17   0  -6   -1.55    1.86
  17   0  -5   -0.99    1.69
  17   0  -5    0.62    1.37
  17   0  -4    0.64    1.07
  17   0  -4    0.25    1.80
  17   0  -3   -0.01    1.27
  17   0  -3    0.71    1.78
  17   0  -2    0.85    1.36
  17   0  -2    1.65    1.85
  17   0  -1    2.81    2.74
  17   0  -1    0.19    3.15
  17   0   0   -0.44    2.04
  17   0   0    1.49    2.32
  17   0   1    1.77    1.72
  17   0   1    0.41    2.04
  17   0   2    0.28    1.40
  17   0   2    0.77    1.60
  17   0   3   -0.12    1.08
  17   0   3   -1.07    1.16
  17   0   4   -0.91    1.49
  17   0   4    0.43    1.85
  17   0   5   -0.55    1.00
  17   0   5   -1.20    1.40
  17   0   6   -0.88    0.84
  17   0   6   -0.25    1.43
  17   0   7    2.44    0.97
  17   0   7    1.07    1.48
  17   0   8    0.47    1.34
  17   0   9   -0.82    1.21
  17   0  10    2.59    1.93
  17   0  11    2.16    1.96
  17   0  12    2.63    2.24
  17   0  13    1.28    2.17
  17   0  14   -0.77    1.78
  17   0  15    0.52    1.04
  17   0  16    0.56    2.13
  17   0  17    2.54    2.79
  17  -1 -17   18.13    3.76
  17  -1 -16   11.88    3.78
  17  -1 -15    4.05    2.67
  17  -1 -14    4.39    2.12
  17  -1 -13    1.79    2.14
  17   1 -12   18.99    5.48
  17  -1 -12   15.45    4.08
  17  -1 -11   17.31    4.24
  17   1 -11   14.99    3.90
  17  -1 -10   16.26    5.10
  17  -1 -10   14.96    3.75
  17   1 -10   11.22    3.90
  17  -1  -9    5.55    2.66
  17  -1  -9    4.08    2.98
  17   1  -9   13.30    4.02
  17  -1  -8   12.48    3.61
  17  -1  -8    4.69    2.66
  17   1  -8    6.47    2.90
  17  -1  -7    3.09    1.61
  17   1  -7    4.31    2.41
  17  -1  -7    1.87    1.83
  17   1  -7    2.33    2.53
  17  -1  -6    6.34    2.23
  17   1  -6    3.57    2.77
  17  -1  -6    3.64    2.36
  17   1  -6    6.18    2.22
  17  -1  -5   10.91    3.48
  17   1  -5    4.30    1.23
  17  -1  -5    8.33    3.41
  17   1  -5    4.20    2.10
  17  -1  -4   24.69    5.03
  17   1  -4   37.21    5.96
  17   1  -4   19.42    4.54
  17  -1  -4   21.40    4.46
  17   1  -4   29.46    5.58
  17  -1  -3   19.69    4.85
  17   1  -3   18.57    4.36
  17  -1  -3   24.07    5.19
  17   1  -3   23.52    4.63
  17   1  -3   16.95    3.80
  17  -1  -2   23.27    4.83
  17   1  -2   20.78    4.40
  17  -1  -2   20.44    4.72
  17   1  -2   19.28    4.56
  17   1  -2   11.89    2.97
  17  -1  -1    8.54    2.86
  17   1  -1    6.60    2.85
  17  -1  -1    5.01    2.73
  17   1  -1   13.58    3.73
  17   1  -1    5.41    2.11
  17  -1   0   31.69    5.53
  17   1   0   25.88    5.16
  17  -1   0   25.17    4.70
  17   1   0   26.26    5.00
  17   1   0   21.57    4.61
  17  -1   1   10.71    3.59
  17   1   1    5.65    2.36
  17  -1   1   13.05    3.59
  17   1   1    6.91    2.59
  17   1   1    2.44    1.64
  17  -1   2   24.61    4.99
  17  -1   2   17.76    4.21
  17   1   2   13.80    4.10
  17   1   2   23.12    4.26
  17   1   2   24.18    4.95
  17  -1   3   23.34    4.40
  17  -1   3   21.26    4.71
  17   1   3   13.18    3.27
  17   1   3   24.80    4.68
  17   1   3   23.22    5.05
  17  -1   4   29.23    5.34
  17  -1   4   21.56    4.71
  17   1   4   25.34    5.13
  17   1   4   30.56    5.11
  17   1   4   24.63    4.43
  17  -1   5    7.45    2.91
  17  -1   5    5.43    2.60
  17   1   5   11.98    4.01
  17   1   5    8.74    3.42
  17   1   5    7.54    2.82
  17  -1   6    4.84    2.45
  17  -1   6    8.30    2.41
  17   1   6    5.44    1.94
  17   1   6    8.31    2.85
  17   1   6    8.85    3.63
  17  -1   7    2.58    1.98
  17  -1   7    0.71    0.90
  17   1   7    0.88    2.04
  17   1   7    1.50    1.13
  17  -1   8    8.46    2.85
  17  -1   8    4.68    2.53
  17   1   8    6.99    2.79
  17   1   8    7.38    3.37
  17  -1   9    9.07    3.23
  17  -1   9   10.06    3.41
  17   1   9    5.77    3.35
  17   1   9    9.94    3.17
  17  -1  10    7.82    3.49
  17   1  10   10.76    3.30
  17   1  10    9.36    3.79
  17   1  11   23.89    5.20
  17  -1  11   18.76    4.33
  17  -1  12    8.83    2.80
  17   1  12    6.81    3.25
  17  -1  13    4.09    1.44
  17   1  13    1.53    2.02
  17  -1  14    3.41    2.22
  17   1  14    5.14    2.96
  17  -1  15    3.84    2.14
  17   1  15    7.75    3.23
  17  -1  16    5.50    3.18
  17   1  16    7.19    3.04
  17  -1  17   14.24    3.91
  17   1  17   18.13    4.74
  17  -2 -17    3.00    2.50
  17  -2 -16    2.48    1.84
  17  -2 -15   -0.30    1.52
  17  -2 -14    1.19    1.36
  17  -2 -13    3.41    2.70
  17  -2 -12   -0.74    2.04
  17  -2 -11    3.43    2.69
  17  -2 -11    0.80    1.13
  17  -2 -10    0.86    2.02
  17  -2 -10   -0.58    1.25
  17   2 -10    0.67    1.51
  17  -2  -9    7.03    3.66
  17  -2  -9    6.46    3.13
  17   2  -9    8.18    3.53
  17  -2  -8    7.70    2.79
  17  -2  -8    2.11    2.85
  17   2  -8    3.89    1.80
  17  -2  -7    2.28    1.96
  17  -2  -7    2.27    1.56
  17   2  -7    6.20    3.54
  17   2  -7    1.39    1.14
  17  -2  -6    6.04    2.44
  17   2  -6    2.38    2.00
  17  -2  -6    5.39    3.05
  17   2  -6    3.87    2.79
  17   2  -6    5.01    1.95
  17  -2  -5   -0.61    1.44
  17   2  -5    2.39    2.45
  17  -2  -5    3.77    2.48
  17   2  -5    1.98    2.52
  17   2  -5   -0.21    2.11
  17  -2  -4    3.75    2.25
  17   2  -4    1.76    1.10
  17  -2  -4    6.12    2.77
  17   2  -4    4.89    2.82
  17   2  -4    0.61    1.57
  17  -2  -3   -0.72    1.68
  17  -2  -3   -1.58    1.38
  17   2  -3   -0.74    1.57
  17   2  -3   -0.91    1.03
  17   2  -3    1.14    2.25
  17  -2  -2    0.14    1.71
  17  -2  -2    0.23    1.28
  17   2  -2    0.71    1.45
  17   2  -2    1.72    1.37
  17   2  -2   -2.31    2.18
  17  -2  -1    0.59    1.56
  17  -2  -1    2.24    2.41
  17   2  -1    0.69    1.04
  17   2  -1    2.61    2.22
  17   2  -1    0.01    1.03
  17  -2   0    0.04    1.70
  17  -2   0    0.31    2.39
  17   2   0   -0.37    2.21
  17   2   0    0.20    1.57
  17   2   0   -1.80    2.17
  17  -2   1    0.09    1.28
  17  -2   1   -0.44    1.97
  17   2   1    0.74    1.44
  17   2   1    0.36    1.70
  17   2   1   -2.09    2.27
  17  -2   2    1.25    1.73
  17  -2   2   -0.47    1.75
  17   2   2   -0.87    1.32
  17   2   2   -0.69    1.65
  17   2   2    1.90    2.59
  17  -2   3    0.58    1.42
  17  -2   3   -0.62    1.19
  17   2   3    0.58    1.52
  17   2   3    1.04    1.93
  17   2   3   -1.47    1.58
  17  -2   4    6.93    2.76
  17  -2   4    5.07    2.63
  17   2   4    5.84    2.61
  17   2   4    0.74    1.71
  17   2   4    6.80    2.60
  17  -2   5    2.18    1.46
  17  -2   5    0.04    1.21
  17   2   5    0.01    1.82
  17   2   5    2.46    1.66
  17   2   5    3.03    1.63
  17   2   6    0.56    1.44
  17  -2   6    7.21    3.06
  17  -2   6    7.64    3.27
  17   2   6    2.67    1.91
  17   2   7    1.32    1.81
  17  -2   7    2.53    2.04
  17  -2   7    4.37    2.08
  17   2   7    1.83    2.00
  17   2   8    2.67    1.85
  17  -2   8    6.58    2.55
  17  -2   8    2.25    2.35
  17   2   8    3.10    2.08
  17   2   9    4.61    2.39
  17  -2   9    7.53    3.04
  17  -2   9   10.25    3.32
  17   2   9    6.65    2.21
  17   2  10    3.66    2.65
  17  -2  10    2.01    1.76
  17  -2  10    2.54    2.03
  17   2  10    0.82    1.77
  17   2  11    1.72    2.36
  17  -2  11   -0.26    1.47
  17  -2  11   -1.38    1.24
  17   2  12    2.90    1.76
  17  -2  12   -0.40    1.62
  17   2  13    0.04    2.13
  17  -2  13    1.70    1.18
  17   2  14   -0.27    1.48
  17  -2  14   -0.16    2.37
  17   2  15   -0.55    1.74
  17  -2  15    3.27    2.05
  17   2  16    1.80    2.25
  17  -2  16   -1.21    2.48
  17   2  17    5.78    2.46
  17  -2  17    0.69    2.32
  17  -3 -16   -0.54    1.74
  17  -3 -15    9.78    3.58
  17  -3 -14    5.38    2.21
  17   3 -14    2.49    1.54
  17  -3 -13    6.80    2.91
  17   3 -13    4.62    2.72
  17  -3 -12    3.66    3.23
  17  -3 -12    0.46    2.55
  17   3 -12    0.01    1.54
  17  -3 -11    9.70    3.67
  17  -3 -11    3.60    1.92
  17   3 -11    8.23    2.77
  17  -3 -10    3.48    2.17
  17  -3 -10   13.56    3.83
  17   3 -10   14.66    3.71
  17  -3  -9    2.86    1.99
  17  -3  -9    3.64    1.92
  17   3  -9    6.76    2.33
  17  -3  -8    0.32    1.77
  17  -3  -8    2.75    2.84
  17   3  -8    1.00    1.59
  17  -3  -7    2.85    2.37
  17  -3  -7    4.70    2.98
  17   3  -7   10.21    3.10
  17  -3  -6   -0.26    1.89
  17  -3  -6    1.56    1.74
  17   3  -6    1.42    2.42
  17  -3  -5   18.97    3.95
  17  -3  -5   25.82    5.18
  17   3  -5   21.19    4.72
  17  -3  -4   11.87    3.51
  17  -3  -4   13.35    3.70
  17   3  -4   14.41    3.99
  17   3  -4   14.72    3.51
  17  -3  -3    2.31    1.34
  17  -3  -3    1.33    2.27
  17   3  -3   -0.07    1.64
  17   3  -3    4.08    1.40
  17  -3  -2   20.86    4.76
  17  -3  -2   13.34    3.25
  17   3  -2   11.96    3.35
  17   3  -2   16.56    4.55
  17  -3  -1   67.93    8.20
  17   3  -1   48.03    6.60
  17  -3  -1   62.07    7.73
  17   3  -1   54.43    7.66
  17   3  -1   58.24    7.50
  17  -3   0    0.77    1.53
  17  -3   0    0.87    2.33
  17   3   0    2.13    1.99
  17   3   0    2.47    2.17
  17   3   0    1.74    2.15
  17  -3   1   53.96    7.24
  17   3   1   41.31    6.15
  17  -3   1   45.40    6.75
  17   3   1   45.35    6.79
  17   3   1   35.28    5.54
  17   3   2   16.80    4.23
  17  -3   2   19.45    4.80
  17  -3   2   18.53    4.24
  17   3   2   12.45    3.38
  17   3   2   13.25    3.93
  17   3   3    4.65    2.36
  17  -3   3    5.83    2.47
  17  -3   3    4.70    2.10
  17   3   3   -0.81    1.91
  17   3   3    2.97    2.31
  17   3   4   13.59    3.38
  17  -3   4   11.90    3.71
  17  -3   4   11.08    3.40
  17   3   4   16.02    4.05
  17   3   4   10.90    3.28
  17   3   5   20.15    4.96
  17  -3   5   33.88    5.85
  17  -3   5   17.91    4.81
  17   3   5   23.91    5.37
  17   3   5   22.68    4.74
  17   3   6    1.73    2.02
  17  -3   6    0.04    1.53
  17  -3   6    2.17    2.81
  17   3   6   -1.85    1.41
  17   3   7    1.50    1.68
  17  -3   7    2.43    1.59
  17  -3   7    8.06    3.37
  17   3   7    7.46    2.04
  17   3   8    1.23    1.61
  17  -3   8   -0.21    1.66
  17  -3   8    4.45    3.13
  17   3   8    0.35    2.20
  17   3   9    1.93    1.31
  17  -3   9    4.99    3.00
  17  -3   9    4.71    1.70
  17   3   9    3.34    2.87
  17   3  10    8.02    2.88
  17  -3  10    5.69    2.90
  17  -3  10    5.62    2.89
  17   3  10   12.96    3.92
  17   3  11    5.96    2.82
  17  -3  11    6.11    2.69
  17  -3  11    6.43    3.40
  17   3  11    2.62    2.02
  17   3  12   -0.83    1.00
  17  -3  12   -1.18    2.08
  17  -3  12    0.82    1.15
  17   3  13   -0.35    1.66
  17  -3  13    6.66    2.54
  17  -3  13    7.29    4.08
  17   3  14    2.93    1.18
  17  -3  14    4.64    2.82
  17  -3  14    2.09    2.67
  17   3  15   16.50    4.20
  17  -3  15    3.07    1.88
  17  -3  15   11.56    4.31
  17   3  16    5.95    4.03
  17  -3  16    4.50    1.88
  17  -4 -14    6.25    3.34
  17   4 -14    1.12    2.11
  17  -4 -13   10.77    3.91
  17  -4 -13   12.96    4.35
  17   4 -13   10.68    3.46
  17  -4 -12    1.44    1.58
  17  -4 -12    2.87    2.44
  17   4 -12    1.95    1.57
  17  -4 -11    6.59    3.50
  17  -4 -11    3.01    2.07
  17   4 -11    6.74    2.60
  17  -4 -10    1.04    1.73
  17  -4 -10    0.49    1.87
  17   4 -10   -2.21    2.54
  17  -4  -9    2.36    1.84
  17  -4  -9    0.29    2.48
  17   4  -9   -0.41    1.63
  17  -4  -8    1.25    1.09
  17  -4  -8    3.51    2.95
  17   4  -8    2.78    2.28
  17  -4  -7    2.60    2.35
  17  -4  -7   -0.36    1.83
  17   4  -7    4.63    2.54
  17  -4  -6    7.49    3.11
  17  -4  -6    3.33    2.35
  17   4  -6    4.39    2.84
  17  -4  -5    4.28    2.81
  17  -4  -5    7.45    2.86
  17   4  -5   10.19    2.84
  17  -4  -4   -1.12    1.04
  17   4  -4    1.12    1.46
  17  -4  -3    2.36    2.21
  17  -4  -3    3.20    2.44
  17   4  -3    0.19    1.55
  17   4  -3    0.09    2.05
  17   4  -2   10.69    3.74
  17  -4  -2    3.14    2.75
  17  -4  -2    3.75    2.33
  17   4  -2    5.77    2.79
  17   4  -1    8.74    2.56
  17  -4  -1    9.65    2.74
  17  -4  -1    7.73    2.74
  17   4  -1    8.12    2.78
  17   4   0    4.86    2.74
  17  -4   0    4.89    3.00
  17  -4   0    3.42    2.76
  17   4   0    4.14    1.85
  17   4   1    9.05    3.07
  17  -4   1    5.33    3.04
  17  -4   1    7.73    3.20
  17   4   1   17.60    4.75
  17   4   2    5.34    2.77
  17  -4   2    2.82    1.74
  17  -4   2    4.10    1.99
  17   4   2    2.57    2.33
  17   4   3    1.69    1.54
  17  -4   3   -0.05    1.28
  17  -4   3    3.01    2.44
  17   4   3    1.18    1.55
  17   4   4    0.09    1.79
  17  -4   4   -0.13    1.91
  17  -4   4    3.82    3.04
  17   4   4    0.31    2.30
  17   4   5   10.82    3.43
  17  -4   5   11.48    3.25
  17  -4   5    9.12    3.35
  17   4   5    9.33    3.07
  17   4   6    8.62    3.46
  17  -4   6    4.80    3.71
  17  -4   6    6.38    2.70
  17   4   6    6.89    3.08
  17   4   7    2.24    2.78
  17  -4   7    3.11    2.08
  17  -4   7    1.28    1.14
  17   4   7    1.11    1.81
  17   4   8    2.52    1.82
  17  -4   8    0.18    1.20
  17  -4   8    0.79    2.26
  17   4   8    5.84    3.23
  17   4   9   -0.18    1.33
  17  -4   9    2.70    1.68
  17  -4   9    2.54    2.57
  17   4   9   -0.56    1.74
  17   4  10    3.53    1.66
  17  -4  10    0.45    1.81
  17  -4  10    1.54    1.44
  17   4  10    4.92    3.32
  17   4  11    0.56    1.38
  17  -4  11    2.91    1.79
  17  -4  11    5.95    3.05
  17   4  11    5.05    2.90
  17   4  12    1.90    1.37
  17  -4  12    3.96    2.73
  17  -4  12   -0.83    2.78
  17   4  13   10.34    3.12
  17  -4  13   14.04    3.89
  17  -4  13    8.53    2.92
  17   4  14    3.10    2.35
  17  -4  14    6.19    3.65
  17  -4  14    3.39    1.32
  17  -5 -11    2.14    2.30
  17  -5 -11    5.94    3.11
  17   5 -11    9.27    3.07
  17  -5 -10    9.65    3.48
  17  -5 -10   14.46    4.35
  17   5 -10   11.92    3.57
  17  -5  -9    2.32    1.66
  17  -5  -9    2.63    2.57
  17   5  -9    3.51    2.49
  17  -5  -8    2.84    2.07
  17  -5  -8    3.44    2.06
  17   5  -8   -0.63    2.39
  17  -5  -7   10.24    3.73
  17  -5  -7    5.46    2.33
  17   5  -7    9.21    2.68
  17  -5  -6   11.22    3.12
  17  -5  -6   19.14    4.99
  17   5  -6   19.56    4.50
  17  -5  -5    3.31    2.87
  17  -5  -5    6.16    2.34
  17   5  -5    3.49    2.04
  17  -5  -4    5.00    2.43
  17  -5  -4    3.71    1.29
  17   5  -4    0.91    1.76
  17   5  -3    3.11    2.35
  17  -5  -3    1.13    0.86
  17   5  -2    7.57    3.57
  17   5  -2    4.72    3.42
  17  -5  -2   -0.77    2.27
  17  -5  -2    1.22    2.24
  17   5  -1    4.64    2.10
  17   5  -1    7.70    3.50
  17  -5  -1   13.44    4.13
  17  -5  -1    8.94    3.60
  17   5   0    4.65    2.45
  17   5   0    6.56    2.96
  17  -5   0   10.64    3.73
  17  -5   0    6.75    3.07
  17   5   1    5.99    2.57
  17   5   1   10.78    3.70
  17  -5   1    7.99    3.24
  17  -5   1    9.67    2.73
  17   5   2   -0.38    2.06
  17   5   2    4.50    3.01
  17  -5   2    6.10    3.10
  17  -5   2    4.63    3.47
  17   5   3    3.17    2.39
  17   5   3    2.70    1.86
  17  -5   3    1.94    2.65
  17  -5   3    9.97    3.29
  17   5   4    5.74    2.97
  17   5   4    1.57    1.63
  17  -5   4    5.38    3.44
  17  -5   4    3.52    2.67
  17   5   5    4.66    2.90
  17   5   5    6.27    2.50
  17  -5   5    3.90    2.66
  17  -5   5    0.68    1.51
  17   5   6   17.21    4.13
  17   5   6   23.74    5.07
  17  -5   6   19.01    4.96
  17  -5   6   19.79    4.82
  17   5   7    6.86    2.27
  17   5   7    1.89    1.28
  17  -5   7    8.36    3.15
  17  -5   7   11.27    3.17
  17   5   8    6.92    3.64
  17   5   8    7.95    3.39
  17  -5   8    6.94    3.18
  17  -5   8    4.43    2.54
  17   5   9    6.32    3.65
  17   5   9    1.30    2.50
  17  -5   9   -1.47    2.15
  17  -5   9    4.95    3.07
  17   5  10   14.77    4.64
  17   5  10   20.75    5.14
  17  -5  10   14.13    4.33
  17  -5  10   19.85    5.11
  17   5  11    3.87    3.13
  17   5  11    2.33    2.66
  17  -5  11    9.10    3.27
  17  -5  11    5.10    2.84
  17  -6  -8    0.14    2.07
  17   6  -8    0.55    2.01
  17   6  -7   -1.50    1.10
  17  -6  -7   -1.86    1.93
  17   6  -6   -1.22    1.25
  17  -6  -6    1.41    2.05
  17   6  -5    0.90    2.60
  17  -6  -5    0.54    1.79
  17  -6  -5    1.41    2.12
  17   6  -4    4.05    2.28
  17  -6  -4    1.60    1.35
  17  -6  -4    0.57    2.03
  17   6  -3    1.54    1.25
  17  -6  -3    2.71    2.49
  17  -6  -3    5.01    3.24
  17   6  -2    3.05    1.23
  17  -6  -2    1.72    2.34
  17  -6  -2    1.56    1.49
  17   6  -1    0.04    1.82
  17  -6  -1    0.64    1.82
  17  -6  -1    0.09    2.63
  17   6   0   -0.80    1.59
  17   6   0    3.89    3.15
  17  -6   0    3.11    2.23
  17  -6   0   -2.21    2.35
  17   6   1    1.66    1.91
  17  -6   1    0.76    1.00
  17   6   1   -0.63    1.09
  17  -6   1   -1.63    1.59
  17   6   2    3.60    2.16
  17  -6   2    0.23    1.85
  17   6   2    2.96    2.53
  17  -6   2    3.46    1.34
  17   6   3    2.92    1.81
  17  -6   3    0.14    1.65
  17   6   3    4.42    3.12
  17  -6   3   -0.82    1.71
  17   6   4   -1.68    1.47
  17  -6   4    3.01    2.56
  17   6   4    1.24    1.99
  17  -6   4    2.32    1.25
  17   6   5    4.35    2.09
  17  -6   5    0.38    2.57
  17   6   5    2.07    1.50
  17  -6   5    2.19    1.36
  17   6   6    1.35    2.18
  17  -6   6    3.41    1.75
  17   6   6    0.99    1.09
  17  -6   6    5.83    3.24
  17   6   7   -2.00    2.15
  17  -6   7   -1.84    1.52
  17   6   7   -2.87    2.69
  17  -6   7   -0.29    1.89
  17   6   8    3.28    2.63
  17   6   8    0.59    1.67
  17  -6   8    2.14    2.13
  18   0 -15  126.97   12.04
  18   0 -14   -0.15    1.16
  18   0 -13   11.52    3.07
  18   0 -12   20.47    4.87
  18   0 -11  122.71   11.64
  18   0 -10    4.25    2.55
  18   0  -9    8.40    3.41
  18   0  -8   10.26    4.74
  18   0  -8    9.37    3.23
  18   0  -7    2.01    2.44
  18   0  -7    2.34    1.83
  18   0  -6    1.44    1.73
  18   0  -6    1.14    1.76
  18   0  -5   44.48    6.54
  18   0  -5   46.77    6.95
  18   0  -4   28.72    5.55
  18   0  -4   39.90    6.42
  18   0  -3   49.20    7.03
  18   0  -3   33.94    5.88
  18   0  -2   18.40    4.97
  18   0  -2   14.01    3.88
  18   0  -1   28.14    5.16
  18   0  -1   23.48    5.31
  18   0   0   11.07    3.57
  18   0   0    5.01    2.12
  18   0   1   21.94    4.55
  18   0   1   25.08    5.26
  18   0   2   17.00    3.94
  18   0   2   10.47    3.90
  18   0   3   37.48    6.08
  18   0   3   50.32    7.04
  18   0   4   39.57    6.42
  18   0   4   34.45    6.47
  18   0   5   36.86    6.03
  18   0   5   45.53    6.85
  18   0   6    3.75    3.00
  18   0   6    0.90    2.22
  18   0   7    2.37    1.91
  18   0   7    3.49    2.69
  18   0   8    8.62    3.28
  18   0   8    3.58    1.81
  18   0   9   16.95    3.98
  18   0   9   22.43    4.68
  18   0  10   13.41    3.95
  18   0  11  125.98   11.45
  18   0  12    8.13    3.48
  18   0  13   11.28    4.20
  18   0  14    2.09    1.15
  18   0  15  136.13   12.12
  18  -1 -15    5.79    2.57
  18  -1 -14   -2.65    2.42
  18  -1 -13    2.93    2.89
  18  -1 -12    1.67    2.01
  18  -1 -11    1.61    2.15
  18   1 -11   -4.36    2.14
  18  -1 -10   18.99    4.74
  18   1 -10    8.29    2.38
  18  -1  -9    2.24    2.35
  18  -1  -9   -0.81    1.15
  18   1  -9    2.47    1.96
  18  -1  -8    2.95    1.66
  18  -1  -8   -1.66    2.08
  18   1  -8    3.97    2.74
  18  -1  -7    2.00    2.99
  18  -1  -7    1.00    1.43
  18   1  -7   -0.43    2.68
  18  -1  -6    7.25    2.51
  18   1  -6   10.62    3.58
  18  -1  -6    8.22    3.28
  18   1  -6   14.78    4.29
  18  -1  -5   -0.76    1.77
  18   1  -5    0.73    1.27
  18  -1  -5   -1.08    1.80
  18   1  -5   -1.88    2.00
  18  -1  -4    1.03    2.44
  18   1  -4    1.20    2.51
  18  -1  -4   -0.64    2.40
  18   1  -4   -0.27    1.90
  18  -1  -3   -1.56    2.58
  18   1  -3    2.94    0.92
  18  -1  -3   -0.86    1.81
  18   1  -3    1.00    1.93
  18  -1  -2   -0.55    1.46
  18   1  -2    0.88    1.98
  18  -1  -2    1.37    2.39
  18   1  -2   -0.21    1.71
  18  -1  -1    3.62    2.26
  18   1  -1    1.98    0.97
  18  -1  -1    0.26    1.56
  18   1  -1   -0.37    1.12
  18  -1   0    1.22    1.20
  18   1   0    1.04    1.76
  18  -1   0   -0.56    1.48
  18   1   0    1.82    1.67
  18  -1   1    2.10    2.34
  18   1   1    2.41    1.54
  18  -1   1    4.13    2.53
  18   1   1    1.48    0.99
  18  -1   2    3.82    2.95
  18   1   2    0.75    1.29
  18  -1   2    0.34    1.34
  18   1   2    0.47    1.06
  18   1   2    0.36    1.47
  18  -1   3    0.39    1.08
  18   1   3   -0.38    1.50
  18  -1   3    0.16    2.02
  18   1   3   -0.34    2.16
  18   1   3    0.47    1.30
  18  -1   4   -0.20    1.74
  18  -1   4    0.20    1.80
  18   1   4   -0.16    1.46
  18   1   4    0.91    1.35
  18   1   4    0.64    1.57
  18  -1   5    0.54    2.44
  18  -1   5    1.61    1.41
  18   1   5    0.17    1.76
  18   1   5   -1.06    1.14
  18  -1   6    6.61    3.16
  18  -1   6    5.19    2.38
  18   1   6   16.10    4.55
  18   1   6   10.30    2.90
  18  -1   7    1.84    2.03
  18  -1   7    2.87    1.27
  18   1   7    0.65    1.97
  18   1   7    2.22    1.73
  18  -1   8    1.59    1.89
  18  -1   8   -0.25    1.65
  18   1   8    1.26    2.11
  18   1   8    2.07    2.71
  18  -1   9    0.26    2.12
  18  -1   9    0.76    1.46
  18   1   9    0.81    1.57
  18  -1  10   14.52    3.79
  18  -1  10   16.24    4.12
  18   1  10    9.03    3.59
  18  -1  11    1.60    1.06
  18  -1  11   -0.16    1.24
  18   1  11   -0.14    1.91
  18  -1  12    2.57    1.84
  18   1  12   -0.38    1.39
  18  -1  13   -1.54    2.27
  18   1  13   -0.35    1.50
  18  -1  14    0.11    1.78
  18   1  14    5.01    3.45
  18  -1  15    4.85    2.88
  18   1  15   13.15    3.93
  18  -2 -14    0.07    1.30
  18  -2 -13    4.11    2.98
  18  -2 -12   -1.90    1.55
  18  -2 -11   18.82    4.33
  18  -2 -10   11.69    3.98
  18  -2 -10   11.42    4.10
  18  -2  -9    0.07    1.45
  18  -2  -9   -0.13    1.32
  18   2  -9   -0.51    1.97
  18  -2  -8    1.06    0.92
  18  -2  -8    1.82    2.86
  18   2  -8    0.50    1.43
  18  -2  -7    1.33    2.06
  18  -2  -7    3.03    2.49
  18   2  -7   -1.34    2.51
  18  -2  -6    8.71    2.82
  18  -2  -6    8.63    2.61
  18   2  -6    3.34    2.32
  18  -2  -5   24.00    4.38
  18   2  -5   28.75    6.23
  18   2  -5   12.04    3.94
  18  -2  -5   19.21    5.03
  18   2  -5   17.32    4.15
  18  -2  -4   11.88    3.58
  18   2  -4   22.06    4.88
  18  -2  -4   10.24    3.12
  18   2  -4   17.38    4.40
  18   2  -4    9.85    3.38
  18  -2  -3    4.11    1.16
  18   2  -3    5.01    2.56
  18  -2  -3    5.03    1.69
  18   2  -3    8.30    3.33
  18   2  -3    2.91    2.00
  18  -2  -2    9.23    3.22
  18  -2  -2    6.68    3.55
  18   2  -2    9.19    2.90
  18   2  -2    2.84    2.52
  18   2  -2    5.32    2.40
  18  -2  -1   32.11    5.82
  18   2  -1   35.83    6.50
  18  -2  -1   22.90    5.00
  18   2  -1   30.03    5.47
  18   2  -1   41.63    6.56
  18  -2   0   21.91    4.99
  18  -2   0   10.78    2.75
  18   2   0   20.30    4.98
  18   2   0   14.26    4.22
  18   2   0    9.25    3.14
  18  -2   1   34.48    5.65
  18  -2   1   30.17    6.01
  18   2   1   29.31    5.50
  18   2   1   26.15    5.21
  18   2   1   25.69    4.94
  18  -2   2    8.11    1.93
  18  -2   2    6.66    2.88
  18   2   2    7.55    3.08
  18   2   2    4.67    1.93
  18   2   2   10.22    3.59
  18  -2   3    5.02    2.42
  18  -2   3    2.83    2.18
  18   2   3    6.66    2.44
  18   2   3    4.46    3.12
  18   2   3    1.87    1.57
  18  -2   4    8.46    3.04
  18  -2   4   13.79    3.45
  18   2   4    7.50    2.35
  18   2   4    6.22    2.72
  18   2   4   10.46    3.65
  18  -2   5   24.47    5.02
  18  -2   5   30.89    5.89
  18   2   5   22.54    5.27
  18   2   5   25.20    4.61
  18   2   5   25.63    5.20
  18  -2   6    7.12    2.31
  18  -2   6   12.46    3.47
  18   2   6    7.62    1.82
  18   2   6    1.46    1.44
  18   2   6   10.51    3.14
  18  -2   7    1.70    0.96
  18  -2   7   -1.39    1.86
  18   2   7    0.96    1.10
  18   2   7    0.14    1.72
  18   2   7    1.20    1.67
  18  -2   8   -1.30    1.78
  18  -2   8    1.79    2.00
  18   2   8   -1.16    2.15
  18   2   8    0.44    2.13
  18  -2   9    0.99    1.07
  18  -2   9    0.18    1.06
  18   2   9   -0.40    2.13
  18   2   9   -0.54    1.99
  18   2  10    7.53    3.10
  18  -2  10    7.35    2.82
  18  -2  10    9.98    3.38
  18   2  11   12.50    3.75
  18  -2  11   18.54    4.84
  18  -2  11   14.89    4.25
  18   2  12    0.63    1.26
  18  -2  12   -4.26    2.15
  18  -2  12   -1.35    2.87
  18   2  13   -0.54    1.97
  18  -2  13   -0.68    1.37
  18   2  14    7.30    3.23
  18  -2  14    7.09    3.22
  18  -3 -13    5.49    3.32
  18   3 -13    5.74    3.12
  18  -3 -12    9.08    3.50
  18   3 -12    7.10    3.29
  18  -3 -11    1.89    1.37
  18  -3 -11   -0.46    1.59
  18   3 -11    2.20    1.18
  18  -3 -10    1.73    2.36
  18  -3 -10    5.46    1.62
  18   3 -10    1.01    1.95
  18  -3  -9   -1.25    1.75
  18  -3  -9   -1.33    1.73
  18   3  -9    3.82    2.05
  18  -3  -8    4.03    2.80
  18  -3  -8    1.67    2.13
  18   3  -8   -0.97    1.50
  18  -3  -7    2.69    2.71
  18  -3  -7    0.22    1.05
  18   3  -7   -1.52    1.92
  18  -3  -6   18.70    4.36
  18  -3  -6   15.86    4.39
  18   3  -6   12.26    3.30
  18  -3  -5   -0.88    1.87
  18  -3  -5    0.07    1.34
  18   3  -5    1.68    2.37
  18  -3  -4    0.60    1.30
  18  -3  -4    4.95    1.91
  18   3  -4    3.21    1.90
  18  -3  -3    0.78    1.77
  18  -3  -3    0.02    2.03
  18   3  -3   -1.08    2.06
  18   3  -3   -0.11    1.36
  18  -3  -2    1.12    1.19
  18  -3  -2    0.78    1.70
  18   3  -2    4.58    1.78
  18   3  -2    2.20    1.46
  18  -3  -1    1.64    1.87
  18  -3  -1    0.29    1.19
  18   3  -1    2.08    1.98
  18   3  -1    1.60    1.80
  18  -3   0    7.43    3.03
  18  -3   0    1.04    1.65
  18   3   0    3.45    2.83
  18   3   0    0.59    1.67
  18  -3   1   -1.36    1.87
  18  -3   1    1.67    2.13
  18   3   1    2.98    3.13
  18   3   1   -1.36    2.29
  18   3   1   -1.43    2.06
  18  -3   2    0.40    1.92
  18  -3   2    1.07    1.43
  18   3   2   -1.30    1.93
  18   3   2   -4.48    2.47
  18   3   2   -0.32    1.25
  18  -3   3   -0.43    1.66
  18  -3   3   -0.13    1.14
  18   3   3   -0.81    2.27
  18   3   3   -0.62    2.07
  18   3   3   -0.38    1.27
  18   3   4    6.32    2.21
  18  -3   4    5.82    2.78
  18  -3   4   10.88    3.40
  18   3   4    2.59    1.44
  18   3   4    0.40    1.35
  18   3   5    0.87    1.11
  18  -3   5    1.17    1.24
  18  -3   5    0.92    1.80
  18   3   5    0.70    1.36
  18   3   5    1.40    2.48
  18   3   6   12.21    3.54
  18  -3   6   21.56    4.59
  18  -3   6   16.99    4.28
  18   3   6    7.05    2.52
  18   3   6   15.51    3.71
  18   3   7    0.14    1.39
  18  -3   7   -0.91    1.35
  18  -3   7    1.54    2.08
  18   3   7   -3.59    2.73
  18   3   8   -0.90    2.34
  18  -3   8   -0.01    1.12
  18  -3   8    1.24    1.40
  18   3   8   -0.90    2.33
  18   3   9    2.37    2.57
  18  -3   9    3.29    2.44
  18  -3   9    0.89    2.33
  18   3   9   -0.46    2.43
  18   3  10    1.90    1.81
  18  -3  10    5.08    2.01
  18  -3  10    3.56    1.70
  18   3  10    1.98    2.38
  18   3  11    1.22    1.44
  18  -3  11    2.73    3.50
  18  -3  11   -4.55    3.36
  18   3  12    4.28    2.73
  18  -3  12    8.93    2.86
  18  -3  12   13.58    4.16
  18   3  13    6.02    2.68
  18  -3  13    4.00    2.19
  18  -3  13    4.95    2.86
  18  -4 -11   10.34    3.65
  18  -4 -11    8.82    3.23
  18   4 -11    5.28    2.90
  18  -4 -10    4.80    1.83
  18  -4 -10   13.52    4.74
  18   4 -10    9.70    3.16
  18  -4  -9    1.85    1.90
  18  -4  -9    3.34    2.94
  18   4  -9    1.69    1.37
  18  -4  -8    3.33    2.28
  18  -4  -8    1.04    2.56
  18   4  -8   -0.57    0.86
  18  -4  -7    6.09    2.99
  18  -4  -7   16.93    4.74
  18   4  -7   12.61    3.54
  18  -4  -6   29.08    5.59
  18  -4  -6   13.85    4.22
  18   4  -6   20.49    4.58
  18  -4  -5   22.38    4.42
  18  -4  -5   22.73    5.31
  18   4  -5   24.66    5.35
  18  -4  -4   -1.92    1.55
  18  -4  -4    2.27    2.60
  18   4  -4    4.88    2.19
  18  -4  -3    1.90    1.87
  18  -4  -3   -0.52    1.73
  18   4  -3    1.41    1.44
  18  -4  -2    2.39    0.94
  18  -4  -2    0.65    1.33
  18   4  -2    2.92    2.78
  18   4  -2    0.30    1.18
  18  -4  -1   24.58    4.87
  18  -4  -1   20.62    4.79
  18   4  -1   21.68    4.98
  18   4  -1   18.44    4.54
  18   4   0   14.40    4.28
  18  -4   0   18.58    4.11
  18  -4   0   24.14    4.44
  18   4   0   21.15    4.38
  18   4   1   29.52    5.41
  18  -4   1   27.16    5.29
  18  -4   1   29.69    6.15
  18   4   1   18.94    4.13
  18   4   2    3.38    1.16
  18  -4   2    2.34    1.26
  18  -4   2    0.09    1.79
  18   4   2    2.50    1.73
  18   4   3   -0.59    1.81
  18  -4   3    1.43    1.82
  18  -4   3   -0.19    1.74
  18   4   3    1.35    1.41
  18   4   4    4.02    2.70
  18  -4   4    0.73    1.71
  18  -4   4    1.62    1.90
  18   4   4   -2.65    2.76
  18   4   5   22.01    4.97
  18  -4   5   19.83    5.01
  18  -4   5   17.03    4.24
  18   4   5   17.27    4.08
  18   4   6   24.16    4.98
  18  -4   6   26.82    5.28
  18  -4   6   22.09    4.66
  18   4   6   16.26    4.68
  18   4   7    5.51    2.91
  18  -4   7   11.70    3.30
  18  -4   7   10.02    3.48
  18   4   7   11.69    3.65
  18   4   8    1.68    1.89
  18  -4   8    4.78    2.65
  18  -4   8    0.91    1.37
  18   4   8   -1.17    2.11
  18   4   9    4.23    2.68
  18  -4   9    5.70    3.52
  18  -4   9    2.35    1.86
  18   4   9   -0.58    2.55
  18   4  10    8.45    3.42
  18  -4  10    9.56    3.60
  18  -4  10   11.14    4.16
  18   4  10    1.41    3.32
  18   4  11   10.60    3.11
  18  -4  11    5.00    2.52
  18  -4  11    8.30    3.29
  18  -5  -7   -0.06    1.63
  18  -5  -7   -1.49    1.79
  18   5  -7   -0.20    2.03
  18  -5  -6    0.84    1.97
  18  -5  -6    5.19    2.11
  18   5  -6    3.93    2.76
  18  -5  -5   -0.71    1.70
  18  -5  -5   -0.38    1.75
  18   5  -5    3.08    1.98
  18  -5  -4    5.85    3.15
  18  -5  -4    2.64    1.64
  18   5  -4    1.97    1.80
  18  -5  -3   -0.16    1.26
  18  -5  -3   -0.86    1.26
  18   5  -3   -1.99    2.24
  18  -5  -2    1.05    0.88
  18  -5  -2   -0.30    2.49
  18   5  -2   -1.47    1.29
  18   5  -1    3.92    3.06
  18  -5  -1   -0.45    1.60
  18  -5  -1    6.78    3.16
  18   5  -1    2.16    1.28
  18   5   0    0.85    2.71
  18  -5   0    2.21    2.78
  18  -5   0    0.24    1.30
  18   5   0    0.21    2.24
  18   5   1    4.42    2.72
  18  -5   1    3.15    2.49
  18  -5   1    2.00    1.93
  18   5   1    0.92    1.46
  18   5   2    3.07    2.30
  18  -5   2   -0.80    1.87
  18  -5   2   -0.21    1.33
  18   5   2   -0.05    2.04
  18   5   3    0.15    1.05
  18  -5   3   -0.07    1.48
  18  -5   3    1.88    2.39
  18   5   3    0.91    2.25
  18   5   4    2.91    2.83
  18   5   4    0.18    1.11
  18  -5   4    0.85    2.20
  18  -5   4   -0.45    1.45
  18   5   5    1.73    2.41
  18   5   5    3.65    3.38
  18  -5   5   -1.60    2.59
  18  -5   5   -2.27    2.24
  18   5   6    3.09    1.69
  18   5   6    1.92    2.52
  18  -5   6    4.44    2.89
  18  -5   6   -2.21    2.95
  18   5   7   -0.88    2.03
  18   5   7    3.20    1.62
  18  -5   7    1.09    2.31
  18  -5   7   -2.27    2.73
  19   0 -12   -1.62    2.65
  19   0 -11    0.60    2.12
  19   0 -10   -0.95    2.07
  19   0  -9   -1.18    1.31
  19   0  -8   -1.34    1.87
  19   0  -7   -0.63    1.42
  19   0  -7   -0.64    1.66
  19   0  -6    1.77    2.19
  19   0  -6    2.91    3.52
  19   0  -5   -0.35    2.13
  19   0  -5   -0.35    1.16
  19   0  -4   -0.08    1.20
  19   0  -4   -0.21    1.86
  19   0  -3   -1.29    2.40
  19   0  -3    2.03    2.59
  19   0  -2    0.50    1.48
  19   0  -2   -0.10    1.38
  19   0  -1    1.35    2.22
  19   0  -1   -1.37    2.45
  19   0   0   -0.55    1.45
  19   0   0   -0.49    1.41
  19   0   1   -0.57    1.33
  19   0   1   -0.96    1.21
  19   0   2    0.56    0.94
  19   0   2    0.67    1.54
  19   0   3    3.03    2.53
  19   0   3    0.83    2.12
  19   0   4    2.35    2.36
  19   0   4    1.32    2.30
  19   0   5    0.57    1.62
  19   0   5   -0.96    2.36
  19   0   6    2.42    1.74
  19   0   6    1.61    1.26
  19   0   7   -0.31    1.79
  19   0   7    0.75    2.02
  19   0   8   -0.95    0.92
  19   0   8    1.55    2.86
  19   0   9   -2.38    2.08
  19   0   9    1.95    2.50
  19   0  10   -1.24    2.59
  19   0  10    0.61    1.57
  19   0  11   -1.25    1.93
  19   0  11   -1.60    1.88
  19   0  12   -0.03    1.76
  19  -1 -12    8.74    2.82
  19  -1 -11   12.42    3.47
  19  -1 -10   17.30    4.50
  19  -1  -9    2.50    1.89
  19  -1  -8    0.80    1.62
  19  -1  -8    6.46    3.62
  19   1  -8    7.83    2.89
  19  -1  -7    7.04    1.17
  19  -1  -7   10.91    3.91
  19   1  -7    2.51    1.08
  19  -1  -6   13.05    3.82
  19  -1  -6   12.74    3.88
  19   1  -6    6.51    3.39
  19  -1  -5   18.04    4.46
  19   1  -5   13.30    4.33
  19  -1  -5    6.36    2.62
  19   1  -5   17.46    4.38
  19  -1  -4    9.06    2.84
  19   1  -4    9.09    3.17
  19  -1  -4   11.52    3.81
  19   1  -4    7.15    2.98
  19  -1  -3    3.54    1.88
  19   1  -3    1.00    2.23
  19  -1  -3    7.02    2.59
  19   1  -3    2.44    2.30
  19  -1  -2   23.35    4.79
  19   1  -2   21.68    4.96
  19  -1  -2   22.04    5.11
  19   1  -2   26.21    5.30
  19  -1  -1   15.86    4.03
  19   1  -1   13.92    3.92
  19  -1  -1   17.25    5.05
  19   1  -1   19.53    5.06
  19  -1   0    2.60    1.44
  19   1   0    1.75    2.09
  19  -1   0   -1.28    1.96
  19   1   0    1.43    1.79
  19  -1   1   21.00    4.76
  19   1   1   15.24    3.51
  19  -1   1    9.06    2.84
  19   1   1   12.94    3.96
  19  -1   2   30.81    5.54
  19   1   2   25.76    5.33
  19  -1   2   26.52    5.37
  19   1   2   25.56    5.10
  19  -1   3    1.46    1.41
  19   1   3    5.41    1.87
  19  -1   3    3.80    1.89
  19   1   3    1.54    2.27
  19  -1   4    9.73    3.26
  19   1   4    9.51    3.01
  19  -1   4   10.59    3.29
  19   1   4   14.12    4.10
  19  -1   5   19.51    4.30
  19   1   5   12.00    3.71
  19  -1   5   20.12    4.56
  19   1   5    9.10    2.73
  19  -1   6   15.62    4.11
  19   1   6   13.52    3.95
  19  -1   6    9.00    2.70
  19   1   6   12.48    4.01
  19  -1   7    6.42    2.80
  19  -1   7    9.60    4.07
  19   1   7    6.10    3.65
  19   1   7    5.94    3.29
  19  -1   8    8.43    2.92
  19  -1   8    3.49    2.62
  19   1   8    5.16    2.03
  19   1   8    8.46    3.73
  19  -1   9    0.54    1.69
  19  -1   9    2.94    1.76
  19   1   9    1.29    2.13
  19   1   9   -0.01    1.69
  19  -1  10   18.04    4.56
  19  -1  10   16.70    4.32
  19   1  10   17.85    4.43
  19  -1  11   18.32    5.04
  19  -1  11   15.92    4.29
  19   1  11   11.32    3.88
  19  -1  12    1.87    1.01
  19  -1  12    6.26    3.01
  19   1  12    4.51    3.26
  19  -2 -11    1.08    1.85
  19  -2 -10    5.63    2.87
  19  -2  -9    6.46    3.31
  19  -2  -9    0.10    1.43
  19  -2  -8    3.29    3.04
  19  -2  -8   -0.37    2.14
  19  -2  -7    2.85    2.18
  19  -2  -7    6.34    2.47
  19  -2  -6    3.20    1.87
  19  -2  -6    7.93    3.59
  19   2  -6    7.87    2.92
  19  -2  -5   13.87    4.37
  19  -2  -5    9.82    3.63
  19   2  -5    6.99    2.50
  19  -2  -4   -0.40    1.14
  19   2  -4   -1.18    2.64
  19  -2  -4    2.70    1.95
  19   2  -4    1.47    1.44
  19  -2  -3    2.03    2.14
  19   2  -3    2.53    3.11
  19  -2  -3    1.50    1.54
  19   2  -3    2.36    1.12
  19   2  -3   -1.56    2.91
  19  -2  -2    0.27    1.38
  19   2  -2    0.34    0.95
  19  -2  -2    4.34    2.54
  19   2  -2    2.88    1.71
  19   2  -2   -2.00    1.33
  19  -2  -1    1.11    1.03
  19   2  -1    1.98    1.83
  19  -2  -1    4.46    2.32
  19   2  -1    0.34    1.74
  19   2  -1    0.48    1.51
  19  -2   0    3.87    2.57
  19  -2   0    4.08    2.46
  19   2   0    5.12    2.91
  19   2   0    1.66    2.13
  19   2   0    2.22    2.93
  19  -2   1    5.54    2.80
  19  -2   1    6.02    2.27
  19   2   1    3.04    2.54
  19   2   1    4.77    2.65
  19   2   1    3.92    2.12
  19  -2   2    3.28    1.53
  19  -2   2    1.74    1.34
  19   2   2    2.00    1.71
  19   2   2    0.28    1.57
  19   2   2    3.33    3.11
  19  -2   3    5.04    2.75
  19  -2   3    4.44    3.24
  19   2   3    4.68    2.34
  19   2   3    3.07    2.49
  19   2   3   -1.35    1.88
  19  -2   4    2.25    2.82
  19  -2   4    4.82    2.36
  19   2   4    4.10    3.29
  19   2   4    4.43    2.99
  19   2   4   -0.57    1.85
  19  -2   5    9.35    3.12
  19  -2   5   13.71    4.00
  19   2   5   12.62    4.45
  19   2   5    7.63    2.59
  19   2   5   12.96    3.74
  19  -2   6    1.13    1.88
  19  -2   6    1.37    1.88
  19   2   6    3.44    2.65
  19   2   6    8.03    2.50
  19   2   6    8.18    3.79
  19  -2   7    2.04    2.65
  19  -2   7    5.93    3.30
  19   2   7    2.61    1.86
  19   2   7    4.83    3.12
  19   2   7    6.38    3.34
  19  -2   8    1.32    1.40
  19  -2   8    4.92    3.19
  19   2   8   -0.20    1.35
  19   2   8    0.33    1.96
  19   2   8    1.19    1.08
  19  -2   9    3.16    2.91
  19  -2   9    2.92    2.50
  19   2   9   -1.78    2.42
  19   2   9    1.99    1.25
  19  -2  10   -1.95    2.08
  19  -2  10    2.23    2.42
  19   2  10   -0.92    1.35
  19  -2  11    1.95    3.40
  19  -2  11    4.30    2.57
  19   2  11    5.73    2.52
  19  -3  -9    1.31    2.14
  19  -3  -9    4.67    3.41
  19   3  -9    2.23    2.12
  19  -3  -8   13.10    4.32
  19  -3  -8   11.53    4.02
  19   3  -8    9.87    3.67
  19  -3  -7   -0.72    1.80
  19  -3  -7    2.65    1.90
  19   3  -7    4.79    3.38
  19  -3  -6   -0.58    1.86
  19  -3  -6    0.42    1.48
  19   3  -6    3.54    1.52
  19  -3  -5    2.78    2.39
  19  -3  -5    7.10    3.24
  19   3  -5    5.29    2.69
  19  -3  -4   -2.81    2.08
  19  -3  -4   -0.44    1.58
  19   3  -4    1.07    2.34
  19  -3  -3    2.37    1.88
  19  -3  -3    3.21    1.68
  19   3  -3    7.44    3.31
  19   3  -3    4.56    2.84
  19  -3  -2    1.13    1.49
  19  -3  -2    8.24    3.46
  19   3  -2    0.96    1.47
  19   3  -2   13.03    4.25
  19  -3  -1    2.29    2.45
  19  -3  -1    0.45    1.07
  19   3  -1    1.61    2.63
  19   3  -1   -1.01    2.27
  19  -3   0    0.03    1.16
  19  -3   0   -1.24    1.14
  19   3   0   -1.49    2.47
  19   3   0    0.04    1.41
  19  -3   1    1.68    2.05
  19  -3   1    1.07    1.14
  19   3   1    2.93    3.30
  19   3   1    4.68    1.44
  19  -3   2   13.32    3.92
  19  -3   2   10.59    3.45
  19   3   2    9.11    3.42
  19   3   2    3.90    1.47
  19  -3   3    5.60    3.08
  19  -3   3    5.49    2.67
  19   3   3    6.95    2.87
  19   3   3    5.02    1.98
  19   3   3   -0.88    2.02
  19  -3   4   -0.25    2.02
  19  -3   4    0.26    1.05
  19   3   4    0.07    1.24
  19   3   4    1.10    2.14
  19   3   4    1.10    1.33
  19  -3   5    3.02    1.72
  19  -3   5    2.87    2.04
  19   3   5    6.21    3.59
  19   3   5    4.58    3.31
  19   3   5    8.19    3.63
  19  -3   6    4.48    2.57
  19  -3   6   -0.08    1.41
  19   3   6    2.16    2.90
  19   3   6    4.50    2.56
  19   3   6    0.46    0.99
  19   3   7    3.19    2.29
  19  -3   7    7.25    3.40
  19  -3   7   -0.27    1.43
  19   3   7    4.13    2.47
  19   3   7    4.12    2.60
  19   3   8    8.74    3.14
  19  -3   8   13.91    4.19
  19  -3   8   15.15    4.76
  19   3   8   12.41    3.81
  19   3   8    9.56    4.18
  19   3   9   -1.42    1.78
  19  -3   9    5.13    2.79
  19  -3   9    7.97    3.67
  19   3   9    1.86    3.16
  19  -4  -6   -1.19    1.83
  19  -4  -6    2.54    1.64
  19   4  -6    2.00    1.50
  19  -4  -5   -0.16    1.30
  19  -4  -5   -2.42    2.04
  19   4  -5   -0.68    1.52
  19  -4  -4    1.79    2.12
  19  -4  -4    1.89    1.08
  19   4  -4    6.10    2.87
  19  -4  -3    0.20    1.72
  19   4  -3    0.36    1.97
  19  -4  -2    5.34    2.96
  19  -4  -2    3.52    2.47
  19   4  -2   -0.31    2.40
  19  -4  -1   -0.39    1.56
  19  -4  -1   -0.29    1.58
  19   4  -1    0.82    1.31
  19   4  -1   -1.18    1.33
  19  -4   0    3.27    2.35
  19  -4   0   -2.09    2.93
  19   4   0    4.07    2.99
  19   4   0    1.43    2.23
  19  -4   1   -0.77    2.18
  19  -4   1   -0.59    1.54
  19   4   1    2.06    1.73
  19   4   1    2.53    1.57
  19  -4   2    7.54    3.61
  19  -4   2    2.04    2.51
  19   4   2    2.33    2.02
  19   4   2   -0.34    1.84
  19   4   3    3.25    3.12
  19  -4   3    1.41    2.33
  19  -4   3    4.82    2.52
  19   4   3   -1.17    2.29
  19   4   4    6.39    2.56
  19  -4   4    7.52    3.07
  19  -4   4    5.31    3.28
  19   4   4    2.38    2.64
  19   4   5    0.91    1.88
  19  -4   5    0.19    2.26
  19  -4   5   -0.08    1.51
  19   4   5    3.49    2.27
  19   4   6   -0.92    2.30
  19  -4   6    2.55    1.55
  19  -4   6    0.88    3.07
  19   4   6    0.82    1.30
  20   0  -8   68.47    9.55
  20   0  -7   -0.77    2.04
  20   0  -6   -2.13    2.44
  20   0  -6    1.50    2.72
  20   0  -5   15.25    4.59
  20   0  -5   18.35    4.53
  20   0  -4   62.96    8.57
  20   0  -4   67.63    8.89
  20   0  -3   -1.74    2.62
  20   0  -3    0.25    2.07
  20   0  -2   80.38    9.46
  20   0  -2   80.39    9.70
  20   0  -1    5.03    3.12
  20   0  -1    3.27    2.42
  20   0   0   -0.05    2.03
  20   0   0   -1.22    1.99
  20   0   1    3.09    1.76
  20   0   1    3.28    2.07
  20   0   2   73.60    9.13
  20   0   2   98.68   10.24
  20   0   3   -0.29    1.39
  20   0   3    0.79    1.75
  20   0   4   64.68    8.46
  20   0   4   71.19    8.89
  20   0   5   18.02    4.66
  20   0   5   15.96    4.40
  20   0   6    2.35    2.87
  20   0   6   -0.65    2.10
  20   0   7    3.93    2.67
  20   0   7    0.69    2.44
  20   0   8   49.05    7.55
  20   0   8   46.27    7.01
  20  -1  -7   -0.92    1.82
  20  -1  -7    0.16    1.72
  20  -1  -6   -0.16    1.83
  20  -1  -6    0.43    1.59
  20   1  -6   -1.30    1.91
  20  -1  -5    0.38    1.57
  20  -1  -5    4.00    2.19
  20   1  -5    2.96    2.76
  20  -1  -4   -1.72    2.35
  20   1  -4    0.48    1.05
  20  -1  -4    0.59    1.12
  20   1  -4    1.35    1.82
  20  -1  -3    6.51    2.68
  20   1  -3    4.88    2.28
  20  -1  -3   10.43    2.84
  20   1  -3    4.09    1.17
  20  -1  -2    1.74    2.38
  20   1  -2    3.66    2.92
  20  -1  -2    0.72    2.36
  20   1  -2    1.92    2.28
  20  -1  -1    0.70    1.27
  20   1  -1    3.66    2.43
  20  -1  -1    2.19    1.17
  20   1  -1    4.79    2.98
  20  -1   0   -1.13    1.28
  20   1   0   -3.58    3.45
  20  -1   0    1.35    1.85
  20   1   0    0.18    2.80
  20  -1   1    0.91    2.10
  20   1   1    2.82    2.77
  20  -1   1    1.65    1.49
  20   1   1    8.12    3.44
  20  -1   2    0.77    1.03
  20   1   2    2.13    2.01
  20  -1   2    1.11    1.17
  20   1   2    5.00    2.97
  20  -1   3    6.39    2.97
  20   1   3    9.53    3.03
  20  -1   3    5.76    2.66
  20   1   3    3.73    1.63
  20  -1   4    0.07    1.50
  20   1   4    0.41    2.61
  20  -1   4   -0.41    1.73
  20   1   4    2.62    2.98
  20  -1   5    1.99    1.38
  20   1   5    4.66    2.83
  20  -1   5    8.19    2.98
  20   1   5    4.25    2.39
  20  -1   6    3.22    2.83
  20   1   6   -0.24    1.42
  20  -1   6   -0.10    1.75
  20   1   6    5.30    3.09
  20  -1   7   -1.10    2.51
  20   1   7   -1.01    1.16
  20  -1   7    0.11    2.38
  20   1   7    0.79    2.87
  20  -2  -6    6.41    2.55
  20  -2  -6    4.82    2.89
  20  -2  -5    2.38    1.96
  20  -2  -5   -0.93    2.75
  20  -2  -4    5.54    2.65
  20  -2  -4    6.61    3.03
  20  -2  -3    2.06    2.05
  20   2  -3    0.47    2.50
  20  -2  -3    1.41    2.91
  20  -2  -2   27.09    5.60
  20   2  -2   22.76    5.35
  20  -2  -2   31.21    5.48
  20   2  -2   41.31    5.98
  20  -2  -1    1.06    2.04
  20   2  -1    1.68    1.35
  20  -2  -1    1.15    1.27
  20   2  -1    0.50    1.92
  20   2  -1    0.73    2.33
  20  -2   0    2.32    1.33
  20   2   0   -0.57    1.34
  20  -2   0    1.05    2.29
  20   2   0    0.53    2.74
  20   2   0    3.23    3.09
  20  -2   1    1.10    1.13
  20   2   1   -3.39    2.28
  20  -2   1    1.41    2.81
  20   2   1    0.29    2.64
  20   2   1    1.94    1.66
  20  -2   2   41.35    6.79
  20   2   2   33.86    6.17
  20   2   2   45.26    7.48
  20  -2   2   25.26    5.69
  20   2   2   19.77    4.89
  20  -2   3    0.64    1.35
  20  -2   3   -0.66    1.11
  20   2   3    0.45    1.08
  20   2   3   -0.67    1.44
  20   2   3    2.81    2.69
  20  -2   4    5.33    3.07
  20  -2   4    9.24    2.76
  20   2   4    5.46    2.61
  20   2   4    7.05    3.49
  20   2   4    4.77    3.08
  20  -2   5   -1.11    1.47
  20  -2   5    0.59    1.25
  20   2   5    4.56    3.21
  20   2   5    1.98    2.59
  20   2   5   -2.56    2.82
  20  -2   6    3.63    1.91
  20   2   6    0.60    1.57
  20   2   6    2.40    1.12
  20   2   6    2.78    2.31
  20  -3  -1   -0.10    1.38
  20  -3  -1    0.95    1.99
  20   3  -1    0.98    2.38
  20   3  -1   -2.02    2.21
  20  -3   0   -1.93    1.76
  20  -3   0   -1.78    2.29
  20   3   0   -1.44    2.29
  20   3   0   -2.72    2.98
  20  -3   1   -0.01    1.89
  20  -3   1    1.97    2.26
  20   3   1   -2.75    2.42
  20   3   1    1.20    2.02
   0   0   0    0.00    0.00
TITL 003_290K_SulfamerazineF1_ in Pna2(1)
REM Pna2(1) (#33, found as Pbn2(1) in ba-c setting)
CELL 0.68890  14.500774   8.214082  21.982107  90.0000  90.0000  90.0000
ZERR    8.00   0.000179   0.000109   0.000387   0.0000   0.0000   0.0000
LATT -1
SYMM -x,-y, z+1/2
SYMM  x+1/2,-y+1/2, z
SYMM -x+1/2, y+1/2, z+1/2
SFAC C H N O S
UNIT 88.00 96.00 32.00 16.00 8.00
TREF
HKLF 4
END
_computing_structure_solution     'SHELXT 2014/5 (Sheldrick, 2014)'
;
_shelx_hkl_checksum              10679
loop_
_space_group_symop_operation_xyz
'x, y, z'
'-x, -y, z+1/2'
'x+1/2, -y+1/2, z'
'-x+1/2, y+1/2, z+1/2'
loop_
_atom_site_label
_atom_site_type_symbol
_atom_site_fract_x
_atom_site_fract_y
_atom_site_fract_z
_atom_site_U_iso_or_equiv
_atom_site_adp_type
_atom_site_occupancy
_atom_site_site_symmetry_order
_atom_site_calc_flag
_atom_site_refinement_flags_posn
_atom_site_refinement_flags_adp
_atom_site_refinement_flags_occupancy
_atom_site_disorder_assembly
_atom_site_disorder_group
S1 S 0.64726(6) 0.49599(10) 0.34462(5) 0.0407(2) Uani 1 1 d . . . . .
S2 S 0.57775(6) 0.49439(10) 0.65219(5) 0.0401(2) Uani 1 1 d . . . . .
O1 O 0.6906(2) 0.3716(3) 0.30941(14) 0.0535(7) Uani 1 1 d . . . . .
O2 O 0.55041(19) 0.5229(3) 0.33784(16) 0.0523(7) Uani 1 1 d . . . . .
O3 O 0.67500(18) 0.4665(3) 0.65833(15) 0.0510(7) Uani 1 1 d . . . . .
O4 O 0.5355(2) 0.6218(3) 0.68652(14) 0.0516(7) Uani 1 1 d . . . . .
N1 N 0.8435(3) 1.1157(5) 0.3123(2) 0.0604(11) Uani 1 1 d . . . . .
N2 N 0.6566(2) 0.4498(5) 0.41722(18) 0.0468(8) Uani 1 1 d . . . . .
N3 N 0.8155(2) 0.4105(4) 0.41787(17) 0.0462(8) Uani 1 1 d . . . . .
N4 N 0.7284(3) 0.4270(5) 0.50928(18) 0.0633(10) Uani 1 1 d . . . . .
N5 N 0.3809(3) -0.1198(5) 0.6963(2) 0.0781(14) Uani 1 1 d . . . . .
H5A H 0.4083 -0.2112 0.6900 0.102 Uiso 1 1 calc R U . . .
H5B H 0.3247 -0.1184 0.7088 0.102 Uiso 1 1 calc R U . . .
N6 N 0.5683(2) 0.5351(5) 0.57909(17) 0.0479(8) Uani 1 1 d . . . . .
N7 N 0.4100(2) 0.5842(4) 0.57955(17) 0.0493(8) Uani 1 1 d . . . . .
N8 N 0.4967(3) 0.5663(6) 0.48774(18) 0.0613(10) Uani 1 1 d . . . . .
C1 C 0.7063(2) 0.6781(4) 0.3345(2) 0.0378(8) Uani 1 1 d . . . . .
C2 C 0.7957(2) 0.6801(4) 0.31105(18) 0.0389(8) Uani 1 1 d . . . . .
H2 H 0.8245 0.5830 0.3005 0.051 Uiso 1 1 calc R U . . .
C3 C 0.8411(2) 0.8253(5) 0.30366(19) 0.0393(8) Uani 1 1 d . . . . .
H3 H 0.9009 0.8259 0.2885 0.051 Uiso 1 1 calc R U . . .
C4 C 0.7982(3) 0.9726(5) 0.31876(19) 0.0426(8) Uani 1 1 d . . . . .
C5 C 0.7078(3) 0.9691(5) 0.3427(2) 0.0472(9) Uani 1 1 d . . . . .
H5 H 0.6784 1.0656 0.3534 0.061 Uiso 1 1 calc R U . . .
C6 C 0.6635(3) 0.8231(4) 0.3501(2) 0.0470(9) Uani 1 1 d . . . . .
H6 H 0.6039 0.8212 0.3659 0.061 Uiso 1 1 calc R U . . .
C7 C 0.7381(3) 0.4290(5) 0.44933(19) 0.0434(9) Uani 1 1 d . . . . .
C8 C 0.8068(4) 0.4021(9) 0.5404(3) 0.0847(18) Uani 1 1 d . . . . .
H8 H 0.8044 0.3987 0.5827 0.110 Uiso 1 1 calc R U . . .
C9 C 0.8899(3) 0.3814(8) 0.5123(3) 0.0784(16) Uani 1 1 d . . . . .
H9 H 0.9432 0.3631 0.5348 0.102 Uiso 1 1 calc R U . . .
C10 C 0.8927(3) 0.3884(6) 0.4504(2) 0.0561(11) Uani 1 1 d . . . . .
C11 C 0.9800(3) 0.3718(8) 0.4149(3) 0.0782(16) Uani 1 1 d . . . . .
H11A H 0.9784 0.2727 0.3918 0.102 Uiso 1 1 calc R U . . .
H11B H 1.0315 0.3693 0.4423 0.102 Uiso 1 1 calc R U . . .
H11C H 0.9863 0.4627 0.3878 0.102 Uiso 1 1 calc R U . . .
C12 C 0.5193(2) 0.3143(4) 0.66557(18) 0.0386(8) Uani 1 1 d . . . . .
C13 C 0.5635(3) 0.1680(5) 0.6557(3) 0.0506(10) Uani 1 1 d . . . . .
H13 H 0.6241 0.1669 0.6418 0.066 Uiso 1 1 calc R U . . .
C14 C 0.5178(3) 0.0233(5) 0.6664(2) 0.0580(13) Uani 1 1 d . . . . .
H14 H 0.5482 -0.0750 0.6601 0.075 Uiso 1 1 calc R U . . .
C15 C 0.4268(3) 0.0230(5) 0.6866(2) 0.0500(10) Uani 1 1 d . . . . .
C16 C 0.3830(3) 0.1715(5) 0.69674(19) 0.0451(9) Uani 1 1 d . . . . .
H16 H 0.3225 0.1732 0.7107 0.059 Uiso 1 1 calc R U . . .
C17 C 0.4287(3) 0.3161(5) 0.6863(2) 0.0409(9) Uani 1 1 d . . . . .
H17 H 0.3989 0.4147 0.6931 0.053 Uiso 1 1 calc R U . . .
C18 C 0.4871(3) 0.5640(5) 0.54811(19) 0.0427(8) Uani 1 1 d . . . . .
C19 C 0.4196(4) 0.5993(9) 0.4572(3) 0.0851(19) Uani 1 1 d . . . . .
H19 H 0.4225 0.6042 0.4149 0.111 Uiso 1 1 calc R U . . .
C20 C 0.3371(4) 0.6262(8) 0.4847(3) 0.0844(18) Uani 1 1 d . . . . .
H20 H 0.2849 0.6519 0.4621 0.110 Uiso 1 1 calc R U . . .
C21 C 0.3330(3) 0.6143(6) 0.5474(2) 0.0566(11) Uani 1 1 d . . . . .
C22 C 0.2465(3) 0.6339(9) 0.5828(3) 0.0859(18) Uani 1 1 d . . . . .
H22A H 0.2339 0.7477 0.5884 0.112 Uiso 1 1 calc R U . . .
H22B H 0.2533 0.5825 0.6218 0.112 Uiso 1 1 calc R U . . .
H22C H 0.1964 0.5842 0.5612 0.112 Uiso 1 1 calc R U . . .
H1N1 H 0.891(4) 1.119(6) 0.293(3) 0.071(16) Uiso 1 1 d . . . . .
H2N1 H 0.812(4) 1.205(8) 0.316(3) 0.10(2) Uiso 1 1 d . . . . .
H1N2 H 0.616(3) 0.479(4) 0.437(2) 0.035(11) Uiso 1 1 d . . . . .
H1N6 H 0.621(4) 0.494(6) 0.559(3) 0.073(17) Uiso 1 1 d . . . . .
loop_
_atom_site_aniso_label
_atom_site_aniso_U_11
_atom_site_aniso_U_22
_atom_site_aniso_U_33
_atom_site_aniso_U_23
_atom_site_aniso_U_13
_atom_site_aniso_U_12
S1 0.0385(4) 0.0432(4) 0.0403(5) 0.0033(4) -0.0013(4) -0.0026(3)
S2 0.0372(4) 0.0440(4) 0.0392(5) 0.0046(4) -0.0013(4) -0.0024(3)
O1 0.0634(18) 0.0445(14) 0.0526(19) -0.0052(13) 0.0008(15) -0.0010(13)
O2 0.0388(13) 0.0657(17) 0.0524(19) 0.0093(15) -0.0081(14) -0.0061(12)
O3 0.0372(13) 0.0668(17) 0.0490(18) 0.0082(15) -0.0076(14) -0.0046(12)
O4 0.0582(18) 0.0419(14) 0.0546(18) -0.0046(12) -0.0002(14) -0.0031(12)
N1 0.055(2) 0.0464(19) 0.080(3) -0.0093(19) 0.022(2) -0.0058(17)
N2 0.0321(16) 0.063(2) 0.045(2) 0.0120(18) 0.0016(15) 0.0020(14)
N3 0.0379(16) 0.0508(17) 0.050(2) 0.0047(15) 0.0021(15) 0.0029(13)
N4 0.048(2) 0.098(3) 0.045(2) 0.009(2) -0.0027(18) 0.015(2)
N5 0.068(3) 0.0458(19) 0.121(4) -0.005(2) 0.023(3) -0.0117(18)
N6 0.0357(16) 0.069(2) 0.039(2) 0.0119(17) 0.0028(15) 0.0036(15)
N7 0.0378(17) 0.0571(19) 0.053(2) 0.0033(17) 0.0011(15) 0.0056(14)
N8 0.0450(18) 0.096(3) 0.043(2) 0.007(2) -0.0029(17) 0.0156(19)
C1 0.0388(18) 0.0404(16) 0.034(2) 0.0031(15) 0.0018(16) 0.0020(13)
C2 0.0355(17) 0.0430(18) 0.038(2) -0.0028(15) 0.0021(15) 0.0049(13)
C3 0.0345(18) 0.049(2) 0.035(2) 0.0014(16) 0.0051(16) -0.0002(14)
C4 0.0414(19) 0.0459(19) 0.040(2) -0.0031(15) 0.0017(17) -0.0011(14)
C5 0.047(2) 0.0435(18) 0.052(3) -0.0030(19) 0.009(2) 0.0033(14)
C6 0.0391(18) 0.0474(19) 0.054(3) -0.0018(19) 0.0102(18) 0.0041(14)
C7 0.0367(18) 0.049(2) 0.044(2) 0.0086(17) -0.0014(17) 0.0024(15)
C8 0.060(3) 0.143(5) 0.052(3) 0.008(3) -0.008(3) 0.027(3)
C9 0.047(3) 0.122(4) 0.066(4) -0.001(3) -0.014(3) 0.020(3)
C10 0.041(2) 0.064(3) 0.064(3) 0.000(2) -0.001(2) 0.0070(18)
C11 0.043(2) 0.099(4) 0.093(4) -0.005(3) 0.009(3) 0.012(2)
C12 0.0369(16) 0.0388(16) 0.040(2) -0.0011(14) 0.0004(16) 0.0009(13)
C13 0.0375(19) 0.046(2) 0.068(3) 0.000(2) 0.010(2) 0.0046(14)
C14 0.051(2) 0.0392(19) 0.084(4) -0.004(2) 0.010(2) 0.0028(16)
C15 0.054(2) 0.0411(19) 0.055(3) -0.0026(17) 0.006(2) -0.0047(16)
C16 0.043(2) 0.0478(19) 0.045(2) -0.0045(17) 0.0065(18) -0.0044(15)
C17 0.042(2) 0.0404(18) 0.041(2) -0.0014(16) 0.0053(17) 0.0042(14)
C18 0.0389(19) 0.0487(19) 0.041(2) 0.0074(17) 0.0005(17) 0.0014(15)
C19 0.061(3) 0.149(6) 0.046(3) 0.007(3) -0.007(2) 0.033(3)
C20 0.053(3) 0.133(5) 0.067(4) 0.000(3) -0.018(3) 0.035(3)
C21 0.044(2) 0.064(3) 0.062(3) 0.000(2) -0.004(2) 0.0123(19)
C22 0.042(2) 0.117(5) 0.099(4) -0.002(4) 0.008(3) 0.015(3)
loop_
_atom_type_symbol
_atom_type_description
_atom_type_scat_dispersion_real
_atom_type_scat_dispersion_imag
_atom_type_scat_source
C C 0.0033 0.0016 'International Tables Vol C Tables 4.2.6.8 and 6.1.1.4'
H H 0.0000 0.0000 'International Tables Vol C Tables 4.2.6.8 and 6.1.1.4'
N N 0.0061 0.0033 'International Tables Vol C Tables 4.2.6.8 and 6.1.1.4'
O O 0.0106 0.0060 'International Tables Vol C Tables 4.2.6.8 and 6.1.1.4'
S S 0.1246 0.1234 'International Tables Vol C Tables 4.2.6.8 and 6.1.1.4'
loop_
_geom_angle_atom_site_label_1
_geom_angle_atom_site_label_2
_geom_angle_atom_site_label_3
_geom_angle
_geom_angle_site_symmetry_1
_geom_angle_site_symmetry_3
O1 S1 O2 119.10(19) . .
O1 S1 N2 108.9(2) . .
O2 S1 N2 102.56(19) . .
O1 S1 C1 109.24(19) . .
O2 S1 C1 109.74(17) . .
N2 S1 C1 106.4(2) . .
O4 S2 O3 119.22(19) . .
O4 S2 N6 109.32(19) . .
O3 S2 N6 101.89(19) . .
O4 S2 C12 109.09(18) . .
O3 S2 C12 109.22(17) . .
N6 S2 C12 107.38(19) . .
C4 N1 H1N1 120(4) . .
C4 N1 H2N1 118(4) . .
H1N1 N1 H2N1 118(5) . .
C7 N2 S1 126.3(3) . .
C7 N2 H1N2 113(3) . .
S1 N2 H1N2 115(3) . .
C7 N3 C10 116.3(4) . .
C7 N4 C8 114.8(4) . .
C15 N5 H5A 120.0 . .
C15 N5 H5B 120.0 . .
H5A N5 H5B 120.0 . .
C18 N6 S2 126.0(3) . .
C18 N6 H1N6 122(3) . .
S2 N6 H1N6 108(3) . .
C18 N7 C21 116.7(4) . .
C19 N8 C18 114.7(4) . .
C6 C1 C2 119.9(3) . .
C6 C1 S1 119.1(3) . .
C2 C1 S1 121.0(3) . .
C3 C2 C1 120.0(3) . .
C3 C2 H2 120.0 . .
C1 C2 H2 120.0 . .
C2 C3 C4 120.7(3) . .
C2 C3 H3 119.7 . .
C4 C3 H3 119.7 . .
N1 C4 C3 120.7(4) . .
N1 C4 C5 120.5(4) . .
C3 C4 C5 118.8(3) . .
C6 C5 C4 119.8(3) . .
C6 C5 H5 120.1 . .
C4 C5 H5 120.1 . .
C5 C6 C1 120.8(3) . .
C5 C6 H6 119.6 . .
C1 C6 H6 119.6 . .
N4 C7 N3 127.3(4) . .
N4 C7 N2 114.7(4) . .
N3 C7 N2 118.0(4) . .
N4 C8 C9 122.3(5) . .
N4 C8 H8 118.8 . .
C9 C8 H8 118.8 . .
C10 C9 C8 118.3(5) . .
C10 C9 H9 120.8 . .
C8 C9 H9 120.8 . .
N3 C10 C9 120.9(4) . .
N3 C10 C11 116.2(4) . .
C9 C10 C11 122.9(5) . .
C10 C11 H11A 109.5 . .
C10 C11 H11B 109.5 . .
H11A C11 H11B 109.5 . .
C10 C11 H11C 109.5 . .
H11A C11 H11C 109.5 . .
H11B C11 H11C 109.5 . .
C13 C12 C17 120.0(3) . .
C13 C12 S2 119.3(3) . .
C17 C12 S2 120.6(3) . .
C12 C13 C14 120.0(3) . .
C12 C13 H13 120.0 . .
C14 C13 H13 120.0 . .
C13 C14 C15 120.7(4) . .
C13 C14 H14 119.6 . .
C15 C14 H14 119.6 . .
N5 C15 C14 120.9(4) . .
N5 C15 C16 120.3(4) . .
C14 C15 C16 118.8(3) . .
C17 C16 C15 120.5(3) . .
C17 C16 H16 119.7 . .
C15 C16 H16 119.7 . .
C16 C17 C12 120.0(3) . .
C16 C17 H17 120.0 . .
C12 C17 H17 120.0 . .
N7 C18 N8 127.2(4) . .
N7 C18 N6 118.9(4) . .
N8 C18 N6 113.9(4) . .
N8 C19 C20 123.2(5) . .
N8 C19 H19 118.4 . .
C20 C19 H19 118.4 . .
C19 C20 C21 118.0(5) . .
C19 C20 H20 121.0 . .
C21 C20 H20 121.0 . .
N7 C21 C20 120.1(4) . .
N7 C21 C22 116.4(5) . .
C20 C21 C22 123.4(5) . .
C21 C22 H22A 109.5 . .
C21 C22 H22B 109.5 . .
H22A C22 H22B 109.5 . .
C21 C22 H22C 109.5 . .
H22A C22 H22C 109.5 . .
H22B C22 H22C 109.5 . .
loop_
_geom_bond_atom_site_label_1
_geom_bond_atom_site_label_2
_geom_bond_distance
_geom_bond_site_symmetry_2
S1 O1 1.427(3) .
S1 O2 1.429(3) .
S1 N2 1.646(4) .
S1 C1 1.738(4) .
S2 O4 1.428(3) .
S2 O3 1.435(3) .
S2 N6 1.647(4) .
S2 C12 1.730(4) .
N1 C4 1.354(5) .
N1 H1N1 0.82(5) .
N1 H2N1 0.87(6) .
N2 C7 1.387(5) .
N2 H1N2 0.78(4) .
N3 C7 1.327(5) .
N3 C10 1.341(5) .
N4 C7 1.325(6) .
N4 C8 1.343(6) .
N5 C15 1.365(5) .
N5 H5A 0.8600 .
N5 H5B 0.8600 .
N6 C18 1.380(5) .
N6 H1N6 0.94(5) .
N7 C18 1.325(5) .
N7 C21 1.345(6) .
N8 C19 1.332(6) .
N8 C18 1.334(6) .
C1 C6 1.387(5) .
C1 C2 1.394(5) .
C2 C3 1.372(5) .
C2 H2 0.9300 .
C3 C4 1.401(5) .
C3 H3 0.9300 .
C4 C5 1.413(5) .
C5 C6 1.370(5) .
C5 H5 0.9300 .
C6 H6 0.9300 .
C8 C9 1.366(7) .
C8 H8 0.9300 .
C9 C10 1.362(7) .
C9 H9 0.9300 .
C10 C11 1.494(6) .
C11 H11A 0.9600 .
C11 H11B 0.9600 .
C11 H11C 0.9600 .
C12 C13 1.379(5) .
C12 C17 1.391(5) .
C13 C14 1.382(6) .
C13 H13 0.9300 .
C14 C15 1.393(6) .
C14 H14 0.9300 .
C15 C16 1.393(5) .
C16 C17 1.379(5) .
C16 H16 0.9300 .
C17 H17 0.9300 .
C19 C20 1.360(7) .
C19 H19 0.9300 .
C20 C21 1.382(8) .
C20 H20 0.9300 .
C21 C22 1.485(7) .
C22 H22A 0.9600 .
C22 H22B 0.9600 .
C22 H22C 0.9600 .
loop_
_geom_torsion_atom_site_label_1
_geom_torsion_atom_site_label_2
_geom_torsion_atom_site_label_3
_geom_torsion_atom_site_label_4
_geom_torsion
_geom_torsion_site_symmetry_1
_geom_torsion_site_symmetry_2
_geom_torsion_site_symmetry_3
_geom_torsion_site_symmetry_4
O1 S1 N2 C7 60.2(4) . . . .
O2 S1 N2 C7 -172.7(4) . . . .
C1 S1 N2 C7 -57.5(4) . . . .
O4 S2 N6 C18 -56.2(4) . . . .
O3 S2 N6 C18 176.8(4) . . . .
C12 S2 N6 C18 62.0(4) . . . .
O1 S1 C1 C6 162.4(3) . . . .
O2 S1 C1 C6 30.1(4) . . . .
N2 S1 C1 C6 -80.1(4) . . . .
O1 S1 C1 C2 -17.7(4) . . . .
O2 S1 C1 C2 -150.0(3) . . . .
N2 S1 C1 C2 99.7(4) . . . .
C6 C1 C2 C3 0.1(6) . . . .
S1 C1 C2 C3 -179.8(3) . . . .
C1 C2 C3 C4 -0.7(6) . . . .
C2 C3 C4 N1 179.0(4) . . . .
C2 C3 C4 C5 1.0(6) . . . .
N1 C4 C5 C6 -178.6(4) . . . .
C3 C4 C5 C6 -0.7(7) . . . .
C4 C5 C6 C1 0.1(7) . . . .
C2 C1 C6 C5 0.2(7) . . . .
S1 C1 C6 C5 -179.9(4) . . . .
C8 N4 C7 N3 -0.6(7) . . . .
C8 N4 C7 N2 178.1(5) . . . .
C10 N3 C7 N4 -0.4(6) . . . .
C10 N3 C7 N2 -179.1(4) . . . .
S1 N2 C7 N4 166.1(4) . . . .
S1 N2 C7 N3 -15.0(6) . . . .
C7 N4 C8 C9 0.4(9) . . . .
N4 C8 C9 C10 0.7(10) . . . .
C7 N3 C10 C9 1.7(7) . . . .
C7 N3 C10 C11 -178.6(4) . . . .
C8 C9 C10 N3 -1.8(9) . . . .
C8 C9 C10 C11 178.4(6) . . . .
O4 S2 C12 C13 -157.5(3) . . . .
O3 S2 C12 C13 -25.6(4) . . . .
N6 S2 C12 C13 84.2(4) . . . .
O4 S2 C12 C17 22.3(4) . . . .
O3 S2 C12 C17 154.2(3) . . . .
N6 S2 C12 C17 -96.1(4) . . . .
C17 C12 C13 C14 -0.1(7) . . . .
S2 C12 C13 C14 179.7(4) . . . .
C12 C13 C14 C15 0.8(8) . . . .
C13 C14 C15 N5 179.0(5) . . . .
C13 C14 C15 C16 -1.1(7) . . . .
N5 C15 C16 C17 -179.3(4) . . . .
C14 C15 C16 C17 0.8(7) . . . .
C15 C16 C17 C12 -0.1(6) . . . .
C13 C12 C17 C16 -0.2(6) . . . .
S2 C12 C17 C16 180.0(3) . . . .
C21 N7 C18 N8 -1.7(6) . . . .
C21 N7 C18 N6 179.1(4) . . . .
C19 N8 C18 N7 2.9(7) . . . .
C19 N8 C18 N6 -177.9(5) . . . .
S2 N6 C18 N7 10.1(6) . . . .
S2 N6 C18 N8 -169.1(3) . . . .
C18 N8 C19 C20 -1.0(10) . . . .
N8 C19 C20 C21 -1.8(11) . . . .
C18 N7 C21 C20 -1.4(7) . . . .
C18 N7 C21 C22 179.0(5) . . . .
C19 C20 C21 N7 3.0(9) . . . .
C19 C20 C21 C22 -177.4(6) . . . .
