#------------------------------------------------------------------------------
#$Date: 2017-10-05 10:12:42 +0300 (Thu, 05 Oct 2017) $
#$Revision: 201709 $
#$URL: file:///home/coder/svn-repositories/cod/cif/1/54/75/1547558.cif $
#------------------------------------------------------------------------------
#
# This file is available in the Crystallography Open Database (COD),
# http://www.crystallography.net/
#
# All data on this site have been placed in the public domain by the
# contributors.
#
data_1547558
loop_
_publ_author_name
'Lee, Dabon'
'Kim, Sang Min'
'Hirao, Hajime'
'Hong, Soon Hyeok'
_publ_section_title
;
 Gold(I)/Gold(III)-Catalyzed Selective Synthesis of N-Sulfonyl Enaminone
 Isomers from Sulfonamides and Ynones via Two Distinct Reaction Pathways.
;
_journal_issue                   18
_journal_name_full               'Organic letters'
_journal_page_first              4734
_journal_page_last               4737
_journal_paper_doi               10.1021/acs.orglett.7b02022
_journal_volume                  19
_journal_year                    2017
_chemical_formula_moiety         'C17 H17 N O3 S'
_chemical_formula_sum            'C17 H17 N O3 S'
_chemical_formula_weight         315.37
_chemical_name_systematic
;
 ?
;
_space_group_crystal_system      monoclinic
_space_group_IT_number           14
_space_group_name_Hall           '-P 2ybc'
_space_group_name_H-M_alt        'P 1 21/c 1'
_symmetry_space_group_name_Hall  '-P 2ybc'
_symmetry_space_group_name_H-M   'P 1 21/c 1'
_atom_sites_solution_hydrogens   mixed
_atom_sites_solution_primary     direct
_audit_creation_date             2017-05-22
_audit_creation_method
;
Olex2 1.2
(compiled 2017.03.28 svn.r3405 for OlexSys, GUI svn.r5337)
;
_audit_update_record
;
2017-05-22 deposited with the CCDC.
2017-06-24 downloaded from the CCDC.
;
_cell_angle_alpha                90
_cell_angle_beta                 107.150(3)
_cell_angle_gamma                90
_cell_formula_units_Z            4
_cell_length_a                   9.8615(8)
_cell_length_b                   12.1461(10)
_cell_length_c                   14.1071(12)
_cell_measurement_reflns_used    7765
_cell_measurement_temperature    223(2)
_cell_measurement_theta_max      25.90
_cell_measurement_theta_min      2.26
_cell_volume                     1614.6(2)
_computing_cell_refinement       'SAINT v8.37A (Bruker, 2015)'
_computing_data_reduction        'SAINT v8.37A (Bruker, 2015)'
_computing_molecular_graphics    'Olex2 (Dolomanov et al., 2009)'
_computing_publication_material  'Olex2 (Dolomanov et al., 2009)'
_computing_structure_refinement  'ShelXL (Sheldrick, 2015)'
_computing_structure_solution    'ShelXS (Sheldrick, 2008)'
_diffrn_ambient_temperature      223.15
_diffrn_measured_fraction_theta_full 1.000
_diffrn_measured_fraction_theta_max 0.999
_diffrn_measurement_device_type  'PHOTON 100 CMOS'
_diffrn_measurement_method       '\f and \w scans'
_diffrn_radiation_monochromator  graphite
_diffrn_radiation_type           MoK\a
_diffrn_radiation_wavelength     0.71073
_diffrn_reflns_av_R_equivalents  0.1092
_diffrn_reflns_av_unetI/netI     0.0420
_diffrn_reflns_Laue_measured_fraction_full 1.000
_diffrn_reflns_Laue_measured_fraction_max 0.999
_diffrn_reflns_limit_h_max       13
_diffrn_reflns_limit_h_min       -12
_diffrn_reflns_limit_k_max       16
_diffrn_reflns_limit_k_min       -16
_diffrn_reflns_limit_l_max       18
_diffrn_reflns_limit_l_min       -18
_diffrn_reflns_number            52632
_diffrn_reflns_point_group_measured_fraction_full 1.000
_diffrn_reflns_point_group_measured_fraction_max 0.999
_diffrn_reflns_theta_full        26.000
_diffrn_reflns_theta_max         28.364
_diffrn_reflns_theta_min         2.161
_exptl_absorpt_coefficient_mu    0.212
_exptl_absorpt_correction_T_max  0.7457
_exptl_absorpt_correction_T_min  0.6933
_exptl_absorpt_correction_type   multi-scan
_exptl_absorpt_process_details
;
SADABS-2016/2 (Bruker,2016/2) was used for absorption correction.
wR2(int) was 0.1063 before and 0.0556 after correction.
The Ratio of minimum to maximum transmission is 0.9297.
The \l/2 correction factor is Not present.
;
_exptl_crystal_colour            colourless
_exptl_crystal_colour_primary    colourless
_exptl_crystal_density_diffrn    1.297
_exptl_crystal_description       Block
_exptl_crystal_F_000             664
_exptl_crystal_size_max          0.22
_exptl_crystal_size_mid          0.12
_exptl_crystal_size_min          0.06
_refine_diff_density_max         0.245
_refine_diff_density_min         -0.436
_refine_diff_density_rms         0.048
_refine_ls_extinction_method     none
_refine_ls_goodness_of_fit_ref   1.027
_refine_ls_hydrogen_treatment    mixed
_refine_ls_matrix_type           full
_refine_ls_number_parameters     205
_refine_ls_number_reflns         4030
_refine_ls_number_restraints     0
_refine_ls_restrained_S_all      1.027
_refine_ls_R_factor_all          0.1047
_refine_ls_R_factor_gt           0.0544
_refine_ls_shift/su_max          0.001
_refine_ls_shift/su_mean         0.000
_refine_ls_structure_factor_coef Fsqd
_refine_ls_weighting_details
'w=1/[\s^2^(Fo^2^)+(0.0410P)^2^+1.0970P] where P=(Fo^2^+2Fc^2^)/3'
_refine_ls_weighting_scheme      calc
_refine_ls_wR_factor_gt          0.1104
_refine_ls_wR_factor_ref         0.1290
_reflns_Friedel_coverage         0.000
_reflns_number_gt                2538
_reflns_number_total             4030
_reflns_threshold_expression     'I > 2\s(I)'
_iucr_refine_instructions_details
;
TITL No1 in P21/c #14
REM reset to P21/c #14
CELL 0.71073 9.8615 12.1461 14.1071 90 107.1503 90
ZERR 4 0.0008 0.001 0.0012 0 0.0029 0
LATT 1
SYMM -X,0.5+Y,0.5-Z
SFAC C H N O S
UNIT 68 68 4 12 4
 
L.S. 4
PLAN  20
SIZE 0.06 0.12 0.22
TEMP -50
BOND
fmap 2
MORE -1
BOND $H
ACTA 52
CONF
REM <olex2.extras>
REM <HklSrc "%.\\No1.hkl">
REM </olex2.extras>
 
WGHT    0.041000    1.097000
FVAR       0.16629
S1    5    0.714438    0.812644    0.127015    11.00000    0.03548    0.03399 =
         0.06831   -0.01711    0.00693   -0.00366
N1    3    0.699027    0.779871    0.010745    11.00000    0.03319    0.04050 =
         0.06125   -0.00188    0.01944   -0.00579
C2    1    0.728609    0.687727    0.191069    11.00000    0.03192    0.04166 =
         0.04163   -0.01732    0.00490   -0.00205
O4    4    0.589643    0.867897    0.132351    11.00000    0.04981    0.04754 =
         0.07287   -0.01857    0.01063    0.01239
C5    1    0.595420    0.707092   -0.045656    11.00000    0.03294    0.03391 =
         0.03852    0.00689    0.01101   -0.00161
C6    1    0.350743    0.646520   -0.057126    11.00000    0.03797    0.03707 =
         0.04170    0.00315    0.01078   -0.00124
AFIX  43
H6    2    0.384735    0.573953   -0.045562    11.00000   -1.20000
AFIX   0
O7    4    0.848256    0.867497    0.158487    11.00000    0.04731    0.04336 =
         0.10688   -0.01974    0.00277   -0.01632
C8    1    0.444276    0.731622   -0.056848    11.00000    0.03264    0.03643 =
         0.03256    0.00450    0.01081    0.00168
C10   1    0.852167    0.627233    0.208030    11.00000    0.02976    0.05474 =
         0.05294   -0.00428    0.00888    0.00112
AFIX  43
H10   2    0.927611    0.653961    0.186557    11.00000   -1.20000
AFIX   0
C11   1    0.248967    0.858191   -0.093307    11.00000    0.04790    0.04941 =
         0.05249    0.01497    0.01575    0.01631
AFIX  43
H11   2    0.213862    0.930297   -0.106533    11.00000   -1.20000
AFIX   0
C12   1    0.392640    0.838385   -0.074563    11.00000    0.04270    0.03980 =
         0.04767    0.01038    0.01602    0.00404
AFIX  43
H12   2    0.455127    0.897040   -0.073823    11.00000   -1.20000
AFIX   0
C13   1    0.157232    0.773230   -0.092727    11.00000    0.03474    0.07348 =
         0.04217    0.00866    0.00987    0.01017
AFIX  43
H13   2    0.059880    0.787452   -0.104955    11.00000   -1.20000
AFIX   0
C14   1    0.618074    0.649369    0.224499    11.00000    0.03358    0.05728 =
         0.05204   -0.02146    0.01300    0.00011
AFIX  43
H14   2    0.534285    0.690682    0.213738    11.00000   -1.20000
AFIX   0
C15   1    0.754108    0.486803    0.288998    11.00000    0.05085    0.06874 =
         0.03257    0.00249    0.00927    0.00088
C18   1    0.864351    0.527784    0.256442    11.00000    0.03643    0.06449 =
         0.05059    0.00302    0.00610    0.00985
AFIX  43
H18   2    0.948520    0.486850    0.267711    11.00000   -1.20000
AFIX   0
C19   1    0.207650    0.667502   -0.074294    11.00000    0.03624    0.05604 =
         0.04822    0.00228    0.01095   -0.00764
AFIX  43
H19   2    0.144971    0.609489   -0.073350    11.00000   -1.20000
AFIX   0
C20   1    0.632848    0.550044    0.273604    11.00000    0.04950    0.06690 =
         0.04340   -0.00912    0.02165   -0.00437
AFIX  43
H20   2    0.558770    0.524618    0.297222    11.00000   -1.20000
AFIX   0
C21   1    0.766433    0.374425    0.337050    11.00000    0.09037    0.09265 =
         0.06754    0.03360    0.02764    0.01288
AFIX 137
H21A  2    0.746001    0.318036    0.286099    11.00000   -1.50000
H21B  2    0.699213    0.368809    0.375045    11.00000   -1.50000
H21C  2    0.861986    0.364376    0.380816    11.00000   -1.50000
AFIX   0
O1    4    0.882243    0.644850   -0.039310    11.00000    0.03889    0.07605 =
         0.08427   -0.00398    0.02749    0.00103
C0AA  1    0.634145    0.621871   -0.093222    11.00000    0.03821    0.04424 =
         0.03977   -0.00031    0.01309    0.00183
AFIX  43
H0AA  2    0.561031    0.578960   -0.134559    11.00000   -1.20000
AFIX   0
C3    1    0.779347    0.590510   -0.086139    11.00000    0.04413    0.05422 =
         0.04611    0.00965    0.02011    0.00862
C1    1    0.799826    0.487405   -0.138801    11.00000    0.06611    0.07008 =
         0.05673    0.00256    0.03013    0.02333
AFIX 137
H1A   2    0.777639    0.501963   -0.209338    11.00000   -1.50000
H1B   2    0.737438    0.430273   -0.127754    11.00000   -1.50000
H1C   2    0.897647    0.463298   -0.113370    11.00000   -1.50000
AFIX   0
H1    2    0.782497    0.763569    0.002459    11.00000    0.05457
HKLF 4
 
REM  No1 in P21/c #14
REM R1 =  0.0544 for    2538 Fo > 4sig(Fo)  and  0.1047 for all    4030 data
REM    205 parameters refined using      0 restraints
 
END  
     
WGHT      0.0408      1.0967 

REM Highest difference peak  0.245,  deepest hole -0.436,  1-sigma level  0.048
Q1    1   0.5142  0.7226 -0.0624  11.00000  0.05    0.25
Q2    1   0.7628  0.4413  0.3644  11.00000  0.05    0.20
Q3    1   0.6206  0.8861  0.0872  11.00000  0.05    0.20
Q4    1   0.4255  0.7835 -0.0620  11.00000  0.05    0.20
Q5    1   0.6934  0.6592  0.1783  11.00000  0.05    0.20
Q6    1   0.8544  0.8776  0.1003  11.00000  0.05    0.19
Q7    1   0.7007  0.6062 -0.0972  11.00000  0.05    0.19
Q8    1   0.7864  0.6651  0.2183  11.00000  0.05    0.19
Q9    1   0.7365  0.7441  0.1843  11.00000  0.05    0.19
Q10   1   0.6556  0.6181  0.2814  11.00000  0.05    0.19
Q11   1   0.6450  0.7383 -0.0126  11.00000  0.05    0.18
Q12   1   0.4008  0.6953 -0.0843  11.00000  0.05    0.18
Q13   1   0.6986  0.6935  0.2322  11.00000  0.05    0.18
Q14   1   0.7323  0.3659  0.3297  11.00000  0.05    0.18
Q15   1   0.6192  0.6490 -0.0456  11.00000  0.05    0.18
Q16   1   0.7361  0.8203  0.0749  11.00000  0.05    0.18
Q17   1   0.8176  0.8329  0.1514  11.00000  0.05    0.18
Q18   1   0.6196  0.8211  0.1305  11.00000  0.05    0.18
Q19   1   0.2768  0.6653 -0.0878  11.00000  0.05    0.18
Q20   1   0.8326  0.4167  0.4122  11.00000  0.05    0.18

  REM The information below was added by Olex2.
  REM
  REM R1 = 0.0544 for 2538 Fo > 4sig(Fo) and 0.1047 for all 53971 data
  REM n/a parameters refined using n/a restraints
  REM Highest difference peak 0.25, deepest hole -0.44
  REM Mean Shift 0, Max Shift 0.001.
  
  REM +++ Tabular Listing of Refinement Information +++
  REM R1_all = 0.1047
  REM R1_gt = 0.0544
  REM wR_ref = 0.1290
  REM GOOF = 1.027
  REM Shift_max = 0.001
  REM Shift_mean = 0
  REM Reflections_all = 53971
  REM Reflections_gt = 2538
  REM Parameters = n/a
  REM Hole = -0.44
  REM Peak = 0.25
  REM Flack = n/a
;
_cod_data_source_file            ol7b02022_si_002.cif
_cod_data_source_block           no1
_cod_database_code               1547558
_shelxl_version_number           2014-1
_shelx_space_group_comment
;
The symmetry employed for this shelxl refinement is uniquely defined
by the following loop, which should always be used as a source of
symmetry information in preference to the above space-group names.
They are only intended as comments.
;
_shelx_estimated_absorpt_t_max   0.987
_shelx_estimated_absorpt_t_min   0.955
_olex2_refinement_description
;
1. Others
 Fixed Uiso: H6(0.047) H10(0.056) H11(0.06) H12(0.051) H13(0.061) H14(0.057)
 H18(0.062) H19(0.057) H20(0.062) H21A(0.124) H21B(0.124) H21C(0.124)
 H0AA(0.048) H1A(0.093) H1B(0.093) H1C(0.093)
 Fixed X: H6(0.3847) H10(0.9276) H11(0.2139) H12(0.4551) H13(0.0599)
 H14(0.5343) H18(0.9485) H19(0.145) H20(0.5588) H21A(0.746) H21B(0.6992)
 H21C(0.862) H0AA(0.561) H1A(0.7776) H1B(0.7374) H1C(0.8976)
 Fixed Y: H6(0.574) H10(0.654) H11(0.9303) H12(0.897) H13(0.7875) H14(0.6907)
 H18(0.4868) H19(0.6095) H20(0.5246) H21A(0.318) H21B(0.3688) H21C(0.3644)
 H0AA(0.579) H1A(0.502) H1B(0.4303) H1C(0.4633)
 Fixed Z: H6(-0.0456) H10(0.1866) H11(-0.1065) H12(-0.0738) H13(-0.105)
 H14(0.2137) H18(0.2677) H19(-0.0733) H20(0.2972) H21A(0.2861) H21B(0.375)
 H21C(0.3808) H0AA(-0.1346) H1A(-0.2093) H1B(-0.1278) H1C(-0.1134)
;
_olex2_submission_special_instructions 'No special instructions were received'
loop_
_space_group_symop_operation_xyz
'x, y, z'
'-x, y+1/2, -z+1/2'
'-x, -y, -z'
'x, -y-1/2, z-1/2'
loop_
_atom_site_label
_atom_site_type_symbol
_atom_site_fract_x
_atom_site_fract_y
_atom_site_fract_z
_atom_site_U_iso_or_equiv
_atom_site_adp_type
_atom_site_occupancy
_atom_site_site_symmetry_order
_atom_site_calc_flag
_atom_site_refinement_flags_posn
S1 S 0.71444(6) 0.81264(5) 0.12702(5) 0.04773(19) Uani 1 1 d .
N1 N 0.6990(2) 0.77987(16) 0.01074(15) 0.0438(5) Uani 1 1 d .
C2 C 0.7286(2) 0.68773(18) 0.19107(16) 0.0397(5) Uani 1 1 d .
O4 O 0.58964(18) 0.86790(14) 0.13235(14) 0.0583(5) Uani 1 1 d .
C5 C 0.5954(2) 0.70709(17) -0.04566(16) 0.0350(5) Uani 1 1 d .
C6 C 0.3507(2) 0.64652(19) -0.05713(16) 0.0391(5) Uani 1 1 d .
H6 H 0.3847 0.5740 -0.0456 0.047 Uiso 1 1 calc R
O7 O 0.84826(18) 0.86750(14) 0.15849(16) 0.0702(6) Uani 1 1 d .
C8 C 0.4443(2) 0.73162(17) -0.05685(15) 0.0336(5) Uani 1 1 d .
C10 C 0.8522(2) 0.6272(2) 0.20803(18) 0.0465(6) Uani 1 1 d .
H10 H 0.9276 0.6540 0.1866 0.056 Uiso 1 1 calc R
C11 C 0.2490(3) 0.8582(2) -0.09331(18) 0.0497(6) Uani 1 1 d .
H11 H 0.2139 0.9303 -0.1065 0.060 Uiso 1 1 calc R
C12 C 0.3926(2) 0.83839(19) -0.07456(17) 0.0428(6) Uani 1 1 d .
H12 H 0.4551 0.8970 -0.0738 0.051 Uiso 1 1 calc R
C13 C 0.1572(2) 0.7732(2) -0.09273(17) 0.0504(6) Uani 1 1 d .
H13 H 0.0599 0.7875 -0.1050 0.061 Uiso 1 1 calc R
C14 C 0.6181(2) 0.6494(2) 0.22450(18) 0.0476(6) Uani 1 1 d .
H14 H 0.5343 0.6907 0.2137 0.057 Uiso 1 1 calc R
C15 C 0.7541(3) 0.4868(2) 0.28900(17) 0.0514(6) Uani 1 1 d .
C18 C 0.8644(2) 0.5278(2) 0.25644(18) 0.0520(6) Uani 1 1 d .
H18 H 0.9485 0.4868 0.2677 0.062 Uiso 1 1 calc R
C19 C 0.2077(2) 0.6675(2) -0.07429(17) 0.0472(6) Uani 1 1 d .
H19 H 0.1450 0.6095 -0.0733 0.057 Uiso 1 1 calc R
C20 C 0.6328(3) 0.5500(2) 0.27360(18) 0.0516(6) Uani 1 1 d .
H20 H 0.5588 0.5246 0.2972 0.062 Uiso 1 1 calc R
C21 C 0.7664(4) 0.3744(3) 0.3371(2) 0.0826(10) Uani 1 1 d .
H21A H 0.7460 0.3180 0.2861 0.124 Uiso 1 1 calc GR
H21B H 0.6992 0.3688 0.3750 0.124 Uiso 1 1 calc GR
H21C H 0.8620 0.3644 0.3808 0.124 Uiso 1 1 calc GR
O1 O 0.88224(18) 0.64485(17) -0.03931(15) 0.0644(5) Uani 1 1 d .
C0AA C 0.6341(2) 0.62187(19) -0.09322(16) 0.0404(5) Uani 1 1 d .
H0AA H 0.5610 0.5790 -0.1346 0.048 Uiso 1 1 calc R
C3 C 0.7793(3) 0.5905(2) -0.08614(18) 0.0467(6) Uani 1 1 d .
C1 C 0.7998(3) 0.4874(2) -0.1388(2) 0.0617(7) Uani 1 1 d .
H1A H 0.7776 0.5020 -0.2093 0.093 Uiso 1 1 calc GR
H1B H 0.7374 0.4303 -0.1278 0.093 Uiso 1 1 calc GR
H1C H 0.8976 0.4633 -0.1134 0.093 Uiso 1 1 calc GR
H1 H 0.782(3) 0.764(2) 0.0025(18) 0.055(7) Uiso 1 1 d .
loop_
_atom_site_aniso_label
_atom_site_aniso_U_11
_atom_site_aniso_U_22
_atom_site_aniso_U_33
_atom_site_aniso_U_23
_atom_site_aniso_U_13
_atom_site_aniso_U_12
S1 0.0355(3) 0.0340(3) 0.0683(4) -0.0171(3) 0.0069(3) -0.0037(2)
N1 0.0332(10) 0.0405(11) 0.0612(13) -0.0019(9) 0.0194(9) -0.0058(9)
C2 0.0319(11) 0.0417(12) 0.0416(13) -0.0173(10) 0.0049(9) -0.0020(10)
O4 0.0498(10) 0.0475(10) 0.0729(12) -0.0186(9) 0.0106(9) 0.0124(8)
C5 0.0329(11) 0.0339(11) 0.0385(12) 0.0069(9) 0.0110(9) -0.0016(9)
C6 0.0380(12) 0.0371(12) 0.0417(13) 0.0031(10) 0.0108(10) -0.0012(10)
O7 0.0473(10) 0.0434(10) 0.1069(16) -0.0197(10) 0.0028(10) -0.0163(8)
C8 0.0326(11) 0.0364(11) 0.0326(11) 0.0045(9) 0.0108(9) 0.0017(9)
C10 0.0298(12) 0.0547(15) 0.0529(15) -0.0043(12) 0.0089(10) 0.0011(10)
C11 0.0479(14) 0.0494(14) 0.0525(15) 0.0150(12) 0.0158(12) 0.0163(12)
C12 0.0427(13) 0.0398(13) 0.0477(14) 0.0104(10) 0.0160(11) 0.0040(10)
C13 0.0347(12) 0.0735(18) 0.0422(14) 0.0087(13) 0.0099(10) 0.0102(12)
C14 0.0336(12) 0.0573(15) 0.0520(15) -0.0215(12) 0.0130(11) 0.0001(11)
C15 0.0508(15) 0.0687(17) 0.0326(13) 0.0025(12) 0.0093(11) 0.0009(13)
C18 0.0364(13) 0.0645(17) 0.0506(15) 0.0030(13) 0.0061(11) 0.0098(12)
C19 0.0362(12) 0.0560(16) 0.0482(15) 0.0023(12) 0.0110(10) -0.0076(11)
C20 0.0495(15) 0.0669(18) 0.0434(14) -0.0091(13) 0.0217(12) -0.0044(13)
C21 0.090(2) 0.093(3) 0.068(2) 0.0336(19) 0.0276(18) 0.0129(19)
O1 0.0389(10) 0.0761(13) 0.0843(14) -0.0040(11) 0.0275(10) 0.0010(9)
C0AA 0.0382(12) 0.0442(13) 0.0398(13) -0.0003(10) 0.0131(10) 0.0018(10)
C3 0.0441(14) 0.0542(15) 0.0461(14) 0.0096(12) 0.0201(12) 0.0086(12)
C1 0.0661(17) 0.0701(19) 0.0567(17) 0.0026(14) 0.0301(14) 0.0233(15)
loop_
_atom_type_symbol
_atom_type_description
_atom_type_scat_dispersion_real
_atom_type_scat_dispersion_imag
_atom_type_scat_source
C C 0.0033 0.0016 'International Tables Vol C Tables 4.2.6.8 and 6.1.1.4'
H H 0.0000 0.0000 'International Tables Vol C Tables 4.2.6.8 and 6.1.1.4'
N N 0.0061 0.0033 'International Tables Vol C Tables 4.2.6.8 and 6.1.1.4'
O O 0.0106 0.0060 'International Tables Vol C Tables 4.2.6.8 and 6.1.1.4'
S S 0.1246 0.1234 'International Tables Vol C Tables 4.2.6.8 and 6.1.1.4'
loop_
_geom_angle_atom_site_label_1
_geom_angle_atom_site_label_2
_geom_angle_atom_site_label_3
_geom_angle
N1 S1 C2 105.90(10)
O4 S1 N1 109.79(11)
O4 S1 C2 108.67(11)
O4 S1 O7 119.87(11)
O7 S1 N1 103.15(12)
O7 S1 C2 108.56(11)
S1 N1 H1 111.6(16)
C5 N1 S1 123.52(15)
C5 N1 H1 109.4(16)
C10 C2 S1 118.84(18)
C10 C2 C14 120.2(2)
C14 C2 S1 120.97(18)
N1 C5 C8 118.28(19)
C0AA C5 N1 119.92(19)
C0AA C5 C8 121.65(19)
C8 C6 H6 119.8
C19 C6 H6 119.8
C19 C6 C8 120.5(2)
C6 C8 C5 119.90(19)
C6 C8 C12 119.2(2)
C12 C8 C5 120.72(19)
C2 C10 H10 120.1
C18 C10 C2 119.8(2)
C18 C10 H10 120.1
C12 C11 H11 119.8
C13 C11 H11 119.8
C13 C11 C12 120.5(2)
C8 C12 H12 120.1
C11 C12 C8 119.8(2)
C11 C12 H12 120.1
C11 C13 H13 120.0
C11 C13 C19 120.1(2)
C19 C13 H13 120.0
C2 C14 H14 120.4
C20 C14 C2 119.2(2)
C20 C14 H14 120.4
C18 C15 C21 120.2(2)
C20 C15 C18 118.2(2)
C20 C15 C21 121.5(2)
C10 C18 C15 121.1(2)
C10 C18 H18 119.5
C15 C18 H18 119.5
C6 C19 H19 120.0
C13 C19 C6 119.9(2)
C13 C19 H19 120.0
C14 C20 C15 121.6(2)
C14 C20 H20 119.2
C15 C20 H20 119.2
C15 C21 H21A 109.5
C15 C21 H21B 109.5
C15 C21 H21C 109.5
H21A C21 H21B 109.5
H21A C21 H21C 109.5
H21B C21 H21C 109.5
C5 C0AA H0AA 117.1
C5 C0AA C3 125.7(2)
C3 C0AA H0AA 117.1
O1 C3 C0AA 122.4(2)
O1 C3 C1 120.3(2)
C0AA C3 C1 117.2(2)
C3 C1 H1A 109.5
C3 C1 H1B 109.5
C3 C1 H1C 109.5
H1A C1 H1B 109.5
H1A C1 H1C 109.5
H1B C1 H1C 109.5
loop_
_geom_bond_atom_site_label_1
_geom_bond_atom_site_label_2
_geom_bond_distance
S1 N1 1.651(2)
S1 C2 1.750(2)
S1 O4 1.4231(17)
S1 O7 1.4272(17)
N1 C5 1.407(3)
N1 H1 0.89(3)
C2 C10 1.382(3)
C2 C14 1.390(3)
C5 C8 1.482(3)
C5 C0AA 1.349(3)
C6 H6 0.9400
C6 C8 1.385(3)
C6 C19 1.383(3)
C8 C12 1.389(3)
C10 H10 0.9400
C10 C18 1.375(4)
C11 H11 0.9400
C11 C12 1.384(3)
C11 C13 1.374(4)
C12 H12 0.9400
C13 H13 0.9400
C13 C19 1.374(3)
C14 H14 0.9400
C14 C20 1.377(4)
C15 C18 1.391(3)
C15 C20 1.383(3)
C15 C21 1.513(4)
C18 H18 0.9400
C19 H19 0.9400
C20 H20 0.9400
C21 H21A 0.9700
C21 H21B 0.9700
C21 H21C 0.9700
O1 C3 1.227(3)
C0AA H0AA 0.9400
C0AA C3 1.456(3)
C3 C1 1.500(4)
C1 H1A 0.9700
C1 H1B 0.9700
C1 H1C 0.9700
loop_
_geom_torsion_atom_site_label_1
_geom_torsion_atom_site_label_2
_geom_torsion_atom_site_label_3
_geom_torsion_atom_site_label_4
_geom_torsion
S1 N1 C5 C8 56.1(3)
S1 N1 C5 C0AA -128.3(2)
S1 C2 C10 C18 -178.68(19)
S1 C2 C14 C20 179.26(18)
N1 S1 C2 C10 71.30(19)
N1 S1 C2 C14 -108.66(19)
N1 C5 C8 C6 -142.6(2)
N1 C5 C8 C12 42.2(3)
N1 C5 C0AA C3 5.3(3)
C2 S1 N1 C5 54.1(2)
C2 C10 C18 C15 -0.1(4)
C2 C14 C20 C15 -1.1(4)
O4 S1 N1 C5 -63.0(2)
O4 S1 C2 C10 -170.81(17)
O4 S1 C2 C14 9.2(2)
C5 C8 C12 C11 174.4(2)
C5 C0AA C3 O1 -4.7(4)
C5 C0AA C3 C1 175.2(2)
C6 C8 C12 C11 -0.7(3)
O7 S1 N1 C5 168.11(18)
O7 S1 C2 C10 -38.9(2)
O7 S1 C2 C14 141.15(19)
C8 C5 C0AA C3 -179.3(2)
C8 C6 C19 C13 1.0(3)
C10 C2 C14 C20 -0.7(3)
C11 C13 C19 C6 -0.5(4)
C12 C11 C13 C19 -0.6(4)
C13 C11 C12 C8 1.2(4)
C14 C2 C10 C18 1.3(3)
C18 C15 C20 C14 2.2(4)
C19 C6 C8 C5 -175.6(2)
C19 C6 C8 C12 -0.3(3)
C20 C15 C18 C10 -1.6(4)
C21 C15 C18 C10 176.6(3)
C21 C15 C20 C14 -176.0(3)
C0AA C5 C8 C6 41.8(3)
C0AA C5 C8 C12 -133.3(2)
loop_
_refln_index_h
_refln_index_k
_refln_index_l
_refln_F_squared_meas
_refln_F_squared_sigma
1 0 0 116.89 2.31
1 0 0 111.85 2.32
1 0 0 110.17 2.35
1 0 0 103.28 2.28
2 0 0 1000 19.89
-2 0 0 986.05 19.82
-2 0 0 938.09 19.65
-2 0 0 913.75 19.58
2 0 0 920.53 19.57
-2 0 0 985.13 19.85
2 0 0 960.48 19.74
2 0 0 982.44 20.07
2 0 0 974.43 19.8
-3 0 0 12.72 0.41
-3 0 0 13.1 0.4
-3 0 0 12.82 0.41
3 0 0 12.97 0.4
3 0 0 13.2 0.4
3 0 0 12.34 0.35
3 0 0 13.42 0.41
3 0 0 12.57 0.46
-3 0 0 12.37 0.35
-4 0 0 63.72 1.48
-4 0 0 65.23 1.41
4 0 0 66.12 1.51
4 0 0 63.04 1.47
-4 0 0 65.24 1.49
-4 0 0 63.31 1.49
4 0 0 62.85 1.41
4 0 0 64.94 1.48
4 0 0 66.33 1.59
5 0 0 9.48 0.41
-5 0 0 9.07 0.39
5 0 0 9.66 0.5
-5 0 0 9.86 0.46
5 0 0 9.17 0.46
5 0 0 9.93 0.38
5 0 0 10.09 0.46
-5 0 0 8.91 0.47
6 0 0 17.18 0.59
6 0 0 20.65 0.67
6 0 0 16.55 0.71
-6 0 0 18.23 0.63
6 0 0 17.78 0.67
6 0 0 18.04 0.7
-6 0 0 18.37 0.71
7 0 0 39.34 1.05
-7 0 0 40.8 1.21
7 0 0 39.89 1.24
7 0 0 38.92 1.17
7 0 0 40.28 1.15
7 0 0 40.82 1.17
-7 0 0 39.79 1.12
8 0 0 11.06 0.77
8 0 0 13.05 0.62
-8 0 0 10.97 0.58
-8 0 0 11.84 0.78
8 0 0 10.71 0.62
-8 0 0 10.71 0.85
9 0 0 10.81 0.65
9 0 0 10.67 0.7
-9 0 0 10.28 0.63
-9 0 0 9.56 0.87
9 0 0 10.38 0.81
9 0 0 10.84 1.02
10 0 0 0.62 0.72
10 0 0 0.78 0.7
10 0 0 -0.04 0.73
-10 0 0 0.23 0.4
-10 0 0 0.24 0.71
10 0 0 0.72 0.35
-10 0 0 0.46 0.35
-11 0 0 -0.2 0.9
11 0 0 0.19 0.43
11 0 0 0.36 0.78
11 0 0 0.55 0.92
11 0 0 0.38 0.97
11 0 0 -0.53 0.38
-12 0 0 6.7 1.21
12 0 0 5.84 1.08
1 -1 0 270.61 5.73
1 -1 0 262.64 5.65
-1 -1 0 270.4 5.67
-1 -1 0 279.74 5.64
1 1 0 269.18 5.75
1 1 0 269.47 5.58
1 1 0 273.34 5.63
-1 1 0 275.49 5.62
1 1 0 284.78 5.74
-1 1 0 274.94 5.66
-2 -1 0 36.4 0.83
-2 -1 0 37.09 0.84
2 -1 0 37.19 0.84
2 -1 0 36.32 0.91
2 -1 0 36.31 0.98
2 -1 0 37.8 0.85
-2 -1 0 35.39 0.82
-2 1 0 36.75 0.81
2 1 0 34.88 0.82
2 1 0 38.43 0.83
2 1 0 38.16 0.83
2 1 0 36.65 0.86
-2 1 0 37.25 0.91
-2 1 0 38.34 0.99
3 -1 0 4.64 0.26
3 -1 0 5.34 0.28
-3 -1 0 5.07 0.22
3 -1 0 5.11 0.27
-3 -1 0 5.19 0.27
3 -1 0 5.02 0.34
-3 -1 0 5.16 0.25
3 -1 0 4.66 0.21
-3 1 0 5 0.28
-3 1 0 4.95 0.21
-3 1 0 4.93 0.27
-3 1 0 5.06 0.36
3 1 0 4.78 0.28
3 1 0 5.28 0.22
3 1 0 5.24 0.24
3 1 0 4.73 0.22
-4 -1 0 55.04 1.3
-4 -1 0 56.59 1.29
4 -1 0 55.68 1.31
4 -1 0 58.38 1.4
-4 -1 0 55.46 1.31
4 -1 0 57.29 1.5
4 -1 0 55.71 1.24
4 -1 0 56.73 1.33
-4 1 0 57.13 1.34
4 1 0 54.68 1.3
4 1 0 54.47 1.36
4 1 0 54.95 1.29
-4 1 0 56.4 1.37
-4 1 0 57.27 1.5
-4 1 0 55.78 1.24
4 1 0 57.8 1.3
4 1 0 54.8 1.25
-5 -1 0 5.03 0.36
5 -1 0 4.99 0.3
5 -1 0 4.79 0.35
5 -1 0 4.77 0.37
-5 -1 0 4.4 0.39
5 -1 0 4.68 0.44
5 -1 0 5 0.39
-5 -1 0 4.87 0.28
-5 1 0 4.9 0.49
5 1 0 4.62 0.36
5 1 0 4.71 0.36
5 1 0 4.97 0.29
-5 1 0 4.81 0.32
5 1 0 5.17 0.31
-5 1 0 4.36 0.4
5 1 0 5.42 0.42
-5 1 0 4.39 0.31
6 -1 0 50.43 1.2
-6 -1 0 49.85 1.34
6 -1 0 52.94 1.51
6 -1 0 50.47 1.33
6 -1 0 50.48 1.38
-6 -1 0 49.76 1.32
-6 -1 0 50.33 1.32
-6 -1 0 49.13 1.24
6 -1 0 51.35 1.32
6 1 0 51.45 1.27
6 1 0 49.38 1.38
-6 1 0 50.81 1.51
-6 1 0 50.75 1.2
-6 1 0 49.56 1.34
6 1 0 50.48 1.31
6 1 0 51.83 1.29
-6 1 0 50.02 1.33
6 1 0 45.93 1.35
6 1 0 49.36 1.21
-7 -1 0 8.71 0.55
7 -1 0 8.15 0.66
-7 -1 0 8.54 0.66
7 -1 0 8.23 0.52
-7 -1 0 8.32 0.45
7 -1 0 8.42 0.63
7 -1 0 8.56 0.63
7 1 0 7.78 0.61
7 1 0 8.09 0.68
7 1 0 8.14 0.45
-7 1 0 9.24 0.69
-7 1 0 8.05 0.72
7 1 0 7.39 0.48
-7 1 0 7.41 0.51
7 1 0 8.8 0.59
8 -1 0 34.75 1.16
-8 -1 0 35.68 1.03
-8 -1 0 35.92 1.24
-8 -1 0 35.48 1.12
8 -1 0 35.29 1.28
-8 1 0 37.09 1.28
8 1 0 36.25 1.05
-8 1 0 35.92 1.13
8 1 0 32.06 1.61
8 1 0 35.85 1.05
8 1 0 35.71 1.17
-9 -1 0 1.54 0.32
-9 -1 0 0.91 0.54
9 -1 0 1.84 0.43
9 -1 0 1.43 0.47
9 1 0 2.06 0.34
9 1 0 0.73 0.56
-9 1 0 1.51 0.34
9 1 0 1.44 0.43
9 1 0 1.52 0.6
-9 1 0 0.58 0.57
9 1 0 2.32 0.34
10 -1 0 4.77 0.67
-10 -1 0 3.49 0.74
10 -1 0 3.07 0.5
10 -1 0 1.89 0.71
10 1 0 3.7 0.41
10 1 0 3.13 0.55
10 1 0 2.91 0.7
10 1 0 3.32 0.8
10 1 0 3.55 0.46
-10 1 0 3.92 0.5
-10 1 0 3.72 0.85
10 1 0 3.28 0.77
11 -1 0 7.07 0.87
-11 -1 0 7.05 0.99
11 -1 0 8.87 1.19
11 -1 0 8.32 1.02
11 -1 0 7.63 0.9
11 -1 0 6.5 0.76
11 1 0 8.01 1.14
-11 1 0 7.32 1.08
11 1 0 7.71 0.73
11 1 0 7.13 1.08
-11 1 0 7.84 0.79
11 1 0 7.65 0.99
12 -1 0 -1.25 0.91
12 -1 0 -0.15 0.52
-12 -1 0 -0.12 1.11
-12 1 0 1.71 1.16
12 1 0 -1.62 1.07
0 -2 0 236.3 4.77
0 -2 0 239.11 4.65
0 -2 0 218.63 4.81
0 2 0 216.91 4.81
0 2 0 231.85 4.77
-1 -2 0 74.68 1.61
1 -2 0 76.61 1.74
1 -2 0 77.36 1.55
-1 -2 0 76.53 1.57
-1 -2 0 74.94 1.71
1 -2 0 76.19 1.8
-1 -2 0 75.41 1.68
-1 2 0 74.94 1.73
-1 2 0 75.16 1.81
-1 2 0 78.69 1.61
1 2 0 72.64 1.61
1 2 0 76.28 1.68
1 2 0 75.42 1.54
1 2 0 76.77 1.71
-2 -2 0 7.08 0.3
-2 -2 0 6.78 0.28
2 -2 0 7.13 0.34
2 -2 0 6.6 0.4
-2 -2 0 6.74 0.24
2 2 0 6.82 0.22
-2 2 0 6.6 0.43
2 2 0 6.7 0.24
-2 2 0 6.8 0.33
2 2 0 6.98 0.27
2 2 0 7.03 0.29
-2 2 0 6.95 0.28
2 2 0 6.75 0.27
3 -2 0 32.71 0.82
-3 -2 0 30.59 0.84
-3 -2 0 32.13 0.76
3 -2 0 32.87 1.03
-3 -2 0 31.87 0.81
3 -2 0 31.89 0.79
-3 -2 0 32.81 0.79
3 -2 0 32.49 0.92
3 2 0 32.1 0.83
-3 2 0 31.42 0.76
-3 2 0 32.26 0.92
3 2 0 32.9 0.8
-3 2 0 34.1 0.83
-3 2 0 31.83 1.02
3 2 0 31.76 0.76
3 2 0 32.32 0.78
-4 -2 0 0.9 0.16
-4 -2 0 0.89 0.19
4 -2 0 0.74 0.18
4 -2 0 0.93 0.27
4 -2 0 0.75 0.2
-4 -2 0 0.63 0.16
4 -2 0 0.94 0.22
4 2 0 0.75 0.19
4 2 0 0.73 0.15
4 2 0 1.02 0.19
-4 2 0 0.9 0.2
4 2 0 0.51 0.18
-4 2 0 0.64 0.28
-4 2 0 0.86 0.21
4 2 0 1.09 0.15
-4 2 0 0.97 0.15
-5 -2 0 20.24 0.67
-5 -2 0 21.1 0.66
5 -2 0 20.8 0.89
5 -2 0 20.65 0.67
5 -2 0 19.93 0.68
5 -2 0 20.65 0.75
-5 -2 0 19.85 0.67
-5 -2 0 20.29 0.62
5 2 0 21.33 0.61
-5 2 0 21.12 0.74
5 2 0 20.26 0.67
5 2 0 19.8 0.64
-5 2 0 21.02 0.6
-5 2 0 19 0.69
-5 2 0 20.23 0.9
5 2 0 20.94 0.63
5 2 0 19.78 0.61
5 2 0 21.14 0.73
-6 -2 0 2.08 0.27
6 -2 0 2.01 0.34
-6 -2 0 2.12 0.27
-6 -2 0 2.06 0.32
6 -2 0 2.82 0.36
-6 -2 0 2.51 0.36
6 -2 0 2.43 0.35
6 -2 0 2.27 0.43
-6 2 0 2.59 0.33
6 2 0 1.62 0.26
-6 2 0 2.54 0.26
6 2 0 2.08 0.32
-6 2 0 2.18 0.45
6 2 0 1.76 0.26
6 2 0 2.26 0.26
6 2 0 2.42 0.29
6 2 0 2.29 0.35
-6 2 0 1.71 0.34
-7 -2 0 35.06 1.08
7 -2 0 34.89 1.09
-7 -2 0 34.5 0.95
7 -2 0 34.13 1.3
7 -2 0 35.54 1.16
-7 -2 0 35.85 1.12
-7 -2 0 34.34 1.03
7 2 0 35.94 1.05
-7 2 0 34.41 1.11
-7 2 0 34.28 0.95
7 2 0 34.52 0.98
-7 2 0 35.34 1.35
7 2 0 34.53 0.99
7 2 0 33.6 1.06
7 2 0 34.23 0.95
7 2 0 35.19 1.18
-7 2 0 33.52 1.13
8 -2 0 4.39 0.55
8 -2 0 5.53 0.7
8 -2 0 4.1 0.55
-8 -2 0 4.46 0.54
-8 2 0 5.14 0.59
-8 2 0 5.3 0.72
8 2 0 5.26 0.41
8 2 0 4.7 0.6
8 2 0 5.64 0.52
8 2 0 4.71 0.67
-8 2 0 4.9 0.51
8 2 0 4.95 0.44
-8 2 0 4.68 0.41
8 2 0 5.26 0.43
-9 -2 0 6.93 0.68
9 -2 0 7.8 0.85
9 -2 0 7.37 0.7
-9 2 0 6.57 0.65
-9 2 0 6.8 0.74
9 2 0 7.25 0.65
9 2 0 7.12 0.55
9 2 0 8.86 0.75
9 2 0 7.73 0.8
9 2 0 7.36 0.48
10 -2 0 1.98 0.61
10 -2 0 3.03 0.6
-10 -2 0 2.32 0.73
10 -2 0 3.3 0.81
10 -2 0 1.95 0.65
10 2 0 2.02 0.73
10 2 0 3.65 0.76
-10 2 0 0.64 0.76
10 2 0 2.8 0.57
-10 2 0 3.52 0.52
10 2 0 2.53 0.74
11 -2 0 2.17 0.73
11 -2 0 0.89 0.51
11 -2 0 0.73 0.87
11 -2 0 0.58 0.61
11 2 0 0.44 0.95
-11 2 0 1.88 1.01
11 2 0 0.45 0.65
11 2 0 2.08 0.95
-11 2 0 -0.12 0.73
11 2 0 1.75 0.88
12 -2 0 0.32 0.85
12 -2 0 -0.24 0.93
12 -2 0 0.22 0.62
-12 2 0 2 1.31
12 2 0 1.56 0.83
12 2 0 0.24 1.1
-12 2 0 1.34 0.65
12 2 0 1.01 1.12
0 -3 0 0.02 0.06
0 -3 0 0.11 0.16
0 -3 0 0.04 0.09
0 3 0 0.03 0.07
0 3 0 0.02 0.15
0 3 0 -0.02 0.08
1 -3 0 1.21 0.25
-1 -3 0 1.06 0.17
1 -3 0 0.74 0.13
-1 -3 0 1.09 0.13
-1 -3 0 1.14 0.21
1 -3 0 1.06 0.09
1 3 0 1.12 0.07
-1 3 0 0.66 0.14
1 3 0 1.04 0.16
-1 3 0 1.12 0.1
1 3 0 1.2 0.21
-1 3 0 1.22 0.26
1 3 0 1.17 0.12
2 -3 0 34.11 1.11
-2 -3 0 34.83 0.8
-2 -3 0 34.99 0.87
2 -3 0 35.43 0.75
-2 -3 0 35.35 0.92
-2 -3 0 34.54 0.96
-2 3 0 35.49 1.01
2 3 0 34.16 0.85
2 3 0 35.87 0.95
-2 3 0 35.65 0.85
-2 3 0 35.4 1.13
2 3 0 35.12 0.91
2 3 0 34.56 0.8
-3 -3 0 182.5 3.84
3 -3 0 177.57 4.14
-3 -3 0 182.51 3.76
3 -3 0 173.39 3.99
-3 -3 0 179.15 3.88
-3 3 0 186.32 3.81
-3 3 0 179.87 4.13
3 3 0 182.3 3.75
3 3 0 183.46 3.85
-3 3 0 179.81 3.99
3 3 0 177.39 3.72
3 3 0 178.39 3.81
3 3 0 180.9 3.85
-4 -3 0 72.39 1.65
-4 -3 0 70.54 1.73
4 -3 0 75.34 1.67
4 -3 0 72.51 2.02
4 -3 0 73.96 1.88
-4 -3 0 74.28 1.71
4 3 0 71.19 1.63
-4 3 0 71.15 1.61
4 3 0 71.99 1.66
-4 3 0 71.34 1.7
4 3 0 73.57 1.71
4 3 0 71.89 1.6
-4 3 0 72.1 1.85
-4 3 0 73.02 2.01
-5 -3 0 40.58 1.08
5 -3 0 39.35 1.08
5 -3 0 41.45 1.25
-5 -3 0 39.68 1.08
5 -3 0 39.75 1.4
-5 -3 0 39.4 1.06
-5 3 0 40.15 1.22
-5 3 0 40.01 1.12
5 3 0 41.25 1.06
5 3 0 40.23 1.02
5 3 0 40.88 1.06
5 3 0 43.22 1.03
-5 3 0 40.63 1.41
-5 3 0 39.79 1
5 3 0 39.41 1.11
-6 -3 0 2.5 0.37
6 -3 0 2.99 0.37
-6 -3 0 3.46 0.34
-6 -3 0 3.12 0.33
-6 -3 0 2.86 0.37
6 -3 0 3.23 0.52
6 -3 0 2.42 0.36
-6 3 0 2.82 0.3
6 3 0 3.32 0.32
6 3 0 2.87 0.3
6 3 0 3.59 0.3
6 3 0 3.21 0.36
6 3 0 2.93 0.3
-6 3 0 2.98 0.4
-6 3 0 2.39 0.36
6 3 0 3.42 0.41
-6 3 0 2.96 0.54
-7 -3 0 0.38 0.25
-7 -3 0 0.19 0.39
7 -3 0 0.19 0.4
7 -3 0 0.14 0.26
-7 -3 0 0.5 0.32
7 -3 0 -0.02 0.38
-7 3 0 0.32 0.42
7 3 0 0.37 0.38
-7 3 0 0 0.27
7 3 0 0.35 0.29
7 3 0 0 0.28
7 3 0 0.46 0.35
7 3 0 0.39 0.18
-7 3 0 0.84 0.46
7 3 0 0.17 0.19
-7 3 0 0.16 0.27
8 -3 0 0.58 0.34
-8 -3 0 0.71 0.51
8 -3 0 0.63 0.46
-8 -3 0 0.66 0.42
8 -3 0 1.13 0.5
-8 3 0 0.16 0.53
-8 3 0 0.3 0.34
8 3 0 0.21 0.45
-8 3 0 0.33 0.51
-8 3 0 0.37 0.32
8 3 0 0.72 0.36
8 3 0 0.46 0.21
8 3 0 0.66 0.37
8 3 0 0.75 0.48
9 -3 0 5.24 0.66
9 -3 0 4.52 0.73
9 3 0 4.74 0.58
9 3 0 4.8 0.53
-9 3 0 4.99 0.72
9 3 0 4.3 0.68
9 3 0 4.94 0.73
-9 3 0 4.61 0.49
-9 3 0 4.69 0.64
9 3 0 3.56 0.65
10 -3 0 0.71 0.77
10 -3 0 1.31 0.48
10 -3 0 2.43 0.68
10 -3 0 1.22 0.52
10 3 0 1.6 0.74
10 3 0 1.46 0.55
-10 3 0 1.12 0.79
10 3 0 0.45 0.74
10 3 0 1.94 0.77
-10 3 0 -0.25 0.73
11 -3 0 0.76 0.53
11 -3 0 -0.24 0.73
11 -3 0 1.64 1.03
11 -3 0 1.41 0.71
-11 3 0 0.02 0.87
-11 3 0 0.37 0.98
11 3 0 0.85 0.71
11 3 0 1.34 0.96
11 3 0 0.53 0.93
11 3 0 1.53 1
-11 3 0 1.09 0.59
12 -3 0 0.56 0.8
12 -3 0 -0.49 0.93
12 -3 0 -1.15 1.35
12 -3 0 -0.89 0.66
-12 3 0 1.78 1.3
12 3 0 -2.14 1.11
-12 3 0 -0.81 0.68
12 3 0 0 1.14
0 -4 0 198.6 4.56
0 -4 0 207.32 4.18
0 -4 0 207.81 4.47
0 4 0 208.31 4.22
0 4 0 211.33 4.47
0 4 0 194.46 4.54
-1 -4 0 1.32 0.1
1 -4 0 1.5 0.24
1 -4 0 1.3 0.12
-1 -4 0 1.45 0.22
-1 -4 0 1.34 0.24
1 -4 0 1.42 0.3
-1 -4 0 1.33 0.16
1 4 0 1.09 0.23
-1 4 0 0.95 0.19
1 4 0 0.99 0.14
-1 4 0 1.29 0.11
-1 4 0 1.71 0.33
1 4 0 1.46 0.22
2 -4 0 4.89 0.19
-2 -4 0 4.45 0.24
-2 -4 0 5.28 0.33
-2 -4 0 4.73 0.38
2 -4 0 5.12 0.46
-2 -4 0 4.8 0.3
-2 4 0 5.13 0.49
2 4 0 4.74 0.26
2 4 0 5 0.15
-2 4 0 4.57 0.37
2 4 0 5.07 0.39
2 4 0 5.05 0.31
-2 4 0 4.86 0.29
3 -4 0 -0.02 0.07
3 -4 0 0.08 0.23
-3 -4 0 -0.01 0.18
-3 -4 0 0.06 0.16
-3 -4 0 -0.19 0.14
3 -4 0 -0.12 0.14
-3 -4 0 0.11 0.14
3 4 0 0.14 0.17
-3 4 0 -0.09 0.28
3 4 0 0.06 0.1
3 4 0 0.09 0.13
-3 4 0 -0.07 0.15
-3 4 0 0.01 0.18
3 4 0 -0.07 0.14
3 4 0 0.15 0.13
4 -4 0 61.39 1.87
4 -4 0 60.62 1.71
-4 -4 0 60.68 1.55
-4 -4 0 60.62 1.42
-4 -4 0 59 1.52
4 -4 0 61.12 1.44
4 4 0 61.09 1.37
-4 4 0 61.02 1.49
4 4 0 62.29 1.51
4 4 0 63.97 1.52
4 4 0 59.56 1.41
4 4 0 59.47 1.48
-4 4 0 61.54 1.88
-4 4 0 60.22 1.69
5 -4 0 10.04 0.76
5 -4 0 9.62 0.62
5 -4 0 9.06 0.54
-5 -4 0 9.06 0.5
-5 -4 0 9.39 0.49
5 4 0 9.69 0.42
-5 4 0 9.43 0.55
5 4 0 8.78 0.5
-5 4 0 9.41 0.82
-5 4 0 8.64 0.47
-5 4 0 9.55 0.59
5 4 0 9.11 0.47
5 4 0 9.56 0.45
-6 -4 0 0.24 0.31
-6 -4 0 0.14 0.23
6 -4 0 0.21 0.32
6 -4 0 0.03 0.34
6 -4 0 0.45 0.29
-6 -4 0 -0.04 0.19
6 4 0 0.43 0.19
6 4 0 0.62 0.31
-6 4 0 0.42 0.47
6 4 0 0.18 0.24
6 4 0 0.27 0.17
-6 4 0 -0.03 0.22
-6 4 0 -0.17 0.33
-6 4 0 0.2 0.25
6 4 0 0.28 0.27
7 -4 0 2.21 0.44
-7 -4 0 2.28 0.34
-7 -4 0 1.68 0.41
7 -4 0 1.71 0.41
7 -4 0 2.81 0.57
-7 4 0 2.65 0.49
-7 4 0 1.69 0.56
7 4 0 1.78 0.31
7 4 0 2.54 0.28
7 4 0 1.9 0.37
7 4 0 1.94 0.4
-7 4 0 2.2 0.36
7 4 0 2.53 0.28
7 4 0 2.8 0.48
-7 4 0 2.53 0.44
8 -4 0 11.26 0.8
8 -4 0 11.14 0.88
8 -4 0 11.05 1.01
-8 -4 0 11.4 0.94
8 4 0 10.12 0.74
8 4 0 10.53 0.71
8 4 0 9.59 0.94
-8 4 0 10.36 0.85
-8 4 0 11.35 0.69
8 4 0 11.21 0.5
-8 4 0 10.45 1.17
8 4 0 12.3 0.97
8 4 0 11.83 0.86
9 -4 0 0.68 0.39
-9 -4 0 -0.11 0.63
9 -4 0 0.65 0.6
9 -4 0 0.26 0.61
9 -4 0 -0.68 0.37
9 4 0 -0.63 0.58
9 4 0 0.6 0.47
-9 4 0 -0.18 0.44
9 4 0 0.35 0.55
-9 4 0 0.32 0.64
-9 4 0 0.11 0.62
9 4 0 0.73 0.65
-9 4 0 0.2 0.42
9 4 0 -0.68 0.45
10 -4 0 -0.28 0.82
10 -4 0 -0.7 0.65
10 -4 0 0.25 0.47
10 -4 0 0.25 0.48
-10 4 0 -0.84 0.47
-10 4 0 0.5 0.84
-10 4 0 -0.1 0.53
10 4 0 0.75 0.58
10 4 0 0.66 0.77
10 4 0 0.47 0.75
10 4 0 0.33 0.75
-10 4 0 0.75 0.79
11 -4 0 0.66 0.6
11 -4 0 1.32 1.1
11 -4 0 1.58 0.83
11 -4 0 -0.56 0.58
11 4 0 -0.53 0.97
11 4 0 -0.21 0.92
-11 4 0 0.18 0.97
-11 4 0 0.18 0.6
-11 4 0 -2.21 1
11 4 0 -0.18 0.99
12 -4 0 -1.75 0.73
12 -4 0 -2.63 1.48
12 -4 0 -0.05 0.79
12 4 0 -1.5 1.27
12 4 0 1.78 0.98
-12 4 0 0.28 0.82
-12 4 0 2.41 1.42
12 4 0 -0.25 1.15
0 -5 0 -0.02 0.13
0 -5 0 0.19 0.23
0 -5 0 0.17 0.1
0 5 0 0.23 0.14
0 5 0 -0.15 0.21
0 5 0 0.2 0.12
-1 -5 0 9.13 0.49
1 -5 0 8.84 0.63
-1 -5 0 8.82 0.25
1 -5 0 8.66 0.52
-1 -5 0 8.32 0.54
-1 -5 0 9.12 0.38
-1 5 0 9.03 0.31
-1 5 0 8.72 0.51
1 5 0 8.75 0.59
1 5 0 8.9 0.39
1 5 0 8.75 0.48
-1 5 0 8.47 0.64
2 -5 0 19.45 0.95
-2 -5 0 18.97 0.61
2 -5 0 20.55 0.5
-2 -5 0 19.83 0.53
-2 -5 0 20.2 0.74
-2 -5 0 18.83 0.81
-2 5 0 20.12 0.6
2 5 0 20.1 0.64
-2 5 0 18.69 0.96
-2 5 0 19.8 0.82
2 5 0 19.89 0.73
2 5 0 20.78 0.82
2 5 0 19.12 0.59
3 -5 0 34.08 1.16
3 -5 0 35.56 0.77
-3 -5 0 35.12 0.98
-3 -5 0 34.88 1.12
-3 -5 0 34.81 1.06
3 -5 0 34.81 1.33
-3 -5 0 34.06 0.87
3 5 0 34.43 0.8
3 5 0 35.06 0.94
3 5 0 34.82 0.76
-3 5 0 34.34 1.17
-3 5 0 33.94 1.35
3 5 0 34.96 0.98
3 5 0 35.47 1.1
-3 5 0 35.71 0.95
3 5 0 34.23 1.03
4 -5 0 4.39 0.2
-4 -5 0 4.89 0.39
-4 -5 0 4.66 0.47
4 -5 0 4.22 0.45
4 -5 0 3.51 0.5
-4 -5 0 4.56 0.39
-4 -5 0 4.57 0.42
-4 5 0 3.95 0.59
-4 5 0 3.57 0.44
4 5 0 4.12 0.42
-4 5 0 4.79 0.39
4 5 0 4.7 0.37
4 5 0 4.37 0.38
4 5 0 4.56 0.28
5 -5 0 1.07 0.29
-5 -5 0 1.28 0.36
5 -5 0 0.82 0.41
-5 -5 0 0.97 0.28
-5 -5 0 1.03 0.3
5 -5 0 2.2 0.34
-5 5 0 0.9 0.3
-5 5 0 0.89 0.48
-5 5 0 1.05 0.34
5 5 0 1.44 0.29
5 5 0 1.36 0.24
5 5 0 1.02 0.25
5 5 0 1.07 0.27
5 5 0 1.29 0.21
-6 -5 0 19.69 0.77
6 -5 0 19.14 0.82
-6 -5 0 20.35 0.8
6 -5 0 19.4 0.95
6 -5 0 17.83 1.14
-6 -5 0 18.87 0.77
6 5 0 19.76 0.67
-6 5 0 19.78 1.23
-6 5 0 19.39 0.87
-6 5 0 19.36 0.94
-6 5 0 20.17 0.74
6 5 0 19.23 0.71
6 5 0 18.94 0.75
6 5 0 19.06 0.83
7 -5 0 0.41 0.55
-7 -5 0 0.29 0.29
-7 -5 0 0.75 0.29
-7 -5 0 -0.41 0.4
7 -5 0 -0.01 0.31
7 -5 0 -0.4 0.41
7 5 0 0.05 0.29
-7 5 0 0.05 0.34
7 5 0 0.2 0.21
7 5 0 -0.21 0.37
7 5 0 0.54 0.21
-7 5 0 0.63 0.35
-7 5 0 0.03 0.45
7 5 0 -0.18 0.34
7 5 0 -0.02 0.45
-7 5 0 0.45 0.56
8 -5 0 8.6 0.72
-8 -5 0 9.59 0.83
8 -5 0 9.45 1.04
8 5 0 8.52 0.77
8 5 0 9.13 0.66
8 5 0 9.1 0.48
-8 5 0 8.64 0.81
8 5 0 8.13 0.48
-8 5 0 9.64 1.23
8 5 0 9.17 0.64
-8 5 0 9.67 0.74
-8 5 0 7.04 0.74
8 5 0 9.96 0.7
9 -5 0 0.19 0.67
9 -5 0 -0.33 0.34
9 -5 0 0.67 0.68
-9 -5 0 -0.65 0.65
9 -5 0 0.2 0.4
9 5 0 0.23 0.58
-9 5 0 0.41 0.75
9 5 0 0.42 0.6
9 5 0 1.2 0.7
9 5 0 -0.92 0.51
9 5 0 0.43 0.47
-9 5 0 -0.09 0.47
-9 5 0 -0.18 0.79
10 -5 0 0.15 0.84
10 -5 0 -0.6 0.92
10 -5 0 0.64 0.44
10 -5 0 0.17 0.55
-10 5 0 -0.08 0.58
-10 5 0 0.42 0.95
-10 5 0 0.13 0.94
10 5 0 -0.52 0.82
10 5 0 0.65 0.87
-10 5 0 0.91 0.61
10 5 0 1.93 0.79
11 -5 0 -0.42 0.54
11 -5 0 1.49 0.67
11 -5 0 0.46 1.06
11 -5 0 -0.76 0.91
11 5 0 0.89 0.99
-11 5 0 -0.42 0.69
-11 5 0 0.86 1.2
11 5 0 -0.2 0.86
-11 5 0 -0.5 1.12
-11 5 0 0.62 0.71
11 5 0 0.68 0.84
11 5 0 -0.8 1.06
11 5 0 1.9 1.1
0 -6 0 178.44 3.62
0 -6 0 175.45 4.05
0 -6 0 169.9 4.19
0 6 0 170.14 4.18
0 6 0 177.8 4.05
0 6 0 178.31 3.69
-1 -6 0 -0.27 0.1
1 -6 0 0.01 0.18
1 -6 0 0.18 0.16
1 -6 0 -0.16 0.27
-1 -6 0 -0.12 0.24
-1 -6 0 0.19 0.16
-1 -6 0 0.03 0.17
-1 6 0 -0.32 0.16
1 6 0 0.13 0.18
1 6 0 -0.16 0.27
-1 6 0 0.05 0.29
1 6 0 0.17 0.17
-1 6 0 -0.18 0.13
-2 -6 0 43.15 1.31
-2 -6 0 41.87 0.99
-2 -6 0 43.64 1.41
-2 -6 0 41.69 1.11
2 -6 0 41.46 1.37
2 -6 0 43.32 1.56
-2 6 0 40.98 0.96
2 6 0 40.77 1.37
2 6 0 41.97 1.27
-2 6 0 43.29 1.57
-2 6 0 43.15 1.07
2 6 0 42.33 1.12
-2 6 0 41.26 1.37
-3 -6 0 4.26 0.4
3 -6 0 4.22 0.59
-3 -6 0 4.79 0.43
3 -6 0 4.96 0.49
3 -6 0 5.25 0.23
-3 -6 0 5.15 0.35
-3 -6 0 3.8 0.5
3 6 0 4.56 0.36
-3 6 0 4.42 0.51
-3 6 0 5.89 0.78
3 6 0 5.15 0.47
-3 6 0 4.87 0.43
3 6 0 4.88 0.54
3 6 0 4.15 0.42
4 -6 0 0.1 0.1
-4 -6 0 -0.25 0.25
-4 -6 0 -0.08 0.2
4 -6 0 -0.11 0.36
4 -6 0 0.39 0.26
-4 -6 0 0.1 0.22
-4 -6 0 0.41 0.29
4 6 0 -0.04 0.2
4 6 0 -0.02 0.12
4 6 0 0.05 0.27
4 6 0 0.46 0.27
4 6 0 0.08 0.19
-4 6 0 -0.17 0.27
-4 6 0 -0.33 0.42
4 6 0 0.11 0.15
-4 6 0 -0.32 0.21
5 -6 0 2.01 0.36
-5 -6 0 1.88 0.43
5 -6 0 2.22 0.56
5 -6 0 1.89 0.41
-5 -6 0 1.43 0.32
-5 -6 0 1.92 0.39
5 -6 0 1.73 0.13
-5 -6 0 1.51 0.34
5 6 0 1.75 0.22
-5 6 0 2.44 0.45
5 6 0 1.97 0.41
-5 6 0 1.44 0.37
5 6 0 1.97 0.37
5 6 0 1.6 0.21
5 6 0 2.22 0.34
5 6 0 1.6 0.33
-5 6 0 1.8 0.61
-6 -6 0 3.12 0.45
-6 -6 0 3.37 0.45
6 -6 0 2.82 0.22
6 -6 0 2.18 0.61
6 -6 0 2.71 0.42
-6 -6 0 3.29 0.53
6 -6 0 2.71 0.47
-6 6 0 2.8 0.4
6 6 0 2.84 0.45
6 6 0 2.71 0.37
6 6 0 3.44 0.41
-6 6 0 3.02 0.49
6 6 0 3.21 0.51
-6 6 0 3.79 0.55
-6 6 0 4.12 0.84
6 6 0 2.66 0.3
7 -6 0 1.55 0.5
7 -6 0 1.89 0.63
-7 -6 0 1.42 0.48
-7 -6 0 1.6 0.41
7 -6 0 1.83 0.48
-7 -6 0 2.49 0.42
-7 6 0 1.19 0.47
-7 6 0 1.66 0.42
7 6 0 1.39 0.42
7 6 0 2.01 0.55
7 6 0 1.65 0.31
7 6 0 2.49 0.37
-7 6 0 2.24 0.71
7 6 0 2.09 0.33
8 -6 0 2.25 0.25
8 -6 0 2.41 0.6
8 -6 0 3.73 0.8
-8 -6 0 2.73 0.75
-8 6 0 2.63 0.49
-8 6 0 1.74 0.92
8 6 0 2.89 0.61
8 6 0 2.86 0.34
8 6 0 1.67 0.65
8 6 0 2.45 0.53
8 6 0 3.08 0.36
8 6 0 2.34 0.41
-8 6 0 3.48 0.75
9 -6 0 3.42 0.33
-9 -6 0 2.16 0.75
9 -6 0 3.2 0.83
9 -6 0 3.18 0.71
9 -6 0 1.77 0.8
9 6 0 3.69 1.18
9 6 0 3.15 0.86
-9 6 0 0.22 0.87
9 6 0 4.55 0.74
-9 6 0 1.94 0.84
9 6 0 3.57 0.55
-9 6 0 2.6 0.66
9 6 0 3.08 0.7
-9 6 0 2.66 0.6
10 -6 0 0.43 0.97
10 -6 0 1.61 0.36
10 -6 0 2.19 1.03
10 -6 0 1.74 0.64
-10 6 0 0.83 0.65
-10 6 0 1.79 0.97
10 6 0 1.72 0.84
-10 6 0 2.53 1.1
10 6 0 1.66 0.68
10 6 0 0.73 0.73
10 6 0 0.68 0.89
10 6 0 3.04 0.88
-10 6 0 1.99 0.7
11 -6 0 1.75 0.77
11 -6 0 -0.34 1.21
11 -6 0 -1.85 1.3
11 -6 0 -0.3 0.42
11 -6 0 -1.17 1.17
-11 6 0 -0.73 0.76
11 6 0 -1.23 1.11
-11 6 0 0.42 1.15
-11 6 0 0.75 1.37
11 6 0 -0.85 1.09
-11 6 0 0.12 0.8
11 6 0 0.81 0.89
11 6 0 0.66 0.96
0 -7 0 0.58 0.22
0 -7 0 0.17 0.33
0 -7 0 0.5 0.16
0 7 0 0.68 0.27
0 7 0 0.55 0.2
0 7 0 0.48 0.34
-1 -7 0 3.82 0.54
1 -7 0 3.59 0.58
-1 -7 0 3.1 0.42
1 -7 0 3.67 0.28
-1 -7 0 4.07 0.35
-1 -7 0 3.53 0.23
1 -7 0 3.34 0.46
1 7 0 3.55 0.54
-1 7 0 3.54 0.27
-1 7 0 3.8 0.58
1 7 0 3.71 0.33
-1 7 0 3.68 0.48
-1 7 0 3.81 0.31
1 7 0 3.49 0.47
-2 -7 0 5.17 0.61
2 -7 0 5.14 0.73
-2 -7 0 4.52 0.43
2 -7 0 4.26 0.35
-2 -7 0 4.02 0.49
-2 -7 0 4.6 0.33
2 -7 0 4.78 0.52
2 7 0 5.05 0.47
-2 7 0 5.13 0.42
-2 7 0 4.52 0.29
2 7 0 4.84 0.62
2 7 0 4.03 0.44
-2 7 0 4.85 0.56
-2 7 0 3.32 0.53
3 -7 0 2.67 0.6
-3 -7 0 3.09 0.29
-3 -7 0 2.76 0.37
-3 -7 0 3.12 0.46
-3 -7 0 2.86 0.36
3 7 0 2.88 0.46
3 7 0 2.94 0.37
3 7 0 3.76 0.46
3 7 0 2.76 0.3
-3 7 0 3.09 0.35
-3 7 0 3.51 0.65
-3 7 0 2.65 0.42
4 -7 0 16.44 0.94
-4 -7 0 18.43 0.83
-4 -7 0 18.4 0.94
-4 -7 0 18.33 0.8
-4 -7 0 17.84 0.66
4 -7 0 16.08 1.12
-4 7 0 19.44 1.26
-4 7 0 16.71 0.92
4 7 0 17.79 0.8
-4 7 0 20.28 0.8
4 7 0 19.47 0.92
4 7 0 18.41 0.53
4 7 0 18.01 0.71
4 7 0 17.17 0.82
5 -7 0 5.85 0.86
-5 -7 0 5.38 0.56
-5 -7 0 4.56 0.43
5 -7 0 4.11 0.43
-5 -7 0 4.67 0.5
-5 -7 0 4.55 0.56
5 7 0 4.29 0.37
-5 7 0 6.47 0.92
5 7 0 5.44 0.49
-5 7 0 4.83 0.52
-5 7 0 4.82 0.65
5 7 0 4.81 0.29
5 7 0 5.44 0.64
5 7 0 5.33 0.52
5 7 0 5.32 0.53
-6 -7 0 33.76 1.11
-6 -7 0 34.85 1.29
6 -7 0 36.12 1.17
6 -7 0 34.2 1.43
-6 -7 0 34.44 1.3
6 -7 0 32.94 1.67
-6 7 0 32.53 1.24
-6 7 0 34.79 1.47
6 7 0 34.1 0.9
-6 7 0 33.47 1.79
6 7 0 34.98 1.19
6 7 0 34.63 0.93
6 7 0 34.86 1.14
-7 -7 0 0.25 0.5
7 -7 0 0.48 0.59
-7 -7 0 -0.35 0.41
-7 -7 0 0.19 0.36
7 -7 0 0.03 0.44
-7 7 0 0.24 0.54
7 7 0 -0.11 0.34
7 7 0 -0.03 0.29
-7 7 0 0.21 0.74
-7 7 0 0.04 0.45
7 7 0 0.38 0.32
-8 -7 0 6.31 0.72
8 -7 0 5.48 0.75
8 -7 0 9.76 1.27
-8 7 0 6.35 0.88
8 7 0 7.65 0.67
-8 7 0 8.35 1
-8 7 0 7.18 0.64
-8 7 0 8.22 1.25
8 7 0 6.3 0.52
8 7 0 6.15 0.56
8 7 0 6.23 0.8
8 7 0 7.08 0.63
8 7 0 7.85 0.56
9 -7 0 -0.71 0.85
9 -7 0 0.42 0.59
-9 -7 0 -0.15 0.74
9 -7 0 -1.68 0.8
-9 7 0 0.11 0.59
9 7 0 1.24 0.87
-9 7 0 0.4 1.04
9 7 0 0.14 0.48
9 7 0 -0.46 0.66
9 7 0 0.3 0.48
9 7 0 0.79 0.66
-9 7 0 0.01 0.89
-9 7 0 -1.03 0.61
-10 -7 0 1.93 1
10 -7 0 2.34 1.11
10 -7 0 2.84 1.12
10 -7 0 1.83 1.18
10 -7 0 3.5 0.74
10 7 0 2.45 0.89
10 7 0 1.83 0.89
-10 7 0 1.98 1.12
-10 7 0 -0.47 1.18
10 7 0 2.77 0.69
10 7 0 2.05 1.05
-10 7 0 2.56 0.83
-10 7 0 -0.38 0.74
11 -7 0 -0.28 1.23
11 -7 0 -2.03 0.86
11 -7 0 0.4 1.51
11 7 0 0.47 1.02
-11 7 0 -0.09 0.94
-11 7 0 -1.08 1.47
-11 7 0 -0.47 0.89
11 7 0 0.77 0.91
11 7 0 -1.19 1.04
-11 7 0 1.2 1.35
0 -8 0 8.24 0.4
0 -8 0 7.97 0.66
0 -8 0 7.84 0.82
0 8 0 7.86 0.81
0 8 0 7.57 0.48
0 8 0 7.89 0.67
-1 -8 0 2.34 0.37
1 -8 0 3.48 0.3
-1 -8 0 3.41 0.58
-1 -8 0 2.99 0.33
-1 -8 0 3.14 0.26
1 -8 0 3.34 0.6
1 -8 0 3.47 0.52
-1 8 0 3.26 0.29
1 8 0 3 0.34
-1 8 0 3.86 0.52
-1 8 0 3.3 0.3
1 8 0 3.49 0.63
-1 8 0 2.55 0.56
1 8 0 4.14 0.53
2 -8 0 6.56 0.87
-2 -8 0 6.35 0.58
2 -8 0 6.16 0.52
-2 -8 0 5.82 0.74
-2 -8 0 6.62 0.4
-2 -8 0 6.93 0.5
2 -8 0 6.61 0.61
-2 8 0 6.48 0.37
-2 8 0 6.84 0.68
2 8 0 6.46 0.57
-2 8 0 7.54 0.91
-2 8 0 6.93 0.5
2 8 0 6.91 0.63
2 8 0 5.47 0.73
3 -8 0 26.93 0.93
-3 -8 0 28.48 1.13
-3 -8 0 27.92 0.8
-3 -8 0 28.09 0.99
3 -8 0 28.61 1.25
3 -8 0 26.37 1.45
-3 -8 0 26.16 1.24
3 8 0 26.11 1.08
-3 8 0 28.62 0.93
3 8 0 27 0.97
-3 8 0 27.71 1.23
3 8 0 27.19 1.24
-3 8 0 27.62 1.47
-4 -8 0 23.1 0.78
4 -8 0 24.51 1.2
-4 -8 0 23.62 1.01
-4 -8 0 21.76 0.94
4 -8 0 20.93 1.36
-4 -8 0 23.19 1.18
4 8 0 23.91 1.01
-4 8 0 23.26 1.17
-4 8 0 23.36 1.46
4 8 0 23.16 0.63
-4 8 0 22.61 0.91
4 8 0 23.74 1.12
4 8 0 24.53 0.97
4 8 0 23.45 0.85
-5 -8 0 13.21 0.8
-5 -8 0 12.73 0.89
-5 -8 0 13.85 0.71
5 -8 0 14.16 1.23
5 -8 0 14.59 0.99
-5 -8 0 12.41 0.95
5 8 0 14.08 0.93
5 8 0 11.67 0.73
-5 8 0 13.49 0.82
5 8 0 13.2 0.5
-5 8 0 13.8 1.32
-6 -8 0 3.31 0.6
-6 -8 0 3.51 0.49
6 -8 0 2.57 0.63
-6 -8 0 1.88 0.6
6 -8 0 2.57 0.76
-6 -8 0 1.89 0.45
6 -8 0 2.16 0.5
6 8 0 2.69 0.5
6 8 0 2.6 0.29
6 8 0 2.88 0.46
-6 8 0 2.55 0.7
-6 8 0 2.41 0.85
7 -8 0 2.26 0.85
-7 -8 0 1.49 0.71
-7 -8 0 2.68 0.61
-7 -8 0 1.37 0.53
7 -8 0 1.52 0.67
7 -8 0 2.6 0.62
-7 8 0 1.76 0.88
7 8 0 1.42 0.47
7 8 0 2.05 0.34
-7 8 0 1.24 0.53
-7 8 0 1.54 0.61
7 8 0 2.3 0.41
7 8 0 2.09 0.28
7 8 0 1.98 0.3
-7 8 0 1.99 0.64
-8 -8 0 1.33 0.7
-8 -8 0 1.7 0.54
8 -8 0 -0.32 1.23
8 -8 0 2.45 0.68
-8 -8 0 0.17 0.47
8 -8 0 1.13 0.95
8 8 0 1.47 0.44
-8 8 0 1.34 0.77
8 8 0 1.35 0.41
-8 8 0 1.07 0.62
8 8 0 1.15 0.41
-8 8 0 2.52 0.64
8 8 0 0.91 0.74
8 8 0 2.18 0.59
8 8 0 1.31 0.41
-8 8 0 0.88 1
8 8 0 1.28 0.38
9 -8 0 3.06 1.25
9 -8 0 3.08 1.09
-9 -8 0 2.1 0.86
9 -8 0 3.41 0.94
9 -8 0 2.55 0.69
-9 8 0 2.97 0.75
9 8 0 3.44 0.44
9 8 0 3.78 0.52
9 8 0 1.69 0.95
-9 8 0 1.84 1.01
9 8 0 3.07 0.55
9 8 0 2.57 0.56
9 8 0 3.06 0.84
-9 8 0 1.6 0.79
9 8 0 3.87 0.86
9 8 0 3.08 0.45
10 -8 0 7.74 1.33
10 -8 0 5.41 1.01
10 -8 0 6.31 1.45
10 -8 0 4.88 1.45
-10 -8 0 4.21 1.09
-10 8 0 0.34 0.85
10 8 0 3.81 1.23
10 8 0 4.95 0.76
10 8 0 5.64 0.7
-10 8 0 0.69 1.42
10 8 0 3.07 1.09
10 8 0 4.72 1.05
-10 8 0 4.67 1.05
-10 8 0 6.38 1.27
0 -9 0 -0.04 0.21
0 -9 0 0.11 0.31
0 -9 0 -0.21 0.43
0 -9 0 0.31 0.25
0 9 0 -0.13 0.3
0 9 0 0.08 0.27
0 9 0 -0.14 0.39
1 -9 0 15.68 0.63
1 -9 0 16.1 1.25
-1 -9 0 16.74 1.11
-1 -9 0 15.58 0.49
-1 -9 0 15.6 0.72
-1 -9 0 16.33 0.94
1 9 0 17.19 0.75
-1 9 0 15.04 0.63
1 9 0 14.83 0.92
-1 9 0 16.1 0.63
-1 9 0 16.67 1.22
1 9 0 15.52 1.15
-1 9 0 16.35 0.97
-2 -9 0 15.44 0.92
-2 -9 0 16.19 0.58
2 -9 0 15.19 0.7
-2 -9 0 14.3 1.1
-2 -9 0 15.75 0.78
2 -9 0 16.76 1
2 -9 0 16.19 1.28
2 9 0 15.16 1.08
-2 9 0 15.27 0.96
-2 9 0 15.07 1.23
-2 9 0 15.35 0.57
2 9 0 15.82 0.78
-2 9 0 15.31 0.7
2 9 0 15.59 0.9
-3 -9 0 48.62 1.67
3 -9 0 47.43 1.36
-3 -9 0 47.91 1.22
-3 -9 0 48.38 1.82
-3 -9 0 47.24 1.44
3 -9 0 49.17 1.8
3 -9 0 49.27 2.09
-3 9 0 47.69 1.35
-3 9 0 48.03 1.78
3 9 0 48.69 1.45
3 9 0 47.19 1.78
-3 9 0 49.95 2.09
3 9 0 47.28 1.64
-4 -9 0 8.8 0.6
4 -9 0 9.14 1.13
-4 -9 0 8.64 0.8
-4 -9 0 9.15 0.78
4 -9 0 9.62 0.82
-4 -9 0 8.53 0.92
4 -9 0 9.49 0.87
4 9 0 8.48 0.72
-4 9 0 9.36 0.66
4 9 0 9.62 0.83
4 9 0 9.41 0.9
-4 9 0 10.77 1.31
4 9 0 8.31 0.4
-5 -9 0 26.05 1.38
5 -9 0 24.64 1.35
5 -9 0 26.84 1.18
-5 -9 0 26.56 0.97
-5 -9 0 25.98 1.19
-5 -9 0 25.1 1.12
5 -9 0 24.98 1.66
5 9 0 26.51 0.72
-5 9 0 25.91 1.12
5 9 0 27.06 1.29
-5 9 0 29.14 1.76
5 9 0 26.55 1.14
5 9 0 26.2 1.21
-6 -9 0 2.29 0.65
6 -9 0 0.48 0.76
6 -9 0 1.24 0.55
-6 -9 0 1.92 1.17
6 -9 0 1.31 0.48
6 -9 0 1.11 0.67
-6 -9 0 1.08 0.48
-6 9 0 1.52 0.87
6 9 0 1.55 0.29
-6 9 0 1.59 0.6
6 9 0 1.5 0.54
6 9 0 2.01 0.48
-7 -9 0 -0.2 0.78
7 -9 0 -0.04 0.75
7 -9 0 0.35 0.82
7 -9 0 -0.03 0.47
7 -9 0 0.32 0.66
-7 -9 0 0.04 0.57
-7 -9 0 -0.05 0.58
7 9 0 0.3 0.49
-7 9 0 -0.14 0.6
-7 9 0 1.67 0.96
-7 9 0 0.36 0.6
-7 9 0 0.39 0.68
7 9 0 0.1 0.41
7 9 0 -0.08 0.3
7 9 0 0.48 0.57
7 9 0 -0.41 0.87
-8 -9 0 0.24 0.57
8 -9 0 0.88 0.81
-8 -9 0 0.17 0.71
8 -9 0 -1.03 0.98
8 -9 0 -0.03 0.88
-8 -9 0 -0.2 0.6
8 -9 0 -0.42 0.56
-8 9 0 -1.34 0.59
8 9 0 0.96 0.4
8 9 0 0.59 0.57
8 9 0 -0.39 0.82
-8 9 0 1.07 1.22
8 9 0 -0.78 0.6
8 9 0 0.13 0.86
-8 9 0 0.95 0.88
-8 9 0 0.91 0.71
9 -9 0 -0.29 0.75
9 -9 0 1.77 1.14
9 -9 0 -0.21 1.02
9 -9 0 1.4 1.21
-9 -9 0 2.01 0.91
9 9 0 0.61 0.4
9 9 0 0.19 0.43
-9 9 0 1.13 1.12
9 9 0 1.36 0.76
9 9 0 1.77 0.63
9 9 0 1.75 0.51
9 9 0 2.62 1.13
-9 9 0 -1.18 1.29
9 9 0 0.06 0.89
-9 9 0 2.93 0.87
10 -9 0 2.4 1.34
10 -9 0 0.33 1.04
-10 -9 0 -0.7 1.18
10 -9 0 2.16 1.39
10 -9 0 1.4 1.53
10 9 0 1.07 0.55
10 9 0 0.61 1.1
-10 9 0 0.36 1.05
-10 9 0 1.07 1.27
10 9 0 0.45 0.62
-10 9 0 2.12 1.71
0 -10 0 -0.12 0.33
0 -10 0 0.36 0.26
0 -10 0 -0.16 0.52
0 -10 0 -0.05 0.3
0 10 0 0.63 0.32
0 10 0 0.89 0.61
0 10 0 -0.21 0.37
0 10 0 0.18 0.26
-1 -10 0 0.08 0.37
1 -10 0 -0.18 0.3
-1 -10 0 0.14 0.2
1 -10 0 0.02 0.35
1 -10 0 -0.23 0.54
-1 -10 0 0.14 0.37
-1 -10 0 0.84 0.52
1 10 0 -0.52 0.5
-1 10 0 0.17 0.3
-1 10 0 0.22 0.3
-1 10 0 0.01 0.65
-1 10 0 0.19 0.4
1 10 0 0.07 0.36
2 -10 0 8.42 0.68
-2 -10 0 7.45 0.81
-2 -10 0 8.88 0.71
2 -10 0 9 1.17
-2 -10 0 6.8 0.52
-2 10 0 5.92 0.83
-2 10 0 7.86 0.65
2 10 0 8.52 0.8
2 10 0 8.31 1.07
-2 10 0 7.38 0.52
2 10 0 6.76 0.84
-2 10 0 9.71 0.91
3 -10 0 1.32 0.49
3 -10 0 0.91 0.43
3 -10 0 0.07 0.67
-3 -10 0 0.65 0.42
-3 -10 0 1.14 0.33
-3 -10 0 0.63 0.56
-3 -10 0 0.75 0.59
-3 10 0 0.03 0.69
3 10 0 0.63 0.45
3 10 0 0.74 0.48
3 10 0 0.21 0.53
-3 10 0 1.16 0.45
-4 -10 0 17.01 1.07
4 -10 0 15.03 1.56
-4 -10 0 16.01 0.75
-4 -10 0 14.61 1
4 -10 0 12.3 1.14
-4 -10 0 13.46 1.21
4 -10 0 15.63 1
4 10 0 14.47 0.5
-4 10 0 16.71 1.6
4 10 0 17.49 1.31
-4 10 0 14.91 0.93
4 10 0 13.92 1.03
-4 10 0 15 1.13
4 10 0 15.95 0.98
5 -10 0 1.69 0.95
-5 -10 0 1.75 0.5
-5 -10 0 2.91 0.7
5 -10 0 1.99 0.65
5 -10 0 2.29 0.67
-5 -10 0 2.69 0.68
-5 -10 0 2.12 0.48
-5 10 0 3.54 0.75
5 10 0 2.49 0.58
5 10 0 2.61 0.64
5 10 0 2.6 0.25
-5 10 0 2.23 0.83
-6 -10 0 0.14 0.51
-6 -10 0 -0.18 0.45
6 -10 0 0.95 0.68
6 -10 0 0.64 1.11
-6 -10 0 1.05 0.7
-6 -10 0 0.04 0.67
6 -10 0 -0.26 0.47
6 10 0 0.49 0.71
-6 10 0 0 0.92
6 10 0 0.51 0.43
6 10 0 0.7 0.6
6 10 0 0.53 0.25
-6 10 0 0.04 0.66
-7 -10 0 2.55 0.83
7 -10 0 2.84 0.87
7 -10 0 1.6 1.08
7 -10 0 2.54 0.79
-7 -10 0 3.35 0.93
-7 10 0 3.42 1.27
7 10 0 3.36 0.71
7 10 0 2.53 0.57
7 10 0 3.24 0.68
7 10 0 2.58 0.35
-7 10 0 2.9 0.81
7 10 0 2.59 0.87
-7 10 0 2.54 0.84
8 -10 0 1.43 0.95
8 -10 0 -0.74 1.28
8 -10 0 2.94 1.12
8 -10 0 1.12 0.9
-8 -10 0 1.49 0.68
-8 -10 0 2.06 0.86
-8 10 0 2.2 1.01
8 10 0 2.16 0.54
8 10 0 2.6 0.66
-8 10 0 2.74 0.9
-8 10 0 1.2 0.87
8 10 0 1.97 1.01
-8 10 0 2.49 1.52
8 10 0 2.14 0.71
9 -10 0 2 1.57
-9 -10 0 3.69 1.06
9 -10 0 3.31 0.98
9 -10 0 2.9 1.21
9 -10 0 1.32 1.28
9 10 0 2.72 0.62
9 10 0 1.82 0.65
-9 10 0 2.73 1.33
-9 10 0 0.42 1.31
-9 10 0 1.95 1.03
0 -11 0 0.41 0.31
0 -11 0 0.29 0.41
0 -11 0 0.08 0.46
0 11 0 -0.4 0.75
0 11 0 0.04 0.46
0 11 0 -0.2 0.37
0 11 0 0.14 0.3
-1 -11 0 11.13 1.02
1 -11 0 10.24 0.99
1 -11 0 12.86 1.42
-1 -11 0 10.5 0.48
-1 -11 0 10.89 0.81
1 -11 0 10.53 0.68
1 11 0 10.43 0.58
-1 11 0 11.16 1.62
1 11 0 9.29 0.97
-1 11 0 11.7 1.07
-1 11 0 10.88 0.72
-1 11 0 11.05 0.68
1 11 0 10.93 1.28
1 11 0 10.48 0.86
-2 -11 0 3.28 0.98
-2 -11 0 3.38 0.54
2 -11 0 5.41 0.87
-2 -11 0 3.7 0.59
-2 -11 0 4.13 0.39
2 -11 0 4.09 0.5
2 -11 0 3.87 0.83
-2 11 0 4.36 1.25
2 11 0 4.1 0.61
-2 11 0 4.83 0.52
-2 11 0 2.81 0.76
-2 11 0 3.42 0.39
2 11 0 3.88 0.64
2 11 0 3.07 0.75
3 -11 0 1.4 0.82
-3 -11 0 0.13 0.54
-3 -11 0 0.45 0.36
-3 -11 0 0.82 0.51
3 -11 0 -0.39 0.46
3 -11 0 0.03 0.49
-3 11 0 0.78 0.49
3 11 0 0.84 0.51
3 11 0 0.24 0.55
-3 11 0 0.37 0.96
-3 11 0 -0.53 0.47
3 11 0 1.31 0.71
-4 -11 0 0.18 0.42
4 -11 0 -0.98 0.85
4 -11 0 0.23 0.59
-4 -11 0 -0.67 0.59
4 -11 0 0.18 0.58
-4 -11 0 0 0.51
4 11 0 0.09 0.63
-4 11 0 0.17 0.53
4 11 0 0.03 0.2
-4 11 0 -0.92 0.95
-4 11 0 -0.06 0.58
4 11 0 0.8 0.54
-5 -11 0 0.91 0.52
-5 -11 0 -0.39 1.28
5 -11 0 0.25 0.52
5 -11 0 0.99 0.7
-5 -11 0 0.06 0.53
-5 -11 0 0.43 0.69
5 -11 0 1.74 0.9
5 11 0 0.28 0.62
-5 11 0 0.47 0.66
-5 11 0 0.41 1.11
-5 11 0 0.59 0.65
5 11 0 0.1 0.2
5 11 0 -0.35 0.51
5 11 0 -0.3 0.71
-6 -11 0 -0.09 0.83
6 -11 0 1.28 0.74
6 -11 0 0.79 0.81
6 -11 0 0.71 0.68
-6 -11 0 0.25 0.6
-6 -11 0 0.15 0.57
6 -11 0 3.27 1.02
-6 -11 0 1.05 0.85
6 11 0 0.1 0.69
-6 11 0 -0.03 1.16
-6 11 0 0.04 0.72
-6 11 0 -0.14 0.7
6 11 0 0.45 0.56
6 11 0 -0.18 0.19
6 11 0 -1.69 0.8
7 -11 0 -1.12 1.09
7 -11 0 0.88 0.7
7 -11 0 1.48 0.93
-7 -11 0 -0.76 0.85
-7 -11 0 1.44 0.78
-7 -11 0 -0.14 0.6
-7 -11 0 -1.7 0.95
7 -11 0 -0.03 0.95
7 11 0 -0.42 0.51
7 11 0 -1.1 0.96
-7 11 0 1.15 0.86
-7 11 0 2.36 1.47
-7 11 0 0.62 0.91
7 11 0 -1.07 0.66
8 -11 0 0.84 1.37
-8 -11 0 3.88 1.31
-8 -11 0 0.5 0.99
-8 -11 0 2.2 0.98
8 -11 0 2.56 1.06
8 -11 0 3.14 1.03
8 -11 0 3.26 1.22
8 11 0 2.37 0.74
-8 11 0 2.45 1.07
8 11 0 1.07 0.65
-8 11 0 1.95 1.74
8 11 0 1.02 1.18
-8 11 0 0.94 1.01
-8 11 0 1.93 1.15
8 11 0 2.65 0.75
-9 -11 0 -0.63 1.19
9 -11 0 2.05 1.08
9 -11 0 1.31 1.34
9 -11 0 0.72 1.52
-9 -11 0 0.97 0.92
9 -11 0 -3 1.65
-9 11 0 2.12 1.44
9 11 0 0.01 0.71
-9 11 0 4.16 1.98
-9 11 0 0.04 1.18
0 -12 0 4.89 0.63
0 -12 0 3.16 0.39
0 -12 0 4.65 0.87
0 12 0 4.24 0.45
0 12 0 5.43 0.87
0 12 0 2.9 0.84
0 12 0 4.12 0.55
1 -12 0 1.37 0.64
1 -12 0 -0.29 0.41
-1 -12 0 -0.06 0.48
1 -12 0 -1.61 0.77
-1 -12 0 -0.42 0.5
-1 -12 0 -0.12 0.26
-1 12 0 0.55 0.6
1 12 0 -0.35 0.52
1 12 0 0.83 0.55
1 12 0 0.48 0.77
-1 12 0 1.42 0.93
-1 12 0 -0.19 0.44
1 12 0 0.32 0.32
-1 12 0 0.68 0.43
-2 -12 0 0.29 0.55
-2 -12 0 0.43 0.38
-2 -12 0 0.27 0.75
2 -12 0 0.58 0.77
2 -12 0 0.08 0.5
-2 -12 0 0.25 0.58
2 -12 0 -0.57 0.47
-2 12 0 0.32 0.39
2 12 0 0.23 0.52
-2 12 0 -0.52 0.62
2 12 0 -0.59 0.59
2 12 0 0.15 0.29
2 12 0 0.51 0.78
-2 12 0 -0.21 0.96
-2 12 0 -0.32 0.47
-3 -12 0 -0.17 0.78
-3 -12 0 0.07 0.42
-3 -12 0 1.59 0.58
-3 -12 0 -0.33 0.57
3 -12 0 -1.34 0.8
3 -12 0 -0.13 0.61
3 -12 0 0.74 0.57
3 12 0 0.08 0.25
-3 12 0 0.71 1.03
-3 12 0 0.26 0.54
3 12 0 -0.21 0.71
-3 12 0 -1.09 0.56
-4 -12 0 2.24 0.73
4 -12 0 3.31 0.72
4 -12 0 3.29 1.1
-4 -12 0 2.55 0.54
4 -12 0 3.38 0.69
-4 -12 0 3.07 1.03
4 12 0 3.99 0.86
4 12 0 3.04 0.23
-4 12 0 3.17 1.1
-4 12 0 3.71 0.7
-4 12 0 2.9 0.75
4 12 0 2.93 0.97
4 12 0 2.65 0.7
4 12 0 3.22 0.23
5 -12 0 -0.42 0.77
-5 -12 0 0.46 0.92
-5 -12 0 0.11 0.59
5 -12 0 -1.4 0.7
5 -12 0 -0.07 0.74
5 -12 0 0.56 1.04
-5 -12 0 -0.49 0.78
-5 -12 0 0.17 0.65
-5 12 0 0.13 0.8
-5 12 0 -0.36 1.11
5 12 0 0.3 0.76
5 12 0 -1.22 0.81
-5 12 0 0.08 0.75
6 -12 0 0.76 0.83
6 -12 0 -0.81 0.92
-6 -12 0 0.72 0.65
6 -12 0 0.4 1.14
-6 -12 0 0.18 0.93
6 -12 0 -0.23 0.92
-6 -12 0 0.3 0.95
-6 -12 0 -0.69 0.67
-6 12 0 0.25 1.18
6 12 0 -0.02 1.05
-6 12 0 -1.13 0.79
-6 12 0 0.13 0.89
6 12 0 1.02 0.64
6 12 0 -0.17 0.89
-7 -12 0 0.61 1.12
7 -12 0 2.75 1.18
7 -12 0 1.23 1.5
7 -12 0 2.18 1.03
7 -12 0 1.18 1.02
-7 -12 0 -1.18 0.78
-7 -12 0 1.26 0.86
-7 -12 0 4.21 1.16
-7 12 0 2.94 1.11
-7 12 0 1.47 1.15
7 12 0 1.08 0.9
-7 12 0 3.12 1.62
7 12 0 1.65 0.75
7 12 0 0.9 1.16
-8 -12 0 0.19 1.1
8 -12 0 -2.3 1.23
8 -12 0 -1.81 0.9
-8 -12 0 -1.86 1.19
8 -12 0 -4.07 1.6
-8 -12 0 -0.93 1.43
8 -12 0 2.74 1.44
-8 12 0 0.56 1.27
-8 12 0 1.48 2.13
8 12 0 -1.1 0.88
-8 12 0 1.4 1.26
8 12 0 -0.13 0.83
0 -13 0 -0.45 0.4
0 -13 0 -0.08 0.67
0 -13 0 0.14 0.97
0 -13 0 0.64 0.59
0 13 0 0.71 0.9
0 13 0 0.22 0.63
0 13 0 0.34 0.44
0 13 0 0.42 0.56
1 -13 0 0.61 0.78
-1 -13 0 0.87 0.64
1 -13 0 0.71 0.6
-1 -13 0 -0.32 0.6
-1 -13 0 -0.74 0.87
1 -13 0 0.11 0.48
1 -13 0 -0.48 0.95
-1 -13 0 0.08 0.43
1 13 0 0.29 0.6
1 13 0 0.22 0.81
-1 13 0 0.58 0.51
-1 13 0 0.61 1.03
1 13 0 0.37 0.73
-1 13 0 -0.61 0.67
1 13 0 0.01 0.38
-1 13 0 0.73 0.49
-2 -13 0 0.1 0.44
-2 -13 0 0.29 0.69
2 -13 0 -0.12 0.62
-2 -13 0 0.69 0.98
-2 -13 0 0.1 0.69
2 -13 0 -1.36 1.01
2 -13 0 0.5 0.57
2 13 0 -0.07 0.93
-2 13 0 0.55 0.47
-2 13 0 0.5 0.56
-2 13 0 -0.74 0.65
2 13 0 -0.73 0.72
2 13 0 -0.32 0.33
-2 13 0 0.42 0.99
-3 -13 0 5.79 0.91
-3 -13 0 2.97 1.11
3 -13 0 4.84 1.3
3 -13 0 3.85 0.72
-3 -13 0 2.5 0.54
-3 -13 0 5.25 0.89
3 -13 0 3.42 0.75
3 13 0 4.61 0.34
3 13 0 4.43 0.96
-3 13 0 4.27 1.36
3 13 0 3.62 0.83
-3 13 0 5.26 0.98
-3 13 0 6.07 0.76
3 13 0 5.65 1.19
4 -13 0 2.27 1.22
-4 -13 0 1.27 0.6
4 -13 0 5.36 1.12
-4 -13 0 0.12 0.75
-4 -13 0 2.61 1.18
-4 -13 0 3.26 0.93
4 -13 0 4.12 0.85
-4 13 0 1.66 0.77
-4 13 0 1.14 1.36
4 13 0 2.93 0.79
4 13 0 2.48 1.03
4 13 0 3.49 0.92
-4 13 0 2.05 0.86
-5 -13 0 1.5 1.03
5 -13 0 1.56 0.97
-5 -13 0 -0.11 0.8
-5 -13 0 0.83 1.16
5 -13 0 0.41 0.78
5 -13 0 0.85 0.84
-5 -13 0 -0.12 0.68
5 -13 0 1.47 1.14
-5 13 0 0.68 0.91
5 13 0 0.2 0.92
5 13 0 1.26 1.03
-5 13 0 -0.74 1.49
5 13 0 0.66 0.78
-5 13 0 2.02 0.92
6 -13 0 -0.14 0.93
6 -13 0 -1.24 1.09
-6 -13 0 0.34 1.19
-6 -13 0 0.72 1.2
6 -13 0 -0.65 1.44
-6 -13 0 1.26 0.87
-6 -13 0 0.8 0.81
6 13 0 1.03 0.82
6 13 0 1.2 1.24
6 13 0 2.15 1.11
-6 13 0 -0.46 1.7
-6 13 0 -0.96 1
-6 13 0 0.22 1.01
-7 -13 0 0 0.99
-7 -13 0 -1.65 1.28
7 -13 0 -1.58 1.32
-7 -13 0 0.3 1.38
7 -13 0 -2.46 1.84
7 -13 0 0.59 1.19
7 -13 0 0.34 1.06
7 13 0 -0.21 1
-7 13 0 0.68 1.23
7 13 0 -0.03 0.85
-7 13 0 1.19 1.92
0 -14 0 -0.8 0.81
0 -14 0 0.84 0.72
0 -14 0 -1.53 1.15
0 -14 0 0.2 0.47
0 14 0 -0.07 0.81
0 14 0 0.39 0.75
0 14 0 -0.07 1.16
0 14 0 0.65 0.52
1 -14 0 0.24 0.7
1 -14 0 0.3 0.59
-1 -14 0 0.59 0.98
1 -14 0 -2.28 1.18
-1 -14 0 0.34 0.81
-1 -14 0 -0.27 0.5
1 -14 0 -0.53 0.78
-1 -14 0 -1.52 1.16
1 14 0 0.17 1.18
-1 14 0 2.89 1.23
-1 14 0 -1.54 0.76
1 14 0 0.43 0.85
-1 14 0 0.16 0.63
1 14 0 0.3 0.47
-1 14 0 -0.22 0.57
-2 -14 0 1.97 1.24
-2 -14 0 0.94 0.85
-2 -14 0 1.17 0.84
2 -14 0 1.93 0.96
2 -14 0 1.69 1.26
-2 -14 0 0.32 0.53
2 -14 0 0.03 0.69
2 14 0 1.18 0.41
2 14 0 1 0.96
2 14 0 -1.09 1.08
-2 14 0 -0.05 0.85
-2 14 0 1.93 1.33
-2 14 0 1.28 0.66
2 14 0 0.5 0.85
3 -14 0 -0.98 0.84
-3 -14 0 -0.34 1.21
3 -14 0 -0.19 0.8
-3 -14 0 -0.46 0.59
-3 -14 0 -0.35 0.88
3 -14 0 -0.28 1.41
-3 -14 0 -0.25 0.91
3 14 0 0.44 0.27
-3 14 0 2.12 1.6
-3 14 0 -1.85 0.99
3 14 0 0.04 0.98
-3 14 0 0.11 0.75
3 14 0 0.77 0.98
3 14 0 0.52 0.85
4 -14 0 0.51 0.91
-4 -14 0 1.53 1
-4 -14 0 -1.04 0.82
-4 -14 0 0.67 1.32
4 -14 0 3.46 1.53
4 -14 0 1.43 0.8
-4 -14 0 0.18 0.66
-4 14 0 0.32 1.65
4 14 0 1.58 1.2
4 14 0 0.97 1.13
-4 14 0 3.17 1.15
4 14 0 2.62 0.9
-4 14 0 2.16 0.89
-5 -14 0 0.03 0.81
5 -14 0 1.39 1.47
5 -14 0 0.84 1.12
-5 -14 0 0.99 1.01
-5 -14 0 0.8 1.55
5 -14 0 -0.7 0.95
5 -14 0 0.84 1.08
-5 -14 0 0.75 1.23
5 14 0 3.44 1.34
5 14 0 3.03 1.25
-5 14 0 3.6 1.94
-5 14 0 2.21 1
-5 14 0 -0.21 1.07
5 14 0 1.26 0.96
6 -14 0 0.45 1.16
-6 -14 0 -1.04 1.6
6 -14 0 -0.3 1.11
6 -14 0 -3.32 1.74
6 -14 0 0.84 1.32
-6 -14 0 0.17 1.38
-6 -14 0 1.25 1
6 14 0 1.17 1.28
-6 14 0 2.66 1.31
-6 14 0 1.07 2.05
6 14 0 -1.26 0.95
0 -15 0 0.88 0.95
0 -15 0 3.3 1.55
0 -15 0 -0.19 0.52
0 -15 0 -0.44 0.88
0 -15 0 -0.11 0.58
0 15 0 -0.26 0.62
0 15 0 0.52 0.93
0 15 0 1.54 1.53
1 -15 0 4.67 0.97
-1 -15 0 4.41 1.12
-1 -15 0 5.69 1.14
1 -15 0 5.02 1.29
1 -15 0 1.98 1.62
-1 -15 0 4.99 1.54
-1 15 0 3.92 0.77
-1 15 0 3.33 1.16
1 15 0 4.88 0.62
-1 15 0 1.58 1.26
1 15 0 3.94 1.4
1 15 0 4.27 1.02
1 15 0 7.26 1.29
-2 -15 0 -1.75 1.6
-2 -15 0 0.9 0.66
-2 -15 0 2.14 1.16
-2 -15 0 0.2 1.09
2 -15 0 -0.48 0.81
2 -15 0 -1.43 0.97
2 -15 0 1.02 0.9
2 -15 0 0.47 1.61
2 15 0 -1.36 1.21
2 15 0 0.93 1.04
2 15 0 1.68 0.45
2 15 0 -0.03 1.05
-2 15 0 1.22 1.69
-2 15 0 1.34 1.12
3 -15 0 3.8 1.8
-3 -15 0 0.5 0.72
-3 -15 0 1.3 1.1
3 -15 0 -0.08 1.12
-3 -15 0 0.47 1.11
3 -15 0 -0.26 1.05
-3 15 0 0.68 0.95
3 15 0 0.71 1.38
3 15 0 1.18 1.2
-3 15 0 2.08 1.85
-3 15 0 -1.01 1.15
3 15 0 1.35 0.98
-4 -15 0 -1.02 1.18
-4 -15 0 0.36 0.84
-4 -15 0 1.89 1.19
4 -15 0 0.84 1.09
4 -15 0 0.66 0.99
4 -15 0 -0.16 1.32
4 15 0 -0.67 1.07
-4 15 0 1.75 1.05
-4 15 0 -0.4 1.89
4 15 0 1.17 1.33
4 15 0 0.21 1.3
0 -16 0 0.75 1.19
0 -16 0 1.59 1.22
0 -16 0 -0.41 0.72
0 16 0 1.17 1.95
0 16 0 -1.68 1.24
0 16 0 1.31 1.08
0 16 0 2.17 0.77
-1 -16 0 1.18 0.78
1 -16 0 1.37 1.19
-1 -16 0 -2.5 1.22
-1 -16 0 -1.48 1.15
1 -16 0 1.6 1.27
-1 16 0 -0.54 1.34
1 16 0 -2.44 1.54
1 16 0 -0.56 1.25
-1 16 0 -1.28 0.99
1 16 0 -1.27 1.23
-1 16 0 1.12 1.57
1 16 0 -0.12 0.65
-1 16 0 1.27 0.84
2 -16 0 -0.17 2.03
-2 16 0 1.55 2.14
-2 16 0 3.46 1.01
-12 0 1 -2.44 1.09
12 0 -1 -0.17 1.1
12 0 -1 0.66 1.17
12 0 -1 -0.27 0.92
11 0 -1 0.79 0.88
11 0 -1 -0.39 0.7
11 0 -1 -0.31 0.88
-11 0 1 -0.81 0.81
11 0 -1 0.24 0.86
10 0 -1 0.5 0.51
-10 0 1 0.13 0.65
10 0 -1 0.38 0.67
10 0 -1 -0.2 0.66
10 0 -1 0.36 0.57
10 0 -1 -0.12 0.6
10 0 -1 0.09 0.27
-9 0 1 -0.27 0.23
9 0 -1 -0.1 0.52
9 0 -1 -0.13 0.44
9 0 -1 0.01 0.44
-9 0 1 -0.52 0.28
9 0 -1 -0.03 0.23
9 0 -1 -0.19 0.36
-9 0 1 -0.86 0.5
9 0 -1 -0.15 0.38
8 0 -1 -0.25 0.41
8 0 -1 -0.24 0.37
-8 0 1 -0.31 0.2
8 0 -1 0.34 0.34
8 0 -1 -0.33 0.29
-8 0 1 0.29 0.43
8 0 -1 -0.15 0.18
-8 0 1 0.35 0.29
8 0 -1 -0.23 0.34
-7 0 1 0.17 0.16
7 0 -1 0.09 0.18
-7 0 1 -0.09 0.33
7 0 -1 0.07 0.25
7 0 -1 -0.22 0.31
7 0 -1 -0.11 0.3
7 0 -1 0.06 0.27
-7 0 1 -0.34 0.22
6 0 -1 0.06 0.22
-6 0 1 -0.02 0.2
6 0 -1 0.12 0.14
-6 0 1 -0.26 0.25
6 0 -1 -0.18 0.23
6 0 -1 -0.09 0.23
-6 0 1 -0.08 0.12
6 0 -1 0.09 0.21
-5 0 1 0.12 0.17
5 0 -1 -0.02 0.15
5 0 -1 0.15 0.2
-5 0 1 -0.02 0.2
-5 0 1 0.03 0.1
5 0 -1 0.07 0.2
5 0 -1 0.11 0.11
5 0 -1 0.22 0.19
-5 0 1 -0.05 0.17
4 0 -1 0.15 0.08
-4 0 1 0 0.13
-4 0 1 -0.07 0.06
4 0 -1 0.05 0.13
4 0 -1 -0.09 0.15
4 0 -1 0.06 0.15
-4 0 1 -0.09 0.15
4 0 -1 0.07 0.15
-4 0 1 0.08 0.14
-3 0 1 -0.11 0.09
3 0 -1 0.03 0.11
-3 0 1 0 0.06
3 0 -1 0.02 0.05
3 0 -1 0.02 0.1
3 0 -1 0 0.09
3 0 -1 -0.03 0.11
-3 0 1 0.01 0.12
-2 0 1 0.01 0.07
2 0 -1 -0.02 0.05
-2 0 1 0.03 0.04
2 0 -1 -0.02 0.07
2 0 -1 -0.03 0.06
2 0 -1 0.04 0.09
2 0 -1 0.04 0.09
-2 0 1 -0.02 0.08
1 0 -1 -0.04 0.04
1 0 -1 0.05 0.06
1 0 -1 0.03 0.03
1 0 -1 0.06 0.04
1 0 -1 0.03 0.05
1 0 1 0.11 0.08
-1 0 -1 -0.01 0.03
1 0 1 0.02 0.04
1 0 1 0.14 0.06
-1 0 -1 0.06 0.05
-1 0 -1 0.09 0.09
2 0 1 0.01 0.09
2 0 1 0.01 0.13
-2 0 -1 0.01 0.14
-2 0 -1 0.04 0.09
2 0 1 0 0.04
-2 0 -1 0.07 0.08
-2 0 -1 0.01 0.08
2 0 1 -0.05 0.07
-3 0 -1 -0.06 0.09
3 0 1 -0.03 0.09
3 0 1 -0.05 0.11
3 0 1 0.15 0.14
3 0 1 0 0.07
3 0 1 0.03 0.11
-3 0 -1 0.05 0.13
-3 0 -1 -0.12 0.15
-3 0 -1 -0.01 0.12
4 0 1 -0.15 0.15
4 0 1 -0.19 0.16
4 0 1 -0.02 0.11
-4 0 -1 0.01 0.11
-4 0 -1 0.1 0.17
4 0 1 0.07 0.15
-4 0 -1 0.01 0.17
-4 0 -1 -0.08 0.21
4 0 1 0.02 0.1
5 0 1 -0.06 0.15
-5 0 -1 0.16 0.21
-5 0 -1 -0.04 0.23
-5 0 -1 0.17 0.27
5 0 1 -0.02 0.18
5 0 1 0.23 0.22
-5 0 -1 -0.11 0.12
5 0 1 -0.01 0.13
5 0 1 0.09 0.21
6 0 1 0.41 0.19
-6 0 -1 -0.08 0.29
6 0 1 0.75 0.28
6 0 1 0.41 0.23
-6 0 -1 0.78 0.32
-6 0 -1 0.05 0.19
-6 0 -1 -0.05 0.27
6 0 1 0.3 0.18
7 0 1 -0.1 0.28
7 0 1 -0.06 0.32
-7 0 -1 -0.13 0.41
-7 0 -1 -0.17 0.21
7 0 1 -0.12 0.2
-7 0 -1 -0.07 0.34
7 0 1 -0.03 0.22
-8 0 -1 -0.22 0.46
8 0 1 -0.3 0.32
8 0 1 0.24 0.28
8 0 1 0.22 0.26
-8 0 -1 0.19 0.28
-8 0 -1 -0.5 0.4
9 0 1 0.03 0.33
-9 0 -1 -0.11 0.33
9 0 1 -0.6 0.37
10 0 1 0.05 0.84
-10 0 -1 -0.03 0.76
-10 0 -1 0.44 0.54
10 0 1 0.15 0.41
10 0 1 0.07 0.71
11 0 1 1.8 1.02
-11 0 -1 -0.48 0.49
11 0 1 0.43 1.06
11 0 1 -0.1 0.5
-11 0 -1 -0.56 0.98
-11 0 -1 0.26 0.6
11 0 1 0.73 0.46
11 0 1 0.12 0.84
12 0 1 0.44 0.52
12 0 1 -1.87 1.09
12 0 1 -1.11 0.63
-12 0 -1 0.23 1.25
12 -1 -1 -1.07 1.21
12 -1 -1 -1.89 0.85
12 -1 -1 0.29 1.21
12 -1 -1 0.27 0.54
12 1 -1 3.14 1.21
12 1 -1 0.79 1.01
-12 1 1 -1.13 1.14
12 1 -1 -0.38 1.34
12 1 -1 0.93 1.14
11 -1 -1 0.57 0.37
11 -1 -1 1.26 0.76
11 -1 -1 0.09 0.89
-11 -1 1 1.42 0.83
11 -1 -1 0.39 0.86
11 -1 -1 0.51 0.6
11 -1 -1 0.89 0.9
-11 1 1 -0.43 0.91
11 1 -1 1 0.65
11 1 -1 -0.36 0.73
11 1 -1 0 0.87
11 1 -1 0.06 0.84
11 1 -1 0.73 0.88
-10 -1 1 0.39 0.63
10 -1 -1 0.3 0.51
10 -1 -1 0.04 0.32
10 -1 -1 0.44 0.54
10 1 -1 0.49 0.61
10 1 -1 -0.85 0.65
10 1 -1 0.56 0.66
-10 1 1 -0.3 0.74
-10 1 1 0.01 0.31
10 1 -1 0.33 0.61
-10 1 1 -0.53 0.37
10 1 -1 0.6 0.51
9 -1 -1 0.46 0.42
-9 -1 1 0.47 0.51
9 -1 -1 0.39 0.28
9 -1 -1 0.56 0.51
-9 1 1 0.03 0.27
9 1 -1 0.45 0.48
-9 1 1 0.07 0.67
9 1 -1 -0.07 0.4
9 1 -1 0.18 0.53
-9 1 1 -0.13 0.32
9 1 -1 0.05 0.53
8 -1 -1 2.14 0.44
8 -1 -1 2.08 0.36
8 -1 -1 2.27 0.39
8 -1 -1 1.92 0.58
-8 -1 1 1.82 0.45
8 -1 -1 2.24 0.34
8 -1 -1 1.13 0.38
8 1 -1 1.82 0.42
8 1 -1 1.92 0.46
-8 1 1 1.61 0.31
8 1 -1 2.49 0.49
-8 1 1 1.82 0.49
8 1 -1 2.01 0.27
8 1 -1 1.38 0.36
8 1 -1 1.95 0.42
7 -1 -1 4.63 0.43
7 -1 -1 3.96 0.42
-7 -1 1 4.24 0.43
7 -1 -1 5.47 0.4
7 -1 -1 4.86 0.52
7 -1 -1 4.61 0.39
7 1 -1 5.12 0.52
-7 1 1 5.28 0.38
-7 1 1 4.88 0.41
7 1 -1 4.95 0.44
7 1 -1 5.15 0.43
7 1 -1 5.17 0.45
-7 1 1 4.29 0.47
7 1 -1 4.64 0.38
7 1 -1 5.3 0.31
6 -1 -1 1.06 0.28
6 -1 -1 1.2 0.23
-6 -1 1 0.72 0.27
6 -1 -1 1.15 0.28
6 -1 -1 0.72 0.2
6 -1 -1 0.8 0.28
6 1 -1 0.9 0.23
6 1 -1 0.71 0.25
6 1 -1 1.39 0.31
6 1 -1 0.86 0.29
-6 1 1 0.82 0.23
-6 1 1 0.9 0.2
6 1 -1 1.63 0.25
6 1 -1 1.54 0.2
-6 1 1 0.82 0.3
-5 -1 1 8.08 0.43
5 -1 -1 8.06 0.41
5 -1 -1 8.64 0.39
5 -1 -1 8.46 0.48
5 -1 -1 8.96 0.47
5 -1 -1 8.46 0.46
5 1 -1 8.49 0.35
-5 1 1 8.55 0.39
5 1 -1 8.32 0.46
5 1 -1 9.1 0.4
-5 1 1 8.98 0.47
5 1 -1 8.38 0.43
5 1 -1 8.22 0.42
5 1 -1 8.8 0.31
-5 1 1 8.39 0.38
4 -1 -1 31.16 0.83
4 -1 -1 29.69 0.89
4 -1 -1 29.55 0.8
4 -1 -1 29.1 0.78
-4 -1 1 29.82 0.78
4 -1 -1 29.74 0.74
-4 -1 1 29.43 0.78
-4 1 1 29.97 0.81
-4 1 1 29.01 0.8
4 1 -1 31.08 0.79
-4 1 1 29.22 0.74
4 1 -1 28.27 0.76
4 1 -1 30.05 0.75
4 1 -1 28.82 0.8
3 -1 -1 12.18 0.36
3 -1 -1 12.03 0.41
-3 -1 1 11.71 0.37
3 -1 -1 12.32 0.47
-3 -1 1 12.23 0.38
3 -1 -1 11.3 0.39
-3 1 1 11.46 0.36
3 1 -1 11.97 0.4
-3 1 1 11.59 0.39
3 1 -1 11.96 0.38
3 1 -1 11.58 0.37
3 1 -1 11.99 0.36
3 1 -1 12.54 0.39
-3 1 1 12.07 0.4
-3 1 1 11.74 0.47
2 -1 -1 0.06 0.13
2 -1 -1 0.03 0.08
2 -1 -1 0.08 0.05
2 -1 -1 -0.01 0.08
-2 -1 1 0.03 0.08
2 -1 -1 0.07 0.07
-2 -1 1 0.05 0.09
-2 1 1 -0.04 0.11
2 1 -1 -0.01 0.07
2 1 -1 0.01 0.07
-2 1 1 0.07 0.08
2 1 -1 0.1 0.08
-2 1 1 0.01 0.07
2 1 -1 -0.02 0.08
2 1 -1 -0.05 0.07
-2 1 1 -0.08 0.09
-1 -1 1 0.46 0.06
-1 -1 1 0.43 0.07
1 -1 -1 0.55 0.09
1 -1 -1 0.32 0.06
1 -1 -1 0.36 0.08
-1 1 1 0.58 0.11
1 1 -1 0.46 0.05
-1 1 1 0.45 0.07
1 1 -1 0.46 0.05
-1 1 1 0.32 0.06
1 1 -1 0.31 0.06
1 1 -1 0.41 0.06
1 1 -1 0.37 0.08
1 1 -1 0.35 0.05
0 -1 1 6.22 0.17
0 -1 -1 5.85 0.16
0 1 1 5.41 0.16
0 1 -1 6.05 0.23
0 1 1 5.42 0.24
-1 -1 -1 27.2 0.62
1 -1 1 28.56 0.72
-1 -1 -1 23.68 0.68
-1 -1 -1 28.12 0.71
1 -1 1 27.42 0.78
-1 -1 -1 29.69 0.6
-1 -1 -1 27.87 0.65
-1 1 -1 28.07 0.71
1 1 1 28.22 0.71
1 1 1 27.38 0.62
-1 1 -1 29.02 0.79
1 1 1 29.23 0.7
-2 -1 -1 0.95 0.12
-2 -1 -1 1.09 0.14
2 -1 1 0.86 0.11
-2 -1 -1 0.87 0.1
2 -1 1 0.99 0.21
2 -1 1 1 0.15
-2 -1 -1 0.97 0.18
-2 1 -1 0.81 0.12
2 1 1 1.21 0.15
-2 1 -1 1.08 0.15
-2 1 -1 0.81 0.19
2 1 1 0.97 0.13
-2 1 -1 0.96 0.07
-2 1 -1 0.95 0.12
2 1 1 0.97 0.12
2 1 1 0.97 0.1
3 -1 1 1.97 0.22
-3 -1 -1 1.89 0.2
-3 -1 -1 2 0.25
-3 -1 -1 1.65 0.18
3 -1 1 1.79 0.27
3 -1 1 2.12 0.18
-3 -1 -1 1.59 0.16
-3 1 -1 1.66 0.18
-3 1 -1 2.15 0.19
-3 1 -1 1.8 0.14
3 1 1 1.82 0.22
3 1 1 2.1 0.19
-3 1 -1 1.99 0.21
3 1 1 1.59 0.15
3 1 1 1.7 0.18
-3 1 -1 1.93 0.28
4 -1 1 2.8 0.28
4 -1 1 2.87 0.37
4 -1 1 2.46 0.24
-4 -1 -1 2.15 0.21
-4 -1 -1 2.64 0.37
-4 -1 -1 2.49 0.25
-4 -1 -1 2.25 0.24
4 1 1 2.78 0.25
4 1 1 3.54 0.32
4 1 1 1.71 0.22
-4 1 -1 2.62 0.2
4 1 1 2.24 0.2
4 1 1 2.8 0.21
-4 1 -1 2.54 0.24
-4 1 -1 2.59 0.26
-4 1 -1 2.87 0.27
-4 1 -1 2.46 0.38
-5 -1 -1 -0.13 0.22
5 -1 1 0.21 0.15
5 -1 1 0.04 0.24
5 -1 1 0.03 0.22
-5 -1 -1 0.1 0.16
-5 -1 -1 0.05 0.23
-5 -1 -1 -0.23 0.21
5 1 1 0.14 0.17
5 1 1 0.1 0.19
5 1 1 0.14 0.14
-5 1 -1 0.12 0.28
-5 1 -1 -0.38 0.23
5 1 1 -0.08 0.22
-5 1 -1 0.01 0.14
-5 1 -1 -0.29 0.13
-5 1 -1 0.12 0.24
5 1 1 0.17 0.14
-6 -1 -1 3.52 0.37
-6 -1 -1 3.37 0.39
6 -1 1 3.75 0.47
6 -1 1 3.25 0.38
6 -1 1 3.5 0.38
-6 -1 -1 3.45 0.34
6 1 1 3.24 0.33
6 1 1 2.96 0.4
-6 1 -1 2.99 0.38
6 1 1 3.09 0.33
-6 1 -1 3.59 0.54
6 1 1 3.24 0.27
6 1 1 3.33 0.4
-6 1 -1 2.69 0.35
6 1 1 2.95 0.36
7 -1 1 16.12 0.89
-7 -1 -1 16.44 0.79
-7 -1 -1 16.78 0.68
-7 -1 -1 16.52 0.83
7 -1 1 16.29 0.8
7 -1 1 16.25 0.76
7 1 1 16.49 0.69
-7 1 -1 16.5 0.74
-7 1 -1 16.41 0.84
7 1 1 16.19 0.6
7 1 1 15.8 0.86
7 1 1 16.11 0.75
-7 1 -1 15.86 0.97
-8 -1 -1 0.14 0.27
-8 -1 -1 0.28 0.47
8 -1 1 0.31 0.37
8 -1 1 0.05 0.25
8 -1 1 0.34 0.59
-8 -1 -1 -0.12 0.45
8 1 1 0.01 0.25
-8 1 -1 0.08 0.26
8 1 1 0.82 0.3
-8 1 -1 0.09 0.48
-8 1 -1 0.14 0.46
9 -1 1 16.7 0.86
9 -1 1 16.02 0.98
-9 -1 -1 16.73 1.1
-9 -1 -1 16.05 0.78
-9 1 -1 15.79 0.85
9 1 1 16.13 0.78
-9 1 -1 15.95 1.14
9 1 1 15.82 0.77
10 -1 1 0.14 0.77
10 -1 1 -0.48 0.37
10 -1 1 -0.19 0.47
-10 -1 -1 -0.32 0.48
-10 -1 -1 0.01 0.71
-10 -1 -1 0.04 0.4
-10 1 -1 -0.46 0.74
10 1 1 -0.16 0.76
-10 1 -1 -0.24 0.41
10 1 1 -0.19 0.74
10 1 1 0.31 0.46
10 1 1 0 0.35
11 -1 1 -0.58 0.95
11 -1 1 -0.32 1.05
11 -1 1 -0.58 0.8
11 -1 1 0.15 0.44
-11 -1 -1 0.22 0.91
11 -1 1 -0.33 0.7
-11 1 -1 0.36 0.99
11 1 1 0.79 0.46
11 1 1 -0.28 0.95
11 1 1 0.45 1.02
-11 1 -1 0.49 0.67
11 1 1 1.04 0.95
-12 -1 -1 0.94 1.28
12 -1 1 0.48 0.62
12 -1 1 -0.51 1.01
-12 1 -1 -0.53 1.28
-12 1 -1 -0.3 0.63
12 1 1 0.36 1.18
12 -2 -1 1.2 1.3
12 -2 -1 0.91 1.26
12 -2 -1 -1.22 0.82
12 -2 -1 -0.01 0.54
12 -2 -1 -1.06 0.78
12 2 -1 -0.99 1.07
12 2 -1 -2.06 1.18
12 2 -1 -0.47 1.77
12 2 -1 -0.08 0.85
-12 2 1 0.43 1.16
12 2 -1 0.16 1.06
-12 2 1 -0.35 0.65
11 -2 -1 -1.24 0.97
11 -2 -1 0.8 0.64
11 -2 -1 0.72 0.43
11 -2 -1 0.62 0.86
11 -2 -1 -0.26 0.86
11 2 -1 0.27 0.66
11 2 -1 -0.13 0.83
-11 2 1 -1.45 0.88
11 2 -1 0.17 0.78
11 2 -1 -0.03 0.87
-11 2 1 -0.28 0.6
11 2 -1 0.59 0.88
-11 2 1 0.08 0.43
11 2 -1 -0.42 0.72
10 -2 -1 0.34 0.67
10 -2 -1 -0.11 0.48
10 -2 -1 -0.32 0.35
10 2 -1 0.19 0.63
-10 2 1 -0.25 0.4
-10 2 1 -0.25 0.7
10 2 -1 0.35 0.56
10 2 -1 0.16 0.53
10 2 -1 0.26 0.69
10 2 -1 -0.72 0.64
-9 -2 1 1.91 0.56
9 -2 -1 2.47 0.52
9 -2 -1 2.04 0.43
9 -2 -1 1.92 0.56
9 -2 -1 1.44 0.39
9 2 -1 2.24 0.52
9 2 -1 2.29 0.47
-9 2 1 1.2 0.38
9 2 -1 1.98 0.57
-9 2 1 0.48 0.61
9 2 -1 2.07 0.57
9 2 -1 2.47 0.58
-9 2 1 2.1 0.44
8 -2 -1 0.19 0.33
8 -2 -1 -0.23 0.3
8 -2 -1 -0.21 0.25
8 -2 -1 0.3 0.4
-8 -2 1 -0.28 0.38
-8 2 1 0.03 0.24
8 2 -1 0.33 0.43
-8 2 1 0.16 0.34
-8 2 1 0.22 0.46
8 2 -1 -0.24 0.33
-8 2 1 0.03 0.41
8 2 -1 -0.36 0.34
8 2 -1 0.02 0.4
8 2 -1 -0.02 0.4
7 -2 -1 27.41 0.97
7 -2 -1 28.58 0.99
7 -2 -1 27.79 0.98
-7 -2 1 28.07 0.94
7 -2 -1 28.04 1.12
-7 2 1 26.42 1.12
7 2 -1 27.73 0.87
-7 2 1 28.05 0.86
7 2 -1 27.27 0.91
7 2 -1 27.9 0.93
-7 2 1 28.44 0.94
7 2 -1 25.27 0.98
-7 2 1 26.64 1.01
7 2 -1 27.57 0.98
6 -2 -1 8.37 0.54
-6 -2 1 7.38 0.49
6 -2 -1 6.96 0.59
-6 -2 1 8.58 0.55
6 -2 -1 7.73 0.47
6 -2 -1 7.17 0.49
6 2 -1 8.1 0.51
6 2 -1 7.18 0.53
6 2 -1 8.51 0.54
-6 2 1 8.03 0.47
-6 2 1 7.79 0.53
6 2 -1 8.24 0.48
-6 2 1 7.87 0.45
6 2 -1 7.48 0.45
-6 2 1 7.75 0.64
5 -2 -1 0.56 0.25
5 -2 -1 0.23 0.2
-5 -2 1 0.37 0.2
-5 -2 1 0.38 0.23
5 -2 -1 0.18 0.17
5 -2 -1 0.28 0.23
-5 2 1 0.31 0.3
-5 2 1 0.19 0.25
5 2 -1 0.49 0.18
-5 2 1 0.43 0.19
-5 2 1 0.39 0.17
5 2 -1 0.31 0.19
5 2 -1 0.44 0.21
5 2 -1 0.24 0.18
-4 -2 1 17.46 0.55
4 -2 -1 17.55 0.62
4 -2 -1 16.91 0.54
4 -2 -1 16.33 0.55
4 -2 -1 18.13 0.72
4 2 -1 17.56 0.57
4 2 -1 16.98 0.52
-4 2 1 17.11 0.52
-4 2 1 17.2 0.73
4 2 -1 16.81 0.52
4 2 -1 17.4 0.53
4 2 -1 16.91 0.57
-4 2 1 16.67 0.61
-4 2 1 16.78 0.57
3 -2 -1 13.94 0.59
3 -2 -1 13.95 0.51
-3 -2 1 13.68 0.42
-3 -2 1 15.08 0.48
3 2 -1 13.91 0.42
-3 2 1 13.62 0.6
-3 2 1 14.74 0.47
3 2 -1 13.61 0.4
3 2 -1 13.9 0.45
-3 2 1 13.97 0.52
3 2 -1 13.74 0.45
3 2 -1 14.33 0.38
3 2 -1 14.05 0.37
-3 2 1 14.4 0.43
-2 -2 1 90.57 1.96
2 -2 -1 88.77 1.93
2 -2 -1 87.82 2.05
-2 -2 1 85.72 1.89
2 -2 -1 90.53 2.13
-2 -2 1 91.86 1.94
2 2 -1 89.77 1.89
2 2 -1 93.46 1.95
-2 2 1 92.46 2.06
2 2 -1 88.12 1.93
-2 2 1 90.96 1.93
-2 2 1 90.45 2.12
2 2 -1 92.44 1.96
2 2 -1 92.34 1.86
-1 -2 1 7.64 0.33
-1 -2 1 7.61 0.24
-1 -2 1 7.38 0.28
-1 -2 1 7.46 0.26
1 -2 -1 7.37 0.23
1 -2 -1 7.5 0.33
1 -2 -1 7.39 0.25
-1 -2 1 7.85 0.19
1 -2 -1 7.45 0.38
1 2 -1 7.37 0.35
1 2 -1 7.61 0.26
1 2 -1 7.29 0.28
-1 2 1 7.82 0.24
-1 2 1 7.26 0.38
-1 2 1 7.66 0.33
-1 2 1 7.55 0.25
1 2 -1 7.63 0.19
1 2 -1 7.62 0.24
0 -2 -1 55.59 1.21
0 -2 1 57.96 1.33
0 -2 1 56.79 1.39
0 -2 1 59.76 1.21
0 -2 -1 56 1.37
0 -2 -1 57.7 1.34
0 -2 -1 57.21 1.19
0 2 -1 53.56 1.31
0 2 1 58.12 1.34
0 2 -1 54.26 1.39
0 2 1 55.58 1.37
0 2 1 57.27 1.19
0 2 1 56.58 1.16
-1 -2 -1 1.64 0.19
1 -2 1 1.37 0.25
1 -2 1 1.49 0.19
1 -2 1 1.36 0.12
-1 -2 -1 1.34 0.13
-1 -2 -1 1.56 0.19
-1 2 -1 1.6 0.19
1 2 1 1.65 0.15
1 2 1 1.71 0.22
1 2 1 1.51 0.06
1 2 1 1.56 0.2
-1 2 -1 1.51 0.24
-2 -2 -1 0.01 0.09
2 -2 1 0.07 0.09
-2 -2 -1 0.03 0.07
-2 -2 -1 -0.02 0.11
2 -2 1 0 0.09
-2 -2 -1 0.03 0.09
-2 -2 -1 0 0.1
2 -2 1 -0.08 0.14
2 2 1 0 0.1
-2 2 -1 0.02 0.09
-2 2 -1 0.2 0.18
2 2 1 0.04 0.1
2 2 1 0.01 0.1
2 2 1 0.06 0.06
2 2 1 -0.09 0.09
3 -2 1 4.41 0.41
3 -2 1 3.88 0.31
-3 -2 -1 3.98 0.27
-3 -2 -1 4.28 0.33
-3 -2 -1 3.78 0.23
3 -2 1 4.27 0.27
-3 -2 -1 4.08 0.27
-3 2 -1 4.5 0.44
-3 2 -1 4.02 0.31
-3 2 -1 4.03 0.2
3 2 1 3.84 0.29
3 2 1 4.14 0.27
3 2 1 3.95 0.21
-3 2 -1 4.3 0.29
3 2 1 3.84 0.27
3 2 1 4.01 0.26
-4 -2 -1 0.12 0.13
4 -2 1 0.2 0.24
-4 -2 -1 0.16 0.16
-4 -2 -1 -0.06 0.19
4 -2 1 0.3 0.17
-4 -2 -1 0.1 0.18
4 -2 1 0.05 0.18
-4 2 -1 0.11 0.3
4 2 1 0.17 0.15
4 2 1 0.21 0.19
4 2 1 0.14 0.18
-4 2 -1 0.06 0.15
4 2 1 0.2 0.13
4 2 1 0.18 0.14
-4 2 -1 0.14 0.12
-4 2 -1 0.06 0.19
5 -2 1 0.25 0.19
5 -2 1 -0.18 0.24
-5 -2 -1 -0.26 0.2
-5 -2 -1 -0.04 0.15
5 -2 1 -0.02 0.23
-5 -2 -1 0.06 0.24
-5 -2 -1 -0.09 0.23
-5 2 -1 0.09 0.15
5 2 1 0.1 0.15
5 2 1 0.03 0.17
-5 2 -1 -0.28 0.24
-5 2 -1 0.16 0.33
5 2 1 0.25 0.16
5 2 1 0.13 0.23
5 2 1 0.17 0.23
-5 2 -1 0.04 0.15
5 2 1 0.31 0.16
6 -2 1 2.73 0.45
-6 -2 -1 2.48 0.34
-6 -2 -1 2.5 0.31
6 -2 1 2.32 0.34
-6 -2 -1 2.24 0.37
6 -2 1 2.51 0.37
6 2 1 2.12 0.26
-6 2 -1 2.21 0.33
6 2 1 2.66 0.33
-6 2 -1 1.81 0.35
6 2 1 2.11 0.3
-6 2 -1 2.19 0.24
-6 2 -1 3.18 0.54
6 2 1 2.11 0.33
6 2 1 2.76 0.39
6 2 1 2.8 0.32
-7 -2 -1 4.87 0.45
7 -2 1 5.9 0.54
-7 -2 -1 5.79 0.54
7 -2 1 4.81 0.54
-7 -2 -1 5.28 0.47
7 -2 1 5.75 0.66
7 2 1 5.05 0.53
7 2 1 5.72 0.47
-7 2 -1 5.72 0.44
7 2 1 6.2 0.47
7 2 1 5.77 0.44
-7 2 -1 4.36 0.51
-7 2 -1 5.37 0.7
-7 2 -1 5.01 0.51
7 2 1 5.53 0.5
-8 -2 -1 9.59 0.7
8 -2 1 9.72 0.84
-8 -2 -1 8.86 0.81
8 -2 1 7.83 0.79
8 -2 1 9.7 0.68
-8 -2 -1 7.08 0.56
-8 -2 -1 8.57 0.79
8 2 1 9.95 0.83
-8 2 -1 7.64 0.69
-8 2 -1 8.53 0.65
8 2 1 8.92 0.6
8 2 1 8.44 0.56
-8 2 -1 9.45 1.04
8 2 1 8.3 0.64
9 -2 1 3.62 0.67
-9 -2 -1 5.24 0.68
9 -2 1 4.8 0.6
-9 -2 -1 4.22 0.54
9 -2 1 3.84 0.68
9 2 1 4.97 0.52
9 2 1 4.89 0.49
9 2 1 4.61 0.67
-9 2 -1 3.89 0.68
-9 2 -1 4.75 0.55
9 2 1 3.92 0.53
10 -2 1 3.82 0.73
-10 -2 -1 2.56 0.76
10 -2 1 1.72 0.78
10 -2 1 3 0.59
-10 2 -1 2.95 0.85
10 2 1 2.31 0.43
10 2 1 2.71 0.54
10 2 1 2.06 0.82
10 2 1 3.49 0.42
10 2 1 2.76 0.83
-11 -2 -1 0.56 0.87
11 -2 1 -0.06 0.63
11 -2 1 -1.3 0.94
11 -2 1 0.15 0.54
11 -2 1 -0.1 0.78
-11 2 -1 -1.06 0.98
11 2 1 0.61 0.93
11 2 1 0.82 0.64
-11 2 -1 0.13 0.94
11 2 1 0.7 1.04
-11 2 -1 0.14 0.56
11 2 1 0.97 0.94
12 -2 1 0.9 0.7
12 -2 1 0.57 1.6
12 -2 1 1.42 0.99
12 2 1 1.02 1.25
-12 2 -1 0.28 0.72
-12 2 -1 1.46 1.42
12 -3 -1 -0.64 1.32
12 -3 -1 0.37 0.64
12 -3 -1 0 0.75
-12 3 1 -1.81 1.16
12 3 -1 0.16 0.87
12 3 -1 2.07 1.12
12 3 -1 -1.18 1.14
-12 3 1 -1.68 1.28
-12 3 1 -0.05 0.61
11 -3 -1 0.66 0.5
11 -3 -1 -0.94 1.02
11 -3 -1 -0.23 0.94
11 -3 -1 -0.31 0.62
11 -3 -1 0.28 0.58
11 3 -1 -0.68 0.91
-11 3 1 1.95 0.97
11 3 -1 -1 0.87
11 3 -1 -0.32 0.75
11 3 -1 0.18 0.87
11 3 -1 0.43 0.85
10 -3 -1 1.47 0.45
10 -3 -1 1.2 0.47
10 -3 -1 0.93 0.72
10 -3 -1 1.92 0.64
-10 3 1 0.76 0.53
-10 3 1 1.25 0.49
10 3 -1 1.19 0.69
10 3 -1 1.13 0.64
10 3 -1 1.21 0.57
-10 3 1 2.7 0.82
10 3 -1 1.61 0.71
-10 3 1 0.17 0.62
10 3 -1 1.56 0.7
10 3 -1 0.79 0.58
9 -3 -1 10.62 0.94
9 -3 -1 9.8 0.69
9 -3 -1 9.2 0.76
9 3 -1 9.14 0.91
9 3 -1 9.69 0.8
-9 3 1 10.7 0.78
-9 3 1 10.4 0.73
-9 3 1 10.46 0.88
9 3 -1 11.27 0.79
9 3 -1 9.14 0.67
9 3 -1 9.47 0.8
8 -3 -1 19.33 1.09
8 -3 -1 21.29 0.93
8 -3 -1 20.84 0.74
8 -3 -1 19.8 0.93
8 -3 -1 20.22 0.93
-8 3 1 21.07 0.9
8 3 -1 14.23 1.35
-8 3 1 19.66 1.17
8 3 -1 21.5 0.99
8 3 -1 21 0.86
8 3 -1 20.35 0.87
8 3 -1 19.67 0.94
-8 3 1 18.46 1.04
-8 3 1 21.88 0.84
7 -3 -1 31.8 1.13
7 -3 -1 31.11 1.28
7 -3 -1 31.04 1.07
7 -3 -1 31.34 1.02
-7 -3 1 30.01 1.03
7 -3 -1 31.66 0.86
7 3 -1 29.73 1.05
7 3 -1 32.01 1.02
-7 3 1 31.09 0.94
-7 3 1 31.71 1.07
7 3 -1 30.85 0.98
7 3 -1 31.83 1.09
-7 3 1 29.93 1.07
-7 3 1 31.23 1.29
7 3 -1 29.43 0.96
6 -3 -1 7.94 0.53
6 -3 -1 8.33 0.52
6 -3 -1 7.86 0.54
6 -3 -1 7.27 0.65
-6 -3 1 7.47 0.53
6 3 -1 8.02 0.49
-6 3 1 8.2 0.52
6 3 -1 7.55 0.53
-6 3 1 8.51 0.48
-6 3 1 7.9 0.7
6 3 -1 7.73 0.59
6 3 -1 8.21 0.52
-6 3 1 7.24 0.59
6 3 -1 7.48 0.47
-5 -3 1 2.66 0.29
5 -3 -1 1.98 0.27
5 -3 -1 2.85 0.35
5 -3 -1 2.66 0.4
5 -3 -1 2.54 0.32
-5 3 1 3.01 0.35
5 3 -1 2.14 0.25
5 3 -1 2.39 0.31
-5 3 1 2.52 0.34
5 3 -1 2.67 0.26
-5 3 1 2.35 0.43
5 3 -1 2.75 0.28
-5 3 1 2.46 0.27
5 3 -1 2.72 0.3
4 -3 -1 13.9 0.72
-4 -3 1 13.49 0.49
4 -3 -1 13.14 0.51
-4 -3 1 13.83 0.45
4 -3 -1 14.42 0.61
-4 -3 1 13.56 0.54
4 3 -1 13.34 0.53
4 3 -1 13.29 0.46
4 3 -1 13.65 0.46
4 3 -1 13.99 0.52
4 3 -1 13.83 0.43
-4 3 1 13.51 0.52
-4 3 1 14.01 0.49
4 3 -1 13.43 0.43
-4 3 1 13.5 0.73
-4 3 1 12.91 0.58
-3 -3 1 0.42 0.16
3 -3 -1 0.14 0.19
-3 -3 1 0.29 0.15
3 -3 -1 0.29 0.15
-3 -3 1 0.33 0.13
3 -3 -1 0.37 0.17
3 3 -1 0.32 0.14
3 3 -1 0.39 0.15
-3 3 1 0.28 0.16
-3 3 1 0.27 0.14
3 3 -1 0.19 0.11
-3 3 1 0.27 0.21
3 3 -1 0.25 0.11
3 3 -1 0.43 0.14
-2 -3 1 16.16 0.42
-2 -3 1 16.44 0.49
2 -3 -1 16.16 0.6
2 -3 -1 16.3 0.47
-2 -3 1 16.89 0.51
2 -3 -1 15.79 0.48
-2 -3 1 16.72 0.57
2 -3 -1 16.19 0.69
2 3 -1 16.29 0.56
-2 3 1 16.45 0.6
2 3 -1 16.28 0.36
2 3 -1 16.15 0.41
-2 3 1 16.39 0.69
2 3 -1 16.78 0.5
2 3 -1 17.05 0.51
2 3 -1 16.77 0.47
-1 -3 1 58.86 1.41
1 -3 -1 57.61 1.55
1 -3 -1 57.61 1.47
-1 -3 1 59.21 1.23
1 -3 -1 59.38 1.29
-1 -3 1 60.59 1.32
-1 -3 1 57.28 1.48
-1 -3 1 61.21 1.31
-1 3 1 58.29 1.47
1 3 -1 60.96 1.32
-1 3 1 58.86 1.55
1 3 -1 61.21 1.51
1 3 -1 57.11 1.41
-1 3 1 62.23 1.28
0 -3 -1 15.75 0.38
0 -3 1 15.85 0.54
0 -3 1 15.09 0.62
0 -3 1 15.74 0.42
0 -3 -1 15.64 0.56
0 -3 -1 15.3 0.6
0 3 -1 15.58 0.54
0 3 -1 15.53 0.41
0 3 1 15.42 0.36
0 3 1 14.71 0.59
0 3 1 15.16 0.38
0 3 1 15.13 0.55
0 3 -1 15.29 0.64
1 -3 1 21.74 0.51
-1 -3 -1 21.55 0.71
-1 -3 -1 21.4 0.5
1 -3 1 21.14 0.79
-1 -3 -1 21.85 0.57
-1 -3 -1 21.19 0.68
1 -3 1 20.07 0.69
-1 3 -1 22.04 0.7
1 3 1 20.78 0.55
1 3 1 20.53 0.7
1 3 1 22.65 0.69
-1 3 -1 21.95 0.81
1 3 1 21.4 0.49
-2 -3 -1 61.15 1.44
2 -3 1 62.99 1.61
-2 -3 -1 63.81 1.58
-2 -3 -1 62.21 1.39
2 -3 1 63.92 1.75
-2 -3 -1 63.7 1.55
2 -3 1 63.57 1.38
2 3 1 62.33 1.54
2 3 1 65.6 1.32
2 3 1 63.79 1.36
2 3 1 62.39 1.55
2 3 1 63.92 1.43
-2 3 -1 64.38 1.75
3 -3 1 16.28 0.5
3 -3 1 15.11 0.77
-3 -3 -1 16.24 0.58
-3 -3 -1 16.44 0.51
-3 -3 -1 16.2 0.43
-3 -3 -1 16.56 0.6
-3 -3 -1 16.06 0.6
3 -3 1 16.22 0.67
3 3 1 16.99 0.56
3 3 1 16.29 0.58
-3 3 -1 16.78 0.66
-3 3 -1 16.36 0.54
3 3 1 16.9 0.59
3 3 1 15.27 0.49
3 3 1 16.56 0.43
-3 3 -1 16.55 0.8
4 -3 1 39.73 1.21
-4 -3 -1 40.36 1.01
-4 -3 -1 39.9 0.94
4 -3 1 39.77 1.37
-4 -3 -1 32.8 1.08
-4 -3 -1 39.02 1.09
4 -3 1 39.61 1
4 3 1 40.53 1.07
4 3 1 37.7 1.05
4 3 1 40.74 1
4 3 1 39.53 0.93
-4 3 -1 39.49 0.93
-4 3 -1 39.16 1.18
4 3 1 39.98 1.09
-4 3 -1 38.98 1.36
-4 3 -1 39.74 1.05
-5 -3 -1 3.23 0.33
5 -3 1 3.04 0.4
-5 -3 -1 3.34 0.34
-5 -3 -1 2.94 0.27
5 -3 1 3.31 0.5
5 -3 1 3.33 0.32
5 3 1 3.31 0.36
5 3 1 3.19 0.34
-5 3 -1 3.62 0.54
-5 3 -1 3.14 0.39
5 3 1 3.25 0.32
-5 3 -1 2.88 0.34
-5 3 -1 3.53 0.32
5 3 1 3.08 0.25
5 3 1 3.46 0.32
6 -3 1 17.5 1.01
6 -3 1 18.84 0.85
-6 -3 -1 17.84 0.71
-6 -3 -1 19 0.78
-6 -3 -1 17.88 0.68
6 -3 1 19.14 0.76
6 3 1 17.48 0.72
-6 3 -1 18.2 0.59
6 3 1 18.03 0.67
6 3 1 17.49 0.77
6 3 1 17.31 0.63
-6 3 -1 16.9 0.76
-6 3 -1 17.59 1.03
-6 3 -1 17.74 0.78
6 3 1 19.42 0.66
6 3 1 19.29 0.74
7 -3 1 6.14 0.57
-7 -3 -1 6.64 0.59
7 -3 1 6.16 0.52
-7 -3 -1 5.39 0.48
-7 -3 -1 6.53 0.58
-7 -3 -1 5.29 0.45
7 -3 1 5.68 0.76
7 3 1 6.05 0.51
-7 3 -1 5.2 0.54
-7 3 -1 5.62 0.55
-7 3 -1 6.78 0.92
7 3 1 6.14 0.51
7 3 1 7.23 0.63
-7 3 -1 6.3 0.47
7 3 1 5.54 0.44
7 3 1 5.56 0.42
-8 -3 -1 2.03 0.35
-8 -3 -1 1.57 0.47
8 -3 1 2.32 0.49
8 -3 1 1.62 0.58
8 -3 1 1.67 0.53
-8 -3 -1 1.06 0.39
8 3 1 1.99 0.32
8 3 1 1.36 0.37
-8 3 -1 1.46 0.42
8 3 1 1.85 0.34
-8 3 -1 1.9 0.68
-8 3 -1 1.71 0.34
8 3 1 1.96 0.5
9 -3 1 6.36 0.77
-9 -3 -1 7.23 0.78
9 -3 1 7.59 0.91
-9 -3 -1 6.39 0.66
9 -3 1 6.84 0.75
9 3 1 7.18 0.55
9 3 1 7.6 0.78
-9 3 -1 6.89 0.79
9 3 1 6.17 0.57
9 3 1 6.54 0.56
-9 3 -1 6.08 0.8
-10 -3 -1 0.81 0.71
10 -3 1 1.16 0.52
10 -3 1 -0.3 0.61
10 -3 1 0.32 0.8
10 3 1 -0.59 0.76
10 3 1 0.98 0.79
-10 3 -1 0.74 0.81
-10 3 -1 0.32 0.54
10 3 1 1.37 0.85
-10 3 -1 -1.19 0.82
10 3 1 0.02 0.51
10 3 1 0.6 0.31
11 -3 1 1.44 0.75
11 -3 1 0.15 0.76
11 -3 1 -0.85 0.57
11 -3 1 0.05 1.08
11 3 1 -0.09 0.96
11 3 1 0.91 1.04
-11 3 -1 -0.21 1.11
-11 3 -1 -0.74 0.56
11 3 1 0.05 0.66
11 3 1 1.09 1.06
-11 3 -1 -0.11 0.98
12 -3 1 -0.37 0.7
12 -3 1 0.95 0.95
-12 3 -1 0.13 1.36
-12 3 -1 -0.02 0.75
12 3 1 0.09 1.3
12 3 1 0.38 0.87
12 -4 -1 -1 0.72
12 -4 -1 0.02 1.38
12 -4 -1 -0.28 0.7
12 -4 -1 -1.8 0.86
12 4 -1 1.87 1.12
-12 4 1 -2.28 1.37
12 4 -1 1.61 0.99
-12 4 1 0 0.69
12 4 -1 1.59 1.24
11 -4 -1 0.54 1.12
11 -4 -1 0.68 1.04
11 -4 -1 2.05 0.63
11 -4 -1 1.67 0.77
11 -4 -1 1.14 0.54
-11 4 1 -0.11 0.58
11 4 -1 2.38 0.83
-11 4 1 1.74 1.01
11 4 -1 1.06 0.77
-11 4 1 0.4 0.99
11 4 -1 -0.32 0.79
11 4 -1 1.86 0.98
11 4 -1 1.53 0.91
11 4 -1 2.61 0.95
10 -4 -1 -0.93 0.62
10 -4 -1 0.46 0.79
10 -4 -1 0.95 0.47
10 -4 -1 -0.14 0.41
10 4 -1 -0.13 0.77
-10 4 1 -0.16 0.76
10 4 -1 -0.43 0.6
-10 4 1 0.42 0.58
10 4 -1 0.11 0.56
-10 4 1 -0.86 0.84
10 4 -1 -0.77 0.65
10 4 -1 -0.33 0.66
10 4 -1 -0.59 0.6
9 -4 -1 3.05 0.69
9 -4 -1 2.33 0.38
9 -4 -1 0.53 0.93
9 4 -1 2.52 0.63
9 4 -1 3.14 0.66
9 4 -1 2.63 0.53
9 4 -1 2.12 0.6
-9 4 1 2.8 0.53
-9 4 1 2.42 0.69
9 4 -1 2.81 0.52
-9 4 1 3.33 0.51
8 -4 -1 0.12 0.47
8 -4 -1 0.66 0.26
-8 -4 1 0.43 0.5
8 -4 -1 0.69 0.48
8 -4 -1 0.59 0.32
8 4 -1 -0.03 0.41
8 4 -1 -0.34 0.89
8 4 -1 -0.01 0.37
8 4 -1 0.54 0.45
-8 4 1 0.49 0.51
-8 4 1 0.09 0.33
-8 4 1 0.45 0.39
8 4 -1 0.31 0.74
7 -4 -1 24.79 1.22
7 -4 -1 24.99 1.03
7 -4 -1 24.66 0.7
-7 -4 1 25.18 0.96
7 -4 -1 26.42 0.99
7 4 -1 24.52 0.86
7 4 -1 26.86 0.92
7 4 -1 24.79 1.01
-7 4 1 25.6 1.03
7 4 -1 25.29 0.9
-7 4 1 26 1.07
7 4 -1 25.17 1
-7 4 1 25.28 1.27
-7 4 1 24.68 0.86
6 -4 -1 3.27 0.52
6 -4 -1 3.2 0.41
6 -4 -1 4.08 0.26
6 -4 -1 4.04 0.49
6 -4 -1 3.59 0.4
-6 -4 1 4.24 0.42
6 4 -1 3.69 0.42
-6 4 1 4.41 0.59
-6 4 1 3.2 0.42
6 4 -1 4.39 0.38
-6 4 1 3 0.33
6 4 -1 4.15 0.43
6 4 -1 3.68 0.37
6 4 -1 3.68 0.32
-6 4 1 3.68 0.45
-5 -4 1 0.08 0.25
-5 -4 1 -0.08 0.17
-5 -4 1 -0.19 0.28
5 -4 -1 0.06 0.09
5 -4 -1 -0.16 0.24
5 -4 -1 -0.04 0.27
5 -4 -1 -0.18 0.19
-5 -4 1 0.03 0.17
5 4 -1 0.11 0.2
-5 4 1 -0.19 0.23
5 4 -1 0.09 0.15
5 4 -1 0.03 0.12
-5 4 1 0.02 0.32
5 4 -1 0.14 0.23
-5 4 1 -0.21 0.18
5 4 -1 -0.1 0.18
5 4 -1 -0.09 0.25
-5 4 1 0.33 0.23
-4 -4 1 3.72 0.34
4 -4 -1 3.94 0.54
-4 -4 1 3.77 0.32
-4 -4 1 3.71 0.34
4 -4 -1 4.16 0.35
4 -4 -1 3.75 0.4
-4 4 1 3.55 0.32
4 4 -1 3.74 0.29
4 4 -1 3.81 0.29
-4 4 1 4.22 0.59
-4 4 1 3.57 0.39
4 4 -1 3.22 0.31
4 4 -1 4.05 0.31
4 4 -1 3.86 0.32
3 -4 -1 46.81 1.36
-3 -4 1 47.59 1.27
-3 -4 1 48.68 1.08
-3 -4 1 47.56 1.18
3 -4 -1 48.49 1.5
3 -4 -1 47.07 1.15
-3 4 1 46.53 1.49
-3 4 1 45.23 1.33
3 4 -1 46.41 1.15
-3 4 1 46 1.15
3 4 -1 47.2 1.07
3 4 -1 46.98 1.19
3 4 -1 45.55 1.17
3 4 -1 47.73 1.25
3 4 -1 46.79 0.99
2 -4 -1 25.62 0.66
-2 -4 1 24.33 0.67
-2 -4 1 24.01 0.82
2 -4 -1 24.93 0.96
-2 -4 1 24.61 0.75
-2 -4 1 25.24 0.59
2 4 -1 24.17 0.75
-2 4 1 24.25 0.84
2 4 -1 24.02 0.69
2 4 -1 23.2 0.65
2 4 -1 23.98 0.82
-2 4 1 25.01 0.66
-2 4 1 24.44 0.53
-2 4 1 24.47 0.95
-1 -4 1 16.2 0.5
-1 -4 1 16.4 0.36
1 -4 -1 16.33 0.65
-1 -4 1 16.17 0.48
1 -4 -1 16.57 0.73
-1 -4 1 15.9 0.59
-1 -4 1 16.22 0.67
1 -4 -1 16 0.46
1 4 -1 16.44 0.69
-1 4 1 16.06 0.42
-1 4 1 15.88 0.63
-1 4 1 16.25 0.73
1 4 -1 16.57 0.49
1 4 -1 16.03 0.59
-1 4 1 16.7 0.45
0 -4 1 31.51 1.09
0 -4 -1 35.58 1.04
0 -4 1 35.59 1.02
0 -4 -1 33.23 1.08
0 -4 1 34.74 0.83
0 -4 -1 34.88 0.78
0 4 1 35.42 0.76
0 4 -1 34.83 1.01
0 4 -1 34.53 0.82
0 4 1 34.63 0.78
0 4 1 34.84 1.1
0 4 -1 34.46 1.13
0 4 1 35.27 1.02
1 -4 1 29.01 0.69
-1 -4 -1 29.81 0.65
-1 -4 -1 28.46 0.94
-1 -4 -1 27.47 0.73
1 -4 1 29 0.92
1 -4 1 28.45 1.04
-1 -4 -1 28.85 0.89
1 4 1 28.77 0.64
1 4 1 27.69 0.88
1 4 1 28.53 0.72
1 4 1 29.96 0.96
-1 4 -1 29.07 1.05
-1 4 -1 29.2 0.68
-2 -4 -1 -0.05 0.13
-2 -4 -1 0.15 0.15
-2 -4 -1 -0.16 0.14
2 -4 1 -0.11 0.13
-2 -4 -1 0.21 0.15
2 -4 1 -0.02 0.17
2 -4 1 0.11 0.09
2 4 1 -0.04 0.15
2 4 1 -0.06 0.06
2 4 1 -0.05 0.11
2 4 1 0.14 0.09
2 4 1 0.11 0.11
-2 4 -1 0.01 0.15
-2 4 -1 -0.06 0.26
-3 -4 -1 76.9 1.97
3 -4 1 81.4 1.76
-3 -4 -1 81.99 1.87
-3 -4 -1 80.17 1.96
3 -4 1 80.65 2.25
3 -4 1 78.34 2.05
-3 -4 -1 79.76 1.77
-3 4 -1 77.84 2.23
3 4 1 77.96 1.93
3 4 1 80.11 1.83
-3 4 -1 79.81 1.82
3 4 1 80.83 1.68
3 4 1 78.26 1.95
-3 4 -1 79.42 2.06
3 4 1 79.46 1.71
-4 -4 -1 17.68 0.61
-4 -4 -1 18.25 0.72
4 -4 1 18.42 0.61
-4 -4 -1 17.17 0.69
4 -4 1 18.06 0.79
4 -4 1 18.07 0.94
-4 -4 -1 17.86 0.69
4 4 1 17.54 0.65
-4 4 -1 17.9 0.67
-4 4 -1 18.1 0.99
4 4 1 17.61 0.67
-4 4 -1 18.24 0.78
4 4 1 18.56 0.61
4 4 1 17.72 0.5
4 4 1 18.57 0.69
5 -4 1 25.11 0.81
-5 -4 -1 25.53 0.81
-5 -4 -1 25.98 0.9
5 -4 1 25.38 1.22
5 -4 1 25.21 1
5 4 1 24.43 0.84
5 4 1 25.69 0.83
5 4 1 25.29 0.87
-5 4 -1 25.47 0.74
-5 4 -1 25.72 0.87
-5 4 -1 25.96 1.24
5 4 1 25.82 0.71
5 4 1 24.27 0.79
-5 4 -1 24.84 0.98
6 -4 1 11.49 0.73
6 -4 1 11.5 0.63
6 -4 1 12.22 0.94
-6 -4 -1 11.49 0.63
-6 -4 -1 11.88 0.69
6 4 1 12.48 0.65
-6 4 -1 11.92 1.03
6 4 1 11.96 0.58
-6 4 -1 11.4 0.53
6 4 1 11.26 0.53
-6 4 -1 11.89 0.71
6 4 1 12.17 0.56
6 4 1 11.5 0.69
-6 4 -1 12 0.7
7 -4 1 0.2 0.44
7 -4 1 0.46 0.36
-7 -4 -1 -0.31 0.27
-7 -4 -1 0.37 0.41
7 -4 1 -0.07 0.45
-7 -4 -1 0.74 0.31
-7 4 -1 0.43 0.57
7 4 1 0.31 0.29
-7 4 -1 0.38 0.28
7 4 1 0.48 0.33
7 4 1 0.21 0.47
-7 4 -1 0.66 0.33
7 4 1 0.38 0.38
7 4 1 0.12 0.23
-7 4 -1 -0.08 0.43
8 -4 1 0.46 0.54
-8 -4 -1 -0.16 0.53
-8 -4 -1 0.29 0.39
8 -4 1 0.24 0.51
8 -4 1 0.89 0.41
-8 -4 -1 0.71 0.32
8 4 1 0.42 0.49
8 4 1 0.3 0.27
-8 4 -1 0.06 0.37
-8 4 -1 0.81 0.68
8 4 1 0.49 0.27
-8 4 -1 0.18 0.34
-8 4 -1 1.02 0.56
8 4 1 0.49 0.38
9 -4 1 0.71 0.46
9 -4 1 0.73 0.7
-9 -4 -1 0.39 0.7
9 -4 1 0.1 0.61
9 4 1 0.98 0.31
-9 4 -1 0.23 0.41
9 4 1 1.06 0.48
-9 4 -1 0.37 0.73
9 4 1 0.95 0.65
-9 4 -1 -0.09 0.71
9 4 1 0.67 0.31
10 -4 1 0.49 0.86
10 -4 1 0.79 0.8
10 -4 1 2.25 0.61
-10 4 -1 0.57 0.56
-10 4 -1 2.53 0.89
-10 4 -1 -0.69 0.88
10 4 1 0.44 0.83
10 4 1 1.87 0.83
10 4 1 2.94 0.62
10 4 1 1.6 0.84
11 -4 1 -0.8 0.88
11 -4 1 0.1 0.67
11 -4 1 0.18 0.63
11 -4 1 1.49 1.11
11 4 1 -0.59 0.7
11 4 1 1.98 1.15
11 4 1 -0.7 0.96
-11 4 -1 -0.89 1.12
-11 4 -1 0.6 1.16
11 4 1 -1.4 1.06
-11 4 -1 0.19 0.72
12 -5 -1 1.28 0.82
12 -5 -1 2.32 1.55
12 5 -1 1.93 1.39
-12 5 1 2.13 0.88
12 5 -1 3.8 1.12
12 5 -1 1.4 1.09
-12 5 1 4.62 1.47
11 -5 -1 0.72 0.65
11 -5 -1 1.35 1.07
11 -5 -1 -0.69 0.44
11 -5 -1 1.57 1.22
11 -5 -1 -0.66 0.88
-11 5 1 0.29 0.76
-11 5 1 -1.06 1.05
11 5 -1 -0.35 0.88
11 5 -1 -2.08 1.02
-11 5 1 0.25 1.15
11 5 -1 0.63 0.84
11 5 -1 0.68 0.8
11 5 -1 1.16 0.93
-11 5 1 0.49 0.67
10 -5 -1 2.01 0.86
10 -5 -1 1.7 0.59
10 -5 -1 1.99 0.39
10 -5 -1 1.35 0.82
10 -5 -1 1.05 0.93
10 5 -1 1.09 0.86
-10 5 1 1.95 0.65
10 5 -1 0.85 0.62
-10 5 1 -0.55 0.83
10 5 -1 1.56 0.78
10 5 -1 1.27 0.65
-10 5 1 0.93 0.82
-10 5 1 1.48 0.61
10 5 -1 2.01 0.71
10 5 -1 1.28 0.72
9 -5 -1 0.37 0.41
9 -5 -1 0.05 0.28
9 -5 -1 0.53 0.63
9 -5 -1 -0.27 0.67
-9 5 1 -0.4 0.71
9 5 -1 0.58 0.62
9 5 -1 -0.21 0.53
-9 5 1 0.03 0.69
9 5 -1 -0.21 0.58
9 5 -1 0.13 0.47
9 5 -1 -0.61 0.44
-9 5 1 -0.36 0.5
9 5 -1 0.19 0.55
8 -5 -1 2.36 0.64
-8 -5 1 0.99 0.52
8 -5 -1 1.34 0.44
8 -5 -1 1.8 0.58
8 -5 -1 1.79 0.25
-8 5 1 1.85 0.5
-8 5 1 1.1 0.56
-8 5 1 0.71 0.63
8 5 -1 2.11 0.41
8 5 -1 1.95 0.48
8 5 -1 1.65 0.52
8 5 -1 2.08 0.57
8 5 -1 1.72 0.41
-8 5 1 1.62 0.46
7 -5 -1 0.33 0.44
7 -5 -1 0.13 0.15
7 -5 -1 -0.36 0.3
7 -5 -1 0.19 0.45
-7 -5 1 0.78 0.43
7 5 -1 -0.25 0.34
-7 5 1 -0.08 0.47
-7 5 1 0.33 0.51
-7 5 1 0.13 0.35
7 5 -1 0.57 0.45
7 5 -1 0.37 0.35
7 5 -1 0.25 0.36
-7 5 1 -0.15 0.32
7 5 -1 0.11 0.3
-6 -5 1 8.62 0.6
6 -5 -1 8.99 0.65
-6 -5 1 8.09 0.48
6 -5 -1 8.36 0.67
6 -5 -1 8.52 0.26
-6 -5 1 8.79 0.51
6 -5 -1 9.17 0.85
6 5 -1 7.76 0.59
-6 5 1 8.05 0.57
6 5 -1 8.61 0.44
-6 5 1 8.19 0.65
6 5 -1 9.22 0.55
6 5 -1 8.91 0.43
6 5 -1 8.38 0.5
-6 5 1 9.14 0.93
-6 5 1 8.84 0.68
6 5 -1 7.95 0.69
-5 -5 1 16.98 0.68
5 -5 -1 18.44 0.87
-5 -5 1 18.34 0.65
-5 -5 1 18.95 0.79
5 -5 -1 18.09 1.05
-5 -5 1 18.02 0.71
-5 5 1 17.48 1.05
5 5 -1 18.19 0.71
-5 5 1 17.77 0.84
-5 5 1 18.09 0.67
5 5 -1 18.21 0.67
5 5 -1 18.27 0.61
-5 5 1 18.08 0.72
5 5 -1 18.23 0.63
5 5 -1 18.62 0.77
-4 -5 1 1.11 0.29
4 -5 -1 1.02 0.35
-4 -5 1 1.91 0.25
-4 -5 1 1.41 0.29
4 -5 -1 1.66 0.34
4 5 -1 1.4 0.29
-4 5 1 1.31 0.26
4 5 -1 1.22 0.22
4 5 -1 1.39 0.13
4 5 -1 1.5 0.22
-4 5 1 0.91 0.42
4 5 -1 1.31 0.19
-4 5 1 0.93 0.25
4 5 -1 1.59 0.29
4 5 -1 1.27 0.25
-3 -5 1 42.15 1.27
3 -5 -1 42.67 1.34
-3 -5 1 42.32 1.19
3 -5 -1 42.64 1.49
-3 -5 1 43.34 1.01
-3 -5 1 42.84 1.13
3 -5 -1 42.42 1.1
-3 5 1 44.31 1.1
3 5 -1 43.13 1.09
3 5 -1 42.98 1.18
-3 5 1 42.34 1.49
3 5 -1 43.85 1.27
3 5 -1 43.14 1.13
-3 5 1 42.18 1.33
2 -5 -1 31.84 0.82
-2 -5 1 31.72 0.73
2 -5 -1 31.9 1.2
-2 -5 1 30.14 1.06
-2 -5 1 31.05 0.84
2 -5 -1 31.96 1.07
-2 -5 1 31.01 0.97
-2 5 1 30.62 0.69
2 5 -1 31.3 1.06
2 5 -1 29.71 0.85
-2 5 1 30.59 1.18
-2 5 1 31.41 1.06
2 5 -1 30.05 0.95
-2 5 1 30.68 0.81
-1 -5 1 1.86 0.32
1 -5 -1 1.86 0.38
1 -5 -1 1.18 0.23
1 -5 -1 1.91 0.18
-1 -5 1 1.47 0.12
-1 -5 1 1.14 0.2
-1 -5 1 1.27 0.17
1 5 -1 1.25 0.31
-1 5 1 1.38 0.28
1 5 -1 1.59 0.27
-1 5 1 1.36 0.3
-1 5 1 1.35 0.16
1 5 -1 1.27 0.19
-1 5 1 1.57 0.15
0 -5 -1 11.24 0.65
0 -5 1 10.63 0.54
0 -5 1 11.65 0.41
0 -5 -1 11.39 0.58
0 -5 1 11.3 0.66
0 -5 -1 11.52 0.35
0 5 1 11.93 0.59
0 5 1 11.15 0.33
0 5 -1 11.65 0.69
0 5 1 11.43 0.4
0 5 -1 11.56 0.56
0 5 -1 10.95 0.39
-1 -5 -1 0.53 0.18
1 -5 1 0.51 0.28
-1 -5 -1 0.84 0.25
-1 -5 -1 1.3 0.13
-1 -5 -1 1.28 0.2
1 -5 1 0.99 0.25
1 -5 1 0.9 0.15
1 5 1 1.09 0.29
-1 5 -1 0.72 0.13
1 5 1 1.05 0.24
1 5 1 0.6 0.1
-1 5 -1 0.7 0.31
-1 5 -1 0.97 0.24
2 -5 1 28.33 1.16
-2 -5 -1 27.73 0.81
-2 -5 -1 28.39 1.02
-2 -5 -1 28.41 0.96
-2 -5 -1 28.95 0.74
2 -5 1 29.05 0.7
-2 5 -1 28.45 1.21
2 5 1 28.7 0.62
2 5 1 29.32 0.95
2 5 1 28 0.78
2 5 1 28.72 0.65
-2 5 -1 29 1.01
2 5 1 28 1
3 -5 1 7.79 0.67
-3 -5 -1 6.78 0.5
-3 -5 -1 6.98 0.45
-3 -5 -1 6.54 0.47
-3 -5 -1 6.71 0.38
3 -5 1 6.96 0.28
3 -5 1 7.86 0.54
3 -5 1 7.26 0.37
-3 5 -1 7.28 0.52
3 5 1 7.25 0.44
3 5 1 6.44 0.49
3 5 1 6.73 0.24
3 5 1 7.01 0.29
-3 5 -1 7.16 0.75
3 5 1 6.8 0.37
-3 5 -1 6.42 0.43
4 -5 1 13.63 0.89
4 -5 1 11.57 0.53
4 -5 1 11.87 0.68
-4 -5 -1 11.98 0.52
-4 -5 -1 12.03 0.66
-4 -5 -1 11.7 0.6
-4 -5 -1 12.45 0.6
-4 5 -1 12.17 0.69
4 5 1 12.98 0.64
4 5 1 11.43 0.39
4 5 1 11.41 0.44
4 5 1 12.83 0.56
-4 5 -1 11.48 0.93
4 5 1 12.63 0.59
-4 5 -1 11.77 0.59
-5 -5 -1 26.18 1.01
-5 -5 -1 25.91 0.97
5 -5 1 27.18 0.86
-5 -5 -1 26.67 0.98
5 -5 1 26 1.09
5 -5 1 27.66 1.33
-5 -5 -1 23.96 0.83
-5 5 -1 24.94 0.93
-5 5 -1 26.01 1.06
5 5 1 25.67 0.87
5 5 1 25.88 0.91
-5 5 -1 26.84 1.37
5 5 1 27.12 0.71
5 5 1 25.74 0.91
6 -5 1 0.37 0.3
6 -5 1 -0.03 0.45
6 -5 1 0.16 0.36
-6 -5 -1 0.19 0.36
-6 -5 -1 -0.52 0.51
-6 -5 -1 -0.23 0.25
-6 5 -1 0.1 0.29
-6 5 -1 -0.22 0.49
6 5 1 -0.09 0.22
6 5 1 0.19 0.33
6 5 1 0.39 0.24
-6 5 -1 0.12 0.28
-6 5 -1 -0.46 0.38
6 5 1 0.14 0.22
6 5 1 -0.01 0.33
7 -5 1 4.71 0.64
-7 -5 -1 4.09 0.54
-7 -5 -1 4.55 0.59
7 -5 1 4.48 0.72
-7 -5 -1 4.08 0.51
7 -5 1 4.52 0.55
-7 5 -1 4.07 0.77
7 5 1 5.63 0.53
-7 5 -1 4.75 0.42
7 5 1 5.29 0.48
-7 5 -1 4.47 0.59
7 5 1 4.73 0.4
-8 -5 -1 2.87 0.43
8 -5 1 2.65 0.61
8 -5 1 3.73 0.83
8 -5 1 2.15 0.63
-8 -5 -1 3.26 0.64
-8 5 -1 3.71 0.64
8 5 1 3.22 0.4
-8 5 -1 4.15 0.92
8 5 1 2.88 0.57
-8 5 -1 3.47 0.46
8 5 1 2.61 0.48
8 5 1 3.68 0.47
-8 5 -1 3.29 0.65
9 -5 1 6.33 0.81
-9 -5 -1 6.19 0.84
9 -5 1 6.21 0.86
9 -5 1 6.2 1
9 5 1 4.58 0.52
9 5 1 4.85 0.73
9 5 1 5.66 0.56
-9 5 -1 5.39 0.75
9 5 1 3.33 0.74
-9 5 -1 5.44 0.86
9 5 1 5 0.63
9 5 1 5.25 0.83
-9 5 -1 3.1 0.51
-10 -5 -1 -0.64 0.85
10 -5 1 -0.31 0.94
10 -5 1 0.7 0.6
10 -5 1 0.5 0.53
10 -5 1 0.32 0.84
-10 5 -1 -0.05 1
10 5 1 -0.14 0.64
-10 5 -1 0.15 0.56
-10 5 -1 1.14 0.97
10 5 1 -0.53 0.8
-10 5 -1 0.15 0.62
10 5 1 -0.83 0.94
10 5 1 -0.76 0.74
11 -5 1 3 1.24
11 -5 1 2.37 0.68
11 -5 1 1.5 1.06
11 -5 1 0.62 0.73
-11 5 -1 3.75 1.29
11 5 1 1.54 0.93
-11 5 -1 0.59 1.32
-11 5 -1 2.51 0.84
11 5 1 0.8 1.24
11 5 1 2.6 1.21
11 -6 -1 0.77 1.04
11 -6 -1 3.23 1.32
11 -6 -1 2.97 1.27
11 -6 -1 0.97 0.81
-11 6 1 -0.19 0.83
11 6 -1 1.83 1.1
11 6 -1 3.88 0.86
-11 6 1 1.04 0.8
11 6 -1 2.68 0.84
11 6 -1 3.53 0.98
-11 6 1 3.07 1.23
11 6 -1 2.97 0.98
-11 6 1 0.62 1.36
11 6 -1 3.04 1.19
10 -6 -1 -0.31 1.06
10 -6 -1 0.29 0.95
10 -6 -1 -0.49 0.57
-10 6 1 0.39 0.93
10 6 -1 -0.97 0.88
-10 6 1 1.14 0.98
10 6 -1 0.12 0.63
-10 6 1 0.1 0.59
10 6 -1 0.21 0.72
10 6 -1 1.61 0.71
10 6 -1 -1.62 0.79
-10 6 1 0.26 0.68
9 -6 -1 1.26 0.55
9 -6 -1 1.28 0.74
9 -6 -1 2.85 0.87
9 -6 -1 1.73 0.81
9 6 -1 0.59 0.6
9 6 -1 1 0.48
9 6 -1 1.59 0.51
-9 6 1 0.91 0.52
-9 6 1 2.22 0.78
9 6 -1 0.21 0.64
-9 6 1 0.72 0.59
9 6 -1 1.13 0.61
9 6 -1 1.58 0.75
-9 6 1 -0.67 0.76
8 -6 -1 1.92 0.71
8 -6 -1 1.29 0.42
8 -6 -1 1.55 0.74
-8 -6 1 1.41 0.59
8 6 -1 1.52 0.41
8 6 -1 1.7 0.5
-8 6 1 1.78 0.49
-8 6 1 1.29 0.64
8 6 -1 1.8 0.39
8 6 -1 1.19 0.55
-8 6 1 2.81 0.82
8 6 -1 2.23 0.52
8 6 -1 2.57 0.65
7 -6 -1 1.78 0.52
-7 -6 1 2 0.45
7 -6 -1 1.73 0.47
7 -6 -1 1.15 0.53
7 6 -1 2.88 0.54
-7 6 1 2.08 0.56
7 6 -1 1.45 0.42
-7 6 1 1.59 0.43
7 6 -1 1.66 0.35
-7 6 1 2.48 0.67
7 6 -1 2.13 0.44
-7 6 1 1.31 0.51
7 6 -1 1.71 0.27
7 6 -1 1.89 0.3
7 6 -1 1.52 0.31
-6 -6 1 16.72 0.89
-6 -6 1 17.48 0.77
-6 -6 1 15.04 0.74
6 -6 -1 15.64 1.14
6 -6 -1 15.25 0.92
6 -6 -1 16.85 0.8
6 6 -1 16.67 0.64
6 6 -1 17.93 0.77
-6 6 1 16.35 1.23
6 6 -1 16.26 0.68
6 6 -1 15.67 0.82
6 6 -1 15.89 0.69
6 6 -1 17.15 0.71
6 6 -1 16.63 0.55
-6 6 1 17.54 0.77
-6 6 1 17.41 0.84
-6 6 1 16.27 0.92
-5 -6 1 0.35 0.26
-5 -6 1 0.16 0.31
-5 -6 1 0.15 0.21
-5 -6 1 0.14 0.34
5 -6 -1 -0.42 0.42
5 -6 -1 0.08 0.26
-5 6 1 -0.12 0.28
5 6 -1 0.01 0.2
5 6 -1 0.2 0.21
5 6 -1 -0.23 0.33
5 6 -1 0.49 0.25
-5 6 1 0.05 0.45
-5 6 1 0.06 0.32
5 6 -1 0.22 0.15
5 6 -1 -0.06 0.24
-4 -6 1 63.2 1.67
4 -6 -1 62.4 1.89
-4 -6 1 61.66 1.62
-4 -6 1 63.52 1.48
4 -6 -1 65.6 1.6
4 -6 -1 62.88 2.09
-4 -6 1 63.25 1.77
4 6 -1 64.43 1.43
-4 6 1 63.47 1.58
4 6 -1 63.23 1.57
-4 6 1 63.18 1.88
-4 6 1 67.26 2.12
4 6 -1 61.98 1.66
4 6 -1 60.85 1.62
4 6 -1 63.79 1.73
-3 -6 1 4.2 0.3
3 -6 -1 4.53 0.63
3 -6 -1 4.52 0.46
-3 -6 1 3.86 0.53
-3 -6 1 4.38 0.37
3 -6 -1 4.55 0.35
-3 -6 1 4.13 0.4
3 6 -1 4.02 0.41
3 6 -1 3.27 0.33
3 6 -1 4.14 0.33
-3 6 1 4.2 0.35
-3 6 1 4.53 0.66
3 6 -1 4.01 0.5
-3 6 1 3.79 0.47
2 -6 -1 0.99 0.22
-2 -6 1 0.86 0.31
2 -6 -1 1.39 0.4
-2 -6 1 0.65 0.23
-2 -6 1 0.84 0.15
2 -6 -1 0.97 0.26
-2 -6 1 1.05 0.23
2 6 -1 1.01 0.27
2 6 -1 0.56 0.28
-2 6 1 1.02 0.14
2 6 -1 1.01 0.24
-2 6 1 1.13 0.21
-2 6 1 1.04 0.27
-2 6 1 1.06 0.43
1 -6 -1 18.79 0.56
-1 -6 1 18.61 0.6
1 -6 -1 19.02 0.96
1 -6 -1 18.82 0.84
-1 -6 1 18.89 0.91
-1 -6 1 17.98 0.45
-1 -6 1 17.65 0.77
-1 6 1 18.35 0.53
1 6 -1 19.32 0.78
-1 6 1 18.78 0.82
1 6 -1 18.18 0.62
1 6 -1 18.89 0.9
-1 6 1 19.23 0.55
0 -6 -1 21 0.56
0 -6 -1 21.48 0.98
0 -6 1 20.37 0.98
0 -6 1 20.21 0.84
0 -6 1 20.71 0.63
0 -6 -1 20.89 0.87
0 6 1 20.35 0.85
0 6 -1 20.09 0.83
0 6 -1 21.16 0.62
0 6 1 19.64 0.98
0 6 -1 19.93 0.98
0 6 1 20.81 0.54
0 6 1 20.66 0.62
1 -6 1 29.22 1.23
-1 -6 -1 32.11 0.7
-1 -6 -1 30.61 1.16
-1 -6 -1 30.3 1.06
-1 -6 -1 29.97 0.84
1 -6 1 30.01 0.78
1 -6 1 30.5 1.08
-1 6 -1 29.46 1.07
1 6 1 29.19 1.15
-1 6 -1 30.52 0.76
1 6 1 29.02 0.69
-1 6 -1 29.03 1.26
1 6 1 27.76 1.03
1 6 1 29.22 0.84
-2 -6 -1 0.16 0.2
2 -6 1 0.09 0.24
-2 -6 -1 0.2 0.2
-2 -6 -1 -0.1 0.24
-2 -6 -1 0.14 0.16
2 -6 1 0.08 0.14
2 -6 1 0.17 0.34
-2 6 -1 -0.08 0.2
2 6 1 0.07 0.28
-2 6 -1 0.43 0.35
2 6 1 0.13 0.18
2 6 1 -0.17 0.14
2 6 1 0.18 0.11
-3 -6 -1 42.68 1.32
-3 -6 -1 39.65 1.15
-3 -6 -1 49.03 1.08
3 -6 1 42.87 1.43
-3 -6 -1 39.76 1.35
3 -6 1 41.13 1.58
3 -6 1 41.77 0.97
3 6 1 41.73 1.36
3 6 1 42.06 0.92
3 6 1 40.3 1.27
3 6 1 41.13 1.11
3 6 1 41.82 0.93
-3 6 -1 41.1 1.12
-3 6 -1 41.05 1.4
-3 6 -1 41.68 1.64
-4 -6 -1 -0.08 0.23
4 -6 1 0.08 0.18
-4 -6 -1 0.19 0.22
4 -6 1 -0.06 0.26
-4 -6 -1 -0.27 0.27
4 -6 1 0.09 0.14
4 -6 1 -0.75 0.32
-4 -6 -1 -0.17 0.28
4 6 1 0.04 0.16
-4 6 -1 -0.09 0.26
4 6 1 0.08 0.28
4 6 1 0.01 0.12
-4 6 -1 0.12 0.44
-4 6 -1 0.33 0.31
4 6 1 0.11 0.21
4 6 1 0.03 0.19
5 -6 1 17.38 0.71
5 -6 1 16.29 0.94
-5 -6 -1 17.29 0.83
-5 -6 -1 16.45 0.79
5 -6 1 17.35 1.16
-5 -6 -1 15.73 0.84
5 -6 1 16.41 0.49
-5 -6 -1 16.67 0.71
5 6 1 16.76 0.53
-5 6 -1 17.03 0.82
5 6 1 16.6 0.79
-5 6 -1 16.65 0.9
-5 6 -1 17.28 1.26
5 6 1 15.43 0.58
5 6 1 16.08 0.75
5 6 1 17.73 0.74
6 -6 1 2.06 0.49
6 -6 1 2.68 0.71
6 -6 1 2.31 0.44
-6 -6 -1 2.1 0.42
-6 -6 -1 2.77 0.44
6 6 1 2.92 0.42
6 6 1 1.85 0.26
-6 6 -1 2.39 0.38
-6 6 -1 2.83 0.8
-6 6 -1 1.68 0.46
6 6 1 2.62 0.33
-6 6 -1 2.3 0.51
6 6 1 2.36 0.35
6 6 1 3.26 0.46
7 -6 1 2.53 0.66
7 -6 1 2.5 0.55
-7 -6 -1 1.21 0.41
-7 -6 -1 1.49 0.5
-7 6 -1 1.63 0.4
-7 6 -1 1.63 0.45
7 6 1 1.76 0.32
7 6 1 1.9 0.35
-7 6 -1 1.43 0.75
7 6 1 1.77 0.36
-7 6 -1 1.8 0.58
-8 -6 -1 -0.4 0.59
8 -6 1 1.33 0.49
-8 -6 -1 0.2 0.41
8 -6 1 1.78 0.75
-8 -6 -1 0.46 0.44
-8 6 -1 -0.15 0.62
8 6 1 0.08 0.3
-8 6 -1 -0.1 0.75
-8 6 -1 0.21 0.43
8 6 1 -0.11 0.3
8 6 1 -0.1 0.47
8 6 1 1.28 0.67
9 -6 1 0.68 0.58
-9 -6 -1 0.46 0.77
9 -6 1 -0.37 0.75
9 -6 1 -0.37 0.75
9 6 1 0.7 0.63
-9 6 -1 -0.32 0.52
9 6 1 0.16 0.87
9 6 1 1.08 0.62
-9 6 -1 1.1 0.62
9 6 1 0.09 0.33
9 6 1 0.66 0.34
-9 6 -1 1.15 0.96
-9 6 -1 0.98 0.83
10 -6 1 1.8 1.03
-10 -6 -1 0.51 0.96
10 -6 1 1.07 0.64
10 -6 1 1.46 0.47
10 -6 1 2.95 1.06
-10 6 -1 -0.61 1.14
10 6 1 0.51 1.02
-10 6 -1 1.67 0.76
10 6 1 1.08 0.86
-10 6 -1 -0.2 0.99
10 6 1 1.56 0.73
-10 6 -1 -0.52 0.61
11 -6 1 0.62 2.21
11 -6 1 0.57 1.26
11 -6 1 0.17 0.57
11 -6 1 -0.62 0.8
-11 6 -1 1.16 1.45
-11 6 -1 2.47 1.42
-11 6 -1 -0.01 0.84
11 6 1 2.3 1.45
11 6 1 0.98 0.95
11 -7 -1 0.73 1.39
11 -7 -1 0.59 1.24
11 -7 -1 0.7 1.48
11 -7 -1 1.57 0.9
-11 7 1 -0.26 0.88
11 7 -1 1.33 0.79
-11 7 1 -0.89 1.35
11 7 -1 -0.42 1.07
11 7 -1 2.16 1.97
-11 7 1 1.74 1.53
10 -7 -1 -1.95 0.96
10 -7 -1 1.28 1.13
10 -7 -1 0.41 1.02
10 -7 -1 0.7 0.66
10 7 -1 -1.19 1
-10 7 1 0.49 0.71
-10 7 1 -2.19 0.97
10 7 -1 1.15 0.65
-10 7 1 0.69 0.78
10 7 -1 -1.03 0.84
10 7 -1 -2.25 0.76
-10 7 1 0.63 1.07
10 7 -1 0.94 0.61
9 -7 -1 0.24 0.86
9 -7 -1 0.42 0.86
-9 -7 1 -0.02 0.73
9 -7 -1 -1.06 0.53
9 -7 -1 -0.81 0.73
9 7 -1 0.34 0.45
9 7 -1 0.26 0.58
9 7 -1 -0.07 0.64
-9 7 1 0.26 0.86
-9 7 1 0.42 0.89
9 7 -1 0.3 0.48
9 7 -1 -0.53 0.83
9 7 -1 0.53 0.63
-9 7 1 -0.64 0.55
-9 7 1 0.56 0.62
8 -7 -1 0.65 0.67
8 -7 -1 0.1 0.68
-8 -7 1 0.44 0.66
8 -7 -1 1.03 0.54
8 7 -1 0.55 0.67
8 7 -1 0.81 0.28
8 7 -1 0.52 0.4
-8 7 1 1.39 0.78
-8 7 1 0.04 0.7
8 7 -1 1.06 0.57
8 7 -1 0.16 0.34
-8 7 1 0.96 0.53
8 7 -1 -0.33 0.53
-8 7 1 -0.11 0.53
7 -7 -1 -0.44 0.56
-7 -7 1 0.07 0.57
-7 -7 1 -0.01 0.33
7 -7 -1 0.29 0.42
-7 -7 1 0.24 0.47
7 -7 -1 0.59 0.53
-7 -7 1 0.49 0.38
7 -7 -1 0.22 0.82
7 7 -1 -0.11 0.43
-7 7 1 0.58 0.72
7 7 -1 -0.26 0.31
-7 7 1 -0.19 0.55
-7 7 1 0.01 0.48
7 7 -1 0.31 0.25
7 7 -1 -0.04 0.31
-7 7 1 -1 0.37
7 7 -1 0.68 0.28
-6 -7 1 13.46 0.75
6 -7 -1 14.26 0.93
6 -7 -1 13.19 1.15
-6 -7 1 13.29 0.81
-6 -7 1 14.29 0.92
6 -7 -1 13.35 0.97
6 7 -1 14.26 0.67
-6 7 1 13.9 0.86
6 7 -1 14.21 0.75
6 7 -1 13.96 0.47
6 7 -1 13.88 0.61
6 7 -1 13.19 0.45
-6 7 1 13.74 1.29
-5 -7 1 20.24 0.83
-5 -7 1 21.31 0.93
5 -7 -1 19.84 1.28
5 -7 -1 19.83 0.92
-5 -7 1 19.07 0.96
-5 -7 1 20 0.74
5 -7 -1 18.73 1.01
5 7 -1 18.92 0.81
-5 7 1 20.67 1.3
5 7 -1 20.17 0.64
-5 7 1 18.4 0.99
5 7 -1 19 0.89
5 7 -1 20.46 0.8
-5 7 1 19.42 0.86
5 7 -1 19.97 0.91
-4 -7 1 6.72 0.44
4 -7 -1 6.28 0.62
4 -7 -1 6.17 0.85
-4 -7 1 7.16 0.56
4 -7 -1 7.55 0.61
-4 -7 1 5.6 0.66
-4 -7 1 6.1 0.57
-4 7 1 6.37 0.66
4 7 -1 6.3 0.46
4 7 -1 6.74 0.61
4 7 -1 7.16 0.64
4 7 -1 6 0.52
-4 7 1 6.14 0.8
-4 7 1 6.69 0.56
-3 -7 1 18.68 0.73
3 -7 -1 18.13 0.72
-3 -7 1 17.8 0.8
3 -7 -1 18.3 0.94
-3 -7 1 18.1 0.57
-3 -7 1 18.25 0.92
3 -7 -1 18.4 1.1
-3 7 1 18.74 1.14
3 7 -1 17.73 0.79
-3 7 1 17.9 0.9
-3 7 1 17.2 0.68
3 7 -1 18.73 0.76
3 7 -1 18.43 0.92
-2 -7 1 11.68 0.77
2 -7 -1 11.96 0.91
2 -7 -1 10.72 0.53
-2 -7 1 10.65 0.52
2 -7 -1 10.66 0.71
-2 -7 1 11.28 0.39
-2 -7 1 11.27 0.66
-2 7 1 10.95 0.9
-2 7 1 10.09 0.72
-2 7 1 11.3 0.5
2 7 -1 10.91 0.8
2 7 -1 11.17 0.64
2 7 -1 10.81 0.57
-2 7 1 11.54 0.39
1 -7 -1 3.2 0.27
1 -7 -1 3.68 0.47
-1 -7 1 3.32 0.42
-1 -7 1 3.03 0.21
-1 -7 1 2.78 0.41
-1 -7 1 3.03 0.3
1 -7 -1 3.16 0.51
-1 7 1 3.57 0.61
1 7 -1 3.71 0.34
-1 7 1 3.43 0.31
1 7 -1 3.34 0.52
-1 7 1 3.24 0.26
-1 7 1 3.55 0.49
1 7 -1 3.22 0.43
0 -7 -1 0.7 0.18
0 -7 -1 0.83 0.37
0 -7 1 0.58 0.17
0 -7 -1 0.64 0.25
0 -7 1 0.9 0.37
0 -7 1 0.94 0.25
0 -7 -1 0.54 0.2
0 7 -1 0.49 0.2
0 7 -1 0.56 0.38
0 7 -1 0.52 0.28
0 7 1 0.47 0.36
0 7 1 0.69 0.21
0 7 1 0.69 0.16
0 7 1 1.07 0.29
-1 -7 -1 22.44 0.72
1 -7 1 20.34 0.93
-1 -7 -1 21.5 0.55
1 -7 1 20.76 1.09
1 -7 1 21.51 0.65
-1 -7 -1 20.4 0.92
-1 -7 -1 20.11 1.02
1 7 1 21.08 0.91
1 7 1 20.34 0.71
-1 7 -1 21.79 1.16
-1 7 -1 21.46 0.64
-1 7 -1 21.55 0.96
1 7 1 20.45 1.02
-2 -7 -1 6.97 0.4
-2 -7 -1 7.11 0.5
-2 -7 -1 7.11 0.59
2 -7 1 6.15 0.78
2 -7 1 7.48 0.6
-2 -7 -1 8.02 0.7
2 -7 1 7.35 0.38
2 7 1 6.83 0.51
2 7 1 6.45 0.25
-2 7 -1 5.86 0.56
-2 7 -1 6.69 0.85
2 7 1 6.89 0.7
2 7 1 7.81 0.6
3 -7 1 0.39 0.18
-3 -7 -1 0.48 0.23
-3 -7 -1 0.64 0.37
-3 -7 -1 0.92 0.31
-3 -7 -1 0.32 0.25
3 -7 1 0.58 0.27
3 -7 1 0.32 0.38
3 7 1 0.26 0.32
-3 7 -1 0.7 0.3
3 7 1 0.61 0.11
-3 7 -1 0.61 0.5
3 7 1 0.59 0.22
-3 7 -1 0.48 0.29
3 7 1 0.5 0.27
3 7 1 0.45 0.11
4 -7 1 0.27 0.17
-4 -7 -1 0.69 0.35
4 -7 1 -0.26 0.37
-4 -7 -1 0.11 0.29
4 -7 1 0.48 0.3
-4 -7 -1 -0.1 0.25
-4 -7 -1 0.37 0.33
4 -7 1 0.31 0.28
4 7 1 0.36 0.33
-4 7 -1 0.03 0.34
-4 7 -1 0.19 0.32
4 7 1 0.12 0.15
4 7 1 -0.18 0.22
4 7 1 -0.02 0.23
-4 7 -1 -0.27 0.44
4 7 1 0.24 0.13
-5 -7 -1 9.07 0.78
-5 -7 -1 9.8 0.65
5 -7 1 9.23 0.79
5 -7 1 9.4 0.38
5 -7 1 10.52 0.67
-5 -7 -1 9.53 0.8
-5 -7 -1 9.54 0.66
5 -7 1 9.04 1.07
5 7 1 10.15 0.75
-5 7 -1 8.28 0.74
5 7 1 9 0.64
-5 7 -1 10.01 1.2
5 7 1 9.27 0.44
5 7 1 9.98 0.64
-5 7 -1 10.19 0.81
5 7 1 9.74 0.38
-6 -7 -1 8.37 0.74
6 -7 1 8.89 0.74
6 -7 1 8.72 0.38
-6 -7 -1 9.25 0.79
6 -7 1 9.23 0.86
6 -7 1 10.91 1.19
-6 -7 -1 9.25 0.82
-6 7 -1 7.82 0.68
6 7 1 7.92 0.54
6 7 1 8.52 0.63
6 7 1 8.28 0.46
-6 7 -1 9.46 1.21
6 7 1 8.68 0.71
-6 7 -1 8.46 1.06
7 -7 1 0.22 0.66
7 -7 1 0.43 0.21
-7 -7 -1 0.84 0.46
7 -7 1 -0.47 0.63
7 -7 1 0.67 0.51
-7 -7 -1 0.1 0.5
-7 7 -1 0.62 0.45
7 7 1 0.63 0.37
7 7 1 0.35 0.38
-7 7 -1 -0.3 0.74
-7 7 -1 0.41 0.6
7 7 1 0.47 0.29
7 7 1 0.18 0.3
-8 -7 -1 -0.51 0.61
-8 -7 -1 -0.02 0.47
8 -7 1 0.48 0.55
8 -7 1 -0.2 0.22
8 -7 1 -0.66 0.74
-8 -7 -1 -0.52 0.5
8 7 1 1.38 0.74
-8 7 -1 -0.07 0.46
-8 7 -1 0.44 0.51
-8 7 -1 0.3 0.71
-8 7 -1 0.98 0.96
8 7 1 0.85 0.46
8 7 1 -0.18 0.34
8 7 1 0.6 0.41
9 -7 1 -0.03 0.28
9 -7 1 -0.12 0.9
9 -7 1 -0.69 0.6
9 -7 1 -0.24 0.3
-9 -7 -1 0.3 0.83
9 -7 1 1.24 0.88
9 7 1 0.12 0.88
9 7 1 0.81 0.7
9 7 1 0.17 0.36
-9 7 -1 -0.53 0.65
-9 7 -1 -0.3 0.98
-9 7 -1 0.19 0.94
-9 7 -1 0.13 0.61
9 7 1 0.44 0.67
9 7 1 0.03 0.64
9 7 1 0.1 0.36
10 -7 1 -1.03 1.06
-10 -7 -1 -1.3 1.01
10 -7 1 0.19 0.73
10 -7 1 -0.15 0.3
10 -7 1 -0.45 1.09
10 -7 1 -0.42 0.33
10 7 1 0.51 0.85
-10 7 -1 -0.76 1.08
10 7 1 -0.38 0.94
-10 7 -1 -0.42 1.24
10 7 1 -0.48 1.08
-10 7 -1 -0.11 0.69
10 7 1 0.33 0.84
-10 7 -1 -0.63 0.75
11 -7 1 3.01 0.9
11 -7 1 1.61 1.41
-11 7 -1 4.84 1.81
11 7 1 1.68 1.13
11 7 1 1.7 0.95
-11 7 -1 0.63 0.86
11 7 1 1.21 1.11
11 -8 -1 -1.36 1.04
11 -8 -1 0.74 2.23
11 -8 -1 0.38 1.43
-11 8 1 0.74 1.98
-11 8 1 -0.8 1.72
11 8 -1 -1.09 1.21
-11 8 1 0.4 1.1
11 8 -1 -0.62 0.73
11 8 -1 0 0.93
10 -8 -1 1.39 1.25
10 -8 -1 -0.34 0.7
10 -8 -1 -0.35 1.27
10 -8 -1 2.14 1.19
10 8 -1 1.29 1.09
10 8 -1 -1.71 0.79
-10 8 1 0.2 0.94
-10 8 1 0.94 1.26
10 8 -1 1.51 0.96
10 8 -1 0.06 0.62
-10 8 1 -1.64 1.1
-10 8 1 -1.13 0.79
10 8 -1 0.19 0.63
10 8 -1 -0.19 0.56
9 -8 -1 0.99 0.9
9 -8 -1 1.23 0.63
-9 -8 1 0.31 0.75
9 -8 -1 -0.25 0.86
9 -8 -1 -0.64 0.98
-9 8 1 -0.39 0.88
9 8 -1 -0.35 0.42
9 8 -1 -0.31 0.5
-9 8 1 -0.51 1.04
-9 8 1 -0.7 0.69
9 8 -1 -1.45 0.9
9 8 -1 -0.13 0.47
-9 8 1 0.71 0.68
9 8 -1 -0.06 0.76
9 8 -1 -0.27 0.68
-8 -8 1 1.66 0.8
8 -8 -1 1.04 0.78
8 -8 -1 1.29 0.61
8 -8 -1 1.87 0.95
-8 8 1 1.19 0.8
-8 8 1 2.23 0.65
8 8 -1 1.58 0.37
8 8 -1 1.63 0.43
8 8 -1 1.89 0.44
8 8 -1 1.69 0.61
8 8 -1 0.67 0.71
8 8 -1 1.12 0.31
8 8 -1 1.82 0.35
-8 8 1 1.29 0.66
-8 8 1 2.18 1.02
7 -8 -1 1.24 0.58
7 -8 -1 1.26 0.57
7 -8 -1 2.22 0.77
-7 -8 1 1.42 0.64
-7 -8 1 1.59 0.53
7 -8 -1 1.54 0.64
-7 -8 1 1.16 0.47
-7 8 1 1.23 0.62
-7 8 1 0.05 0.75
7 8 -1 0.65 0.52
-7 8 1 1.48 0.58
7 8 -1 1.28 0.22
7 8 -1 1.75 0.44
7 8 -1 1.33 0.37
-6 -8 1 8.53 0.84
-6 -8 1 7.79 0.91
6 -8 -1 9.97 0.77
6 -8 -1 7.2 0.97
-6 -8 1 8.23 0.58
6 8 -1 8.76 0.55
-6 8 1 9.29 1.11
6 8 -1 8.3 0.63
6 8 -1 10.55 0.81
-6 8 1 9.38 0.73
5 -8 -1 4.87 0.91
-5 -8 1 3.95 0.55
-5 -8 1 4.34 0.42
5 -8 -1 3.73 0.53
-5 -8 1 3.82 0.52
-5 -8 1 5.08 0.67
5 -8 -1 4.68 0.72
-5 8 1 4.78 0.85
5 8 -1 3.69 0.53
5 8 -1 5.34 0.63
-5 8 1 4.41 0.51
5 8 -1 3.92 0.52
5 8 -1 4.24 0.49
-5 8 1 3.23 0.63
5 8 -1 3.93 0.32
4 -8 -1 1.21 0.4
-4 -8 1 0.41 0.44
-4 -8 1 1.56 0.29
4 -8 -1 0.45 0.49
-4 -8 1 0.83 0.37
-4 -8 1 1.36 0.35
4 -8 -1 0.76 0.44
4 8 -1 0.75 0.32
4 8 -1 1.04 0.42
4 8 -1 1.5 0.47
-4 8 1 0.6 0.52
-4 8 1 1.56 0.39
-4 8 1 0.94 0.44
-3 -8 1 0.95 0.32
3 -8 -1 0.77 0.34
-3 -8 1 0.73 0.34
3 -8 -1 1.18 0.54
-3 -8 1 1.14 0.23
-3 -8 1 0.81 0.39
3 -8 -1 1.09 0.38
-3 8 1 0.64 0.51
3 8 -1 0.82 0.34
3 8 -1 0.96 0.34
3 8 -1 1.36 0.46
-3 8 1 1.18 0.33
-3 8 1 0.74 0.41
-2 -8 1 0.42 0.27
-2 -8 1 0.36 0.25
2 -8 -1 0.1 0.31
-2 -8 1 -0.21 0.34
2 -8 -1 0.53 0.27
2 -8 -1 0.77 0.46
-2 -8 1 0.34 0.18
2 8 -1 0.85 0.42
-2 8 1 0.4 0.25
2 8 -1 0.44 0.29
-2 8 1 0.09 0.36
-2 8 1 -0.05 0.27
2 8 -1 0.4 0.33
-2 8 1 0.29 0.17
-1 -8 1 4.23 0.64
1 -8 -1 4.75 0.64
1 -8 -1 3.69 0.31
1 -8 -1 4.61 0.7
-1 -8 1 2.91 0.33
-1 -8 1 2.47 0.41
-1 -8 1 3.23 0.25
-1 8 1 3.03 0.45
1 8 -1 3.85 0.38
-1 8 1 2.61 0.51
-1 8 1 3.34 0.3
1 8 -1 3.5 0.61
1 8 -1 2.58 0.4
-1 8 1 4.03 0.36
0 -8 1 3.14 0.54
0 -8 1 4.27 0.56
0 -8 -1 4.06 0.41
0 -8 -1 4.98 0.58
0 -8 -1 3.78 0.57
0 -8 1 4.44 0.35
0 -8 -1 4.36 0.36
0 8 1 4.49 0.31
0 8 -1 4.75 0.57
0 8 -1 4.76 0.42
0 8 1 3.86 0.6
0 8 -1 3.88 0.59
0 8 1 4.27 0.35
0 8 1 4.68 0.57
1 -8 1 1.2 0.36
-1 -8 -1 1 0.43
-1 -8 -1 0.99 0.28
1 -8 1 1.05 0.48
-1 -8 -1 0.8 0.33
-1 -8 -1 1.05 0.18
1 -8 1 0.3 0.25
-1 8 -1 0.76 0.34
-1 8 -1 0.93 0.51
1 8 1 0.99 0.29
1 8 1 0.73 0.3
-1 8 -1 0.99 0.23
1 8 1 0.75 0.16
1 8 1 0.91 0.47
-2 -8 -1 -0.04 0.39
-2 -8 -1 0.44 0.24
-2 -8 -1 0.38 0.32
2 -8 1 -0.35 0.21
-2 -8 -1 0.32 0.27
2 -8 1 -0.22 0.45
2 8 1 -0.01 0.26
2 8 1 -0.32 0.29
-2 8 -1 0.22 0.27
-2 8 -1 0.13 0.48
2 8 1 -0.01 0.44
-2 8 -1 0.29 0.3
-3 -8 -1 0.26 0.28
3 -8 1 -0.1 0.2
-3 -8 -1 0.5 0.35
3 -8 1 0.59 0.4
-3 -8 -1 0.11 0.25
-3 -8 -1 0.01 0.35
3 -8 1 0.09 0.44
3 8 1 -0.02 0.11
-3 8 -1 0.24 0.57
3 8 1 0.31 0.35
-3 8 -1 0.43 0.36
3 8 1 0.46 0.4
-3 8 -1 0.65 0.32
3 8 1 -0.29 0.27
4 -8 1 7.06 0.96
-4 -8 -1 5.47 0.63
-4 -8 -1 6.43 0.61
-4 -8 -1 7.01 0.82
-4 -8 -1 5.62 0.43
4 -8 1 5.58 0.36
4 -8 1 5.48 0.7
4 -8 1 6.04 0.45
4 8 1 5.62 0.25
4 8 1 6.46 0.58
-4 8 -1 5.38 0.5
4 8 1 5.93 0.7
4 8 1 6.58 0.54
-4 8 -1 5.37 0.86
-4 8 -1 6.52 0.76
4 8 1 5.83 0.61
5 -8 1 -0.72 0.53
-5 -8 -1 0.9 0.51
5 -8 1 0.2 0.18
-5 -8 -1 0.32 0.38
-5 -8 -1 0.49 0.36
5 -8 1 -0.18 0.31
-5 -8 -1 0.66 0.47
5 -8 1 -0.18 0.38
5 8 1 0.82 0.52
-5 8 -1 0.08 0.6
5 8 1 0.18 0.16
5 8 1 0.38 0.42
-5 8 -1 0.19 0.43
5 8 1 0.18 0.34
5 8 1 0 0.15
-6 -8 -1 1.9 0.56
6 -8 1 1.9 0.51
-6 -8 -1 0.75 0.47
-6 -8 -1 1.04 0.44
6 -8 1 2.01 0.59
-6 -8 -1 1.5 0.61
6 -8 1 2.71 0.79
6 8 1 1.83 0.45
6 8 1 2.17 0.27
6 8 1 1.76 0.25
-6 8 -1 2.63 0.63
-6 8 -1 2.4 0.87
6 8 1 1.75 0.5
-7 -8 -1 0.09 0.52
7 -8 1 0.77 0.48
-7 -8 -1 -0.31 0.57
7 -8 1 -0.43 0.59
7 -8 1 -0.63 0.76
-7 8 -1 0.79 0.9
7 8 1 0.47 0.33
-7 8 -1 -0.09 0.52
-7 8 -1 0.17 0.46
7 8 1 -0.16 0.42
-7 8 -1 -0.13 0.66
7 8 1 -0.18 0.36
-8 -8 -1 0.61 0.59
8 -8 1 0.97 0.91
8 -8 1 -0.77 0.73
8 -8 1 0.16 0.56
-8 -8 -1 -0.32 0.72
8 8 1 0.17 0.6
8 8 1 -0.06 0.75
-8 8 -1 0.23 0.8
8 8 1 -0.21 0.44
-8 8 -1 0.23 0.59
-8 8 -1 -0.16 0.57
-8 8 -1 -0.14 1.12
8 8 1 0.2 0.45
-9 -8 -1 -0.02 0.85
9 -8 1 0.56 0.63
-9 -8 -1 0.34 0.57
9 -8 1 1.02 0.93
9 -8 1 -1.25 0.98
9 8 1 -0.47 0.5
9 8 1 0.82 0.54
9 8 1 -0.39 0.78
9 8 1 -0.57 0.75
9 8 1 0.57 0.96
-9 8 -1 0.57 1.29
9 8 1 0.14 0.41
-9 8 -1 0.69 0.68
-9 8 -1 0.56 0.74
9 8 1 0.18 0.62
-9 8 -1 -0.55 0.96
10 -8 1 2.09 1.29
10 -8 1 -0.83 1.32
10 -8 1 0.35 0.83
-10 -8 -1 0.42 1.11
10 8 1 0.62 0.72
-10 8 -1 0.62 1.6
10 8 1 0.72 0.99
-10 8 -1 0.43 0.94
-10 8 -1 -0.22 1.32
-10 8 -1 0.57 0.85
10 8 1 -0.16 0.79
10 -9 -1 -1.61 1.2
10 -9 -1 0.73 0.87
10 -9 -1 0.11 1.4
10 -9 -1 -0.22 1.36
-10 9 1 -0.4 1.21
10 9 -1 0.03 1.07
-10 9 1 1.27 1.04
10 9 -1 0.36 0.46
10 9 -1 0.41 0.51
-10 9 1 0.97 1.76
-10 9 1 1.01 1.13
10 9 -1 -0.17 0.68
9 -9 -1 0 0.79
9 -9 -1 0.77 0.98
9 -9 -1 -2.02 1.12
-9 -9 1 -0.34 0.88
9 -9 -1 1.41 1.05
-9 9 1 0.36 0.87
9 9 -1 -1.22 0.97
-9 9 1 -0.01 1.04
-9 9 1 1.24 0.74
9 9 -1 -0.65 0.52
9 9 -1 -0.02 0.89
9 9 -1 -0.54 0.71
-9 9 1 1.47 1.4
-8 -9 1 0.06 0.48
8 -9 -1 -0.84 0.82
8 -9 -1 0.78 0.91
8 -9 -1 -0.18 0.8
-8 -9 1 1.22 0.67
8 -9 -1 0.97 0.6
-8 9 1 0.73 1.1
-8 9 1 -1.08 0.62
8 9 -1 0.49 0.43
8 9 -1 -0.71 0.59
8 9 -1 0.02 0.43
8 9 -1 -0.26 0.38
-8 9 1 -0.58 0.86
8 9 -1 -0.28 0.82
-7 -9 1 0.17 0.67
7 -9 -1 -0.58 0.73
7 -9 -1 0.13 0.6
-7 -9 1 0.14 0.54
7 -9 -1 -0.52 0.62
-7 -9 1 0.2 0.54
-7 9 1 0.57 0.98
7 9 -1 -0.28 0.44
-7 9 1 0.02 0.66
7 9 -1 0.28 0.49
7 9 -1 -0.58 0.34
7 9 -1 -0.22 0.34
-7 9 1 -0.06 0.59
-7 9 1 -0.9 0.51
6 -9 -1 0.86 0.47
-6 -9 1 1.26 0.46
-6 -9 1 0.29 0.34
6 -9 -1 -0.01 0.66
-6 -9 1 0 0.57
-6 -9 1 0.38 0.55
6 -9 -1 0.14 0.61
-6 9 1 1.34 0.87
6 9 -1 0.77 0.48
6 9 -1 0.61 0.37
6 9 -1 0.9 0.31
-6 9 1 1.24 0.55
5 -9 -1 0.23 0.65
-5 -9 1 0.39 0.37
-5 -9 1 0.21 0.35
-5 -9 1 -0.63 0.5
-5 -9 1 0.16 0.57
5 -9 -1 0.5 0.54
5 -9 -1 0.63 0.57
5 9 -1 0.07 0.52
5 9 -1 0.57 0.48
-5 9 1 1.25 0.49
-5 9 1 0.29 0.67
5 9 -1 0.12 0.25
5 9 -1 0.09 0.31
-4 -9 1 1.43 0.55
-4 -9 1 2.11 0.42
4 -9 -1 0.81 0.69
-4 -9 1 1.32 0.32
4 -9 -1 1.78 0.48
4 -9 -1 1.68 0.52
-4 -9 1 2.07 0.5
-4 9 1 2.2 0.44
4 9 -1 0.98 0.36
4 9 -1 1.58 0.53
4 9 -1 1.69 0.5
-4 9 1 0.89 0.61
-4 9 1 1.34 0.58
3 -9 -1 3.35 0.64
-3 -9 1 4.91 0.75
-3 -9 1 3.88 0.33
-3 -9 1 4.15 0.59
-3 -9 1 3.39 0.47
3 -9 -1 2.91 0.72
3 -9 -1 3.44 0.44
-3 9 1 3.56 0.62
-3 9 1 3.62 0.42
3 9 -1 3.5 0.65
3 9 -1 3.65 0.54
-3 9 1 4.63 0.88
3 9 -1 3.54 0.51
-2 -9 1 0.2 0.21
2 -9 -1 0.35 0.31
2 -9 -1 0.33 0.38
2 -9 -1 0.78 0.55
-2 -9 1 0.76 0.35
-2 -9 1 0.72 0.49
-2 -9 1 0.11 0.31
-2 9 1 0.27 0.31
2 9 -1 0.81 0.44
-2 9 1 0.13 0.27
2 9 -1 0.23 0.31
-2 9 1 0.54 0.24
2 9 -1 0.68 0.37
-2 9 1 1.02 0.63
-1 -9 1 2.59 0.5
-1 -9 1 2.01 0.2
1 -9 -1 2.57 0.5
1 -9 -1 1.8 0.3
-1 -9 1 2.02 0.34
-1 -9 1 2.01 0.53
1 -9 -1 0.72 0.55
-1 9 1 2.27 0.29
-1 9 1 2.18 0.63
1 9 -1 1.54 0.41
-1 9 1 1.66 0.3
-1 9 1 1.48 0.41
1 9 -1 1.13 0.49
1 9 -1 2.18 0.39
0 -9 -1 -0.1 0.24
0 -9 1 -0.56 0.39
0 -9 1 0.75 0.34
0 -9 -1 0.2 0.22
0 -9 -1 0.05 0.38
0 -9 1 0.41 0.23
0 -9 -1 0.28 0.33
0 9 -1 0.52 0.32
0 9 1 0.07 0.35
0 9 1 0.05 0.29
0 9 -1 0.49 0.51
0 9 1 0.35 0.21
0 9 -1 0.26 0.28
0 9 1 0.21 0.42
-1 -9 -1 7.52 0.91
-1 -9 -1 8 0.73
-1 -9 -1 7.54 0.39
1 -9 1 8.16 0.52
-1 -9 -1 7.24 0.58
1 -9 1 7.84 1.04
1 9 1 7.14 0.37
1 9 1 6.8 0.62
1 9 1 7.6 0.74
-1 9 -1 6.45 0.74
-1 9 -1 7.8 1.02
-1 9 -1 7.73 0.51
1 9 1 6.48 0.9
-2 -9 -1 3.13 0.56
-2 -9 -1 3.01 0.66
2 -9 1 3.04 0.38
-2 -9 -1 3.02 0.45
-2 -9 -1 3.18 0.35
2 -9 1 3.05 0.79
2 -9 1 2.14 0.36
-2 9 -1 2.26 0.64
2 9 1 2.76 0.24
2 9 1 2.72 0.44
-2 9 -1 2.91 0.53
2 9 1 3.68 0.59
2 9 1 2.98 0.67
-2 9 -1 2.8 0.37
-3 -9 -1 -0.39 0.29
3 -9 1 -0.12 0.55
-3 -9 -1 0.13 0.37
-3 -9 -1 -0.1 0.41
-3 -9 -1 0.1 0.38
3 -9 1 -0.21 0.38
-3 9 -1 0.73 0.37
3 9 1 0.28 0.4
3 9 1 0.39 0.12
3 9 1 0.57 0.44
-3 9 -1 0.53 0.41
3 9 1 0.39 0.35
-3 9 -1 0.15 0.65
4 -9 1 -0.12 0.37
-4 -9 -1 0.32 0.36
-4 -9 -1 0.26 0.5
-4 -9 -1 0.7 0.37
-4 -9 -1 0.7 0.47
4 -9 1 -0.12 0.46
4 -9 1 0.44 0.54
4 9 1 0.58 0.46
-4 9 -1 0.42 0.67
-4 9 -1 0.32 0.42
-4 9 -1 0.22 0.49
4 9 1 0.26 0.33
-5 -9 -1 5.39 0.66
-5 -9 -1 4.51 0.69
5 -9 1 3.83 0.67
-5 -9 -1 5.26 0.52
5 -9 1 3.29 0.84
5 -9 1 4.75 0.53
5 9 1 5.52 0.77
5 9 1 3.08 0.61
-5 9 -1 5.08 0.64
5 9 1 5.51 0.7
-5 9 -1 5.89 1.1
5 9 1 5.02 0.26
-6 -9 -1 7.44 0.67
-6 -9 -1 7.44 0.84
-6 -9 -1 8.05 1.01
6 -9 1 8.8 0.99
6 -9 1 7.22 1.15
6 -9 1 7.86 0.69
6 9 1 8.54 0.78
6 9 1 9.73 1.11
-6 9 -1 11.07 1.44
-6 9 -1 9.11 0.84
6 9 1 5.81 0.78
7 -9 1 -1.2 0.77
-7 -9 -1 0.32 0.64
-7 -9 -1 -0.28 0.69
-7 -9 -1 -0.6 0.68
7 -9 1 -0.26 0.59
7 -9 1 -0.36 0.65
-7 -9 -1 -0.63 0.83
-7 9 -1 -0.17 0.63
7 9 1 -0.07 0.26
7 9 1 0.02 0.51
7 9 1 0.27 0.76
-7 9 -1 0.07 0.6
-7 9 -1 0.42 1.03
7 9 1 0.01 0.56
7 9 1 0.47 0.26
7 9 1 -0.08 0.43
-7 9 -1 -0.71 0.71
-8 -9 -1 0.05 0.75
8 -9 1 -1.07 1.05
8 -9 1 -0.78 0.82
-8 -9 -1 0.67 1.13
-8 -9 -1 1.01 0.74
8 -9 1 0.22 0.72
-8 9 -1 1.47 1.18
-8 9 -1 0.21 0.71
8 9 1 0.93 0.37
-8 9 -1 0.69 0.73
8 9 1 0.16 0.47
-8 9 -1 1.52 0.91
8 9 1 0.25 0.92
8 9 1 0.19 0.38
8 9 1 0.98 0.55
8 9 1 0.58 0.67
9 -9 1 0.31 0.75
-9 -9 -1 -0.62 0.83
-9 -9 -1 -0.59 0.99
9 -9 1 0.36 1.13
9 9 1 -0.9 0.87
9 9 1 0.64 0.78
9 9 1 -0.14 0.51
-9 9 -1 -0.42 1.1
9 9 1 0.81 1.06
9 9 1 -0.95 0.52
-9 9 -1 -0.21 0.82
-9 9 -1 2.08 0.94
-9 9 -1 0.76 1.55
9 9 1 0.23 0.5
9 9 1 1.14 0.56
10 -9 1 0.07 0.91
10 -9 1 2.49 1.39
10 -9 1 0.25 1.51
-10 -9 -1 0.5 1.33
10 -9 1 1.99 1.55
-10 9 -1 -2.03 1
-10 9 -1 -0.78 1.53
-10 9 -1 0.14 1.73
10 9 1 -0.26 0.81
10 9 1 -1.44 1.14
10 9 1 -1.41 0.65
10 -10 -1 -0.18 1.05
10 -10 -1 0.34 1.64
10 -10 -1 -0.61 1.41
10 -10 -1 0.77 1.66
10 10 -1 1.81 1.29
-10 10 1 1.2 2.4
-10 10 1 -0.73 1.48
-10 10 1 -0.14 1.2
9 -10 -1 0.37 0.81
9 -10 -1 -0.2 1.22
-9 -10 1 -0.25 0.98
9 -10 -1 -0.46 1.11
9 10 -1 -0.21 0.47
9 10 -1 -0.5 0.86
-9 10 1 0.59 1.55
-9 10 1 -0.8 0.99
9 10 -1 0.71 0.51
9 10 -1 -1.19 1.33
-9 10 1 -1.89 0.9
9 10 -1 0.48 0.54
-9 10 1 2.18 1.14
8 -10 -1 1.35 0.92
8 -10 -1 0.72 1.26
8 -10 -1 0.08 0.78
8 -10 -1 -0.38 0.99
-8 -10 1 0.55 1.05
-8 -10 1 -0.02 0.75
-8 -10 1 -0.13 0.61
-8 -10 1 0.37 0.7
-8 10 1 -0.88 0.87
8 10 -1 -0.93 0.52
-8 10 1 -1.08 0.92
-8 10 1 -0.06 0.82
8 10 -1 -0.4 0.65
8 10 -1 0.72 0.45
-8 10 1 0.39 1.16
8 10 -1 -1.75 0.97
8 10 -1 0.1 0.53
7 -10 -1 -1 0.63
-7 -10 1 -0.09 0.61
-7 -10 1 0.34 0.83
-7 -10 1 -0.86 0.62
-7 -10 1 -0.55 0.49
7 -10 -1 1.8 0.85
-7 10 1 0.14 0.62
7 10 -1 -0.26 0.5
7 10 -1 -0.25 0.77
7 10 -1 0.14 0.53
-7 10 1 0.91 1.07
7 10 -1 0.16 0.36
7 10 -1 0.11 0.42
-7 10 1 0.52 0.74
6 -10 -1 0.51 0.52
-6 -10 1 0.09 0.64
-6 -10 1 1.12 0.52
-6 -10 1 0.39 0.69
-6 -10 1 1.37 0.46
6 -10 -1 0.88 0.73
6 -10 -1 1.58 0.95
6 10 -1 0.05 0.31
-6 10 1 0.91 0.94
6 10 -1 -0.11 0.57
-6 10 1 0.68 0.62
6 10 -1 0.33 0.44
6 10 -1 -0.14 0.69
5 -10 -1 2.67 0.92
-5 -10 1 3.39 0.77
5 -10 -1 3.53 0.67
-5 -10 1 2.89 0.53
-5 -10 1 3.59 0.66
-5 -10 1 3.11 0.45
5 -10 -1 3.62 0.63
-5 10 1 4.48 1.07
-5 10 1 2.87 0.57
-5 10 1 1.24 0.63
5 10 -1 3.55 0.58
5 10 -1 3.77 0.35
4 -10 -1 4.56 0.6
4 -10 -1 4.98 1.07
-4 -10 1 4.75 0.43
-4 -10 1 4.71 0.59
-4 -10 1 5.66 0.72
4 -10 -1 4.24 0.93
-4 -10 1 4.66 0.85
-4 10 1 5.81 0.8
4 10 -1 4.5 0.62
-4 10 1 3.18 0.52
4 10 -1 3.82 0.61
-4 10 1 5.48 1.01
4 10 -1 4.7 0.76
3 -10 -1 4.18 0.96
-3 -10 1 3.23 0.34
-3 -10 1 3.04 0.52
-3 -10 1 4.61 1.01
3 -10 -1 3.76 0.71
3 -10 -1 4.26 0.51
-3 -10 1 4.38 0.61
3 10 -1 3.97 0.79
3 10 -1 4.36 0.59
3 10 -1 4.06 0.59
-3 10 1 3.38 0.88
-3 10 1 3.33 0.46
2 -10 -1 0.48 0.42
-2 -10 1 0.46 0.39
-2 -10 1 0.62 0.43
2 -10 -1 1.7 0.74
-2 -10 1 0.94 0.25
2 -10 -1 0.55 0.37
-2 10 1 0.23 0.62
2 10 -1 0.58 0.61
-2 10 1 0.87 0.34
-2 10 1 -0.01 0.41
2 10 -1 0.43 0.45
-2 10 1 0.97 0.28
2 10 -1 0.48 0.43
-1 -10 1 6.03 0.53
1 -10 -1 6.15 0.9
-1 -10 1 5.02 0.69
-1 -10 1 4.94 0.81
1 -10 -1 5.65 0.77
1 -10 -1 4.99 0.41
-1 -10 1 5.28 0.34
1 10 -1 4.77 0.84
-1 10 1 4.74 0.39
-1 10 1 4.75 0.62
-1 10 1 3.78 0.79
1 10 -1 4.35 0.46
1 10 -1 5.22 0.64
-1 10 1 5.43 0.43
0 -10 -1 0.27 0.26
0 -10 1 -0.4 0.38
0 -10 1 -0.09 0.52
0 -10 1 0.03 0.26
0 -10 -1 0.38 0.4
0 -10 -1 0.04 0.58
0 -10 -1 0.19 0.32
0 10 -1 -0.3 0.43
0 10 -1 0.25 0.34
0 10 1 -0.03 0.23
0 10 1 0.31 0.59
0 10 -1 0.51 0.38
0 10 1 0.47 0.44
0 10 1 0.3 0.34
1 -10 1 -0.13 0.32
-1 -10 -1 0.61 0.58
-1 -10 -1 0.23 0.24
-1 -10 -1 0.3 0.4
1 -10 1 0.07 0.6
-1 -10 -1 0.4 0.36
1 -10 1 0.18 0.37
1 10 1 0.32 0.56
-1 10 -1 -0.14 0.31
1 10 1 0.28 0.21
1 10 1 0.07 0.4
-1 10 -1 -0.06 0.35
-1 10 -1 -0.35 0.65
-1 10 -1 0.01 0.32
1 10 1 0.09 0.38
-2 -10 -1 3.44 0.91
2 -10 1 3.07 0.8
-2 -10 -1 3.9 0.65
-2 -10 -1 4.82 0.42
-2 -10 -1 5.06 0.56
2 -10 1 4.4 0.47
2 -10 1 3.6 0.7
-2 10 -1 3.68 0.44
2 10 1 3.46 0.56
2 10 1 3.89 0.3
2 10 1 4.43 0.54
2 10 1 3.36 0.71
-2 10 -1 5.9 1.03
-2 10 -1 5.32 0.73
3 -10 1 1.42 0.49
-3 -10 -1 1.72 0.38
-3 -10 -1 2.17 0.66
3 -10 1 1.96 0.77
3 -10 1 1.87 0.46
-3 -10 -1 1.39 0.5
3 10 1 2.61 0.57
3 10 1 1.82 0.47
3 10 1 2.06 0.66
-3 10 -1 1.75 0.65
-3 10 -1 1.91 0.44
-3 10 -1 2.31 0.87
-4 -10 -1 0.33 0.52
-4 -10 -1 0.36 0.41
4 -10 1 0.27 0.44
4 -10 1 -0.2 0.42
4 -10 1 -0.15 0.49
-4 -10 -1 0.44 0.45
-4 -10 -1 0.58 0.62
-4 10 -1 -0.73 0.78
4 10 1 0.28 0.54
-4 10 -1 0.79 0.49
4 10 1 0.17 0.57
4 10 1 0.52 0.45
-4 10 -1 -0.09 0.5
5 -10 1 0.18 0.84
5 -10 1 1.88 0.63
-5 -10 -1 1.98 0.54
-5 -10 -1 1.92 0.5
5 -10 1 1.55 0.52
-5 -10 -1 2.79 0.87
-5 -10 -1 1.81 0.67
5 10 1 1.66 0.64
5 10 1 2.34 0.55
-5 10 -1 2.1 0.71
-5 10 -1 1.95 0.96
-5 10 -1 1.72 0.61
6 -10 1 2.97 0.72
-6 -10 -1 0.84 0.49
-6 -10 -1 1.03 0.73
-6 -10 -1 1.15 0.58
6 -10 1 1.17 0.92
6 -10 1 2.29 0.77
-6 10 -1 0.9 1.08
6 10 1 1.12 0.62
6 10 1 1.96 0.78
6 10 1 2.49 0.52
6 10 1 1.72 0.51
-6 10 -1 1.9 0.73
-6 10 -1 1.53 0.65
7 -10 1 2.24 0.75
7 -10 1 0.87 1.15
-7 -10 -1 0.93 0.92
-7 -10 -1 1.14 0.72
-7 -10 -1 1.32 0.97
7 -10 1 1.41 0.93
7 10 1 1.72 0.88
-7 10 -1 2.5 1.57
7 10 1 1.47 0.6
7 10 1 2.71 0.63
7 10 1 2.07 0.73
-7 10 -1 1.69 0.86
-7 10 -1 2.69 0.78
8 -10 1 1.09 0.84
8 -10 1 1.96 0.97
8 -10 1 0.84 1.09
-8 -10 -1 0.62 0.88
-8 -10 -1 1.57 0.85
8 -10 1 -0.33 1.32
-8 10 -1 1.41 1.67
-8 10 -1 2.22 0.95
8 10 1 1.65 1.05
8 10 1 -0.53 0.59
-8 10 -1 0.98 1.03
8 10 1 0.1 0.69
8 10 1 1.15 0.58
9 -10 1 -0.14 1.39
-9 -10 -1 0.35 1.14
9 -10 1 1.66 1.22
-9 -10 -1 -1.32 0.86
9 -10 1 0.52 1.36
9 -10 1 -0.38 0.87
-9 10 -1 1.38 1.6
9 10 1 0.32 0.6
-9 10 -1 -0.28 1.27
-9 10 -1 -0.74 0.97
9 10 1 -0.26 0.68
9 -11 -1 0.6 1.49
9 -11 -1 0.85 1.31
9 -11 -1 1.44 1.16
-9 -11 1 -0.67 1.07
9 -11 -1 -2.65 1.43
-9 11 1 1 1.2
9 11 -1 -0.55 0.57
9 11 -1 -0.45 0.69
-9 11 1 0.54 1.27
-9 11 1 -2.44 1.88
8 -11 -1 -0.29 0.97
-8 -11 1 -1.13 1.18
-8 -11 1 -0.2 0.86
-8 -11 1 0.14 0.86
8 -11 -1 -2.89 1.29
8 -11 -1 0.58 1.03
8 -11 -1 -0.77 1.09
8 11 -1 0.2 0.43
8 11 -1 1.26 0.71
-8 11 1 -0.89 1.02
8 11 -1 -1.36 0.76
-8 11 1 1.32 1.04
8 11 -1 -0.84 0.52
-8 11 1 2.45 1.65
8 11 -1 0.58 1.15
-8 11 1 -0.37 0.86
7 -11 -1 0.18 1.1
7 -11 -1 -0.43 0.72
-7 -11 1 -0.35 0.79
7 -11 -1 1.09 0.84
-7 -11 1 -0.48 0.72
-7 -11 1 -0.09 0.55
-7 -11 1 -0.39 0.96
7 -11 -1 0.09 0.94
-7 11 1 0.27 0.92
7 11 -1 -1.5 0.9
7 11 -1 0.81 0.71
-7 11 1 -1.1 1.16
7 11 -1 0.44 0.38
-7 11 1 -0.68 0.79
7 11 -1 0.02 0.51
-6 -11 1 0.59 0.56
-6 -11 1 1.05 0.81
6 -11 -1 1.32 0.78
6 -11 -1 0.06 1.01
6 -11 -1 0.42 0.65
-6 -11 1 1.17 0.58
6 11 -1 0.13 0.52
-6 11 1 1.23 0.79
-6 11 1 -0.14 0.7
6 11 -1 -0.14 0.33
6 11 -1 -0.27 0.77
6 11 -1 -0.11 0.67
-6 11 1 -0.16 1.07
5 -11 -1 2.29 0.71
-5 -11 1 3.07 0.73
-5 -11 1 3.01 0.51
5 -11 -1 3.03 0.72
5 -11 -1 2.21 1.08
5 11 -1 3.23 0.81
-5 11 1 2.64 0.65
5 11 -1 2.5 0.34
5 11 -1 2.81 0.66
5 11 -1 4.15 0.81
-5 11 1 2.74 0.75
-5 11 1 1.98 1.28
4 -11 -1 2.49 0.62
-4 -11 1 3.1 0.58
4 -11 -1 2.62 0.68
-4 -11 1 2.1 0.61
-4 -11 1 2.13 0.42
4 -11 -1 2.89 0.99
-4 11 1 -0.31 1.53
4 11 -1 2.69 0.76
4 11 -1 2.31 0.62
-4 11 1 2.96 0.6
-4 11 1 2.89 0.76
3 -11 -1 6.56 0.6
-3 -11 1 6.93 0.85
3 -11 -1 7.95 1.02
3 -11 -1 6.37 1.13
-3 -11 1 6 0.67
-3 -11 1 6.72 0.58
-3 11 1 6.47 0.58
-3 11 1 6.6 0.84
3 11 -1 5.45 0.86
3 11 -1 6.31 0.73
3 11 -1 6.46 0.81
-2 -11 1 2.91 0.62
2 -11 -1 2.21 0.8
-2 -11 1 3.86 0.58
2 -11 -1 2.77 0.47
-2 -11 1 3.51 0.82
-2 -11 1 3.19 0.34
2 -11 -1 3.17 0.73
2 11 -1 3.25 0.62
2 11 -1 2.72 0.53
-2 11 1 2.12 0.73
-2 11 1 3.19 0.45
-2 11 1 3.03 0.38
2 11 -1 2.51 0.78
-1 -11 1 5.66 0.4
1 -11 -1 6.61 1.05
1 -11 -1 5.7 0.78
-1 -11 1 6.76 0.9
-1 -11 1 7.99 0.7
1 -11 -1 6.1 0.49
1 11 -1 6.67 1.1
1 11 -1 5.76 0.74
-1 11 1 6.12 0.47
-1 11 1 4.07 1.04
-1 11 1 5.9 0.78
-1 11 1 6.68 0.51
1 11 -1 5.66 0.58
0 -11 -1 0.19 0.32
0 -11 1 0.3 0.3
0 -11 1 -0.27 0.37
0 -11 1 0.16 0.43
0 -11 -1 1.01 0.47
0 11 -1 0.14 0.39
0 11 -1 0.27 0.7
0 11 1 0.11 0.29
0 11 -1 0.25 0.47
0 11 1 0.49 0.5
0 11 1 0.36 0.4
0 11 1 -0.54 0.62
1 -11 1 -0.7 0.43
1 -11 1 0.2 0.36
1 -11 1 -0.53 0.6
-1 -11 -1 0.54 0.53
-1 -11 -1 0.08 0.27
-1 -11 -1 0.09 0.47
-1 11 -1 0.31 0.83
1 11 1 -0.23 0.46
1 11 1 0.1 0.49
1 11 1 0.04 0.24
-1 11 -1 -0.2 0.37
-1 11 -1 0.35 0.36
1 11 1 0.38 0.67
-1 11 -1 -0.32 0.44
2 -11 1 0.67 0.43
2 -11 1 1.3 0.8
-2 -11 -1 0.68 0.38
2 -11 1 1.03 0.54
-2 -11 -1 0.5 0.47
-2 -11 -1 0.16 0.45
2 11 1 0.74 0.74
2 11 1 0.35 0.52
2 11 1 1.31 0.55
2 11 1 0.85 0.21
-2 11 -1 0.43 0.55
-2 11 -1 0.61 0.44
-2 11 -1 0.39 0.81
3 -11 1 -0.16 0.53
-3 -11 -1 1 0.41
3 -11 1 0.94 0.51
-3 -11 -1 0.22 0.52
3 -11 1 -0.63 0.75
-3 -11 -1 0.98 0.55
3 11 1 0.8 0.57
3 11 1 0.73 0.67
-3 11 -1 -0.18 0.49
-3 11 -1 0.31 0.55
3 11 1 1.24 0.6
-3 11 -1 0.7 0.74
4 -11 1 2.67 0.95
4 -11 1 0.87 0.5
4 -11 1 1.59 0.68
-4 -11 -1 -0.03 0.6
-4 -11 -1 1.5 0.61
4 -11 1 0.25 0.61
-4 -11 -1 1.17 0.47
4 11 1 1.31 0.61
-4 11 -1 1.78 0.58
-4 11 -1 1.97 1.07
4 11 1 0.74 0.64
5 -11 1 2.45 1.1
5 -11 1 1.75 0.61
-5 -11 -1 2.22 0.58
-5 -11 -1 2.67 0.76
-5 -11 -1 2.78 0.87
5 -11 1 3.68 0.79
5 -11 1 1.64 0.71
-5 -11 -1 1.45 0.6
-5 11 -1 3.5 1.14
5 11 1 1.57 0.71
-5 11 -1 2.18 0.72
5 11 1 1.21 0.74
-5 11 -1 1.62 0.74
5 11 1 2.13 0.68
6 -11 1 -1 0.97
-6 -11 -1 -1.28 0.59
-6 -11 -1 0.3 0.9
-6 -11 -1 0.82 0.83
6 -11 1 0.39 0.69
6 -11 1 0.77 0.8
6 -11 1 0.85 0.74
-6 -11 -1 -0.45 0.87
6 11 1 0.32 0.59
6 11 1 0.68 0.89
-6 11 -1 2.17 1.25
-6 11 -1 0.2 0.8
6 11 1 -0.07 0.71
-6 11 -1 0.44 0.75
7 -11 1 -0.06 0.94
-7 -11 -1 -0.15 0.64
-7 -11 -1 0.88 1.16
7 -11 1 -2.35 1.11
-7 -11 -1 0.42 0.92
7 -11 1 1.57 0.82
-7 -11 -1 0.06 0.8
7 11 1 0.91 0.62
7 11 1 0.3 0.61
-7 11 -1 0.37 0.93
7 11 1 0.85 1.01
-7 11 -1 2.02 0.96
-7 11 -1 -1.13 1.25
7 11 1 1.43 0.8
-8 -11 -1 -2.25 1.04
8 -11 1 1 1.19
8 -11 1 -0.84 1.08
8 -11 1 -2.13 0.89
-8 -11 -1 -0.92 0.98
-8 -11 -1 -0.06 1.06
8 -11 1 -0.67 1.56
-8 11 -1 -0.46 1.02
8 11 1 0.88 0.8
-8 11 -1 -1.21 1.47
-8 11 -1 2.05 1.13
8 11 1 -1.16 0.69
-9 -11 -1 -1.54 1.02
9 -11 1 0.59 1.85
-9 11 -1 2.9 1.51
-9 11 -1 -2.42 1.93
9 11 1 0.5 0.8
-9 11 -1 1.35 1.21
8 -12 -1 0.5 1.25
-8 -12 1 3.09 1.13
8 -12 -1 1.67 1.69
-8 -12 1 1.18 1.41
8 -12 -1 0.15 1.08
-8 -12 1 0.35 1.03
8 -12 -1 1.21 1.36
8 12 -1 2.89 0.91
-8 12 1 2.38 1.93
-8 12 1 1.63 1.25
-8 12 1 1.44 1.31
8 12 -1 1.13 0.66
-7 -12 1 -1.39 0.71
-7 -12 1 0.14 1.14
-7 -12 1 -0.04 0.96
7 -12 -1 -0.41 1.16
7 -12 -1 -0.8 0.95
-7 -12 1 -0.46 0.98
7 -12 -1 0.07 1.11
7 -12 -1 0.47 1
-7 12 1 -0.28 1.6
-7 12 1 0.24 1.04
7 12 -1 0.53 1.18
7 12 -1 0.75 0.69
7 12 -1 0.27 0.83
-7 12 1 -0.93 0.92
7 12 -1 -0.61 0.32
-6 -12 1 1.55 0.66
-6 -12 1 2.69 1.04
6 -12 -1 0.99 0.93
-6 -12 1 2.58 1.02
6 -12 -1 2.53 1.09
6 -12 -1 0.16 0.82
6 12 -1 1.8 0.69
6 12 -1 1.53 0.33
6 12 -1 1.43 1.01
-6 12 1 1.93 0.94
-6 12 1 2.06 0.96
-6 12 1 1.17 1.42
6 12 -1 0.77 0.89
5 -12 -1 -1.51 0.74
5 -12 -1 1 0.63
-5 -12 1 0.24 0.59
-5 -12 1 -0.59 0.5
-5 -12 1 -0.63 0.72
5 -12 -1 -0.23 1.09
-5 -12 1 -0.33 0.84
5 12 -1 1.03 0.85
-5 12 1 -0.71 0.7
-5 12 1 1.8 1.29
5 12 -1 0.43 0.78
-5 12 1 1.45 0.82
5 12 -1 0.46 0.59
5 12 -1 0.04 0.31
4 -12 -1 1.39 0.99
4 -12 -1 3.66 0.71
-4 -12 1 4.86 1.01
-4 -12 1 2.63 0.49
-4 -12 1 1.92 0.66
-4 -12 1 2.93 0.71
4 -12 -1 3.34 0.87
4 12 -1 4.38 0.73
-4 12 1 1.93 0.71
-4 12 1 4.42 1.28
4 12 -1 4.39 0.92
-4 12 1 2.17 0.66
4 12 -1 3.7 0.83
3 -12 -1 -0.22 0.87
-3 -12 1 -0.24 0.52
-3 -12 1 -0.16 0.36
3 -12 -1 -1.08 0.52
-3 -12 1 -0.29 0.77
-3 -12 1 -0.12 0.61
3 -12 -1 -0.2 0.58
-3 12 1 0.25 0.52
-3 12 1 0.78 1.03
3 12 -1 0.59 0.79
3 12 -1 0 0.61
-3 12 1 0.05 0.61
-2 -12 1 0.36 0.56
-2 -12 1 0.9 0.35
-2 -12 1 0.51 0.57
-2 -12 1 0.65 0.79
2 -12 -1 1.15 0.64
2 -12 -1 0.66 0.49
2 -12 -1 1.28 0.92
2 12 -1 1.44 0.55
2 12 -1 1.33 0.84
-2 12 1 0.43 0.38
-2 12 1 0.52 0.83
-2 12 1 0.3 0.46
-2 12 1 0.69 0.65
2 12 -1 0.5 0.56
1 -12 -1 0.83 0.44
-1 -12 1 0.47 0.32
-1 -12 1 0.51 0.51
-1 -12 1 -0.32 0.23
1 -12 -1 -0.18 0.82
-1 -12 1 1 0.57
1 -12 -1 0.07 0.46
1 -12 -1 0.04 0.5
-1 12 1 0.29 0.38
1 12 -1 -0.04 0.51
-1 12 1 -0.49 0.55
-1 12 1 1.09 0.84
1 12 -1 1.11 0.89
1 12 -1 1.41 0.6
-1 12 1 -0.22 0.44
0 -12 1 1.29 0.57
0 -12 1 1.73 0.56
0 -12 -1 1.48 0.4
0 -12 -1 1.55 0.51
0 -12 -1 2.35 0.78
0 -12 1 0.52 0.35
0 12 1 1.46 0.77
0 12 1 1.2 0.36
0 12 -1 1.26 0.67
0 12 -1 1.05 0.5
0 12 1 1.49 0.48
0 12 -1 1.22 0.42
0 12 1 2.13 0.67
0 12 -1 1.72 0.92
1 -12 1 3.1 1.01
1 -12 1 2.3 0.66
-1 -12 -1 3.33 0.62
-1 -12 -1 2.7 0.57
1 -12 1 2.52 0.47
1 12 1 2.3 0.65
1 12 1 2.71 0.59
1 12 1 2.05 0.74
1 12 1 2.98 0.33
-1 12 -1 2.87 0.5
-1 12 -1 1.79 0.68
-1 12 -1 3.67 1.05
-1 12 -1 2.1 0.48
-2 -12 -1 5.38 1
-2 -12 -1 5.36 0.72
2 -12 1 6.24 1.12
2 -12 1 3.91 0.7
-2 -12 -1 5.88 0.54
-2 -12 -1 9.48 1.09
2 -12 1 6.14 0.61
-2 12 -1 6.35 0.93
2 12 1 5.75 0.4
-2 12 -1 5.34 0.61
2 12 1 4.5 0.96
2 12 1 5.51 0.87
-2 12 -1 7.1 1.32
2 12 1 5.75 0.73
3 -12 1 8.37 0.74
3 -12 1 10.71 1.16
3 -12 1 8.63 1.33
-3 -12 -1 8.19 0.86
-3 -12 -1 8.74 1.2
-3 -12 -1 8.55 1.18
-3 -12 -1 8.82 0.64
-3 12 -1 9.81 0.79
-3 12 -1 9.95 1.14
-3 12 -1 5.83 1.17
3 12 1 7.54 1.01
3 12 1 8.16 1.1
4 -12 1 0.67 0.57
-4 -12 -1 1.14 0.91
4 -12 1 0.2 1.02
4 -12 1 0.91 0.7
-4 -12 -1 -0.18 0.53
-4 -12 -1 0.63 0.66
-4 -12 -1 -0.79 0.73
4 12 1 -0.35 0.73
-4 12 -1 -0.53 1.03
-4 12 -1 -0.06 0.67
-4 12 -1 0.11 0.72
4 12 1 -0.1 0.76
4 12 1 0.08 0.67
-5 -12 -1 0.91 0.74
-5 -12 -1 1.72 0.65
-5 -12 -1 1.74 0.87
5 -12 1 1.11 0.68
5 -12 1 1 0.76
-5 -12 -1 -0.62 0.86
5 -12 1 1.6 0.8
5 -12 1 0.21 1.03
5 12 1 0.6 0.9
-5 12 -1 1.06 0.8
5 12 1 1.15 0.66
-5 12 -1 0.67 1.21
-5 12 -1 0.97 0.8
5 12 1 0.44 0.78
-6 -12 -1 -1.69 1.04
-6 -12 -1 -0.66 0.96
-6 -12 -1 0.12 0.78
-6 -12 -1 0.34 0.73
6 -12 1 0.69 0.94
6 -12 1 0.93 1.36
6 -12 1 -0.27 0.83
6 -12 1 -0.05 0.81
-6 12 -1 -0.1 1.34
6 12 1 -0.34 0.71
-6 12 -1 0.28 0.91
-6 12 -1 -0.31 0.87
6 12 1 0.14 0.99
6 12 1 0.62 0.85
7 -12 1 -2.47 1.43
-7 -12 -1 0.33 1.27
7 -12 1 0.58 1
-7 -12 -1 -0.22 0.94
-7 -12 -1 -0.43 0.8
-7 -12 -1 1.16 1.12
7 -12 1 1.55 1.03
7 -12 1 1.58 1.15
-7 12 -1 -0.93 1.07
7 12 1 -0.99 1.18
-7 12 -1 0.62 1.8
-7 12 -1 1.44 1.24
7 12 1 1.79 0.82
7 12 1 0.55 0.93
8 -12 1 -2.73 1.92
8 -12 1 2.23 1.2
8 -12 1 1.7 1.31
-8 -12 -1 -0.05 1.25
-8 -12 -1 -0.7 1.59
-8 -12 -1 -0.25 1.19
8 -12 1 2.16 1.49
-8 12 -1 1.86 1.25
8 12 1 1.85 0.98
-8 12 -1 -0.7 2.15
-8 12 -1 2.05 1.47
-7 -13 1 -0.04 1.36
7 -13 -1 2.31 1.72
7 -13 -1 -0.24 1.18
7 -13 -1 -0.12 1.09
-7 -13 1 -0.85 0.94
7 -13 -1 -1.12 1.25
-7 -13 1 1.41 1.32
7 13 -1 0.11 0.95
-7 13 1 -1.92 1.25
7 13 -1 -1.34 0.7
-7 13 1 2.92 2.07
-6 -13 1 0.24 0.75
-6 -13 1 -0.35 1.18
6 -13 -1 0.18 0.96
-6 -13 1 0.45 1.09
-6 -13 1 -0.68 0.81
6 -13 -1 2.41 1.09
6 -13 -1 -2.25 1.25
6 -13 -1 -1.28 0.9
6 13 -1 0.04 1.13
-6 13 1 1.59 1.86
6 13 -1 -0.88 0.98
-6 13 1 -0.09 1.04
6 13 -1 0.03 0.72
-6 13 1 1.31 1.04
-5 -13 1 0.57 0.63
-5 -13 1 2.53 1.16
-5 -13 1 2.31 0.78
5 -13 -1 1.61 1.42
5 -13 -1 0.71 0.71
-5 -13 1 0.21 0.95
5 -13 -1 1.94 0.93
5 13 -1 2.29 0.32
-5 13 1 2.26 1.54
5 13 -1 1.24 0.95
5 13 -1 1.19 1
-5 13 1 1.32 0.96
-5 13 1 2.97 0.91
5 13 -1 2.42 0.79
-4 -13 1 -1.2 0.98
-4 -13 1 -0.47 0.51
-4 -13 1 -0.72 0.82
4 -13 -1 -0.14 1.04
-4 -13 1 -1.59 0.69
4 -13 -1 -1.36 0.79
4 -13 -1 -0.28 0.74
4 13 -1 0.7 0.75
4 13 -1 0.47 0.88
-4 13 1 -0.19 1.31
4 13 -1 0.01 0.9
-4 13 1 -1.96 0.77
-4 13 1 0.63 0.69
-3 -13 1 0.31 0.69
-3 -13 1 0.29 0.45
-3 -13 1 -1.92 0.88
3 -13 -1 0.15 0.72
3 -13 -1 -0.13 0.65
-3 -13 1 0.84 0.72
3 -13 -1 -0.48 1.12
-3 13 1 0.42 0.62
3 13 -1 -0.41 0.74
3 13 -1 1.17 0.91
-3 13 1 0.25 0.76
-3 13 1 0.66 1.31
3 13 -1 0.89 0.79
2 -13 -1 0.58 0.59
-2 -13 1 -1.1 0.95
2 -13 -1 -1.09 1.02
2 -13 -1 -0.51 0.62
-2 -13 1 -0.18 0.38
-2 -13 1 1.28 0.7
-2 -13 1 0.76 0.69
-2 13 1 1.4 0.54
-2 13 1 -0.36 1.06
-2 13 1 0.48 0.75
-2 13 1 0.43 0.47
2 13 -1 1.07 0.86
2 13 -1 -0.13 0.65
2 13 -1 0.56 0.4
1 -13 -1 0.77 0.61
1 -13 -1 1.91 0.87
-1 -13 1 0.29 0.37
1 -13 -1 0.58 0.5
1 -13 -1 1.68 1.13
-1 -13 1 0.34 0.68
-1 -13 1 0.29 0.9
-1 -13 1 1.77 0.64
1 13 -1 1.7 0.64
1 13 -1 2.24 0.69
1 13 -1 2.21 1.05
-1 13 1 1.89 0.79
1 13 -1 1.08 0.44
-1 13 1 0.17 0.96
-1 13 1 1.36 0.49
-1 13 1 2.11 0.54
0 -13 1 0.13 0.39
0 -13 -1 0.37 0.43
0 -13 1 1.93 0.77
0 -13 -1 0.95 1.06
0 -13 1 1.39 0.65
0 -13 -1 2.52 0.71
0 -13 1 2.07 1.03
0 13 -1 1.42 0.63
0 13 1 2.3 0.6
0 13 -1 1.65 0.71
0 13 1 2.07 0.44
0 13 -1 2.94 0.51
0 13 1 1.51 0.73
0 13 -1 2.51 1.12
0 13 1 2.55 0.93
-1 -13 -1 0.8 0.63
1 -13 1 1.04 0.58
1 -13 1 0.1 0.58
1 -13 1 0.03 1.09
-1 -13 -1 0.29 0.69
-1 -13 -1 1.53 0.93
1 -13 1 0.51 0.49
-1 13 -1 0.76 1.1
1 13 1 1.2 0.94
1 13 1 0.99 0.66
-1 13 -1 0.57 0.53
1 13 1 -0.08 0.33
-1 13 -1 -0.52 0.71
-1 13 -1 -0.26 0.51
-2 -13 -1 5.02 0.58
2 -13 1 4.11 0.83
-2 -13 -1 4.77 0.86
2 -13 1 3.66 1.15
-2 -13 -1 4.12 1.17
-2 -13 -1 6.61 0.95
2 -13 1 4.09 0.65
-2 13 -1 5.77 1.07
2 13 1 4.73 0.43
2 13 1 3.83 1.1
-2 13 -1 6.03 1.44
2 13 1 6.51 1.07
-2 13 -1 5.06 0.7
-3 -13 -1 0.09 0.73
3 -13 1 0.04 0.7
-3 -13 -1 0.55 0.72
-3 -13 -1 0.42 0.56
3 -13 1 -1.17 0.65
3 -13 1 -0.27 1.01
-3 -13 -1 0.1 1.07
-3 13 -1 0.08 0.67
-3 13 -1 -0.16 0.77
-3 13 -1 -0.45 1.06
3 13 1 0.67 0.81
3 13 1 -0.68 0.98
3 13 1 -1.11 0.76
-4 -13 -1 2.97 1.19
-4 -13 -1 3.18 0.98
4 -13 1 0.93 0.67
4 -13 1 3 1.25
4 -13 1 1.62 0.9
-4 -13 -1 2.33 0.66
4 -13 1 1.99 0.83
4 13 1 2.11 0.98
-4 13 -1 2.51 0.82
4 13 1 2.88 0.89
-4 13 -1 3.2 1.48
-4 13 -1 1.66 0.89
4 13 1 2.32 0.98
5 -13 1 -0.01 0.88
-5 -13 -1 -0.19 1.12
-5 -13 -1 0.37 0.81
5 -13 1 0.06 0.97
5 -13 1 0.44 1.44
5 -13 1 1.1 1.55
-5 -13 -1 1.13 1.04
-5 13 -1 1.06 0.95
5 13 1 -0.84 1.08
5 13 1 -0.36 0.93
5 13 1 -0.35 0.76
-5 13 -1 -2.01 0.87
-5 13 -1 1.16 1.57
-6 -13 -1 -2.42 1.26
6 -13 1 -1.43 1.75
-6 -13 -1 -0.9 1.16
-6 -13 -1 -0.14 0.9
6 -13 1 -1.01 1.05
-6 -13 -1 1.02 1
6 -13 1 2.27 1.15
6 13 1 -0.58 1.22
6 13 1 -1.16 0.83
-6 13 -1 -0.61 1.05
6 13 1 -0.36 1.01
-6 13 -1 1.93 1.64
-6 13 -1 0.92 1.29
7 -13 1 4.02 1.45
-7 -13 -1 -0.11 1.11
7 -13 1 1.25 1.17
7 -13 1 -0.78 1.04
-7 -13 -1 -0.21 1.47
-7 -13 -1 0.57 1.45
-7 13 -1 1.15 1.3
-7 13 -1 -0.89 1.84
7 13 1 0.69 1.11
6 -14 -1 3.24 1.62
6 -14 -1 -1.02 1.25
6 -14 -1 -0.88 1.14
-6 -14 1 1.15 1.51
-6 -14 1 0.5 1.37
6 -14 -1 0.11 1.18
-6 -14 1 0.59 0.92
-6 14 1 -0.44 1.21
6 14 -1 0.18 1.17
6 14 -1 -0.99 0.85
-6 14 1 -2.17 1.93
-5 -14 1 -2.11 1.42
-5 -14 1 0.46 0.94
5 -14 -1 -2.03 1.01
-5 -14 1 -0.92 1.05
5 -14 -1 1.39 1
5 -14 -1 -1.37 1.44
-5 -14 1 1.4 0.75
-5 14 1 -0.91 1.7
5 14 -1 -0.01 1.22
-5 14 1 -1.08 0.99
5 14 -1 1.35 1.27
-5 14 1 -2.66 1.1
5 14 -1 -0.87 0.81
4 -14 -1 0.98 1.06
-4 -14 1 -1.37 0.99
-4 -14 1 -1.34 1.19
-4 -14 1 -0.52 0.61
4 -14 -1 -1.3 0.87
4 -14 -1 -0.97 1.54
-4 -14 1 0.54 0.88
4 14 -1 0.02 0.34
-4 14 1 0.77 1.59
-4 14 1 0.5 0.85
4 14 -1 0.13 0.35
4 14 -1 -1.14 0.73
4 14 -1 -0.35 1.04
-4 14 1 -0.05 1.06
4 14 -1 -1.65 1.1
3 -14 -1 -1.15 0.79
-3 -14 1 0.53 0.53
3 -14 -1 -1.1 0.77
-3 -14 1 0.63 1.18
3 -14 -1 0.04 1.43
-3 -14 1 0.44 0.94
-3 -14 1 -0.22 0.87
-3 14 1 -0.6 0.84
-3 14 1 2.55 1.47
3 14 -1 -0.75 0.76
3 14 -1 -1.63 1.02
3 14 -1 -0.01 0.41
-3 14 1 -0.2 1.39
3 14 -1 -0.36 0.94
2 -14 -1 0.27 0.68
2 -14 -1 -0.66 0.63
2 -14 -1 0.86 0.94
-2 -14 1 0.07 0.46
-2 -14 1 -0.5 0.84
-2 -14 1 -0.7 1.14
2 -14 -1 1.38 1.28
-2 -14 1 -0.4 0.87
-2 14 1 -0.34 0.57
2 14 -1 -0.23 0.45
-2 14 1 -1.05 0.9
2 14 -1 -0.55 1.25
-2 14 1 0.96 0.62
-2 14 1 -0.87 1.29
2 14 -1 0.33 1.09
2 14 -1 -0.11 0.85
1 -14 -1 0.46 0.73
-1 -14 1 0.01 1.11
-1 -14 1 0.15 0.74
1 -14 -1 -0.91 1.27
1 -14 -1 0.46 0.83
1 -14 -1 0.3 0.6
-1 -14 1 -0.37 1.44
-1 -14 1 -0.15 0.43
-1 14 1 0.22 0.53
1 14 -1 0.3 0.51
-1 14 1 0.33 0.81
-1 14 1 -0.86 1.11
1 14 -1 1.02 1.02
-1 14 1 -0.75 0.64
1 14 -1 1.26 0.77
0 -14 -1 2.35 0.88
0 -14 1 0.01 0.45
0 -14 1 1.47 1.23
0 -14 -1 -0.3 0.49
0 -14 -1 2.61 0.75
0 -14 -1 2.1 1.37
0 -14 1 2.4 1.01
0 -14 1 1.25 0.77
0 14 -1 1.71 0.59
0 14 1 -0.01 1.1
0 14 1 3.19 0.94
0 14 -1 1.07 0.83
0 14 -1 2.97 1.2
0 14 1 2.11 0.51
0 14 1 1.45 0.74
0 14 -1 2.61 0.75
1 -14 1 0.38 1.26
-1 -14 -1 0.16 0.83
1 -14 1 1.07 0.81
-1 -14 -1 0.75 0.86
1 -14 1 -0.34 0.6
-1 -14 -1 0.98 1.25
-1 -14 -1 0.63 0.57
1 -14 1 -0.35 0.76
1 14 1 0.64 0.41
-1 14 -1 1.62 0.92
-1 14 -1 3.37 1.54
-1 14 -1 -0.15 0.65
-1 14 -1 0.35 0.61
1 14 1 0.53 0.92
1 14 1 -0.03 1.16
-2 -14 -1 -0.23 0.58
-2 -14 -1 2.11 0.93
2 -14 1 -0.14 1.34
-2 -14 -1 -0.19 0.83
2 -14 1 0.47 0.81
-2 -14 -1 -1.3 1.12
2 -14 1 -0.24 0.67
2 14 1 -0.51 0.83
-2 14 -1 1.72 1.45
2 14 1 0.8 0.9
-2 14 -1 -1.63 0.84
2 14 1 -0.25 1.06
-3 -14 -1 1.03 0.96
-3 -14 -1 1.57 0.92
-3 -14 -1 2.37 1.44
3 -14 1 2.43 0.96
-3 -14 -1 0.32 0.67
3 -14 1 3.55 1.62
3 -14 1 0.83 0.82
-3 14 -1 0.18 0.78
3 14 1 -0.34 0.86
-3 14 -1 0.99 1.04
-3 14 -1 -0.55 1.61
3 14 1 0.2 0.99
3 14 1 0.86 1.18
4 -14 1 2.01 1.46
-4 -14 -1 0.57 0.78
4 -14 1 0.89 1
-4 -14 -1 -1.68 1.34
-4 -14 -1 -0.58 1.02
-4 -14 -1 -0.14 0.93
4 -14 1 1.33 0.98
4 -14 1 -0.44 0.78
-4 14 -1 0.59 1.59
-4 14 -1 0.96 0.93
4 14 1 -0.1 1.15
-4 14 -1 0.17 1.09
4 14 1 0.4 1.21
4 14 1 -0.03 0.84
5 -14 1 1.33 1.23
5 -14 1 0.68 1.14
-5 -14 -1 3.51 1.08
-5 -14 -1 1.62 1.52
-5 -14 -1 0.25 0.89
5 -14 1 -2.75 1.62
5 -14 1 -0.49 0.94
-5 -14 -1 1.24 1.22
5 14 1 1.46 1.3
5 14 1 -0.2 0.95
-5 14 -1 -0.11 1.95
-5 14 -1 0.09 1.08
5 14 1 -1.41 1.17
6 -14 1 3.28 1.38
6 -14 1 -0.83 1.27
6 -14 1 3.23 2.05
-6 -14 -1 -0.59 1.03
6 -14 1 1.06 1.41
-6 14 -1 -2.32 1.2
6 14 1 -0.2 1.19
-6 14 -1 1.1 2.18
-4 -15 1 -0.46 0.73
-4 -15 1 -1.14 1.07
4 -15 -1 5.01 2.09
4 -15 -1 0.26 1.1
4 -15 -1 0.67 1.17
-4 -15 1 -0.01 1.21
-4 15 1 1.73 1.92
4 15 -1 -1.87 0.98
-4 15 1 0.7 1.07
4 15 -1 0.17 1.28
4 15 -1 2.56 1.47
3 -15 -1 -0.3 1.82
-3 -15 1 1.64 1.02
-3 -15 1 1.02 0.65
3 -15 -1 -0.99 1.08
3 -15 -1 0.39 1.16
-3 -15 1 -0.45 1.13
-3 15 1 -1.74 1.09
3 15 -1 0.01 0.47
3 15 -1 0.92 1.32
3 15 -1 -0.99 1.09
-3 15 1 1.24 1.62
3 15 -1 1.47 0.97
-3 15 1 -0.17 0.91
-2 -15 1 -0.01 1.04
2 -15 -1 -0.91 1.68
-2 -15 1 -0.85 1.03
2 -15 -1 0.29 0.88
2 -15 -1 -0.65 1.15
-2 -15 1 -1.57 1.45
2 -15 -1 -0.36 0.77
-2 -15 1 0.48 0.56
-2 15 1 0.31 0.71
2 15 -1 -0.46 1.07
2 15 -1 1.78 1.42
2 15 -1 0.35 0.55
-2 15 1 -0.44 1.37
2 15 -1 -1.64 1.06
-2 15 1 0.19 0.79
-2 15 1 -2.08 0.99
-1 -15 1 0.03 0.52
1 -15 -1 0.31 0.72
1 -15 -1 1.99 0.9
1 -15 -1 -0.87 1.01
-1 -15 1 0.94 1.35
-1 -15 1 1.12 0.93
-1 -15 1 0.61 0.91
1 -15 -1 -0.03 1.57
1 15 -1 0.03 1
-1 15 1 1.08 0.69
1 15 -1 -1.37 1.21
1 15 -1 -0.43 0.98
-1 15 1 0.04 1.29
1 15 -1 0.98 0.61
0 -15 -1 1.38 1.53
0 -15 1 0.06 0.52
0 -15 1 0.07 0.51
0 -15 1 -1.1 1.44
0 -15 -1 0.1 0.97
0 -15 -1 0.41 0.58
0 -15 1 0.43 0.94
0 -15 1 0.22 0.96
0 -15 -1 0.42 0.94
0 15 1 -0.72 1.24
0 15 -1 2.02 1.54
0 15 -1 -1.05 0.99
0 15 1 1 0.99
0 15 1 -0.34 0.58
0 15 -1 -0.01 0.66
1 -15 1 -2.03 0.97
-1 -15 -1 -0.09 0.67
1 -15 1 1.13 0.87
-1 -15 -1 -1.13 1.44
-1 -15 -1 -0.01 1
1 -15 1 -0.13 1.44
1 -15 1 0.19 0.68
-1 -15 -1 2.8 1.12
1 15 1 0.85 0.45
-1 15 -1 0.56 0.76
1 15 1 1.46 1.07
1 15 1 0.54 0.96
-1 15 -1 1.06 1.16
-1 15 -1 1.18 1.42
-1 15 -1 1.72 0.85
1 15 1 1.72 1.41
2 -15 1 -1.22 1.53
-2 -15 -1 0.25 0.72
2 -15 1 0.63 1.05
-2 -15 -1 1.3 1.1
2 -15 1 -1.04 0.87
2 -15 1 0.32 0.82
-2 15 -1 0.4 0.83
2 15 1 3.91 1.21
-2 15 -1 -1.29 1.09
2 15 1 0.59 1.44
-2 15 -1 -1.09 1.59
2 15 1 0.49 1.08
-3 -15 -1 0.81 0.79
-3 -15 -1 -0.52 1.14
3 -15 1 2.73 1.25
3 -15 1 0.95 0.98
3 -15 1 -0.11 0.78
3 -15 1 -1.44 2.71
3 15 1 -1.62 1.4
3 15 1 0.9 1.26
-3 15 -1 2.4 1.97
-3 15 -1 0.47 0.94
3 15 1 0.82 1.05
-3 15 -1 -1.82 1.12
4 -15 1 -0.56 1.13
-4 -15 -1 -0.81 1.23
-4 -15 -1 2.07 1.27
-4 -15 -1 0.02 0.98
4 -15 1 -0.1 1.29
4 -15 1 1.9 0.96
4 15 1 -0.28 1.32
4 15 1 0.49 1.42
-4 15 -1 1.29 1.11
-4 15 -1 2.73 2.11
4 15 1 -2.06 1.98
-2 -16 1 -0.67 1.12
2 -16 -1 0.63 1.03
2 -16 -1 -1.53 1.15
2 -16 -1 0.56 1.36
2 16 -1 -1.79 1.33
-2 16 1 -3.18 1.37
2 16 -1 -0.55 1.29
2 16 -1 0.87 0.72
-2 16 1 -1.78 1.58
1 -16 -1 -0.51 1.07
-1 -16 1 1.58 1.46
-1 -16 1 -1 1.2
1 16 -1 0.23 0.71
1 16 -1 0.58 1.81
-1 16 1 0.89 1.89
-1 16 1 -0.58 0.99
-1 16 1 -0.31 0.78
1 16 -1 0.11 1.22
1 16 -1 -2.18 1.3
-1 16 1 -0.55 1.32
0 -16 1 0.27 1.33
0 -16 -1 1.13 0.84
0 -16 -1 0.16 1.09
0 -16 -1 0.02 1.31
0 -16 1 1.65 1.22
0 16 1 -0.92 1.31
0 16 -1 -0.21 0.81
0 16 -1 1.25 1.11
0 16 -1 -1.28 1.76
0 16 1 -0.11 0.66
0 16 -1 -1.65 1.29
0 16 1 0.88 1.64
0 16 1 1.66 1.14
-1 -16 -1 2.24 1.41
-1 -16 -1 -0.1 0.82
1 -16 1 1.13 1.31
-1 -16 -1 0.97 1.28
1 -16 1 2.93 1.29
1 16 1 1.43 1.81
1 16 1 0.35 1.28
-1 16 -1 1.57 1.39
1 16 1 -1.52 1.19
-1 16 -1 0.35 1.79
-1 16 -1 0.08 0.91
12 0 -2 2.55 1.13
12 0 -2 -0.9 1.03
12 0 -2 0.25 1.02
12 0 -2 1.06 0.89
-11 0 2 -0.43 0.86
11 0 -2 0.4 0.8
11 0 -2 0.18 0.82
11 0 -2 -0.45 0.65
11 0 -2 -0.11 0.85
11 0 -2 -0.63 0.84
10 0 -2 21.71 1.29
-10 0 2 19.92 1.28
10 0 -2 20.32 1.11
10 0 -2 21.89 1.16
10 0 -2 18.97 1.24
10 0 -2 21.3 1.29
10 0 -2 20.58 1.04
9 0 -2 10.02 0.81
9 0 -2 7.43 0.84
9 0 -2 9.41 0.81
-9 0 2 10.26 0.93
9 0 -2 8.29 0.78
9 0 -2 7.11 0.67
9 0 -2 9.04 0.46
9 0 -2 9.4 0.75
8 0 -2 96.16 2.37
-8 0 2 100.86 2.41
8 0 -2 97.82 2.32
8 0 -2 97.8 2.36
8 0 -2 98.09 2.29
8 0 -2 98.72 2.23
8 0 -2 96.91 2.29
-7 0 2 2.38 0.39
7 0 -2 2.83 0.39
-7 0 2 3.01 0.34
7 0 -2 3.67 0.36
7 0 -2 2.69 0.34
7 0 -2 3.28 0.43
7 0 -2 2.59 0.28
7 0 -2 2.49 0.39
6 0 -2 37.9 1.01
6 0 -2 38.71 0.96
6 0 -2 39.38 1.05
-6 0 2 36.71 0.97
-6 0 2 39.2 1.01
-6 0 2 38.16 0.92
6 0 -2 37.02 1.01
-6 0 2 38.09 1.08
6 0 -2 38.01 1.07
6 0 -2 38.22 1.06
-5 0 2 1.3 0.16
-5 0 2 1.06 0.17
5 0 -2 1.21 0.19
5 0 -2 1.14 0.22
5 0 -2 1.29 0.16
-5 0 2 1.21 0.25
5 0 -2 1.16 0.22
-5 0 2 1.39 0.22
5 0 -2 1.33 0.23
5 0 -2 1.41 0.21
4 0 -2 2.65 0.23
4 0 -2 2.66 0.21
4 0 -2 2.72 0.24
-4 0 2 2.66 0.16
4 0 -2 2.79 0.22
4 0 -2 2.52 0.17
-4 0 2 2.51 0.18
-4 0 2 2.53 0.23
4 0 -2 2.13 0.22
-4 0 2 2.57 0.23
4 0 -2 2.41 0.22
3 0 -2 1.86 0.16
-3 0 2 1.94 0.17
3 0 -2 2.31 0.18
-3 0 2 1.7 0.14
-3 0 2 2.04 0.13
-3 0 2 1.44 0.15
3 0 -2 1.79 0.16
3 0 -2 1.98 0.16
3 0 -2 2.29 0.18
3 0 -2 1.9 0.14
2 0 -2 79.45 1.65
2 0 -2 79.45 1.69
2 0 -2 75.49 1.67
2 0 -2 77.74 1.67
-2 0 2 80.36 1.67
-2 0 2 77.18 1.66
2 0 -2 79.58 1.66
-2 0 2 77.3 1.65
-2 0 2 79.75 1.68
1 0 -2 467.84 9.68
1 0 -2 463.17 9.38
-1 0 2 437.49 9.33
-1 0 2 432.15 9.43
-1 0 2 456.05 9.45
1 0 -2 471.06 9.25
1 0 -2 458.96 9.59
0 0 2 4.72 0.24
0 0 2 3.93 0.17
0 0 -2 4.42 0.21
0 0 -2 4.49 0.18
0 0 -2 4.51 0.26
0 0 2 4.27 0.14
1 0 2 85.99 1.8
1 0 2 87.22 1.92
1 0 2 83.42 1.98
-1 0 -2 86.16 1.92
-1 0 -2 85.73 2
1 0 2 87.49 1.74
-1 0 -2 86.48 1.8
-2 0 -2 8.05 0.34
2 0 2 7.45 0.42
2 0 2 7.83 0.35
2 0 2 7.97 0.18
2 0 2 7.73 0.28
-2 0 -2 7.38 0.43
-2 0 -2 7.54 0.28
3 0 2 7.96 0.34
-3 0 -2 8.33 0.35
3 0 2 8.78 0.4
3 0 2 8.15 0.22
-3 0 -2 7.74 0.34
-3 0 -2 8.86 0.53
3 0 2 8.49 0.48
-3 0 -2 8.13 0.38
-4 0 -2 0.01 0.13
4 0 2 0.04 0.09
-4 0 -2 -0.2 0.23
4 0 2 0.05 0.18
-4 0 -2 0.1 0.19
4 0 2 -0.1 0.18
4 0 2 -0.14 0.12
-4 0 -2 -0.07 0.18
-5 0 -2 0.18 0.32
5 0 2 0.18 0.24
5 0 2 -0.16 0.21
5 0 2 0.16 0.19
5 0 2 0.19 0.12
-5 0 -2 0 0.22
-5 0 -2 0.15 0.16
-5 0 -2 0.11 0.24
6 0 2 45.76 1.35
6 0 2 45.72 1.45
-6 0 -2 46.81 1.29
-6 0 -2 44.8 1.33
6 0 2 45.89 1.26
-6 0 -2 47.02 1.27
-6 0 -2 48.12 1.58
6 0 2 45.94 1.07
-7 0 -2 -0.27 0.39
7 0 2 0 0.37
-7 0 -2 0.03 0.42
-7 0 -2 0.26 0.37
7 0 2 -0.15 0.2
7 0 2 -0.39 0.3
-7 0 -2 0.4 0.26
7 0 2 0.07 0.25
8 0 2 13.08 0.76
-8 0 -2 12.26 0.75
-8 0 -2 14.03 0.94
8 0 2 13.56 0.86
-8 0 -2 13.99 1.12
-8 0 -2 12.24 1.03
9 0 2 1.31 0.41
9 0 2 2.44 0.56
-9 0 -2 0.03 0.62
-9 0 -2 1.4 0.65
10 0 2 0 0.77
10 0 2 0.96 0.87
-10 0 -2 -1.23 0.78
-10 0 -2 1.2 0.54
10 0 2 -0.36 0.43
11 0 2 -0.61 1.03
-11 0 -2 0.07 0.74
-11 0 -2 0.5 0.72
11 0 2 0.91 0.53
11 0 2 -0.03 0.63
-11 0 -2 0.31 1
11 0 2 0.32 1.14
-12 0 -2 -1.06 0.7
12 0 2 0.8 0.64
12 0 2 -0.37 1.3
-12 0 -2 -2.05 1.36
12 -1 -2 0.55 1.12
12 -1 -2 1.18 0.83
12 -1 -2 1.11 1.22
12 -1 -2 1.49 1.14
12 1 -2 2.09 1.11
12 1 -2 0.7 1.14
12 1 -2 1.49 1.1
-12 1 2 1.42 1.15
12 1 -2 2.03 1.02
12 1 -2 2.9 0.88
12 1 -2 0.55 0.93
11 -1 -2 4.84 0.96
11 -1 -2 4.86 0.73
11 -1 -2 3.85 0.91
11 -1 -2 4.92 0.92
11 -1 -2 4.71 0.48
11 -1 -2 3.83 0.93
-11 1 2 4.82 0.93
11 1 -2 4.73 0.76
11 1 -2 2.58 0.86
11 1 -2 4.04 0.91
11 1 -2 3.76 0.8
11 1 -2 4.65 0.92
11 1 -2 5.1 0.85
10 -1 -2 6.16 0.79
10 -1 -2 7.82 0.84
10 -1 -2 8.21 0.66
10 -1 -2 6.72 0.58
10 -1 -2 8.76 0.81
10 1 -2 7.76 0.85
10 1 -2 6.62 0.92
10 1 -2 7.5 0.81
10 1 -2 7.37 0.75
10 1 -2 7.52 0.83
10 1 -2 6.43 0.66
-10 1 2 6.43 0.8
9 -1 -2 28.87 1.19
-9 -1 2 32.22 1.23
9 -1 -2 30.45 1
9 -1 -2 31.11 1.29
9 -1 -2 29.5 1.06
9 -1 -2 29.15 1.17
9 1 -2 29.03 1.22
9 1 -2 28.65 1.59
9 1 -2 30.07 1.15
-9 1 2 29.53 0.91
9 1 -2 29.12 1.22
9 1 -2 30.3 1.1
9 1 -2 29.44 1.2
8 -1 -2 2.87 0.5
8 -1 -2 2.63 0.33
-8 -1 2 2.91 0.48
8 -1 -2 2 0.35
8 -1 -2 2.27 0.38
8 -1 -2 2.63 0.44
8 -1 -2 2.23 0.45
-8 1 2 3.02 0.42
8 1 -2 2.66 0.47
8 1 -2 2.97 0.47
-8 1 2 2.64 0.53
8 1 -2 2.2 0.47
-8 1 2 2.71 0.41
8 1 -2 2.79 0.51
8 1 -2 3.22 0.47
-8 1 2 2.8 0.31
8 1 -2 2.18 0.39
7 -1 -2 30.98 1.02
7 -1 -2 30.47 0.91
7 -1 -2 29.88 0.92
7 -1 -2 27.2 0.97
-7 -1 2 29.41 0.98
7 -1 -2 29.31 0.88
7 1 -2 31.34 0.98
7 1 -2 28.91 0.9
7 1 -2 29.02 1.01
-7 1 2 30.88 0.91
-7 1 2 28.88 0.86
7 1 -2 30.23 0.97
7 1 -2 30.04 0.94
-7 1 2 28.49 1.03
-7 1 2 28.21 1.01
6 -1 -2 6.96 0.38
6 -1 -2 5.63 0.56
6 -1 -2 6.82 0.47
6 -1 -2 6.63 0.44
6 -1 -2 6.16 0.39
-6 -1 2 6.55 0.49
6 -1 -2 7.3 0.5
6 1 -2 6.52 0.44
-6 1 2 6.5 0.37
-6 1 2 6.86 0.45
6 1 -2 6.83 0.47
6 1 -2 6.4 0.45
6 1 -2 5.95 0.43
-6 1 2 7.55 0.55
6 1 -2 6.68 0.47
5 -1 -2 35.66 0.96
5 -1 -2 35.62 0.97
5 -1 -2 34.74 1.03
5 -1 -2 35.51 0.91
-5 -1 2 35.47 0.95
5 -1 -2 34.91 0.87
5 -1 -2 35.37 0.95
5 1 -2 34.23 0.94
5 1 -2 34.45 0.91
-5 1 2 34.64 0.93
5 1 -2 34.15 0.92
5 1 -2 35.54 0.97
-5 1 2 35.37 0.91
5 1 -2 36.3 0.94
-5 1 2 34.88 0.97
4 -1 -2 123.81 2.67
4 -1 -2 120.47 2.62
4 -1 -2 121.53 2.55
4 -1 -2 121.81 2.74
4 -1 -2 119.26 2.63
4 -1 -2 117.56 2.59
4 1 -2 121.33 2.62
-4 1 2 122.56 2.64
4 1 -2 123.55 2.64
4 1 -2 119.79 2.6
4 1 -2 121.83 2.62
-4 1 2 121.59 2.6
-4 1 2 126.9 2.66
4 1 -2 121.12 2.6
4 1 -2 120.34 2.58
3 -1 -2 0.56 0.13
3 -1 -2 0.41 0.13
3 -1 -2 0.52 0.09
3 -1 -2 0.67 0.12
-3 -1 2 0.54 0.13
3 -1 -2 0.72 0.16
3 -1 -2 0.6 0.15
3 1 -2 0.46 0.12
3 1 -2 0.72 0.13
3 1 -2 0.49 0.12
3 1 -2 0.52 0.13
3 1 -2 0.51 0.13
3 1 -2 0.5 0.11
-3 1 2 0.4 0.13
-3 1 2 0.46 0.12
-3 1 2 0.74 0.15
-3 1 2 0.63 0.12
2 -1 -2 31.89 0.85
2 -1 -2 32.27 0.75
2 -1 -2 32.67 0.7
2 -1 -2 32.61 0.76
-2 -1 2 31.92 0.75
2 -1 -2 32.9 0.83
-2 -1 2 32.43 0.73
-2 -1 2 31.87 0.72
-2 -1 2 32.35 0.74
2 -1 -2 32.01 0.75
-2 1 2 29.71 0.74
2 1 -2 32.34 0.73
-2 1 2 32.8 0.75
2 1 -2 31.03 0.75
-2 1 2 31.55 0.75
-2 1 2 33.01 0.85
-2 1 2 32.18 0.82
-2 1 2 32.41 0.7
2 1 -2 31.21 0.75
2 1 -2 32.26 0.72
2 1 -2 30.59 0.72
2 1 -2 32.17 0.75
1 -1 -2 14.45 0.47
-1 -1 2 15.21 0.41
-1 -1 2 15 0.39
1 -1 -2 15.33 0.39
1 -1 -2 14.07 0.47
-1 -1 2 14.82 0.35
1 1 -2 15.17 0.41
1 1 -2 15.01 0.38
-1 1 2 14.76 0.46
1 1 -2 14.53 0.47
-1 1 2 15.38 0.48
1 1 -2 14.86 0.38
-1 1 2 15.61 0.39
-1 1 2 15.34 0.38
1 1 -2 14.3 0.36
0 -1 2 0.07 0.07
0 -1 -2 0.32 0.07
0 -1 2 0.22 0.07
0 -1 2 0.32 0.1
0 -1 -2 0.5 0.11
0 -1 -2 0.39 0.11
0 -1 -2 0.52 0.06
0 1 2 0.35 0.07
0 1 -2 0.35 0.08
0 1 -2 0.33 0.12
0 1 2 0.39 0.09
0 1 2 0.54 0.12
-1 -1 -2 36.91 0.98
1 -1 2 33.92 0.93
1 -1 2 34.41 1.02
1 -1 2 35.04 0.8
-1 -1 -2 36.15 0.94
-1 -1 -2 40.82 0.82
1 1 2 35.53 0.83
1 1 2 37.76 0.84
1 1 2 41.72 0.99
-1 1 -2 35.28 0.8
1 1 2 36.79 0.94
-1 1 -2 34.4 0.93
-1 1 -2 35.63 1.04
-2 -1 -2 67.55 1.44
2 -1 2 69.39 1.62
-2 -1 -2 67.6 1.59
2 -1 2 67.06 1.73
-2 -1 -2 67.88 1.47
-2 -1 -2 67 1.65
2 -1 2 68.69 1.46
-2 1 -2 68.01 1.46
2 1 2 66 1.62
2 1 2 67.49 1.58
2 1 2 65.64 1.46
-2 1 -2 67.02 1.73
-2 1 -2 64.03 1.6
2 1 2 67.9 1.51
-3 -1 -2 43.48 1.15
-3 -1 -2 44.69 1.25
3 -1 2 43.37 1.3
-3 -1 -2 43.19 1.02
-3 -1 -2 43.09 1.04
3 -1 2 44.73 1.04
3 -1 2 43.45 1.18
3 1 2 45.04 1.04
-3 1 -2 42.19 1.03
3 1 2 46.15 1.15
-3 1 -2 44.71 1.34
3 1 2 43.43 1.2
-3 1 -2 43.71 0.92
-3 1 -2 42.74 1.05
-3 1 -2 43.63 1.17
4 -1 2 0.41 0.18
4 -1 2 0.38 0.25
-4 -1 -2 0.36 0.15
-4 -1 -2 0.47 0.18
4 -1 2 0.66 0.21
-4 -1 -2 0.18 0.2
-4 -1 -2 0.49 0.28
4 1 2 0.52 0.12
-4 1 -2 0.48 0.31
-4 1 -2 0.46 0.18
-4 1 -2 0.36 0.22
4 1 2 0.36 0.16
-4 1 -2 0.35 0.19
4 1 2 0.47 0.2
4 1 2 0.73 0.21
5 -1 2 53.23 1.31
-5 -1 -2 52.62 1.57
-5 -1 -2 59.13 1.32
-5 -1 -2 52.46 1.4
5 -1 2 51.12 1.59
-5 -1 -2 51.45 1.32
5 -1 2 52.41 1.47
-5 1 -2 50.44 1.33
-5 1 -2 52.77 1.65
5 1 2 50.52 1.47
-5 1 -2 52.49 1.33
5 1 2 51.78 1.4
5 1 2 51.15 1.31
5 1 2 51.21 1.17
-5 1 -2 50.7 1.43
-6 -1 -2 0.26 0.32
-6 -1 -2 0.05 0.28
6 -1 2 0.48 0.34
6 -1 2 0.27 0.31
-6 -1 -2 -0.31 0.35
6 -1 2 0.36 0.23
-6 -1 -2 0.08 0.2
6 1 2 -0.05 0.21
6 1 2 0.04 0.27
6 1 2 0.25 0.18
6 1 2 0.91 0.36
-6 1 -2 0.2 0.33
6 1 2 0.49 0.32
-6 1 -2 0.24 0.4
-6 1 -2 0.02 0.3
-6 1 -2 0.23 0.22
7 -1 2 31.94 1.16
-7 -1 -2 33.22 1.1
-7 -1 -2 33.51 1.34
7 -1 2 32.56 1.3
7 -1 2 31.19 1.1
-7 -1 -2 30.52 1.08
-7 -1 -2 31.43 1.08
-7 1 -2 33.81 1.44
7 1 2 32.38 1.21
-7 1 -2 33.61 1.13
7 1 2 32.7 1.1
-7 1 -2 32.61 1.13
7 1 2 31.8 0.86
7 1 2 32.01 1.09
-8 -1 -2 0.09 0.52
-8 -1 -2 0.07 0.35
-8 -1 -2 0.11 0.48
8 -1 2 -0.44 0.33
-8 -1 -2 -0.19 0.5
8 -1 2 -0.01 0.49
8 -1 2 0.16 0.29
-8 1 -2 -0.23 0.27
-8 1 -2 -0.28 0.51
8 1 2 -0.28 0.27
8 1 2 0.26 0.27
-8 1 -2 -0.03 0.55
-9 -1 -2 1.98 0.43
9 -1 2 0.94 0.54
-9 -1 -2 1.03 0.67
9 -1 2 1.74 0.54
9 -1 2 1.68 0.64
9 1 2 1.36 0.45
-9 1 -2 -0.15 0.65
9 1 2 2.04 0.44
-9 1 -2 1.55 0.64
9 1 2 1.25 0.38
-9 1 -2 2.23 0.47
-10 -1 -2 0.04 0.44
10 -1 2 0.25 0.56
10 -1 2 0.65 0.47
-10 -1 -2 -0.1 0.77
-10 -1 -2 -0.59 0.53
10 -1 2 0.47 0.83
10 1 2 0.47 0.78
-10 1 -2 -0.76 0.82
10 1 2 -0.64 0.48
10 1 2 -0.79 0.39
-10 1 -2 -0.4 0.75
10 1 2 0.82 0.83
11 -1 2 0.71 0.76
11 -1 2 -0.7 1.08
11 -1 2 -0.34 1.06
-11 -1 -2 -0.8 0.94
-11 -1 -2 -1.02 0.65
11 -1 2 0.5 0.55
-11 1 -2 0.37 0.61
11 1 2 0.37 0.55
11 1 2 0.87 0.48
-11 1 -2 -0.43 1.02
11 1 2 -0.22 1.05
11 1 2 0.78 1.11
12 -1 2 0.07 1.18
12 -1 2 -0.6 0.67
-12 -1 -2 1.22 1.35
-12 1 -2 0.96 1.38
-12 1 -2 -1.03 0.79
12 1 2 0.14 1.35
12 1 2 0.25 0.58
12 -2 -2 2.82 1.16
12 -2 -2 1.28 0.75
12 -2 -2 2.92 1.27
12 -2 -2 0.51 0.5
12 -2 -2 0.08 1.31
12 -2 -2 1.97 0.79
-12 2 2 1.61 1.18
12 2 -2 0.52 1.05
12 2 -2 1.8 1.09
12 2 -2 1.29 1.11
12 2 -2 1.42 0.9
12 2 -2 0.33 1
12 2 -2 2.27 0.99
11 -2 -2 1.83 0.92
11 -2 -2 2.18 0.99
11 -2 -2 2.35 0.62
11 -2 -2 2.55 0.84
11 -2 -2 1.49 0.7
11 2 -2 2.56 0.87
-11 2 2 1.42 0.92
11 2 -2 2.34 0.78
11 2 -2 2.92 0.78
11 2 -2 1.37 1.33
11 2 -2 2.49 0.88
11 2 -2 -0.69 0.86
10 -2 -2 1.83 0.73
10 -2 -2 1.46 0.66
10 -2 -2 1.53 0.49
10 -2 -2 2.56 0.46
-10 2 2 2.08 0.4
10 2 -2 2.92 0.62
10 2 -2 2.01 0.66
10 2 -2 1.76 0.63
10 2 -2 1.65 0.68
-10 2 2 1.21 0.71
10 2 -2 1.07 0.58
10 2 -2 1.66 0.64
9 -2 -2 -0.28 0.68
9 -2 -2 0.76 0.36
9 -2 -2 0.96 0.52
9 -2 -2 0.87 0.45
9 -2 -2 0.54 0.3
-9 2 2 1.2 0.6
9 2 -2 0.5 0.45
9 2 -2 0.42 0.48
9 2 -2 1.46 0.52
9 2 -2 0.72 0.49
9 2 -2 0.71 0.46
9 2 -2 0.46 0.52
-9 2 2 0.99 0.34
-9 2 2 0.74 0.44
8 -2 -2 4.34 0.58
8 -2 -2 3.92 0.38
8 -2 -2 3.41 0.59
8 -2 -2 3.55 0.45
8 -2 -2 4.31 0.51
8 2 -2 3.33 0.44
-8 2 2 4.38 0.58
8 2 -2 3.67 0.5
8 2 -2 4.7 0.47
-8 2 2 4.47 0.46
8 2 -2 4.08 0.48
-8 2 2 4.67 0.46
8 2 -2 5.31 0.58
8 2 -2 4.6 0.5
7 -2 -2 0.86 0.25
7 -2 -2 0.85 0.35
7 -2 -2 1.16 0.37
7 -2 -2 1.19 0.24
7 -2 -2 0.48 0.34
-7 2 2 1.04 0.39
7 2 -2 0.98 0.3
-7 2 2 0.97 0.35
7 2 -2 1.52 0.35
-7 2 2 1.1 0.25
7 2 -2 1.35 0.35
-7 2 2 1.15 0.31
7 2 -2 0.92 0.33
7 2 -2 1.33 0.36
7 2 -2 0.66 0.31
6 -2 -2 4.59 0.39
6 -2 -2 5 0.37
6 -2 -2 4.48 0.33
6 -2 -2 5.81 0.43
6 -2 -2 4.69 0.48
6 2 -2 4.03 0.35
-6 2 2 3.8 0.36
-6 2 2 3.71 0.34
6 2 -2 4.41 0.35
-6 2 2 4.63 0.5
-6 2 2 5.16 0.43
6 2 -2 4.52 0.34
6 2 -2 5.41 0.44
6 2 -2 5.48 0.45
6 2 -2 5.17 0.46
5 -2 -2 6.61 0.43
5 -2 -2 5.67 0.46
5 -2 -2 5.48 0.27
5 -2 -2 5.79 0.37
-5 2 2 5.87 0.5
5 2 -2 5.98 0.37
5 2 -2 5.76 0.4
-5 2 2 5.66 0.38
5 2 -2 5.99 0.39
-5 2 2 5.65 0.37
5 2 -2 5.61 0.4
-5 2 2 6.67 0.45
5 2 -2 6.52 0.39
5 2 -2 5.08 0.36
4 -2 -2 4.91 0.33
4 -2 -2 5.04 0.36
4 -2 -2 4.8 0.21
4 -2 -2 5.47 0.43
4 -2 -2 5.01 0.32
-4 2 2 4.5 0.32
-4 2 2 4.64 0.41
4 2 -2 4.41 0.31
-4 2 2 4.65 0.36
4 2 -2 4.68 0.27
4 2 -2 4.41 0.31
4 2 -2 5.02 0.34
4 2 -2 4.86 0.29
4 2 -2 4.79 0.31
-4 2 2 4.54 0.31
3 -2 -2 28.79 0.83
3 -2 -2 28.87 0.62
3 -2 -2 28.99 0.74
3 -2 -2 30.21 0.92
-3 -2 2 27.52 0.74
3 -2 -2 28.45 0.74
3 2 -2 28.45 0.69
3 2 -2 27.71 0.72
3 2 -2 27.9 0.73
-3 2 2 27.95 0.72
-3 2 2 28.59 0.89
3 2 -2 27.81 0.74
-3 2 2 28.12 0.82
-3 2 2 28.54 0.74
3 2 -2 29.05 0.67
-2 -2 2 6.62 0.2
-2 -2 2 6.55 0.28
2 -2 -2 6.53 0.28
-2 -2 2 6.35 0.25
2 -2 -2 6.25 0.34
2 -2 -2 6.83 0.27
2 -2 -2 6.54 0.38
-2 -2 2 6.63 0.3
2 2 -2 6.91 0.21
2 2 -2 6.83 0.28
2 2 -2 6.74 0.21
-2 2 2 6.56 0.17
-2 2 2 6.51 0.28
2 2 -2 6.64 0.25
-2 2 2 6.82 0.33
2 2 -2 6.65 0.31
-2 2 2 6.44 0.38
-2 2 2 7.31 0.28
2 2 -2 6.31 0.24
-1 -2 2 531.45 10.99
-1 -2 2 540.04 11.32
-1 -2 2 540.96 10.97
-1 -2 2 534.02 10.82
1 -2 -2 530.39 10.94
-1 -2 2 544.08 11.27
1 -2 -2 512.85 10.82
1 -2 -2 539.86 10.85
1 -2 -2 528.6 11.19
-1 2 2 551.74 10.96
1 2 -2 515.22 10.95
1 2 -2 524.29 10.86
-1 2 2 517.51 10.72
1 2 -2 537.29 11.08
1 2 -2 541.57 10.75
-1 2 2 501.95 10.92
-1 2 2 531.73 11.04
1 2 -2 520.14 10.84
0 -2 -2 360.6 7.19
0 -2 2 333.8 7.23
0 -2 -2 335.94 7.27
0 -2 -2 368.68 7.33
0 -2 2 350.65 7.21
0 -2 -2 332.86 7.28
0 2 -2 355.97 7.1
0 2 -2 354.6 7.24
0 2 2 356.14 7.28
0 2 -2 349.36 7.34
0 2 2 352.77 7.16
0 2 2 346.76 7.09
0 2 2 345.08 7.29
1 -2 2 282.85 5.97
-1 -2 -2 284.63 5.85
-1 -2 -2 281.07 5.73
-1 -2 -2 268.24 5.85
-1 -2 -2 282.15 5.68
1 -2 2 280.02 5.66
1 -2 2 274.55 5.83
1 2 2 266.78 5.64
-1 2 -2 281.25 5.83
-1 2 -2 276.53 5.66
1 2 2 277 5.83
-1 2 -2 262.65 5.94
1 2 2 279.71 5.67
1 2 2 278.43 5.84
2 -2 2 8.67 0.5
-2 -2 -2 8.02 0.34
2 -2 2 7.75 0.28
-2 -2 -2 8.12 0.4
-2 -2 -2 7.61 0.3
2 -2 2 7.8 0.41
-2 -2 -2 8.25 0.25
2 2 2 8.32 0.39
-2 2 -2 8.21 0.54
-2 2 -2 7.82 0.29
-2 2 -2 7.88 0.4
2 2 2 7.77 0.32
2 2 2 8.1 0.4
-3 -2 -2 38.68 0.96
3 -2 2 40.52 1.28
3 -2 2 38.89 1.14
-3 -2 -2 39.35 0.91
-3 -2 -2 40 1.09
3 -2 2 39.59 0.95
-3 -2 -2 38.82 1.15
-3 2 -2 39.05 0.86
3 2 2 38.56 1.11
-3 2 -2 39.01 1.29
-3 2 -2 38.44 1.12
3 2 2 41.26 1.02
-3 2 -2 39.17 0.95
3 2 2 39.78 0.96
-3 2 -2 38.53 0.98
3 2 2 38.79 1.06
-4 -2 -2 9.74 0.61
4 -2 2 9.24 0.52
-4 -2 -2 9.32 0.47
4 -2 2 8.81 0.43
-4 -2 -2 8.94 0.44
4 -2 2 8.91 0.66
-4 -2 -2 9.42 0.4
4 2 2 9.23 0.44
4 2 2 9.17 0.5
-4 2 -2 9.05 0.49
-4 2 -2 9.41 0.72
4 2 2 9.31 0.48
-4 2 -2 9.59 0.3
4 2 2 9.27 0.46
-4 2 -2 9.73 0.47
-4 2 -2 9.36 0.45
-5 -2 -2 8.82 0.48
5 -2 2 8.79 0.68
5 -2 2 9.57 0.51
-5 -2 -2 8.93 0.51
-5 -2 -2 9.71 0.66
-5 -2 -2 10.65 0.55
5 -2 2 9.24 0.56
-5 2 -2 9.08 0.54
-5 2 -2 9.73 0.57
5 2 2 9.51 0.52
5 2 2 8.72 0.53
5 2 2 9.82 0.49
5 2 2 9.08 0.5
-5 2 -2 8.91 0.33
5 2 2 9.75 0.39
-5 2 -2 9.15 0.53
-5 2 -2 9.37 0.78
-6 -2 -2 4.65 0.4
6 -2 2 5.61 0.54
-6 -2 -2 5.15 0.46
6 -2 2 5.72 0.51
-6 -2 -2 5.37 0.48
6 -2 2 6.18 0.67
-6 -2 -2 6.11 0.69
-6 2 -2 4.83 0.51
6 2 2 5.92 0.44
-6 2 -2 5.69 0.79
6 2 2 6.25 0.48
6 2 2 5.71 0.51
6 2 2 5.76 0.58
-6 2 -2 5.32 0.33
6 2 2 5.27 0.37
-6 2 -2 4.95 0.46
7 -2 2 2.47 0.42
-7 -2 -2 1.64 0.49
-7 -2 -2 1.8 0.48
-7 -2 -2 2.81 0.4
-7 -2 -2 2.24 0.4
7 -2 2 2.76 0.56
7 -2 2 2.82 0.48
7 2 2 2.63 0.46
-7 2 -2 2.9 0.65
7 2 2 2.32 0.29
-7 2 -2 2.5 0.48
7 2 2 2.39 0.49
7 2 2 3.18 0.42
7 2 2 2.04 0.35
-7 2 -2 2.27 0.43
-8 -2 -2 3.45 0.6
-8 -2 -2 2.45 0.52
-8 -2 -2 3.52 0.46
8 -2 2 3.44 0.62
8 -2 2 3.47 0.52
8 -2 2 3.46 0.6
8 2 2 3.48 0.37
-8 2 -2 3.41 0.53
-8 2 -2 3.73 0.64
8 2 2 4.72 0.64
-8 2 -2 3.68 0.8
8 2 2 3.71 0.46
-9 -2 -2 0.07 0.38
-9 -2 -2 -0.46 0.57
-9 -2 -2 -0.86 0.45
-9 -2 -2 0.58 0.69
9 -2 2 -0.14 0.64
9 -2 2 -0.15 0.38
9 -2 2 0.46 0.56
9 2 2 0.67 0.39
-9 2 -2 0.25 0.69
-9 2 -2 0.33 0.42
-9 2 -2 0.44 0.67
9 2 2 0.25 0.39
9 2 2 0.02 0.34
9 2 2 0.27 0.66
10 -2 2 1.32 0.58
-10 -2 -2 0.89 0.73
10 -2 2 1.12 0.86
10 -2 2 3.68 0.78
-10 -2 -2 1.39 0.85
10 2 2 1.81 0.87
-10 2 -2 1.33 0.56
10 2 2 1.83 0.49
-10 2 -2 0.12 0.85
10 2 2 1.4 0.83
10 2 2 1.46 0.5
-10 2 -2 2.61 0.93
11 -2 2 0.38 0.68
11 -2 2 -0.75 0.72
-11 -2 -2 -1.14 0.94
11 -2 2 0.41 1.06
11 2 2 0.12 0.45
-11 2 -2 -1.25 1.07
11 2 2 0.07 0.52
11 2 2 1.7 1.18
-11 2 -2 1.48 0.66
-11 2 -2 -0.8 1.03
11 2 2 0.01 1.06
-12 2 -2 1.72 1.47
12 -3 -2 4.06 0.77
12 -3 -2 5.59 0.73
12 -3 -2 5.99 1.37
12 -3 -2 4.72 1.03
12 3 -2 5.49 1.19
12 3 -2 3.99 1.19
12 3 -2 6.63 1.13
-12 3 2 5.25 1.34
12 3 -2 4.33 1
12 3 -2 4.99 1.15
-12 3 2 3.02 0.7
12 3 -2 2.1 1.09
11 -3 -2 3.22 1.01
11 -3 -2 3.2 0.59
11 -3 -2 2.99 0.69
11 -3 -2 2.99 0.57
11 -3 -2 2.47 0.98
-11 3 2 2.24 1.01
11 3 -2 4.64 0.94
11 3 -2 1.99 0.79
11 3 -2 3.9 0.91
11 3 -2 2.81 0.82
11 3 -2 3.22 0.77
11 3 -2 2.94 0.87
10 -3 -2 0.33 0.73
10 -3 -2 0.81 0.5
10 -3 -2 -0.21 0.46
10 -3 -2 0.23 0.41
10 -3 -2 0.04 0.73
-10 3 2 -0.4 0.56
10 3 -2 0.88 0.62
10 3 -2 -0.61 0.53
-10 3 2 0.55 0.4
10 3 -2 -0.34 0.59
10 3 -2 0.54 0.67
-10 3 2 -0.43 0.61
10 3 -2 0.73 0.69
-10 3 2 1.48 0.76
10 3 -2 0.42 0.69
9 -3 -2 0.35 0.32
9 -3 -2 -0.27 0.31
9 -3 -2 0.12 0.57
9 -3 -2 0.1 0.61
9 -3 -2 -0.35 0.47
9 3 -2 -0.43 0.52
9 3 -2 -0.16 0.46
9 3 -2 -0.38 0.52
9 3 -2 0.57 0.48
9 3 -2 0.17 0.44
-9 3 2 -0.02 0.51
-9 3 2 0.4 0.64
-9 3 2 -0.2 0.33
-9 3 2 -0.32 0.45
9 3 -2 -0.16 0.46
8 -3 -2 6.43 0.7
8 -3 -2 6.84 0.49
8 -3 -2 8.03 0.67
8 -3 -2 6.28 0.7
8 -3 -2 7.39 0.61
8 -3 -2 7.06 0.78
-8 3 2 7.91 0.6
-8 3 2 7.65 0.66
8 3 -2 8.61 0.7
8 3 -2 8.47 0.7
8 3 -2 7.4 0.67
8 3 -2 8.62 0.76
-8 3 2 7.44 0.79
8 3 -2 8.11 0.68
8 3 -2 7.56 0.73
-8 3 2 6.87 0.65
7 -3 -2 3.95 0.43
7 -3 -2 3.03 0.27
7 -3 -2 4 0.59
7 -3 -2 2.37 0.4
7 -3 -2 3.2 0.44
7 3 -2 3.61 0.39
7 3 -2 3.55 0.37
-7 3 2 3.43 0.46
7 3 -2 3.49 0.4
7 3 -2 3.43 0.44
-7 3 2 3.34 0.42
7 3 -2 3.7 0.41
7 3 -2 3.03 0.44
-7 3 2 3.82 0.39
-7 3 2 3.54 0.54
6 -3 -2 0.85 0.32
6 -3 -2 0.35 0.15
6 -3 -2 0.05 0.28
6 -3 -2 0.21 0.29
6 -3 -2 0.49 0.22
6 3 -2 0.61 0.29
-6 3 2 0.35 0.31
-6 3 2 0.4 0.33
-6 3 2 0.92 0.28
6 3 -2 0.51 0.23
6 3 -2 0.67 0.26
6 3 -2 0.87 0.28
6 3 -2 0.57 0.25
6 3 -2 0.67 0.27
-6 3 2 0.56 0.23
5 -3 -2 61.16 1.65
5 -3 -2 61.26 1.32
5 -3 -2 61.8 1.79
5 -3 -2 62 1.52
5 -3 -2 59.49 1.5
-5 -3 2 63.54 1.46
-5 3 2 62.28 1.63
5 3 -2 62.08 1.47
-5 3 2 59.48 1.46
5 3 -2 61.94 1.4
-5 3 2 57.06 1.74
5 3 -2 60.46 1.46
5 3 -2 62.11 1.52
5 3 -2 62.83 1.45
-5 3 2 63.89 1.54
5 3 -2 63.89 1.54
-4 -3 2 32.42 0.81
4 -3 -2 32.25 0.68
4 -3 -2 31.7 0.99
4 -3 -2 30.97 0.87
4 -3 -2 31.45 0.88
4 -3 -2 32.15 1.11
-4 -3 2 31.29 0.89
4 3 -2 31.85 0.82
4 3 -2 31.17 0.75
-4 3 2 31.21 1.09
4 3 -2 32.05 0.89
4 3 -2 31.33 0.86
-4 3 2 30.54 0.84
4 3 -2 31.03 0.8
4 3 -2 32.18 0.75
-4 3 2 30.98 0.88
-4 3 2 32.14 0.99
3 -3 -2 92.79 2.22
-3 -3 2 91.91 2.06
3 -3 -2 91.98 2.31
3 -3 -2 93.24 2.02
-3 -3 2 90.8 1.95
-3 -3 2 93.1 2.03
3 -3 -2 88.27 2.01
3 3 -2 92.98 1.95
3 3 -2 90.48 2.04
3 3 -2 93.01 1.91
-3 3 2 92.92 2.3
-3 3 2 90.11 2.19
3 3 -2 87.27 2
-3 3 2 93.42 2.03
3 3 -2 94.58 2.06
-2 -3 2 72.62 1.61
-2 -3 2 69.96 1.63
-2 -3 2 71.82 1.47
2 -3 -2 73.69 1.57
-2 -3 2 71.85 1.58
-2 -3 2 72.69 1.72
2 -3 -2 70.03 1.84
-2 -3 2 72.33 1.5
2 -3 -2 71.29 1.58
2 -3 -2 70.54 1.77
2 3 -2 72.35 1.64
2 3 -2 72.49 1.72
-2 3 2 69.56 1.76
-2 3 2 69.74 1.83
2 3 -2 72.22 1.5
2 3 -2 72.76 1.48
-2 3 2 70.43 1.56
2 3 -2 71.79 1.57
2 3 -2 69.66 1.59
1 -3 -2 4.71 0.38
1 -3 -2 5.1 0.25
-1 -3 2 5.57 0.27
1 -3 -2 5.64 0.21
-1 -3 2 4.71 0.35
-1 -3 2 5.34 0.3
1 -3 -2 5.51 0.34
-1 -3 2 6.28 0.19
-1 3 2 5.21 0.34
1 3 -2 4.94 0.29
1 3 -2 5.28 0.39
1 3 -2 5.58 0.26
-1 3 2 4.88 0.39
-1 3 2 5.45 0.21
-1 3 2 5.48 0.24
0 -3 -2 1.54 0.14
0 -3 2 1.42 0.15
0 -3 -2 1.79 0.27
0 -3 -2 1.3 0.13
0 -3 2 1.15 0.17
0 -3 2 1.31 0.07
0 -3 2 0.98 0.21
0 -3 -2 1.41 0.23
0 -3 -2 1.4 0.09
0 3 -2 1.58 0.22
0 3 2 1.37 0.21
0 3 -2 1.11 0.12
0 3 2 1.42 0.24
0 3 -2 1.65 0.28
0 3 2 1.25 0.12
1 -3 2 38.61 0.89
-1 -3 -2 37.86 1.09
-1 -3 -2 41.27 0.89
1 -3 2 37.29 1.08
-1 -3 -2 37.7 0.92
1 -3 2 39.15 0.85
-1 -3 -2 39.27 1.12
1 -3 2 38.82 1.22
-1 3 -2 39.12 1.23
1 3 2 39.19 0.91
1 3 2 38.97 1.1
1 3 2 38.76 1.09
1 3 2 39.65 0.88
-1 3 -2 37.99 1.09
-2 -3 -2 1.32 0.16
2 -3 2 1.56 0.15
-2 -3 -2 1.39 0.22
2 -3 2 1.61 0.26
-2 -3 -2 1.44 0.23
2 -3 2 1.51 0.31
-2 -3 -2 1.55 0.12
-2 -3 -2 1.35 0.19
-2 3 -2 1.59 0.36
2 3 2 1.48 0.16
-2 3 -2 1.18 0.22
2 3 2 1.37 0.17
2 3 2 1.65 0.25
2 3 2 1.17 0.19
-3 -3 -2 15.75 0.57
3 -3 2 15.47 0.5
-3 -3 -2 15.74 0.52
-3 -3 -2 16.14 0.65
-3 -3 -2 15.91 0.44
3 -3 2 16.71 0.84
3 -3 2 16.25 0.69
3 3 2 15.18 0.55
-3 3 -2 16.25 0.86
3 3 2 15.7 0.62
-3 3 -2 16.74 0.68
3 3 2 15.58 0.63
4 -3 2 4.75 0.58
4 -3 2 5.7 0.37
-4 -3 -2 5.39 0.53
-4 -3 -2 5.56 0.32
-4 -3 -2 5.53 0.41
-4 -3 -2 5.65 0.4
4 -3 2 5.85 0.46
-4 3 -2 5.93 0.45
4 3 2 5.53 0.43
4 3 2 5.59 0.4
-4 3 -2 5.53 0.67
4 3 2 5.69 0.42
-4 3 -2 5.25 0.45
4 3 2 5.54 0.39
-4 3 -2 5.33 0.28
-5 -3 -2 0.31 0.2
5 -3 2 -0.09 0.31
-5 -3 -2 0.22 0.22
5 -3 2 0.1 0.24
-5 -3 -2 0.27 0.26
5 -3 2 0.38 0.21
-5 -3 -2 0.26 0.31
-5 3 -2 -0.04 0.2
5 3 2 -0.27 0.25
-5 3 -2 0.39 0.28
5 3 2 0.1 0.22
-5 3 -2 0.02 0.15
5 3 2 -0.31 0.24
-5 3 -2 -0.14 0.4
5 3 2 0.03 0.18
-6 -3 -2 0.88 0.28
-6 -3 -2 0.8 0.41
-6 -3 -2 0.92 0.36
6 -3 2 0.9 0.42
6 -3 2 1 0.35
6 -3 2 0.81 0.3
-6 -3 -2 0.77 0.3
6 3 2 1.14 0.27
-6 3 -2 1.41 0.37
-6 3 -2 1.18 0.29
6 3 2 1.19 0.36
6 3 2 0.64 0.24
6 3 2 0.89 0.34
-6 3 -2 0.65 0.2
6 3 2 0.87 0.31
-6 3 -2 0.77 0.5
-7 -3 -2 1.67 0.39
-7 -3 -2 1.49 0.35
-7 -3 -2 1.84 0.49
7 -3 2 1.73 0.52
7 -3 2 1.97 0.45
7 -3 2 2.08 0.45
-7 3 -2 1.43 0.6
-7 3 -2 1.48 0.25
7 3 2 2.21 0.33
7 3 2 1.78 0.3
-7 3 -2 2 0.41
7 3 2 2.29 0.35
-7 3 -2 1.36 0.46
7 3 2 1.99 0.43
7 3 2 1.5 0.58
-8 -3 -2 0.24 0.57
8 -3 2 -0.15 0.48
-8 -3 -2 -0.08 0.34
8 -3 2 0.45 0.38
8 -3 2 0.19 0.52
-8 -3 -2 0.31 0.48
8 3 2 0.66 0.3
-8 3 -2 -0.22 0.64
8 3 2 0.63 0.33
8 3 2 0.6 0.52
8 3 2 0.22 0.35
-8 3 -2 0.94 0.4
-8 3 -2 0.25 0.51
-9 -3 -2 0.7 0.5
-9 -3 -2 0.08 0.57
9 -3 2 0.64 0.45
9 -3 2 0.11 0.7
-9 -3 -2 0.4 0.43
9 -3 2 -0.83 0.63
-9 -3 -2 -0.28 0.72
-9 3 -2 0.34 0.76
9 3 2 0.27 0.41
9 3 2 -0.3 0.33
9 3 2 -0.28 0.64
-9 3 -2 0.09 0.7
-10 -3 -2 0.25 0.73
-10 -3 -2 1.28 0.52
10 -3 2 0.97 0.77
-10 -3 -2 -0.7 0.52
10 -3 2 0.83 0.85
-10 -3 -2 1.27 0.95
10 -3 2 0.59 0.58
-10 3 -2 0 0.86
10 3 2 1.42 0.44
-10 3 -2 1.35 0.6
10 3 2 0.08 0.82
-10 3 -2 0.38 0.9
10 3 2 0.52 0.4
10 3 2 1.12 0.52
10 3 2 -0.29 0.81
11 -3 2 -0.47 0.82
11 -3 2 1.42 0.72
11 -3 2 1.02 1.13
-11 -3 -2 -0.57 0.98
11 3 2 0.19 0.63
-11 3 -2 -0.09 1.22
11 3 2 0.98 0.48
11 3 2 2.33 1.15
-11 3 -2 -1.19 0.7
11 3 2 0.1 0.44
-11 3 -2 1.08 1.12
11 3 2 -1.05 1.13
11 3 2 1.51 1.06
12 -4 -2 1.04 1.37
12 -4 -2 -0.18 0.61
12 -4 -2 0.77 0.85
12 -4 -2 0.83 0.64
12 4 -2 -1.42 1.01
12 4 -2 -0.59 1.01
12 4 -2 -0.9 1.15
-12 4 2 -0.52 1.27
12 4 -2 -0.05 1.15
-12 4 2 -1.1 0.65
12 4 -2 -0.7 1.01
11 -4 -2 0.4 0.7
11 -4 -2 0.82 1.07
11 -4 -2 0.26 0.58
11 -4 -2 0.1 0.48
11 -4 -2 -1.33 0.97
-11 4 2 -0.09 0.51
11 4 -2 -0.21 0.75
11 4 -2 0.53 0.9
11 4 -2 -0.48 0.88
11 4 -2 -1.22 0.83
11 4 -2 0.36 0.77
11 4 -2 1.1 0.84
-11 4 2 1.31 0.81
-11 4 2 1.1 0.75
-11 4 2 0.31 1.04
10 -4 -2 1.67 0.85
10 -4 -2 0.84 0.71
10 -4 -2 -0.45 0.37
10 -4 -2 0.5 0.47
10 -4 -2 1.04 0.64
10 4 -2 -1.02 0.72
10 4 -2 -0.14 0.65
-10 4 2 0.66 0.68
10 4 -2 -0.45 0.67
10 4 -2 2.23 0.67
10 4 -2 -0.5 0.53
-10 4 2 0.09 0.82
-10 4 2 -0.27 0.59
10 4 -2 0.46 0.6
9 -4 -2 3.93 0.38
9 -4 -2 4.11 0.55
9 -4 -2 4.65 0.74
9 -4 -2 3.79 0.74
9 4 -2 4.38 0.61
-9 4 2 4.14 0.56
-9 4 2 4.42 0.57
9 4 -2 4.31 0.62
9 4 -2 4.78 0.58
9 4 -2 4 0.68
-9 4 2 4.33 0.72
9 4 -2 4.46 0.55
9 4 -2 3.7 0.59
8 -4 -2 -0.07 0.51
8 -4 -2 0.24 0.22
8 -4 -2 -0.4 0.48
8 -4 -2 -0.2 0.31
8 -4 -2 -0.29 0.42
8 4 -2 0.4 0.37
-8 4 2 -0.05 0.32
8 4 -2 0.13 0.42
8 4 -2 1.08 0.48
-8 4 2 0.84 0.57
8 4 -2 0.7 0.38
-8 4 2 0.44 0.5
-8 4 2 0.08 0.39
8 4 -2 -0.12 0.46
8 4 -2 -0.43 0.41
7 -4 -2 2.53 0.21
7 -4 -2 2.67 0.44
7 -4 -2 3.21 0.57
7 -4 -2 3.72 0.49
7 -4 -2 2.35 0.48
7 -4 -2 2.29 0.44
7 4 -2 2.46 0.34
7 4 -2 2.54 0.39
7 4 -2 2.26 0.42
7 4 -2 2.57 0.41
7 4 -2 2.79 0.41
-7 4 2 2.07 0.46
-7 4 2 3.2 0.4
-7 4 2 2.57 0.53
7 4 -2 2.42 0.36
-7 4 2 3.12 0.43
6 -4 -2 6.05 0.48
6 -4 -2 5.85 0.24
-6 -4 2 5.84 0.51
6 -4 -2 7.08 0.55
6 -4 -2 6.78 0.7
6 -4 -2 6.1 0.51
6 4 -2 6.18 0.51
6 4 -2 6.31 0.46
-6 4 2 5.48 0.69
-6 4 2 5.73 0.44
6 4 -2 6.1 0.48
6 4 -2 4.79 0.45
6 4 -2 5.89 0.5
-6 4 2 5.92 0.49
6 4 -2 6.33 0.42
-6 4 2 6.48 0.57
-5 -4 2 0.21 0.24
-5 -4 2 0.09 0.27
5 -4 -2 -0.24 0.23
5 -4 -2 -0.2 0.29
5 -4 -2 0.08 0.19
5 -4 -2 -0.17 0.27
5 4 -2 0.02 0.12
5 4 -2 -0.41 0.19
5 4 -2 0.05 0.2
5 4 -2 0.06 0.25
5 4 -2 0.09 0.2
-5 4 2 -0.02 0.26
-5 4 2 0.31 0.25
-5 4 2 0.01 0.3
-5 4 2 0.24 0.22
5 4 -2 -0.04 0.16
-4 -4 2 12.24 0.45
-4 -4 2 12.52 0.5
4 -4 -2 12.73 0.76
-4 -4 2 11.05 0.44
4 -4 -2 11.55 0.49
4 -4 -2 11.96 0.62
4 -4 -2 12.76 0.54
-4 -4 2 12.25 0.54
4 4 -2 12.55 0.36
-4 4 2 12.02 0.52
4 4 -2 12 0.55
4 4 -2 12.97 0.49
4 4 -2 12.39 0.45
-4 4 2 12.63 0.62
4 4 -2 12.35 0.5
4 4 -2 12.14 0.46
-4 4 2 12.84 0.75
4 4 -2 12.59 0.43
3 -4 -2 1.52 0.19
3 -4 -2 1.81 0.28
-3 -4 2 1.74 0.16
3 -4 -2 1.29 0.29
-3 -4 2 1.87 0.23
3 -4 -2 1.09 0.21
-3 -4 2 2.12 0.28
-3 4 2 1.49 0.25
3 4 -2 1.64 0.13
3 4 -2 1.73 0.2
3 4 -2 1.43 0.22
3 4 -2 1.55 0.15
3 4 -2 1.62 0.21
-3 4 2 1.77 0.22
3 4 -2 1.88 0.27
-3 4 2 1.77 0.35
2 -4 -2 0.74 0.19
2 -4 -2 0.85 0.16
-2 -4 2 1.01 0.18
-2 -4 2 0.71 0.15
2 -4 -2 0.8 0.26
-2 -4 2 0.96 0.1
-2 -4 2 0.76 0.19
-2 -4 2 0.89 0.22
2 -4 -2 0.86 0.14
-2 4 2 0.82 0.15
2 4 -2 0.98 0.18
2 4 -2 0.91 0.24
-2 4 2 1.31 0.34
2 4 -2 0.82 0.18
-2 4 2 0.61 0.2
-1 -4 2 12.16 0.32
-1 -4 2 11.52 0.42
1 -4 -2 11.45 0.34
-1 -4 2 11.34 0.49
1 -4 -2 11.24 0.38
1 -4 -2 11.9 0.61
-1 -4 2 12.29 0.58
-1 -4 2 11.67 0.27
1 -4 -2 11.82 0.56
-1 4 2 11.39 0.38
-1 4 2 10.37 0.6
1 4 -2 11.43 0.62
1 4 -2 11.34 0.41
-1 4 2 11.78 0.35
1 4 -2 11.49 0.49
0 -4 2 3.43 0.31
0 -4 -2 3.66 0.38
0 -4 2 3.31 0.4
0 -4 2 3.37 0.24
0 -4 -2 3.58 0.22
0 -4 -2 3.52 0.22
0 -4 -2 3.21 0.32
0 4 2 3.3 0.15
0 4 -2 3.38 0.43
0 4 2 3.67 0.33
0 4 -2 3.68 0.23
0 4 -2 3.32 0.31
0 4 2 4.03 0.22
0 4 2 2.76 0.38
1 -4 2 67.66 1.47
-1 -4 -2 64.55 1.77
-1 -4 -2 68.62 1.74
1 -4 2 67 1.75
1 -4 2 68.45 1.42
-1 -4 -2 65.34 1.51
-1 -4 -2 67 1.45
1 4 2 67.2 1.44
-1 4 -2 67.22 1.9
1 4 2 66.47 1.76
1 4 2 67.65 1.5
1 4 2 65.02 1.72
2 -4 2 7.76 0.49
2 -4 2 7.7 0.61
-2 -4 -2 8.04 0.52
2 -4 2 7.92 0.32
2 -4 2 8.27 0.32
-2 -4 -2 9.11 0.41
-2 -4 -2 9.04 0.37
-2 -4 -2 8.37 0.48
2 4 2 8.38 0.32
2 4 2 8.36 0.51
-2 4 -2 7.92 0.49
2 4 2 8.13 0.47
2 4 2 8.35 0.36
3 -4 2 4.9 0.43
-3 -4 -2 4.36 0.37
-3 -4 -2 4.91 0.43
-3 -4 -2 4.4 0.34
3 -4 2 4.5 0.32
3 -4 2 5.29 0.56
-3 -4 -2 4.71 0.42
3 4 2 4.66 0.35
-3 4 -2 4.6 0.42
3 4 2 4.79 0.43
3 4 2 3.73 0.36
3 4 2 4.65 0.32
-3 4 -2 4.48 0.58
-4 -4 -2 8.39 0.52
-4 -4 -2 7.84 0.47
4 -4 2 7.83 0.72
-4 -4 -2 8.25 0.34
-4 -4 -2 7.47 0.62
4 -4 2 7.88 0.56
4 -4 2 8.52 0.45
-4 -4 -2 7.92 0.5
-4 4 -2 8.22 0.52
4 4 2 7.98 0.5
4 4 2 8.38 0.51
4 4 2 8.12 0.45
-4 4 -2 7.57 0.77
-4 4 -2 8.29 0.55
5 -4 2 2.75 0.56
5 -4 2 1.68 0.3
5 -4 2 1.73 0.36
-5 -4 -2 1.82 0.34
-5 -4 -2 1.94 0.42
-5 -4 -2 2.23 0.36
-5 -4 -2 1.66 0.24
5 4 2 2.04 0.32
-5 4 -2 2.06 0.56
5 4 2 1.27 0.3
5 4 2 1.91 0.3
-5 4 -2 1.82 0.35
-5 4 -2 1.88 0.24
5 4 2 1.52 0.3
-5 4 -2 1.29 0.34
-6 -4 -2 0.47 0.41
-6 -4 -2 0.62 0.31
-6 -4 -2 0.05 0.25
-6 -4 -2 0.3 0.35
6 -4 2 0.22 0.29
6 -4 2 0.67 0.36
6 -4 2 0.43 0.46
-6 4 -2 0.49 0.28
6 4 2 0.06 0.33
-6 4 -2 0.06 0.51
6 4 2 0.45 0.26
-6 4 -2 -0.04 0.36
6 4 2 -0.2 0.32
6 4 2 0.52 0.25
-6 4 -2 0.07 0.22
7 -4 2 10.04 0.78
-7 -4 -2 8.77 0.65
7 -4 2 8.36 0.95
-7 -4 -2 8.98 0.66
-7 -4 -2 10.47 0.81
7 -4 2 10.45 0.8
-7 4 -2 9.59 1.01
-7 4 -2 9.34 0.52
7 4 2 8.82 0.61
7 4 2 8.89 0.6
-7 4 -2 9.04 0.76
7 4 2 9.64 0.64
-7 4 -2 8.13 0.66
-8 -4 -2 10.96 0.81
-8 -4 -2 10.51 0.8
-8 -4 -2 9.27 0.74
8 -4 2 9.84 0.87
8 -4 2 8.01 0.85
8 -4 2 11.56 1.18
-8 4 -2 9.24 0.8
-8 4 -2 9.41 0.83
-8 4 -2 10.16 1.19
-8 4 -2 9.84 0.59
8 4 2 10.55 0.7
8 4 2 10.11 0.67
8 4 2 11.8 0.8
8 4 2 10.45 0.71
9 -4 2 1.17 0.72
9 -4 2 0 0.43
9 -4 2 0.75 0.73
-9 -4 -2 0.04 0.49
-9 -4 -2 1.42 0.46
-9 -4 -2 1.11 0.74
9 4 2 0.32 0.64
-9 4 -2 -0.74 0.7
9 4 2 -0.03 0.65
-9 4 -2 0.62 0.52
-9 4 -2 1.07 0.85
9 4 2 1.18 0.47
9 4 2 1.12 0.39
9 4 2 0.99 0.39
10 -4 2 0.94 0.89
-10 -4 -2 -0.12 0.9
10 -4 2 -0.9 0.89
10 -4 2 -0.96 0.56
-10 4 -2 -0.42 0.96
10 4 2 -0.58 0.41
10 4 2 0.22 0.85
10 4 2 -1.36 0.85
10 4 2 0.08 0.39
-10 4 -2 0.3 1
10 4 2 1.09 0.58
-10 4 -2 0.31 0.62
11 -4 2 0.46 1.23
11 -4 2 -0.97 0.97
11 -4 2 0.85 0.72
11 4 2 1.27 1.22
-11 4 -2 -0.66 1.25
-11 4 -2 -0.63 0.77
11 4 2 -0.03 0.73
-11 4 -2 -1.19 1.24
11 4 2 -0.3 1.47
12 -5 -2 0.62 0.57
12 -5 -2 0.61 1.45
12 -5 -2 0.92 0.76
12 -5 -2 1.2 1.17
-12 5 2 -0.15 0.76
12 5 -2 1.11 1.26
12 5 -2 2.59 1.07
12 5 -2 1.52 1.98
-12 5 2 0.52 1.01
12 5 -2 0.22 1.11
-12 5 2 -0.05 1.31
12 5 -2 0.76 0.97
11 -5 -2 -0.27 1.06
11 -5 -2 0.72 1.17
11 -5 -2 0.27 0.63
11 -5 -2 0.4 0.84
11 -5 -2 0.28 0.38
11 5 -2 -0.5 0.85
-11 5 2 -0.53 0.62
11 5 -2 -1.21 0.95
-11 5 2 1.23 1.04
11 5 -2 0.09 0.96
-11 5 2 0.6 1.05
11 5 -2 -0.11 0.73
11 5 -2 -0.1 0.75
11 5 -2 0.66 0.92
-11 5 2 -0.78 0.8
10 -5 -2 0.53 0.76
10 -5 -2 -0.09 0.29
10 -5 -2 -0.58 0.84
10 -5 -2 -1.19 0.77
10 -5 -2 0.55 0.52
10 5 -2 -0.15 0.57
10 5 -2 -1.05 0.66
-10 5 2 -1.11 0.79
10 5 -2 1.01 0.69
-10 5 2 0.66 0.86
-10 5 2 1 0.64
10 5 -2 0.44 0.72
10 5 -2 -0.21 0.72
-10 5 2 0.13 0.5
10 5 -2 -0.03 0.57
9 -5 -2 0.84 0.24
9 -5 -2 0.95 0.47
9 -5 -2 2.36 0.75
9 -5 -2 1.72 0.62
9 -5 -2 1.53 0.65
-9 5 2 0.96 0.53
9 5 -2 0.56 0.92
9 5 -2 1.81 0.62
9 5 -2 1.33 0.52
-9 5 2 0.53 0.7
9 5 -2 0.91 0.66
-9 5 2 1.23 0.65
-9 5 2 0.89 0.55
9 5 -2 1.39 0.56
9 5 -2 1.44 0.49
8 -5 -2 5.51 0.78
8 -5 -2 5.4 0.29
8 -5 -2 4.96 0.68
8 -5 -2 5.18 0.68
8 -5 -2 5.43 0.64
-8 5 2 5.52 0.79
-8 5 2 5.75 0.56
8 5 -2 5.37 0.59
8 5 -2 4.79 0.54
8 5 -2 6.35 0.48
8 5 -2 6.21 0.66
-8 5 2 5.36 0.71
8 5 -2 5.99 0.69
8 5 -2 5.85 0.53
-8 5 2 4.54 0.67
7 -5 -2 18.42 0.99
7 -5 -2 20.63 0.93
7 -5 -2 21.08 0.97
-7 -5 2 19.36 0.87
7 -5 -2 20.25 1.19
7 -5 -2 21.44 1.03
7 5 -2 18.74 0.85
-7 5 2 21.03 1.24
7 5 -2 20.63 0.8
7 5 -2 20.84 1
-7 5 2 20.17 0.98
7 5 -2 19.17 0.71
7 5 -2 20.93 0.82
7 5 -2 21.54 0.9
-7 5 2 19.94 0.94
-7 5 2 20.4 0.86
6 -5 -2 4.45 0.47
6 -5 -2 4.68 0.66
6 -5 -2 4.47 0.56
6 -5 -2 4.26 0.44
-6 -5 2 4.23 0.49
-6 -5 2 3.9 0.4
6 5 -2 5.37 0.51
-6 5 2 4.46 0.49
-6 5 2 4.07 0.62
6 5 -2 4.64 0.38
-6 5 2 3.83 0.4
6 5 -2 4.73 0.38
-6 5 2 5.33 0.54
6 5 -2 5.39 0.51
6 5 -2 4.88 0.38
5 -5 -2 1.09 0.34
5 -5 -2 1.18 0.43
5 -5 -2 1.36 0.33
-5 -5 2 1.19 0.21
-5 -5 2 1.14 0.32
-5 -5 2 1 0.26
5 -5 -2 1.18 0.3
-5 -5 2 1.13 0.26
5 5 -2 1.06 0.2
-5 5 2 0.69 0.27
5 5 -2 1.26 0.25
-5 5 2 1.64 0.49
5 5 -2 1.17 0.24
5 5 -2 0.9 0.26
5 5 -2 1.18 0.22
5 5 -2 1.21 0.17
5 5 -2 0.82 0.31
-5 5 2 0.85 0.33
-5 5 2 1.03 0.28
4 -5 -2 0.95 0.36
4 -5 -2 1.23 0.28
4 -5 -2 0.91 0.24
4 -5 -2 1.29 0.31
-4 -5 2 1.15 0.21
-4 -5 2 1.12 0.26
-4 -5 2 0.78 0.25
4 5 -2 1.1 0.19
4 5 -2 1.05 0.27
4 5 -2 1.07 0.2
4 5 -2 1.14 0.22
-4 5 2 1.12 0.26
4 5 -2 0.9 0.26
4 5 -2 1.04 0.11
-4 5 2 1.03 0.27
-4 5 2 0.9 0.35
3 -5 -2 0.09 0.19
3 -5 -2 0.61 0.19
-3 -5 2 0.83 0.22
-3 -5 2 0.44 0.18
-3 -5 2 0.6 0.15
3 -5 -2 0.5 0.23
3 -5 -2 0.46 0.31
-3 -5 2 0.52 0.24
3 5 -2 0.5 0.16
3 5 -2 0.44 0.24
-3 5 2 0.75 0.26
-3 5 2 0.67 0.21
3 5 -2 0.32 0.22
-3 5 2 0.58 0.37
3 5 -2 0.68 0.19
-2 -5 2 18.27 0.46
-2 -5 2 19.29 0.64
2 -5 -2 18.97 0.59
2 -5 -2 18.33 0.79
-2 -5 2 17.79 0.79
-2 -5 2 18.34 0.69
-2 -5 2 18.49 0.59
2 -5 -2 19.32 0.91
-2 5 2 19.43 0.91
-2 5 2 18.35 0.46
-2 5 2 18.03 0.78
2 5 -2 17.77 0.68
2 5 -2 18.67 0.62
2 5 -2 18.55 0.81
-2 5 2 18.26 0.56
-1 -5 2 21.53 0.9
1 -5 -2 22.96 0.62
1 -5 -2 22.28 0.96
1 -5 -2 23.04 0.88
-1 -5 2 22.26 0.67
-1 -5 2 21.06 0.79
-1 -5 2 22.29 0.5
1 5 -2 21.69 0.79
-1 5 2 22.81 0.62
-1 5 2 24.16 0.99
1 5 -2 21.22 0.65
1 5 -2 23.48 0.96
-1 5 2 22.7 0.58
0 -5 -2 28.8 0.74
0 -5 -2 26.13 1.04
0 -5 2 27.41 0.73
0 -5 -2 28.03 0.98
0 -5 2 27.2 0.94
0 -5 -2 27.88 0.69
0 -5 2 26.59 1.06
0 5 2 28.33 0.97
0 5 2 27.29 0.63
0 5 -2 27.21 0.73
0 5 -2 27.16 0.93
0 5 2 27.27 0.68
0 5 -2 27.06 1.1
0 5 2 26.86 1.05
-1 -5 -2 8.24 0.33
-1 -5 -2 8.68 0.59
1 -5 2 8.37 0.35
-1 -5 -2 8.38 0.39
1 -5 2 8.8 0.54
-1 -5 -2 8.18 0.53
1 -5 2 7.79 0.64
-1 5 -2 8 0.51
1 5 2 8.89 0.58
1 5 2 8.59 0.31
1 5 2 8.63 0.51
-1 5 -2 8.53 0.71
-2 -5 -2 5.12 0.33
-2 -5 -2 5.99 0.4
2 -5 2 5.8 0.3
-2 -5 -2 6.21 0.46
2 -5 2 5.5 0.3
2 -5 2 5.63 0.61
-2 -5 -2 5.66 0.5
2 5 2 5.71 0.34
-2 5 -2 5.48 0.47
2 5 2 5.52 0.49
2 5 2 5.88 0.28
-2 5 -2 5.9 0.71
2 5 2 5.27 0.44
3 -5 2 26.19 0.68
-3 -5 -2 26.41 0.85
3 -5 2 25.66 0.73
-3 -5 -2 26.74 0.98
-3 -5 -2 26.17 1
-3 -5 -2 25.91 0.76
3 -5 2 25.76 1.19
3 -5 2 26.32 1.01
3 5 2 26.76 0.8
3 5 2 26.88 0.97
3 5 2 26.44 0.69
-3 5 -2 26.07 1.23
3 5 2 26.35 0.94
-3 5 -2 26.37 1.02
-4 -5 -2 0.39 0.25
-4 -5 -2 0.13 0.24
4 -5 2 0.37 0.2
-4 -5 -2 0.4 0.26
4 -5 2 0.25 0.23
4 -5 2 -0.26 0.33
-4 -5 -2 0.17 0.3
4 5 2 0.39 0.24
4 5 2 0.4 0.25
-4 5 -2 0.58 0.26
-4 5 -2 0.85 0.51
4 5 2 0.25 0.21
4 5 2 0.54 0.22
-4 5 -2 0.17 0.28
5 -5 2 0.22 0.28
-5 -5 -2 0.35 0.38
5 -5 2 0.24 0.4
-5 -5 -2 0.13 0.3
-5 -5 -2 -0.16 0.27
5 -5 2 0.48 0.31
5 5 2 0.23 0.29
-5 5 -2 0.11 0.33
-5 5 -2 0.03 0.26
5 5 2 0.32 0.27
5 5 2 0.34 0.23
-5 5 -2 0.37 0.5
5 5 2 0.19 0.26
-6 -5 -2 5.59 0.65
6 -5 2 5.15 0.8
-6 -5 -2 4.03 0.47
6 -5 2 5.74 0.64
-6 -5 -2 4.46 0.59
6 -5 2 4.3 0.46
6 5 2 4.78 0.52
6 5 2 4.68 0.5
6 5 2 4.03 0.47
-6 5 -2 4.46 0.37
-6 5 -2 4.28 0.52
-6 5 -2 5.1 0.85
-6 5 -2 4.39 0.57
-7 -5 -2 16.57 0.95
-7 -5 -2 15 0.86
7 -5 2 16.45 1.23
7 -5 2 16.28 0.93
7 -5 2 16.06 1.02
-7 5 -2 17.12 1.39
-7 5 -2 14.77 1.42
7 5 2 15.25 0.76
7 5 2 15.23 0.76
-7 5 -2 15.17 0.93
-7 5 -2 14.89 0.66
8 -5 2 0.49 0.62
-8 -5 -2 0.92 0.56
-8 -5 -2 0.05 0.62
-8 -5 -2 -0.1 0.41
-8 5 -2 0.66 0.82
8 5 2 0.06 0.32
8 5 2 0.02 0.42
-8 5 -2 -0.01 0.36
-8 5 -2 -0.75 0.6
8 5 2 0.11 0.32
9 -5 2 4.11 0.98
9 -5 2 3.11 0.84
-9 -5 -2 2.57 0.79
9 -5 2 3.94 0.75
-9 -5 -2 4.86 0.63
9 5 2 3.67 0.72
-9 5 -2 3.66 0.87
9 5 2 3.02 0.49
9 5 2 3.32 0.79
9 5 2 2.94 0.51
9 5 2 2.62 0.57
-9 5 -2 2.53 0.64
-10 -5 -2 1.16 1.01
10 -5 2 -0.69 0.86
10 -5 2 -0.17 0.64
10 -5 2 0.5 0.98
-10 5 -2 -0.14 0.64
10 5 2 0.39 0.9
-10 5 -2 0.47 1.16
10 5 2 0.32 0.64
10 5 2 0.7 0.42
-10 5 -2 -1.54 0.98
11 -5 2 -0.26 0.77
11 -5 2 1.75 0.78
11 -5 2 0.79 1.19
11 5 2 -0.07 0.79
-11 5 -2 1.13 1.33
11 5 2 -0.93 1.3
-11 5 -2 -0.07 0.85
-11 5 -2 0.23 1.37
12 -6 -2 2.73 0.91
12 6 -2 -0.16 1.22
-12 6 2 -0.63 0.89
12 6 -2 -0.59 0.98
12 6 -2 -0.61 1.02
-12 6 2 -1.18 1.13
11 -6 -2 1.9 1.27
11 -6 -2 1.13 0.97
11 -6 -2 3.79 1.21
11 -6 -2 2.86 0.79
11 6 -2 2.62 0.81
11 6 -2 -0.04 1.12
11 6 -2 0.86 1
11 6 -2 2.96 0.75
-11 6 2 1.45 0.78
-11 6 2 1.97 1.14
11 6 -2 2.68 1.02
11 6 -2 2.45 0.93
-11 6 2 2.74 1.08
-11 6 2 -0.02 1.16
10 -6 -2 2.24 1.03
10 -6 -2 1.84 0.61
10 -6 -2 3.43 0.94
10 -6 -2 3.4 0.93
10 6 -2 1.95 0.63
-10 6 2 2 0.67
-10 6 2 1.73 0.92
-10 6 2 2.32 0.72
10 6 -2 3.3 0.62
10 6 -2 2.78 0.9
10 6 -2 2.63 0.79
10 6 -2 1.94 0.77
-10 6 2 0.29 0.91
10 6 -2 3.54 0.79
9 -6 -2 1.5 0.75
9 -6 -2 1.17 0.54
9 -6 -2 1.5 0.78
9 -6 -2 3.21 0.8
9 6 -2 1.44 0.44
9 6 -2 2.18 0.64
-9 6 2 0.35 0.62
9 6 -2 2.09 0.53
9 6 -2 1.97 0.77
-9 6 2 2.12 0.54
-9 6 2 1.01 0.72
-9 6 2 0.08 0.77
9 6 -2 1.31 0.61
9 6 -2 2.45 0.6
8 -6 -2 1.5 0.66
8 -6 -2 1.05 0.44
8 -6 -2 1.72 0.61
8 -6 -2 0.52 0.69
-8 6 2 0.5 0.64
-8 6 2 0.7 0.49
8 6 -2 0.37 0.44
8 6 -2 1.97 0.57
-8 6 2 1.85 0.51
8 6 -2 0.96 0.35
8 6 -2 1.85 0.51
-8 6 2 1.23 0.72
8 6 -2 1.45 0.59
8 6 -2 1.32 0.42
-7 -6 2 -0.19 0.41
7 -6 -2 0.11 0.46
7 -6 -2 0.07 0.45
7 -6 -2 0.38 0.53
7 -6 -2 0.26 0.36
-7 6 2 0.31 0.49
7 6 -2 0.33 0.26
7 6 -2 0.46 0.42
7 6 -2 0.01 0.45
7 6 -2 -0.69 0.31
7 6 -2 0.22 0.36
-7 6 2 0.05 0.52
-7 6 2 0.41 0.41
-6 -6 2 1.09 0.28
-6 -6 2 1.24 0.44
6 -6 -2 0.74 0.32
-6 -6 2 1.1 0.33
6 -6 -2 1.01 0.48
-6 -6 2 0.84 0.24
6 -6 -2 0.96 0.43
-6 6 2 0.7 0.42
6 6 -2 1.31 0.31
6 6 -2 1.18 0.29
6 6 -2 0.81 0.2
-6 6 2 0.11 0.49
6 6 -2 0.27 0.26
6 6 -2 0.75 0.43
-6 6 2 0.66 0.36
6 6 -2 0.72 0.21
-6 6 2 0.45 0.31
6 6 -2 0.93 0.34
-5 -6 2 2.71 0.41
5 -6 -2 2.37 0.41
-5 -6 2 2 0.39
5 -6 -2 2.02 0.51
-5 -6 2 2.03 0.31
5 -6 -2 2.01 0.41
5 6 -2 2.78 0.34
-5 6 2 1.79 0.59
5 6 -2 2.43 0.29
5 6 -2 2.37 0.22
5 6 -2 2.29 0.28
5 6 -2 2.36 0.31
-5 6 2 2.02 0.37
5 6 -2 2.78 0.38
5 6 -2 2.1 0.4
-5 6 2 2.02 0.4
-4 -6 2 20.98 0.63
-4 -6 2 20.94 0.77
-4 -6 2 20.17 0.75
4 -6 -2 20.35 1.11
4 -6 -2 20.15 0.94
-4 -6 2 20.26 0.86
4 -6 -2 20.77 0.78
-4 6 2 20.72 0.75
-4 6 2 20.46 0.94
-4 6 2 21.67 1.14
4 6 -2 20.27 0.76
4 6 -2 19.94 0.85
4 6 -2 20.22 0.69
4 6 -2 20.4 0.78
-3 -6 2 18.21 0.85
-3 -6 2 17.37 0.52
3 -6 -2 18.34 0.67
-3 -6 2 17.26 0.66
-3 -6 2 18.38 0.74
3 -6 -2 18.81 1.03
3 -6 -2 17.83 0.85
3 6 -2 17.35 0.68
-3 6 2 20.03 1.06
3 6 -2 18.15 0.73
-3 6 2 18.61 0.63
-3 6 2 18.37 0.85
3 6 -2 17.86 0.84
-2 -6 2 39.54 1.22
2 -6 -2 41.31 1.36
-2 -6 2 37.61 1.04
2 -6 -2 39.66 1.03
2 -6 -2 39.25 1.47
-2 -6 2 40.35 0.9
-2 -6 2 39.98 1.36
2 6 -2 40.16 1.08
2 6 -2 40 1.22
-2 6 2 40.74 1
-2 6 2 39.26 0.91
-2 6 2 43.72 1.52
2 6 -2 39.47 1.36
-2 6 2 40.27 1.33
-1 -6 2 35.03 1.27
-1 -6 2 33.83 0.93
-1 -6 2 34.84 0.75
-1 -6 2 32.12 1.1
-1 -6 2 34.29 0.91
1 -6 -2 33.02 1.29
1 -6 -2 32.76 1.19
1 -6 -2 34.13 0.86
1 6 -2 34.11 1.29
1 6 -2 34.31 1.12
-1 6 2 34.37 0.84
-1 6 2 34.07 1.32
1 6 -2 32.28 0.91
-1 6 2 34.42 0.83
-1 6 2 34.23 1.19
0 -6 2 17.46 0.6
0 -6 -2 18.51 0.59
0 -6 -2 17.98 0.53
0 -6 -2 18.6 0.91
0 -6 2 18.52 0.8
0 -6 -2 17.84 0.8
0 -6 2 17.65 0.94
0 6 2 17.75 0.9
0 6 -2 17.26 0.76
0 6 2 18.07 0.52
0 6 -2 17.22 0.58
0 6 2 17.46 0.46
0 6 2 17.01 0.78
0 6 -2 19.65 0.99
-1 -6 -2 51.86 1.54
1 -6 2 47.5 1.7
-1 -6 -2 48.9 1.61
1 -6 2 51.39 1.55
-1 -6 -2 49.56 1.25
-1 -6 -2 51.69 1.14
1 -6 2 49.33 1.19
-1 6 -2 49.73 1.74
1 6 2 51.56 1.04
1 6 2 49.21 1.49
-1 6 -2 49.63 1.52
1 6 2 49.08 1.12
-1 6 -2 50.24 1.18
1 6 2 49.26 1.58
-2 -6 -2 7.63 0.47
2 -6 2 7.81 0.36
2 -6 2 7.72 0.35
-2 -6 -2 7.42 0.56
-2 -6 -2 7.21 0.59
2 -6 2 8.62 0.77
2 6 2 7.74 0.54
-2 6 -2 6.92 0.8
2 6 2 7.13 0.38
2 6 2 7.4 0.31
2 6 2 8.28 0.64
3 -6 2 4.32 0.32
-3 -6 -2 4.48 0.42
-3 -6 -2 4.67 0.4
3 -6 2 4.69 0.37
3 -6 2 4.98 0.55
-3 -6 -2 4.73 0.51
3 -6 2 5.35 0.69
-3 -6 -2 4.67 0.56
3 6 2 4.81 0.48
3 6 2 4.29 0.39
3 6 2 4.84 0.31
-3 6 -2 3.76 0.62
3 6 2 4.2 0.54
-3 6 -2 4.35 0.54
4 -6 2 0.01 0.25
4 -6 2 0.52 0.43
-4 -6 -2 0.13 0.29
4 -6 2 0.01 0.18
-4 -6 -2 0.19 0.35
-4 -6 -2 -0.08 0.29
4 -6 2 0.7 0.28
-4 -6 -2 -0.02 0.27
4 6 2 0.23 0.27
4 6 2 0.28 0.2
-4 6 -2 -0.09 0.27
4 6 2 0.24 0.28
-4 6 -2 0.28 0.31
4 6 2 0.06 0.22
-4 6 -2 -0.27 0.45
5 -6 2 3.13 0.52
5 -6 2 2.53 0.66
-5 -6 -2 2.91 0.49
-5 -6 -2 3.08 0.49
5 -6 2 2.81 0.39
-5 -6 -2 2.78 0.4
5 6 2 3.05 0.32
5 6 2 2.61 0.44
-5 6 -2 2.39 0.43
-5 6 -2 2.31 0.44
5 6 2 3.26 0.44
5 6 2 3.28 0.43
-5 6 -2 3.28 0.76
-6 -6 -2 -0.2 0.46
-6 -6 -2 -0.58 0.37
6 -6 2 0.1 0.41
6 -6 2 0.66 0.61
-6 -6 -2 0.14 0.4
6 -6 2 0.2 0.37
6 6 2 0.5 0.42
-6 6 -2 0.52 0.67
6 6 2 0.05 0.34
-6 6 -2 -0.36 0.61
6 6 2 0.6 0.33
-6 6 -2 0.12 0.43
6 6 2 0.18 0.32
-6 6 -2 -0.2 0.3
7 -6 2 5.58 0.97
-7 -6 -2 6.67 0.73
7 -6 2 7.11 0.83
-7 -6 -2 6.08 0.95
-7 6 -2 5.94 0.71
-7 6 -2 6.43 0.49
7 6 2 6.53 0.66
7 6 2 7.12 0.68
7 6 2 7.09 0.56
-7 6 -2 7.31 1.16
-8 -6 -2 0.89 0.66
8 -6 2 1.4 0.79
8 -6 2 1.64 0.55
-8 -6 -2 2 0.52
-8 6 -2 1.46 0.45
-8 6 -2 0.9 0.92
8 6 2 1.74 0.58
8 6 2 1.84 0.42
8 6 2 1.34 0.5
-8 6 -2 2.31 0.64
-8 6 -2 1.44 0.68
8 6 2 2.25 0.43
-9 -6 -2 -0.05 0.85
9 -6 2 0.77 0.8
-9 -6 -2 0.18 0.54
9 -6 2 -0.08 0.8
9 -6 2 -0.27 0.54
9 6 2 0.75 0.39
-9 6 -2 -0.04 0.86
9 6 2 -0.15 0.71
-9 6 -2 -0.23 0.6
-9 6 -2 0.27 0.47
-9 6 -2 -0.28 1.01
9 6 2 0.19 0.59
9 6 2 -0.16 0.39
9 6 2 0.72 0.72
10 -6 2 0.22 0.74
10 -6 2 -0.72 0.99
-10 -6 -2 -0.73 1.1
10 -6 2 0.61 1.08
10 6 2 -0.92 0.94
-10 6 -2 -1.24 1.3
10 6 2 -1.36 0.86
-10 6 -2 -1.45 1.14
-10 6 -2 -0.11 0.76
-10 6 -2 -0.04 0.56
10 6 2 0.77 0.42
10 6 2 0.43 1.1
10 6 2 -0.12 0.44
11 -6 2 1.09 0.92
11 -6 2 1.62 1.21
11 -6 2 1.61 0.72
-11 -6 -2 0.73 1.31
11 6 2 1.88 1.27
-11 6 -2 -0.33 2.45
-11 6 -2 1.44 1.45
-11 6 -2 -0.54 1.2
11 6 2 -0.09 0.9
11 -7 -2 0.66 1.35
11 -7 -2 -0.97 1.11
11 -7 -2 -2.8 1.16
11 -7 -2 -0.88 0.76
11 7 -2 -0.37 1.06
-11 7 2 -0.23 0.79
-11 7 2 2.35 1.42
11 7 -2 -1.43 1.27
11 7 -2 1.23 1.27
11 7 -2 -0.28 0.82
11 7 -2 0.44 1.07
-11 7 2 3.11 1.32
-11 7 2 0.7 0.98
11 7 -2 -0.37 0.72
10 -7 -2 0.35 0.66
10 -7 -2 1.42 1.01
10 -7 -2 -0.28 0.93
10 -7 -2 0.86 1.11
10 7 -2 -0.43 0.55
10 7 -2 0.61 0.76
-10 7 2 -0.34 1.06
-10 7 2 0.08 1.08
-10 7 2 -0.13 0.7
10 7 -2 0.66 0.7
10 7 -2 0.67 0.79
10 7 -2 0.6 0.95
10 7 -2 0.8 0.86
9 -7 -2 2.4 0.94
9 -7 -2 3.4 0.83
9 -7 -2 1.11 0.59
9 -7 -2 3.07 0.85
9 7 -2 1.36 0.54
-9 7 2 1.77 0.66
9 7 -2 1.68 0.66
-9 7 2 1.32 0.87
9 7 -2 0.99 0.66
-9 7 2 1.42 0.64
9 7 -2 1.05 0.75
9 7 -2 1.16 0.69
9 7 -2 1.77 0.44
-9 7 2 0.32 0.98
8 -7 -2 -0.71 0.61
8 -7 -2 0.22 0.48
8 -7 -2 -0.2 0.65
-8 -7 2 -0.19 0.56
-8 7 2 -0.55 0.59
8 7 -2 0.13 0.41
8 7 -2 -1 0.64
-8 7 2 0.29 0.55
8 7 -2 0.01 0.54
8 7 -2 -0.09 0.32
-8 7 2 -0.44 0.78
8 7 -2 -0.19 0.51
7 -7 -2 9.8 0.77
7 -7 -2 9.91 1.08
-7 -7 2 10.05 0.8
7 -7 -2 9.51 0.93
7 -7 -2 10.38 0.77
-7 -7 2 8.93 0.94
7 7 -2 10.39 0.71
7 7 -2 10.25 0.74
7 7 -2 10.89 0.54
7 7 -2 9.83 0.47
7 7 -2 10.87 0.68
7 7 -2 10.31 0.61
-7 7 2 9.73 0.86
-7 7 2 10.91 1.25
-7 7 2 9.89 0.86
-6 -7 2 4.18 0.44
6 -7 -2 3.06 0.49
6 -7 -2 4.3 0.8
-6 -7 2 4.25 0.57
-6 -7 2 3.48 0.47
6 -7 -2 4.3 0.55
-6 -7 2 4.51 0.52
6 7 -2 3.99 0.55
-6 7 2 4.4 0.51
6 7 -2 4.68 0.46
6 7 -2 4.3 0.26
-6 7 2 3.49 0.54
-6 7 2 3.36 0.68
-6 7 2 4.43 0.85
6 7 -2 3.63 0.37
5 -7 -2 13.57 0.79
-5 -7 2 11.32 0.78
5 -7 -2 11.39 0.84
5 -7 -2 14.13 1.12
-5 -7 2 12.46 0.75
-5 -7 2 11.1 0.62
-5 -7 2 11.81 0.6
5 7 -2 13.78 0.79
5 7 -2 12.79 0.73
-5 7 2 12.98 1.09
-5 7 2 12.95 0.75
5 7 -2 13.53 0.65
5 7 -2 13 0.65
5 7 -2 13.04 0.55
-5 7 2 12.89 0.84
-4 -7 2 9.42 0.62
-4 -7 2 9.87 0.47
4 -7 -2 10.86 0.66
-4 -7 2 10.7 0.75
4 -7 -2 9.28 0.74
4 -7 -2 10.68 0.96
-4 -7 2 10.25 0.61
4 7 -2 9.96 0.6
4 7 -2 9.68 0.72
-4 7 2 10.01 0.97
-4 7 2 8.91 0.73
4 7 -2 9.83 0.67
-4 7 2 10.31 0.61
4 7 -2 9.96 0.52
3 -7 -2 12.59 0.6
-3 -7 2 11.59 0.61
3 -7 -2 12.23 0.95
-3 -7 2 11.91 0.78
-3 -7 2 11.5 0.63
-3 -7 2 11.83 0.43
3 -7 -2 11.18 0.76
-3 7 2 13.25 0.79
3 7 -2 12.05 0.78
3 7 -2 11.97 0.65
-3 7 2 12.16 0.98
3 7 -2 11.78 0.63
-3 7 2 11.71 0.33
-3 7 2 11.49 0.56
2 -7 -2 7.63 0.48
2 -7 -2 7.22 0.62
-2 -7 2 7.11 0.44
-2 -7 2 7.05 0.54
-2 -7 2 7.52 0.68
2 -7 -2 7.39 0.79
-2 -7 2 7.15 0.29
-2 7 2 7.47 0.33
2 7 -2 6.88 0.5
-2 7 2 7.59 0.83
-2 7 2 7.44 0.62
2 7 -2 7 0.7
-2 7 2 7.3 0.42
2 7 -2 7.37 0.55
-1 -7 2 13.59 0.73
-1 -7 2 13.46 0.6
1 -7 -2 13.23 0.52
-1 -7 2 14.3 0.38
-1 -7 2 14.06 0.85
-1 -7 2 15.07 0.56
1 -7 -2 14.09 0.79
1 -7 -2 14.01 0.94
-1 -7 2 13.7 0.41
-1 7 2 14.82 0.98
1 7 -2 15.31 0.94
1 7 -2 14 0.73
-1 7 2 14.28 0.51
1 7 -2 14.23 0.58
-1 7 2 14.13 0.79
-1 7 2 14.32 0.48
0 -7 -2 17.23 0.96
0 -7 -2 18.95 0.88
0 -7 2 17.59 1
0 -7 2 17.71 0.63
0 -7 -2 17.43 0.54
0 -7 -2 17.46 0.62
0 7 2 17.15 0.48
0 7 -2 16.08 1.01
0 7 2 17.14 0.87
0 7 2 17.01 0.96
0 7 -2 16.93 0.83
0 7 -2 17.35 0.61
1 -7 2 2.66 0.27
-1 -7 -2 3.08 0.24
-1 -7 -2 2.65 0.42
-1 -7 -2 2.51 0.3
-1 -7 -2 2.87 0.49
1 -7 2 2.25 0.38
1 -7 2 2 0.42
1 7 2 2.61 0.16
1 7 2 2.99 0.45
-1 7 -2 3.27 0.48
1 7 2 2.48 0.21
-1 7 -2 2.88 0.64
1 7 2 3.36 0.53
-1 7 -2 2.35 0.25
-2 -7 -2 29.19 0.92
2 -7 2 28.25 0.79
2 -7 2 29.24 1.39
-2 -7 -2 29.75 1.15
-2 -7 -2 27.26 1.2
2 -7 2 28.96 1.17
-2 7 -2 28.82 1.18
2 7 2 28.02 1.2
2 7 2 29.12 1.11
2 7 2 27.26 0.7
-2 7 -2 27.5 1.41
3 -7 2 4.56 0.62
3 -7 2 5.51 0.39
-3 -7 -2 5.51 0.54
-3 -7 -2 5.07 0.64
3 -7 2 5.29 0.77
-3 -7 -2 5.56 0.58
-3 -7 -2 4.79 0.38
3 -7 2 5.52 0.36
3 7 2 6.49 0.57
-3 7 -2 5.86 0.54
-3 7 -2 5.59 0.61
3 7 2 4.74 0.31
-3 7 -2 5.62 0.82
3 7 2 4.99 0.62
3 7 2 5.24 0.44
-4 -7 -2 22.1 1.01
-4 -7 -2 19.29 0.77
-4 -7 -2 21.7 1.07
4 -7 2 20.51 1.08
4 -7 2 21.4 0.75
4 -7 2 21.72 1.3
4 -7 2 21.21 0.64
-4 -7 -2 20.89 0.92
4 7 2 20.74 0.62
4 7 2 21.32 1.03
-4 7 -2 19.89 0.87
-4 7 -2 21.23 1.45
-4 7 -2 22.33 1.09
4 7 2 20.9 0.8
4 7 2 20.95 0.96
5 -7 2 21.77 0.86
5 -7 2 22.72 1.44
-5 -7 -2 22.09 1.03
-5 -7 -2 21.42 1.09
-5 -7 -2 23.06 1.04
5 -7 2 21.84 1.17
-5 -7 -2 21.72 0.89
5 -7 2 22.53 0.68
5 7 2 21.44 0.98
5 7 2 21.52 0.71
5 7 2 22.16 1.04
5 7 2 23.64 0.91
-5 7 -2 23.71 1.6
-5 7 -2 23.52 0.97
-5 7 -2 22.45 1.15
6 -7 2 0.19 0.23
-6 -7 -2 0.49 0.56
6 -7 2 -0.33 0.43
6 -7 2 -0.24 0.46
-6 -7 -2 0.73 0.48
-6 -7 -2 0.43 0.44
6 -7 2 0.34 0.66
6 7 2 0.64 0.32
6 7 2 -0.18 0.3
6 7 2 0.41 0.39
-6 7 -2 -0.73 0.75
7 -7 2 3.44 0.63
7 -7 2 1.17 0.56
-7 -7 -2 1.21 0.58
7 -7 2 2.44 0.32
7 -7 2 3.31 0.87
-7 -7 -2 1.83 0.58
-7 -7 -2 0.17 0.59
-7 7 -2 2.2 0.48
-7 7 -2 1.5 0.91
7 7 2 2.64 0.49
7 7 2 1.86 0.45
7 7 2 1.8 0.46
-7 7 -2 1.5 0.65
-7 7 -2 1.24 0.61
8 -7 2 -0.2 0.86
8 -7 2 -0.06 0.33
-8 -7 -2 0.15 0.68
-8 -7 -2 0.37 0.65
8 -7 2 -0.22 0.53
-8 7 -2 0.48 0.53
8 7 2 1.06 0.43
8 7 2 0.87 0.58
8 7 2 0.69 0.45
8 7 2 0.47 0.51
-8 7 -2 0.13 0.77
-8 7 -2 0.64 0.5
-8 7 -2 0.56 0.96
-9 -7 -2 1.6 0.66
9 -7 2 0.67 0.93
9 -7 2 -1.07 1.02
9 -7 2 1.59 0.69
-9 -7 -2 0.47 0.6
-9 -7 -2 -0.84 0.89
-9 7 -2 -1.32 1.21
9 7 2 1.36 0.48
9 7 2 0.01 0.77
9 7 2 1.28 0.71
-9 7 -2 0.07 0.59
9 7 2 -0.09 0.45
-9 7 -2 0.26 0.71
9 7 2 2.22 0.99
9 7 2 0.45 0.7
-9 7 -2 1.24 0.98
10 -7 2 0.24 1.14
10 -7 2 -0.55 1.06
10 -7 2 -0.85 0.75
-10 -7 -2 0.39 1.09
10 -7 2 0.87 0.5
10 7 2 -0.31 0.48
-10 7 -2 0.51 1.24
-10 7 -2 -0.99 1.37
-10 7 -2 -0.47 0.68
10 7 2 0.06 0.89
10 7 2 0.26 0.86
10 7 2 -1.23 1.25
-10 7 -2 0.09 0.82
10 7 2 -0.76 0.47
11 -8 -2 11 1.62
11 -8 -2 11.62 1.7
11 -8 -2 9 1.29
-11 8 2 4.45 1.16
11 8 -2 10.34 1
11 8 -2 10.52 0.94
-11 8 2 8.97 1.63
-11 8 2 10.67 1.64
11 8 -2 9.37 1.33
11 8 -2 9.15 0.81
10 -8 -2 4.69 1.25
10 -8 -2 2.91 0.8
10 -8 -2 7.75 1.33
10 -8 -2 4.57 1.14
10 8 -2 4.68 0.64
10 8 -2 3.95 1
-10 8 2 5.65 1.23
10 8 -2 3.98 0.56
10 8 -2 6.35 0.99
10 8 -2 4.49 0.86
-10 8 2 4.49 1
-10 8 2 3.96 0.93
10 8 -2 4.68 1.24
9 -8 -2 1.73 0.9
9 -8 -2 0.89 0.96
9 -8 -2 0.07 0.66
9 -8 -2 0.68 0.86
9 8 -2 0.73 0.44
9 8 -2 0.23 0.39
9 8 -2 -0.62 0.9
-9 8 2 0.53 1.05
-9 8 2 0.32 0.88
-9 8 2 0.13 0.68
-9 8 2 0.09 0.76
9 8 -2 1.46 0.57
9 8 -2 2.11 0.81
9 8 -2 0.79 0.7
-8 -8 2 1.17 0.6
8 -8 -2 0.3 0.75
8 -8 -2 0.68 0.82
8 -8 -2 0.9 0.8
8 -8 -2 0.47 0.58
8 8 -2 0.99 0.46
8 8 -2 1.23 0.76
8 8 -2 0.27 0.29
8 8 -2 0.59 0.26
-8 8 2 -0.27 0.97
8 8 -2 0.74 0.29
-8 8 2 0.35 0.51
8 8 -2 0.92 0.33
-8 8 2 1.36 0.66
8 8 -2 1.41 0.56
-8 8 2 1.16 0.74
-7 -8 2 0.35 0.31
7 -8 -2 -0.49 0.7
7 -8 -2 -0.65 0.44
-7 -8 2 0.14 0.47
-7 -8 2 0.2 0.63
-7 -8 2 1.2 0.47
7 -8 -2 0.71 0.64
-7 8 2 -0.2 0.76
7 8 -2 0.27 0.26
7 8 -2 -0.35 0.36
-7 8 2 0.15 0.62
7 8 -2 0.36 0.36
7 8 -2 0.28 0.45
-7 8 2 0.09 0.54
-6 -8 2 3.16 0.45
-6 -8 2 2.95 0.54
6 -8 -2 3.65 0.91
6 -8 -2 3.46 0.58
-6 -8 2 3.78 0.99
6 8 -2 3.77 0.49
-6 8 2 3.2 0.78
6 8 -2 3.15 0.4
6 8 -2 3.96 0.38
6 8 -2 3.18 0.52
-6 8 2 2.22 0.56
-5 -8 2 0.2 0.31
-5 -8 2 0.2 0.43
5 -8 -2 -0.12 0.33
-5 -8 2 0.03 0.26
5 -8 -2 0.08 0.44
-5 -8 2 -0.56 0.4
5 -8 -2 -0.16 0.51
5 8 -2 0.44 0.27
-5 8 2 -0.09 0.61
-5 8 2 0.42 0.4
5 8 -2 0.45 0.26
-5 8 2 0.08 0.37
5 8 -2 0.29 0.45
5 8 -2 0.69 0.41
5 8 -2 0.8 0.29
4 -8 -2 21.32 1.31
-4 -8 2 23.27 1.14
-4 -8 2 20.99 0.68
4 -8 -2 22.35 1.16
-4 -8 2 21.05 0.91
-4 -8 2 20.9 0.9
4 -8 -2 21.07 0.91
4 8 -2 21.07 0.92
4 8 -2 21.42 1.08
4 8 -2 22.02 0.95
-4 8 2 21.67 0.86
-4 8 2 21.82 1.4
-4 8 2 20.98 1.1
3 -8 -2 15.84 0.73
3 -8 -2 15.02 1.17
-3 -8 2 14.83 0.79
-3 -8 2 14.65 0.71
-3 -8 2 15.66 0.97
-3 -8 2 15.09 0.51
3 -8 -2 15.52 0.96
3 8 -2 13.94 0.78
-3 8 2 14.72 0.43
-3 8 2 14.67 0.65
-3 8 2 13.9 0.94
3 8 -2 15.61 1
-3 8 2 14.63 1.17
3 8 -2 16.7 0.77
2 -8 -2 1.01 0.32
2 -8 -2 0.46 0.5
-2 -8 2 1.03 0.28
-2 -8 2 1.23 0.29
2 -8 -2 0.82 0.31
-2 -8 2 1.76 0.47
-2 -8 2 1.31 0.17
-2 8 2 0.77 0.19
-2 8 2 1.22 0.55
-2 8 2 1.06 0.34
2 8 -2 1.28 0.45
-2 8 2 1.3 0.27
2 8 -2 1.44 0.34
2 8 -2 1.56 0.38
-1 -8 2 5.48 0.26
-1 -8 2 5.44 0.45
-1 -8 2 4.49 0.6
-1 -8 2 5.5 0.56
1 -8 -2 5.52 0.61
1 -8 -2 4.75 0.63
1 -8 -2 5.63 0.45
-1 -8 2 5.52 0.29
-1 8 2 5.56 0.42
1 8 -2 5.53 0.73
-1 8 2 7.31 0.89
-1 8 2 6.73 0.63
1 8 -2 5.17 0.56
1 8 -2 4.97 0.47
-1 8 2 5.04 0.37
0 -8 2 -0.07 0.26
0 -8 2 -0.21 0.21
0 -8 -2 -0.16 0.23
0 -8 -2 0.38 0.3
0 -8 2 0.01 0.36
0 -8 -2 -0.07 0.21
0 -8 -2 -0.66 0.4
0 8 -2 0.06 0.46
0 8 -2 -0.03 0.23
0 8 2 -0.02 0.15
0 8 2 0.11 0.24
0 8 2 0.21 0.3
0 8 2 0.33 0.39
0 8 -2 -0.35 0.23
1 -8 2 23.03 1.07
-1 -8 -2 23.3 1.19
1 -8 2 23.23 0.76
1 -8 2 23.59 1.28
-1 -8 -2 22.44 0.81
-1 -8 -2 23.27 1.09
-1 -8 -2 23.05 0.67
1 8 2 24.74 1.07
-1 8 -2 23.92 1.08
-1 8 -2 22.68 0.73
-1 8 -2 21.39 1.33
1 8 2 23.97 1.22
1 8 2 24.68 0.83
1 8 2 23.16 0.56
-2 -8 -2 3.55 0.5
2 -8 2 4.3 0.6
2 -8 2 3.76 0.67
-2 -8 -2 4.15 0.6
-2 -8 -2 4.25 0.43
2 -8 2 3.95 0.34
2 8 2 3.3 0.23
-2 8 -2 2.76 0.45
-2 8 -2 5.35 0.86
2 8 2 3.47 0.46
2 8 2 3.25 0.52
3 -8 2 53.42 1.27
-3 -8 -2 53.79 1.84
-3 -8 -2 52.28 1.34
3 -8 2 51.25 2.09
-3 -8 -2 52.85 1.74
3 -8 2 51.36 1.29
-3 -8 -2 52.11 1.49
3 -8 2 50.9 1.81
3 8 2 51.16 1.78
-3 8 -2 52.84 1.44
-3 8 -2 52.68 2.13
-3 8 -2 53.43 1.82
3 8 2 50.42 1.16
3 8 2 49.95 1.67
-4 -8 -2 13.51 0.99
-4 -8 -2 15.39 0.92
4 -8 2 13.23 0.96
-4 -8 -2 13.78 0.86
-4 -8 -2 13.41 0.73
4 -8 2 14.32 1.26
4 -8 2 13.2 0.55
4 -8 2 14.49 0.68
4 8 2 15.1 0.73
-4 8 -2 14.18 0.83
4 8 2 15.41 0.87
4 8 2 13.65 0.96
4 8 2 13.56 0.47
-4 8 -2 14.21 0.99
-4 8 -2 14.5 1.4
-5 -8 -2 10.47 0.83
-5 -8 -2 12.31 0.96
-5 -8 -2 10.18 0.94
-5 -8 -2 12.15 0.78
5 -8 2 10.44 0.74
5 -8 2 11.99 1.3
5 -8 2 12.12 1.11
5 -8 2 11.52 0.51
-5 8 -2 11.74 1.39
5 8 2 10.87 0.88
5 8 2 9.86 0.67
-5 8 -2 11.15 0.86
5 8 2 11.21 0.5
5 8 2 11.63 0.82
6 -8 2 0.82 0.52
-6 -8 -2 1.32 0.53
-6 -8 -2 1.27 0.65
6 -8 2 1.78 0.52
6 -8 2 1.16 0.27
6 -8 2 1.95 0.79
6 8 2 1.42 0.33
6 8 2 0.77 0.47
-6 8 -2 0.73 0.58
6 8 2 1.06 0.44
-6 8 -2 0.68 0.79
-7 -8 -2 0.16 0.59
-7 -8 -2 0.81 0.61
7 -8 2 0.92 0.62
7 -8 2 0.07 0.26
-7 -8 -2 0.8 0.65
7 -8 2 0.67 0.82
7 -8 2 0.37 0.55
-7 8 -2 0.07 0.64
7 8 2 -0.13 0.39
-7 8 -2 -0.39 1.02
7 8 2 -0.22 0.38
-7 8 -2 -0.21 0.52
7 8 2 0.53 0.55
-7 8 -2 -1.2 0.53
8 -8 2 -2.1 0.89
8 -8 2 -0.88 0.77
-8 -8 -2 0.27 0.79
8 -8 2 0.79 0.31
8 -8 2 0.66 0.66
-8 -8 -2 0.7 0.65
-8 8 -2 -0.79 1.07
8 8 2 0.3 0.52
-8 8 -2 0.87 0.62
8 8 2 -0.5 0.43
8 8 2 -0.29 0.69
-8 8 -2 0.56 0.85
-8 8 -2 -1.01 0.57
8 8 2 1.37 0.5
8 8 2 0.92 0.86
-9 -8 -2 1.04 1.02
9 -8 2 1.69 1.01
-9 -8 -2 0.45 0.68
9 -8 2 2.2 1.16
9 -8 2 1.79 0.33
9 -8 2 1.35 0.79
9 8 2 3.49 1.15
-9 8 -2 3.95 0.87
-9 8 -2 0.05 0.68
9 8 2 0.85 0.7
9 8 2 1.45 0.55
9 8 2 2.22 0.82
-9 8 -2 1.81 1.08
-9 8 -2 1.57 1.39
9 8 2 1.58 0.61
9 8 2 1.86 0.86
-10 -8 -2 1.94 1.25
10 -8 2 3.85 1.33
10 -8 2 1.8 1.32
10 -8 2 3.49 0.93
-10 8 -2 3.66 1.46
10 8 2 1.45 0.59
10 8 2 3.82 1.03
10 8 2 1.68 0.61
-10 8 -2 0.63 0.82
10 8 2 1.37 0.92
-10 8 -2 -2.16 1.71
10 -9 -2 -0.54 1.23
10 -9 -2 0.47 1.29
10 -9 -2 0.23 1.26
10 -9 -2 0.34 0.88
-10 9 2 0.74 1.05
-10 9 2 2.09 0.98
-10 9 2 1.92 1.29
-10 9 2 -0.27 1.57
10 9 -2 -2.1 1.4
10 9 -2 0.22 1.13
10 9 -2 -0.57 0.68
9 -9 -2 1.38 1.08
9 -9 -2 0 0.98
9 -9 -2 2.03 0.87
9 -9 -2 0.28 1.12
9 9 -2 0.66 0.7
-9 9 2 -1.14 1.2
-9 9 2 -0.81 0.81
-9 9 2 0.91 1.02
-9 9 2 1.11 0.91
9 9 -2 -0.8 0.86
9 9 -2 1.44 1.02
9 9 -2 0.46 0.57
8 -9 -2 0.38 0.8
-8 -9 2 0.28 0.86
8 -9 -2 -0.04 0.83
-8 -9 2 -0.06 0.71
8 -9 -2 -0.14 0.65
8 -9 -2 0.73 0.89
-8 9 2 0.47 1.09
8 9 -2 -0.11 0.56
8 9 -2 1.23 0.84
-8 9 2 1.91 0.65
-8 9 2 0.48 0.76
8 9 -2 1.13 0.44
8 9 -2 0.31 0.46
-8 9 2 0.14 0.74
8 9 -2 0.41 0.37
7 -9 -2 4.79 1.11
-7 -9 2 3.51 0.8
-7 -9 2 3.94 0.58
7 -9 -2 3.77 0.79
7 -9 -2 3.4 0.78
-7 -9 2 4.25 0.62
-7 9 2 3.05 0.72
-7 9 2 2.92 0.76
7 9 -2 3.13 0.57
7 9 -2 3.51 0.46
7 9 -2 4.11 0.58
7 9 -2 3.49 0.55
-7 9 2 2.9 0.81
-7 9 2 2.85 1.15
-6 -9 2 0.07 0.59
6 -9 -2 0.8 0.74
-6 -9 2 -0.43 0.3
-6 -9 2 -0.21 0.41
6 -9 -2 0.36 0.49
6 -9 -2 0.32 0.68
-6 -9 2 0.05 0.53
6 9 -2 -0.51 0.31
6 9 -2 0.32 0.36
6 9 -2 -0.48 0.46
-6 9 2 0.27 0.74
6 9 -2 0.52 0.33
-6 9 2 0.61 0.72
-5 -9 2 36.53 1.55
-5 -9 2 37.58 1.08
5 -9 -2 38.52 1.37
-5 -9 2 36.6 1.34
5 -9 -2 35.93 1.9
-5 9 2 37.46 1.3
5 9 -2 36.89 1.03
5 9 -2 37.77 1.32
-5 9 2 38.22 1.97
5 9 -2 36.98 1.48
5 9 -2 36.34 1.35
4 -9 -2 0.91 0.44
-4 -9 2 0.92 0.29
-4 -9 2 0.64 0.33
-4 -9 2 0.6 0.53
-4 -9 2 0.79 0.42
4 -9 -2 0.29 0.56
4 -9 -2 0.57 0.46
-4 9 2 1.02 0.75
4 9 -2 0.37 0.49
-4 9 2 0.4 0.52
-4 9 2 1.44 0.41
4 9 -2 0.99 0.49
4 9 -2 0.85 0.34
3 -9 -2 40.51 1.86
-3 -9 2 39.61 1.45
-3 -9 2 37.01 1.62
-3 -9 2 40.92 1.26
3 -9 -2 39.66 1.2
-3 -9 2 39.3 0.98
3 -9 -2 41.97 1.64
-3 9 2 39.64 1.16
3 9 -2 38.91 1.42
3 9 -2 40.23 1.64
-3 9 2 38.92 1.87
3 9 -2 38.16 1.26
-3 9 2 39.77 1.61
-3 9 2 39.27 0.94
-2 -9 2 16.23 0.75
2 -9 -2 17.84 1.27
2 -9 -2 17.27 0.73
-2 -9 2 17.85 0.95
2 -9 -2 15.08 1
-2 -9 2 15.87 0.51
-2 -9 2 14.28 1.1
-2 9 2 16.33 0.59
2 9 -2 16.53 0.8
-2 9 2 16.6 1.26
2 9 -2 16.14 1.14
-2 9 2 16.19 1
2 9 -2 16.75 0.92
-2 9 2 16.76 0.68
-1 -9 2 0.25 0.16
-1 -9 2 0.59 0.29
1 -9 -2 0.36 0.31
1 -9 -2 -0.05 0.28
-1 -9 2 0.19 0.18
-1 -9 2 -0.22 0.4
-1 -9 2 0.31 0.33
1 -9 -2 0.03 0.47
-1 9 2 0.59 0.54
-1 9 2 -0.01 0.22
-1 9 2 0.67 0.35
1 9 -2 -0.13 0.31
-1 9 2 -0.14 0.25
1 9 -2 -0.09 0.32
1 9 -2 1.05 0.5
0 -9 -2 3.84 0.33
0 -9 2 3.56 0.3
0 -9 -2 3.85 0.4
0 -9 -2 3.07 0.47
0 -9 2 4.43 0.61
0 -9 2 4.05 0.73
0 -9 -2 2.88 0.61
0 9 -2 3.36 0.63
0 9 -2 3.54 0.37
0 9 -2 2.89 0.47
0 9 2 3.97 0.62
0 9 2 3.31 0.27
0 9 2 3.83 0.63
0 9 2 3.07 0.37
-1 -9 -2 7.46 0.46
-1 -9 -2 7.09 0.91
1 -9 2 5.78 0.71
1 -9 2 8.49 0.97
-1 -9 -2 8.06 0.57
1 -9 2 6.74 0.56
-1 -9 -2 6.45 0.73
-1 9 -2 6.61 0.51
1 9 2 6.98 0.92
1 9 2 7.05 0.3
-1 9 -2 6.28 0.72
-1 9 -2 6.04 0.87
1 9 2 6.21 0.74
1 9 2 6.89 0.64
2 -9 2 3.59 0.37
2 -9 2 3.67 0.59
-2 -9 -2 2.95 0.66
2 -9 2 5.42 0.88
-2 -9 -2 3.21 0.59
-2 -9 -2 3.36 0.45
-2 9 -2 4.83 0.86
2 9 2 4.31 0.69
2 9 2 3.82 0.54
-2 9 -2 4.75 0.68
2 9 2 3.81 0.47
3 -9 2 2.81 0.36
-3 -9 -2 2.91 0.51
3 -9 2 2.07 0.66
-3 -9 -2 2.73 0.4
3 -9 2 2.85 0.61
-3 -9 -2 2.65 0.47
-3 -9 -2 3.27 0.66
3 -9 2 2.28 0.32
3 9 2 2.49 0.2
3 9 2 2.65 0.52
-3 9 -2 2.67 0.55
3 9 2 2.46 0.56
-3 9 -2 2.34 0.76
-3 9 -2 2.83 0.47
3 9 2 2.48 0.5
4 -9 2 13.09 1.02
4 -9 2 13.23 0.59
4 -9 2 13.22 0.73
4 -9 2 12.77 1.38
-4 -9 -2 12.65 0.75
-4 -9 -2 12.08 0.95
-4 -9 -2 13.53 0.9
-4 9 -2 14.7 0.9
4 9 2 12.77 0.95
4 9 2 13.58 0.72
-4 9 -2 12.58 1.01
4 9 2 10.81 0.99
-4 9 -2 13.34 1.52
4 9 2 12.49 0.41
4 9 2 14.15 0.91
-5 -9 -2 5.14 0.55
5 -9 2 4.91 0.54
-5 -9 -2 5.8 0.82
-5 -9 -2 4.92 0.7
5 -9 2 4.8 0.94
5 -9 2 5 0.48
5 -9 2 4.2 0.69
-5 -9 -2 4.64 0.71
5 9 2 4.7 0.36
5 9 2 4.95 0.86
-5 9 -2 5.81 0.69
5 9 2 5.45 0.75
-5 9 -2 7 1.21
6 -9 2 2.29 0.66
-6 -9 -2 1.04 0.67
-6 -9 -2 -0.59 0.46
-6 -9 -2 1.11 0.67
6 -9 2 0.57 0.26
-6 -9 -2 0.77 0.73
6 -9 2 -0.42 0.77
6 -9 2 0.38 0.55
-6 9 -2 1.03 0.95
6 9 2 0.79 0.53
6 9 2 1.28 0.7
6 9 2 0.96 0.47
6 9 2 0.77 0.46
6 9 2 0.23 0.27
-6 9 -2 -0.03 0.66
-7 -9 -2 0.77 0.79
7 -9 2 2.04 0.72
7 -9 2 2.56 0.27
7 -9 2 1.8 0.73
7 -9 2 3.54 1.34
-7 -9 -2 2.27 0.71
7 9 2 2.15 0.67
7 9 2 2.36 0.39
7 9 2 1.57 0.66
-7 9 -2 2.07 1.08
7 9 2 3.33 0.83
-7 9 -2 1.52 0.82
-7 9 -2 3.43 0.74
7 9 2 3.11 0.62
-7 9 -2 2.18 0.65
-8 -9 -2 0.96 0.92
-8 -9 -2 -0.88 0.82
8 -9 2 0.64 0.71
8 -9 2 -0.44 1.37
8 -9 2 -0.65 0.88
-8 -9 -2 1.17 0.87
-8 9 -2 -0.76 0.76
8 9 2 0.57 0.72
8 9 2 -0.03 0.6
-8 9 -2 0.7 0.7
8 9 2 1.01 1.02
8 9 2 0.02 0.5
-8 9 -2 0.48 1.14
8 9 2 0.56 0.47
-8 9 -2 0.23 0.94
9 -9 2 2.78 0.97
9 -9 2 2.65 1.42
-9 -9 -2 2.44 1.09
-9 -9 -2 2.25 0.91
9 -9 2 1.83 1.17
-9 9 -2 3.75 1.1
9 9 2 2.2 1.02
9 9 2 2.29 0.65
9 9 2 4.44 0.71
-9 9 -2 3.97 1.26
-9 9 -2 0.24 0.79
9 9 2 2 1.81
-9 9 -2 0.36 1.53
10 -10 -2 5.96 1.91
10 -10 -2 1.69 1.47
10 -10 -2 4.15 1.65
10 -10 -2 1.99 1.14
-10 10 2 3.29 1.86
-10 10 2 1.26 1.5
-10 10 2 2.39 1.27
10 10 -2 4.27 1.37
10 10 -2 3.56 0.78
9 -10 -2 -0.11 0.84
9 -10 -2 -0.27 1.24
9 -10 -2 0.01 1.49
9 -10 -2 0.08 1.09
-9 10 2 0.42 1.54
-9 10 2 -0.49 0.97
9 10 -2 0.47 1.03
-9 10 2 -0.76 1.05
9 10 -2 0.8 0.76
-9 10 2 0.89 1.04
9 10 -2 0.9 1.1
9 10 -2 0.73 0.6
-8 -10 2 0.71 0.91
8 -10 -2 0.49 0.84
-8 -10 2 1.15 1.03
-8 -10 2 1.66 0.71
8 -10 -2 2.49 0.96
8 -10 -2 2.36 1.05
8 10 -2 1.39 0.96
8 10 -2 1.15 0.47
-8 10 2 2.77 1.38
-8 10 2 1.39 0.97
-8 10 2 0.9 0.92
8 10 -2 1.39 0.52
-8 10 2 2.97 0.86
8 10 -2 2.47 0.58
8 10 -2 2.54 0.71
-7 -10 2 -0.43 0.83
-7 -10 2 1.45 0.68
-7 -10 2 1.04 0.59
7 -10 -2 -0.21 0.82
7 -10 -2 0 0.69
7 -10 -2 0.48 1
-7 10 2 1.45 1.11
7 10 -2 0.15 0.8
7 10 -2 0.39 0.56
7 10 -2 -0.2 0.39
-7 10 2 1.16 0.78
7 10 -2 1.29 0.56
7 10 -2 0.44 0.42
-7 10 2 1.04 0.65
6 -10 -2 7.33 0.83
6 -10 -2 10.56 1.37
-6 -10 2 8.62 1.09
-6 -10 2 8.85 0.94
6 -10 -2 7.82 1.06
-6 -10 2 8.82 0.64
6 10 -2 10.24 0.93
6 10 -2 8.83 0.81
6 10 -2 7.69 0.65
-6 10 2 9.02 1.29
-6 10 2 7.95 0.81
5 -10 -2 0.66 0.77
5 -10 -2 0.71 0.58
5 -10 -2 0.11 0.49
-5 -10 2 0.52 0.58
-5 -10 2 0.36 0.39
-5 -10 2 0.74 0.6
-5 -10 2 -0.07 0.4
5 10 -2 0.42 0.55
-5 10 2 -0.1 0.83
-5 10 2 0.15 0.53
5 10 -2 -0.45 0.37
5 10 -2 -0.2 0.29
4 -10 -2 20.79 1.05
-4 -10 2 19.02 0.73
-4 -10 2 20.78 1.07
-4 -10 2 20.06 1.03
4 -10 -2 18.89 1.66
4 -10 -2 15.99 1.44
-4 -10 2 18.96 1.34
-4 10 2 21.45 0.98
4 10 -2 20.42 1.1
4 10 -2 19.41 1.29
4 10 -2 19.26 1.03
-4 10 2 21.87 1.33
-4 10 2 24.38 1.78
-3 -10 2 5.41 0.95
-3 -10 2 7.07 0.46
3 -10 -2 6.03 0.54
3 -10 -2 6.24 0.95
3 -10 -2 7.03 0.85
-3 -10 2 8.08 0.76
-3 -10 2 6.64 0.73
3 10 -2 7.26 0.95
-3 10 2 6.07 0.94
3 10 -2 6 0.59
-3 10 2 6.46 0.41
3 10 -2 7.29 0.73
-3 10 2 6.06 0.51
-2 -10 2 0.02 0.34
2 -10 -2 0.6 0.38
-2 -10 2 0.64 0.38
2 -10 -2 -0.62 0.63
-2 -10 2 0.82 0.22
2 -10 -2 0.27 0.42
-2 10 2 0.42 0.5
2 10 -2 0.71 0.56
2 10 -2 0.38 0.41
2 10 -2 0.69 0.47
-2 10 2 0.09 0.54
-2 10 2 0.64 0.28
-2 10 2 0.32 0.31
-1 -10 2 0.16 0.19
-1 -10 2 -0.25 0.6
1 -10 -2 -0.01 0.52
1 -10 -2 0.25 0.39
-1 -10 2 0.14 0.2
1 -10 -2 0.08 0.33
1 -10 -2 -0.42 0.28
-1 -10 2 0.17 0.33
-1 -10 2 0.44 0.33
1 10 -2 -0.15 0.37
-1 10 2 0.43 0.41
1 10 -2 -0.29 0.58
-1 10 2 -0.43 0.25
1 10 -2 -0.03 0.36
-1 10 2 -0.82 0.53
-1 10 2 -0.07 0.31
0 -10 -2 -0.14 0.64
0 -10 -2 0.32 0.33
0 -10 2 0.02 0.41
0 -10 2 0.17 0.26
0 -10 -2 -0.49 0.36
0 -10 2 -0.14 0.61
0 -10 -2 0.07 0.3
0 10 2 0.19 0.35
0 10 -2 0.02 0.34
0 10 -2 0.23 0.48
0 10 2 0.29 0.54
0 10 2 0.25 0.43
0 10 2 -0.07 0.21
0 10 -2 -0.67 0.33
1 -10 2 1.04 0.34
-1 -10 -2 1 0.29
1 -10 2 1.45 0.46
1 -10 2 1.7 0.86
-1 -10 -2 1.77 0.42
-1 -10 -2 0.74 0.44
-1 10 -2 2.12 0.51
1 10 2 0.39 0.56
-1 10 -2 1.45 0.36
-1 10 -2 0.84 0.63
1 10 2 0.9 0.41
1 10 2 1.3 0.19
1 10 2 1.45 0.51
2 -10 2 0.65 0.54
-2 -10 -2 0.63 0.45
-2 -10 -2 0.28 0.42
-2 -10 -2 0.32 0.58
-2 -10 -2 0.39 0.36
-2 10 -2 0.49 0.39
-2 10 -2 0.58 0.47
-2 10 -2 0.54 0.73
2 10 2 0.71 0.51
2 10 2 0.64 0.48
2 10 2 0.51 0.53
3 -10 2 2.92 1.01
3 -10 2 4.25 0.42
-3 -10 -2 3.83 0.47
-3 -10 -2 3.36 0.61
-3 -10 -2 3.95 0.94
3 -10 2 2.94 0.58
-3 -10 -2 3.58 0.73
-3 10 -2 4.46 0.78
3 10 2 5.18 0.69
-3 10 -2 4 0.54
-3 10 -2 3.75 0.94
4 -10 2 3.87 0.71
-4 -10 -2 3.05 0.64
4 -10 2 3.75 0.48
-4 -10 -2 2.77 0.84
-4 -10 -2 2.77 0.49
4 -10 2 2.13 0.87
-4 -10 -2 1.98 0.61
4 10 2 2.83 0.69
-4 10 -2 2.82 0.96
4 10 2 3.52 0.57
-4 10 -2 2.3 0.58
-4 10 -2 2.56 0.59
4 10 2 3.4 0.75
-5 -10 -2 1.89 0.61
5 -10 2 2.55 0.94
-5 -10 -2 2.8 0.74
-5 -10 -2 3.81 0.6
5 -10 2 2.45 0.55
5 -10 2 3.26 0.55
-5 10 -2 3 0.68
-5 10 -2 2.89 0.76
5 10 2 2.93 0.68
5 10 2 3.08 0.61
5 10 2 2.73 0.71
-5 10 -2 4.22 1.2
-6 -10 -2 4.99 0.95
6 -10 2 8.43 1.12
6 -10 2 5.75 0.73
-6 -10 -2 4.76 1.01
6 -10 2 4.12 1.12
-6 -10 -2 5.81 0.73
6 10 2 5.51 0.67
-6 10 -2 5.62 0.83
6 10 2 6.11 0.89
6 10 2 5.8 0.89
6 10 2 5.22 0.72
-6 10 -2 5.82 0.93
-7 -10 -2 -0.59 0.79
7 -10 2 -0.17 1.12
-7 -10 -2 -0.04 0.94
7 -10 2 0.59 0.62
-7 -10 -2 -0.05 0.74
-7 -10 -2 0.14 1.01
-7 10 -2 0.2 1.29
-7 10 -2 -0.58 0.75
7 10 2 0.59 0.62
7 10 2 -0.68 0.86
7 10 2 -0.33 0.57
-7 10 -2 0.2 0.85
7 10 2 0.44 0.61
8 -10 2 3.31 1.49
-8 -10 -2 -0.77 1
-8 -10 -2 1.84 0.96
-8 -10 -2 3.16 1.01
8 -10 2 0.95 0.8
8 -10 2 1.72 1.01
8 10 2 2.66 1.09
-8 10 -2 2.5 1.13
-8 10 -2 -0.18 1.55
8 10 2 1.68 0.67
8 10 2 2.06 0.73
-8 10 -2 -0.48 0.85
8 10 2 2.57 0.83
-8 10 -2 0.71 0.86
9 -10 2 -1.01 1.29
9 -10 2 -0.22 1.66
-9 -10 -2 0.44 1.05
9 -10 2 -0.84 0.91
-9 -10 -2 1.53 1.25
-9 10 -2 3.57 1.46
9 10 2 0.83 0.54
9 10 2 0.96 0.87
-9 10 -2 0.06 1.02
-9 10 -2 -1.05 1.82
9 10 2 0.15 0.48
9 10 2 2.04 0.78
9 -11 -2 -0.38 1.12
9 -11 -2 -2.81 1.63
9 -11 -2 -1.97 1.37
9 -11 -2 0.73 1.29
-9 11 2 1.87 1.24
9 11 -2 -0.26 0.62
9 11 -2 0.78 0.64
9 11 -2 1.02 0.54
-9 11 2 1.35 1.28
-9 11 2 -1.8 1.78
-8 -11 2 -0.14 1.16
8 -11 -2 0.67 0.88
8 -11 -2 -0.18 1.23
-8 -11 2 -0.68 0.82
8 -11 -2 -0.13 1.11
8 -11 -2 1.5 1.04
-8 11 2 0.94 1.03
-8 11 2 -1.72 1.48
-8 11 2 1.12 1.08
-8 11 2 1.13 0.91
8 11 -2 -0.25 0.49
8 11 -2 0.12 1.06
8 11 -2 -0.32 0.68
-7 -11 2 0.46 0.93
-7 -11 2 0.65 0.55
7 -11 -2 -0.71 0.9
-7 -11 2 1.19 0.65
7 -11 -2 0.31 1.1
7 11 -2 -0.3 0.45
-7 11 2 -0.58 0.87
7 11 -2 0.54 0.89
-7 11 2 1.51 1.32
7 11 -2 0.92 0.53
-7 11 2 0.48 0.77
7 11 -2 0.23 0.7
-6 -11 2 -0.07 0.49
-6 -11 2 0.45 0.82
6 -11 -2 0.72 0.58
6 -11 -2 2.88 0.81
-6 -11 2 1.46 0.56
6 -11 -2 0.53 1.02
6 11 -2 1.87 0.74
6 11 -2 3.35 0.84
-6 11 2 1.15 0.77
-6 11 2 1.38 0.72
6 11 -2 0.8 0.5
-6 11 2 2.9 1.25
6 11 -2 1.42 0.4
-5 -11 2 0.39 0.42
5 -11 -2 -0.75 0.5
5 -11 -2 0 0.66
-5 -11 2 -0.04 0.62
5 -11 -2 -0.46 0.79
-5 -11 2 -1.22 0.46
5 11 -2 0.63 0.64
5 11 -2 -0.19 0.65
5 11 -2 0.33 0.46
5 11 -2 0.08 0.33
-5 11 2 -0.99 0.56
-5 11 2 -0.26 1.2
-4 -11 2 0.4 0.35
-4 -11 2 -0.19 0.42
4 -11 -2 0.26 0.49
4 -11 -2 0.33 0.78
-4 -11 2 0.7 0.6
4 -11 -2 -0.07 0.55
-4 11 2 1.01 0.62
4 11 -2 1.19 0.64
4 11 -2 1.28 0.52
-4 11 2 0.81 0.52
3 -11 -2 -0.06 0.5
3 -11 -2 -0.16 0.48
-3 -11 2 0.06 0.41
3 -11 -2 0.27 0.76
-3 -11 2 0.09 0.29
-3 -11 2 0.89 0.51
-3 11 2 -0.23 0.51
3 11 -2 0.86 0.7
-3 11 2 0.14 0.26
3 11 -2 -0.53 0.52
-3 11 2 0.23 0.43
3 11 -2 -0.59 0.4
-2 -11 2 22.93 0.68
-2 -11 2 21.58 1.04
2 -11 -2 22.68 1.62
2 -11 -2 23.99 1.39
-2 -11 2 16.89 2.06
2 -11 -2 22.79 0.98
-2 -11 2 22.94 1.26
-2 11 2 22.17 0.82
2 11 -2 22.46 1.06
-2 11 2 15.39 2.12
2 11 -2 23.36 1.21
-2 11 2 22.34 0.88
-2 11 2 21.84 1.38
2 11 -2 24.27 1.65
-1 -11 2 1.54 0.25
-1 -11 2 1.29 0.47
1 -11 -2 1.12 0.8
-1 -11 2 1.8 0.24
1 -11 -2 1.52 0.4
1 -11 -2 1.94 0.64
-1 -11 2 1.7 0.44
-1 11 2 2.68 0.91
1 11 -2 1.33 0.77
1 11 -2 1.77 0.62
-1 11 2 1.48 0.4
1 11 -2 1.84 0.49
-1 11 2 1.15 0.6
-1 11 2 2.1 0.35
0 -11 -2 8.49 0.63
0 -11 2 8.67 0.58
0 -11 2 9.16 0.92
0 -11 -2 7.91 0.93
0 11 2 9.29 1.01
0 11 -2 7.27 0.59
0 11 2 9.04 0.52
0 11 -2 6.74 0.8
0 11 2 9.79 0.79
0 11 2 9.62 1.28
0 11 -2 10.56 1.3
1 -11 2 0.69 0.54
-1 -11 -2 1.43 0.47
1 -11 2 0.88 0.39
-1 -11 -2 1.38 0.33
-1 -11 -2 1.54 0.62
1 -11 2 1.05 0.74
1 11 2 1.58 0.52
1 11 2 1.53 0.23
1 11 2 1.33 0.72
-1 11 -2 1.21 0.41
-1 11 -2 1.38 0.52
-1 11 -2 1.72 0.8
1 11 2 1.39 0.59
-2 -11 -2 0.06 0.41
-2 -11 -2 -0.8 0.48
-2 -11 -2 0.48 0.53
2 -11 2 0.15 0.42
2 -11 2 0.33 0.64
2 -11 2 -0.34 0.46
2 11 2 0.24 0.49
-2 11 -2 0.2 0.5
2 11 2 0.51 0.55
-2 11 -2 -0.15 0.78
-2 11 -2 -0.15 0.45
2 11 2 0 0.66
3 -11 2 0.32 0.53
-3 -11 -2 0.69 0.57
3 -11 2 1.07 0.4
3 -11 2 0.66 0.48
3 -11 2 0.28 0.85
-3 -11 -2 1.18 0.46
-3 -11 -2 1.2 0.62
3 11 2 0.97 0.61
-3 11 -2 1.32 0.55
3 11 2 1.09 0.64
-3 11 -2 -0.02 0.52
-3 11 -2 1.02 0.92
3 11 2 1.38 0.56
-4 -11 -2 2.38 0.81
-4 -11 -2 2.19 0.66
4 -11 2 2.51 0.67
4 -11 2 1.65 0.93
-4 -11 -2 2.52 0.57
4 -11 2 2.46 0.51
-4 -11 -2 2.32 0.65
-4 11 -2 1.81 0.66
4 11 2 1.59 0.81
-4 11 -2 1.18 1.03
-4 11 -2 2.05 0.61
4 11 2 2.57 0.74
4 11 2 1.56 0.65
-5 -11 -2 0.07 0.77
-5 -11 -2 0.53 0.59
5 -11 2 0.78 0.72
5 -11 2 -0.43 0.56
5 -11 2 -0.56 0.9
-5 -11 -2 0.02 0.61
-5 -11 -2 0.63 0.81
-5 11 -2 0.02 0.7
-5 11 -2 0.23 1.06
5 11 2 1.06 0.73
-5 11 -2 -1.06 0.67
5 11 2 0.65 0.73
5 11 2 -1.16 0.54
6 -11 2 2.72 1.23
6 -11 2 4.86 0.79
-6 -11 -2 3.87 1.05
-6 -11 -2 3.75 0.76
6 -11 2 1.88 0.7
-6 -11 -2 1.78 0.95
-6 11 -2 4.44 0.93
-6 11 -2 3.63 0.88
6 11 2 4.44 0.91
6 11 2 4.27 0.81
-6 11 -2 3.55 1.42
6 11 2 4.85 0.97
7 -11 2 2.08 0.85
7 -11 2 0.36 1.34
-7 -11 -2 0.9 0.91
-7 -11 -2 0.12 1.02
-7 -11 -2 0.87 1.23
7 11 2 2.41 1.05
-7 11 -2 -0.43 1.02
7 11 2 2.29 0.72
-7 11 -2 -0.85 0.81
-7 11 -2 1.56 1.52
7 11 2 1.6 0.84
7 11 2 2.65 0.73
8 -11 2 4.12 1.68
-8 -11 -2 -0.57 1.32
-8 -11 -2 -2.54 1.11
8 -11 2 -1.34 1.3
8 -11 2 1.93 1.06
-8 -11 -2 2.65 1.1
8 -11 2 -0.85 1.11
-8 11 -2 -1.19 1.2
8 11 2 0.42 0.8
-8 11 -2 1.61 1.83
8 11 2 -0.98 0.77
-8 11 -2 -0.25 1.03
-8 -12 2 1.55 1.37
8 -12 -2 1.28 1.66
8 -12 -2 0.64 1.35
8 -12 -2 0.03 1.03
8 -12 -2 -1.04 1.2
-8 -12 2 0.88 1.04
-8 12 2 -0.06 1.23
-8 12 2 -0.22 1.19
8 12 -2 1.24 0.55
-8 12 2 2.43 1.83
8 12 -2 0.5 0.68
8 12 -2 0.69 0.8
-7 -12 2 -0.81 0.74
7 -12 -2 1.1 0.92
-7 -12 2 0.13 0.95
-7 -12 2 0.13 1.14
-7 -12 2 0.48 0.65
7 -12 -2 1.94 1.32
7 -12 -2 1.27 1.09
7 -12 -2 -0.08 0.96
7 12 -2 -0.62 0.81
-7 12 2 0.33 0.98
7 12 -2 -0.65 0.44
-7 12 2 0.73 0.98
-7 12 2 0.79 1.54
7 12 -2 -1.38 0.6
7 12 -2 -0.89 1.07
6 -12 -2 -0.4 0.85
-6 -12 2 0 0.61
6 -12 -2 -0.69 0.89
-6 -12 2 -0.55 0.91
-6 -12 2 -1.27 0.6
6 -12 -2 -0.52 1.2
-6 -12 2 -0.91 0.91
-6 12 2 -0.83 1.36
6 12 -2 -0.17 0.81
6 12 -2 -0.09 0.59
6 12 -2 0.04 0.94
-6 12 2 0.76 0.89
6 12 -2 -0.21 0.41
-6 12 2 1.07 0.9
-5 -12 2 1.46 0.85
-5 -12 2 -0.25 0.56
-5 -12 2 0.05 0.8
-5 -12 2 -0.18 0.49
5 -12 -2 0.35 0.72
5 -12 -2 -1.32 0.72
5 -12 -2 -0.8 1.04
-5 12 2 -1.46 0.64
5 12 -2 -0.77 0.51
-5 12 2 -0.22 0.7
5 12 -2 0.31 0.54
5 12 -2 1.01 0.82
-5 12 2 0.93 1.17
5 12 -2 -0.35 0.71
-4 -12 2 1.18 0.91
-4 -12 2 0.85 0.71
4 -12 -2 -0.01 0.64
4 -12 -2 0.5 0.73
-4 -12 2 -0.4 0.39
4 -12 -2 -0.25 0.94
-4 -12 2 -0.37 0.52
-4 12 2 1.61 0.76
-4 12 2 1 0.63
4 12 -2 0.49 0.71
4 12 -2 0.91 0.54
4 12 -2 1.4 0.73
-4 12 2 0.06 1.03
-3 -12 2 2.18 0.64
3 -12 -2 1.14 0.57
-3 -12 2 1.95 0.6
3 -12 -2 1.59 0.73
-3 -12 2 1.32 1
3 -12 -2 1.96 0.99
3 12 -2 2.39 0.83
-3 12 2 2.2 0.56
-3 12 2 2.21 0.94
3 12 -2 1.76 0.65
-3 12 2 3.33 0.81
2 -12 -2 2.04 0.76
-2 -12 2 0.16 0.28
2 -12 -2 0.32 0.79
2 -12 -2 0.69 0.5
-2 -12 2 1.12 0.85
-2 -12 2 1.09 0.55
-2 -12 2 0.54 0.57
2 12 -2 -0.18 0.48
2 12 -2 1.59 0.84
-2 12 2 1.95 0.49
-2 12 2 1.17 0.68
-2 12 2 1.5 0.41
-2 12 2 0.01 0.86
2 12 -2 0.58 0.58
-1 -12 2 -0.15 0.44
1 -12 -2 0.26 0.47
-1 -12 2 0.08 0.28
-1 -12 2 -0.14 0.25
1 -12 -2 0.47 0.5
1 -12 -2 0.92 0.45
-1 -12 2 -0.05 0.24
1 -12 -2 0.69 0.85
-1 -12 2 0.81 0.52
1 12 -2 -0.69 0.45
1 12 -2 1 0.88
-1 12 2 0.62 0.45
-1 12 2 0.52 0.58
-1 12 2 0.77 0.79
-1 12 2 0.88 0.39
1 12 -2 1.5 0.57
0 -12 2 0.11 0.36
0 -12 -2 0.63 0.65
0 -12 -2 0.21 0.4
0 -12 2 -0.02 0.54
0 -12 -2 0.2 0.5
0 -12 2 -0.24 0.45
0 12 2 -0.1 0.31
0 12 -2 0.54 0.48
0 12 -2 1.72 0.58
0 12 2 1.03 0.74
0 12 -2 0.58 0.75
0 12 2 -0.15 0.6
0 12 2 0.78 0.51
1 -12 2 0.42 0.44
-1 -12 -2 1.04 0.56
1 -12 2 1.3 0.92
1 -12 2 -0.47 0.49
-1 -12 -2 0.44 0.58
-1 -12 -2 -0.05 0.35
1 12 2 -0.04 0.23
-1 12 -2 0.25 0.49
1 12 2 1.3 0.7
1 12 2 0.22 0.7
-1 12 -2 -0.1 0.8
-1 12 -2 0.6 0.66
-1 12 -2 0.24 0.47
1 12 2 -0.38 0.56
2 -12 2 2.43 0.74
-2 -12 -2 2.82 0.64
-2 -12 -2 2.92 0.54
-2 -12 -2 1.29 0.67
-2 -12 -2 3.74 0.93
2 -12 2 3.85 0.58
2 -12 2 4.95 1.11
2 12 2 3.53 0.85
-2 12 -2 3.24 0.61
-2 12 -2 2.03 0.9
-2 12 -2 3.5 0.76
2 12 2 4.5 1.03
2 12 2 3.94 0.73
-3 -12 -2 -0.52 0.64
-3 -12 -2 -0.27 0.6
3 -12 2 -0.21 0.92
-3 -12 -2 0.53 0.54
3 -12 2 0.84 0.61
3 -12 2 -0.44 0.44
-3 -12 -2 0 0.78
3 -12 2 0.18 0.66
3 12 2 0.58 0.82
-3 12 -2 0.69 1.07
3 12 2 0.72 0.68
-3 12 -2 -0.08 0.63
-3 12 -2 -1.14 0.59
-4 -12 -2 0.25 0.91
-4 -12 -2 0.07 0.59
4 -12 2 -0.07 0.69
4 -12 2 0.7 0.54
4 -12 2 0.32 0.54
4 -12 2 -1.04 1.07
-4 -12 -2 -0.78 0.7
-4 -12 -2 -0.59 0.66
4 12 2 0.29 0.7
-4 12 -2 0.39 1.16
-4 12 -2 0.39 0.75
-4 12 -2 -0.18 0.76
4 12 2 -0.93 0.78
4 12 2 1.16 0.87
5 -12 2 0.06 0.65
5 -12 2 -0.33 0.65
-5 -12 -2 -1.21 0.88
-5 -12 -2 -0.26 0.69
-5 -12 -2 0.67 1
5 -12 2 1.47 0.82
5 -12 2 -0.46 1.22
-5 -12 -2 -0.34 0.69
5 12 2 -1.08 0.69
5 12 2 0.27 0.92
-5 12 -2 0.76 1.41
-5 12 -2 0.02 0.78
-5 12 -2 0.41 0.87
5 12 2 0.97 0.87
6 -12 2 1.24 0.83
6 -12 2 0.06 1.33
6 -12 2 1.66 0.91
-6 -12 -2 1.9 1.06
-6 -12 -2 0.9 0.86
-6 -12 -2 2.23 1.15
-6 -12 -2 0.14 0.78
6 -12 2 2.3 0.98
6 12 2 2.65 0.97
-6 12 -2 1.98 1.64
-6 12 -2 1.28 1.03
6 12 2 1.37 1.11
-6 12 -2 1.16 1.03
6 12 2 2.01 0.81
7 -12 2 -3.09 1.66
-7 -12 -2 -1.05 1.19
7 -12 2 2.13 1.03
7 -12 2 -0.2 0.95
7 -12 2 1.36 1.23
-7 -12 -2 1.14 1.4
-7 -12 -2 0.41 1
-7 12 -2 -0.24 1.76
7 12 2 0.77 1.02
7 12 2 1.73 0.89
-7 12 -2 -1.56 1.17
-7 -13 2 2.15 1.39
-7 -13 2 0.16 1.21
-7 -13 2 0.96 1
7 -13 -2 0.16 1.72
7 -13 -2 0.03 1.24
7 -13 -2 1.85 1
7 -13 -2 1.18 1.17
-7 -13 2 -0.08 0.86
-7 13 2 0.23 1.18
-7 13 2 1.21 1.88
7 13 -2 -0.55 0.46
7 13 -2 0.71 0.98
7 13 -2 -0.84 0.74
-6 -13 2 1.58 0.72
-6 -13 2 0.09 0.74
6 -13 -2 0.34 0.84
-6 -13 2 -0.64 1.09
6 -13 -2 -0.92 1.4
-6 -13 2 1.5 1.12
6 -13 -2 0.63 1.05
-6 13 2 0.5 0.97
-6 13 2 0.03 1.62
-6 13 2 0.28 1.03
6 13 -2 -1.08 0.71
6 13 -2 0.1 0.96
6 13 -2 -0.49 1.08
6 13 -2 0.52 0.44
5 -13 -2 1.18 0.8
5 -13 -2 1.13 1.33
5 -13 -2 -0.08 0.89
-5 -13 2 -0.76 0.57
-5 -13 2 2.5 1
-5 -13 2 0.78 1.05
-5 13 2 0.57 0.91
5 13 -2 1.49 0.44
5 13 -2 2.54 1.01
5 13 -2 1.73 0.76
5 13 -2 1.16 0.97
-5 13 2 1.83 0.84
-5 13 2 1.6 1.42
4 -13 -2 -0.46 0.76
4 -13 -2 0.05 0.71
-4 -13 2 -0.31 0.65
-4 -13 2 0.62 1.11
4 -13 -2 2.16 1.28
-4 -13 2 0.52 0.8
-4 -13 2 0.25 0.47
-4 13 2 0.73 0.8
4 13 -2 -0.68 0.85
-4 13 2 1.38 1.27
4 13 -2 -0.91 0.86
4 13 -2 -0.44 0.66
-3 -13 2 -0.77 0.37
3 -13 -2 0.93 0.68
-3 -13 2 0.62 0.78
3 -13 -2 0.85 0.67
-3 -13 2 1.42 0.97
3 -13 -2 2.41 1.23
-3 -13 2 1.78 0.77
-3 13 2 1.07 0.86
-3 13 2 1.68 1.19
3 13 -2 0.35 0.74
-3 13 2 0.9 0.62
3 13 -2 -0.69 0.64
3 13 -2 1.2 0.94
-2 -13 2 -1.27 0.73
-2 -13 2 0.4 0.34
2 -13 -2 1.13 0.59
-2 -13 2 1.54 1.02
2 -13 -2 -0.98 1.11
2 -13 -2 -0.2 0.74
2 -13 -2 0.27 0.6
-2 -13 2 0.65 0.64
2 13 -2 -0.05 0.97
2 13 -2 -0.65 0.63
-2 13 2 -0.33 0.52
-2 13 2 2.04 1.16
-2 13 2 -0.42 0.48
-2 13 2 0.01 0.72
1 -13 -2 0.07 0.53
1 -13 -2 0.07 0.54
1 -13 -2 1.34 1.03
-1 -13 2 0.3 0.88
-1 -13 2 0.35 0.65
-1 -13 2 0.35 0.31
1 -13 -2 -0.8 0.7
-1 -13 2 0.65 0.65
1 13 -2 1.35 0.68
-1 13 2 0.45 0.82
1 13 -2 -0.21 0.64
-1 13 2 0 0.51
-1 13 2 0.25 0.45
-1 13 2 0.21 0.73
1 13 -2 1.4 1.08
0 -13 2 -0.34 0.4
0 -13 2 0.32 0.88
0 -13 -2 1.74 1.07
0 -13 -2 -0.33 0.46
0 -13 2 -0.31 0.3
0 -13 2 -0.22 0.58
0 -13 2 -0.96 0.91
0 -13 -2 0.16 0.76
0 -13 -2 0.33 0.59
0 13 -2 -0.32 0.49
0 13 -2 0.45 0.6
0 13 -2 0.42 0.89
0 13 2 -0.6 0.99
0 13 -2 0.28 0.67
0 13 2 0.07 0.6
0 13 2 0.23 0.37
0 13 2 -0.33 0.71
1 -13 2 1.45 1.15
-1 -13 -2 0.58 0.69
-1 -13 -2 -0.15 0.93
1 -13 2 -0.07 0.68
-1 -13 -2 1.47 0.78
-1 -13 -2 -0.29 0.38
1 -13 2 -0.09 0.49
1 13 2 -0.39 0.72
-1 13 -2 1.88 1.3
-1 13 -2 -0.19 0.54
1 13 2 0.6 0.85
1 13 2 0.2 0.26
-1 13 -2 0.35 0.71
-1 13 -2 0.98 0.56
1 13 2 0.76 0.69
2 -13 2 1.88 0.65
-2 -13 -2 1.15 0.57
2 -13 2 1.04 0.69
-2 -13 -2 2.16 0.79
-2 -13 -2 1.7 0.75
2 -13 2 -0.04 0.43
-2 -13 -2 1.65 1.15
2 -13 2 1.52 1.13
2 13 2 1.19 0.95
-2 13 -2 1.79 0.87
-2 13 -2 0.46 1.16
2 13 2 1.3 0.81
-3 -13 -2 3.45 0.91
3 -13 2 3.91 0.82
-3 -13 -2 3.66 0.65
-3 -13 -2 3.8 1.16
3 -13 2 2.7 0.74
3 -13 2 1.47 1.24
-3 -13 -2 3.72 0.95
-3 13 -2 2.87 0.94
-3 13 -2 2.78 1.35
3 13 2 4.09 0.87
-3 13 -2 4.21 0.78
3 13 2 2.07 0.89
3 13 2 3.13 1.03
-4 -13 -2 1.66 0.85
-4 -13 -2 1.51 1.03
-4 -13 -2 -0.08 1.18
4 -13 2 1.45 1.24
-4 -13 -2 -0.55 0.89
4 -13 2 0.74 0.9
4 -13 2 1.73 0.88
4 -13 2 -0.31 0.63
-4 13 -2 -0.29 1.21
-4 13 -2 0.87 0.86
4 13 2 2.62 0.89
-4 13 -2 -0.98 0.94
4 13 2 1.38 1.01
4 13 2 1.74 1.05
5 -13 2 1.25 0.99
-5 -13 -2 0.12 1.28
5 -13 2 0.81 1.35
-5 -13 -2 -0.3 0.81
5 -13 2 -0.26 0.75
-5 -13 -2 1 0.84
-5 -13 -2 -0.62 1.14
5 -13 2 0.87 1.07
-5 13 -2 -0.06 0.98
5 13 2 -0.27 1.1
-5 13 -2 1.08 1.01
5 13 2 1.75 0.87
5 13 2 0.23 1.03
-5 13 -2 -0.53 1.61
6 -13 2 -2.47 1.73
6 -13 2 1.55 1.21
6 -13 2 -2.56 1.06
6 -13 2 0.47 0.97
-6 -13 -2 1.98 0.94
-6 -13 -2 -0.72 1.01
-6 -13 -2 0.73 1.3
-6 -13 -2 1.05 1.23
6 13 2 0.48 0.92
-6 13 -2 -0.53 1.71
6 13 2 -0.16 1.08
-6 13 -2 -0.03 1.18
6 13 2 0.43 1.58
-7 13 -2 0.01 1.4
-6 -14 2 0.52 1.34
-6 -14 2 2.04 1.61
-6 -14 2 -2.12 1.6
6 -14 -2 2.88 1.74
6 -14 -2 -0.78 1.24
-6 -14 2 -1.05 0.82
6 -14 -2 3.07 1.25
6 14 -2 0.84 0.5
-6 14 2 1.42 1.92
6 14 -2 1.3 0.92
6 14 -2 3.47 1.33
-6 14 2 -0.32 1.13
-5 -14 2 0.33 1.06
5 -14 -2 2.35 1.12
5 -14 -2 0.59 1.05
-5 -14 2 -1.01 0.89
5 -14 -2 0.26 1.63
-5 -14 2 0.3 1.39
-5 -14 2 -0.39 0.66
-5 14 2 -1.58 1.07
5 14 -2 0.96 0.48
5 14 -2 1.42 1.18
-5 14 2 1.69 0.98
-5 14 2 -0.24 1.65
5 14 -2 0.31 1.19
5 14 -2 -1.39 0.88
-4 -14 2 0.19 0.54
4 -14 -2 2.18 1.59
-4 -14 2 0.97 1.01
-4 -14 2 -0.21 1.24
4 -14 -2 0.01 0.89
4 -14 -2 1.62 1.15
4 14 -2 0.24 1.2
-4 14 2 0.2 1.55
-4 14 2 0.97 1
4 14 -2 2.46 0.88
-4 14 2 -0.12 0.83
4 14 -2 -0.02 1.02
-3 -14 2 0.67 0.85
-3 -14 2 0.07 0.44
-3 -14 2 -1.24 0.87
-3 -14 2 0.74 1.18
3 -14 -2 -1.71 1.43
3 -14 -2 0.9 0.8
3 -14 -2 -0.56 0.91
3 14 -2 1.4 1.12
-3 14 2 -0.13 0.91
3 14 -2 0.79 0.86
-3 14 2 0.51 1.45
3 14 -2 -0.89 0.93
-3 14 2 0.15 0.73
-2 -14 2 1.12 0.89
-2 -14 2 -0.56 1.12
2 -14 -2 1.5 1.33
-2 -14 2 -0.26 0.38
-2 -14 2 -0.2 0.88
2 -14 -2 0.62 0.81
2 -14 -2 0.87 0.71
2 -14 -2 0.72 0.7
2 14 -2 1.47 1.05
-2 14 2 0.28 0.62
-2 14 2 -0.99 0.56
-2 14 2 1.25 0.96
2 14 -2 0.86 0.87
-2 14 2 1.59 1.41
-1 -14 2 -2.48 1.08
-1 -14 2 0 0.35
-1 -14 2 -1.08 0.94
1 -14 -2 0.28 0.61
1 -14 -2 -2.09 1.32
1 -14 -2 1.36 0.74
-1 -14 2 1 0.75
1 -14 -2 1.37 0.88
1 14 -2 0.06 0.79
-1 14 2 -1.08 0.86
-1 14 2 -0.16 1.07
-1 14 2 -0.67 0.64
-1 14 2 0.6 0.53
1 14 -2 0.99 1.12
1 14 -2 -0.3 0.56
0 -14 2 0.22 0.45
0 -14 2 1.17 0.77
0 -14 2 -0.21 0.35
0 -14 -2 1.04 0.91
0 -14 -2 0.46 0.55
0 -14 -2 0.66 0.77
0 -14 -2 -0.51 1.22
0 -14 2 0.51 0.94
0 -14 2 0.13 1.21
0 14 -2 0.98 0.61
0 14 2 -0.54 0.82
0 14 2 -0.96 1.02
0 14 -2 1.57 1.23
0 14 -2 -0.44 0.81
0 14 -2 0.79 0.73
0 14 2 0.66 0.43
0 14 2 0.25 0.71
1 -14 2 -0.19 0.59
-1 -14 -2 1.8 1.19
-1 -14 -2 1.22 0.8
1 -14 2 1.89 0.78
-1 -14 -2 3.79 1.08
1 -14 2 1.57 0.78
1 -14 2 3.68 1.43
-1 -14 -2 0.58 0.63
1 14 2 0.43 1.15
-1 14 -2 0.42 1.4
-1 14 -2 1.3 0.93
1 14 2 0.47 0.88
-1 14 -2 1.74 0.71
1 14 2 1.18 0.27
2 -14 2 -1.22 0.68
-2 -14 -2 1.93 1.22
-2 -14 -2 -0.69 0.65
-2 -14 -2 0.73 1.02
2 -14 2 -1.67 1.32
-2 -14 -2 -0.09 0.9
2 -14 2 -0.3 0.65
2 -14 2 -0.35 0.51
-2 14 -2 0.67 1.36
-2 14 -2 -1.88 0.88
2 14 2 -1.32 1.09
-2 14 -2 0.47 0.72
2 14 2 2.17 0.96
2 14 2 0.07 0.9
3 -14 2 0.08 0.62
3 -14 2 1.78 1.15
-3 -14 -2 3.18 1.09
-3 -14 -2 4.41 1.49
3 -14 2 2.31 1.5
-3 -14 -2 2 0.98
-3 14 -2 1.92 0.87
3 14 2 3.98 1.12
-3 14 -2 5.54 1.81
3 14 2 3.02 1.37
-3 14 -2 3.01 1
4 -14 2 -0.06 1.65
-4 -14 -2 1.05 1.47
-4 -14 -2 0.45 1.06
4 -14 2 2.5 1.08
4 -14 2 -0.93 0.72
-4 -14 -2 1.11 0.87
4 -14 2 0.89 1.01
-4 -14 -2 0.9 0.93
4 14 2 1.08 1.05
-4 14 -2 2.46 1.02
-4 14 -2 0.46 1.11
4 14 2 -0.21 1.03
4 14 2 0.43 1.23
-4 14 -2 -0.77 1.57
5 -14 2 0.96 1.02
-5 -14 -2 -0.65 1.34
-5 -14 -2 0.8 1.05
5 -14 2 3.32 1.87
5 -14 2 1.63 1.21
5 -14 2 -1.24 1.22
-5 -14 -2 2.22 1.02
-5 14 -2 2.99 2.02
5 14 2 -0.64 1.43
-5 14 -2 2.61 1.12
5 14 2 4.88 1.41
5 14 2 -0.24 1.06
5 15 -2 1.37 1.62
-5 15 2 1.64 1.18
-5 15 2 0.15 2.06
-4 -15 2 0.31 0.66
4 -15 -2 -1.58 1.12
4 -15 -2 2.14 1.84
-4 -15 2 2.39 1.28
4 -15 -2 0.75 1.23
-4 -15 2 0.83 1.09
-4 15 2 4.5 1.99
4 15 -2 1.71 1.28
-4 15 2 1.13 0.99
4 15 -2 -1.12 1.11
4 15 -2 -0.24 1.29
4 15 -2 0.47 0.54
-3 -15 2 1.03 1.15
-3 -15 2 0.45 0.5
3 -15 -2 1.37 1.85
3 -15 -2 2.95 0.89
3 -15 -2 1.58 1.13
-3 -15 2 -1.04 0.99
3 -15 -2 0.27 0.98
3 15 -2 0.66 1.03
-3 15 2 1.56 1.52
-3 15 2 -0.59 1.16
3 15 -2 1.27 1.18
3 15 -2 2.58 1.21
3 15 -2 2.13 0.59
2 -15 -2 0.07 0.85
2 -15 -2 1.4 1.16
-2 -15 2 4.91 1.15
2 -15 -2 2.65 1
-2 -15 2 4.87 1.66
-2 -15 2 3.17 1.06
2 -15 -2 2.36 1.73
2 15 -2 2.26 1.13
2 15 -2 2.91 1.46
2 15 -2 0.85 1.17
-2 15 2 0.53 0.72
-2 15 2 1.9 1.18
-2 15 2 1.79 0.76
2 15 -2 2.73 0.66
-2 15 2 2.6 1.43
-1 -15 2 0.18 0.4
-1 -15 2 1.34 0.98
-1 -15 2 0.61 1.41
-1 -15 2 -0.16 0.91
1 -15 -2 1.85 1.67
1 -15 -2 -0.37 0.99
1 -15 -2 0.74 0.89
1 -15 -2 1.02 0.74
-1 15 2 -2.79 1.22
1 15 -2 0.6 0.69
1 15 -2 1.21 1.07
-1 15 2 1.6 1.24
-1 15 2 0.08 0.61
1 15 -2 -0.68 0.94
1 15 -2 1.35 1.3
0 -15 2 4.57 1.27
0 -15 -2 6.81 1.71
0 -15 -2 9.27 1.36
0 -15 2 6.48 1.11
0 -15 -2 7 1.12
0 -15 2 7.27 1.86
0 15 2 3.78 1.4
0 15 -2 6.5 1.26
0 15 2 5.29 0.56
0 15 2 5.74 1.26
0 15 -2 5.39 1.65
0 15 -2 5.59 0.83
-1 -15 -2 0.73 0.76
-1 -15 -2 -0.06 1.05
1 -15 2 -2.15 1.69
1 -15 2 -0.29 0.97
-1 -15 -2 -1.7 1.12
1 -15 2 -0.48 0.71
-1 -15 -2 -2.86 1.98
1 -15 2 0.3 0.5
1 -15 2 -0.9 0.9
1 15 2 -1.39 1.01
-1 15 -2 3.86 1.6
1 15 2 0.08 1.25
-1 15 -2 -0.97 1.15
-1 15 -2 0.96 0.83
1 15 2 -1 0.94
-2 -15 -2 2.68 1.24
2 -15 2 -0.24 0.82
2 -15 2 0.33 2.04
-2 -15 -2 4.32 1.16
2 -15 2 -0.76 1.01
2 -15 2 0.45 0.61
-2 15 -2 2.59 1.15
-2 15 -2 2.68 0.95
-2 15 -2 1.25 1.84
2 15 2 -0.1 1.35
2 15 2 -1.13 1.07
2 15 2 1.37 1.16
-3 -15 -2 0.4 1.24
-3 -15 -2 -0.2 0.89
3 -15 2 0.02 0.8
3 -15 2 -0.02 1
-3 -15 -2 2.4 1.23
3 -15 2 -0.88 1.09
-3 15 -2 -1.24 2
3 15 2 -0.2 1.1
3 15 2 -0.08 1.29
-3 15 -2 0.13 1.03
3 15 2 1.73 1.46
-3 15 -2 1.14 1.22
-4 -15 -2 0.5 1.4
-4 -15 -2 0.62 1.02
4 -15 2 2.9 1.27
4 -15 2 1.25 1.14
-4 -15 -2 -1.97 1.28
4 15 2 1.47 1.29
4 15 2 2.32 1.51
4 15 2 3.53 1.68
-4 15 -2 1.32 1.18
-4 15 -2 2.15 2.14
2 -16 -2 -0.7 1.11
1 -16 -2 2.28 1.43
-1 -16 2 1.48 1.8
-1 -16 2 3.91 1.3
1 -16 -2 0.08 1.08
-1 16 2 -2.85 1.4
-1 16 2 -0.97 1.76
-1 16 2 0.89 1.02
1 16 -2 2.62 1.43
1 16 -2 2.78 1.26
-1 16 2 2.05 0.75
1 16 -2 1.32 0.83
0 -16 -2 1.45 1.24
0 -16 2 0.39 1.93
0 -16 2 3.35 1.33
0 -16 -2 1.99 1.44
0 16 2 0.19 1.12
0 16 -2 0.85 1.43
0 16 -2 0.83 1.04
0 16 2 -1.38 1.4
0 16 -2 4.02 2.53
0 16 -2 0.61 1.13
-1 -16 -2 0.6 1.39
-1 -16 -2 1.53 1.28
1 -16 2 1.43 1.39
-1 16 -2 0.31 1.48
-1 16 -2 1.67 1
1 16 2 3.03 1.5
13 0 -3 0.84 1.38
13 0 -3 -1.6 1.08
12 0 -3 0.49 0.85
12 0 -3 0.44 1.07
12 0 -3 -0.1 0.95
12 0 -3 0.15 0.98
12 0 -3 2.08 1.06
11 0 -3 -0.23 0.78
11 0 -3 1.84 0.86
11 0 -3 -0.62 0.79
11 0 -3 -1.42 0.75
11 0 -3 0.19 0.77
10 0 -3 -0.5 0.58
10 0 -3 -0.14 0.63
10 0 -3 -0.69 0.54
10 0 -3 -0.04 0.53
10 0 -3 0.1 0.65
10 0 -3 0.41 0.52
9 0 -3 -0.26 0.48
-9 0 3 0.08 0.51
9 0 -3 -0.05 0.39
9 0 -3 0.38 0.58
9 0 -3 -0.59 0.43
9 0 -3 0.03 0.51
9 0 -3 0.24 0.51
8 0 -3 0.57 0.4
8 0 -3 0.27 0.41
8 0 -3 -0.03 0.35
8 0 -3 0.03 0.4
8 0 -3 0.2 0.41
-8 0 3 -0.35 0.37
8 0 -3 0.01 0.32
-7 0 3 -0.02 0.3
-7 0 3 0.25 0.32
7 0 -3 0.05 0.31
7 0 -3 0.17 0.28
7 0 -3 -0.17 0.32
7 0 -3 0.41 0.32
7 0 -3 -0.01 0.27
6 0 -3 0.57 0.24
-6 0 3 0.26 0.26
6 0 -3 0.75 0.27
6 0 -3 0.14 0.25
-6 0 3 0.45 0.25
6 0 -3 0.09 0.24
6 0 -3 0.55 0.21
6 0 -3 0.34 0.19
5 0 -3 -0.01 0.18
5 0 -3 -0.02 0.2
5 0 -3 -0.09 0.14
-5 0 3 0.03 0.18
-5 0 3 -0.19 0.2
5 0 -3 0.12 0.16
5 0 -3 -0.07 0.1
5 0 -3 0.01 0.18
-5 0 3 0.05 0.1
5 0 -3 0.02 0.21
4 0 -3 0.03 0.12
4 0 -3 0.2 0.17
-4 0 3 -0.08 0.07
4 0 -3 0.05 0.15
4 0 -3 0.11 0.15
4 0 -3 0.03 0.13
-4 0 3 -0.1 0.13
-4 0 3 0.05 0.08
4 0 -3 -0.1 0.08
-4 0 3 -0.06 0.17
3 0 -3 -0.05 0.16
3 0 -3 0.08 0.13
-3 0 3 -0.08 0.1
-3 0 3 -0.11 0.11
-3 0 3 0.01 0.07
3 0 -3 -0.06 0.09
3 0 -3 -0.06 0.12
3 0 -3 0.03 0.11
3 0 -3 -0.05 0.08
-3 0 3 -0.04 0.11
2 0 -3 0.08 0.1
2 0 -3 0.01 0.06
2 0 -3 -0.08 0.08
-2 0 3 -0.05 0.08
-2 0 3 -0.14 0.09
-2 0 3 0.11 0.1
2 0 -3 -0.06 0.08
2 0 -3 -0.04 0.09
-2 0 3 -0.07 0.09
-2 0 3 -0.1 0.1
2 0 -3 -0.07 0.09
1 0 -3 0.15 0.1
1 0 -3 0.12 0.07
-1 0 3 0.17 0.09
1 0 -3 -0.06 0.09
1 0 -3 0.05 0.14
-1 0 3 0.13 0.1
0 0 3 0.02 0.06
0 0 -3 0.01 0.06
0 0 -3 -0.05 0.09
0 0 3 0.05 0.14
0 0 -3 0.06 0.11
0 0 3 0.08 0.1
0 0 3 0.06 0.07
0 0 -3 0.04 0.16
1 0 3 -0.11 0.12
1 0 3 0.09 0.11
-1 0 -3 0.18 0.09
-1 0 -3 0.13 0.18
1 0 3 -0.05 0.14
-1 0 -3 0.04 0.1
1 0 3 0 0.04
-2 0 -3 -0.21 0.19
-2 0 -3 0.01 0.12
2 0 3 -0.04 0.12
2 0 3 -0.08 0.11
2 0 3 -0.06 0.15
-3 0 -3 0.22 0.26
3 0 3 0.1 0.16
-3 0 -3 -0.08 0.15
3 0 3 0.09 0.19
-3 0 -3 0.18 0.16
3 0 3 -0.04 0.14
4 0 3 0.08 0.07
4 0 3 -0.1 0.17
4 0 3 -0.01 0.23
-4 0 -3 -0.14 0.16
-4 0 -3 0.01 0.2
4 0 3 -0.11 0.19
-4 0 -3 -0.06 0.2
-4 0 -3 0.33 0.32
-5 0 -3 -0.28 0.24
5 0 3 0.1 0.1
5 0 3 0.05 0.19
-5 0 -3 -0.11 0.19
5 0 3 -0.16 0.24
-5 0 -3 0.16 0.35
5 0 3 0.07 0.26
-5 0 -3 0.08 0.27
6 0 3 -0.09 0.32
6 0 3 -0.26 0.24
-6 0 -3 -0.15 0.32
-6 0 -3 0.13 0.41
-6 0 -3 -0.07 0.31
6 0 3 -0.69 0.26
-6 0 -3 -0.47 0.2
-7 0 -3 -0.23 0.5
-7 0 -3 -0.01 0.43
7 0 3 -0.38 0.46
7 0 3 0.2 0.29
-7 0 -3 -0.25 0.28
7 0 3 0.14 0.36
-7 0 -3 -0.36 0.38
-8 0 -3 0.54 0.53
-8 0 -3 -0.63 0.33
8 0 3 -0.19 0.31
8 0 3 0.19 0.42
-8 0 -3 0.07 0.59
-8 0 -3 -0.34 0.48
-9 0 -3 0.23 0.73
9 0 3 0.22 0.56
9 0 3 0.36 0.41
-9 0 -3 0.08 0.43
-9 0 -3 0.24 0.64
9 0 3 1.03 0.7
10 0 3 0.35 0.87
-10 0 -3 -1.25 0.79
-10 0 -3 0.5 0.6
10 0 3 0.03 0.48
-10 0 -3 0.17 0.85
10 0 3 0.24 0.97
11 0 3 -0.48 0.71
11 0 3 0.4 1.51
-11 0 -3 0.18 1.09
-11 0 -3 -0.45 0.69
11 0 3 -1.21 0.55
11 0 3 -2.61 1.32
13 -1 -3 -1.81 1.42
13 1 -3 0.63 1.35
12 -1 -3 2.76 1.18
12 -1 -3 2.07 1.1
12 -1 -3 0.75 1.11
12 -1 -3 0.21 1
12 -1 -3 -0.34 0.8
12 1 -3 1.64 1.08
12 1 -3 -0.26 0.87
12 1 -3 1.34 0.95
12 1 -3 2.79 0.99
12 1 -3 0.19 0.89
12 1 -3 1.16 1.03
11 -1 -3 0.3 0.78
11 -1 -3 0.58 0.85
11 -1 -3 1.26 0.63
11 -1 -3 0.24 0.86
11 -1 -3 -0.51 0.8
-11 1 3 -0.8 0.81
11 1 -3 0.83 0.84
11 1 -3 0.55 0.72
11 1 -3 0.35 0.69
11 1 -3 0.98 0.82
11 1 -3 -0.02 0.71
11 1 -3 1 0.82
10 -1 -3 0.23 0.46
10 -1 -3 0.35 0.69
10 -1 -3 0.59 0.59
10 -1 -3 0.62 0.71
10 -1 -3 0.31 0.28
10 1 -3 -0.45 0.6
-10 1 3 1.08 0.7
10 1 -3 0.8 0.61
10 1 -3 0.24 0.64
10 1 -3 0.91 0.55
10 1 -3 -0.01 0.54
9 -1 -3 3.44 0.45
9 -1 -3 2.8 0.49
9 -1 -3 3.24 0.36
9 -1 -3 3.5 0.56
9 -1 -3 2.99 0.61
9 -1 -3 2.97 0.48
9 1 -3 2.88 0.61
9 1 -3 3.06 0.53
9 1 -3 2.47 0.5
9 1 -3 2.85 0.56
9 1 -3 2.63 0.54
-9 1 3 3.09 0.53
9 1 -3 3.35 0.59
8 -1 -3 11.68 0.78
8 -1 -3 10.03 0.7
8 -1 -3 11.8 0.54
8 -1 -3 9.94 0.79
8 -1 -3 10.34 0.71
8 -1 -3 10.11 0.61
8 -1 -3 10.58 0.72
8 1 -3 11.56 0.72
-8 1 3 11.19 0.57
8 1 -3 11.2 0.77
8 1 -3 12.03 0.78
-8 1 3 10.8 0.48
8 1 -3 11.39 0.77
-8 1 3 11.82 0.83
8 1 -3 10.84 0.71
-8 1 3 10.05 0.72
8 1 -3 9.63 0.74
7 -1 -3 5.87 0.56
7 -1 -3 6.08 0.5
7 -1 -3 6.34 0.46
7 -1 -3 5.58 0.39
7 -1 -3 6.48 0.52
7 -1 -3 5.94 0.48
7 -1 -3 6.15 0.53
-7 1 3 6.72 0.48
-7 1 3 5.89 0.36
7 1 -3 5.99 0.52
7 1 -3 6.22 0.55
7 1 -3 5.47 0.44
7 1 -3 5.96 0.51
-7 1 3 6.68 0.52
7 1 -3 6.53 0.49
-7 1 3 6.32 0.44
7 1 -3 6.2 0.49
6 -1 -3 2.86 0.34
6 -1 -3 3 0.35
6 -1 -3 2.69 0.3
6 -1 -3 2.89 0.26
6 -1 -3 3.49 0.35
6 -1 -3 2.99 0.29
-6 1 3 3.24 0.28
6 1 -3 2.91 0.31
6 1 -3 3.23 0.35
6 1 -3 3.48 0.34
-6 1 3 3.95 0.46
6 1 -3 3.06 0.34
6 1 -3 3.69 0.38
-6 1 3 3.4 0.32
6 1 -3 3.67 0.35
-6 1 3 2.98 0.35
5 -1 -3 0.83 0.23
5 -1 -3 0.98 0.17
5 -1 -3 0.88 0.24
5 -1 -3 0.75 0.16
5 -1 -3 0.99 0.21
5 -1 -3 1 0.22
5 1 -3 1.19 0.23
5 1 -3 0.63 0.19
5 1 -3 0.94 0.24
-5 1 3 0.98 0.17
5 1 -3 1.09 0.24
-5 1 3 1.29 0.25
-5 1 3 1.16 0.25
5 1 -3 0.77 0.22
5 1 -3 0.98 0.22
-4 -1 3 17.98 0.58
4 -1 -3 18.86 0.51
4 -1 -3 19.19 0.6
4 -1 -3 19.24 0.6
4 -1 -3 18.91 0.65
4 -1 -3 18.87 0.58
-4 -1 3 19.29 0.58
4 -1 -3 19.48 0.6
-4 1 3 19.61 0.59
4 1 -3 19.56 0.55
4 1 -3 18.09 0.56
-4 1 3 18.88 0.6
-4 1 3 18.46 0.58
4 1 -3 19.62 0.6
4 1 -3 18.52 0.55
4 1 -3 19.1 0.57
4 1 -3 18.31 0.57
-4 1 3 18.02 0.51
3 -1 -3 9.93 0.37
-3 -1 3 9.07 0.28
-3 -1 3 9.64 0.36
-3 -1 3 9.86 0.36
3 -1 -3 9.71 0.39
3 -1 -3 9.6 0.42
3 -1 -3 9.57 0.3
-3 -1 3 9.64 0.3
-3 -1 3 9.44 0.33
3 -1 -3 9.82 0.37
3 1 -3 9.16 0.35
3 1 -3 10.1 0.32
3 1 -3 10.37 0.34
-3 1 3 9.73 0.38
-3 1 3 10.1 0.42
-3 1 3 10.01 0.31
3 1 -3 9.94 0.35
3 1 -3 10.42 0.37
3 1 -3 10.18 0.31
-3 1 3 10.29 0.37
-3 1 3 10.04 0.37
-2 -1 3 12.96 0.34
-2 -1 3 12.63 0.38
-2 -1 3 12.97 0.38
-2 -1 3 12.66 0.42
-2 -1 3 12.31 0.35
2 -1 -3 12.12 0.47
2 -1 -3 12.48 0.46
2 -1 -3 12.3 0.38
2 -1 -3 12.44 0.39
2 -1 -3 12.42 0.37
2 1 -3 12.29 0.37
-2 1 3 12.35 0.34
-2 1 3 11.54 0.38
-2 1 3 12.39 0.45
2 1 -3 12.47 0.36
2 1 -3 12.56 0.39
-2 1 3 12.32 0.46
2 1 -3 12.22 0.38
2 1 -3 12.54 0.45
2 1 -3 12.1 0.32
-2 1 3 12.41 0.38
1 -1 -3 388.9 7.88
-1 -1 3 391.51 8.08
-1 -1 3 389.6 8.03
1 -1 -3 385.25 8.06
1 -1 -3 393.05 7.89
1 -1 -3 393.12 8.05
-1 -1 3 386.99 8.05
-1 -1 3 394.32 7.98
-1 -1 3 391.17 8.09
1 1 -3 397.89 8.1
1 1 -3 376.01 7.88
1 1 -3 391.92 7.95
-1 1 3 373.82 8.05
1 1 -3 384.22 8.06
-1 1 3 400.62 8.02
-1 1 3 386.08 7.88
-1 1 3 371.49 8.03
0 -1 -3 96.51 2.06
0 -1 -3 95.34 2.22
0 -1 3 99.27 2.19
0 -1 3 95.81 2.28
0 -1 3 92.68 2.06
0 1 -3 97.56 2.02
0 1 -3 95.25 2.18
0 1 3 97.87 2.21
0 1 3 99 2.06
0 1 -3 100.09 2.31
0 1 3 99.25 2.01
0 1 3 97.34 2.25
1 -1 3 386.68 8.26
-1 -1 -3 393.13 8.16
1 -1 3 393.21 8.15
-1 -1 -3 389.57 8.21
1 1 3 388.61 7.99
-1 1 -3 405.79 7.99
-1 1 -3 387.07 8.14
1 1 3 382.35 8.19
-1 1 -3 385.92 8.28
-1 1 -3 399.25 7.99
1 1 3 384.07 8.14
1 1 3 402.17 8.12
-2 -1 -3 0.7 0.15
2 -1 3 0.6 0.15
-2 -1 -3 0.8 0.24
2 -1 3 0.81 0.25
-2 -1 -3 0.81 0.18
2 -1 3 1 0.14
-2 1 -3 0.71 0.16
-2 1 -3 0.86 0.29
-2 1 -3 0.76 0.14
2 1 3 0.4 0.14
2 1 3 0.65 0.2
-3 -1 -3 4.26 0.28
-3 -1 -3 4.56 0.36
3 -1 3 4.52 0.46
3 -1 3 4.76 0.29
-3 -1 -3 4.71 0.31
-3 -1 -3 4.63 0.53
3 -1 3 4.38 0.36
3 1 3 3.94 0.3
-3 1 -3 4.63 0.52
3 1 3 4.66 0.36
-3 1 -3 4.1 0.31
-3 1 -3 4.45 0.35
3 1 3 3.94 0.41
-4 -1 -3 0.35 0.19
-4 -1 -3 0.2 0.21
-4 -1 -3 0.17 0.3
-4 -1 -3 0.48 0.19
4 -1 3 0.27 0.25
4 -1 3 0.38 0.2
4 -1 3 0.5 0.2
-4 1 -3 0.24 0.21
4 1 3 0.15 0.21
4 1 3 0.45 0.11
-4 1 -3 0.37 0.19
4 1 3 0.3 0.22
-4 1 -3 0.5 0.23
-4 1 -3 0.48 0.34
4 1 3 0.34 0.2
-5 -1 -3 0.25 0.23
-5 -1 -3 -0.34 0.34
-5 -1 -3 -0.13 0.26
5 -1 3 -0.26 0.24
5 -1 3 -0.43 0.26
-5 -1 -3 0.19 0.21
5 -1 3 0.36 0.22
5 1 3 -0.28 0.25
5 1 3 0.22 0.19
-5 1 -3 0.05 0.26
5 1 3 -0.09 0.26
-5 1 -3 0.05 0.19
-5 1 -3 -0.06 0.28
5 1 3 0.29 0.13
-5 1 -3 0.35 0.35
-6 -1 -3 0.76 0.26
6 -1 3 0.97 0.31
6 -1 3 1.16 0.41
-6 -1 -3 0.29 0.37
-6 -1 -3 0.91 0.33
6 -1 3 0.91 0.36
-6 -1 -3 0.32 0.45
6 1 3 0.85 0.33
6 1 3 1.43 0.42
-6 1 -3 0.89 0.29
-6 1 -3 0.53 0.48
-6 1 -3 0.98 0.36
-6 1 -3 0.58 0.35
6 1 3 1.04 0.18
6 1 3 0.99 0.36
6 1 3 0.6 0.26
7 -1 3 17.98 0.88
-7 -1 -3 16.44 1.1
-7 -1 -3 18.01 0.94
-7 -1 -3 17.17 0.85
7 -1 3 16.75 0.87
7 -1 3 17.11 1.01
-7 -1 -3 18.51 0.86
-7 1 -3 17.36 0.9
7 1 3 16.88 0.85
-7 1 -3 17.77 0.87
-7 1 -3 17.68 1.2
7 1 3 18.62 1.5
-7 1 -3 17.47 0.9
7 1 3 16.78 0.55
-8 -1 -3 0.81 0.5
8 -1 3 0.86 0.39
-8 -1 -3 1.14 0.6
-8 -1 -3 0.82 0.63
-8 -1 -3 1.32 0.44
8 -1 3 1.3 0.52
-8 1 -3 1.74 0.57
8 1 3 0.68 0.27
8 1 3 0.99 0.37
-8 1 -3 0.79 0.71
-9 -1 -3 -0.68 0.66
9 -1 3 1.21 0.68
9 -1 3 2.52 0.52
-9 -1 -3 1.6 0.78
-9 -1 -3 1.66 0.77
-9 -1 -3 1.76 0.56
9 -1 3 1.36 0.61
-9 1 -3 1.36 0.74
9 1 3 1.65 1.17
9 1 3 1.62 0.53
-9 1 -3 0.03 0.74
-10 -1 -3 0.79 0.85
-10 -1 -3 -1.27 0.8
10 -1 3 -0.81 0.84
10 -1 3 -0.05 0.52
10 -1 3 -0.07 0.64
10 1 3 -0.5 0.56
-10 1 -3 0.65 0.58
-10 1 -3 0.72 0.94
10 1 3 0.19 0.49
10 1 3 0.23 0.81
-10 1 -3 -0.03 0.85
10 1 3 -0.93 0.89
11 -1 3 1.92 1.39
-11 -1 -3 1.09 0.8
11 -1 3 1.38 0.63
-11 -1 -3 0.16 0.65
11 -1 3 1.47 1.84
-11 -1 -3 0.94 1.1
11 1 3 0.43 0.77
11 1 3 0.19 0.57
-11 1 -3 0.7 0.76
-11 1 -3 -1 1.1
11 1 3 1.38 1.87
-11 1 -3 -1.81 1.03
12 -2 -3 5.49 1.22
12 -2 -3 6.49 1.28
12 -2 -3 5.68 0.77
12 -2 -3 5.77 1.2
12 2 -3 3.87 0.98
12 2 -3 4.63 1.11
12 2 -3 5.93 1.04
12 2 -3 5 1.08
12 2 -3 5.91 1.08
-12 2 3 4.77 1.25
12 2 -3 4.29 1.17
11 -2 -3 0.75 0.92
11 -2 -3 0.67 0.84
11 -2 -3 -0.26 0.35
11 -2 -3 -0.51 0.87
11 -2 -3 -1.58 0.54
11 -2 -3 0.96 0.63
11 2 -3 -0.05 0.76
11 2 -3 0.65 0.73
11 2 -3 0.09 0.79
11 2 -3 -1.63 0.77
11 2 -3 0.99 0.79
11 2 -3 -0.19 0.71
-11 2 3 0.17 0.88
10 -2 -3 0.92 0.72
10 -2 -3 0.11 0.37
10 -2 -3 1.04 0.64
10 -2 -3 0.95 0.46
10 -2 -3 1.19 0.54
-10 2 3 0.43 0.56
-10 2 3 -0.01 0.29
10 2 -3 0.51 0.6
10 2 -3 0.46 0.61
-10 2 3 0.81 0.72
-10 2 3 0.1 0.37
10 2 -3 1.25 0.63
10 2 -3 1.21 0.58
10 2 -3 0.96 0.59
10 2 -3 -0.64 0.61
9 -2 -3 0.87 0.36
9 -2 -3 1.16 0.51
9 -2 -3 1.35 0.35
9 2 -3 1.65 0.53
9 2 -3 1.2 0.5
-9 2 3 0.79 0.36
9 2 -3 1.63 0.53
-9 2 3 1.3 0.57
9 2 -3 0.08 0.49
-9 2 3 1.04 0.32
9 2 -3 0.9 0.47
-9 2 3 1.52 0.48
8 -2 -3 1.6 0.4
8 -2 -3 0.87 0.42
8 -2 -3 1.87 0.5
8 -2 -3 0.93 0.45
8 -2 -3 1.43 0.3
8 -2 -3 1.45 0.29
8 2 -3 1.32 0.39
-8 2 3 0.78 0.49
8 2 -3 1.94 0.45
8 2 -3 1.26 0.41
8 2 -3 1.32 0.42
-8 2 3 1.17 0.28
-8 2 3 1 0.39
8 2 -3 1.27 0.4
8 2 -3 2.1 0.44
7 -2 -3 2.93 0.44
7 -2 -3 2.44 0.39
7 -2 -3 3.07 0.38
7 -2 -3 2.94 0.28
7 -2 -3 2.67 0.41
7 -2 -3 3.25 0.47
7 2 -3 2.94 0.37
7 2 -3 2.7 0.39
7 2 -3 2.16 0.38
-7 2 3 3.03 0.36
7 2 -3 3.55 0.38
-7 2 3 2.95 0.43
-7 2 3 2.42 0.36
7 2 -3 2.91 0.37
7 2 -3 3.55 0.42
6 -2 -3 15.7 0.51
6 -2 -3 15.58 0.66
6 -2 -3 16.31 0.65
6 -2 -3 16.34 0.75
6 -2 -3 16.04 0.71
6 2 -3 15.35 0.62
-6 2 3 15.25 0.62
-6 2 3 16.16 0.64
-6 2 3 15.69 0.7
6 2 -3 16.2 0.65
6 2 -3 15.55 0.65
6 2 -3 16.7 0.61
6 2 -3 16.78 0.65
6 2 -3 16.69 0.65
-6 2 3 16.7 0.74
5 -2 -3 4.86 0.36
5 -2 -3 4.88 0.26
5 -2 -3 4.52 0.39
5 -2 -3 5.13 0.46
5 -2 -3 5.66 0.45
5 2 -3 5.2 0.36
5 2 -3 5.09 0.37
5 2 -3 5.21 0.35
5 2 -3 5.33 0.39
-5 2 3 5.26 0.39
5 2 -3 5.82 0.41
-5 2 3 5.04 0.46
-5 2 3 5.8 0.44
5 2 -3 5.03 0.4
-5 2 3 4.87 0.34
4 -2 -3 39.61 1.04
4 -2 -3 42.94 1.22
-4 -2 3 41.53 1.05
4 -2 -3 41.37 1.05
4 -2 -3 41.07 0.91
4 -2 -3 41.85 1.14
-4 2 3 42.55 1.05
-4 2 3 40.82 1.03
4 2 -3 39.7 0.98
4 2 -3 40.2 1.03
4 2 -3 40.93 1.02
4 2 -3 40.63 1.02
4 2 -3 41.28 0.97
4 2 -3 41.64 1.04
-4 2 3 41.27 1.19
-4 2 3 42.15 1.12
-3 -2 3 18.25 0.56
3 -2 -3 18.99 0.69
3 -2 -3 18.51 0.64
-3 -2 3 18.02 0.51
3 -2 -3 18.33 0.55
-3 -2 3 18.53 0.53
-3 -2 3 17.62 0.47
3 -2 -3 17.11 0.54
3 2 -3 17.59 0.48
3 2 -3 18.37 0.55
3 2 -3 18.2 0.55
3 2 -3 18.96 0.5
-3 2 3 17.25 0.62
3 2 -3 18.15 0.48
-3 2 3 18.68 0.55
-3 2 3 17.92 0.44
-3 2 3 17.46 0.54
-3 2 3 17.34 0.66
3 2 -3 18.43 0.48
-3 2 3 17.9 0.55
3 2 -3 18.95 0.55
2 -2 -3 47.77 1.29
-2 -2 3 46.81 1.04
2 -2 -3 49.78 1.09
2 -2 -3 47.64 1.25
-2 -2 3 44.35 1.12
2 -2 -3 49.45 1.1
-2 -2 3 46.46 1.19
-2 -2 3 49.19 1.11
-2 -2 3 47.55 1.06
-2 2 3 45.09 1.09
2 2 -3 49.57 1.13
2 2 -3 49.36 1.23
2 2 -3 47.8 1.04
2 2 -3 50.06 1.11
2 2 -3 47.8 1.06
-2 2 3 46.43 1.27
-2 2 3 46.98 1.09
-2 2 3 47.63 1.24
2 2 -3 47.66 1.09
1 -2 -3 21.17 0.71
1 -2 -3 20.66 0.7
-1 -2 3 20.55 0.7
1 -2 -3 20.1 0.5
1 -2 -3 20.54 0.54
-1 -2 3 20.19 0.54
-1 -2 3 19.98 0.62
1 2 -3 19.98 0.61
-1 2 3 21.13 0.54
-1 2 3 20.91 0.7
1 2 -3 21.21 0.55
1 2 -3 20.66 0.73
0 -2 -3 596.92 12.23
0 -2 -3 594.42 12.15
0 -2 -3 608.24 12.2
0 -2 -3 577.49 12.21
0 -2 3 579.01 12.28
0 -2 3 596.56 12.32
0 -2 3 569.32 12.12
0 2 3 603.98 12.21
0 2 -3 584.52 12.29
0 2 -3 595.27 12.45
0 2 3 597.38 12.41
0 2 3 602.77 12.18
0 2 3 566.39 12.19
0 2 -3 610.43 12.08
1 -2 3 9.9 0.56
-1 -2 -3 10.04 0.49
1 -2 3 9.97 0.29
1 -2 3 9.84 0.45
-1 -2 -3 10.16 0.47
-1 -2 -3 9.74 0.36
-1 -2 -3 9.8 0.34
1 2 3 9.63 0.35
-1 2 -3 10.46 0.45
-1 2 -3 9.94 0.29
1 2 3 9.44 0.47
-1 2 -3 9.93 0.57
1 2 3 9.87 0.46
1 2 3 10 0.33
-2 -2 -3 10.23 0.49
2 -2 3 10.52 0.61
2 -2 3 10.66 0.5
-2 -2 -3 9.6 0.36
2 -2 3 10.18 0.34
-2 -2 -3 10.55 0.56
2 2 3 9.89 0.39
-2 2 -3 9.94 0.48
2 2 3 10.48 0.49
2 2 3 10.76 0.53
2 2 3 9.68 0.4
-2 2 -3 10.3 0.35
-2 2 -3 10.42 0.66
-3 -2 -3 38.31 1.22
3 -2 3 38.27 1.32
3 -2 3 38.35 1.17
3 -2 3 38.6 0.94
-3 -2 -3 37.9 1.13
-3 -2 -3 38.61 0.97
-3 -2 -3 38.87 0.9
-3 2 -3 37.66 1.34
-3 2 -3 39.69 0.82
3 2 3 36.96 1
3 2 3 37.7 1.17
3 2 3 37.16 1.1
-3 2 -3 38.46 0.95
-3 2 -3 38.04 1.14
-4 -2 -3 37.56 1.33
4 -2 3 41.9 1.29
-4 -2 -3 40.93 1.08
-4 -2 -3 41.39 1.23
4 -2 3 42.57 1.06
-4 -2 -3 44.09 1.03
4 -2 3 42.32 1.46
4 2 3 42.74 1.21
4 2 3 40.74 1.13
4 2 3 39.69 1.06
4 2 3 39.45 1.26
-4 2 -3 41.91 0.88
-4 2 -3 42.47 1.1
-4 2 -3 42.31 1.49
-4 2 -3 40.62 1.25
-4 2 -3 40.92 1.06
5 -2 3 0.6 0.39
5 -2 3 0.93 0.29
-5 -2 -3 0.49 0.29
-5 -2 -3 0.77 0.26
5 -2 3 0.66 0.27
-5 -2 -3 0.72 0.25
-5 -2 -3 0.49 0.35
5 2 3 1 0.31
5 2 3 0.54 0.26
5 2 3 0.66 0.17
-5 2 -3 0.62 0.41
-5 2 -3 0.64 0.29
5 2 3 1.01 0.28
-5 2 -3 0.71 0.3
-5 2 -3 0.27 0.25
5 2 3 0.52 0.23
6 -2 3 5.31 0.7
-6 -2 -3 3.66 0.39
6 -2 3 4.05 0.53
-6 -2 -3 4.43 0.48
-6 -2 -3 4.13 0.6
6 -2 3 4.44 0.44
-6 -2 -3 3.61 0.45
-6 2 -3 4.52 0.7
6 2 3 3.92 0.51
6 2 3 4.03 0.48
6 2 3 4.15 0.46
6 2 3 4.44 0.45
-6 2 -3 3.54 0.44
-6 2 -3 4.72 0.52
-6 2 -3 3.86 0.46
6 2 3 4.02 0.28
-7 -2 -3 0.05 0.37
-7 -2 -3 0.47 0.46
-7 -2 -3 0.14 0.46
-7 -2 -3 0.5 0.33
7 -2 3 -0.01 0.29
7 -2 3 0.16 0.43
7 -2 3 0.22 0.41
7 2 3 0.27 0.36
-7 2 -3 0.1 0.6
7 2 3 0.09 0.22
-7 2 -3 0.22 0.3
7 2 3 1.18 0.74
7 2 3 0.04 0.27
-7 2 -3 0.03 0.42
8 -2 3 9.17 0.9
-8 -2 -3 8.37 0.76
-8 -2 -3 8.05 0.65
8 -2 3 9.12 1.02
-8 -2 -3 7.59 0.74
-8 2 -3 8.53 0.8
8 2 3 9.18 0.83
-8 2 -3 8.85 1.05
8 2 3 8.33 0.7
8 2 3 7.68 0.53
-8 2 -3 7.43 0.71
-9 -2 -3 1.67 0.72
-9 -2 -3 2.22 0.68
-9 -2 -3 0.93 0.74
9 -2 3 3.4 0.76
9 -2 3 2.73 0.58
9 -2 3 2.89 0.73
-9 -2 -3 3.69 0.6
9 2 3 2.19 0.72
9 2 3 2.4 0.91
9 2 3 2.42 0.58
9 2 3 2.68 0.38
9 2 3 1.8 0.68
-9 2 -3 1.65 0.85
-9 2 -3 2.32 0.75
10 -2 3 -0.75 0.72
-10 -2 -3 -0.16 0.93
10 -2 3 0.49 0.53
-10 -2 -3 0.91 0.81
10 -2 3 -1.19 0.93
-10 2 -3 0.93 0.97
10 2 3 -0.77 0.81
10 2 3 0.7 0.48
-10 2 -3 0.98 0.62
-10 2 -3 0.05 0.9
10 2 3 0.68 0.44
10 2 3 1.18 0.97
-11 -2 -3 0.34 1.02
-11 -2 -3 -0.61 0.81
11 -2 3 3.24 0.98
-11 -2 -3 1.69 0.71
11 -2 3 3.61 0.83
-11 2 -3 0.41 0.78
11 2 3 2.36 0.64
11 2 3 1.96 0.68
-11 2 -3 2.19 1.19
-11 2 -3 0.03 1.24
12 -3 -3 0.61 0.57
12 -3 -3 2.94 0.91
12 -3 -3 2.91 1.28
12 -3 -3 1.7 1.8
12 -3 -3 -0.39 0.63
12 3 -3 0.85 1.01
12 3 -3 0.5 0.96
12 3 -3 0.86 0.95
12 3 -3 1.69 1.11
-12 3 3 0.63 1.21
12 3 -3 1.91 1.1
12 3 -3 0.07 0.98
11 -3 -3 1.91 0.52
11 -3 -3 3.1 1.01
11 -3 -3 2.11 0.89
11 -3 -3 1.34 0.52
11 -3 -3 1.49 0.87
-11 3 3 1.82 0.48
-11 3 3 2.36 1
-11 3 3 0.22 0.53
11 3 -3 1.73 0.83
11 3 -3 2.04 0.78
11 3 -3 2.53 0.85
-11 3 3 3.1 0.76
11 3 -3 2.1 0.77
11 3 -3 2.42 0.88
11 3 -3 1.58 0.75
10 -3 -3 1 0.75
10 -3 -3 0.43 0.37
10 -3 -3 -0.03 0.65
10 -3 -3 0.79 0.44
10 -3 -3 0.24 0.49
10 -3 -3 0.07 0.72
10 3 -3 0.88 0.68
10 3 -3 -0.37 0.65
-10 3 3 -0.18 0.71
-10 3 3 1.36 0.6
10 3 -3 1.03 0.59
10 3 -3 0.34 0.6
10 3 -3 -0.07 0.6
10 3 -3 0.22 0.61
9 -3 -3 0.57 0.6
9 -3 -3 0.99 0.52
9 -3 -3 0.31 0.3
9 -3 -3 0.08 0.34
-9 3 3 -0.1 0.43
9 3 -3 0.33 0.49
-9 3 3 0.49 0.35
9 3 -3 0.34 0.46
-9 3 3 -0.28 0.57
9 3 -3 0.82 0.49
9 3 -3 0 0.46
-9 3 3 0.67 0.5
9 3 -3 0.26 0.51
8 -3 -3 16.25 0.97
8 -3 -3 18.21 0.83
8 -3 -3 18.64 0.64
8 -3 -3 18.82 1.03
-8 3 3 18.31 1.02
8 3 -3 18.93 0.86
8 3 -3 18.24 0.88
-8 3 3 19.35 1.02
8 3 -3 18.35 0.85
-8 3 3 17 0.81
-8 3 3 18.8 0.86
8 3 -3 17.99 0.81
8 3 -3 17.48 0.91
8 3 -3 17.99 0.86
7 -3 -3 1.2 0.35
7 -3 -3 1.75 0.43
7 -3 -3 1.65 0.31
7 -3 -3 1.76 0.43
7 -3 -3 1.4 0.38
7 -3 -3 1.86 0.22
7 3 -3 1.98 0.37
-7 3 3 2.35 0.34
-7 3 3 2.2 0.38
7 3 -3 2.25 0.38
7 3 -3 1.75 0.31
7 3 -3 1.8 0.39
7 3 -3 1.95 0.37
-7 3 3 1.63 0.41
-7 3 3 2.04 0.44
7 3 -3 1.47 0.36
6 -3 -3 14.56 0.67
6 -3 -3 15.4 0.72
6 -3 -3 14.99 0.69
6 -3 -3 14.83 0.44
6 -3 -3 14.87 0.8
6 3 -3 14.47 0.56
-6 3 3 14.21 0.71
6 3 -3 14.47 0.67
6 3 -3 14.26 0.62
-6 3 3 15.04 0.63
-6 3 3 14.61 0.8
6 3 -3 14.28 0.6
6 3 -3 14.11 0.63
-6 3 3 14.76 0.66
6 3 -3 14.26 0.64
5 -3 -3 0.87 0.31
5 -3 -3 0.96 0.12
5 -3 -3 0.87 0.23
5 -3 -3 0.61 0.25
5 -3 -3 0.95 0.28
5 3 -3 1.16 0.23
-5 3 3 0.76 0.31
5 3 -3 0.81 0.21
5 3 -3 0.66 0.2
-5 3 3 0.32 0.23
-5 3 3 0.81 0.22
5 3 -3 0.7 0.25
5 3 -3 0.71 0.19
5 3 -3 1.16 0.28
-5 3 3 0.62 0.27
4 -3 -3 -0.18 0.21
-4 -3 3 0.15 0.17
4 -3 -3 0.18 0.2
4 -3 -3 0.09 0.23
4 -3 -3 -0.02 0.14
-4 3 3 0.16 0.25
4 3 -3 0.05 0.13
4 3 -3 0.1 0.14
-4 3 3 -0.02 0.16
-4 3 3 0.39 0.22
4 3 -3 0.3 0.14
4 3 -3 -0.03 0.13
-4 3 3 0.1 0.2
4 3 -3 -0.03 0.19
4 3 -3 -0.08 0.18
3 -3 -3 0.22 0.16
-3 -3 3 0.41 0.16
3 -3 -3 0.49 0.2
-3 -3 3 0.62 0.19
3 -3 -3 0.24 0.16
3 -3 -3 0.41 0.16
-3 -3 3 0.44 0.16
-3 -3 3 0.37 0.1
-3 3 3 0.39 0.17
-3 3 3 0.48 0.17
-3 3 3 0.45 0.07
-3 3 3 0.33 0.16
3 3 -3 0.54 0.18
-3 3 3 0.69 0.22
3 3 -3 0.29 0.15
3 3 -3 0.45 0.12
3 3 -3 0.33 0.1
3 3 -3 0.58 0.13
-3 3 3 0.35 0.16
3 3 -3 0.6 0.12
-2 -3 3 97.74 2.35
-2 -3 3 101.22 2.1
2 -3 -3 102.35 2.49
2 -3 -3 104.69 2.17
2 -3 -3 103.01 2.42
2 -3 -3 100.33 2.19
-2 -3 3 100.21 2.21
-2 -3 3 101.55 2.17
-2 -3 3 101.13 2.27
-2 3 3 103.72 2.17
2 3 -3 102.8 2.09
2 3 -3 102.9 2.38
2 3 -3 99.88 2.11
-2 3 3 101.04 2.46
2 3 -3 99.83 2.21
-2 3 3 98.78 2.4
-2 3 3 100.81 2.18
2 3 -3 103.55 2.27
-1 -3 3 89.24 1.93
-1 -3 3 88.39 2.07
-1 -3 3 89.6 1.87
1 -3 -3 92.48 1.88
1 -3 -3 88.14 2.16
1 -3 -3 86.69 2.2
-1 -3 3 86.9 2.17
1 -3 -3 90.15 1.91
1 3 -3 86.35 1.93
-1 3 3 90.77 1.91
-1 3 3 88.1 2.15
1 3 -3 89.49 2.06
1 3 -3 88.81 2.19
-1 3 3 88.01 2.19
0 -3 3 116.49 2.64
0 -3 -3 110.78 2.41
0 -3 3 113.62 2.76
0 -3 -3 113.87 2.7
0 -3 -3 114.13 2.35
0 -3 -3 113.39 2.68
0 -3 3 117.48 2.43
0 -3 -3 115.88 2.41
0 3 -3 116.51 2.33
0 3 -3 116.68 2.79
0 3 -3 115.77 2.62
0 3 3 112.47 2.67
0 3 3 113.64 2.4
0 3 3 108.32 2.67
0 3 3 116.04 2.41
-1 -3 -3 40.28 0.95
1 -3 3 39.7 0.87
-1 -3 -3 38.62 1.17
-1 -3 -3 38.3 1.17
1 -3 3 39.7 1.28
-1 -3 -3 39.25 0.94
1 -3 3 38.81 1.15
1 3 3 39.42 1.16
1 3 3 40.66 1.16
-1 3 -3 39.98 1.31
-1 3 -3 38.87 1.14
-1 3 -3 40.39 0.88
1 3 3 40 0.93
1 3 3 39.56 0.93
2 -3 3 9.2 0.63
-2 -3 -3 10.08 0.53
-2 -3 -3 9.81 0.39
-2 -3 -3 9.69 0.42
-2 -3 -3 9.22 0.51
2 -3 3 9.26 0.51
-2 -3 -3 9.39 0.27
2 -3 3 9.42 0.32
-2 3 -3 9.37 0.34
2 3 3 9.32 0.38
-2 3 -3 9.25 0.68
-2 3 -3 8.48 0.5
2 3 3 9.59 0.51
2 3 3 9.44 0.51
2 3 3 9.41 0.4
-3 -3 -3 23.66 0.7
3 -3 3 24.02 0.67
-3 -3 -3 23.66 0.94
-3 -3 -3 24.66 0.88
3 -3 3 24.21 0.91
-3 -3 -3 24.79 0.61
3 -3 3 23.17 1.05
-3 3 -3 24.88 0.68
3 3 3 24.45 0.71
3 3 3 24.4 0.74
-3 3 -3 24.01 0.89
3 3 3 24.57 0.89
3 3 3 23.76 0.85
-3 3 -3 24.12 1.11
-4 -3 -3 9.61 0.68
4 -3 3 8.96 0.59
4 -3 3 9.66 0.76
-4 -3 -3 9.66 0.39
-4 -3 -3 8.72 0.46
4 -3 3 8.88 0.45
-4 -3 -3 9.36 0.56
-4 3 -3 8.79 0.47
4 3 3 9.52 0.55
-4 3 -3 9.5 0.53
-4 3 -3 8.97 0.83
4 3 3 8.78 0.57
-4 3 -3 9.21 0.32
4 3 3 9.72 0.52
-4 3 -3 9.11 0.57
-5 -3 -3 0.82 0.32
-5 -3 -3 0.9 0.25
5 -3 3 0.94 0.3
-5 -3 -3 1.21 0.3
5 -3 3 1.07 0.33
5 -3 3 0.36 0.37
-5 -3 -3 1.23 0.43
-5 3 -3 0.92 0.15
-5 3 -3 0.76 0.49
-5 3 -3 0.92 0.28
5 3 3 1 0.28
5 3 3 0.93 0.31
5 3 3 1.18 0.28
5 3 3 1.21 0.3
-5 3 -3 0.94 0.31
-6 -3 -3 4.6 0.39
-6 -3 -3 3.6 0.59
-6 -3 -3 3.76 0.47
6 -3 3 3.41 0.46
-6 -3 -3 3.32 0.45
6 -3 3 3.53 0.62
6 -3 3 3.55 0.42
-6 3 -3 3.95 0.29
6 3 3 4.34 0.52
-6 3 -3 4.57 0.8
6 3 3 4.2 0.49
-6 3 -3 4.29 0.52
6 3 3 3.62 0.45
6 3 3 4.11 0.47
6 3 3 4.33 0.31
-6 3 -3 3.52 0.45
-7 -3 -3 19.71 1.17
7 -3 3 20.34 1.03
7 -3 3 20.7 0.95
-7 -3 -3 20.12 0.88
-7 -3 -3 21.46 0.97
-7 -3 -3 21.57 0.94
7 -3 3 20.81 1.24
-7 3 -3 20.66 1.06
-7 3 -3 21.59 1.47
7 3 3 21.41 1.04
7 3 3 19.83 0.7
7 3 3 20.11 0.87
7 3 3 21.6 0.98
7 3 3 19.66 0.94
-7 3 -3 21.3 1.04
-8 -3 -3 24.52 1.06
-8 -3 -3 22.5 1.06
-8 -3 -3 22.26 1.18
8 -3 3 20.9 1.41
8 -3 3 22.09 1.16
-8 3 -3 21.32 1.14
-8 3 -3 23.14 1.62
-8 3 -3 22.29 1.21
8 3 3 23.54 0.81
8 3 3 23.3 1
8 3 3 21.73 1.05
-9 -3 -3 0.43 0.7
9 -3 3 1.01 0.51
-9 -3 -3 0.21 0.63
9 -3 3 -0.48 0.65
-9 -3 -3 0.15 0.47
9 -3 3 -0.25 0.67
-9 3 -3 0.99 0.75
-9 3 -3 0.22 0.9
9 3 3 0.71 0.74
9 3 3 0.65 0.45
-9 3 -3 0.47 0.53
9 3 3 0.06 0.73
9 3 3 -1.51 0.64
9 3 3 0.19 0.4
-10 -3 -3 7.7 1.3
10 -3 3 8.25 1.05
-10 -3 -3 5.26 0.86
10 -3 3 7.21 0.91
10 -3 3 6.98 1.05
-10 -3 -3 8.57 1.12
10 3 3 5.89 0.78
-10 3 -3 5.29 1.12
10 3 3 6.78 0.59
10 3 3 3.91 0.97
10 3 3 5.79 1.06
-10 3 -3 6.05 0.87
11 -3 3 0.1 0.97
-11 -3 -3 -1.49 0.83
11 -3 3 1.17 0.84
-11 -3 -3 2.37 1.06
-11 3 -3 2.25 1.28
-11 3 -3 -0.16 1.35
-11 3 -3 0.94 0.82
11 3 3 2.01 0.55
11 3 3 0.23 0.6
11 3 3 0.23 0.59
12 -4 -3 0.49 0.86
12 -4 -3 1.28 0.58
12 -4 -3 1.14 0.64
12 -4 -3 -0.65 1.29
12 4 -3 1.6 1.06
-12 4 3 2.33 0.62
12 4 -3 0.76 0.99
12 4 -3 -0.5 0.95
12 4 -3 1.22 1.04
12 4 -3 -0.42 1.1
12 4 -3 -1.31 1.13
-12 4 3 0.21 1.3
-12 4 3 0.24 0.73
11 -4 -3 0.7 0.44
11 -4 -3 0.49 0.52
11 -4 -3 -0.24 0.67
11 -4 -3 1.65 0.98
11 -4 -3 2.25 1.04
11 4 -3 -0.23 0.85
11 4 -3 0.72 0.71
-11 4 3 0.64 0.92
11 4 -3 -0.38 0.82
11 4 -3 0.65 0.8
-11 4 3 0.67 0.72
11 4 -3 -0.17 0.87
-11 4 3 0.57 0.59
11 4 -3 1.27 0.9
10 -4 -3 3.03 0.39
10 -4 -3 4.77 0.84
10 -4 -3 4.02 0.75
10 -4 -3 3.5 0.81
10 -4 -3 3.45 0.62
10 -4 -3 4.66 0.9
10 4 -3 4.03 0.74
10 4 -3 2.29 0.66
10 4 -3 3.21 0.75
10 4 -3 4.29 0.75
10 4 -3 3.76 0.64
-10 4 3 3.83 0.57
-10 4 3 1.86 0.78
-10 4 3 3.69 0.71
10 4 -3 4.48 0.69
9 -4 -3 -0.23 0.5
9 -4 -3 -0.12 0.26
9 -4 -3 0.43 0.35
9 -4 -3 -0.29 0.63
9 4 -3 0.1 0.45
9 4 -3 -0.07 0.45
-9 4 3 0.06 0.58
-9 4 3 -0.1 0.54
9 4 -3 -0.42 0.49
9 4 -3 0.18 0.55
9 4 -3 -0.03 0.45
-9 4 3 -0.02 0.5
9 4 -3 0.72 0.54
8 -4 -3 13.32 0.49
8 -4 -3 13.41 1
8 -4 -3 13.54 0.95
8 -4 -3 12.06 0.8
8 -4 -3 12.61 0.89
-8 4 3 13.89 0.99
8 4 -3 14.28 0.73
8 4 -3 13.75 0.85
8 4 -3 13.15 0.91
8 4 -3 14.07 0.79
8 4 -3 12.45 0.79
-8 4 3 14.1 1.05
-8 4 3 14.01 0.8
-8 4 3 13.48 0.8
8 4 -3 12.78 0.83
7 -4 -3 14.4 0.44
7 -4 -3 14.53 0.78
7 -4 -3 16.36 0.89
7 -4 -3 14.94 0.8
7 -4 -3 13.6 0.94
-7 4 3 15.78 0.79
7 4 -3 15.95 0.69
-7 4 3 15.21 0.99
7 4 -3 14.76 0.73
7 4 -3 15.33 0.77
-7 4 3 14.79 0.88
7 4 -3 15.59 0.65
7 4 -3 17.07 0.76
7 4 -3 16 0.84
-7 4 3 15.49 0.75
6 -4 -3 0.4 0.34
6 -4 -3 0.39 0.3
6 -4 -3 0.66 0.37
6 -4 -3 0.36 0.25
6 4 -3 0.5 0.21
6 4 -3 0.32 0.31
6 4 -3 0.39 0.32
6 4 -3 0.19 0.27
-6 4 3 0.39 0.4
-6 4 3 0.38 0.29
-6 4 3 0.38 0.24
-6 4 3 0.2 0.33
6 4 -3 0.63 0.28
6 4 -3 0.63 0.26
5 -4 -3 18.44 0.96
5 -4 -3 19.1 0.74
5 -4 -3 18.4 0.8
5 -4 -3 18.98 0.7
-5 -4 3 18.32 0.72
-5 4 3 17.85 0.78
-5 4 3 19.39 0.94
5 4 -3 17.51 0.65
-5 4 3 18.9 0.73
5 4 -3 18.53 0.71
5 4 -3 17.88 0.67
5 4 -3 18.35 0.6
5 4 -3 18.69 0.64
-5 4 3 18.56 0.68
5 4 -3 18.44 0.54
-4 -4 3 14.41 0.56
4 -4 -3 14.35 0.59
-4 -4 3 14.59 0.56
4 -4 -3 14.2 0.55
-4 -4 3 12.84 0.47
4 -4 -3 14.72 0.79
4 -4 -3 14.49 0.68
4 4 -3 13.84 0.58
-4 4 3 13.59 0.56
-4 4 3 13.53 0.65
4 4 -3 13.96 0.41
-4 4 3 14.21 0.79
-4 4 3 14.41 0.57
4 4 -3 14.24 0.55
4 4 -3 14.01 0.5
4 4 -3 13.3 0.44
4 4 -3 12.49 0.53
-3 -4 3 2.54 0.18
-3 -4 3 2.87 0.29
-3 -4 3 2.42 0.24
-3 -4 3 3.07 0.27
-3 -4 3 3.21 0.35
3 -4 -3 3.42 0.45
3 -4 -3 2.17 0.3
3 -4 -3 3.13 0.29
3 -4 -3 2.89 0.24
3 4 -3 3.05 0.24
3 4 -3 2.69 0.28
-3 4 3 2.88 0.12
3 4 -3 2.99 0.26
-3 4 3 2.55 0.39
3 4 -3 3.29 0.41
-3 4 3 2.98 0.37
3 4 -3 3.12 0.2
3 4 -3 2.78 0.19
-3 4 3 3.42 0.28
2 -4 -3 14 0.49
-2 -4 3 13.7 0.54
2 -4 -3 13.12 0.62
-2 -4 3 13.47 0.45
2 -4 -3 13.52 0.44
-2 -4 3 13.6 0.36
2 -4 -3 15.07 0.73
-2 -4 3 14.04 0.51
-2 -4 3 13.78 0.63
-2 4 3 14.66 0.74
-2 4 3 14.2 0.48
2 4 -3 13.67 0.54
2 4 -3 13.89 0.66
2 4 -3 13.79 0.49
-2 4 3 13.67 0.45
2 4 -3 13.87 0.33
-2 4 3 13.53 0.62
1 -4 -3 7.01 0.33
1 -4 -3 7.08 0.47
1 -4 -3 6.74 0.26
-1 -4 3 7.3 0.36
-1 -4 3 7.29 0.49
1 -4 -3 6.84 0.53
-1 -4 3 7.03 0.4
1 4 -3 6.84 0.41
1 4 -3 6.97 0.55
1 4 -3 6.98 0.34
-1 4 3 6.53 0.26
-1 4 3 6.85 0.32
-1 4 3 6.61 0.45
-1 4 3 6.83 0.53
0 -4 3 30.39 0.77
0 -4 3 29.54 1.08
0 -4 -3 29.33 0.65
0 -4 -3 29.58 1.01
0 -4 3 30.19 0.62
0 -4 -3 29.74 0.75
0 -4 -3 31.47 0.75
0 -4 -3 28.62 1.05
0 -4 3 28.88 0.94
0 4 -3 29.11 1.11
0 4 -3 29.24 0.95
0 4 3 29.67 0.73
0 4 3 29.17 1.04
0 4 3 29.32 0.99
1 -4 3 4.5 0.53
-1 -4 -3 4.89 0.3
-1 -4 -3 4.51 0.42
1 -4 3 4.4 0.2
-1 -4 -3 4.91 0.44
1 -4 3 5.1 0.29
1 -4 3 4.75 0.41
-1 4 -3 4.6 0.56
1 4 3 4.58 0.43
-1 4 -3 4.89 0.42
1 4 3 4.35 0.4
2 -4 3 6.98 0.29
2 -4 3 6.25 0.48
-2 -4 -3 6.52 0.48
2 -4 3 6.61 0.62
-2 -4 -3 6.58 0.39
-2 -4 -3 7.3 0.5
-2 -4 -3 6.8 0.36
2 4 3 6.73 0.35
-2 4 -3 6.83 0.49
-2 4 -3 5.99 0.7
2 4 3 6.33 0.5
2 4 3 7.5 0.49
2 4 3 6.44 0.34
-3 -4 -3 7.9 0.29
-3 -4 -3 8.05 0.5
-3 -4 -3 7.71 0.56
3 -4 3 8.61 0.38
-3 -4 -3 8.2 0.44
-3 -4 -3 8.6 0.56
3 -4 3 8.57 0.71
3 -4 3 8.57 0.57
3 4 3 8.5 0.55
-3 4 -3 9.04 0.56
3 4 3 8.12 0.53
3 4 3 7.93 0.43
3 4 3 7.47 0.42
-3 4 -3 8.36 0.78
4 -4 3 11.95 0.51
-4 -4 -3 11.74 0.43
4 -4 3 11.14 0.87
-4 -4 -3 12.14 0.57
-4 -4 -3 12.25 0.76
-4 -4 -3 11.57 0.65
4 -4 3 12.36 0.69
-4 4 -3 11.95 0.61
-4 4 -3 10.6 0.96
4 4 3 12.19 0.66
4 4 3 10.68 0.57
-4 4 -3 11.93 0.69
4 4 3 12.53 0.57
4 4 3 12.11 0.63
-5 -4 -3 4.39 0.39
5 -4 3 4.4 0.66
5 -4 3 4.53 0.55
-5 -4 -3 4.74 0.59
5 -4 3 3.95 0.37
-5 -4 -3 5.18 0.45
-5 -4 -3 3.91 0.52
-5 4 -3 3.65 0.44
5 4 3 4.22 0.47
-5 4 -3 3.86 0.32
5 4 3 4.58 0.44
-5 4 -3 4.05 0.71
5 4 3 3.91 0.49
-5 4 -3 4.59 0.54
6 -4 3 11.8 0.79
-6 -4 -3 12.79 0.96
-6 -4 -3 11.08 0.74
6 -4 3 12.12 1.03
-6 -4 -3 11.95 0.78
-6 -4 -3 11.09 0.61
6 -4 3 11.71 0.72
-6 4 -3 11.06 0.8
-6 4 -3 11.32 1.19
6 4 3 11.89 0.75
-6 4 -3 11.17 0.47
6 4 3 11.9 0.69
6 4 3 11.88 0.73
-6 4 -3 11.88 0.77
-7 -4 -3 2.01 0.48
-7 -4 -3 2.04 0.62
7 -4 3 2.45 0.54
-7 -4 -3 1.84 0.61
7 -4 3 3.57 0.75
-7 -4 -3 1.94 0.4
7 -4 3 1.99 0.59
-7 4 -3 2.17 0.73
7 4 3 2.12 0.49
7 4 3 2.41 0.42
-7 4 -3 1.4 0.4
-7 4 -3 2.31 0.26
7 4 3 2.61 0.45
7 4 3 1.84 0.45
7 4 3 2.14 0.35
-8 -4 -3 -0.15 0.46
-8 -4 -3 0.33 0.46
-8 -4 -3 -0.17 0.57
8 -4 3 -0.07 0.64
8 -4 3 0.85 0.48
-8 -4 -3 -0.6 0.59
8 4 3 0.56 0.55
-8 4 -3 0.28 0.59
8 4 3 0.41 0.39
8 4 3 -0.18 0.35
-8 4 -3 1.19 0.92
8 4 3 -0.18 0.37
-9 -4 -3 1.84 0.83
9 -4 3 2.83 0.57
-9 -4 -3 1.52 0.56
9 -4 3 2.93 0.8
9 -4 3 3.07 0.85
-9 -4 -3 2.66 0.63
-9 4 -3 3 0.83
9 4 3 3.21 0.51
-9 4 -3 0.67 1.01
-9 4 -3 2.91 0.67
9 4 3 3.37 0.54
9 4 3 3.29 0.78
9 4 3 2.29 0.61
9 4 3 2.6 0.76
10 -4 3 0.89 0.69
10 -4 3 -0.38 0.88
10 -4 3 1.46 0.98
-10 -4 -3 1.47 0.95
-10 -4 -3 1.35 1.06
-10 -4 -3 1.93 0.72
-10 -4 -3 0.89 0.73
10 4 3 1.67 0.48
-10 4 -3 0.44 0.71
-10 4 -3 -0.48 0.98
10 4 3 0.92 0.57
-10 4 -3 -0.2 1.13
10 4 3 0.93 0.93
10 4 3 1.51 0.58
11 -4 3 2.4 1.12
11 -4 3 2.32 0.85
-11 -4 -3 3.88 1.3
11 4 3 2.33 0.6
-11 4 -3 0.84 1.51
-11 4 -3 3.19 0.95
11 4 3 1.09 0.7
-11 4 -3 3.31 1.4
11 4 3 1.83 0.62
12 -5 -3 -0.6 0.93
12 -5 -3 1.06 0.75
12 -5 -3 -1.06 1.38
12 5 -3 -0.3 0.93
12 5 -3 -0.15 0.97
12 5 -3 0.03 1.23
12 5 -3 0.35 1.14
-12 5 3 -0.41 0.71
-12 5 3 0.08 1.04
12 5 -3 1 1.11
-12 5 3 2.54 1.31
11 -5 -3 1.64 1
11 -5 -3 0.24 0.31
11 -5 -3 0.1 1.15
11 -5 -3 0.75 0.83
11 -5 -3 1.58 0.67
11 5 -3 0.65 0.79
-11 5 3 0.65 0.63
-11 5 3 0.01 1.03
11 5 -3 1.04 0.91
11 5 -3 -0.56 0.88
-11 5 3 0.88 0.9
11 5 -3 0.21 1
11 5 -3 -0.98 0.83
-11 5 3 -0.05 0.84
11 5 -3 0.7 0.72
10 -5 -3 2.2 0.82
10 -5 -3 1.5 0.25
10 -5 -3 0.87 0.8
10 -5 -3 2.61 0.92
10 -5 -3 1.64 0.56
10 5 -3 1.86 0.57
-10 5 3 0.75 0.76
10 5 -3 1.96 0.71
-10 5 3 2.36 0.69
-10 5 3 1.06 0.6
-10 5 3 1.81 0.81
10 5 -3 1.14 0.66
10 5 -3 1.61 0.78
10 5 -3 1.36 0.67
10 5 -3 1.89 0.63
9 -5 -3 2.65 0.69
9 -5 -3 2.59 0.75
9 -5 -3 2.96 0.51
9 -5 -3 1.19 0.6
-9 5 3 2.56 0.59
-9 5 3 2.51 0.53
9 5 -3 3.04 0.66
9 5 -3 1.85 0.57
9 5 -3 2.5 0.55
-9 5 3 2.73 0.69
9 5 -3 2.57 0.47
9 5 -3 2.31 0.61
9 5 -3 2.35 0.53
8 -5 -3 14.55 1.06
8 -5 -3 13.19 0.95
8 -5 -3 10.59 1.02
8 -5 -3 12 0.84
8 5 -3 13.45 0.83
-8 5 3 13.78 0.85
-8 5 3 12.44 1.04
8 5 -3 11.82 0.79
8 5 -3 12.41 0.98
-8 5 3 13.81 1.2
8 5 -3 12.67 0.88
8 5 -3 12.08 0.8
8 5 -3 11.37 0.69
7 -5 -3 1.54 0.5
7 -5 -3 1.28 0.36
7 -5 -3 1.3 0.48
7 -5 -3 1.45 0.46
7 5 -3 1.86 0.4
-7 5 3 1.44 0.4
7 5 -3 1.47 0.36
-7 5 3 1.69 0.61
-7 5 3 2.07 0.45
7 5 -3 1.69 0.43
7 5 -3 1.39 0.29
7 5 -3 1.37 0.35
7 5 -3 1.19 0.44
-7 5 3 1.31 0.47
-6 -5 3 20.32 0.87
6 -5 -3 17.73 1.05
6 -5 -3 19.9 0.89
6 -5 -3 19.29 0.93
6 -5 -3 19.35 0.78
6 5 -3 19.27 0.6
-6 5 3 19.4 1.12
6 5 -3 18.46 0.73
6 5 -3 19.96 0.8
6 5 -3 18.48 0.87
-6 5 3 19.21 0.8
6 5 -3 19.51 0.68
-6 5 3 18.7 0.88
6 5 -3 18.42 0.75
-6 5 3 19.08 0.84
-5 -5 3 0.67 0.16
-5 -5 3 0.7 0.33
5 -5 -3 0.52 0.33
5 -5 -3 0.88 0.41
-5 -5 3 0.85 0.24
5 -5 -3 0.52 0.27
5 -5 -3 0.54 0.3
-5 5 3 0.4 0.25
5 5 -3 0.6 0.24
-5 5 3 0.75 0.45
-5 5 3 0.08 0.28
5 5 -3 0.4 0.22
5 5 -3 0.34 0.16
-5 5 3 0.48 0.29
5 5 -3 0.54 0.18
5 5 -3 0.62 0.32
5 5 -3 0.64 0.2
5 5 -3 0.48 0.23
4 -5 -3 19.13 0.86
-4 -5 3 18.78 0.74
-4 -5 3 19.57 0.69
4 -5 -3 18.12 0.97
4 -5 -3 17.89 0.65
4 -5 -3 17.66 0.69
-4 5 3 18.58 0.99
4 5 -3 18.67 0.72
4 5 -3 18.9 0.47
4 5 -3 18.71 0.63
4 5 -3 18.55 0.54
-4 5 3 17.69 0.81
4 5 -3 19.03 0.75
4 5 -3 18.39 0.64
-4 5 3 19.21 0.69
3 -5 -3 0.26 0.31
-3 -5 3 0.61 0.14
3 -5 -3 0.87 0.2
-3 -5 3 0.76 0.25
-3 -5 3 0.49 0.23
3 -5 -3 0.5 0.23
-3 -5 3 0.6 0.19
-3 -5 3 0.6 0.21
3 -5 -3 0.24 0.19
3 5 -3 0.57 0.12
3 5 -3 0.37 0.22
-3 5 3 0.52 0.22
3 5 -3 0.56 0.17
-3 5 3 0.41 0.19
3 5 -3 0.87 0.3
-3 5 3 0.61 0.33
-3 5 3 0.67 0.08
-2 -5 3 0.33 0.18
-2 -5 3 0.77 0.25
-2 -5 3 0.54 0.23
-2 -5 3 0.55 0.1
2 -5 -3 0.63 0.3
2 -5 -3 0.26 0.21
-2 -5 3 0.54 0.18
2 -5 -3 0.45 0.14
2 -5 -3 0.42 0.19
2 5 -3 0.23 0.15
2 5 -3 0.31 0.18
-2 5 3 0.43 0.28
-2 5 3 0.37 0.16
-2 5 3 0.26 0.18
-2 5 3 0.21 0.15
2 5 -3 0.24 0.27
1 -5 -3 5.77 0.35
-1 -5 3 5.12 0.38
1 -5 -3 5.31 0.25
1 -5 -3 5.59 0.47
-1 -5 3 6.16 0.53
-1 -5 3 5.65 0.28
-1 -5 3 5.64 0.42
1 -5 -3 5.51 0.55
-1 5 3 5.36 0.33
1 5 -3 4.93 0.41
-1 5 3 5.15 0.47
1 5 -3 5.4 0.6
1 5 -3 5.64 0.35
-1 5 3 5.81 0.59
-1 5 3 5.39 0.27
0 -5 -3 0.28 0.15
0 -5 -3 0.24 0.22
0 -5 -3 0.13 0.26
0 -5 -3 0.38 0.17
0 -5 3 0.25 0.17
0 -5 3 0.14 0.17
0 -5 3 0.34 0.28
0 -5 3 0.21 0.05
0 5 -3 0.44 0.32
0 5 -3 0.38 0.19
0 5 3 0.38 0.23
0 5 3 0.32 0.15
0 5 3 0.38 0.24
0 5 -3 0.23 0.17
-1 -5 -3 27.37 1.06
-1 -5 -3 26.44 0.99
-1 -5 -3 25.91 0.75
1 -5 3 26.55 0.73
1 -5 3 27.31 0.62
-1 -5 -3 27.32 0.71
1 -5 3 26.03 0.99
1 5 3 25.71 0.68
-1 5 -3 27.03 0.99
-1 5 -3 28.08 1.18
1 5 3 27.14 0.73
1 5 3 25.81 0.97
1 5 3 26.39 1.02
2 -5 3 1.1 0.16
2 -5 3 0.8 0.38
2 -5 3 1 0.26
-2 -5 -3 1.1 0.24
2 -5 3 1.13 0.19
-2 -5 -3 1.55 0.32
-2 -5 -3 0.98 0.31
2 5 3 0.99 0.32
2 5 3 1.29 0.2
2 5 3 1.26 0.18
-2 5 -3 0.78 0.37
-2 5 -3 0.88 0.25
2 5 3 0.69 0.22
3 -5 3 14.71 0.97
3 -5 3 15.72 0.8
3 -5 3 15.31 0.52
-3 -5 -3 15.71 0.8
-3 -5 -3 15.16 0.77
-3 -5 -3 16.04 0.67
-3 -5 -3 15.2 0.6
3 5 3 15.18 0.6
3 5 3 15.87 0.77
3 5 3 14.36 0.54
3 5 3 15.66 0.75
-3 5 -3 16.2 0.8
-3 5 -3 15.19 1.05
-4 -5 -3 4.69 0.41
4 -5 3 4.35 0.36
4 -5 3 4.01 0.53
-4 -5 -3 4.82 0.49
-4 -5 -3 4.29 0.52
4 -5 3 5.95 0.78
4 5 3 4.31 0.44
-4 5 -3 4.36 0.53
4 5 3 3.51 0.47
4 5 3 4.37 0.35
4 5 3 3.85 0.49
-4 5 -3 3.07 0.38
-4 5 -3 3.75 0.66
5 -5 3 3.79 0.52
-5 -5 -3 4.42 0.45
-5 -5 -3 4.99 0.63
-5 -5 -3 4.26 0.53
5 -5 3 4.08 0.41
5 -5 3 5.29 0.8
5 5 3 4.33 0.56
5 5 3 4.1 0.41
5 5 3 4.74 0.47
-5 5 -3 4.03 0.48
-5 5 -3 4.48 0.55
5 5 3 4.6 0.54
-5 5 -3 5.7 0.83
6 -5 3 2.66 0.46
-6 -5 -3 4.12 0.62
-6 -5 -3 3.85 0.55
-6 -5 -3 3.43 0.49
6 -5 3 2.45 0.67
6 -5 3 2.46 0.52
6 5 3 3.73 0.46
-6 5 -3 2.61 0.3
-6 5 -3 3.61 0.82
6 5 3 3.52 0.47
-6 5 -3 3.05 0.53
6 5 3 3.09 0.56
-6 5 -3 3.52 0.65
6 5 3 3.02 0.45
-7 -5 -3 2.82 0.62
7 -5 3 3.84 0.81
-7 -5 -3 4.66 0.63
-7 -5 -3 2.33 0.65
7 -5 3 3.82 0.63
-7 5 -3 4.12 0.96
-7 5 -3 3.23 0.34
7 5 3 3.46 0.56
-7 5 -3 3.74 0.63
7 5 3 3.95 0.53
-7 5 -3 2.91 0.54
7 5 3 3.46 0.49
8 -5 3 6.42 0.85
8 -5 3 5.33 0.96
-8 -5 -3 5.68 0.73
8 5 3 6.9 0.7
-8 5 -3 7.13 0.86
8 5 3 5.92 0.72
8 5 3 6.49 0.55
8 5 3 5.37 0.73
-8 5 -3 5.95 0.82
-8 5 -3 6.68 1.19
9 -5 3 -0.29 0.75
-9 -5 -3 0.4 0.57
-9 -5 -3 0.05 0.85
9 -5 3 0.66 0.84
-9 -5 -3 -0.28 0.79
9 -5 3 1.2 0.68
-9 5 -3 -0.08 0.85
9 5 3 0.26 0.43
-9 5 -3 0.78 1.05
9 5 3 0.06 0.45
9 5 3 -0.36 0.5
9 5 3 0.32 0.72
-9 5 -3 0.47 0.58
10 -5 3 1.24 1.05
-10 -5 -3 1.38 1.05
10 -5 3 0.08 1.11
-10 -5 -3 -0.17 0.68
10 -5 3 1.45 0.76
-10 5 -3 -0.65 1.23
-10 5 -3 2.72 0.83
10 5 3 0.74 0.92
10 5 3 1.31 0.65
-10 5 -3 2.15 1.08
10 5 3 2.32 0.58
10 5 3 0.73 0.46
11 -5 3 -0.72 1.21
-11 -5 -3 -0.38 1.42
11 -5 3 0.1 0.88
11 5 3 1.27 0.6
-11 5 -3 0.29 0.98
-11 5 -3 1.13 1.52
11 5 3 0.66 0.8
11 5 3 1.33 1.03
12 -6 -3 -1.29 0.81
12 -6 -3 -1.57 1.65
-12 6 3 -0.03 0.88
12 6 -3 4.2 1.3
12 6 -3 1.72 1.28
-12 6 3 2.29 1.18
-12 6 3 -1.63 1.55
12 6 -3 0.57 1.05
11 -6 -3 -0.97 0.86
11 -6 -3 -0.58 1.2
11 -6 -3 -1.06 0.7
11 -6 -3 -1.41 1.11
-11 6 3 0.46 0.89
-11 6 3 0.22 0.72
11 6 -3 -0.86 0.69
-11 6 3 -0.6 1.08
-11 6 3 -0.66 1.13
11 6 -3 -0.38 0.95
11 6 -3 0.63 1.09
11 6 -3 0.19 0.92
11 6 -3 -0.35 0.75
11 6 -3 0.01 0.94
10 -6 -3 3.96 0.98
10 -6 -3 3.33 1.04
10 -6 -3 2.09 0.64
10 -6 -3 3.77 1.05
10 6 -3 2.94 0.76
10 6 -3 3.38 0.76
10 6 -3 2.43 0.58
-10 6 3 1.76 0.66
10 6 -3 1.8 0.69
-10 6 3 1.69 1.43
-10 6 3 3.69 0.94
10 6 -3 3.94 0.82
-10 6 3 -0.46 0.88
10 6 -3 3.51 0.94
9 -6 -3 0.89 0.68
9 -6 -3 1.68 0.75
9 -6 -3 1.19 0.74
9 -6 -3 1.33 0.51
-9 6 3 -0.13 0.77
-9 6 3 0.76 0.65
9 6 -3 1.19 0.72
9 6 -3 1.07 0.43
9 6 -3 1.92 0.57
9 6 -3 1.36 0.55
9 6 -3 1.93 0.68
-9 6 3 1.59 0.74
9 6 -3 0.75 0.54
8 -6 -3 0.28 0.88
8 -6 -3 0.72 0.41
8 -6 -3 0.26 0.56
8 -6 -3 1.22 0.65
8 6 -3 0.77 0.57
-8 6 3 1.31 0.74
-8 6 3 0.61 0.44
-8 6 3 0.92 0.51
-8 6 3 0.27 0.57
8 6 -3 1.29 0.43
8 6 -3 0.68 0.46
8 6 -3 0.49 0.34
8 6 -3 0.75 0.45
8 6 -3 0.55 0.56
7 -6 -3 8.62 0.77
7 -6 -3 11 0.93
-7 -6 3 8.47 0.85
7 -6 -3 7.35 0.99
-7 6 3 10.87 0.8
7 6 -3 9.07 0.76
7 6 -3 9.74 0.71
-7 6 3 9.43 1.13
7 6 -3 7.95 0.69
-7 6 3 11.02 0.88
7 6 -3 10.07 0.63
-7 6 3 9.02 0.86
7 6 -3 8.41 0.5
7 6 -3 9.33 0.66
-6 -6 3 12.76 0.6
-6 -6 3 13.57 0.81
-6 -6 3 12.34 0.53
6 -6 -3 13.15 0.84
6 -6 -3 12.27 1.01
6 -6 -3 12.68 0.84
6 -6 -3 13.23 0.77
-6 6 3 12.61 0.83
6 6 -3 13.6 0.67
-6 6 3 13.14 0.78
6 6 -3 12.65 0.59
-6 6 3 12.45 0.81
-6 6 3 12.7 1.11
6 6 -3 13.2 0.6
6 6 -3 13.29 0.53
6 6 -3 12.87 0.64
6 6 -3 13.76 0.83
6 6 -3 12.81 0.46
-5 -6 3 9.98 0.62
-5 -6 3 9.39 0.61
5 -6 -3 8.6 0.59
5 -6 -3 9.29 0.71
5 -6 -3 7.51 0.85
5 -6 -3 9.41 0.7
-5 -6 3 10 0.51
5 6 -3 9.37 0.51
5 6 -3 9.38 0.32
5 6 -3 8.93 0.67
-5 6 3 9.47 0.71
-5 6 3 9.74 0.61
5 6 -3 8.7 0.5
-5 6 3 8.71 0.93
5 6 -3 9.34 0.45
5 6 -3 10.08 0.6
-4 -6 3 10.12 0.52
-4 -6 3 9.75 0.43
4 -6 -3 9.98 0.62
-4 -6 3 9.65 0.64
4 -6 -3 10.09 0.53
4 -6 -3 9.79 0.67
-4 -6 3 10.15 0.56
4 -6 -3 9.42 0.86
4 6 -3 10.76 0.6
4 6 -3 9.91 0.64
4 6 -3 9.44 0.39
-4 6 3 10.54 0.56
-4 6 3 9.71 0.71
4 6 -3 9.52 0.51
4 6 -3 10.63 0.49
-4 6 3 9.61 0.88
-3 -6 3 18.94 0.68
-3 -6 3 18.61 0.87
-3 -6 3 18.14 0.51
3 -6 -3 18.75 1.03
-3 -6 3 18.08 0.71
3 -6 -3 18.98 0.89
3 -6 -3 19.66 0.69
-3 -6 3 18.78 0.74
3 -6 -3 18.87 0.63
-3 6 3 18.26 0.45
3 6 -3 18.07 0.88
3 6 -3 18.01 0.74
-3 6 3 18.3 0.64
3 6 -3 18.95 0.71
-3 6 3 17.78 0.87
-3 6 3 21.18 1.09
-2 -6 3 0.89 0.26
2 -6 -3 1.36 0.38
-2 -6 3 1.57 0.31
2 -6 -3 1.05 0.24
-2 -6 3 1.27 0.23
-2 -6 3 1.18 0.11
2 -6 -3 1.19 0.31
-2 -6 3 1.06 0.32
-2 -6 3 1.09 0.11
-2 6 3 1.62 0.45
2 6 -3 1.64 0.3
2 6 -3 1.48 0.4
2 6 -3 1.17 0.25
-2 6 3 0.99 0.19
-2 6 3 0.71 0.3
1 -6 -3 8.96 0.44
-1 -6 3 9.43 0.69
-1 -6 3 9.74 0.59
-1 -6 3 8.72 0.48
1 -6 -3 8.94 0.62
-1 -6 3 9.36 0.36
1 -6 -3 8.63 0.7
1 6 -3 9.22 0.57
-1 6 3 8.66 0.41
1 6 -3 8.23 0.44
1 6 -3 8.87 0.75
-1 6 3 8.7 0.73
-1 6 3 8.79 0.36
0 -6 -3 0.84 0.2
0 -6 -3 0.38 0.18
0 -6 3 0.63 0.08
0 -6 -3 0.31 0.28
0 -6 -3 0.72 0.27
0 -6 3 0.55 0.22
0 -6 3 0.74 0.28
0 -6 3 0.83 0.22
0 6 -3 0.27 0.37
0 6 3 0.89 0.18
0 6 -3 0.35 0.19
0 6 3 0.55 0.1
0 6 3 0.26 0.2
0 6 -3 0.52 0.24
0 6 3 0.71 0.33
1 -6 3 4.29 0.63
1 -6 3 3.41 0.43
-1 -6 -3 3.86 0.47
-1 -6 -3 2.59 0.41
1 -6 3 3.43 0.22
-1 -6 -3 3.75 0.27
-1 -6 -3 3.54 0.36
1 -6 3 3.56 0.29
-1 6 -3 4.4 0.49
1 6 3 3.32 0.3
-1 6 -3 2.74 0.53
1 6 3 3.76 0.44
1 6 3 3.46 0.51
2 -6 3 7.07 0.39
-2 -6 -3 6.66 0.48
2 -6 3 7.04 0.34
2 -6 3 7.02 0.77
-2 -6 -3 7.25 0.59
2 -6 3 7.56 0.59
-2 -6 -3 7.52 0.65
2 6 3 6.73 0.4
2 6 3 8.08 0.63
-2 6 -3 6.86 0.6
2 6 3 7.24 0.57
2 6 3 7.31 0.36
-2 6 -3 6.6 0.83
-3 -6 -3 -0.3 0.3
3 -6 3 0.36 0.25
-3 -6 -3 0.53 0.29
3 -6 3 0.07 0.2
-3 -6 -3 0.12 0.26
-3 -6 -3 0.16 0.28
3 -6 3 -0.04 0.19
3 -6 3 -0.13 0.37
3 6 3 0.25 0.21
3 6 3 0.28 0.29
-3 6 -3 0.43 0.27
3 6 3 0.47 0.33
-3 6 -3 0.13 0.45
3 6 3 -0.06 0.19
4 -6 3 23.79 1.33
-4 -6 -3 25.03 1.11
-4 -6 -3 24.61 0.96
4 -6 3 25.07 0.79
4 -6 3 24.78 1.12
4 -6 3 24.8 0.74
-4 -6 -3 25.59 0.86
-4 -6 -3 24.2 1.06
-4 6 -3 24.96 1.11
-4 6 -3 23.94 0.93
4 6 3 24.43 1.04
-4 6 -3 25.07 1.43
4 6 3 24.12 0.87
4 6 3 24.9 0.77
4 6 3 24.78 1.03
-5 -6 -3 3.07 0.61
-5 -6 -3 2.87 0.43
-5 -6 -3 3.15 0.54
5 -6 3 3.82 0.78
5 -6 3 3.2 0.42
5 -6 3 2.45 0.43
5 6 3 2.88 0.43
-5 6 -3 2.39 0.44
5 6 3 2.92 0.36
5 6 3 2.32 0.45
-5 6 -3 2.7 0.47
5 6 3 3.06 0.45
-5 6 -3 3.18 0.83
6 -6 3 1.61 0.57
6 -6 3 1.73 0.63
-6 -6 -3 0.42 0.44
6 -6 3 0.66 0.42
-6 -6 -3 0.61 0.42
-6 -6 -3 1.53 0.59
6 6 3 1.69 0.41
-6 6 -3 0.76 0.41
6 6 3 1.32 0.41
-6 6 -3 1.32 0.34
-6 6 -3 0.6 0.78
6 6 3 1.5 0.45
-6 6 -3 1.45 0.8
6 6 3 1.33 0.36
7 -6 3 1.55 0.49
7 -6 3 2.97 0.62
-7 -6 -3 0.47 0.6
-7 -6 -3 2.09 0.56
-7 -6 -3 1.83 0.6
7 -6 3 2.55 0.73
7 6 3 1.89 0.46
-7 6 -3 2.32 0.38
7 6 3 2.13 0.5
-7 6 -3 3.6 0.67
-7 6 -3 1.19 0.94
7 6 3 2.23 0.45
-8 -6 -3 1.83 0.75
-8 -6 -3 -1.01 0.68
-8 -6 -3 0.45 0.54
8 -6 3 0.62 0.73
8 -6 3 0.32 0.53
-8 6 -3 -0.29 0.53
8 6 3 0.22 0.41
-8 6 -3 -0.67 0.39
-8 6 -3 0.86 1.03
8 6 3 0.43 0.83
8 6 3 -0.48 0.49
-8 6 -3 0.49 0.72
8 6 3 0.11 0.62
8 6 3 0.97 0.62
-9 -6 -3 -1.08 0.63
-9 -6 -3 0.55 0.68
9 -6 3 -0.63 0.85
9 -6 3 0.63 0.92
-9 -6 -3 -0.92 0.91
9 -6 3 -0.21 0.66
-9 6 -3 0.02 0.42
9 6 3 -0.18 0.59
-9 6 -3 0.87 1.23
9 6 3 0.77 0.46
9 6 3 0.42 0.76
-9 6 -3 -1.04 0.85
9 6 3 0.18 0.77
-9 6 -3 0.95 0.72
9 6 3 -0.23 0.48
-10 -6 -3 -0.51 1.13
10 -6 3 -0.21 0.8
-10 -6 -3 -0.63 0.7
10 -6 3 -0.8 1.14
10 -6 3 -0.84 1.11
10 6 3 0.27 0.54
10 6 3 -1.29 1.01
-10 6 -3 0.56 0.86
10 6 3 -0.46 0.72
-10 6 -3 1.03 1.22
10 6 3 0.35 1.13
-10 6 -3 1.68 1.44
10 6 3 0.43 0.51
11 -7 -3 0.41 1.33
11 -7 -3 -1.8 1.25
11 -7 -3 1.66 0.81
11 -7 -3 -0.23 1.17
11 7 -3 -0.36 0.82
-11 7 3 1.82 1.24
11 7 -3 0.14 0.71
11 7 -3 0.86 0.99
-11 7 3 -0.05 0.98
-11 7 3 0.97 0.81
-11 7 3 -0.22 1.3
11 7 -3 0.43 1.09
11 7 -3 -0.59 1.22
11 7 -3 0.15 1.01
10 -7 -3 -1.38 1.05
10 -7 -3 1.86 0.98
10 7 -3 -0.31 0.53
-10 7 3 0.02 1
10 7 -3 -1.38 0.84
-10 7 3 0.74 1.01
10 7 -3 -0.1 0.68
10 7 -3 -1.22 0.89
10 7 -3 -1.84 0.75
-10 7 3 1.28 0.65
10 7 -3 0.35 0.7
-10 7 3 0.59 0.83
9 -7 -3 5.48 1.01
9 -7 -3 3.54 0.77
9 -7 -3 5.63 0.95
9 -7 -3 2.21 0.83
9 7 -3 3.92 0.75
9 7 -3 3.9 0.68
9 7 -3 3.99 0.61
9 7 -3 4.4 0.47
-9 7 3 3.18 0.72
9 7 -3 4.44 0.68
-9 7 3 2.51 0.89
9 7 -3 6.05 0.91
8 -7 -3 0.55 0.73
8 -7 -3 -0.05 0.39
8 -7 -3 0.8 0.7
-8 7 3 0.56 0.6
8 7 -3 0.37 0.46
-8 7 3 0.79 0.66
8 7 -3 1 0.58
-8 7 3 0.62 0.78
8 7 -3 0.28 0.3
8 7 -3 0.73 0.63
8 7 -3 1.23 0.49
8 7 -3 -0.3 0.45
7 -7 -3 1.39 0.63
7 -7 -3 1.38 0.68
7 -7 -3 1.75 0.67
-7 -7 3 1.49 0.69
-7 7 3 1.46 0.77
7 7 -3 1.15 0.41
7 7 -3 1.58 0.27
7 7 -3 1.43 0.32
-7 7 3 0.74 0.45
-7 7 3 1.05 0.64
7 7 -3 0.61 0.39
-7 7 3 1.48 0.51
7 7 -3 0.99 0.38
7 7 -3 1.42 0.23
6 -7 -3 0.78 0.56
6 -7 -3 0.6 0.5
-6 -7 3 0.8 0.25
6 -7 -3 0.07 0.36
-6 -7 3 -0.34 0.31
-6 -7 3 0.16 0.32
-6 -7 3 0.31 0.44
6 7 -3 0.2 0.33
6 7 -3 0.39 0.31
-6 7 3 0.22 0.62
6 7 -3 0.16 0.29
6 7 -3 0.34 0.29
-6 7 3 -0.45 0.43
-6 7 3 -0.06 0.43
6 7 -3 0 0.3
-6 7 3 0.3 0.42
5 -7 -3 1.34 0.43
5 -7 -3 1.88 0.59
5 -7 -3 0.99 0.44
-5 -7 3 1.49 0.4
-5 -7 3 1.84 0.3
-5 -7 3 1.64 0.41
5 7 -3 1.4 0.38
5 7 -3 1.66 0.43
-5 7 3 1.49 0.38
-5 7 3 1.4 0.61
5 7 -3 2.05 0.32
5 7 -3 1.35 0.3
-5 7 3 1.81 0.43
4 -7 -3 4.34 0.58
4 -7 -3 4 0.42
-4 -7 3 4.82 0.44
4 -7 -3 3.18 0.55
-4 -7 3 3.31 0.44
-4 -7 3 4.61 0.37
-4 -7 3 4.45 0.54
-4 7 3 4.04 0.39
-4 7 3 2.95 0.48
4 7 -3 4.02 0.44
-4 7 3 3.89 0.64
4 7 -3 4.79 0.49
4 7 -3 4.74 0.63
-3 -7 3 5.37 0.49
3 -7 -3 5.43 0.59
-3 -7 3 6.1 0.49
3 -7 -3 5.87 0.53
-3 -7 3 5.26 0.3
-3 -7 3 6.07 0.62
3 -7 -3 7.25 0.8
-3 7 3 5.32 0.25
-3 7 3 5.39 0.6
3 7 -3 5.2 0.48
3 7 -3 5.68 0.66
-3 7 3 6.42 0.84
-3 7 3 5.9 0.46
3 7 -3 6.57 0.57
-2 -7 3 1.59 0.12
-2 -7 3 2.06 0.31
-2 -7 3 1.71 0.13
2 -7 -3 1.2 0.31
2 -7 -3 1.96 0.49
-2 -7 3 1.54 0.43
2 -7 -3 1.49 0.28
-2 -7 3 1.11 0.3
-2 -7 3 1.6 0.3
2 7 -3 1.64 0.45
-2 7 3 1.54 0.47
-2 7 3 1.58 0.38
-2 7 3 1.46 0.2
2 7 -3 1.4 0.31
-2 7 3 1.47 0.23
2 7 -3 1.73 0.31
1 -7 -3 3.6 0.3
-1 -7 3 2.78 0.33
-1 -7 3 2.55 0.35
-1 -7 3 3.58 0.14
1 -7 -3 4.74 0.62
1 -7 -3 4.25 0.5
-1 -7 3 4.8 0.6
1 7 -3 3.93 0.62
-1 7 3 2.78 0.42
1 7 -3 3.84 0.46
-1 7 3 3.58 0.3
1 7 -3 3.43 0.35
-1 7 3 3.6 0.6
-1 7 3 3.69 0.3
0 -7 -3 8.91 0.74
0 -7 -3 10.62 0.71
0 -7 -3 9.85 0.49
0 -7 3 10.5 0.53
0 -7 3 9.73 0.28
0 -7 3 9.89 0.68
0 -7 3 9.17 0.82
0 -7 -3 10.02 0.46
0 7 -3 9.23 0.87
0 7 -3 9.97 0.49
0 7 3 9.66 0.79
0 7 3 9.65 0.32
0 7 3 10.06 0.69
0 7 3 10.12 0.43
0 7 -3 9.29 0.65
-1 -7 -3 0.16 0.28
1 -7 3 -0.07 0.22
-1 -7 -3 0.42 0.23
1 -7 3 0.08 0.25
1 -7 3 0.1 0.32
1 -7 3 0.2 0.14
-1 -7 -3 0.19 0.32
-1 -7 -3 0.11 0.2
-1 7 -3 -0.29 0.22
1 7 3 -0.18 0.24
-1 7 -3 -0.04 0.44
1 7 3 0.15 0.31
1 7 3 0.07 0.18
-2 -7 -3 2.55 0.49
2 -7 3 2.28 0.23
2 -7 3 2.61 0.29
-2 -7 -3 2.71 0.29
2 -7 3 1.9 0.5
-2 -7 -3 2.62 0.36
2 -7 3 1.5 0.3
-2 -7 -3 2.16 0.51
-2 7 -3 2.34 0.6
2 7 3 2.22 0.49
-2 7 -3 3.1 0.49
2 7 3 2.54 0.46
2 7 3 2.56 0.24
3 -7 3 9.79 0.78
3 -7 3 9.86 0.99
-3 -7 -3 8.55 0.61
3 -7 3 8.98 0.46
-3 -7 -3 8.63 0.79
-3 -7 -3 9.49 0.72
3 -7 3 9.61 0.5
-3 -7 -3 8.36 0.56
3 7 3 8.29 0.51
3 7 3 8.26 0.66
3 7 3 8.92 0.43
-3 7 -3 9.26 1.12
-3 7 -3 7.61 0.74
3 7 3 9.38 0.78
4 -7 3 1.33 0.58
-4 -7 -3 0.64 0.4
-4 -7 -3 1.51 0.41
-4 -7 -3 1.74 0.47
4 -7 3 1.73 0.32
4 -7 3 0.52 0.36
4 -7 3 1.79 0.28
-4 -7 -3 1.18 0.39
4 7 3 1.65 0.43
4 7 3 1.23 0.33
4 7 3 1.2 0.36
4 7 3 1.41 0.28
-4 7 -3 1.82 0.5
-4 7 -3 1.5 0.4
-4 7 -3 1.1 0.7
-5 -7 -3 1.67 0.49
5 -7 3 1.89 0.31
-5 -7 -3 2.28 0.47
-5 -7 -3 2.86 0.58
5 -7 3 1.66 0.42
5 -7 3 1.93 0.41
5 -7 3 1.96 0.63
5 7 3 1.1 0.32
5 7 3 1.84 0.4
-5 7 -3 1.55 0.47
-5 7 -3 0.99 0.8
5 7 3 1.58 0.46
6 -7 3 -0.16 0.29
6 -7 3 0.14 0.64
-6 -7 -3 0.08 0.59
6 -7 3 -0.48 0.46
-6 -7 -3 -0.24 0.48
-6 -7 -3 -0.71 0.45
6 -7 3 -0.26 0.38
6 7 3 0.38 0.39
-6 7 -3 -0.02 0.48
6 7 3 0.6 0.4
6 7 3 0.38 0.35
-6 7 -3 0 0.78
-7 -7 -3 2.04 0.65
-7 -7 -3 1.33 0.64
7 -7 3 1.75 0.59
7 -7 3 2.92 0.65
7 -7 3 3.2 0.93
-7 7 -3 1.93 0.73
-7 7 -3 2.65 0.56
7 7 3 2.71 0.98
7 7 3 2.48 0.51
7 7 3 2.54 0.62
-7 7 -3 2.16 0.46
-7 7 -3 2.37 1.01
7 7 3 2.72 0.53
-8 -7 -3 0.94 0.79
8 -7 3 -0.09 0.59
8 -7 3 -0.68 0.79
-8 -7 -3 -0.06 0.65
-8 -7 -3 1.08 0.79
8 -7 3 -0.64 0.75
8 7 3 -0.61 0.63
8 7 3 0.33 0.46
-8 7 -3 0.22 0.47
-8 7 -3 0.25 1.21
-8 7 -3 -0.13 0.82
-8 7 -3 -1.27 0.58
8 7 3 0.9 0.52
8 7 3 -0.53 0.59
9 -7 3 -0.83 0.74
-9 -7 -3 -1.13 0.76
9 -7 3 0.67 0.95
-9 -7 -3 -0.44 0.97
9 -7 3 -0.25 1.06
9 7 3 0.85 0.52
9 7 3 -0.6 0.78
-9 7 -3 -0.22 0.51
9 7 3 0.47 0.77
9 7 3 -0.26 0.49
-9 7 -3 0.57 0.79
-9 7 -3 -0.12 1.31
-9 7 -3 -2.93 0.96
10 -7 3 2.7 0.89
10 -7 3 1.83 1.24
10 -7 3 1.24 1.25
-10 -7 -3 1.3 1.21
-10 -7 -3 1.55 0.84
-10 7 -3 -1.64 1.56
10 7 3 0.48 0.88
10 7 3 2.15 0.6
-10 7 -3 2.08 1.32
10 7 3 1.67 0.61
10 7 3 -0.56 1.02
-10 7 -3 -0.91 0.56
-10 7 -3 1.45 1.69
11 -8 -3 0.87 1.45
11 -8 -3 -2.83 1.25
11 -8 -3 1.29 0.95
11 8 -3 -1.83 0.81
11 8 -3 0.18 0.65
-11 8 3 -0.11 1.2
11 8 -3 -0.01 1.19
-11 8 3 2.42 1.33
-11 8 3 -1.27 0.9
-11 8 3 -1.23 1.51
10 -8 -3 1.97 1.12
10 -8 -3 2.17 1.15
10 -8 -3 0.91 1.18
10 -8 -3 1.79 0.8
10 8 -3 0.34 0.77
-10 8 3 0.98 1.25
10 8 -3 1.38 0.5
10 8 -3 1.1 1.12
10 8 -3 1.61 1.02
-10 8 3 -1.49 0.93
10 8 -3 1 0.73
-10 8 3 -0.69 0.78
-10 8 3 1.33 1.16
9 -8 -3 -0.4 0.99
9 -8 -3 0.15 0.8
9 -8 -3 0.13 0.88
9 8 -3 -1.97 0.79
-9 8 3 0.22 0.96
9 8 -3 0.51 0.36
-9 8 3 0.5 0.9
9 8 -3 0.57 0.57
9 8 -3 0.66 0.82
-9 8 3 0.66 0.73
9 8 -3 0.19 0.62
-9 8 3 0.02 0.63
8 -8 -3 0.18 0.81
8 -8 -3 0.79 0.83
-8 -8 3 -0.58 0.73
8 -8 -3 -0.03 0.51
8 -8 -3 -0.82 0.67
8 8 -3 -0.66 0.51
8 8 -3 0.03 0.73
8 8 -3 0.16 0.24
-8 8 3 -1 0.7
8 8 -3 0.52 0.66
8 8 -3 0.04 0.48
-8 8 3 0.35 0.52
-8 8 3 0.07 0.88
7 -8 -3 0.48 0.64
-7 -8 3 0.34 0.63
-7 -8 3 -0.03 0.27
7 -8 -3 0.44 0.49
-7 -8 3 0.06 0.38
7 -8 -3 -0.15 0.71
7 8 -3 0.11 0.41
7 8 -3 0.74 0.39
7 8 -3 0.61 0.3
-7 8 3 0.54 0.57
7 8 -3 0.63 0.4
-7 8 3 0.44 0.57
-7 8 3 -0.18 0.79
-6 -8 3 19.09 0.78
-6 -8 3 18.87 1.07
-6 -8 3 17.19 0.96
6 -8 -3 18.12 1.45
6 -8 -3 18.76 1.08
-6 8 3 18.28 1.01
-6 8 3 18.47 1.51
6 8 -3 18.06 0.77
6 8 -3 18.46 0.84
6 8 -3 18.44 0.8
6 8 -3 19.04 0.97
-5 -8 3 1.49 0.43
5 -8 -3 1.31 0.48
-5 -8 3 1.64 0.47
5 -8 -3 1.09 0.61
-5 -8 3 1.85 0.35
-5 -8 3 1.62 0.32
5 -8 -3 1.05 0.43
-5 8 3 2.23 0.63
-5 8 3 1.35 0.43
5 8 -3 1.48 0.45
-5 8 3 1.98 0.73
5 8 -3 1.77 0.35
5 8 -3 2.03 0.51
-4 -8 3 6.94 0.57
-4 -8 3 7.36 0.64
4 -8 -3 8.7 0.99
-4 -8 3 7.69 0.45
4 -8 -3 8.17 0.58
4 -8 -3 7.3 0.78
-4 -8 3 7.09 0.79
4 8 -3 7.37 0.69
-4 8 3 6.54 0.85
-4 8 3 7.58 0.81
-4 8 3 8.61 0.63
4 8 -3 8.08 0.6
4 8 -3 7.57 0.83
-3 -8 3 0.66 0.41
3 -8 -3 0.99 0.44
3 -8 -3 0.89 0.36
-3 -8 3 0.66 0.32
-3 -8 3 0.98 0.31
3 -8 -3 0.24 0.54
-3 -8 3 0.83 0.19
3 8 -3 0.39 0.26
-3 8 3 0.71 0.16
-3 8 3 1.13 0.3
3 8 -3 1.17 0.46
3 8 -3 0.7 0.34
-3 8 3 0.36 0.54
-3 8 3 0.93 0.43
-2 -8 3 0.88 0.14
2 -8 -3 0.42 0.34
2 -8 -3 0.7 0.31
2 -8 -3 0.64 0.45
-2 -8 3 0.86 0.29
-2 -8 3 0.74 0.47
-2 -8 3 0.8 0.28
-2 8 3 0.64 0.21
2 8 -3 1.09 0.49
2 8 -3 0.5 0.31
-2 8 3 0.75 0.25
-2 8 3 1.01 0.37
2 8 -3 0.72 0.32
-2 8 3 0.19 0.39
1 -8 -3 0.33 0.25
-1 -8 3 0.31 0.34
-1 -8 3 -0.31 0.29
1 -8 -3 0.27 0.25
-1 -8 3 0.37 0.22
-1 -8 3 0.15 0.09
-1 -8 3 0.28 0.23
1 -8 -3 -0.02 0.21
1 -8 -3 -0.22 0.4
1 8 -3 0.29 0.28
1 8 -3 -0.13 0.45
-1 8 3 0.26 0.19
-1 8 3 0.39 0.32
-1 8 3 0.1 0.46
1 8 -3 0.02 0.29
-1 8 3 0.31 0.23
0 -8 -3 0.66 0.39
0 -8 3 0.38 0.31
0 -8 3 0.28 0.29
0 -8 3 0.58 0.39
0 -8 -3 0.25 0.24
0 -8 -3 0.26 0.25
0 -8 -3 0.53 0.34
0 8 3 -0.36 0.37
0 8 -3 0.3 0.29
0 8 -3 0.17 0.25
0 8 3 0 0.27
0 8 3 0.45 0.22
0 8 3 0.16 0.15
0 8 -3 -0.03 0.42
1 -8 3 10.01 0.56
1 -8 3 10.04 0.37
-1 -8 -3 8.95 0.57
-1 -8 -3 10.02 0.51
-1 -8 -3 10.03 0.81
1 -8 3 9.96 0.76
1 -8 3 8.68 0.98
-1 -8 -3 10.4 0.88
1 8 3 10.15 0.76
1 8 3 9.17 0.44
-1 8 -3 9.26 0.74
1 8 3 10.56 0.89
-1 8 -3 10.86 1.09
2 -8 3 0.42 0.39
2 -8 3 0.28 0.28
-2 -8 -3 0.44 0.38
2 -8 3 0.9 0.5
2 -8 3 0.78 0.22
-2 -8 -3 0.43 0.26
-2 -8 -3 0.68 0.34
-2 -8 -3 1.05 0.45
-2 8 -3 0.62 0.63
-2 8 -3 0.3 0.34
2 8 3 0.63 0.32
2 8 3 0.61 0.47
2 8 3 0.49 0.21
3 -8 3 0.58 0.28
-3 -8 -3 -0.04 0.34
3 -8 3 0.23 0.43
-3 -8 -3 0.74 0.41
3 -8 3 0.01 0.25
3 -8 3 -0.31 0.49
-3 -8 -3 -0.05 0.4
-3 -8 -3 0.09 0.38
-3 8 -3 0.51 0.37
3 8 3 0.26 0.37
3 8 3 -0.01 0.36
3 8 3 0.69 0.25
3 8 3 0.5 0.22
-3 8 -3 0.07 0.62
4 -8 3 3.65 0.54
-4 -8 -3 6.23 0.54
4 -8 3 5.59 0.9
-4 -8 -3 5.63 0.63
-4 -8 -3 6.55 0.82
-4 -8 -3 5.42 0.74
4 -8 3 5.46 0.5
4 -8 3 5.7 0.43
-4 8 -3 6.24 0.61
4 8 3 5.02 0.62
-4 8 -3 7.86 1.13
4 8 3 6.25 0.55
4 8 3 6.67 0.85
4 8 3 5.23 0.43
-4 8 -3 5.56 1.06
5 -8 3 3.16 0.35
-5 -8 -3 2.89 0.92
5 -8 3 3.88 0.48
-5 -8 -3 3.06 0.52
5 -8 3 3.31 0.89
5 -8 3 3.6 0.74
-5 -8 -3 3.16 0.54
5 8 3 2.7 0.45
-5 8 -3 3.66 1.03
5 8 3 2.73 0.35
5 8 3 4 0.62
5 8 3 3.39 0.62
-6 -8 -3 0.22 0.65
6 -8 3 0.43 0.33
6 -8 3 2.31 0.94
6 -8 3 1.23 0.49
-6 -8 -3 0.14 0.55
-6 -8 -3 0.72 0.7
-6 -8 -3 0.45 0.67
6 -8 3 0.21 0.52
-6 8 -3 -0.12 0.95
6 8 3 0.16 0.71
-6 8 -3 0.23 0.6
6 8 3 0.4 0.45
6 8 3 0.95 0.39
7 -8 3 0.6 0.37
7 -8 3 1.05 0.67
7 -8 3 0.02 0.79
-7 -8 -3 0.61 0.74
-7 -8 -3 0.25 0.7
7 -8 3 1.54 0.69
7 8 3 0.47 0.49
-7 8 -3 0.17 0.62
7 8 3 1.19 0.48
7 8 3 0.12 0.47
7 8 3 -0.18 0.54
-7 8 -3 0.73 1.17
-7 8 -3 1.27 0.74
-7 8 -3 0.2 0.52
-8 -8 -3 -1.22 0.82
-8 -8 -3 1.71 0.86
-8 -8 -3 0.18 0.86
8 -8 3 -0.38 0.41
8 -8 3 1.29 0.82
8 -8 3 0.94 1.06
8 -8 3 -0.7 0.6
-8 8 -3 0.88 0.65
8 8 3 0.07 0.58
-8 8 -3 1.64 1.22
-8 8 -3 0.35 0.56
-8 8 -3 1.5 0.94
8 8 3 -0.29 0.54
8 8 3 0.03 0.73
8 8 3 0.87 0.58
-9 -8 -3 -0.09 0.84
-9 -8 -3 0.9 1.08
9 -8 3 -0.15 1.04
9 -8 3 1.27 0.83
9 -8 3 -0.23 0.48
-9 -8 -3 -1.22 1.06
-9 8 -3 -1.2 1.11
9 8 3 0.71 1.17
9 8 3 0.59 0.58
9 8 3 0.45 0.82
-9 8 -3 0.09 0.89
9 8 3 0.69 0.91
-9 8 -3 -1.61 1.44
9 8 3 -0.1 0.71
-9 8 -3 -0.14 0.64
9 8 3 0.19 0.56
10 -8 3 1.53 1.73
-10 -8 -3 -0.48 0.9
10 -8 3 -0.91 0.93
10 -8 3 0.86 1.41
10 -8 3 1.23 0.87
-10 -8 -3 -0.44 1.31
10 8 3 2.05 0.7
10 8 3 0.53 1.05
-10 8 -3 1.51 1.95
10 8 3 0.97 1.04
-10 8 -3 3.51 1.84
10 -9 -3 -0.49 1.19
10 -9 -3 1.66 1.24
10 -9 -3 0.18 1.28
10 -9 -3 -0.32 0.78
-10 9 3 0.52 1.23
10 9 -3 0.69 0.75
-10 9 3 0.31 1.05
10 9 -3 -0.62 1.04
10 9 -3 0.02 1.92
10 9 -3 -1.12 0.88
-10 9 3 0.99 0.94
-10 9 3 -0.86 1.35
9 -9 -3 0.36 0.95
9 -9 -3 0.26 0.92
9 -9 -3 0.29 1.05
9 -9 -3 -0.48 0.66
9 9 -3 -0.88 0.87
9 9 -3 -0.58 0.59
-9 9 3 -0.23 0.71
-9 9 3 -0.44 0.87
9 9 -3 0.74 0.64
-9 9 3 -1.01 0.92
9 9 -3 0.46 0.97
-9 9 3 0.62 1.22
8 -9 -3 -0.55 0.81
8 -9 -3 -0.72 0.86
-8 -9 3 -0.6 0.86
8 -9 -3 0.41 0.6
8 -9 -3 1.33 0.8
8 9 -3 0.38 0.54
-8 9 3 0.24 0.81
-8 9 3 -0.27 0.75
-8 9 3 0.39 1.06
8 9 -3 -0.47 0.78
-8 9 3 0.25 0.59
8 9 -3 0.57 0.4
8 9 -3 -0.96 0.49
8 9 -3 0.48 0.32
7 -9 -3 0.36 0.58
7 -9 -3 -0.46 0.69
7 -9 -3 -0.59 0.82
-7 -9 3 -0.44 0.49
-7 -9 3 0.22 0.37
-7 -9 3 0.25 0.69
-7 9 3 0.09 0.64
7 9 -3 0.01 0.42
7 9 -3 0.13 0.46
-7 9 3 0.56 0.91
7 9 -3 0.59 0.44
-7 9 3 0.46 0.65
-7 9 3 -0.58 0.51
6 -9 -3 0.78 0.68
-6 -9 3 -0.4 0.47
-6 -9 3 0.27 0.31
-6 -9 3 -0.19 0.38
-6 -9 3 0.56 0.56
6 -9 -3 0.39 0.6
6 -9 -3 -0.21 0.4
6 9 -3 0.23 0.35
-6 9 3 1.13 0.8
-6 9 3 0.1 0.55
6 9 -3 -0.13 0.45
6 9 -3 0.01 0.36
-5 -9 3 0.01 0.51
-5 -9 3 0.9 0.48
5 -9 -3 0.59 0.61
5 -9 -3 0.14 0.61
5 -9 -3 0.06 0.53
-5 -9 3 0.45 0.34
-5 -9 3 0.96 0.33
5 9 -3 0.82 0.5
5 9 -3 -0.05 0.28
-5 9 3 1.01 0.73
5 9 -3 -0.23 0.49
-5 9 3 0.78 0.45
-4 -9 3 3.56 0.65
4 -9 -3 3.82 0.61
-4 -9 3 3.27 0.31
-4 -9 3 4.7 0.58
4 -9 -3 3.56 0.5
-4 -9 3 3.9 0.52
4 -9 -3 3.99 0.87
4 9 -3 3.35 0.51
-4 9 3 4.62 0.9
4 9 -3 3.63 0.51
-4 9 3 3.35 0.45
4 9 -3 3.75 0.68
-3 -9 3 2.86 0.46
-3 -9 3 2.12 0.56
3 -9 -3 2.09 0.43
-3 -9 3 2.39 0.49
3 -9 -3 1.4 0.6
-3 -9 3 2.18 0.23
3 -9 -3 2.13 0.5
-3 9 3 2.09 0.23
3 9 -3 3.16 0.5
3 9 -3 2.35 0.59
3 9 -3 2.45 0.48
-3 9 3 2.46 0.38
-3 9 3 2.2 0.52
-3 9 3 2.12 0.69
-2 -9 3 13.25 0.85
2 -9 -3 12.92 0.96
-2 -9 3 13.15 1.05
2 -9 -3 13.68 1.18
-2 -9 3 13.23 0.39
2 -9 -3 12.59 0.72
-2 -9 3 14.03 0.73
2 9 -3 12.65 0.75
-2 9 3 13.44 0.61
-2 9 3 12.51 1.16
-2 9 3 12.71 0.91
-2 9 3 12.13 0.55
2 9 -3 10.31 1.05
2 9 -3 12.2 0.83
-1 -9 3 0.47 0.29
-1 -9 3 -0.38 0.35
-1 -9 3 0.1 0.29
1 -9 -3 0.15 0.3
1 -9 -3 0.37 0.38
-1 -9 3 -0.08 0.11
1 -9 -3 0.23 0.27
-1 -9 3 -0.21 0.41
1 -9 -3 0.88 0.52
-1 -9 3 -0.23 0.19
-1 9 3 0.13 0.27
1 9 -3 0.16 0.34
1 9 -3 0.13 0.33
-1 9 3 0.37 0.46
1 9 -3 0.36 0.51
-1 9 3 -0.01 0.21
-1 9 3 -0.11 0.37
0 -9 3 0.61 0.34
0 -9 -3 0.55 0.3
0 -9 3 1.6 0.59
0 -9 -3 0.46 0.4
0 -9 3 0.77 0.31
0 -9 -3 0.32 0.5
0 -9 -3 0.33 0.28
0 9 -3 0.18 0.31
0 9 3 0.56 0.33
0 9 3 -0.14 0.49
0 9 3 0.4 0.18
0 9 -3 0.98 0.6
0 9 -3 0.25 0.31
0 9 3 -0.1 0.34
1 -9 3 1 0.2
1 -9 3 1.26 0.36
-1 -9 -3 1.61 0.59
-1 -9 -3 1.72 0.51
-1 -9 -3 1.33 0.3
-1 -9 -3 1.4 0.36
1 -9 3 0.41 0.34
1 -9 3 0.53 0.56
1 9 3 1.33 0.54
1 9 3 1.04 0.26
-1 9 -3 0.36 0.56
1 9 3 1.61 0.51
-1 9 -3 1.11 0.43
2 -9 3 1.11 0.58
-2 -9 -3 -0.1 0.37
2 -9 3 -0.11 0.37
-2 -9 -3 0.51 0.52
-2 -9 -3 0.19 0.38
2 -9 3 0.49 0.33
2 -9 3 0.27 0.24
-2 9 -3 -0.08 0.36
2 9 3 0.1 0.22
2 9 3 0.24 0.49
2 9 3 -0.06 0.34
-2 9 -3 0.73 0.69
3 -9 3 0.65 0.38
3 -9 3 1.56 0.34
-3 -9 -3 0.43 0.38
-3 -9 -3 0.65 0.43
3 -9 3 0.86 0.3
-3 -9 -3 0.77 0.44
3 -9 3 1.26 0.72
-3 9 -3 0.72 0.45
3 9 3 0.58 0.49
3 9 3 0.94 0.23
3 9 3 0.93 0.45
-3 9 -3 0.64 0.76
-4 -9 -3 1.26 0.47
-4 -9 -3 2.01 0.52
4 -9 3 0.79 0.79
4 -9 3 1.21 0.39
-4 -9 -3 1.83 0.67
4 -9 3 1.65 0.36
-4 9 -3 1.22 0.5
4 9 3 1.66 0.48
-4 9 -3 2.95 1.04
4 9 3 1.42 0.37
4 9 3 1.44 0.64
4 9 3 1.21 0.25
-4 9 -3 1.71 0.5
5 -9 3 9 1.01
5 -9 3 10.96 1.42
-5 -9 -3 8.76 0.7
5 -9 3 9.21 0.62
-5 -9 -3 8.62 0.81
5 -9 3 9.77 0.8
-5 -9 -3 10.56 1
-5 -9 -3 7.98 0.97
-5 9 -3 8.41 1.24
5 9 3 9.63 1.01
5 9 3 10.43 0.94
-5 9 -3 8.95 0.78
5 9 3 7.79 0.53
6 -9 3 5.31 0.83
-6 -9 -3 5.66 0.91
6 -9 3 5.23 0.44
-6 -9 -3 4.81 0.71
6 -9 3 4.72 0.64
6 9 3 6.14 0.69
6 9 3 6.73 0.82
6 9 3 4.86 0.43
6 9 3 4.95 0.76
-6 9 -3 4.02 1.17
-6 9 -3 4.57 0.74
7 -9 3 0.89 0.74
7 -9 3 0.22 0.67
-7 -9 -3 0.47 0.79
7 -9 3 0.52 0.37
-7 -9 -3 0.63 0.77
-7 -9 -3 0.22 0.9
7 -9 3 -0.83 0.94
7 9 3 0.16 0.44
-7 9 -3 0.06 0.79
7 9 3 0.63 0.64
7 9 3 0.34 0.61
-7 9 -3 0.58 0.7
-7 9 -3 0.47 1.28
-7 9 -3 0.93 0.63
7 9 3 0.9 0.56
-8 -9 -3 0.37 1.05
-8 -9 -3 0.91 0.97
8 -9 3 2.16 0.87
-8 -9 -3 0.26 0.81
8 -9 3 -0.43 0.91
8 -9 3 0.68 0.39
8 -9 3 -0.46 1.21
8 9 3 0.42 0.55
8 9 3 0.66 0.56
-8 9 -3 2.46 0.89
8 9 3 1.44 1.02
-8 9 -3 0.62 1.05
8 9 3 1.7 0.76
8 9 3 0.76 0.7
-8 9 -3 -0.12 0.69
9 -9 3 0.05 1.16
-9 -9 -3 -0.1 0.97
-9 -9 -3 -0.32 1.13
9 -9 3 -0.25 0.94
9 -9 3 -0.02 1.44
-9 9 -3 -0.71 1.27
9 9 3 1.15 0.69
9 9 3 0.63 0.67
9 9 3 0.12 0.74
-9 9 -3 -2.13 1.54
-9 9 -3 -0.06 0.79
10 -10 -3 3.51 1.56
10 -10 -3 5.27 1.83
10 -10 -3 1.64 1.46
10 -10 -3 1.15 1.02
-10 10 3 -0.04 1.22
-10 10 3 4.03 1.39
10 10 -3 1.23 1.31
-10 10 3 0.65 1.77
9 -10 -3 0.29 0.85
9 -10 -3 -1.1 1.06
9 -10 -3 0.69 1.21
-9 10 3 -1.72 1.06
-9 10 3 -2.27 1.36
9 10 -3 -0.53 1.1
9 10 -3 0.92 0.66
-9 10 3 -0.49 0.9
-9 10 3 1.4 1.07
9 10 -3 1.3 0.73
9 10 -3 -0.49 1.04
8 -10 -3 0.82 1
8 -10 -3 0.84 1.16
8 -10 -3 1.86 0.86
8 -10 -3 0.62 0.93
-8 -10 3 2.15 1.02
-8 10 3 0.34 0.87
8 10 -3 0.87 0.91
8 10 -3 -0.63 0.94
8 10 -3 1.49 0.57
8 10 -3 1.28 0.47
-8 10 3 0.67 0.91
8 10 -3 2.6 0.63
-8 10 3 2.7 1.33
-8 10 3 1.26 0.8
-7 -10 3 0.56 0.62
7 -10 -3 0.15 0.84
7 -10 -3 -0.84 0.84
-7 -10 3 -0.11 0.8
7 -10 -3 0.15 0.61
-7 10 3 -0.37 0.71
7 10 -3 -0.04 0.45
7 10 -3 0.49 0.75
-7 10 3 0.38 0.69
7 10 -3 0.56 0.42
-7 10 3 0.25 0.7
-7 10 3 1.57 1.09
-6 -10 3 2.01 0.68
-6 -10 3 1.55 0.45
-6 -10 3 1.24 0.67
6 -10 -3 1.08 0.74
-6 -10 3 0.36 0.4
6 -10 -3 1.67 0.72
6 -10 -3 1.37 0.69
-6 10 3 2.02 0.64
6 10 -3 2.38 0.54
-6 10 3 3.16 1
6 10 -3 1.33 0.68
6 10 -3 1.66 0.43
5 -10 -3 7.28 1.13
-5 -10 3 4.31 0.67
-5 -10 3 6.11 0.46
5 -10 -3 5.58 0.77
5 -10 -3 4.97 0.66
-5 -10 3 6.21 0.85
-5 -10 3 3.82 0.57
5 10 -3 5.89 0.7
5 10 -3 5.75 0.85
-5 10 3 5.86 0.67
-5 10 3 7.2 1.18
4 -10 -3 2.77 0.57
-4 -10 3 2.3 0.5
4 -10 -3 1.86 0.76
4 -10 -3 3.46 0.78
-4 -10 3 3.04 0.56
-4 -10 3 3.24 0.74
-4 -10 3 3.22 0.34
4 10 -3 4.27 0.6
4 10 -3 2.99 0.58
-4 10 3 2.82 0.69
-4 10 3 2.49 0.49
4 10 -3 2.75 0.72
-4 10 3 3.47 0.93
3 -10 -3 6.99 0.58
-3 -10 3 6.18 0.63
3 -10 -3 6.75 1.08
-3 -10 3 6.57 0.92
-3 -10 3 5.6 0.73
-3 -10 3 7.04 0.41
3 -10 -3 6.07 0.79
3 10 -3 6.71 0.73
-3 10 3 6.81 1.05
3 10 -3 6.7 0.66
-3 10 3 6.42 0.53
-3 10 3 6.32 0.43
-3 10 3 5.9 0.96
3 10 -3 5.66 0.85
-2 -10 3 5.22 0.52
-2 -10 3 7.05 0.75
2 -10 -3 6.98 0.88
2 -10 -3 5.96 0.51
-2 -10 3 4.19 0.94
-2 -10 3 5.9 0.32
2 -10 -3 6.45 0.92
-2 10 3 6.11 0.45
-2 10 3 5.89 0.53
-2 10 3 6.42 0.96
2 10 -3 6.56 0.8
2 10 -3 5.72 0.56
2 10 -3 6.18 0.88
-2 10 3 6.01 0.81
1 -10 -3 -0.07 0.31
1 -10 -3 0.48 0.66
1 -10 -3 0.12 0.35
-1 -10 3 1.05 0.81
-1 -10 3 0.14 0.35
-1 -10 3 -0.02 0.38
-1 -10 3 0.12 0.14
1 -10 -3 0.37 0.44
-1 -10 3 0.03 0.22
1 10 -3 -0.16 0.62
-1 10 3 0.15 0.25
-1 10 3 -0.25 0.53
-1 10 3 0.38 0.43
-1 10 3 -0.13 0.32
1 10 -3 0.21 0.38
1 10 -3 0.66 0.4
0 -10 3 0.28 0.35
0 -10 3 0.44 0.7
0 -10 -3 -0.17 0.3
0 -10 -3 -0.13 0.33
0 -10 -3 -0.17 0.38
0 10 3 0.05 0.36
0 10 -3 -0.08 0.34
0 10 -3 -0.47 0.57
0 10 3 0.21 0.52
0 10 -3 0.74 0.39
0 10 3 -0.03 0.2
0 10 3 0.25 0.38
1 -10 3 5.35 0.38
-1 -10 -3 5.71 0.72
-1 -10 -3 5.52 0.55
1 -10 3 3.82 0.81
1 -10 3 7.24 0.86
-1 -10 -3 5.71 0.41
1 -10 3 5.58 0.51
1 10 3 7.06 0.6
-1 10 -3 5.7 0.75
1 10 3 4.96 0.8
-1 10 -3 4.51 0.84
1 10 3 4.51 0.61
2 -10 3 19.66 0.66
2 -10 3 18.79 1.21
-2 -10 -3 18.02 1.4
-2 -10 -3 18.63 1.19
2 -10 3 18.18 0.83
2 -10 3 19.49 1.56
-2 -10 -3 18.76 0.99
-2 10 -3 19.2 1.19
2 10 3 19.86 1.04
2 10 3 19.44 1.19
-2 10 -3 19.38 1.66
3 -10 3 1.71 0.79
-3 -10 -3 1.59 0.46
-3 -10 -3 2.03 0.58
3 -10 3 1.52 0.82
3 -10 3 2.04 0.42
-3 -10 -3 2.39 0.74
3 -10 3 1.42 0.36
-3 -10 -3 2.42 0.56
3 10 3 1.75 0.53
3 10 3 2.49 0.61
-3 10 -3 1.75 0.5
3 10 3 1.84 0.61
-3 10 -3 1.78 0.58
-3 10 -3 2.51 0.97
3 10 3 1.64 0.26
-4 -10 -3 31.51 1.36
-4 -10 -3 33.22 1.55
4 -10 3 32.57 1.07
4 -10 3 32.87 1.03
4 -10 3 32.71 1.63
4 -10 3 32.02 2.12
-4 -10 -3 31.83 1.21
4 10 3 31.78 0.82
-4 10 -3 34.06 1.35
-4 10 -3 32.59 1.63
4 10 3 32.46 1.51
4 10 3 31.91 1.64
-5 -10 -3 0.34 0.66
5 -10 3 1.05 0.38
-5 -10 -3 0.21 0.51
5 -10 3 0.78 0.56
5 -10 3 0.97 0.93
-5 -10 -3 0.78 0.74
-5 -10 -3 0.8 1.03
5 -10 3 0.62 0.51
5 10 3 0.52 0.44
5 10 3 1.29 0.72
-5 10 -3 -0.37 1.13
5 10 3 0.47 0.25
5 10 3 1.13 0.7
-5 10 -3 0.88 0.63
-5 10 -3 0.79 0.68
5 10 3 0.78 0.48
6 -10 3 3.04 0.69
-6 -10 -3 5.12 0.92
6 -10 3 4.27 0.43
6 -10 3 5.55 1.2
6 -10 3 3.64 0.7
-6 -10 -3 3.78 0.76
-6 -10 -3 2.94 0.92
6 10 3 5.73 0.97
6 10 3 4.88 0.69
-6 10 -3 5.02 0.89
6 10 3 4.46 0.75
-6 10 -3 4.23 1.33
-6 10 -3 3.01 0.79
6 10 3 3.9 0.36
6 10 3 4.17 0.79
7 -10 3 1.14 0.76
-7 -10 -3 0.77 0.86
7 -10 3 0.99 0.36
-7 -10 -3 1.22 0.92
7 -10 3 -1.3 1.08
-7 -10 -3 -0.64 0.98
7 10 3 0.42 0.38
7 10 3 -0.15 0.75
-7 10 -3 1.34 0.94
7 10 3 2.65 1.07
7 10 3 1.73 0.65
-7 10 -3 0.68 0.8
-7 10 -3 0.37 1.39
7 10 3 -0.26 0.65
8 -10 3 0.32 0.95
-8 -10 -3 -0.84 1.07
8 -10 3 0.54 1.06
-8 -10 -3 0.92 0.98
-8 -10 -3 -0.71 1.12
8 -10 3 -2.48 1.42
8 10 3 -0.72 0.67
8 10 3 0.74 1.31
-8 10 -3 0.19 1.23
-8 10 -3 -0.2 1.52
-8 10 -3 -0.93 0.96
8 10 3 -0.24 0.49
8 10 3 0.66 0.84
8 10 3 0.89 0.85
-8 10 -3 -0.92 0.83
-9 -10 -3 0.81 1.32
9 -10 3 1.65 1.35
9 -10 3 -1.42 1.12
9 -10 3 1.85 1.7
-9 -10 -3 -0.41 1.2
9 10 3 0.29 0.84
-9 10 -3 0.71 2.03
-9 10 -3 -2.47 2.11
-9 10 -3 -0.46 0.96
9 -11 -3 3.22 1.36
9 -11 -3 1.4 1.02
9 -11 -3 4.57 1.38
9 -11 -3 2.39 1.34
-9 11 3 -1.74 1.6
9 11 -3 2.75 0.73
-9 11 3 0.01 1.21
9 11 -3 2.27 1.18
-9 11 3 0.47 1.23
-8 -11 3 0.36 0.54
8 -11 -3 1.12 1.1
-8 -11 3 1.1 1.14
8 -11 -3 0.83 0.93
8 -11 -3 -0.57 1.08
8 -11 -3 1.07 1.03
-8 11 3 2.07 0.94
8 11 -3 0.02 1.06
8 11 -3 0.54 0.55
8 11 -3 -0.09 0.58
8 11 -3 -0.22 0.64
-8 11 3 -0.45 1.44
-8 11 3 0.59 1.04
-8 11 3 0.72 1.06
7 -11 -3 1.08 0.96
7 -11 -3 1.65 1.27
-7 -11 3 1.99 0.98
7 -11 -3 2.62 0.87
-7 11 3 0.93 1.27
7 11 -3 3.39 0.6
7 11 -3 3.04 0.99
7 11 -3 2.08 0.53
-7 11 3 2.18 0.87
7 11 -3 3.04 0.81
-7 11 3 1.26 0.79
6 -11 -3 1.09 0.76
6 -11 -3 1.57 0.69
-6 -11 3 0.45 0.48
-6 -11 3 1.3 0.81
-6 -11 3 -0.28 0.51
6 -11 -3 0.84 1.05
-6 11 3 0.24 0.7
6 11 -3 0.29 0.44
6 11 -3 0.19 0.47
6 11 -3 1.49 0.74
-6 11 3 -0.5 1.15
6 11 -3 1.42 0.81
-6 11 3 1.27 0.76
-5 -11 3 -0.2 0.63
5 -11 -3 -0.64 0.65
-5 -11 3 0.23 0.38
5 -11 -3 0.29 0.91
-5 -11 3 -0.58 0.42
5 -11 -3 -0.92 0.65
5 11 -3 0.85 0.7
-5 11 3 0.16 0.64
-5 11 3 -0.13 1.15
5 11 -3 0.36 0.49
5 11 -3 0.23 0.61
-5 11 3 0.71 0.57
-4 -11 3 9.54 0.96
4 -11 -3 8.95 0.76
4 -11 -3 9.92 1.11
4 -11 -3 9.76 1.36
-4 -11 3 10.04 0.97
4 11 -3 10.7 1.22
-4 11 3 9.63 1.08
4 11 -3 10.11 0.97
-4 11 3 9.76 0.89
-3 -11 3 0.35 0.42
3 -11 -3 0.16 0.54
3 -11 -3 -0.42 0.76
-3 -11 3 0.29 0.53
3 -11 -3 0.24 0.5
-3 -11 3 0.21 0.24
-3 11 3 0.33 0.42
3 11 -3 -0.52 0.52
3 11 -3 -0.08 0.45
-3 11 3 -0.79 1.31
-3 11 3 -0.41 0.54
3 11 -3 0.32 0.71
-3 11 3 0.2 0.28
-2 -11 3 7.71 0.88
2 -11 -3 10.92 1.35
2 -11 -3 7.85 1
-2 -11 3 8.05 0.79
2 -11 -3 9.04 0.63
2 11 -3 8.34 1.11
2 11 -3 8.93 0.89
-2 11 3 7.31 1.01
2 11 -3 7.78 0.72
-2 11 3 9.02 0.65
-2 11 3 8.31 1.08
-2 11 3 9.93 0.69
1 -11 -3 1.06 0.74
-1 -11 3 0.34 0.47
1 -11 -3 0.5 0.47
-1 -11 3 0.95 0.3
-1 -11 3 0.6 0.46
1 -11 -3 0.66 0.51
-1 -11 3 0.45 0.26
1 -11 -3 0.58 0.41
-1 -11 3 0.42 0.17
-1 11 3 0.28 0.54
-1 11 3 0.52 0.39
1 11 -3 0.64 0.48
1 11 -3 0.83 0.75
-1 11 3 0.61 0.3
-1 11 3 0.57 0.74
1 11 -3 0.05 0.46
0 -11 -3 0.97 0.52
0 -11 3 0.52 0.33
0 -11 -3 0.27 0.37
0 -11 3 0.29 0.43
0 11 3 -0.06 0.62
0 11 -3 0.36 0.72
0 11 3 0.21 0.48
0 11 3 0.67 0.46
0 11 3 0.57 0.24
0 11 -3 0.49 0.45
0 11 -3 0.51 0.48
1 -11 3 0.69 0.56
-1 -11 -3 0.73 0.45
-1 -11 -3 0.71 0.38
1 -11 3 1.78 0.82
1 -11 3 1.1 0.41
1 -11 3 1.01 0.26
-1 -11 -3 1.78 0.61
1 11 3 1.47 0.53
1 11 3 1.09 0.73
-1 11 -3 1.43 0.61
-1 11 -3 1.87 0.95
1 11 3 1.01 0.54
2 -11 3 -0.37 0.71
-2 -11 -3 0.2 0.47
2 -11 3 0.25 0.3
2 -11 3 -0.05 0.5
-2 -11 -3 0.61 0.52
-2 -11 -3 0.77 0.57
-2 11 -3 0.89 0.54
2 11 3 0.81 0.77
2 11 3 0.64 0.7
-2 11 -3 0.09 0.87
2 11 3 0.83 0.56
3 -11 3 16.83 1.74
3 -11 3 16.36 0.86
3 -11 3 14.77 0.75
-3 -11 -3 16.51 1.28
-3 -11 -3 15.48 1.1
-3 -11 -3 17.6 0.98
-3 -11 -3 12.57 1.36
3 -11 3 17.06 1.29
3 11 3 16.11 1.39
3 11 3 18.04 1.22
-3 11 -3 15.37 1.29
-3 11 -3 13.66 1.23
-3 11 -3 16.86 1.86
-4 -11 -3 -0.4 0.76
-4 -11 -3 0.34 0.59
4 -11 3 0.21 0.46
4 -11 3 -0.27 0.41
-4 -11 -3 -0.02 0.56
4 -11 3 0.52 0.96
-4 -11 -3 0.61 0.65
4 -11 3 0.17 0.64
4 11 3 0.61 0.71
-4 11 -3 0.25 0.65
-4 11 -3 -0.05 0.6
4 11 3 0.12 0.56
-4 11 -3 1.4 1.06
4 11 3 -0.81 0.71
5 -11 3 12.96 1.32
-5 -11 -3 11.67 0.86
-5 -11 -3 12.49 1.39
5 -11 3 10.2 0.76
-5 -11 -3 13.28 1.16
5 -11 3 11.89 1.79
5 -11 3 12.96 1.01
5 11 3 12.47 1.2
5 11 3 13.09 1.42
-5 11 -3 13.07 1.02
5 11 3 12 1.11
-5 11 -3 14.21 1.87
-5 11 -3 13.8 1.43
-6 -11 -3 -0.42 0.95
6 -11 3 1.49 0.71
6 -11 3 1.98 1.36
-6 -11 -3 1.99 1.04
-6 -11 -3 1.53 0.81
6 11 3 2.12 0.99
6 11 3 1.8 0.72
6 11 3 0.84 0.85
-6 11 -3 0.61 0.87
-6 11 -3 1.49 1.34
-6 11 -3 1.51 0.83
7 -11 3 3.41 1.46
-7 -11 -3 0.99 1.24
-7 -11 -3 2.06 1.27
7 -11 3 -1.63 0.88
-7 -11 -3 -1.55 0.98
-7 -11 -3 -1.02 0.94
7 11 3 0.86 0.88
7 11 3 -0.88 1.13
-7 11 -3 -0.54 1.04
-7 11 -3 0.05 1.7
-7 11 -3 -1.01 0.89
7 11 3 1.03 0.74
7 11 3 1.16 0.72
-8 -11 -3 -0.43 1.19
8 -11 3 -0.15 1.22
-8 -11 -3 -0.18 1.28
8 -11 3 -0.52 0.95
8 -11 3 -1.67 1.77
-8 11 -3 -0.2 1.09
-8 11 -3 -0.7 1.29
-8 11 -3 -2.19 2.15
8 11 3 -0.55 0.88
8 11 3 0.49 0.87
8 -12 -3 -1.04 1.31
8 -12 -3 0.22 0.95
-8 -12 3 -0.01 1.31
8 -12 -3 1.03 1.23
8 -12 -3 1.02 1.62
-8 -12 3 -0.98 0.94
-8 12 3 -1.58 1.68
-8 12 3 1.68 1.29
8 12 -3 -0.18 0.77
8 12 -3 0.17 0.76
-8 12 3 -2.18 1.17
8 12 -3 -0.86 0.62
-7 -12 3 0.55 0.67
-7 -12 3 1.1 0.93
7 -12 -3 0.01 1.1
7 -12 -3 1.23 1.52
7 -12 -3 2.27 0.97
-7 -12 3 -1.06 1.07
7 12 -3 3.81 1.08
7 12 -3 1.34 0.54
-7 12 3 2.17 1.06
7 12 -3 0.16 0.82
7 12 -3 0.48 0.58
-7 12 3 2.37 1.56
-7 12 3 -0.45 1.01
-6 -12 3 -0.44 0.9
6 -12 -3 -0.6 0.86
6 -12 -3 -1.33 0.96
-6 -12 3 -0.52 0.58
-6 -12 3 0.23 0.97
6 -12 -3 1.11 0.73
6 12 -3 1.39 0.9
6 12 -3 0.1 0.82
-6 12 3 0 0.81
-6 12 3 -1.02 1.26
6 12 -3 0.67 0.5
6 12 -3 0 0.61
-6 12 3 -0.03 0.8
-5 -12 3 3.34 1.01
5 -12 -3 2.83 0.91
5 -12 -3 3.6 1.19
-5 -12 3 4.73 0.94
5 -12 -3 1.97 0.77
-5 12 3 2.25 0.73
5 12 -3 3.07 0.69
5 12 -3 1.72 0.81
-5 12 3 5 0.92
5 12 -3 1.88 0.85
-5 12 3 1.44 1.15
-4 -12 3 -0.11 0.68
-4 -12 3 1.96 0.85
-4 -12 3 1.05 0.59
4 -12 -3 -0.15 0.69
-4 -12 3 -0.02 0.35
4 -12 -3 -0.14 0.66
4 -12 -3 0.94 1.07
4 12 -3 -0.25 0.58
-4 12 3 -1.79 0.99
-4 12 3 -0.08 0.56
-4 12 3 -1.16 0.72
4 12 -3 -0.2 0.7
4 12 -3 -0.31 0.74
3 -12 -3 3.61 0.65
-3 -12 3 6.33 1.02
-3 -12 3 4.54 0.79
3 -12 -3 4.78 1.14
3 -12 -3 4.75 0.8
-3 -12 3 3.55 0.7
3 12 -3 2.62 0.68
-3 12 3 4.39 1.24
3 12 -3 3.15 0.98
-3 12 3 3.05 0.79
-3 12 3 4.03 0.57
-2 -12 3 1.9 0.79
-2 -12 3 0.69 0.53
-2 -12 3 -0.29 0.2
2 -12 -3 0.66 0.64
2 -12 -3 0.59 0.46
2 -12 -3 0.83 0.51
-2 -12 3 0.3 0.56
2 -12 -3 1.92 1.02
2 12 -3 0.63 0.82
-2 12 3 1.6 0.83
-2 12 3 -0.14 0.66
2 12 -3 1.82 0.57
-2 12 3 0.44 0.39
-2 12 3 0.77 0.44
2 12 -3 0.7 0.61
1 -12 -3 1.83 0.97
-1 -12 3 -0.47 0.31
1 -12 -3 1.52 0.53
1 -12 -3 1.14 0.51
-1 -12 3 0.05 0.18
-1 -12 3 0.39 0.59
-1 -12 3 1.64 0.54
-1 -12 3 -0.09 0.26
-1 12 3 2.5 0.71
-1 12 3 -0.95 0.76
-1 12 3 0.65 0.49
1 12 -3 2.22 0.62
1 12 -3 1.98 0.91
-1 12 3 0.89 0.37
0 -12 -3 2 0.46
0 -12 3 1.04 0.64
0 -12 3 1.15 0.39
0 -12 -3 2.81 0.77
0 -12 -3 2.01 0.55
0 -12 3 0.3 0.22
0 -12 -3 0.62 1.3
0 -12 3 1.11 0.5
0 12 3 0.34 1.26
0 12 -3 1.16 0.53
0 12 3 1.47 0.29
0 12 -3 2.01 0.69
0 12 3 1.47 0.74
0 12 3 1.61 0.57
0 12 -3 1.84 0.94
1 -12 3 6.09 0.57
-1 -12 -3 6.06 0.71
-1 -12 -3 5.93 0.87
1 -12 3 6.48 1.17
1 12 3 6.15 0.84
1 12 3 7.32 1.01
-1 12 -3 4.85 0.85
-1 12 -3 5.36 1.22
1 12 3 6.81 1.11
2 -12 3 11.1 0.99
-2 -12 -3 13.16 1.29
2 -12 3 11.96 1.19
-2 -12 -3 11.25 0.97
2 -12 3 13.34 1.75
-2 -12 -3 11.33 1.55
-2 -12 -3 12.28 1.11
2 12 3 10.42 0.89
2 12 3 11.88 1.56
-2 12 -3 12.4 1.56
-2 12 -3 11.38 1.28
2 12 3 14.01 1.31
-3 -12 -3 2.2 0.96
3 -12 3 0.36 0.43
-3 -12 -3 1.23 0.73
3 -12 3 1.25 1.07
3 -12 3 1.27 0.67
3 -12 3 1.64 0.66
-3 -12 -3 1.74 0.61
-3 -12 -3 0.7 0.74
-3 12 -3 1.73 0.84
-3 12 -3 0.77 0.66
3 12 3 2.67 0.79
3 12 3 2.53 0.94
-3 12 -3 1.31 1.08
3 12 3 -0.1 0.7
-4 -12 -3 5.34 0.75
4 -12 3 6.75 1.28
-4 -12 -3 5.59 0.91
4 -12 3 7.44 1.17
-4 -12 -3 5.82 1.19
-4 12 -3 7.01 0.91
4 12 3 4.83 0.91
4 12 3 5.83 0.94
4 12 3 5.6 1.08
-4 12 -3 6.07 1.04
-4 12 -3 5.94 1.5
5 -12 3 -0.12 0.8
-5 -12 -3 1.09 1.04
5 -12 3 -0.69 1.35
5 -12 3 0.51 0.67
-5 -12 -3 -0.93 0.79
-5 -12 -3 -0.64 0.93
-5 -12 -3 0.04 0.78
-5 12 -3 0.36 0.9
5 12 3 0.06 1.01
-5 12 -3 -0.05 0.89
5 12 3 -1 0.74
5 12 3 1.69 0.9
-5 12 -3 -0.3 1.38
-6 -12 -3 0.63 0.91
-6 -12 -3 -0.4 0.84
6 -12 3 -0.26 1.42
6 -12 3 -0.58 0.84
-6 -12 -3 1.04 1.21
6 -12 3 1.63 1.04
-6 -12 -3 0.39 1.16
-6 12 -3 2.52 1.14
-6 12 -3 1.11 1.01
6 12 3 1.37 0.96
6 12 3 1.09 0.82
-6 12 -3 1.54 1.78
6 12 3 1.68 1.11
-7 -12 -3 3.45 1.19
-7 -12 -3 3.49 1.55
-7 -12 -3 -1.77 1.59
-7 -12 -3 0.98 1.36
7 -12 3 0.29 1.62
7 -12 3 1.49 0.97
7 -12 3 -0.57 1.07
-7 12 -3 3.82 1.32
7 12 3 3.37 0.99
7 12 3 4.02 1.16
-7 12 -3 6.18 2.02
-7 -13 3 1.31 1.29
7 -13 -3 -0.46 1.26
7 -13 -3 -0.01 1.18
-7 -13 3 -1.16 1.3
7 -13 -3 0.78 1.59
-7 -13 3 2.66 1.26
7 13 -3 1.94 0.62
-7 13 3 2.43 1.97
-7 13 3 0.82 1.15
7 13 -3 0.06 0.99
7 13 -3 0.82 0.78
6 -13 -3 0.82 1.52
6 -13 -3 0.96 1.06
-6 -13 3 -0.41 1.15
-6 -13 3 0.08 1.03
6 -13 -3 0.6 1.02
-6 -13 3 0.26 0.73
-6 13 3 2.57 0.98
6 13 -3 2.25 1.06
-6 13 3 1.13 1.66
6 13 -3 0.8 0.55
6 13 -3 1.85 0.8
-6 13 3 0.69 0.99
6 13 -3 0.95 1.08
-5 -13 3 -0.38 0.92
5 -13 -3 -0.6 0.86
-5 -13 3 -0.07 0.65
5 -13 -3 -1.5 1.19
-5 -13 3 0.24 1
5 -13 -3 0.38 0.89
5 13 -3 0.31 0.71
5 13 -3 -0.29 0.9
-5 13 3 1.63 1.44
-5 13 3 -1.57 0.78
5 13 -3 -0.81 0.91
-5 13 3 0.93 1
-4 -13 3 2.36 0.87
4 -13 -3 1.54 0.8
-4 -13 3 1.89 1.21
-4 -13 3 0.13 0.38
-4 -13 3 0.53 0.67
4 -13 -3 1.74 1.19
4 -13 -3 3.77 1.06
-4 13 3 3.47 0.97
-4 13 3 1.62 0.68
-4 13 3 3.85 1.47
4 13 -3 2.11 1.02
4 13 -3 1.92 0.73
4 13 -3 0.3 0.9
3 -13 -3 1.29 0.7
3 -13 -3 0.54 0.79
-3 -13 3 1.44 0.81
3 -13 -3 1.87 1.26
-3 -13 3 0.49 0.7
-3 -13 3 0.78 1
-3 -13 3 0.09 0.3
3 13 -3 -0.09 1
3 13 -3 0.88 0.81
-3 13 3 0.41 0.4
3 13 -3 0.95 0.72
-3 13 3 0.35 0.57
-3 13 3 -1.29 0.82
-3 13 3 -0.52 1.01
-2 -13 3 6.39 0.82
-2 -13 3 4.89 1.19
2 -13 -3 6.74 0.73
-2 -13 3 5.82 0.89
2 -13 -3 10.81 1.39
2 -13 -3 6.69 1.34
2 -13 -3 6.73 0.79
2 13 -3 6.53 0.94
-2 13 3 7.81 0.62
-2 13 3 7.43 1.49
-2 13 3 7.95 1.14
2 13 -3 8.91 1.4
1 -13 -3 1.01 0.56
-1 -13 3 1.4 0.63
1 -13 -3 1.81 0.64
1 -13 -3 0.63 0.73
-1 -13 3 1.01 0.69
-1 -13 3 0.91 0.92
1 -13 -3 2.29 1.15
1 13 -3 0.4 1
-1 13 3 0.87 0.43
-1 13 3 0.82 0.85
-1 13 3 0.68 0.97
-1 13 3 1.24 0.58
1 13 -3 1.58 0.67
0 -13 -3 2.17 0.68
0 -13 3 2.66 0.7
0 -13 -3 0.05 0.52
0 -13 -3 0.84 1.11
0 -13 3 2.17 1.08
0 -13 3 -0.17 0.44
0 -13 -3 2.61 0.83
0 -13 3 0.75 1.16
0 13 3 1.6 0.8
0 13 3 1.55 0.67
0 13 -3 0.29 0.73
0 13 3 1.7 0.32
0 13 -3 1.15 1.15
0 13 3 2.79 1
-1 -13 -3 3.4 0.8
1 -13 3 4.24 0.94
1 -13 3 4.89 1.3
-1 -13 -3 5.82 1.01
-1 -13 -3 6.06 1.31
1 13 3 2.3 0.77
-1 13 -3 5.39 1.48
1 13 3 3.87 0.99
1 13 3 5.32 1.17
-1 13 -3 4.26 0.9
-1 13 -3 3.75 0.7
2 -13 3 -0.03 0.38
2 -13 3 -0.8 0.6
2 -13 3 -1.37 1.06
-2 -13 -3 -0.57 0.72
-2 -13 -3 -1.15 0.99
-2 -13 -3 0.44 0.64
-2 -13 -3 0.72 0.8
2 -13 3 -0.1 0.65
-2 13 -3 0.25 0.67
-2 13 -3 2.12 1.24
2 13 3 -1.37 0.94
2 13 3 1.85 1.47
-2 13 -3 -0.76 0.73
2 13 3 -0.39 0.91
3 -13 3 0.11 0.48
3 -13 3 -0.73 1.21
-3 -13 -3 1.58 0.73
-3 -13 -3 2.62 1.19
-3 -13 -3 2.44 0.91
3 -13 3 2.5 0.8
3 -13 3 0.95 0.78
-3 -13 -3 1.01 0.89
3 13 3 1.65 0.85
3 13 3 4.42 1.18
3 13 3 1.51 0.94
-3 13 -3 2.76 0.98
-3 13 -3 1.51 1.42
-3 13 -3 0.87 0.77
-4 -13 -3 -0.27 0.96
4 -13 3 2.29 1.46
4 -13 3 0.33 0.85
-4 -13 -3 -1.33 1.1
-4 -13 -3 -0.17 0.74
4 -13 3 0.09 0.62
-4 -13 -3 0.34 0.88
4 -13 3 -0.31 0.84
-4 13 -3 -0.73 1.32
-4 13 -3 0.15 0.92
4 13 3 0.99 0.97
4 13 3 1.56 1.08
-4 13 -3 -0.12 0.89
4 13 3 0.12 0.95
5 -13 3 0.03 0.76
-5 -13 -3 1.26 1.3
5 -13 3 -1.19 0.76
-5 -13 -3 -1.03 1.08
5 -13 3 -0.89 1.57
-5 -13 -3 0.38 0.92
-5 -13 -3 -1.4 0.91
5 -13 3 0.92 1.06
-5 13 -3 2.78 1.75
5 13 3 -0.02 1.2
-5 13 -3 -0.07 1
5 13 3 0.35 1.05
-5 13 -3 0.89 1.15
5 13 3 1.82 0.94
-6 -13 -3 -1.41 1.33
6 -13 3 -3.48 1.63
6 -13 3 -0.51 1.05
6 -13 3 0.85 0.97
-6 -13 -3 2.2 1.04
-6 -13 -3 -0.27 1.08
6 -13 3 -0.63 1.26
-6 -13 -3 2.17 1.49
6 13 3 1.82 1.28
-6 13 -3 -1.68 1.97
-6 13 -3 0.24 1.3
6 13 3 0.78 1.05
6 -14 -3 -1.88 1.23
6 -14 -3 -2.17 1.68
-6 -14 3 0.18 1.25
-6 -14 3 0.14 1.52
-6 -14 3 1.61 1.44
6 -14 -3 -1.46 1.22
-6 14 3 -1.87 1.07
6 14 -3 1.11 1.25
-6 14 3 2.52 1.92
6 14 -3 -0.57 0.6
6 14 -3 -0.58 0.88
5 -14 -3 -1.61 1.05
-5 -14 3 -0.09 0.89
-5 -14 3 -0.33 1.15
5 -14 -3 -0.14 1.67
5 -14 -3 1.13 1.16
-5 -14 3 -1.83 1.29
-5 14 3 2.81 1.2
5 14 -3 -0.62 1.2
5 14 -3 0.11 1.17
-5 14 3 2.81 1.77
-5 14 3 1.17 0.95
5 14 -3 0.24 0.91
-4 -14 3 1.62 1.24
4 -14 -3 2.02 1.13
4 -14 -3 0.51 0.93
-4 -14 3 0.48 1.03
-4 -14 3 -0.12 0.81
4 -14 -3 2.15 1.45
-4 14 3 -0.05 1.48
-4 14 3 1.23 0.81
4 14 -3 1.34 1.1
4 14 -3 -1.02 0.81
-4 14 3 0.44 1.05
4 14 -3 1.9 1.15
3 -14 -3 0.87 0.92
3 -14 -3 -0.49 0.97
-3 -14 3 1.58 0.98
3 -14 -3 1.75 0.73
-3 -14 3 1.45 1.22
3 -14 -3 0.5 1.33
-3 -14 3 -1.5 0.88
-3 14 3 1.12 0.71
-3 14 3 2.8 1.07
3 14 -3 0.91 0.88
3 14 -3 0.1 0.96
3 14 -3 0.63 1.08
-3 14 3 -0.59 0.47
-3 14 3 0.15 1.35
-2 -14 3 -1.16 0.79
2 -14 -3 0.32 0.72
2 -14 -3 -1.73 0.89
-2 -14 3 -0.1 1.2
2 -14 -3 -0.22 0.71
-2 -14 3 2.3 0.88
2 -14 -3 3.76 1.42
2 14 -3 1.25 1
2 14 -3 1.19 1.19
-2 14 3 -0.79 0.87
-2 14 3 -0.12 0.62
-2 14 3 0.54 0.59
-2 14 3 0.91 1.32
2 14 -3 -0.31 0.91
1 -14 -3 2.47 0.82
-1 -14 3 4.09 1.29
1 -14 -3 4.73 1.51
1 -14 -3 4.58 1.08
-1 -14 3 4.13 0.88
-1 -14 3 3.81 0.85
1 -14 -3 0.85 0.67
-1 14 3 3.4 0.54
1 14 -3 2.75 0.95
1 14 -3 2.8 1.3
1 14 -3 2.36 1.12
-1 14 3 2.24 0.97
-1 14 3 2.85 1.33
0 -14 -3 -0.27 0.61
0 -14 -3 3.48 1.33
0 -14 -3 1.95 0.85
0 -14 3 2.64 1.06
0 -14 -3 3.96 1.09
0 -14 3 1.43 0.79
0 -14 3 1.8 1.29
0 14 -3 2.35 0.79
0 14 3 0.37 1.1
0 14 3 1.03 0.99
0 14 -3 1.39 0.67
0 14 -3 2.09 1.2
0 14 3 1.68 0.8
0 14 -3 2.18 0.96
-1 -14 -3 -0.3 0.49
-1 -14 -3 0.7 0.95
1 -14 3 -0.14 0.27
1 -14 3 0.49 0.7
-1 -14 -3 1.6 0.91
1 -14 3 0.2 0.62
1 -14 3 -1.08 0.73
1 -14 3 0.03 0.3
-1 -14 -3 1.16 1.39
1 -14 3 1.53 1.43
-1 14 -3 0.34 0.71
1 14 3 2.09 0.98
-1 14 -3 0.16 1.19
1 14 3 0.99 1.22
-1 14 -3 0.66 0.83
2 -14 3 0.64 0.44
2 -14 3 4.14 0.93
-2 -14 -3 1.94 1.08
-2 -14 -3 3.02 1.01
2 -14 3 1.33 1.42
-2 -14 -3 0.77 0.76
2 -14 3 0.11 0.75
-2 -14 -3 2.17 1.4
-2 14 -3 3.03 1.57
2 14 3 1.6 1.02
-2 14 -3 1.48 0.85
2 14 3 1.65 1.19
2 14 3 3.13 1
-2 14 -3 1.93 1.03
-3 -14 -3 3.35 1.49
-3 -14 -3 0.83 0.83
3 -14 3 -0.55 0.87
3 -14 3 0.96 1.71
3 -14 3 1.41 0.55
3 -14 3 0.37 1.08
-3 -14 -3 0.18 0.99
-3 -14 -3 -0.52 1.04
-3 14 -3 -1.63 1.08
-3 14 -3 -1.24 1.7
3 14 3 0.99 1.07
3 14 3 -0.24 1.13
-3 14 -3 -0.11 0.9
3 14 3 1.28 1.26
-4 -14 -3 0.26 1.19
-4 -14 -3 0.32 1.08
4 -14 3 -0.54 0.85
4 -14 3 0.77 0.71
4 -14 3 0.47 1.07
-4 -14 -3 0.16 0.92
4 -14 3 0.77 1.66
-4 -14 -3 1.42 1.86
4 14 3 0.46 1.2
4 14 3 -1.31 1.25
-4 14 -3 -0.09 1.07
-4 14 -3 3.04 1.98
-4 14 -3 -0.4 1.04
4 14 3 0.44 1.02
-5 -14 -3 -0.65 1.12
-5 -14 -3 -0.36 1.18
-5 -14 -3 -0.54 1.4
5 -14 3 0.73 1.37
5 -14 3 -1.13 1.97
5 -14 3 2.06 1.27
5 -14 3 0.94 1.01
5 14 3 -1.15 1.1
-5 14 -3 1.15 1.23
-5 14 -3 1.35 1.95
5 14 3 -0.16 1.11
-4 -15 3 -0.48 1.17
4 -15 -3 0.36 1.13
4 -15 -3 0.32 1.93
-4 -15 3 -2.14 1.02
4 -15 -3 -2.98 1.16
-4 15 3 0.27 0.97
4 15 -3 -2.95 1.23
4 15 -3 0.92 1.36
4 15 -3 2.59 1.12
-4 15 3 -1.01 1.75
3 -15 -3 -0.62 1.75
-3 -15 3 -0.48 1.15
3 -15 -3 -0.4 0.98
3 -15 -3 0.49 0.91
3 -15 -3 0.05 1.18
-3 -15 3 -0.04 0.96
-3 15 3 -1.51 1.58
3 15 -3 -1.1 1.36
-3 15 3 0.37 0.83
-3 15 3 0.68 1.28
3 15 -3 1.07 1.2
3 15 -3 -1.11 1.04
2 -15 -3 1.2 0.89
2 -15 -3 1.65 1.69
2 -15 -3 -1.2 1.05
-2 -15 3 0.25 1.1
2 -15 -3 -0.03 0.91
-2 -15 3 2.04 1.04
-2 15 3 0.83 0.72
2 15 -3 2.74 1.37
2 15 -3 -0.03 1.06
-2 15 3 -0.43 1.25
2 15 -3 -0.78 1.11
-2 15 3 0.79 0.73
-2 15 3 1.09 1.45
-1 -15 3 -0.11 0.97
1 -15 -3 1.57 1.2
1 -15 -3 0.62 0.96
1 -15 -3 1.67 1.7
-1 -15 3 -0.24 0.96
-1 -15 3 1.8 1.76
1 -15 -3 -0.31 0.79
1 15 -3 -0.1 0.74
1 15 -3 0.42 1
-1 15 3 0.65 0.56
-1 15 3 0.4 1.23
1 15 -3 -0.02 1.09
-1 15 3 0.46 1.4
1 15 -3 3.6 1.46
0 -15 3 0.34 0.63
0 -15 -3 1.39 2.68
0 -15 3 -4.07 2.46
0 -15 3 1.71 0.92
0 -15 3 1.64 0.88
0 -15 -3 0.56 0.71
0 -15 3 0.48 0.55
0 -15 -3 0.87 0.99
0 -15 -3 -0.13 1.06
0 15 -3 -1.44 1.13
0 15 -3 2.82 1.74
0 15 3 -1.57 1.02
0 15 -3 0.62 0.8
0 15 3 0.65 1.49
1 -15 3 1.02 0.92
1 -15 3 0.94 0.75
-1 -15 -3 1.33 0.89
1 -15 3 1.76 1.14
-1 -15 -3 0.53 1.01
-1 -15 -3 2.11 1.25
-1 15 -3 0.3 1.72
1 15 3 -1.9 1.16
-1 15 -3 2.6 1.21
1 15 3 0.33 1.08
-1 15 -3 0.73 0.87
1 15 3 0.65 1.38
2 -15 3 -1.02 0.9
2 -15 3 -1.78 1.07
-2 -15 -3 0.59 1.27
-2 -15 -3 -0.25 0.89
-2 -15 -3 1.21 1.13
2 15 3 1.3 1.25
-2 15 -3 0.75 1.26
2 15 3 -1.55 1.23
-2 15 -3 1.28 1.75
-2 15 -3 0.44 0.99
2 15 3 -0.85 1.55
-3 -15 -3 4.27 1.32
-3 -15 -3 0.3 0.97
3 -15 3 -0.22 1.09
-3 -15 -3 0.17 1.23
3 15 3 -2.16 1.21
3 15 3 0.18 1.47
3 15 3 3.31 1.41
-3 15 -3 0.07 1.07
-3 15 -3 -3.37 1.26
-3 15 -3 -0.8 1.84
1 -16 -3 2.52 1.14
1 16 -3 -0.85 0.89
0 -16 -3 1.12 1.23
13 0 -4 0.47 1.31
13 0 -4 0.92 1.01
12 0 -4 0.04 1.01
12 0 -4 -0.73 1.01
12 0 -4 -0.67 0.92
12 0 -4 -0.51 0.99
12 0 -4 0.37 0.78
11 0 -4 0.31 0.71
11 0 -4 -0.22 0.7
11 0 -4 0.37 0.81
11 0 -4 0.48 0.74
11 0 -4 0.3 0.63
11 0 -4 -0.85 0.82
10 0 -4 2.18 0.64
10 0 -4 0.49 0.62
10 0 -4 1.18 0.67
10 0 -4 0.82 0.52
10 0 -4 1.28 0.61
10 0 -4 1.94 0.68
9 0 -4 6.12 0.63
9 0 -4 5.85 0.61
9 0 -4 6.86 0.68
9 0 -4 6.33 0.56
9 0 -4 6.89 0.69
9 0 -4 5.83 0.59
8 0 -4 22.99 0.93
8 0 -4 22.56 0.98
8 0 -4 23.91 1
8 0 -4 22.69 0.96
8 0 -4 22.95 0.86
8 0 -4 23.5 0.96
-8 0 4 24.17 0.94
7 0 -4 17.41 0.75
7 0 -4 17.51 0.77
7 0 -4 17.1 0.77
-7 0 4 18.43 0.75
7 0 -4 17.86 0.75
7 0 -4 16.79 0.75
7 0 -4 17.91 0.69
6 0 -4 1.09 0.26
6 0 -4 1.08 0.29
6 0 -4 1.15 0.16
-6 0 4 0.94 0.29
6 0 -4 1.34 0.24
6 0 -4 1.12 0.23
6 0 -4 0.73 0.29
6 0 -4 1.22 0.28
6 0 -4 1.26 0.29
5 0 -4 54.2 1.32
5 0 -4 55.43 1.27
5 0 -4 50.39 1.3
5 0 -4 53.83 1.28
-5 0 4 53.28 1.28
5 0 -4 51.54 1.33
-5 0 4 54.56 1.33
-5 0 4 53.27 1.24
-5 0 4 53.9 1.24
5 0 -4 53.33 1.3
4 0 -4 22.69 0.66
-4 0 4 22.71 0.64
-4 0 4 23 0.68
4 0 -4 23.13 0.68
4 0 -4 22.9 0.62
4 0 -4 23.22 0.68
4 0 -4 22.63 0.68
-4 0 4 23.41 0.64
-4 0 4 22.78 0.66
4 0 -4 23.7 0.64
-3 0 4 67.1 1.48
3 0 -4 65.87 1.57
-3 0 4 66.04 1.54
3 0 -4 68.65 1.44
-3 0 4 65.93 1.5
3 0 -4 67.81 1.51
3 0 -4 66.18 1.47
3 0 -4 66.36 1.49
-3 0 4 66.64 1.57
-3 0 4 65.31 1.48
2 0 -4 255.89 5.23
-2 0 4 245.54 5.23
2 0 -4 262.02 5.16
-2 0 4 251.29 5.33
-2 0 4 247.77 5.22
-2 0 4 257.4 5.39
2 0 -4 251.47 5.35
2 0 -4 256.27 5.39
2 0 -4 252.47 5.23
-2 0 4 258.72 5.22
1 0 -4 10.31 0.37
-1 0 4 10.19 0.33
-1 0 4 10.47 0.36
-1 0 4 10.2 0.43
1 0 -4 10.38 0.51
1 0 -4 10.3 0.33
1 0 -4 10.3 0.44
0 0 4 111.51 2.55
0 0 -4 109.66 2.31
0 0 4 107.09 2.25
0 0 -4 102.82 2.54
0 0 -4 107.68 2.25
0 0 -4 107.78 2.47
-1 0 -4 18.7 0.78
1 0 4 17.35 0.72
1 0 4 17.96 0.65
-1 0 -4 17.14 0.48
1 0 4 17.74 0.42
1 0 4 18.89 0.57
2 0 4 9.61 0.23
2 0 4 9.45 0.57
-2 0 -4 9.39 0.65
-2 0 -4 9.45 0.37
2 0 4 9.64 0.49
-2 0 -4 9.52 0.48
3 0 4 7.9 0.5
3 0 4 8.18 0.59
-3 0 -4 8.12 0.66
-3 0 -4 7.91 0.46
-3 0 -4 7.75 0.4
3 0 4 7.27 0.37
4 0 4 44.6 1.46
-4 0 -4 42.98 1.32
4 0 4 44.62 1.35
4 0 4 43.28 1.13
-4 0 -4 45.79 1.15
-4 0 -4 46.32 1.17
-4 0 -4 44.25 1.55
-5 0 -4 3.49 0.57
-5 0 -4 2.82 0.33
5 0 4 3.98 0.57
-5 0 -4 3.4 0.39
-5 0 -4 3.71 0.43
5 0 4 3.53 0.45
5 0 4 3.24 0.37
6 0 4 12.29 0.88
-6 0 -4 12.34 0.73
-6 0 -4 12.68 0.72
6 0 4 12.98 0.72
6 0 4 12 0.73
-6 0 -4 12.62 0.77
-6 0 -4 12.04 1.06
-7 0 -4 -0.15 0.6
7 0 4 0.27 0.46
7 0 4 0.27 0.33
-7 0 -4 -0.5 0.42
-7 0 -4 0.45 0.32
7 0 4 0.71 0.48
-7 0 -4 0.28 0.47
8 0 4 0.22 0.53
-8 0 -4 0.03 0.62
-8 0 -4 0.23 0.67
-8 0 -4 0.7 0.55
-8 0 -4 0.92 0.44
9 0 4 3.35 0.89
9 0 4 2.65 0.76
-9 0 -4 2.18 0.8
9 0 4 2.87 0.59
-9 0 -4 2.31 0.75
-9 0 -4 0.1 0.78
-10 0 -4 0.95 0.71
10 0 4 0.1 0.97
10 0 4 0.41 1.08
10 0 4 0.17 0.68
-10 0 -4 0.37 0.87
10 0 4 1.09 0.58
-10 0 -4 -0.6 0.99
11 0 4 2.59 0.76
11 0 4 3.64 0.88
-11 0 -4 0.4 1.21
-11 0 -4 1.82 0.87
13 -1 -4 4.15 1.47
13 -1 -4 -0.22 0.95
13 1 -4 1.91 1.28
13 1 -4 2.03 1.17
13 1 -4 0.36 1.08
12 -1 -4 0.93 0.89
12 -1 -4 1.53 1.12
12 -1 -4 2.74 1.09
12 -1 -4 -0.96 1.09
12 1 -4 0.39 0.96
12 1 -4 0.13 1.05
12 1 -4 0.44 0.91
12 1 -4 1.41 1
12 1 -4 1.65 0.89
12 1 -4 0.73 0.95
11 -1 -4 0.15 0.72
11 -1 -4 1.24 0.85
11 -1 -4 0.76 0.79
11 -1 -4 1.83 0.89
11 -1 -4 0.37 0.54
11 1 -4 -0.52 0.67
11 1 -4 0.03 0.74
11 1 -4 -0.33 0.76
11 1 -4 0.29 0.77
11 1 -4 -1.52 0.64
11 1 -4 0.05 0.69
10 -1 -4 3.56 0.7
10 -1 -4 3.69 0.68
10 -1 -4 5.81 0.78
10 -1 -4 4.74 0.65
10 -1 -4 5.11 0.75
10 -1 -4 4.58 0.54
10 1 -4 6.84 0.75
10 1 -4 4.61 0.69
10 1 -4 4.42 0.71
10 1 -4 4.94 0.64
10 1 -4 5.45 0.82
9 -1 -4 2.26 0.56
9 -1 -4 1.76 0.53
9 -1 -4 1.91 0.5
9 -1 -4 2.88 0.6
9 -1 -4 2.61 0.42
9 -1 -4 1.8 0.3
9 -1 -4 2.19 0.42
9 1 -4 2.29 0.51
9 1 -4 2.06 0.5
-9 1 4 2.56 0.52
9 1 -4 2.22 0.55
9 1 -4 1.69 0.52
9 1 -4 2.56 0.53
9 1 -4 1.42 0.49
8 -1 -4 15.77 0.82
8 -1 -4 18.12 0.91
8 -1 -4 16.97 0.89
8 -1 -4 17.04 0.65
8 -1 -4 17.45 0.82
8 -1 -4 17.46 0.71
8 -1 -4 16.9 0.84
-8 1 4 16.99 0.86
8 1 -4 16.08 0.85
-8 1 4 17.08 0.59
8 1 -4 17.35 0.83
8 1 -4 16.96 0.83
8 1 -4 17.85 0.8
-8 1 4 16.48 0.63
-8 1 4 18.07 0.85
8 1 -4 17.13 0.83
8 1 -4 17.12 0.84
7 -1 -4 3.33 0.41
7 -1 -4 3.75 0.43
7 -1 -4 3.97 0.36
7 -1 -4 3.83 0.41
7 -1 -4 4.78 0.41
7 -1 -4 4.34 0.5
7 -1 -4 4.16 0.45
-7 1 4 4.06 0.36
-7 1 4 3.56 0.42
7 1 -4 4.34 0.46
-7 1 4 4.2 0.33
7 1 -4 3.27 0.38
7 1 -4 4.16 0.39
7 1 -4 3.5 0.39
7 1 -4 3.81 0.42
-7 1 4 3.3 0.4
7 1 -4 3.58 0.37
6 -1 -4 18.77 0.61
6 -1 -4 19.98 0.75
6 -1 -4 20.74 0.72
6 -1 -4 20.47 0.75
6 -1 -4 19.47 0.67
-6 1 4 20.42 0.64
-6 1 4 19.85 0.71
6 1 -4 19.62 0.72
6 1 -4 19.81 0.69
-6 1 4 19.73 0.73
6 1 -4 20.07 0.72
6 1 -4 19.98 0.7
6 1 -4 18.98 0.7
6 1 -4 19.26 0.7
-5 -1 4 53.47 1.3
5 -1 -4 53.35 1.31
5 -1 -4 53.48 1.31
5 -1 -4 50.41 1.32
5 -1 -4 52.74 1.4
5 -1 -4 52.66 1.34
-5 -1 4 52.71 1.31
5 -1 -4 52.83 1.23
-5 1 4 52.94 1.31
5 1 -4 54.77 1.29
-5 1 4 52.8 1.32
5 1 -4 54.52 1.33
5 1 -4 52.27 1.31
-5 1 4 52.91 1.23
5 1 -4 51.59 1.27
5 1 -4 53.04 1.29
5 1 -4 52.98 1.27
4 -1 -4 11.04 0.47
4 -1 -4 11.4 0.52
4 -1 -4 11.5 0.48
4 -1 -4 11.84 0.38
4 -1 -4 11.73 0.47
-4 -1 4 10.99 0.45
-4 -1 4 11.11 0.35
-4 -1 4 11.41 0.37
-4 -1 4 10.93 0.43
4 -1 -4 11.41 0.48
-4 -1 4 10.79 0.46
-4 1 4 11.61 0.4
4 1 -4 11.72 0.44
-4 1 4 11.54 0.46
4 1 -4 11.23 0.43
-4 1 4 12 0.47
-4 1 4 11.7 0.49
4 1 -4 11.96 0.4
-4 1 4 12.12 0.47
4 1 -4 11.55 0.4
4 1 -4 11.14 0.45
4 1 -4 11.05 0.43
4 1 -4 11.22 0.44
3 -1 -4 45.57 1.21
-3 -1 4 45.88 1.06
3 -1 -4 45.75 1.1
3 -1 -4 46.58 1.1
-3 -1 4 44.75 1.12
-3 -1 4 47.01 1.09
3 -1 -4 45.54 1.09
-3 -1 4 45.62 1.09
3 -1 -4 44.51 1.2
-3 1 4 46.88 1.04
3 1 -4 46.71 1.09
3 1 -4 45.55 1.03
-3 1 4 46.53 1.09
3 1 -4 45.44 1.06
-3 1 4 45.87 1.19
3 1 -4 45.34 1.16
3 1 -4 45.88 1.1
3 1 -4 46.01 1.11
-3 1 4 45.96 1.19
-3 1 4 46.53 1.1
-2 -1 4 122.03 2.76
-2 -1 4 126.21 2.63
2 -1 -4 124.1 2.63
-2 -1 4 120.94 2.62
2 -1 -4 126.35 2.63
-2 -1 4 122.5 2.6
2 -1 -4 124.11 2.81
-2 -1 4 123.4 2.7
2 -1 -4 123.85 2.79
-2 -1 4 126.6 2.55
-2 1 4 119.93 2.77
-2 1 4 124.35 2.8
-2 1 4 127.21 2.64
2 1 -4 123.64 2.71
2 1 -4 122.38 2.61
2 1 -4 125.29 2.63
2 1 -4 122.35 2.54
2 1 -4 122.97 2.79
-2 1 4 124.38 2.63
1 -1 -4 34.79 1.03
1 -1 -4 35.22 0.77
-1 -1 4 39.95 1.08
-1 -1 4 41.96 1.01
1 -1 -4 33.93 1.04
-1 -1 4 40.06 0.87
1 -1 -4 33.12 0.87
-1 1 4 37.74 0.88
1 1 -4 34.99 0.98
1 1 -4 32.59 0.85
1 1 -4 43.82 1.13
1 1 -4 39.04 0.88
-1 1 4 36.39 1.05
-1 1 4 38.42 0.87
-1 1 4 33.76 1.01
0 -1 -4 968.97 20.36
0 -1 -4 961.09 19.8
0 -1 4 971.52 19.72
0 -1 4 972.11 20.12
0 -1 4 971.72 20.08
0 -1 -4 975.87 20.21
0 1 -4 983.81 19.85
0 1 4 940.55 19.8
0 1 4 958.11 20.19
0 1 -4 894.22 20.52
0 1 4 990.61 19.82
0 1 -4 961.55 20.4
0 1 4 944.97 19.57
0 1 -4 942.05 19.55
0 1 4 933.08 19.58
1 -1 4 2.54 0.24
-1 -1 -4 3.6 0.32
1 -1 4 3.08 0.4
1 1 4 2.75 0.29
-1 1 -4 2.76 0.29
-1 1 -4 3.33 0.44
-1 1 -4 2.46 0.14
2 -1 4 0.21 0.22
2 -1 4 0.55 0.2
-2 -1 -4 0.47 0.19
2 -1 4 0.45 0.14
-2 -1 -4 0.27 0.26
-2 -1 -4 0.28 0.15
-2 1 -4 0.37 0.27
-2 1 -4 0.31 0.14
-2 1 -4 0.17 0.16
2 1 4 0.27 0.22
2 1 4 0.26 0.19
2 1 4 0.46 0.17
3 -1 4 2.53 0.35
-3 -1 -4 2.03 0.25
-3 -1 -4 2.8 0.47
3 -1 4 2 0.23
3 -1 4 2.28 0.42
-3 -1 -4 2.14 0.3
3 1 4 2.59 0.33
-3 1 -4 2.36 0.34
-3 1 -4 2.38 0.25
3 1 4 2.13 0.36
-3 1 -4 3.03 0.49
-4 -1 -4 30.96 0.89
-4 -1 -4 30.07 1.22
4 -1 4 29.85 0.85
-4 -1 -4 30.22 0.84
-4 -1 -4 29.23 1.02
4 -1 4 31.98 1.21
4 -1 4 28.95 1.05
-4 1 -4 30.27 0.87
-4 1 -4 27.83 1.01
4 1 4 29.96 1.03
4 1 4 29.67 1.12
4 1 4 29.22 0.66
4 1 4 30.23 0.87
-4 1 -4 29.34 1.27
-4 1 -4 29.49 0.88
5 -1 4 0.37 0.33
5 -1 4 0.31 0.25
-5 -1 -4 0.59 0.42
-5 -1 -4 0.25 0.23
5 -1 4 0.96 0.32
-5 -1 -4 0.46 0.27
-5 -1 -4 0.09 0.29
-5 1 -4 0.84 0.49
5 1 4 0.56 0.12
5 1 4 0.61 0.26
5 1 4 0.29 0.34
-5 1 -4 0.85 0.33
5 1 4 0.64 0.31
-5 1 -4 0.54 0.29
-5 1 -4 0.24 0.22
-6 -1 -4 0.61 0.5
6 -1 4 0.54 0.38
-6 -1 -4 0.35 0.4
6 -1 4 0.6 0.32
-6 -1 -4 0.69 0.35
6 -1 4 1.52 0.5
-6 -1 -4 0.82 0.33
6 1 4 0.88 0.29
6 1 4 0.76 0.42
6 1 4 0.38 0.35
-6 1 -4 0.65 0.37
-6 1 -4 0.43 0.3
6 1 4 0.93 0.42
6 1 4 0.75 0.15
-6 1 -4 0.76 0.54
-6 1 -4 0.62 0.36
-7 -1 -4 1.41 0.66
-7 -1 -4 1.09 0.38
-7 -1 -4 0.73 0.43
7 -1 4 0.84 0.47
-7 -1 -4 0.5 0.51
7 -1 4 1.12 0.49
7 -1 4 0.89 0.4
-7 1 -4 0.47 0.48
7 1 4 1.03 0.39
-7 1 -4 0.67 0.37
-7 1 -4 0.33 0.49
7 1 4 1.24 0.55
-7 1 -4 1 0.63
7 1 4 0.64 0.17
8 -1 4 -0.94 0.46
-8 -1 -4 -0.61 0.66
-8 -1 -4 0.25 0.46
-8 -1 -4 -0.35 0.57
-8 -1 -4 -0.94 0.52
8 -1 4 0.21 0.38
8 1 4 0.12 0.43
-8 1 -4 -0.12 0.41
-8 1 -4 -0.52 0.59
8 1 4 0.29 0.44
-8 1 -4 0.12 0.69
9 -1 4 0.07 0.48
-9 -1 -4 -0.74 0.78
9 -1 4 -0.11 0.72
-9 -1 -4 0.38 0.84
-9 -1 -4 -0.38 0.66
9 -1 4 0.44 0.63
9 1 4 -0.3 0.7
9 1 4 -0.43 0.8
-9 1 -4 1.15 0.72
-9 1 -4 -0.05 0.48
-9 1 -4 0.79 0.91
9 1 4 0.16 0.46
9 1 4 0.13 0.53
-10 -1 -4 -1.35 0.6
-10 -1 -4 -0.02 0.86
10 -1 4 0.65 0.97
-10 -1 -4 0.54 1
-10 -1 -4 0.45 0.99
10 -1 4 -0.27 0.57
10 -1 4 -0.79 0.74
-10 1 -4 -0.14 1.1
10 1 4 0.02 0.92
-10 1 -4 -0.67 0.92
10 1 4 1.06 1.05
10 1 4 -0.69 0.62
-10 1 -4 0.42 0.66
10 1 4 0.42 0.57
11 -1 4 0.83 0.71
-11 -1 -4 1.28 1.16
-11 -1 -4 -0.04 0.78
11 1 4 0.26 0.68
11 1 4 0.03 0.86
-11 1 -4 -0.81 1.16
-11 1 -4 -1.57 0.83
13 -2 -4 -0.23 1.46
13 2 -4 1.95 1.25
13 2 -4 0.31 1.26
13 2 -4 0.34 1.44
12 -2 -4 2.57 1.18
12 -2 -4 1.47 1.09
12 -2 -4 0.94 1.12
12 -2 -4 -1.47 0.64
12 -2 -4 0.22 1.09
12 2 -4 -0.49 0.98
12 2 -4 1.16 0.95
12 2 -4 -0.46 0.91
12 2 -4 0.36 0.98
12 2 -4 -0.77 0.92
12 2 -4 0.91 0.96
11 -2 -4 -0.32 0.36
11 -2 -4 -0.3 0.51
11 -2 -4 0.56 0.9
11 -2 -4 -0.27 0.56
11 -2 -4 0.64 0.8
11 -2 -4 -1.1 0.76
11 2 -4 -0.48 0.74
11 2 -4 0.59 0.74
11 2 -4 0.22 0.7
11 2 -4 0.26 0.73
11 2 -4 0.63 0.77
11 2 -4 0.01 0.74
10 -2 -4 0.92 0.7
10 -2 -4 0.58 0.35
10 -2 -4 -0.05 0.64
10 -2 -4 0.3 0.52
10 -2 -4 0.36 0.42
-10 2 4 1.09 0.7
-10 2 4 -0.46 0.58
10 2 -4 -0.23 0.54
10 2 -4 0.4 0.61
-10 2 4 0.4 0.3
10 2 -4 0.86 0.58
10 2 -4 -0.09 0.59
10 2 -4 0.7 0.62
10 2 -4 -0.3 0.58
-10 2 4 -0.25 0.32
9 -2 -4 6.64 0.69
9 -2 -4 6.62 0.72
9 -2 -4 7.26 0.57
9 -2 -4 6.23 0.47
9 2 -4 6.89 0.62
9 2 -4 7.21 0.66
9 2 -4 6.61 0.63
-9 2 4 6.85 0.63
9 2 -4 6.21 0.73
-9 2 4 6.51 0.52
9 2 -4 6.61 0.59
-9 2 4 6.35 0.66
8 -2 -4 0.24 0.45
8 -2 -4 0.33 0.25
8 -2 -4 0.14 0.44
8 -2 -4 0.45 0.32
8 -2 -4 0.79 0.44
8 -2 -4 0.06 0.25
8 2 -4 0.17 0.36
8 2 -4 0.15 0.41
8 2 -4 0.49 0.4
8 2 -4 0.49 0.39
-8 2 4 0.57 0.43
8 2 -4 -0.25 0.4
-8 2 4 0.32 0.24
8 2 -4 0.9 0.37
-8 2 4 0.2 0.44
7 -2 -4 32.78 0.88
7 -2 -4 32.7 1.09
7 -2 -4 32.88 1.04
7 -2 -4 33.26 1.17
7 -2 -4 33.16 1.07
-7 2 4 33.29 1.04
-7 2 4 32.76 1.01
7 2 -4 32.47 1.04
7 2 -4 32.61 0.99
-7 2 4 32.17 1.1
7 2 -4 34.18 1.04
7 2 -4 34.1 1.02
7 2 -4 33.38 1.04
7 2 -4 32.76 1.05
6 -2 -4 0.29 0.2
6 -2 -4 0.25 0.26
6 -2 -4 0.11 0.28
6 -2 -4 0.03 0.24
6 -2 -4 0.07 0.28
6 -2 -4 0.1 0.17
6 2 -4 0.39 0.3
6 2 -4 0.2 0.24
6 2 -4 0 0.27
6 2 -4 0.26 0.24
-6 2 4 0.22 0.26
6 2 -4 0.39 0.25
-6 2 4 -0.11 0.18
-6 2 4 0.09 0.23
6 2 -4 0.47 0.23
-6 2 4 0.41 0.28
5 -2 -4 10.22 0.52
5 -2 -4 10.03 0.6
5 -2 -4 9.75 0.36
-5 -2 4 10.05 0.52
5 -2 -4 10.24 0.49
5 -2 -4 10.82 0.52
5 -2 -4 9.95 0.53
-5 2 4 10.21 0.56
5 2 -4 10.52 0.46
-5 2 4 10.18 0.5
-5 2 4 9.94 0.49
5 2 -4 10.04 0.5
-5 2 4 10.14 0.51
5 2 -4 9.94 0.5
5 2 -4 9.79 0.45
5 2 -4 10.51 0.45
5 2 -4 10.13 0.5
-4 -2 4 6.78 0.34
-4 -2 4 6.76 0.36
4 -2 -4 7.55 0.41
4 -2 -4 6.36 0.46
4 -2 -4 6.2 0.41
-4 -2 4 6.51 0.41
-4 -2 4 6.65 0.25
4 -2 -4 6.48 0.41
-4 2 4 6.12 0.37
-4 2 4 6.26 0.28
-4 2 4 6.6 0.4
4 2 -4 6.5 0.38
4 2 -4 6.17 0.37
-4 2 4 6.46 0.46
4 2 -4 6.58 0.33
-4 2 4 5.95 0.4
4 2 -4 6.76 0.32
4 2 -4 6.4 0.34
4 2 -4 7.02 0.35
-4 2 4 6.86 0.4
4 2 -4 6.63 0.28
3 -2 -4 2.9 0.32
3 -2 -4 2.87 0.24
3 -2 -4 2.36 0.24
-3 -2 4 2.5 0.24
3 -2 -4 2.71 0.3
-3 -2 4 2.58 0.25
-3 -2 4 2.52 0.21
-3 -2 4 2.74 0.24
-3 2 4 2.5 0.27
3 2 -4 2.26 0.18
-3 2 4 2.41 0.24
-3 2 4 2.71 0.32
3 2 -4 2.69 0.31
-3 2 4 2.79 0.24
3 2 -4 2.81 0.24
-3 2 4 2.47 0.18
3 2 -4 2.31 0.22
3 2 -4 2.79 0.24
3 2 -4 2.67 0.2
-2 -2 4 0.56 0.11
2 -2 -4 0.96 0.14
2 -2 -4 0.53 0.15
-2 -2 4 0.67 0.18
-2 -2 4 0.68 0.13
2 -2 -4 0.54 0.17
-2 -2 4 0.75 0.16
-2 -2 4 0.54 0.1
2 -2 -4 1.07 0.22
-2 2 4 0.63 0.18
2 2 -4 0.88 0.14
2 2 -4 0.54 0.15
-2 2 4 0.63 0.21
-2 2 4 0.51 0.16
2 2 -4 0.48 0.21
2 2 -4 0.71 0.15
-2 2 4 0.48 0.14
2 2 -4 0.58 0.13
1 -2 -4 0.69 0.17
1 -2 -4 0.82 0.08
-1 -2 4 0.95 0.15
1 -2 -4 0.74 0.16
1 -2 -4 0.85 0.19
-1 -2 4 0.91 0.13
-1 -2 4 1.33 0.25
-1 -2 4 1.12 0.19
-1 2 4 0.92 0.22
1 2 -4 0.96 0.14
-1 2 4 0.78 0.21
-1 2 4 1.1 0.16
1 2 -4 1.3 0.29
1 2 -4 1.23 0.2
1 2 -4 0.89 0.14
0 -2 -4 20.26 0.5
0 -2 4 19.16 0.68
0 -2 -4 19.92 0.75
0 -2 -4 19.17 0.72
0 -2 4 18.92 0.56
0 -2 4 19.77 0.79
0 -2 -4 20.81 0.57
0 2 -4 19.03 0.68
0 2 4 19.82 0.56
0 2 4 17.75 0.7
0 2 4 19.88 0.48
0 2 -4 19.29 0.5
0 2 -4 20 0.83
0 2 -4 19.71 0.46
0 2 4 19.35 0.73
-1 -2 -4 14.13 0.61
1 -2 4 13.28 0.69
-1 -2 -4 13.5 0.48
-1 -2 -4 13.78 0.69
-1 2 -4 13.37 0.73
1 2 4 12.87 0.46
1 2 4 13.34 0.59
1 2 4 13.73 0.63
-1 2 -4 13.95 0.39
1 2 4 12.9 0.41
2 -2 4 9.96 0.36
-2 -2 -4 9.43 0.52
-2 -2 -4 9.71 0.41
2 -2 4 10.44 0.65
-2 -2 -4 10.04 0.64
2 -2 4 10.34 0.54
2 2 4 9.65 0.46
2 2 4 10.33 0.54
-2 2 -4 10.21 0.73
-2 2 -4 10.36 0.37
-2 2 -4 10.3 0.54
2 2 4 10.15 0.41
2 2 4 10.13 0.56
-3 -2 -4 0.1 0.19
-3 -2 -4 0.02 0.14
-3 -2 -4 -0.05 0.3
3 -2 4 0.29 0.18
3 -2 4 0.05 0.21
-3 -2 -4 0.18 0.17
3 -2 4 -0.03 0.25
-3 2 -4 0.28 0.19
-3 2 -4 0.47 0.36
-3 2 -4 0.15 0.19
3 2 4 0.01 0.2
3 2 4 0.09 0.18
3 2 4 0.24 0.23
3 2 4 -0.02 0.21
-4 -2 -4 1.91 0.24
-4 -2 -4 2.07 0.29
-4 -2 -4 2.96 0.48
-4 -2 -4 2.83 0.41
4 -2 4 1.7 0.26
4 -2 4 1.82 0.33
4 -2 4 2.32 0.49
-4 2 -4 2.67 0.39
4 2 4 2.41 0.4
4 2 4 2.18 0.33
-4 2 -4 2.58 0.31
-4 2 -4 2.84 0.57
4 2 4 2.04 0.31
5 -2 4 2.84 0.35
-5 -2 -4 3.99 0.64
-5 -2 -4 2.71 0.32
5 -2 4 2.7 0.39
5 -2 4 3.29 0.59
-5 -2 -4 3.13 0.4
-5 -2 -4 3.36 0.46
5 2 4 2.46 0.35
5 2 4 3.47 0.42
5 2 4 3.21 0.44
-5 2 -4 2.67 0.41
-5 2 -4 2.99 0.38
-5 2 -4 3.39 0.4
5 2 4 2.88 0.25
5 2 4 3.23 0.45
-5 2 -4 2.8 0.6
6 -2 4 0.68 0.33
-6 -2 -4 0.5 0.4
6 -2 4 -0.06 0.4
-6 -2 -4 0.21 0.32
6 -2 4 0.14 0.36
-6 -2 -4 0.18 0.48
-6 -2 -4 0.84 0.35
6 2 4 0.83 0.37
-6 2 -4 0.33 0.37
-6 2 -4 0.25 0.52
6 2 4 1.01 0.4
6 2 4 0.59 0.32
-6 2 -4 0.47 0.27
6 2 4 0.32 0.18
-6 2 -4 -0.08 0.38
6 2 4 0.31 0.33
7 -2 4 1.13 0.54
-7 -2 -4 0.13 0.39
7 -2 4 -0.72 0.46
7 -2 4 0.14 0.33
-7 -2 -4 0.66 0.59
-7 -2 -4 0.09 0.42
7 2 4 0.02 0.21
7 2 4 -0.26 0.36
7 2 4 0.02 0.3
7 2 4 0.19 0.5
-7 2 -4 -0.22 0.48
-7 2 -4 -1.23 0.59
-7 2 -4 0.18 0.65
-7 2 -4 0.45 0.49
8 -2 4 4.13 0.7
-8 -2 -4 3.65 0.61
-8 -2 -4 4.35 0.7
-8 -2 -4 3.48 0.58
8 -2 4 4.15 0.78
-8 2 -4 3.98 0.68
-8 2 -4 3.48 0.97
8 2 4 4.45 0.58
8 2 4 4.48 0.33
8 2 4 3 0.69
8 2 4 5.94 0.79
-9 -2 -4 1.53 0.83
9 -2 4 1.47 0.52
9 -2 4 1.82 0.8
-9 -2 -4 1.69 1.24
9 -2 4 1.31 0.69
-9 -2 -4 0.9 0.85
-9 2 -4 1.66 0.79
9 2 4 1.21 0.32
9 2 4 1.44 0.49
9 2 4 1.21 0.72
9 2 4 0.9 0.62
-9 2 -4 1.37 0.59
-9 2 -4 -1.45 0.92
9 2 4 0.83 0.84
10 -2 4 0.12 0.8
10 -2 4 1.93 0.98
-10 -2 -4 0.03 0.65
10 -2 4 1.52 0.68
-10 -2 -4 0.18 1
-10 -2 -4 1.46 0.91
-10 -2 -4 0.73 0.99
10 2 4 2.27 1.03
10 2 4 -0.34 1.02
-10 2 -4 0.45 0.98
-10 2 -4 0.33 0.69
10 2 4 1.96 0.66
-10 2 -4 0.55 1.13
10 2 4 0.45 0.51
-11 -2 -4 -0.77 1.12
11 -2 4 -0.73 0.97
-11 -2 -4 -0.67 0.75
11 -2 4 1.75 0.77
11 2 4 1.21 0.66
11 2 4 1.1 0.78
-11 2 -4 2.06 1.25
-11 2 -4 0.88 0.89
12 -3 -4 1.46 1.12
12 -3 -4 0.59 0.55
12 -3 -4 1.07 0.84
12 -3 -4 2.37 1.15
12 -3 -4 2.25 1.17
12 -3 -4 2.5 0.64
12 3 -4 3.56 1.05
-12 3 4 0.32 1.09
12 3 -4 1.47 1.01
12 3 -4 0.48 1.02
12 3 -4 -1.12 1.02
12 3 -4 0.75 0.92
12 3 -4 0.25 0.97
11 -3 -4 1.07 0.95
11 -3 -4 0.91 0.51
11 -3 -4 1.08 0.88
11 -3 -4 0.82 0.49
11 -3 -4 2.48 0.95
11 -3 -4 2.31 0.77
11 3 -4 3.1 0.8
11 3 -4 2.3 0.83
-11 3 4 0.49 0.78
11 3 -4 1.17 0.8
-11 3 4 2.04 0.99
11 3 -4 1.66 0.77
11 3 -4 0.89 0.8
-11 3 4 0.82 0.43
11 3 -4 2 0.78
-11 3 4 0.15 0.49
10 -3 -4 0.49 0.37
10 -3 -4 0.83 0.71
10 -3 -4 -0.24 0.49
10 -3 -4 0.55 0.39
10 -3 -4 0.03 0.64
10 3 -4 0.44 0.6
10 3 -4 0.43 0.61
10 3 -4 0.35 0.64
10 3 -4 1.25 0.59
10 3 -4 0.2 0.57
-10 3 4 0.4 0.69
-10 3 4 0 0.58
-10 3 4 -0.22 0.6
-10 3 4 0.62 0.34
10 3 -4 -0.14 0.58
9 -3 -4 0.09 0.28
9 -3 -4 0.64 0.34
9 -3 -4 0.2 0.42
9 -3 -4 -0.5 0.57
9 3 -4 0.03 0.49
-9 3 4 0.89 0.52
-9 3 4 0.52 0.34
9 3 -4 0.74 0.48
9 3 -4 0.65 0.45
-9 3 4 0.61 0.58
9 3 -4 0.61 0.5
-9 3 4 0.01 0.41
8 -3 -4 4.37 0.33
8 -3 -4 4.8 0.66
8 -3 -4 3.7 0.51
8 -3 -4 5.06 0.61
-8 3 4 4.54 0.54
8 3 -4 5.65 0.56
-8 3 4 4.45 0.58
8 3 -4 4.58 0.54
8 3 -4 3.89 0.44
8 3 -4 4.03 0.47
-8 3 4 4.48 0.48
-8 3 4 3.77 0.55
8 3 -4 4.34 0.51
8 3 -4 5.1 0.54
7 -3 -4 0.66 0.37
7 -3 -4 0.94 0.2
7 -3 -4 0.49 0.25
7 -3 -4 0.32 0.39
7 -3 -4 1.15 0.39
7 3 -4 0.73 0.3
7 3 -4 0.19 0.28
-7 3 4 0.41 0.39
7 3 -4 0.93 0.33
-7 3 4 0.31 0.22
7 3 -4 0.85 0.37
7 3 -4 0.51 0.32
-7 3 4 0.65 0.36
-7 3 4 0.62 0.36
7 3 -4 0.41 0.36
6 -3 -4 4.9 0.57
6 -3 -4 3.81 0.39
6 -3 -4 4.82 0.28
6 -3 -4 5.09 0.45
6 -3 -4 4.78 0.45
6 3 -4 5.22 0.44
6 3 -4 5.34 0.44
6 3 -4 4.8 0.39
-6 3 4 5.13 0.57
6 3 -4 4.86 0.43
6 3 -4 5.15 0.44
-6 3 4 4.58 0.39
-6 3 4 4.52 0.43
6 3 -4 4.74 0.42
-6 3 4 4.22 0.41
5 -3 -4 0.19 0.2
5 -3 -4 0.4 0.29
-5 -3 4 0.41 0.24
5 -3 -4 0.06 0.22
5 -3 -4 -0.04 0.25
5 3 -4 0.35 0.22
5 3 -4 -0.05 0.25
5 3 -4 0.47 0.26
5 3 -4 0.09 0.2
5 3 -4 0.28 0.18
-5 3 4 0.15 0.26
5 3 -4 -0.02 0.19
-5 3 4 0.12 0.26
-5 3 4 0.02 0.24
-5 3 4 0.16 0.19
4 -3 -4 5.08 0.43
-4 -3 4 5.47 0.3
4 -3 -4 5.44 0.39
-4 -3 4 5.57 0.42
4 -3 -4 5.33 0.46
-4 -3 4 5.72 0.32
-4 -3 4 5.69 0.27
4 -3 -4 5.59 0.42
-4 -3 4 5.42 0.37
-4 3 4 5.76 0.51
4 3 -4 5.75 0.31
-4 3 4 5.74 0.24
4 3 -4 4.98 0.38
-4 3 4 5.32 0.39
4 3 -4 5.12 0.3
4 3 -4 6.02 0.31
4 3 -4 5.09 0.39
-4 3 4 5.03 0.4
4 3 -4 5.71 0.27
-4 3 4 5.79 0.4
4 3 -4 5.77 0.38
3 -3 -4 2.35 0.25
-3 -3 4 2.68 0.22
3 -3 -4 2.83 0.34
-3 -3 4 2.76 0.31
3 -3 -4 2.34 0.33
-3 -3 4 2.16 0.2
3 -3 -4 2.81 0.25
-3 -3 4 2.52 0.27
-3 3 4 2.11 0.21
3 3 -4 2.72 0.33
3 3 -4 2.26 0.18
-3 3 4 2.73 0.26
3 3 -4 2.27 0.24
3 3 -4 2.29 0.24
-3 3 4 2.13 0.23
3 3 -4 2.76 0.2
-3 3 4 2.21 0.3
3 3 -4 2.42 0.2
3 3 -4 2.53 0.23
-3 3 4 2.85 0.38
-2 -3 4 60.79 1.39
2 -3 -4 58.46 1.37
-2 -3 4 59.65 1.32
2 -3 -4 60.89 1.66
2 -3 -4 59.46 1.33
-2 -3 4 55.89 1.56
-2 -3 4 59.55 1.47
-2 -3 4 60.01 1.3
2 -3 -4 59.61 1.6
2 3 -4 60.06 1.38
2 3 -4 57.51 1.45
-2 3 4 59.77 1.64
-2 3 4 59.3 1.36
2 3 -4 59.09 1.31
2 3 -4 61.36 1.61
-2 3 4 55.86 1.57
1 -3 -4 12.22 0.35
1 -3 -4 12.02 0.45
-1 -3 4 12.56 0.53
-1 -3 4 12.49 0.45
-1 -3 4 12.28 0.62
-1 -3 4 13.72 0.41
1 -3 -4 12.23 0.62
1 -3 -4 12.12 0.36
1 -3 -4 12.59 0.61
1 3 -4 11.98 0.66
-1 3 4 12.4 0.62
-1 3 4 12.24 0.43
-1 3 4 11.94 0.58
1 3 -4 12.61 0.52
0 -3 -4 17.09 0.73
0 -3 4 17.41 0.53
0 -3 4 16.61 0.52
0 -3 -4 15.78 0.72
0 -3 4 17.08 0.66
0 -3 -4 17 0.48
0 -3 -4 16.48 0.53
0 -3 4 17.24 0.79
0 3 -4 17.3 0.65
0 3 4 16.88 0.45
0 3 4 17.39 0.53
0 3 -4 16.37 0.8
0 3 4 16.32 0.72
0 3 -4 16.77 0.4
0 3 4 16.81 0.72
1 -3 4 9.53 0.3
-1 -3 -4 10 0.56
-1 -3 -4 10.07 0.39
1 -3 4 10.06 0.54
-1 -3 -4 10.03 0.43
-1 -3 -4 9.77 0.56
1 -3 4 10.06 0.66
1 3 4 10.34 0.41
-1 3 -4 9.66 0.31
1 3 4 9.72 0.35
-1 3 -4 10.14 0.53
1 3 4 9.23 0.53
1 3 4 9.81 0.56
-1 3 -4 8.87 0.7
2 -3 4 9.6 0.36
2 -3 4 8.75 0.68
-2 -3 -4 8.99 0.42
-2 -3 -4 9.37 0.55
-2 -3 -4 9.99 0.46
2 -3 4 10.11 0.57
-2 3 -4 9.93 0.54
-2 3 -4 9.71 0.37
2 3 4 9.5 0.55
2 3 4 10.11 0.58
2 3 4 9.32 0.45
2 3 4 9.66 0.41
-2 3 -4 9.91 0.77
3 -3 4 5.64 0.35
-3 -3 -4 5.31 0.29
3 -3 4 5.7 0.49
-3 -3 -4 4.91 0.48
-3 -3 -4 5.15 0.61
3 -3 4 4.44 0.6
-3 -3 -4 4.77 0.41
3 3 4 5.46 0.39
3 3 4 6.01 0.49
-3 3 -4 5.54 0.46
3 3 4 5.89 0.49
-3 3 -4 6.19 0.72
-3 3 -4 5.71 0.37
3 3 4 5.13 0.45
-4 -3 -4 1.98 0.3
4 -3 4 2.2 0.37
-4 -3 -4 2.21 0.22
4 -3 4 2 0.28
-4 -3 -4 2 0.44
4 -3 4 2.23 0.45
-4 -3 -4 2.55 0.39
4 3 4 2.75 0.35
4 3 4 2.39 0.4
-4 3 -4 2.37 0.18
-4 3 -4 1.5 0.47
-4 3 -4 1.74 0.31
4 3 4 3 0.36
4 3 4 1.97 0.33
-4 3 -4 2.07 0.3
5 -3 4 1.07 0.33
-5 -3 -4 0.59 0.29
-5 -3 -4 0.77 0.25
5 -3 4 0.71 0.39
-5 -3 -4 0.47 0.34
5 -3 4 1.29 0.37
-5 -3 -4 1.03 0.5
5 3 4 0.67 0.32
-5 3 -4 1.01 0.32
-5 3 -4 1.14 0.34
-5 3 -4 1.2 0.54
5 3 4 1.19 0.36
-5 3 -4 0.77 0.11
5 3 4 1.06 0.31
-5 3 -4 0.86 0.36
-6 -3 -4 0.63 0.49
-6 -3 -4 0.51 0.33
-6 -3 -4 0.22 0.32
-6 -3 -4 1.39 0.44
6 -3 4 0.94 0.37
6 -3 4 1.34 0.41
6 -3 4 0.17 0.46
6 3 4 0.64 0.32
-6 3 -4 0.17 0.39
-6 3 -4 1.4 0.39
6 3 4 0.66 0.38
-6 3 -4 0.94 0.39
6 3 4 0.83 0.23
-6 3 -4 0.8 0.7
6 3 4 1.51 0.46
7 -3 4 4.03 0.76
-7 -3 -4 5.25 0.63
-7 -3 -4 5.22 0.82
7 -3 4 5.15 0.72
7 -3 4 4.27 0.56
-7 -3 -4 5.83 0.65
-7 -3 -4 5.34 0.5
7 3 4 4.66 0.62
-7 3 -4 4.91 0.63
7 3 4 4.82 0.64
-7 3 -4 4.92 0.73
7 3 4 4.81 0.35
7 3 4 4.72 0.65
-7 3 -4 6.31 1.01
8 -3 4 1.53 0.51
-8 -3 -4 2.35 0.56
-8 -3 -4 0.74 0.52
8 -3 4 1.38 0.66
-8 -3 -4 -0.09 0.67
-8 -3 -4 1.05 0.62
8 3 4 1.87 0.52
8 3 4 0.6 0.62
-8 3 -4 1.18 0.66
8 3 4 1.33 0.32
-8 3 -4 2.19 0.96
-9 -3 -4 1.73 0.69
9 -3 4 1.1 0.52
9 -3 4 0.01 0.82
-9 -3 -4 0 0.81
-9 -3 -4 0.25 0.83
9 -3 4 0.92 1.03
-9 3 -4 1.14 1.04
-9 3 -4 1.74 0.62
-9 3 -4 0.88 0.84
9 3 4 1.08 0.39
9 3 4 1.78 0.8
9 3 4 2.82 0.83
9 3 4 0.67 0.51
9 3 4 1.61 0.57
10 -3 4 1.24 0.91
-10 -3 -4 -0.12 0.67
-10 -3 -4 1.18 1.07
10 -3 4 0.1 0.68
10 -3 4 2.92 1.11
-10 -3 -4 -0.21 1.16
-10 -3 -4 -0.34 0.83
10 3 4 0.9 0.43
-10 3 -4 0.35 1.03
10 3 4 0.55 0.63
10 3 4 0.63 0.99
10 3 4 0.49 0.56
-10 3 -4 -1.01 1.11
-10 3 -4 0.69 0.75
11 -3 4 0.81 0.91
-11 -3 -4 0.19 1.15
11 -3 4 -0.69 1.09
-11 -3 -4 0.26 1.39
-11 -3 -4 0 0.8
-11 3 -4 -1.49 1.3
-11 3 -4 0.27 0.88
11 3 4 -0.73 0.64
12 -4 -4 1.33 0.62
12 -4 -4 1.07 1.33
12 -4 -4 -0.27 0.5
-12 4 4 0.33 1.02
12 4 -4 2.09 1.13
12 4 -4 0.32 0.98
12 4 -4 1.54 1.08
12 4 -4 0.04 1.02
-12 4 4 -1.23 0.52
-12 4 4 -0.05 0.72
12 4 -4 -2.26 1.09
12 4 -4 0.27 0.92
-12 4 4 1.15 1.2
11 -4 -4 0.82 0.53
11 -4 -4 0.69 0.4
11 -4 -4 0.21 0.9
11 -4 -4 0.45 0.68
11 -4 -4 0.19 0.98
11 -4 -4 -1.05 0.88
11 4 -4 0.86 0.81
11 4 -4 -0.14 0.78
11 4 -4 1.24 0.8
-11 4 4 0.17 0.82
11 4 -4 0.89 0.78
11 4 -4 0.59 0.69
-11 4 4 0.38 0.9
11 4 -4 -0.24 0.83
10 -4 -4 0.38 0.69
10 -4 -4 0.18 0.44
10 -4 -4 0.5 0.8
10 -4 -4 0.13 0.58
10 -4 -4 0.59 0.31
10 -4 -4 0.19 0.76
10 4 -4 1.84 0.68
-10 4 4 1.22 0.65
10 4 -4 0.05 0.65
10 4 -4 0.12 0.53
-10 4 4 -0.14 0.56
10 4 -4 0.04 0.6
-10 4 4 0.57 0.76
10 4 -4 0.22 0.64
10 4 -4 1.57 0.63
-10 4 4 -0.39 0.43
9 -4 -4 1.44 0.58
9 -4 -4 1.47 0.45
9 -4 -4 1.62 0.64
9 -4 -4 1.61 0.27
-9 4 4 0.06 0.49
9 4 -4 2.12 0.61
-9 4 4 1.56 0.63
9 4 -4 1.17 0.53
9 4 -4 2.23 0.64
9 4 -4 1.49 0.46
-9 4 4 1.39 0.48
-9 4 4 0.9 0.55
9 4 -4 1.44 0.5
9 4 -4 0.89 0.6
8 -4 -4 -0.09 0.51
8 -4 -4 0.44 0.41
8 -4 -4 0.36 0.32
8 -4 -4 -0.24 0.5
8 -4 -4 0.51 0.2
-8 4 4 0.86 0.35
-8 4 4 0.5 0.45
-8 4 4 0.57 0.49
8 4 -4 0.79 0.4
8 4 -4 0.27 0.39
-8 4 4 0.18 0.48
8 4 -4 0.27 0.35
8 4 -4 0.48 0.41
8 4 -4 1.27 0.47
8 4 -4 1.16 0.43
7 -4 -4 0.07 0.38
7 -4 -4 -0.47 0.43
7 -4 -4 0.3 0.28
7 -4 -4 0.27 0.36
7 4 -4 -0.1 0.36
-7 4 4 0.14 0.27
7 4 -4 0.46 0.29
7 4 -4 0.4 0.31
7 4 -4 0.48 0.39
7 4 -4 0.24 0.27
-7 4 4 0.25 0.37
-7 4 4 -0.2 0.38
7 4 -4 0.39 0.33
-7 4 4 0.72 0.44
6 -4 -4 0.31 0.33
6 -4 -4 0.47 0.34
6 -4 -4 0.29 0.35
6 -4 -4 0.11 0.23
6 4 -4 0.32 0.25
6 4 -4 0.41 0.23
6 4 -4 0.38 0.3
-6 4 4 0.27 0.35
6 4 -4 0.38 0.25
6 4 -4 0.37 0.28
-6 4 4 0.25 0.32
-6 4 4 0.12 0.3
-6 4 4 -0.28 0.22
6 4 -4 0.31 0.33
5 -4 -4 14.91 0.87
5 -4 -4 14.96 0.74
5 -4 -4 15.38 0.65
-5 -4 4 15.54 0.65
5 -4 -4 16.29 0.69
-5 4 4 16.58 0.67
5 4 -4 15.73 0.55
5 4 -4 15.19 0.47
5 4 -4 15.56 0.51
5 4 -4 16.13 0.59
-5 4 4 15.35 0.86
5 4 -4 15.97 0.69
5 4 -4 14.65 0.53
-5 4 4 16.18 0.68
5 4 -4 15.59 0.66
-5 4 4 16.09 0.74
-4 -4 4 16.15 0.59
4 -4 -4 16 0.63
4 -4 -4 16.59 0.75
-4 -4 4 16.57 0.67
4 -4 -4 17.25 0.61
4 -4 -4 15.18 0.83
-4 -4 4 16.3 0.47
-4 -4 4 16.52 0.63
4 4 -4 16.66 0.48
4 4 -4 16.63 0.49
4 4 -4 16.69 0.67
-4 4 4 17.55 0.76
-4 4 4 16.2 0.85
-4 4 4 16.61 0.63
-4 4 4 15.46 0.6
4 4 -4 15.31 0.61
4 4 -4 16.27 0.55
-4 4 4 16.45 0.4
-3 -4 4 4.84 0.4
3 -4 -4 4.2 0.41
-3 -4 4 4.73 0.33
-3 -4 4 4.15 0.31
3 -4 -4 3.8 0.32
3 -4 -4 4.42 0.49
-3 -4 4 3.92 0.4
3 -4 -4 4.46 0.39
-3 -4 4 4.34 0.24
3 4 -4 4.24 0.26
-3 4 4 3.96 0.31
3 4 -4 4.03 0.3
3 4 -4 4.24 0.38
-3 4 4 4.75 0.5
-3 4 4 4.31 0.33
-3 4 4 3.9 0.41
3 4 -4 3.67 0.44
3 4 -4 4.28 0.21
-2 -4 4 78.57 1.78
2 -4 -4 78.76 2.11
2 -4 -4 81.65 2.19
-2 -4 4 80.03 1.96
2 -4 -4 81.23 1.81
2 -4 -4 82.94 1.78
-2 -4 4 82.07 2.1
-2 -4 4 80.72 1.72
-2 -4 4 81.28 1.85
2 4 -4 80.85 1.74
2 4 -4 81.59 1.66
-2 4 4 80.08 2.1
2 4 -4 78.39 1.95
-2 4 4 78.71 1.8
-2 4 4 80.47 2.15
2 4 -4 83.14 2.13
2 4 -4 81.29 1.84
1 -4 -4 92.15 1.97
1 -4 -4 90.89 2.39
-1 -4 4 89.68 2.36
-1 -4 4 89.3 2.22
-1 -4 4 90.01 2.03
1 -4 -4 91.02 2.01
1 -4 -4 94.28 1.95
-1 -4 4 90.39 1.97
1 -4 -4 90.42 2.33
-1 4 4 92.27 2.37
-1 4 4 90.75 2
-1 4 4 92.74 2.32
1 4 -4 93.66 2.23
1 4 -4 93.38 2.04
1 4 -4 89.57 2.39
0 -4 -4 86.48 1.86
0 -4 -4 81.14 2.22
0 -4 4 87.71 1.89
0 -4 -4 84.06 2.21
0 -4 -4 85.92 1.77
0 -4 4 86.06 2.15
0 -4 4 84.61 2.3
0 -4 -4 83.06 1.87
0 4 -4 84.39 2.12
0 4 4 86.42 2.2
0 4 4 85.14 1.86
0 4 4 81.7 2.2
0 4 -4 81.07 2.31
-1 -4 -4 1.01 0.27
1 -4 4 0.91 0.12
-1 -4 -4 1.26 0.22
-1 -4 -4 0.63 0.17
1 -4 4 1.04 0.32
1 -4 4 1.16 0.28
-1 -4 -4 1.13 0.3
1 -4 4 1.04 0.2
1 4 4 1.18 0.27
-1 4 -4 0.9 0.39
-1 4 -4 1 0.25
1 4 4 0.86 0.28
-1 4 -4 0.9 0.12
2 -4 4 5.3 0.47
-2 -4 -4 6.05 0.52
-2 -4 -4 5.83 0.21
2 -4 4 5.58 0.29
2 -4 4 5.46 0.63
-2 -4 -4 5.73 0.4
-2 -4 -4 5.83 0.5
-2 4 -4 6.16 0.31
2 4 4 6.21 0.36
2 4 4 5.77 0.51
-2 4 -4 5.51 0.71
2 4 4 5.72 0.38
-2 4 -4 6.13 0.49
2 4 4 5.47 0.49
-3 -4 -4 19.17 0.97
-3 -4 -4 19.37 0.51
3 -4 4 18 0.86
3 -4 4 19.6 0.6
-3 -4 -4 18.87 0.67
-3 -4 -4 18.89 0.87
3 -4 4 19.81 1.08
3 4 4 19.89 0.85
3 4 4 19.77 0.68
-3 4 -4 19.79 0.62
-3 4 -4 20.4 0.87
-3 4 -4 21.68 1.17
3 4 4 19.13 0.85
3 4 4 19.47 0.68
-4 -4 -4 3.4 0.25
4 -4 4 3.07 0.45
-4 -4 -4 4.95 0.5
4 -4 4 4.39 0.68
-4 -4 -4 3.9 0.59
-4 -4 -4 3.79 0.38
4 -4 4 2.98 0.31
4 4 4 3.42 0.37
4 4 4 3.87 0.49
-4 4 -4 3.2 0.65
-4 4 -4 2.62 0.38
4 4 4 3.28 0.36
4 4 4 3.28 0.45
5 -4 4 0.73 0.55
5 -4 4 1.9 0.45
-5 -4 -4 1.5 0.38
5 -4 4 1.99 0.36
-5 -4 -4 1.78 0.38
-5 -4 -4 1.77 0.51
-5 -4 -4 1.8 0.27
-5 4 -4 1.56 0.19
-5 4 -4 1.75 0.42
5 4 4 1.81 0.4
5 4 4 1.72 0.41
5 4 4 1.18 0.36
5 4 4 1.82 0.39
-5 4 -4 1.55 0.68
-5 4 -4 1.05 0.37
-6 -4 -4 12.2 0.63
6 -4 4 11.51 0.72
6 -4 4 10.96 1.1
-6 -4 -4 11.89 0.79
-6 -4 -4 12.09 1.08
-6 -4 -4 11.2 0.81
6 -4 4 12.52 0.89
-6 4 -4 10.74 0.39
-6 4 -4 11.83 0.79
6 4 4 10.73 0.84
-6 4 -4 11.66 1.32
6 4 4 11.4 0.74
6 4 4 11.72 0.8
6 4 4 12.51 0.79
-6 4 -4 10.32 0.92
-7 -4 -4 1.84 0.68
-7 -4 -4 1.93 0.57
7 -4 4 1.44 0.47
-7 -4 -4 1.51 0.43
7 -4 4 1.3 0.73
7 -4 4 1.01 0.53
-7 -4 -4 1.93 0.5
-7 4 -4 1.09 0.44
-7 4 -4 1.75 0.84
7 4 4 1.48 0.44
-7 4 -4 1.6 0.57
7 4 4 1.23 0.32
7 4 4 1.66 0.48
-8 -4 -4 2.08 0.74
-8 -4 -4 1.28 0.53
-8 -4 -4 0.15 0.64
8 -4 4 1.04 0.57
8 -4 4 1.29 0.71
8 4 4 1.06 0.51
-8 4 -4 1.38 0.73
8 4 4 -0.13 0.35
8 4 4 1.3 0.51
8 4 4 2 0.63
-8 4 -4 0.55 0.88
-8 4 -4 0.2 0.5
-9 -4 -4 -1.5 0.78
-9 -4 -4 1.31 0.63
9 -4 4 1.3 0.63
-9 -4 -4 -0.11 0.83
9 -4 4 0.09 0.83
9 -4 4 0.57 0.86
9 4 4 1.03 0.78
9 4 4 1.16 0.45
-9 4 -4 -0.1 0.82
9 4 4 0.65 0.49
-9 4 -4 0.27 0.65
-9 4 -4 -0.04 1.12
9 4 4 1.12 0.55
10 -4 4 0.74 0.72
-10 -4 -4 -0.17 0.84
10 -4 4 -0.74 1.05
-10 -4 -4 -0.67 0.67
-10 -4 -4 0.09 1.11
10 -4 4 -0.07 0.96
-10 4 -4 0.21 0.77
-10 4 -4 1.11 1.15
10 4 4 -0.69 0.52
10 4 4 0.35 0.59
10 4 4 -0.12 0.53
10 4 4 0.01 1
-10 4 -4 -0.48 1.37
-11 -4 -4 -0.61 0.86
-11 -4 -4 1.98 2.14
11 -4 4 0.5 0.91
-11 4 -4 1.67 1.57
-11 4 -4 -1.89 1.14
11 4 4 1.62 0.73
12 -5 -4 -1.04 0.68
12 -5 -4 -0.11 0.9
12 -5 -4 1.33 1.45
12 5 -4 -0.12 1.09
-12 5 4 -0.46 1.32
12 5 -4 -0.94 1.19
12 5 -4 0.44 1.06
12 5 -4 0.04 1.17
-12 5 4 -0.08 1.09
-12 5 4 -0.01 0.7
12 5 -4 0.3 0.92
12 5 -4 0.21 0.97
11 -5 -4 0.15 1.09
11 -5 -4 0.58 0.75
11 -5 -4 -0.46 1.03
11 -5 -4 0.06 0.61
11 5 -4 2.78 0.8
-11 5 4 -0.91 0.84
-11 5 4 -0.49 0.54
11 5 -4 -0.21 0.82
-11 5 4 -0.28 0.82
11 5 -4 0.11 0.93
11 5 -4 -0.27 0.82
-11 5 4 0.33 1.04
11 5 -4 -0.63 0.83
11 5 -4 -0.24 0.69
10 -5 -4 -0.34 0.82
10 -5 -4 0.85 0.77
10 -5 -4 -0.18 0.66
10 -5 -4 0.61 0.79
10 -5 -4 -0.42 0.51
10 5 -4 -0.25 0.54
10 5 -4 0.13 0.65
-10 5 4 -0.01 0.77
-10 5 4 0.51 0.83
10 5 -4 0.28 0.72
10 5 -4 0.26 0.73
-10 5 4 -0.34 0.69
10 5 -4 0.92 0.68
10 5 -4 1.65 0.65
9 -5 -4 2.44 0.53
9 -5 -4 1.56 0.66
9 -5 -4 1.45 0.69
9 -5 -4 1.44 0.75
-9 5 4 -0.12 0.6
9 5 -4 1.72 0.54
9 5 -4 1.1 0.6
9 5 -4 1.62 0.61
9 5 -4 1.54 0.49
-9 5 4 2.03 0.5
9 5 -4 1.46 0.45
9 5 -4 1.2 0.58
-9 5 4 1.25 0.58
-9 5 4 1.9 0.73
8 -5 -4 21.36 1.11
8 -5 -4 26.17 1.23
8 -5 -4 25.7 1.16
8 -5 -4 25.33 1.35
-8 5 4 26.57 1.4
8 5 -4 19.73 1.37
8 5 -4 24.94 0.88
8 5 -4 25.7 0.99
8 5 -4 24.92 1.02
-8 5 4 23.19 1.22
8 5 -4 26.88 1.12
-8 5 4 26.38 1.1
8 5 -4 27.63 1.14
-8 5 4 24.17 1.58
7 -5 -4 0.56 0.38
7 -5 -4 -0.14 0.31
7 -5 -4 0.94 0.46
7 -5 -4 0.4 0.44
7 5 -4 0.82 0.28
-7 5 4 0.15 0.48
7 5 -4 0.02 0.34
7 5 -4 0.7 0.33
7 5 -4 0.55 0.32
7 5 -4 0.68 0.41
7 5 -4 0.03 0.39
-7 5 4 0.48 0.35
-7 5 4 0.98 0.47
-7 5 4 0.37 0.4
6 -5 -4 1.8 0.37
6 -5 -4 1.49 0.48
-6 -5 4 1.98 0.41
6 -5 -4 1.81 0.44
6 -5 -4 1.81 0.39
6 5 -4 1.78 0.26
-6 5 4 1.68 0.34
6 5 -4 1.97 0.3
6 5 -4 1.02 0.4
-6 5 4 1.95 0.41
6 5 -4 1.64 0.39
6 5 -4 1.39 0.3
6 5 -4 1.17 0.31
-6 5 4 1.24 0.48
-6 5 4 1.65 0.4
-5 -5 4 1.27 0.31
-5 -5 4 1.36 0.2
5 -5 -4 1.59 0.36
5 -5 -4 1.25 0.37
5 -5 -4 1.11 0.42
-5 -5 4 1.5 0.28
5 -5 -4 1.21 0.31
5 5 -4 1.27 0.35
5 5 -4 1.26 0.2
-5 5 4 1.71 0.37
-5 5 4 2.11 0.52
-5 5 4 1.15 0.32
5 5 -4 1.23 0.24
-5 5 4 1.39 0.31
5 5 -4 1.4 0.23
5 5 -4 1.73 0.3
5 5 -4 1.31 0.2
4 -5 -4 21.47 1.05
4 -5 -4 21.84 0.95
-4 -5 4 21.97 0.8
4 -5 -4 23.5 0.81
-4 -5 4 21.92 0.83
4 -5 -4 22.79 0.74
-4 -5 4 21.65 0.74
-4 5 4 20.06 1.03
4 5 -4 22.82 0.69
-4 5 4 22.14 0.92
4 5 -4 22.67 0.79
4 5 -4 22.89 0.57
4 5 -4 22.58 0.6
4 5 -4 22.2 0.73
4 5 -4 22.61 0.87
-4 5 4 22.3 0.76
-3 -5 4 4.01 0.47
3 -5 -4 3.27 0.31
3 -5 -4 4.09 0.54
3 -5 -4 4.05 0.35
-3 -5 4 4.12 0.23
-3 -5 4 4.03 0.34
-3 -5 4 3.65 0.35
3 -5 -4 4.72 0.47
-3 -5 4 4.46 0.39
3 5 -4 4.09 0.2
-3 5 4 3.4 0.28
-3 5 4 3.86 0.51
3 5 -4 4.63 0.53
-3 5 4 3.43 0.43
3 5 -4 4.23 0.25
-3 5 4 3.62 0.31
3 5 -4 3.75 0.35
3 5 -4 3.35 0.32
2 -5 -4 37.53 1.27
-2 -5 4 36.57 0.86
2 -5 -4 38.69 0.99
-2 -5 4 37.18 1.28
-2 -5 4 37.84 1.14
-2 -5 4 38.44 0.96
2 -5 -4 35.96 0.92
-2 -5 4 37.42 1.03
-2 5 4 36.68 1.33
-2 5 4 38.25 0.92
2 5 -4 37.48 1.13
2 5 -4 36.09 1
2 5 -4 36.86 1.3
-2 5 4 36.62 0.97
-2 5 4 37.79 1.26
-1 -5 4 19.66 0.65
1 -5 -4 18.95 0.51
-1 -5 4 19.58 0.56
1 -5 -4 19.72 0.94
1 -5 -4 18.55 0.61
1 -5 -4 18.35 0.86
-1 -5 4 19.43 0.78
-1 -5 4 17.97 0.91
1 -5 -4 18.26 0.56
1 5 -4 19.11 0.62
-1 5 4 18.87 0.6
1 5 -4 19.08 0.96
-1 5 4 19.37 0.84
1 5 -4 19.57 0.78
-1 5 4 19.8 0.93
0 -5 -4 125.97 3.27
0 -5 -4 130.16 2.69
0 -5 4 132.38 2.85
0 -5 4 131.99 3.15
0 -5 -4 132.23 2.81
0 -5 4 132.88 3.36
0 -5 -4 133.23 2.83
0 -5 -4 131.82 3.23
0 5 -4 128.88 3.13
0 5 -4 129.72 3.36
0 5 4 124.88 3.23
0 5 4 135.37 2.8
0 5 4 133.98 3.21
-1 -5 -4 12.6 0.71
1 -5 4 12.02 0.49
1 -5 4 12.53 0.67
-1 -5 -4 12.87 0.52
-1 -5 -4 12.53 0.74
1 -5 4 11.8 0.35
-1 -5 -4 12.25 0.51
1 -5 4 12.92 0.86
1 5 4 12.29 0.73
-1 5 -4 12.44 0.89
1 5 4 12.97 0.47
1 5 4 13.07 0.46
-1 5 -4 11.64 0.66
1 5 4 12.53 0.69
2 -5 4 1.92 0.19
2 -5 4 1.83 0.25
-2 -5 -4 1.71 0.39
-2 -5 -4 1.97 0.36
2 -5 4 2.27 0.51
-2 -5 -4 1.19 0.28
2 -5 4 1.82 0.36
2 5 4 1.96 0.24
2 5 4 1.41 0.36
2 5 4 1.66 0.34
2 5 4 1.75 0.24
-2 5 -4 2.34 0.55
-2 5 -4 1.33 0.32
3 -5 4 0.25 0.2
3 -5 4 0.02 0.4
-3 -5 -4 -0.04 0.26
-3 -5 -4 -0.21 0.26
-3 -5 -4 -0.22 0.26
3 -5 4 0.15 0.24
-3 -5 -4 -0.26 0.25
3 5 4 0.11 0.28
-3 5 -4 0.12 0.24
-3 5 -4 0.06 0.44
3 5 4 -0.22 0.2
3 5 4 0.1 0.28
3 5 4 0.09 0.22
4 -5 4 23.73 1.31
-4 -5 -4 23.36 1.03
-4 -5 -4 23.63 0.84
4 -5 4 22.61 1.04
-4 -5 -4 23.57 1.17
4 -5 4 23.17 0.75
-4 -5 -4 23.7 0.6
4 5 4 21.36 0.99
-4 5 -4 23.79 1.42
4 5 4 22.42 0.8
4 5 4 23.37 0.83
4 5 4 22.3 1
-4 5 -4 22.63 1.04
-5 -5 -4 6.02 0.69
-5 -5 -4 6.77 0.84
-5 -5 -4 6.99 0.55
5 -5 4 5.6 0.45
5 -5 4 5.19 0.69
-5 -5 -4 6.06 0.4
5 -5 4 6.73 0.92
5 5 4 5.93 0.56
5 5 4 6.27 0.62
-5 5 -4 6.29 0.66
5 5 4 5.92 0.63
5 5 4 5.78 0.48
-5 5 -4 6.56 0.57
-5 5 -4 7.9 1
-6 -5 -4 4 0.37
-6 -5 -4 4.42 0.77
-6 -5 -4 4.61 0.6
6 -5 4 3.89 0.58
-6 -5 -4 4.42 0.57
6 -5 4 3.09 0.66
6 -5 4 4.31 0.52
6 5 4 4.35 0.52
-6 5 -4 4.04 0.87
-6 5 -4 3.91 0.58
6 5 4 4.37 0.55
-6 5 -4 4.1 0.62
-6 5 -4 4.49 0.4
6 5 4 4.84 0.6
6 5 4 4.12 0.57
-7 -5 -4 2.29 0.65
7 -5 4 4.31 0.72
-7 -5 -4 3.86 0.75
-7 -5 -4 2.86 0.43
7 -5 4 2.7 0.57
7 -5 4 3.75 0.83
7 5 4 3.02 0.55
-7 5 -4 2.66 0.67
7 5 4 4.04 0.57
7 5 4 3.43 0.6
-7 5 -4 4.35 1.02
8 -5 4 -0.4 0.78
8 -5 4 -0.11 0.73
8 -5 4 0.43 0.56
-8 -5 -4 -0.62 0.72
-8 -5 -4 1.19 0.75
-8 -5 -4 0.22 0.52
-8 -5 -4 0.8 0.48
8 5 4 0.45 0.46
8 5 4 0.66 0.46
-8 5 -4 1.48 0.74
-8 5 -4 -0.54 0.52
8 5 4 -0.4 0.41
8 5 4 0.71 0.67
-8 5 -4 0.44 1
8 5 4 0.95 0.67
9 -5 4 0.11 0.61
-9 -5 -4 -0.26 0.88
9 -5 4 1.45 0.89
9 -5 4 0.35 0.85
-9 -5 -4 0.33 0.92
9 5 4 -0.47 0.48
-9 5 -4 -0.63 0.67
9 5 4 0.03 0.83
-9 5 -4 0.05 0.91
9 5 4 0.25 0.79
9 5 4 0.24 0.48
-9 5 -4 1.35 1.28
9 5 4 0.83 0.52
-10 -5 -4 -0.93 1.15
10 -5 4 -1.42 1.05
-10 -5 -4 -0.09 0.69
10 -5 4 0.74 0.76
10 -5 4 -1.9 1.19
-10 -5 -4 -0.6 0.88
10 5 4 1.12 0.64
-10 5 -4 1.5 1.55
10 5 4 -0.21 0.58
10 5 4 0.05 1.19
10 5 4 0.21 1.14
-10 5 -4 -1.07 0.88
10 5 4 1.38 0.65
-10 5 -4 3.03 1.26
12 -6 -4 1.72 1.54
12 -6 -4 2.29 0.84
12 6 -4 0.35 1.08
12 6 -4 4.31 1.31
-12 6 4 0.85 1.45
12 6 -4 1.66 1.28
-12 6 4 0.52 1.22
12 6 -4 0.66 0.94
12 6 -4 -0.03 2.1
-12 6 4 3.41 0.93
11 -6 -4 0.3 1.11
11 -6 -4 -0.48 1.16
11 -6 -4 0.67 0.96
11 -6 -4 0.83 0.69
-11 6 4 -0.79 0.95
-11 6 4 0.65 0.68
11 6 -4 1.72 0.72
-11 6 4 1.74 1.06
11 6 -4 1.63 0.88
11 6 -4 0.92 1.04
-11 6 4 0.76 0.93
11 6 -4 1.75 0.94
11 6 -4 2.06 1.02
11 6 -4 0.14 0.84
10 -6 -4 2.64 0.69
10 -6 -4 3.14 0.95
10 -6 -4 3.28 1.04
10 -6 -4 2.75 0.92
10 6 -4 3.05 0.59
10 6 -4 1.87 0.87
-10 6 4 3.11 0.83
-10 6 4 3.78 0.99
10 6 -4 1.78 0.76
10 6 -4 3.66 0.72
10 6 -4 3.63 0.78
-10 6 4 0.6 0.82
-10 6 4 3.06 0.72
10 6 -4 3.15 0.84
9 -6 -4 2.35 0.69
9 -6 -4 2.62 0.53
9 -6 -4 2.69 0.8
9 -6 -4 2.45 0.76
9 -6 -4 2.72 0.7
9 6 -4 2.96 0.46
-9 6 4 1.06 0.75
-9 6 4 1.64 0.72
9 6 -4 2.85 0.69
9 6 -4 1.88 0.68
9 6 -4 1.45 0.56
9 6 -4 1.74 0.57
9 6 -4 2.17 0.57
-9 6 4 2.83 0.77
8 -6 -4 9.74 1.09
8 -6 -4 10.58 0.91
8 -6 -4 12.87 1.11
8 6 -4 12.22 0.85
-8 6 4 12.63 1.06
8 6 -4 10.22 0.65
-8 6 4 11.69 0.92
8 6 -4 10.43 0.94
-8 6 4 10.56 0.88
8 6 -4 11.15 0.83
8 6 -4 11.13 0.96
8 6 -4 11.1 0.79
-8 6 4 11.72 1.27
-7 -6 4 3.37 0.58
7 -6 -4 2.44 0.62
7 -6 -4 2.86 0.54
7 -6 -4 1.99 0.54
7 6 -4 3.56 0.47
7 6 -4 2.69 0.31
7 6 -4 2.19 0.39
-7 6 4 2.82 0.79
7 6 -4 3.55 0.54
-7 6 4 2.6 0.52
-7 6 4 2.05 0.47
7 6 -4 1.58 0.5
-7 6 4 2.57 0.67
7 6 -4 1.79 0.41
6 -6 -4 14.07 0.86
6 -6 -4 12.57 1.03
6 -6 -4 12.35 0.83
-6 -6 4 13.9 0.79
6 -6 -4 12.28 0.75
-6 -6 4 13.35 0.59
6 6 -4 12.53 0.82
-6 6 4 11.22 0.81
6 6 -4 12.82 0.57
6 6 -4 12.85 0.63
-6 6 4 11.55 0.79
6 6 -4 12.57 0.63
-6 6 4 13.3 0.8
6 6 -4 12.24 0.51
6 6 -4 12.13 0.66
6 6 -4 12.11 0.48
-6 6 4 12.24 1.06
5 -6 -4 0.75 0.33
-5 -6 4 0.83 0.32
5 -6 -4 0.74 0.29
5 -6 -4 0.51 0.39
-5 -6 4 0.83 0.31
5 -6 -4 0.92 0.49
5 6 -4 0.59 0.22
5 6 -4 0.85 0.33
5 6 -4 0.88 0.21
-5 6 4 1.5 0.55
5 6 -4 1.05 0.23
-5 6 4 1.46 0.37
5 6 -4 0.87 0.38
-5 6 4 0.87 0.36
5 6 -4 0.78 0.16
-5 6 4 0.71 0.34
4 -6 -4 3.81 0.57
4 -6 -4 3.45 0.49
-4 -6 4 3.52 0.47
4 -6 -4 3.61 0.42
-4 -6 4 2.84 0.39
4 -6 -4 3.61 0.36
-4 -6 4 4.16 0.38
-4 -6 4 4.05 0.37
4 6 -4 3.72 0.48
4 6 -4 3.83 0.41
-4 6 4 3.29 0.53
-4 6 4 3.12 0.47
-4 6 4 4.13 0.39
4 6 -4 3.5 0.27
4 6 -4 3.51 0.38
-3 -6 4 2.08 0.3
3 -6 -4 2.07 0.31
-3 -6 4 1.56 0.33
3 -6 -4 2.55 0.51
-3 -6 4 2.83 0.32
3 -6 -4 2.03 0.25
3 -6 -4 1.53 0.31
-3 -6 4 2.46 0.19
-3 -6 4 2.2 0.38
3 6 -4 2.4 0.34
3 6 -4 1.68 0.31
-3 6 4 1.85 0.35
-3 6 4 1.97 0.27
3 6 -4 2.75 0.47
-3 6 4 1.83 0.44
-2 -6 4 14.91 0.56
-2 -6 4 14.12 0.63
2 -6 -4 14.71 0.59
2 -6 -4 14.8 0.9
2 -6 -4 14.56 0.81
2 -6 -4 14.08 0.49
-2 -6 4 14.39 0.68
-2 -6 4 13.43 0.81
-2 -6 4 14.49 0.43
2 6 -4 15.04 0.61
-2 6 4 14.58 0.9
2 6 -4 14.74 0.9
-2 6 4 14.59 0.79
2 6 -4 14.61 0.69
-2 6 4 14.29 0.51
-2 6 4 14.25 0.56
1 -6 -4 -0.09 0.15
-1 -6 4 -0.08 0.19
1 -6 -4 0.08 0.21
1 -6 -4 0.19 0.13
-1 -6 4 -0.08 0.23
1 -6 -4 0.1 0.22
1 -6 -4 -0.13 0.32
-1 -6 4 0.04 0.18
-1 -6 4 -0.02 0.28
1 6 -4 -0.25 0.35
-1 6 4 0.03 0.33
1 6 -4 0.2 0.22
-1 6 4 -0.12 0.23
1 6 -4 -0.3 0.19
-1 6 4 0.13 0.19
0 -6 -4 6.84 0.43
0 -6 -4 8.13 0.42
0 -6 4 7.43 0.56
0 -6 -4 7.17 0.61
0 -6 -4 7.3 0.7
0 -6 4 7.02 0.44
0 -6 4 7.98 0.72
0 6 4 7.13 0.67
0 6 4 6.82 0.56
0 6 -4 8.17 0.8
0 6 4 7.68 0.41
0 6 -4 6.88 0.55
1 -6 4 12.49 0.93
-1 -6 -4 13.43 0.56
1 -6 4 13.03 0.37
-1 -6 -4 13.73 0.56
-1 -6 -4 13.32 0.8
1 -6 4 13.76 0.55
1 -6 4 13.45 0.75
-1 -6 -4 12.19 0.83
1 6 4 13.66 0.76
-1 6 -4 12.56 1.02
-1 6 -4 13.16 0.76
1 6 4 13.18 0.8
1 6 4 13.96 0.51
-2 -6 -4 3.77 0.37
2 -6 4 3.89 0.29
-2 -6 -4 4.05 0.56
-2 -6 -4 4.42 0.59
2 -6 4 4.38 0.4
2 -6 4 4.34 0.57
2 -6 4 2.85 0.5
2 6 4 3.49 0.34
2 6 4 5.05 0.6
2 6 4 3.99 0.49
-2 6 -4 4.03 0.67
2 6 4 3.97 0.31
-2 6 -4 4.62 0.54
3 -6 4 30.06 0.83
3 -6 4 30.35 1.25
3 -6 4 31.06 0.88
-3 -6 -4 29.42 1.01
-3 -6 -4 31.41 0.94
-3 -6 -4 29.33 1.2
3 -6 4 31.42 1.52
-3 -6 -4 29.94 1.26
3 6 4 28.96 0.91
3 6 4 30.18 0.86
3 6 4 31.78 1.21
-3 6 -4 30.6 1.25
-3 6 -4 30.27 1.55
3 6 4 30.52 1.21
4 -6 4 6.17 0.5
-4 -6 -4 5.43 0.46
-4 -6 -4 6.01 0.7
4 -6 4 6.36 0.86
4 -6 4 5.91 0.67
-4 -6 -4 6.61 0.67
-4 6 -4 6 0.67
4 6 4 6.72 0.68
4 6 4 6.27 0.54
-4 6 -4 6.67 0.92
4 6 4 5.65 0.41
4 6 4 5.9 0.63
5 -6 4 3.61 0.71
-5 -6 -4 4.58 0.51
-5 -6 -4 4.61 0.71
-5 -6 -4 4.04 0.62
5 -6 4 5.39 0.48
5 -6 4 4.77 0.68
5 6 4 4.39 0.44
-5 6 -4 4.75 0.58
5 6 4 5.51 0.69
5 6 4 4.48 0.59
-5 6 -4 5.62 1
5 6 4 4.18 0.47
6 -6 4 10.86 1.26
-6 -6 -4 10.88 1.1
6 -6 4 11.13 1.02
-6 -6 -4 10.78 1.16
6 -6 4 10.11 0.79
6 6 4 12.72 0.91
6 6 4 11.63 0.81
-6 6 -4 9.94 1.23
-6 6 -4 11.05 0.6
6 6 4 11.75 0.83
-6 6 -4 11.98 0.94
6 6 4 11.31 0.84
7 -6 4 3.04 0.83
7 -6 4 3.68 0.66
-7 -6 -4 3.41 0.69
-7 -6 -4 2.72 0.63
7 -6 4 4.2 0.73
-7 6 -4 2.78 0.58
-7 6 -4 3.78 0.72
7 6 4 3.63 0.59
7 6 4 4.58 0.61
-7 6 -4 4.38 1.12
7 6 4 3.79 0.63
7 6 4 3.13 0.68
-8 -6 -4 0.82 0.74
-8 -6 -4 -0.67 0.78
8 -6 4 -0.4 0.89
8 -6 4 1.75 0.55
8 -6 4 -0.38 0.7
-8 6 -4 0.97 0.8
-8 6 -4 0.44 1.11
8 6 4 -0.54 0.48
-8 6 -4 0.73 0.33
-8 6 -4 -0.24 0.55
8 6 4 -1 0.44
8 6 4 -0.93 0.65
8 6 4 0.54 0.47
8 6 4 0.49 0.68
-9 -6 -4 -0.04 0.92
-9 -6 -4 0.82 0.73
-9 -6 -4 -0.27 0.93
9 -6 4 2.24 0.81
9 -6 4 0.74 1.11
9 -6 4 1.42 0.96
-9 6 -4 0.31 0.98
9 6 4 0.87 0.53
9 6 4 1.13 0.86
9 6 4 0.56 0.83
9 6 4 -0.11 0.6
9 6 4 0.52 0.55
-9 6 -4 0.94 0.76
-9 6 -4 -0.71 1.35
-10 -6 -4 2.72 1.32
-10 -6 -4 -0.84 0.86
10 -6 4 0.27 1.28
10 -6 4 1.23 0.87
10 -6 4 0.74 1.23
10 6 4 0.91 0.71
-10 6 -4 2.81 1.3
10 6 4 1.04 0.66
-10 6 -4 2.3 0.98
10 6 4 0.97 1.16
-10 6 -4 -0.2 1.6
10 6 4 0.67 0.74
11 -7 -4 0.22 1.31
11 -7 -4 0.14 1.27
11 -7 -4 1.55 1.22
11 -7 -4 0.93 0.81
11 7 -4 2.27 1.01
-11 7 4 0.55 0.8
-11 7 4 -1.23 1.05
11 7 -4 -2.57 1.14
-11 7 4 -1.3 1.14
-11 7 4 1.33 1.24
11 7 -4 -0.86 0.88
11 7 -4 -1.05 0.85
11 7 -4 -0.37 1.11
11 7 -4 0.41 0.7
10 -7 -4 -0.36 0.91
10 -7 -4 0.02 0.95
10 -7 -4 -1.22 1.02
10 -7 -4 0.4 0.65
10 7 -4 -2.02 0.68
-10 7 4 -0.53 0.84
10 7 -4 -0.86 0.67
10 7 -4 -0.04 0.73
-10 7 4 -0.16 0.91
-10 7 4 -0.14 0.63
10 7 -4 0.19 0.52
-10 7 4 -0.31 0.93
10 7 -4 -1.05 0.85
10 7 -4 0.79 0.93
9 -7 -4 2.96 0.85
9 -7 -4 1 0.86
9 -7 -4 2.22 0.61
9 -7 -4 1.37 0.8
-9 7 4 2.17 0.69
9 7 -4 2.53 0.62
-9 7 4 1.74 0.86
9 7 -4 1.56 0.79
-9 7 4 2.87 0.69
9 7 -4 3.23 0.8
9 7 -4 1.72 0.43
9 7 -4 2.21 0.61
9 7 -4 2.38 0.6
-9 7 4 0.76 0.87
8 -7 -4 4.84 0.74
8 -7 -4 4.94 0.74
8 -7 -4 6.06 0.94
-8 7 4 5.32 0.7
8 7 -4 6.13 0.71
8 7 -4 6.26 0.41
8 7 -4 5.89 0.77
8 7 -4 5.96 0.62
8 7 -4 6.18 0.61
8 7 -4 6.85 0.59
-8 7 4 5.16 0.77
-8 7 4 6.02 0.96
-7 -7 4 0.02 0.5
7 -7 -4 0.06 0.47
7 -7 -4 1.06 0.55
7 -7 -4 0.01 0.54
7 -7 -4 1.21 0.61
7 7 -4 0.3 0.2
-7 7 4 -0.21 0.51
-7 7 4 0.96 0.43
7 7 -4 -0.15 0.4
7 7 -4 -0.71 0.44
7 7 -4 0.84 0.23
-7 7 4 1.11 0.52
-7 7 4 -0.71 0.62
7 7 -4 0.51 0.39
7 7 -4 0.75 0.35
6 -7 -4 36.71 1.47
6 -7 -4 32.12 1.63
-6 -7 4 33.82 1.03
-6 -7 4 32.93 1.14
6 -7 -4 33.11 1.17
-6 -7 4 31.26 1.2
6 -7 -4 34.38 1.26
-6 7 4 33.48 1.2
6 7 -4 31.51 1.14
-6 7 4 32.94 1.18
6 7 -4 30.95 1.06
6 7 -4 34.67 1.04
-6 7 4 32.16 1.65
6 7 -4 33.7 1.07
6 7 -4 32.5 0.94
5 -7 -4 6.82 0.93
-5 -7 4 6.84 0.67
-5 -7 4 6.26 0.64
5 -7 -4 7.76 0.63
5 -7 -4 6.1 0.55
5 -7 -4 5.81 0.71
5 7 -4 6.47 0.41
-5 7 4 6.69 0.55
5 7 -4 6.33 0.67
-5 7 4 6.16 0.7
-5 7 4 7.47 0.9
5 7 -4 6.45 0.49
5 7 -4 7.07 0.48
5 7 -4 5.95 0.54
4 -7 -4 27.55 1.37
4 -7 -4 28.88 1.01
-4 -7 4 27.96 1.16
4 -7 -4 29.22 0.91
4 -7 -4 29.38 1.26
-4 -7 4 27.11 1.01
-4 -7 4 27.1 0.95
-4 7 4 28.15 0.93
-4 7 4 29.4 1.23
-4 7 4 29.64 1.44
4 7 -4 28.91 1.01
4 7 -4 28.81 1.02
4 7 -4 28.64 1.19
3 -7 -4 10.31 0.93
-3 -7 4 8.95 0.73
3 -7 -4 10.05 0.63
-3 -7 4 10.98 0.62
3 -7 -4 10.8 0.53
-3 -7 4 10.64 0.67
3 -7 -4 9.17 0.73
-3 -7 4 10.75 0.57
3 7 -4 11.52 0.65
-3 7 4 11.07 0.38
-3 7 4 10.05 0.75
3 7 -4 10.3 0.62
-3 7 4 10.86 0.92
3 7 -4 9.65 0.83
-3 7 4 11.04 0.55
2 -7 -4 2.74 0.56
2 -7 -4 2.09 0.43
-2 -7 4 2.54 0.19
2 -7 -4 2.18 0.32
-2 -7 4 1.99 0.47
-2 -7 4 2.66 0.3
-2 -7 4 2.28 0.38
-2 -7 4 2.38 0.38
-2 7 4 1.79 0.38
-2 7 4 2.21 0.25
2 7 -4 2.36 0.41
2 7 -4 2.45 0.35
-2 7 4 2.54 0.33
2 7 -4 2.88 0.59
-2 7 4 2.85 0.59
-1 -7 4 0.76 0.38
1 -7 -4 0.8 0.32
-1 -7 4 1.08 0.23
-1 -7 4 1.06 0.3
1 -7 -4 0.72 0.27
-1 -7 4 0.47 0.25
1 -7 -4 0.54 0.37
1 -7 -4 0.9 0.23
1 7 -4 0.8 0.5
1 7 -4 0.76 0.26
1 7 -4 0.73 0.29
-1 7 4 0.95 0.17
-1 7 4 0.51 0.35
-1 7 4 0.75 0.24
-1 7 4 0.7 0.29
0 -7 4 0.41 0.25
0 -7 4 -0.12 0.24
0 -7 -4 -0.1 0.21
0 -7 -4 -0.21 0.32
0 -7 4 -0.13 0.31
0 -7 -4 0.03 0.23
0 -7 -4 0.11 0.27
0 7 -4 0.01 0.27
0 7 4 0.15 0.35
0 7 4 -0.08 0.2
0 7 4 0.33 0.29
0 7 -4 -0.1 0.4
1 -7 4 2.7 0.21
-1 -7 -4 2.26 0.45
-1 -7 -4 3.38 0.33
1 -7 4 3.19 0.33
1 -7 4 3.59 0.63
1 -7 4 2.24 0.39
-1 -7 -4 3.1 0.34
-1 -7 -4 2.92 0.47
1 7 4 2.76 0.44
1 7 4 2.46 0.42
1 7 4 3.16 0.28
-1 7 -4 2.96 0.7
-1 7 -4 3.59 0.51
-2 -7 -4 0.61 0.39
2 -7 4 0.47 0.46
-2 -7 -4 0.46 0.33
-2 -7 -4 0.09 0.29
2 -7 4 0.5 0.18
-2 -7 -4 0.43 0.28
2 -7 4 0.3 0.3
2 -7 4 0.69 0.27
2 7 4 0.6 0.35
2 7 4 -0.22 0.35
2 7 4 0.19 0.23
-2 7 -4 0.74 0.54
2 7 4 0.04 0.2
-2 7 -4 0.32 0.32
-3 -7 -4 33.61 1.13
3 -7 4 33.89 0.97
-3 -7 -4 32.65 1.41
3 -7 4 34.2 1.67
-3 -7 -4 32.7 1.35
-3 -7 -4 33.67 1.05
3 -7 4 32.58 0.89
3 -7 4 33.17 1.37
3 7 4 30.9 1.28
3 7 4 32.16 1.35
3 7 4 33.54 0.93
-3 7 -4 32.68 1.72
3 7 4 35.07 1.03
-3 7 -4 33.11 1.37
4 -7 4 5.36 0.84
-4 -7 -4 6.28 0.54
-4 -7 -4 5.82 0.61
4 -7 4 5.52 0.75
-4 -7 -4 6.12 0.73
4 -7 4 6.5 0.55
4 -7 4 5.61 0.41
-4 -7 -4 6.18 0.77
4 7 4 6.08 0.69
4 7 4 6.35 0.54
4 7 4 5.94 0.75
-4 7 -4 6.64 1.05
-4 7 -4 5.5 0.76
4 7 4 6.4 0.54
5 -7 4 3.45 0.4
-5 -7 -4 3.54 0.74
-5 -7 -4 4.52 0.69
-5 -7 -4 2.86 0.5
5 -7 4 2.2 0.67
5 -7 4 3.32 0.45
-5 -7 -4 3.71 0.82
5 7 4 2.88 0.46
5 7 4 3.41 0.55
5 7 4 3.55 0.42
-5 7 -4 4.59 0.94
5 7 4 3.95 0.59
6 -7 4 4.57 0.46
-6 -7 -4 3.72 0.7
6 -7 4 4.57 0.72
-6 -7 -4 2.93 0.77
6 -7 4 5.69 1.07
6 -7 4 4.5 0.56
-6 -7 -4 4.65 0.64
6 7 4 4.81 0.52
6 7 4 4.92 0.66
-6 7 -4 4.01 0.67
-6 7 -4 5.33 1.07
7 -7 4 1.69 0.97
7 -7 4 2.31 0.68
-7 -7 -4 -0.15 0.74
-7 -7 -4 1.73 0.69
7 -7 4 1.11 0.65
7 7 4 1.39 0.52
7 7 4 1.53 0.6
-7 7 -4 -0.26 0.57
7 7 4 2.41 0.58
7 7 4 -0.05 0.49
-7 7 -4 1.07 1.11
-7 7 -4 0.74 0.7
-7 7 -4 0.07 0.4
8 -7 4 2.1 0.69
8 -7 4 2.2 1.03
-8 -7 -4 -0.63 0.81
8 -7 4 2.02 0.84
-8 -7 -4 1.97 0.81
-8 -7 -4 2.85 0.86
-8 7 -4 2.91 1.32
8 7 4 1.92 0.71
-8 7 -4 2.11 0.79
8 7 4 3.4 0.67
-8 7 -4 0.4 0.43
-8 7 -4 2.76 0.97
8 7 4 2.39 0.65
8 7 4 1.82 0.77
9 -7 4 -0.11 1.04
-9 -7 -4 -0.32 1.09
-9 -7 -4 -0.37 1.07
-9 -7 -4 2.41 0.89
9 -7 4 -0.96 0.79
9 -7 4 0.24 1.12
9 7 4 -0.31 0.73
-9 7 -4 -0.52 1.11
9 7 4 0.73 0.61
-9 7 -4 1.22 0.86
-9 7 -4 1.96 1.58
9 7 4 -0.31 0.57
-9 7 -4 0.23 0.43
9 7 4 0.57 0.87
10 -7 4 0.83 1.8
10 -7 4 4.14 1.42
-10 -7 -4 4.28 1.04
-10 -7 -4 4.52 1.39
10 -7 4 3.95 1.14
-10 7 -4 0.26 1.87
10 7 4 3.7 0.77
10 7 4 4.43 1.22
-10 7 -4 2.72 1.51
11 -8 -4 2.49 0.96
11 -8 -4 0.31 1.31
11 -8 -4 1.67 1.39
11 8 -4 1.57 0.66
-11 8 4 0.7 1.4
-11 8 4 1.16 1.42
11 8 -4 1.17 1.04
-11 8 4 2.62 1.25
11 8 -4 2.7 0.97
-11 8 4 2.18 1
11 8 -4 0.95 1.23
10 -8 -4 2.36 1.07
10 -8 -4 1.48 1.16
10 -8 -4 2.19 0.83
10 -8 -4 0.67 1.13
10 8 -4 0.54 0.73
10 8 -4 0.43 0.81
-10 8 4 1 0.84
-10 8 4 -0.59 1.15
-10 8 4 -0.15 0.98
-10 8 4 0.57 1.06
10 8 -4 1.64 1.03
10 8 -4 -1.05 1.04
10 8 -4 0.6 0.48
10 8 -4 0.61 0.79
9 -8 -4 2.04 0.94
9 -8 -4 0.45 0.84
9 -8 -4 0.26 0.63
9 -8 -4 1.41 0.95
9 8 -4 0.95 0.62
-9 8 4 0.97 0.9
9 8 -4 -0.17 0.87
9 8 -4 -0.74 0.57
-9 8 4 1.16 0.81
9 8 -4 0.76 0.61
9 8 -4 0.78 0.36
-9 8 4 1.94 1.09
-9 8 4 1.77 0.75
9 8 -4 0.27 0.78
8 -8 -4 0.26 0.78
8 -8 -4 0.18 0.73
-8 -8 4 -0.18 0.75
8 -8 -4 0.06 0.5
8 8 -4 -0.19 0.7
8 8 -4 0.12 0.49
-8 8 4 0.11 0.86
8 8 -4 0.49 0.46
-8 8 4 -0.05 0.54
8 8 -4 0.37 0.5
-8 8 4 0.34 0.69
8 8 -4 0.38 0.65
-8 8 4 0.35 0.74
-7 -8 4 8.34 0.78
7 -8 -4 8.31 0.94
7 -8 -4 8.42 1.08
-7 -8 4 8.25 0.68
7 -8 -4 8.29 0.81
7 8 -4 7.34 0.58
-7 8 4 10.6 1.02
-7 8 4 8.44 0.77
7 8 -4 7.67 0.56
-7 8 4 8.32 1.17
7 8 -4 8.25 0.7
7 8 -4 8.27 0.73
-6 -8 4 0.62 0.41
6 -8 -4 -0.21 0.51
6 -8 -4 0.06 0.58
6 -8 -4 -0.31 0.5
-6 -8 4 0.7 0.54
-6 8 4 -0.72 0.64
6 8 -4 1.08 0.34
-6 8 4 0.2 0.5
6 8 -4 -0.15 0.25
6 8 -4 -0.47 0.39
-6 8 4 -0.05 0.48
-5 -8 4 61.57 1.76
5 -8 -4 61.54 1.72
5 -8 -4 62.6 2.34
-5 -8 4 62.64 1.74
-5 -8 4 62.26 1.95
5 -8 -4 64.77 2.15
5 8 -4 61.41 1.75
5 8 -4 60.5 1.91
-5 8 4 61.11 2.32
-5 8 4 61.25 1.67
-4 -8 4 6.86 0.82
4 -8 -4 7.63 0.82
-4 -8 4 7.2 0.6
4 -8 -4 8.22 0.75
4 -8 -4 6.19 0.82
-4 -8 4 7.67 0.66
4 8 -4 7.43 0.6
4 8 -4 7.93 0.72
-4 8 4 7.84 0.66
4 8 -4 8.49 0.85
-4 8 4 8.54 0.85
-4 8 4 9.97 1.13
-3 -8 4 17.92 1.05
-3 -8 4 18.22 0.89
-3 -8 4 18.92 0.79
3 -8 -4 20 1.29
3 -8 -4 18.33 1.05
3 -8 -4 18.13 0.82
-3 -8 4 17.99 0.89
-3 8 4 21.01 1.29
3 8 -4 17.91 0.82
-3 8 4 18.97 0.72
3 8 -4 18.4 0.9
3 8 -4 16.92 1.09
-3 8 4 19.49 1.09
-3 8 4 18.73 0.56
-2 -8 4 1.77 0.37
2 -8 -4 1.3 0.41
-2 -8 4 1.3 0.18
2 -8 -4 1.3 0.51
2 -8 -4 0.69 0.33
-2 -8 4 1.53 0.37
-2 -8 4 0.74 0.47
-2 -8 4 1.57 0.31
-2 8 4 1.52 0.43
-2 8 4 1.62 0.27
2 8 -4 0.83 0.34
2 8 -4 1.81 0.54
-2 8 4 1.3 0.52
2 8 -4 2.15 0.43
1 -8 -4 0.27 0.28
1 -8 -4 -0.38 0.43
-1 -8 4 0.57 0.24
1 -8 -4 -0.42 0.21
-1 -8 4 -0.25 0.36
-1 -8 4 0.33 0.32
1 -8 -4 0.05 0.34
-1 -8 4 -0.14 0.26
-1 8 4 -0.19 0.25
-1 8 4 0.02 0.39
-1 8 4 0.34 0.18
1 8 -4 -0.14 0.26
-1 8 4 -0.01 0.25
1 8 -4 -0.03 0.27
1 8 -4 0.44 0.49
0 -8 -4 0.97 0.29
0 -8 4 1.3 0.32
0 -8 -4 1.42 0.31
0 -8 4 0.79 0.46
0 -8 -4 1.42 0.47
0 -8 4 1.03 0.31
0 -8 -4 2.04 0.57
0 8 4 1.4 0.26
0 8 4 1.62 0.54
0 8 -4 1.15 0.37
0 8 -4 1.67 0.32
0 8 -4 1.57 0.61
0 8 4 1.3 0.44
1 -8 4 1.56 0.58
-1 -8 -4 1.63 0.44
-1 -8 -4 1.65 0.34
-1 -8 -4 1.32 0.43
-1 -8 -4 1.27 0.3
1 -8 4 1.73 0.35
1 -8 4 1.56 0.16
1 -8 4 0.71 0.4
-1 8 -4 0.86 0.63
1 8 4 1.74 0.27
-1 8 -4 1.52 0.47
1 8 4 2.24 0.5
1 8 4 1.25 0.46
2 -8 4 18.94 1.36
2 -8 4 20.66 0.79
-2 -8 -4 19.58 1.11
-2 -8 -4 19.84 0.77
-2 -8 -4 21.14 0.88
2 -8 4 20.63 0.6
2 -8 4 21.4 1.12
-2 -8 -4 19.37 1.16
2 8 4 21.48 1.18
-2 8 -4 20.39 1.52
2 8 4 20.39 0.68
-2 8 -4 20.06 1.07
2 8 4 21.79 1.1
3 -8 4 -0.02 0.25
3 -8 4 0.54 0.41
3 -8 4 0.28 0.3
-3 -8 -4 0.12 0.37
-3 -8 -4 0.23 0.38
-3 -8 -4 -0.02 0.42
3 -8 4 0.67 0.58
-3 -8 -4 -0.21 0.44
-3 8 -4 -0.19 0.35
3 8 4 0.01 0.25
3 8 4 0.03 0.42
3 8 4 0.27 0.34
3 8 4 0.48 0.27
-3 8 -4 -0.12 0.69
-4 -8 -4 8.63 1.16
4 -8 4 11.06 1.37
4 -8 4 11.28 0.65
-4 -8 -4 11.11 0.81
-4 -8 -4 11.91 0.88
4 -8 4 12.18 1.03
4 -8 4 11.89 0.66
-4 -8 -4 11.47 0.94
4 8 4 10.49 0.85
-4 8 -4 11.94 0.87
4 8 4 11.72 0.61
-4 8 -4 12.02 0.99
4 8 4 11 0.98
-4 8 -4 10.77 1.3
5 -8 4 1.19 0.57
-5 -8 -4 0.85 0.63
5 -8 4 0.15 0.34
-5 -8 -4 -0.02 0.59
5 -8 4 0.55 0.42
5 -8 4 0.57 0.68
-5 -8 -4 0.13 0.5
5 8 4 0.44 0.47
-5 8 -4 -0.08 0.51
5 8 4 0.47 0.36
5 8 4 0.99 0.47
-5 8 -4 0.07 0.91
6 -8 4 0.45 0.84
6 -8 4 1.02 0.4
6 -8 4 1.97 0.65
-6 -8 -4 1.1 0.61
-6 -8 -4 -0.35 0.74
6 -8 4 1.27 0.56
-6 8 -4 1.65 0.66
6 8 4 2.6 0.64
-6 8 -4 1.42 1.02
6 8 4 2.11 0.57
6 8 4 1.97 0.45
6 8 4 1.7 0.52
7 -8 4 1.45 0.45
7 -8 4 2.47 0.84
-7 -8 -4 0.07 0.82
-7 -8 -4 1.9 0.79
7 -8 4 1.81 0.68
-7 -8 -4 1.03 0.77
7 -8 4 1.2 1.16
7 8 4 1.8 0.56
-7 8 -4 2.04 1.22
-7 8 -4 2.31 0.68
-7 8 -4 -0.15 0.49
7 8 4 2.13 0.58
7 8 4 0.99 0.62
7 8 4 2.19 0.66
-7 8 -4 1.83 0.84
8 -8 4 0.61 1.13
-8 -8 -4 -0.19 0.98
8 -8 4 0.12 0.5
8 -8 4 0.51 0.78
-8 -8 -4 0.95 0.83
-8 -8 -4 -0.27 0.89
8 -8 4 -0.1 0.85
8 8 4 -0.01 0.71
-8 8 -4 -0.24 1.51
8 8 4 -1.56 0.74
-8 8 -4 0.72 0.73
-8 8 -4 -0.97 0.98
-8 8 -4 -0.45 0.52
8 8 4 1.28 0.7
8 8 4 0.78 0.57
9 -8 4 1.32 0.61
-9 -8 -4 1.55 0.95
9 -8 4 -0.51 0.95
-9 -8 -4 -0.91 1.14
-9 -8 -4 0 1.16
9 -8 4 1.5 1.17
9 -8 4 1.1 1.44
9 8 4 2.49 0.91
9 8 4 2.5 0.74
9 8 4 1.94 0.85
-9 8 -4 1.39 1.23
-9 8 -4 0.68 1.61
9 8 4 1.4 0.66
-9 8 -4 0.49 0.58
10 -9 -4 -1.31 0.86
10 -9 -4 -1.42 1.18
10 -9 -4 0.84 1.22
10 -9 -4 1.89 1.23
10 9 -4 -0.02 1.35
10 9 -4 0.67 0.81
10 9 -4 0.67 0.8
-10 9 4 -0.31 1.09
-10 9 4 -0.63 1.41
10 9 -4 -0.44 1.07
-10 9 4 -1.52 0.89
-10 9 4 1.34 1.23
9 -9 -4 -1.43 0.97
9 -9 -4 0.37 0.71
9 -9 -4 -0.4 0.97
9 -9 -4 -0.79 1.03
-9 9 4 2.18 1.24
-9 9 4 0.6 0.95
9 9 -4 0.79 0.67
-9 9 4 0.52 0.8
9 9 -4 1 0.97
9 9 -4 -0.76 0.59
-9 9 4 -1.36 0.9
9 9 -4 1.48 0.91
8 -9 -4 -0.03 0.63
8 -9 -4 -0.21 0.82
8 -9 -4 0.63 0.82
-8 -9 4 -1.17 0.81
8 9 -4 1 0.74
8 9 -4 0.06 0.37
-8 9 4 -0.13 0.61
8 9 -4 -0.12 0.31
-8 9 4 1.72 0.77
8 9 -4 0.49 0.76
8 9 -4 -0.05 0.51
-8 9 4 0.34 0.8
-8 9 4 -0.2 0.99
8 9 -4 0.29 0.51
7 -9 -4 0.65 0.7
7 -9 -4 1.05 0.53
-7 -9 4 1.53 0.51
-7 -9 4 0.12 0.34
7 -9 -4 -0.15 0.82
-7 -9 4 -0.04 0.65
-7 9 4 0.29 0.86
7 9 -4 1.08 0.44
-7 9 4 1.67 0.69
-7 9 4 1.43 0.6
7 9 -4 0.46 0.49
7 9 -4 0.2 0.38
-7 9 4 -0.94 0.65
7 9 -4 -0.28 0.43
6 -9 -4 7.39 0.88
-6 -9 4 7.38 0.94
6 -9 -4 8.51 0.79
6 -9 -4 8.79 1.15
-6 -9 4 7.69 0.75
6 9 -4 7.31 0.66
-6 9 4 8.88 1.23
-6 9 4 8.78 0.76
6 9 -4 6.32 0.86
-5 -9 4 1.34 0.49
-5 -9 4 0.41 0.49
5 -9 -4 0.1 0.52
-5 -9 4 0.65 0.35
5 -9 -4 0.9 0.73
5 -9 -4 0.11 0.51
-5 9 4 0.62 0.47
5 9 -4 0.32 0.31
5 9 -4 0.14 0.5
5 9 -4 0.92 0.51
-5 9 4 2.13 0.76
-4 -9 4 16.08 0.89
-4 -9 4 16.02 1.12
4 -9 -4 18.24 0.96
-4 -9 4 18.44 0.93
4 -9 -4 18.44 1.48
4 -9 -4 19.24 1.18
4 9 -4 18.22 0.93
-4 9 4 19.66 1.49
4 9 -4 17.44 1.18
-4 9 4 17.18 0.83
-4 9 4 14.37 1.34
3 -9 -4 3.9 0.6
-3 -9 4 5.91 0.77
3 -9 -4 6.53 1
3 -9 -4 6.89 0.56
-3 -9 4 5.46 0.52
-3 -9 4 5.41 0.59
3 9 -4 5.38 0.56
-3 9 4 5.75 0.4
-3 9 4 6.06 0.81
3 9 -4 4.9 0.63
-3 9 4 6.6 0.48
3 9 -4 7.2 0.9
-3 9 4 4.53 0.74
2 -9 -4 0.41 0.42
2 -9 -4 0.53 0.37
-2 -9 4 0.67 0.34
-2 -9 4 0.6 0.41
-2 -9 4 0.07 0.32
-2 -9 4 0.55 0.51
-2 -9 4 0.6 0.18
2 -9 -4 0.93 0.56
2 9 -4 -0.1 0.49
2 9 -4 0.81 0.4
-2 9 4 0.2 0.53
-2 9 4 0.35 0.27
2 9 -4 0.57 0.35
-2 9 4 0.98 0.45
-2 9 4 0.98 0.28
1 -9 -4 13.05 0.96
-1 -9 4 11.54 0.81
-1 -9 4 12.52 0.78
1 -9 -4 11.7 0.68
-1 -9 4 11.93 0.56
1 -9 -4 11.47 0.64
-1 -9 4 11.64 1.05
1 -9 -4 13.33 1.13
-1 9 4 12.24 0.96
-1 9 4 13.33 1.14
1 9 -4 12.56 0.7
1 9 -4 11.79 1.22
-1 9 4 11.88 0.48
1 9 -4 12.27 0.85
0 -9 4 8.47 0.69
0 -9 -4 7.93 0.59
0 -9 -4 8.16 0.6
0 -9 4 9.31 1.05
0 -9 -4 8.51 0.88
0 -9 -4 8.62 1.02
0 -9 4 9.1 0.78
0 9 -4 7.51 0.96
0 9 -4 9.48 0.65
0 9 4 9.11 0.82
0 9 4 8.81 1.04
0 9 4 8.41 0.54
0 9 -4 7.2 0.81
1 -9 4 17.35 0.48
-1 -9 -4 17.04 1.19
-1 -9 -4 17.15 0.81
1 -9 4 17.24 1.37
-1 -9 -4 18.24 1.1
-1 -9 -4 17.4 0.74
1 -9 4 16.98 0.8
1 9 4 16.53 1.2
-1 9 -4 17.01 1.04
1 9 4 19.01 1.13
1 9 4 17.87 0.66
-1 9 -4 18.85 1.53
2 -9 4 -0.01 0.35
-2 -9 -4 0.13 0.34
2 -9 4 -0.26 0.58
2 -9 4 0.05 0.21
-2 -9 -4 0.3 0.37
-2 -9 -4 0.54 0.45
2 -9 4 0.43 0.41
-2 9 -4 1.22 0.69
2 9 4 0.3 0.26
2 9 4 -0.14 0.35
2 9 4 0.36 0.45
-2 9 -4 -0.03 0.33
-3 -9 -4 15.81 0.87
3 -9 4 16.57 0.76
3 -9 4 15.83 1.52
3 -9 4 14.68 1.13
-3 -9 -4 15.22 1.2
-3 -9 -4 16 1.06
3 -9 4 15.18 0.64
-3 -9 -4 15.19 0.9
3 9 4 16.94 1.07
3 9 4 15.51 1.25
-3 9 -4 14.64 1.63
-3 9 -4 11.17 1.22
3 9 4 15.17 0.63
-4 -9 -4 0.1 0.49
4 -9 4 0.23 0.38
4 -9 4 -0.14 0.45
4 -9 4 0.09 0.37
-4 -9 -4 -0.14 0.54
-4 -9 -4 -0.04 0.52
4 9 4 -0.24 0.54
-4 9 -4 -0.14 0.86
-4 9 -4 -0.29 0.51
4 9 4 0.17 0.3
-4 9 -4 0.31 0.48
4 9 4 0.89 0.37
4 9 4 0.58 0.48
-5 -9 -4 1.29 0.7
5 -9 4 1.31 0.4
-5 -9 -4 1.55 0.63
-5 -9 -4 0.48 0.56
5 -9 4 0.96 0.53
5 -9 4 1.63 0.5
5 -9 4 1.1 1.01
-5 9 -4 2.23 1.16
5 9 4 2.45 0.6
-5 9 -4 0.27 0.53
5 9 4 -0.05 0.52
5 9 4 1.22 0.37
5 9 4 1.26 0.6
-5 9 -4 0.95 0.63
-6 -9 -4 -0.04 0.87
6 -9 4 3.4 0.82
-6 -9 -4 2.05 0.72
6 -9 4 2.01 0.64
6 -9 4 2.59 0.45
6 -9 4 1.47 1.02
-6 -9 -4 2.32 0.8
6 9 4 1.51 0.45
-6 9 -4 1.36 1.53
6 9 4 0.96 0.57
-6 9 -4 2.29 0.81
6 9 4 1.49 0.65
6 9 4 1.52 0.6
-6 9 -4 0.67 0.73
7 -9 4 0.3 0.65
7 -9 4 0.23 1.17
7 -9 4 1.38 0.49
7 -9 4 0.71 0.86
-7 -9 -4 0.61 0.84
-7 -9 -4 -0.12 0.8
-7 -9 -4 0.55 0.94
7 9 4 -0.07 0.52
-7 9 -4 -0.29 0.61
-7 9 -4 1.05 0.76
-7 9 -4 0.58 1.5
7 9 4 1.33 0.67
-7 9 -4 0.44 0.89
7 9 4 0.98 0.66
7 9 4 0.58 0.69
8 -9 4 2.46 0.95
-8 -9 -4 0.19 1.17
-8 -9 -4 2.49 1.06
-8 -9 -4 3.34 1
8 -9 4 2.59 1.45
8 -9 4 2.36 0.99
8 -9 4 3.35 0.56
-8 9 -4 3.01 1.21
-8 9 -4 3.27 1.66
8 9 4 3.52 0.89
8 9 4 3.12 0.7
-8 9 -4 0.29 0.67
-8 9 -4 1.03 0.92
8 9 4 0.97 0.68
8 9 4 1.11 0.88
9 -9 4 -2.09 1.35
-9 -9 -4 1.65 1.14
9 -9 4 -0.51 1.24
9 -9 4 3.76 1.07
-9 -9 -4 1.56 1.36
9 -9 4 1.01 0.59
9 9 4 0.29 0.79
-9 9 -4 0.01 0.81
-9 9 -4 1.37 1.99
9 9 4 0.36 0.86
-9 9 -4 3.08 1.37
10 -10 -4 -0.15 1.47
10 -10 -4 1.08 1.19
10 10 -4 3.11 1.38
10 10 -4 2.43 0.89
-10 10 4 1.18 1.6
-10 10 4 -0.1 1.23
-10 10 4 0.03 1.37
9 -10 -4 0.95 1.14
9 -10 -4 2.44 1.96
9 -10 -4 0.61 1.22
9 -10 -4 -0.21 0.92
-9 10 4 0.22 0.9
9 10 -4 0.78 0.75
-9 10 4 0.77 1.02
9 10 -4 1.8 0.7
9 10 -4 0.81 1.14
9 10 -4 0.36 1.08
-9 10 4 0.28 1.03
-9 10 4 0.15 1.52
8 -10 -4 -1.61 0.9
8 -10 -4 0.14 1.01
8 -10 -4 -1.09 0.74
-8 -10 4 0.08 0.91
-8 -10 4 0.41 0.56
-8 10 4 0.42 0.94
-8 10 4 0.14 0.87
-8 10 4 1.23 1.22
8 10 -4 0.52 0.51
-8 10 4 -0.21 0.74
8 10 -4 0.81 0.6
8 10 -4 0.47 0.41
8 10 -4 0.6 0.94
-7 -10 4 -0.1 0.65
7 -10 -4 0.78 0.84
-7 -10 4 -0.4 0.74
7 -10 -4 0.96 0.75
7 -10 -4 -1.02 0.94
-7 -10 4 -1.04 0.73
7 10 -4 0.28 0.76
-7 10 4 2.16 1.09
7 10 -4 0.15 0.5
-7 10 4 -0.3 0.77
-7 10 4 0.64 0.72
7 10 -4 0.29 0.41
-7 10 4 -0.18 0.67
-6 -10 4 -0.15 0.61
-6 -10 4 1.03 0.39
6 -10 -4 -0.81 0.71
-6 -10 4 0.13 0.68
6 -10 -4 -0.12 0.82
6 -10 -4 0.57 0.62
6 10 -4 0.09 0.43
-6 10 4 0.42 0.7
-6 10 4 1.74 0.9
6 10 -4 1.05 0.68
-5 -10 4 3.83 0.76
5 -10 -4 4.42 0.78
5 -10 -4 2.89 0.66
5 -10 -4 3.24 0.86
-5 -10 4 3.89 0.64
5 10 -4 4.17 0.99
5 10 -4 4.14 0.6
-5 10 4 3.83 0.99
-5 10 4 4.33 0.62
-4 -10 4 0.42 0.48
4 -10 -4 -0.13 0.64
4 -10 -4 -0.35 0.51
-4 -10 4 -0.43 0.54
-4 -10 4 -0.61 0.35
4 -10 -4 0.09 0.48
-4 10 4 -0.94 0.69
4 10 -4 -0.46 0.49
4 10 -4 0.35 0.6
-4 10 4 0.23 0.44
-4 10 4 0.54 0.52
4 10 -4 -0.01 0.39
3 -10 -4 2.2 0.65
3 -10 -4 3.12 0.53
-3 -10 4 4.11 0.73
-3 -10 4 3.99 0.6
3 -10 -4 3.11 0.6
-3 -10 4 3.45 0.52
-3 10 4 3.72 0.32
3 10 -4 2.74 0.71
-3 10 4 3.05 0.43
-3 10 4 3.04 0.87
3 10 -4 3.33 0.54
-3 10 4 3.92 0.74
2 -10 -4 0.8 0.42
2 -10 -4 0.98 0.55
-2 -10 4 0.32 0.61
2 -10 -4 1.72 0.73
-2 -10 4 1.01 0.43
2 -10 -4 1.18 0.38
-2 -10 4 0.98 0.38
2 10 -4 1.36 0.48
-2 10 4 0.74 0.49
-2 10 4 1.21 0.76
2 10 -4 0.99 0.65
-2 10 4 1.04 0.32
-2 10 4 0.87 0.32
2 10 -4 0.93 0.46
-1 -10 4 4.45 0.5
-1 -10 4 3.93 0.53
1 -10 -4 6.87 0.93
-1 -10 4 5.61 0.4
1 -10 -4 6.11 0.61
-1 -10 4 3.4 0.54
1 -10 -4 5.4 1.36
1 -10 -4 5.03 0.51
-1 10 4 5.02 0.47
-1 10 4 5.3 0.44
-1 10 4 4.49 0.63
1 10 -4 4.91 0.89
1 10 -4 4.58 0.51
1 10 -4 7.67 0.83
-1 10 4 4.24 0.86
0 -10 -4 4.93 0.9
0 -10 4 4.15 0.52
0 -10 4 3.86 0.57
0 -10 -4 4.73 0.45
0 -10 -4 5.63 0.55
0 -10 -4 6.09 0.8
0 10 -4 4.85 0.49
0 10 -4 4.67 0.65
0 10 4 5.02 0.51
0 10 -4 5.34 0.97
0 10 4 4.95 0.88
0 10 4 6.79 0.91
1 -10 4 3.11 0.49
1 -10 4 2.36 0.54
1 -10 4 2.78 0.21
-1 -10 -4 2.9 0.5
1 -10 4 3.25 0.88
-1 -10 -4 3.08 0.42
-1 -10 -4 2.61 0.68
-1 10 -4 3.65 0.69
1 10 4 2.73 0.34
-1 10 -4 2.81 0.94
1 10 4 3.75 0.74
-2 -10 -4 16.87 1.19
2 -10 4 15.08 1.17
2 -10 4 15.88 1.55
2 -10 4 16.35 0.58
2 -10 4 16.23 0.86
-2 -10 -4 14.78 0.92
2 10 4 15.89 0.66
2 10 4 17.21 1.35
2 10 4 17.84 1.13
3 -10 4 0.63 0.42
3 -10 4 0.66 0.45
-3 -10 -4 0.37 0.56
-3 -10 -4 0.59 0.53
3 -10 4 0.6 0.33
-3 -10 -4 -0.12 0.48
3 -10 4 0.78 0.79
3 10 4 0.14 0.29
3 10 4 0.7 0.49
3 10 4 0.17 0.57
-3 10 -4 0.16 1.09
-3 10 -4 0.05 0.53
-4 -10 -4 0.3 0.67
4 -10 4 0.44 0.98
4 -10 4 0.42 0.41
-4 -10 -4 0.48 0.63
-4 -10 -4 0.32 0.56
4 -10 4 0.11 0.56
4 -10 4 0.15 0.41
4 10 4 1.34 0.57
-4 10 -4 0.2 0.6
-4 10 -4 0.67 0.52
4 10 4 0.34 0.65
-4 10 -4 0.44 1.05
4 10 4 0.11 0.3
5 -10 4 -0.01 0.42
-5 -10 -4 -0.17 0.58
-5 -10 -4 0.6 0.65
-5 -10 -4 -0.6 0.69
5 -10 4 0.29 1.03
5 -10 4 0.12 0.51
5 -10 4 -0.42 0.58
-5 -10 -4 -0.69 0.74
-5 10 -4 -0.16 1.13
5 10 4 -0.39 0.48
-5 10 -4 0.56 0.7
5 10 4 0.33 0.64
5 10 4 0.74 0.36
-5 10 -4 0.01 0.61
5 10 4 -0.8 0.64
6 -10 4 -0.15 0.72
6 -10 4 1.49 1.12
-6 -10 -4 -1.01 0.82
6 -10 4 1.37 0.69
6 -10 4 0.23 0.47
-6 -10 -4 0.65 0.81
-6 -10 -4 0.33 0.91
-6 10 -4 1.58 1.16
-6 10 -4 0.15 0.74
6 10 4 0.33 0.69
-6 10 -4 1.08 0.86
6 10 4 0.87 0.68
6 10 4 0.12 0.41
6 10 4 1.36 0.63
-7 -10 -4 -0.13 0.98
-7 -10 -4 1.09 0.95
7 -10 4 -0.61 0.83
-7 -10 -4 -1.5 1.07
7 -10 4 0.03 1.23
7 -10 4 -0.53 0.48
7 10 4 0.36 0.5
7 10 4 0.52 0.65
7 10 4 -0.37 0.73
7 10 4 -1.12 0.72
-7 10 -4 -0.89 0.75
-7 10 -4 -0.62 0.99
-7 10 -4 1.36 1.68
-8 -10 -4 -0.27 1.33
8 -10 4 1.66 0.96
8 -10 4 0.52 0.5
-8 -10 -4 -0.44 1.08
8 -10 4 -1.98 1.49
8 -10 4 1.5 1.09
-8 -10 -4 -0.96 1.06
-8 10 -4 1.07 0.84
8 10 4 0.46 0.83
-8 10 -4 -0.91 1.8
8 10 4 0.26 0.64
-8 10 -4 -0.19 1.25
-9 -11 4 -1.27 1.38
9 -11 -4 2.36 1.31
9 -11 -4 1.19 1.33
9 -11 -4 2.42 1.41
9 -11 -4 0.87 1.13
-9 11 4 -0.47 1.27
9 11 -4 1.03 1.31
9 11 -4 -0.95 0.81
-9 11 4 1.86 1.29
-9 11 4 -1.36 1.56
-8 -11 4 1.33 1.14
-8 -11 4 -0.37 0.51
8 -11 -4 0.94 1.14
-8 -11 4 -0.57 1.06
8 -11 -4 0.42 0.96
8 -11 -4 0.1 1.38
-8 11 4 0.66 1.05
8 11 -4 0.67 0.5
-8 11 4 1.66 0.92
8 11 -4 1.45 1.06
8 11 -4 0.31 0.65
-8 11 4 -1.02 1.07
8 11 -4 0.42 0.62
-8 11 4 2.29 1.52
-7 -11 4 -0.02 0.92
7 -11 -4 -0.1 0.74
7 -11 -4 -0.62 1.1
7 -11 -4 -0.59 0.91
-7 -11 4 -0.79 0.52
7 11 -4 0.45 0.75
7 11 -4 0.45 0.55
7 11 -4 0.97 0.85
7 11 -4 -1 0.47
-7 11 4 -0.27 0.86
-7 11 4 0.89 1.38
-7 11 4 -0.79 0.74
-7 11 4 0.21 0.88
6 -11 -4 0.57 0.78
-6 -11 4 -1.2 0.76
6 -11 -4 0.88 0.73
6 -11 -4 -0.95 1.02
-6 -11 4 0.81 0.5
6 11 -4 -0.36 0.45
6 11 -4 0.4 0.78
-6 11 4 -0.26 0.68
-6 11 4 0.19 0.72
6 11 -4 0.16 0.7
-6 11 4 1.41 1.19
-5 -11 4 0.78 0.49
-5 -11 4 0.14 0.65
5 -11 -4 1.03 0.66
5 -11 -4 0.31 0.69
5 -11 -4 -0.54 0.87
-5 11 4 -1.29 0.98
5 11 -4 -0.17 0.44
-5 11 4 -0.56 0.57
-5 11 4 -1.17 0.58
5 11 -4 0.28 0.66
5 11 -4 -0.97 0.62
4 -11 -4 1.15 0.62
-4 -11 4 1.17 0.58
4 -11 -4 1.48 0.98
-4 -11 4 1.81 0.51
4 -11 -4 1.11 0.61
-4 11 4 1.46 0.75
4 11 -4 0.82 0.73
4 11 -4 1.86 0.52
-4 11 4 1.67 0.53
-4 11 4 2.58 0.95
3 -11 -4 1.41 0.56
3 -11 -4 -0.03 0.62
-3 -11 4 -0.31 0.54
-3 -11 4 0.05 0.44
3 -11 -4 0.57 0.56
3 11 -4 0.01 0.47
-3 11 4 -0.41 0.79
-3 11 4 -0.08 0.29
3 11 -4 0.01 0.57
-3 11 4 -0.1 0.43
3 11 -4 -0.19 0.67
-3 11 4 0.66 0.61
2 -11 -4 3.28 0.6
2 -11 -4 2.52 0.99
2 -11 -4 2.93 0.54
-2 -11 4 3.17 0.69
2 -11 -4 2.6 0.82
-2 -11 4 2.2 0.52
2 11 -4 3.07 0.74
-2 11 4 3.72 0.73
2 11 -4 4.15 0.98
-2 11 4 3.74 0.99
-2 11 4 3 0.43
-2 11 4 3.72 0.42
2 11 -4 3.59 0.62
1 -11 -4 2.25 0.48
-1 -11 4 2.12 0.32
1 -11 -4 2.15 0.56
-1 -11 4 2.46 0.49
1 -11 -4 1.84 0.66
1 -11 -4 2.05 0.74
-1 -11 4 1.48 0.35
-1 -11 4 1.35 0.5
-1 11 4 1.97 0.77
-1 11 4 2.39 0.47
1 11 -4 1.29 0.88
1 11 -4 1.87 0.58
1 11 -4 2.04 0.54
-1 11 4 1.84 0.31
0 -11 -4 -0.33 0.41
0 -11 4 -0.58 0.47
0 -11 -4 -0.36 0.53
0 -11 4 -0.66 0.45
0 11 4 -0.05 0.47
0 11 -4 -0.01 0.44
0 11 -4 -0.39 0.48
0 11 -4 0.03 0.74
0 11 4 0.27 0.77
0 11 4 0.02 0.53
1 -11 4 0.01 0.17
-1 -11 -4 1.39 0.45
1 -11 4 -0.45 0.78
1 -11 4 1.04 0.5
1 -11 4 1.43 0.55
-1 -11 -4 0.84 0.53
-1 -11 -4 1.61 0.64
-1 11 -4 0.71 0.85
1 11 4 0.84 0.55
1 11 4 0.71 0.67
1 11 4 0.7 0.54
-2 -11 -4 0.32 0.59
2 -11 4 0.15 0.47
2 -11 4 -0.08 0.8
2 -11 4 0.01 0.27
2 -11 4 0.14 0.46
-2 -11 -4 -0.27 0.54
2 11 4 0.64 0.57
2 11 4 -0.11 0.6
-2 11 -4 1.18 1.04
-2 11 -4 0.77 0.64
2 11 4 -0.05 0.59
3 -11 4 0.02 0.35
3 -11 4 -0.08 0.46
-3 -11 -4 1.08 0.62
-3 -11 -4 -0.26 0.59
3 -11 4 -0.18 0.47
-3 -11 -4 0.76 0.7
-3 -11 -4 0.77 0.63
3 11 4 0.02 0.31
3 11 4 -0.84 0.54
3 11 4 0.63 0.63
-3 11 -4 -0.17 0.51
-3 11 -4 0.67 0.63
-3 11 -4 -0.43 0.96
4 -11 4 0.38 1.11
4 -11 4 -0.84 0.63
-4 -11 -4 0.06 0.82
4 -11 4 0.2 0.49
-4 -11 -4 0.21 0.63
-4 -11 -4 -0.7 0.74
-4 -11 -4 -0.15 0.69
4 -11 4 0.22 0.46
-4 11 -4 -0.67 0.95
4 11 4 0.2 0.31
4 11 4 -0.03 0.55
4 11 4 1.08 0.83
-4 11 -4 0.35 0.53
-4 11 -4 -0.43 0.65
4 11 4 0.56 0.77
-5 -11 -4 -0.57 0.74
5 -11 4 2.4 1.31
-5 -11 -4 0.72 0.66
-5 -11 -4 0.66 0.89
5 -11 4 -0.83 0.73
5 -11 4 0.84 0.51
-5 -11 -4 0.01 0.88
5 -11 4 0.34 0.61
5 11 4 0.82 0.68
5 11 4 1.2 0.81
-5 11 -4 0.68 0.79
5 11 4 0.07 0.33
-5 11 -4 -1.39 1.28
5 11 4 1.44 0.94
-5 11 -4 1.09 0.84
6 -11 4 0.79 1.21
-6 -11 -4 0.79 0.88
6 -11 4 0.27 0.51
6 -11 4 0.75 0.83
-6 -11 -4 1.09 1.02
-6 -11 -4 -0.22 1.09
6 11 4 1.48 0.76
-6 11 -4 -0.04 0.99
6 11 4 1.22 1.11
6 11 4 1.88 0.69
-6 11 -4 0.95 0.9
6 11 4 -0.99 0.79
-6 11 -4 0.03 1.38
6 11 4 0.37 0.36
7 -11 4 1.48 0.51
7 -11 4 -0.82 0.89
-7 -11 -4 1.64 1.1
-7 -11 -4 3.98 1.27
7 -11 4 -0.07 1.64
-7 -11 -4 1.36 1.4
7 11 4 2.61 1.04
-7 11 -4 -0.19 1.85
7 11 4 2.54 0.95
7 11 4 2.33 0.44
-7 11 -4 2.27 1.18
7 11 4 3.44 0.97
8 -11 4 -0.74 1.71
-8 -11 -4 0.4 1.35
-8 -11 -4 1.65 1.37
8 -11 4 -1.65 1.2
-8 11 -4 0.57 2.09
-8 11 -4 -0.2 1.05
8 11 4 2.02 1.04
-8 11 -4 1.34 1.65
8 -12 -4 -1.13 1.31
8 -12 -4 -0.63 1.65
-8 -12 4 0.19 1.37
8 -12 -4 1.44 1.17
-8 -12 4 -2.27 0.9
8 12 -4 -0.31 0.79
-8 12 4 1.61 1.28
-8 12 4 1.1 1.18
8 12 -4 0.3 0.71
-8 12 4 -0.27 1.71
7 -12 -4 -1.92 1.27
-7 -12 4 -0.72 0.91
7 -12 -4 1.21 1.1
-7 -12 4 -0.1 1.14
7 -12 -4 0.85 0.99
-7 -12 4 0.48 0.65
-7 12 4 -1.53 1.46
7 12 -4 -0.56 1.01
-7 12 4 0 0.89
7 12 -4 0.95 0.88
-7 12 4 0.2 0.99
7 12 -4 -0.38 0.58
7 12 -4 -0.02 0.61
-6 -12 4 0.69 0.6
6 -12 -4 -0.43 1.23
-6 -12 4 -1.21 0.87
6 -12 -4 1.49 0.93
6 -12 -4 2.16 0.9
-6 -12 4 -0.86 0.9
6 12 -4 -0.29 0.92
6 12 -4 -0.29 0.82
-6 12 4 -0.01 0.85
6 12 -4 0.4 0.6
-6 12 4 0.36 0.81
-6 12 4 -0.33 1.29
-5 -12 4 0.35 0.57
-5 -12 4 1.27 0.9
5 -12 -4 1.08 0.83
5 -12 -4 -0.43 0.77
5 -12 -4 -0.38 1
-5 -12 4 0.12 0.75
5 12 -4 1.26 0.61
-5 12 4 -0.2 0.77
5 12 -4 0.06 0.81
5 12 -4 0.5 0.85
-5 12 4 0.24 1.06
4 -12 -4 0.42 0.61
-4 -12 4 1.24 0.75
-4 -12 4 -0.08 0.57
-4 -12 4 -0.67 0.81
4 -12 -4 0.3 0.9
-4 12 4 0.88 1
4 12 -4 1.1 0.74
4 12 -4 -0.23 0.55
-4 12 4 1.12 0.58
4 12 -4 0.01 0.86
-4 12 4 0.76 0.81
3 -12 -4 2.53 1.03
-3 -12 4 -0.69 0.77
-3 -12 4 1.07 0.63
3 -12 -4 1.07 0.62
-3 -12 4 0.87 0.63
3 -12 -4 1.27 0.76
3 12 -4 1.28 0.92
-3 12 4 1.43 0.51
3 12 -4 0.74 0.6
-3 12 4 0.13 0.36
-3 12 4 0.7 0.96
-3 12 4 0.88 0.75
2 -12 -4 0.41 0.5
-2 -12 4 0.25 0.63
2 -12 -4 0.78 0.57
-2 -12 4 1.19 0.62
2 -12 -4 0.82 0.97
-2 -12 4 -0.53 0.79
2 -12 -4 -0.16 0.66
-2 12 4 0.69 0.41
-2 12 4 0.23 0.84
-2 12 4 0.57 0.45
-2 12 4 1.63 0.81
2 12 -4 0.8 0.66
2 12 -4 0.46 0.54
2 12 -4 -0.63 0.91
1 -12 -4 2.2 0.58
1 -12 -4 2.52 0.57
1 -12 -4 3.06 0.93
-1 -12 4 2.12 0.6
1 -12 -4 1.87 0.73
-1 -12 4 1.89 0.66
-1 12 4 2.76 0.36
1 12 -4 2.22 0.61
1 12 -4 3.45 0.96
-1 12 4 2.66 0.77
1 12 -4 2.5 0.66
-1 12 4 3.21 0.55
-1 12 4 1.56 0.79
0 -12 4 0.16 0.4
0 -12 -4 -1.61 0.77
0 -12 4 1.22 0.55
0 -12 -4 0.51 0.51
0 -12 -4 0.23 0.69
0 -12 -4 -0.43 0.55
0 12 4 0.81 0.77
0 12 -4 0.78 0.87
0 12 4 0.76 0.58
0 12 4 -0.28 0.66
1 -12 4 1 0.52
-1 -12 -4 0.04 0.48
-1 -12 -4 1.43 0.72
1 -12 4 1.94 0.84
-1 -12 -4 1.2 0.62
1 -12 4 0.3 1.01
-1 12 -4 2.27 0.74
-1 12 -4 0.7 1.11
1 12 4 1.1 0.67
1 12 4 0.63 0.81
1 12 4 0.77 0.74
2 -12 4 0.04 0.29
2 -12 4 -1.23 0.63
-2 -12 -4 -0.11 0.65
2 -12 4 0.3 0.94
-2 -12 -4 0.12 0.66
-2 -12 -4 -0.54 0.9
-2 -12 -4 0.54 0.73
-2 12 -4 0.06 0.69
2 12 4 1.02 0.67
-2 12 -4 0.34 0.95
2 12 4 -0.08 0.77
-3 -12 -4 0.41 0.65
3 -12 4 -0.07 1.06
-3 -12 -4 -1.15 0.89
-3 -12 -4 0.19 0.74
-3 -12 -4 0.82 0.7
3 -12 4 1.6 0.79
3 -12 4 0.27 0.4
3 -12 4 0.42 0.54
-3 12 -4 0.34 1.19
-3 12 -4 0.22 0.74
3 12 4 0.38 0.79
-3 12 -4 0.37 0.71
3 12 4 0.8 0.63
3 12 4 -0.18 0.82
4 -12 4 0.25 0.53
4 -12 4 1.29 1.2
4 -12 4 0.34 0.56
-4 -12 -4 -0.29 0.99
4 -12 4 0.6 0.8
-4 -12 -4 -0.06 0.75
-4 -12 -4 -0.24 0.83
-4 -12 -4 -0.34 0.87
-4 12 -4 1.12 0.75
4 12 4 0.6 0.72
4 12 4 -0.05 0.78
-4 12 -4 0.94 0.86
-4 12 -4 0.06 1.2
4 12 4 1.49 0.95
-5 -12 -4 -0.23 0.85
5 -12 4 2.48 1.35
5 -12 4 1.58 0.88
-5 -12 -4 0.21 1.02
5 -12 4 0.06 0.56
-5 -12 -4 0.1 0.81
5 -12 4 -0.2 0.67
-5 -12 -4 1.17 1.1
5 12 4 0.95 1.09
5 12 4 1.03 0.94
-5 12 -4 0.11 0.9
5 12 4 1.29 0.78
-5 12 -4 -0.45 1.53
-5 12 -4 0.32 0.87
6 -12 4 1.32 1.06
6 -12 4 -1.71 1.67
-6 -12 -4 -1.2 1.27
-6 -12 -4 -2.26 0.93
-6 -12 -4 0.14 1.07
6 -12 4 0.29 0.86
-6 -12 -4 0.19 1.29
6 12 4 2.03 1.33
-6 12 -4 -0.14 1.52
-6 12 -4 -2.67 0.98
6 12 4 0.34 0.85
-6 12 -4 -0.75 1.09
6 12 4 -0.32 1
-7 -12 -4 -0.61 1.42
7 -12 4 -5.09 1.88
7 -12 4 -0.66 1.07
-7 -12 -4 1.29 1.24
7 -12 4 -1.28 1.03
7 12 4 -1.44 1.14
-7 12 -4 0.17 2.06
-7 12 -4 -1.67 1.38
7 12 4 0.82 1.35
-7 -13 4 -0.93 1.39
7 -13 -4 -0.01 1.16
7 -13 -4 0.21 1.41
-7 -13 4 -2.16 1.19
7 -13 -4 1.91 1.24
-7 13 4 2.6 1.16
-7 13 4 1.83 1.68
7 13 -4 0.39 1.03
7 13 -4 0.01 0.7
7 13 -4 0.16 0.78
-6 -13 4 0.68 1.13
6 -13 -4 -0.16 1.05
6 -13 -4 -0.02 1.07
-6 -13 4 -1.44 1.12
6 -13 -4 0.05 1.35
-6 -13 4 -0.39 0.8
6 13 -4 0.27 1.01
6 13 -4 -1.84 1.09
-6 13 4 1.41 1.08
6 13 -4 1.75 0.79
-6 13 4 2.32 0.97
6 13 -4 0.02 0.61
-6 13 4 1 1.52
-5 -13 4 0.76 1.1
5 -13 -4 1.55 0.97
-5 -13 4 0.62 0.91
-5 -13 4 0.08 0.67
5 -13 -4 0.51 0.92
5 -13 -4 0.3 1.38
5 13 -4 1.01 0.73
5 13 -4 1.84 1.03
-5 13 4 -0.06 0.79
-5 13 4 -1.6 1.22
-5 13 4 0.65 0.95
5 13 -4 0.43 0.99
4 -13 -4 3.67 1.37
-4 -13 4 6.64 1.02
-4 -13 4 4.4 1.3
4 -13 -4 5.46 0.88
4 -13 -4 5.86 1.13
-4 13 4 5.19 1.1
-4 13 4 5.01 0.76
4 13 -4 6.18 1.01
-4 13 4 4.91 1.35
4 13 -4 6.01 0.93
4 13 -4 7.48 1.35
3 -13 -4 1.88 0.64
-3 -13 4 1.12 0.69
3 -13 -4 3.03 0.76
-3 -13 4 1.49 1.04
3 -13 -4 -0.37 1.22
3 -13 -4 1.29 0.84
-3 -13 4 2.15 0.81
-3 13 4 -0.18 0.91
3 13 -4 2.18 1.05
3 13 -4 1.94 0.87
-3 13 4 0.75 1.11
-3 13 4 0.22 0.43
3 13 -4 1.41 0.74
-3 13 4 1.38 0.6
2 -13 -4 1.58 1.27
2 -13 -4 0.36 0.69
-2 -13 4 0 0.71
2 -13 -4 -0.56 0.59
-2 -13 4 0.14 0.68
-2 -13 4 -0.17 1
2 -13 -4 2.05 0.85
-2 13 4 0.23 0.49
-2 13 4 2.69 1.21
2 13 -4 -0.57 0.67
-2 13 4 0.77 0.48
-2 13 4 1.2 0.83
2 13 -4 -0.62 1.02
2 13 -4 0.23 0.77
-1 -13 4 0.65 0.66
-1 -13 4 -0.58 0.37
1 -13 -4 0.46 0.61
-1 -13 4 1.94 0.75
1 -13 -4 -0.98 1.01
-1 -13 4 0.66 0.97
1 -13 -4 1.4 0.92
1 -13 -4 1.59 0.65
-1 -13 4 0 0.32
-1 13 4 2.68 1.15
-1 13 4 0.99 0.88
-1 13 4 1.68 0.64
1 13 -4 1.01 0.86
1 13 -4 0.02 1.03
0 -13 4 0.36 0.48
0 -13 -4 1.4 0.83
0 -13 -4 0.84 0.66
0 -13 -4 -0.63 0.57
0 -13 -4 1.65 1.12
0 -13 4 3.51 1.27
0 -13 4 -0.18 0.57
0 -13 4 1.3 0.63
0 -13 4 0.89 0.57
0 13 4 2.05 1.06
0 13 -4 0.37 0.69
0 13 4 2.39 0.9
0 13 -4 3.49 1.29
1 -13 4 1.08 0.67
-1 -13 -4 0.32 0.54
1 -13 4 1 0.59
1 -13 4 0.02 1.23
-1 -13 -4 2.46 1.44
-1 -13 -4 -0.36 1.02
-1 -13 -4 1.25 0.76
1 13 4 0.59 0.87
-1 13 -4 1.54 0.84
1 13 4 0.78 0.93
1 13 4 2.04 0.94
-1 13 -4 -1.13 1.1
2 -13 4 -0.49 1.2
2 -13 4 1.59 0.72
-2 -13 -4 0.15 0.83
2 -13 4 0.01 0.31
-2 -13 -4 1.41 0.74
-2 -13 -4 -0.96 0.82
2 -13 4 0.35 0.67
-2 -13 -4 -1.08 1.07
2 13 4 0.24 0.87
-2 13 -4 -0.96 0.78
-2 13 -4 0.27 0.72
-2 13 -4 -0.41 1.29
2 13 4 2.3 0.85
2 13 4 1.02 0.88
-3 -13 -4 1.98 0.94
3 -13 4 0.86 0.85
3 -13 4 -0.13 0.73
3 -13 4 3.13 1.49
-3 -13 -4 1.31 0.78
-3 -13 -4 1.83 1.15
-3 -13 -4 2.13 0.99
3 -13 4 0.4 0.45
-3 13 -4 1.72 0.86
-3 13 -4 0.84 1.38
3 13 4 2.04 0.99
3 13 4 0.75 0.83
3 13 4 1.04 0.97
-3 13 -4 0.05 0.85
4 -13 4 -0.67 0.58
-4 -13 -4 -0.4 1.2
4 -13 4 0.08 0.85
-4 -13 -4 1.06 0.94
-4 -13 -4 0.11 1.1
4 -13 4 1.09 1.61
-4 -13 -4 -0.08 0.86
4 13 4 0.46 1.03
4 13 4 1.9 1.17
4 13 4 -1.91 0.93
-4 13 -4 -0.25 0.97
-4 13 -4 -0.59 0.87
-4 13 -4 0.09 1.57
5 -13 4 -0.08 0.74
-5 -13 -4 0.62 1.07
-5 -13 -4 1.7 1.39
5 -13 4 3.48 1.68
-5 -13 -4 1.67 1.05
-5 -13 -4 -0.67 1.17
5 -13 4 0.05 1.16
-5 13 -4 -0.33 1.03
5 13 4 0.36 1.07
-5 13 -4 0.39 1.18
5 13 4 0.86 1.06
-5 13 -4 -4 1.78
5 13 4 0.64 1.23
6 -13 4 0 0.98
-6 -13 -4 1.43 1.53
6 -13 4 0.08 1.24
6 -13 4 0.57 1.93
-6 -13 -4 -0.61 1.46
-6 -13 -4 0.28 1.25
6 13 4 0.16 1.05
-6 13 -4 0.21 1.37
6 13 4 0.24 1.29
-6 13 -4 -0.27 2.18
-6 -14 4 -3.86 1.29
6 -14 -4 0.43 1.24
6 -14 -4 -0.09 1.3
-6 -14 4 0.21 1.41
6 -14 -4 2.77 1.76
-6 14 4 -0.11 1.11
6 14 -4 -1.53 1.18
-6 14 4 3.18 1.93
6 14 -4 0.12 0.72
6 14 -4 -0.88 0.9
5 -14 -4 -0.13 1.16
5 -14 -4 1.76 1.12
5 -14 -4 2.95 1.75
-5 -14 4 1.79 1.42
-5 -14 4 2.3 1.15
-5 14 4 3.77 1.74
5 14 -4 1.14 1.16
-5 14 4 2.58 1.35
5 14 -4 1.73 0.9
-5 14 4 1.35 0.97
5 14 -4 1.42 1.27
4 -14 -4 -1.22 0.93
-4 -14 4 0.41 0.99
4 -14 -4 1.56 1.08
-4 -14 4 -0.23 1.29
-4 -14 4 -0.88 0.82
4 -14 -4 -1.23 1.57
4 14 -4 -0.21 1.07
-4 14 4 -2.14 1.45
-4 14 4 -0.67 1.15
4 14 -4 1.88 0.88
4 14 -4 0.43 1.15
-4 14 4 0.4 0.82
3 -14 -4 5.58 1.72
3 -14 -4 3.56 1.07
3 -14 -4 5.26 0.86
3 -14 -4 3.72 1.13
-3 -14 4 4.66 1.5
-3 -14 4 5.76 1.03
3 14 -4 5.4 1.43
-3 14 4 5.63 0.77
3 14 -4 6.47 1.05
3 14 -4 3.69 1.06
-3 14 4 5.49 1.21
-3 14 4 5.07 1.53
2 -14 -4 0.05 1.32
2 -14 -4 1.08 0.81
2 -14 -4 1.51 1.05
2 -14 -4 1.86 0.77
-2 -14 4 -0.49 1.28
-2 -14 4 0.58 0.73
-2 -14 4 0.92 0.81
-2 14 4 1.25 0.56
2 14 -4 1.61 0.92
-2 14 4 0.65 1.05
-2 14 4 0.14 1.28
-2 14 4 0.06 0.62
2 14 -4 1.05 0.86
2 14 -4 0.98 1.24
1 -14 -4 -0.25 1
-1 -14 4 0.1 0.84
1 -14 -4 0.62 0.75
1 -14 -4 0.61 0.79
1 -14 -4 -1.78 1.39
-1 -14 4 0.04 1.26
-1 -14 4 0.54 0.8
1 14 -4 0.14 0.83
-1 14 4 -1.39 0.91
1 14 -4 0.37 0.9
-1 14 4 0.97 1.19
-1 14 4 0.94 0.74
1 14 -4 -0.79 1.14
0 -14 -4 2.83 0.94
0 -14 -4 2.86 1.06
0 -14 4 -0.21 1.32
0 -14 4 0.38 0.65
0 -14 -4 2.11 1.42
0 -14 4 -1.11 0.52
0 -14 -4 -0.07 0.68
0 -14 4 2.42 0.85
0 -14 4 0.8 0.69
0 14 4 1.64 1.27
0 14 4 0.21 1.04
0 14 -4 0.58 1.02
0 14 -4 1.83 1.58
0 14 4 1.95 0.87
1 -14 4 0.21 0.69
-1 -14 -4 -2.86 1.18
-1 -14 -4 -0.6 0.6
-1 -14 -4 0.23 0.98
-1 -14 -4 0.56 0.83
1 -14 4 1.11 1.42
1 -14 4 0.89 0.74
-1 14 -4 -0.29 1.37
1 14 4 -0.95 0.9
-1 14 -4 -0.54 0.77
1 14 4 0.2 1.16
1 14 4 0.68 1.02
-1 14 -4 0.42 0.85
2 -14 4 2.6 1.59
2 -14 4 1.94 0.84
2 -14 4 0.45 0.75
-2 -14 -4 2.36 1.17
-2 -14 -4 1.75 1
-2 -14 -4 1.83 0.87
-2 -14 -4 1.76 1.28
2 14 4 2.26 1.07
2 14 4 1.24 1.27
2 14 4 1.9 1.13
-2 14 -4 1.11 0.95
-2 14 -4 3.79 1.66
-2 14 -4 1.43 0.89
-3 -14 -4 1.06 1.36
3 -14 4 -0.11 0.46
3 -14 4 2.14 0.99
3 -14 4 1.25 0.78
-3 -14 -4 1.3 1.05
-3 -14 -4 -0.16 0.93
3 -14 4 -0.83 1.77
-3 14 -4 0.2 0.94
3 14 4 0.53 1.16
3 14 4 0.63 1.07
-3 14 -4 0.12 0.97
-3 14 -4 1.31 1.71
3 14 4 0.23 1.21
4 -14 4 -0.84 0.83
4 -14 4 -0.58 1
4 -14 4 1.66 1.11
-4 -14 -4 1.63 1.2
-4 -14 -4 1.2 1.27
-4 -14 -4 0.68 1.04
4 -14 4 1.95 1.98
-4 14 -4 0.85 1.16
4 14 4 1.04 1.23
4 14 4 2.45 1.43
-4 14 -4 -0.21 1.24
4 14 4 -0.03 1.21
-4 14 -4 -1.32 1.91
-4 -15 4 -1.13 1.04
4 -15 -4 2.34 1.22
4 -15 -4 -1.04 1.3
4 -15 -4 3.12 1.09
4 -15 -4 -0.48 2.53
-4 -15 4 1.54 1.33
-4 15 4 0.98 0.96
4 15 -4 2.05 1.14
4 15 -4 0.86 1.46
-4 15 4 1.65 1.76
4 15 -4 0.24 1.36
3 -15 -4 2.49 1.23
-3 -15 4 0.3 1.16
3 -15 -4 1.15 0.99
3 -15 -4 -0.11 1.05
3 -15 -4 -1.76 1.99
-3 -15 4 0.63 0.98
-3 15 4 1.92 1.37
3 15 -4 0.05 1.19
3 15 -4 3.12 1.51
-3 15 4 0.4 0.73
-3 15 4 2.05 1.6
3 15 -4 1.52 1.13
-3 15 4 0.64 0.79
2 -15 -4 -5.11 2.56
2 -15 -4 2.57 1.23
-2 -15 4 2.26 1.11
2 -15 -4 0.57 0.96
2 -15 -4 0.64 0.95
2 15 -4 2.02 1.22
-2 15 4 -0.97 1.52
-2 15 4 -2.94 1.12
-2 15 4 0.08 0.76
-2 15 4 1.59 0.65
2 15 -4 0.6 1.14
2 15 -4 1.44 1.67
1 -15 -4 8.1 1.16
-1 -15 4 5.07 1.17
1 -15 -4 5.9 1.36
-1 -15 4 4.36 1.06
-1 15 4 8.22 1.96
1 15 -4 5.25 1.87
-1 15 4 5.38 1.5
1 15 -4 5.08 1.12
1 15 -4 5.77 1.29
0 -15 -4 1.33 1.29
0 -15 4 -0.45 0.6
0 -15 4 0.3 0.73
0 -15 4 1.4 1.01
0 -15 4 0.37 0.95
0 -15 -4 -0.05 0.97
0 -15 -4 0.19 0.8
0 15 -4 2.33 1.55
0 15 -4 1.14 0.89
0 15 -4 1.08 1.16
0 15 4 -1.05 1.21
0 15 4 3.3 1.65
1 -15 4 0.47 0.82
1 -15 4 2.94 1.1
1 -15 4 2.37 0.98
-1 -15 -4 1.52 1.07
-1 -15 -4 1.26 0.99
-1 -15 -4 1.84 1.3
1 15 4 -0.22 1.4
-1 15 -4 1.38 1.8
-1 15 -4 0.1 1.14
1 15 4 4.43 1.34
-1 15 -4 1.55 0.99
1 15 4 2.46 1.2
2 -15 4 2.71 1.08
-2 -15 -4 2.97 1.27
-2 -15 -4 1.61 1.07
2 -15 4 0.07 1
-2 -15 -4 0.71 1.16
-2 15 -4 -2.2 1.21
-2 15 -4 1.68 1.1
2 15 4 2.21 1.3
2 15 4 0.8 1.37
-2 15 -4 1.01 1.85
2 15 4 1.59 1.29
-3 -15 -4 -0.61 1.25
3 -15 4 1.58 1.23
3 -15 4 0.02 1.2
-3 -15 -4 0.44 1.4
-3 -15 -4 -0.03 1.11
-3 15 -4 1.54 1.2
3 15 4 -3.97 1.44
3 15 4 -1.36 1.34
-3 15 -4 -2.52 2.05
13 0 -5 1.54 1.04
13 0 -5 1.15 1.3
13 0 -5 -0.38 1.24
12 0 -5 -0.74 0.92
12 0 -5 -0.96 0.74
12 0 -5 -1.52 0.99
12 0 -5 -0.68 0.94
12 0 -5 0.15 0.88
12 0 -5 0 1.08
11 0 -5 0.08 0.69
11 0 -5 0.38 0.79
11 0 -5 -0.04 0.73
11 0 -5 -0.67 0.56
11 0 -5 -0.48 0.76
11 0 -5 -0.11 0.77
10 0 -5 0.5 0.61
10 0 -5 -0.59 0.47
10 0 -5 -0.06 0.6
10 0 -5 -0.59 0.54
10 0 -5 -0.33 0.6
10 0 -5 -0.04 0.64
9 0 -5 -0.08 0.44
9 0 -5 0.15 0.5
9 0 -5 -0.08 0.39
9 0 -5 -0.47 0.51
9 0 -5 -0.36 0.49
9 0 -5 0.17 0.47
8 0 -5 -0.65 0.28
8 0 -5 0.35 0.42
-8 0 5 0.31 0.42
8 0 -5 0.39 0.38
8 0 -5 0.93 0.43
8 0 -5 -0.45 0.4
8 0 -5 -0.22 0.42
-7 0 5 -0.35 0.35
7 0 -5 -0.02 0.33
7 0 -5 0.08 0.33
7 0 -5 -0.29 0.3
7 0 -5 -0.18 0.27
7 0 -5 -0.02 0.26
7 0 -5 -0.2 0.31
6 0 -5 -0.06 0.21
-6 0 5 0.18 0.28
6 0 -5 0.4 0.27
6 0 -5 0.15 0.21
6 0 -5 0.5 0.28
-6 0 5 0.29 0.13
6 0 -5 0.77 0.23
-6 0 5 -0.22 0.23
-6 0 5 0.04 0.14
6 0 -5 0 0.27
5 0 -5 0.08 0.17
5 0 -5 0 0.23
5 0 -5 -0.04 0.22
-5 0 5 0.13 0.19
-5 0 5 -0.08 0.23
-5 0 5 -0.11 0.12
-5 0 5 -0.08 0.22
5 0 -5 0.01 0.23
5 0 -5 -0.07 0.15
4 0 -5 0.25 0.2
-4 0 5 -0.04 0.12
-4 0 5 0.06 0.17
4 0 -5 -0.08 0.18
-4 0 5 0.03 0.17
4 0 -5 -0.02 0.18
4 0 -5 -0.07 0.13
-4 0 5 0.1 0.19
-4 0 5 0.02 0.14
4 0 -5 -0.07 0.15
4 0 -5 -0.08 0.11
-3 0 5 -0.02 0.13
-3 0 5 -0.14 0.13
3 0 -5 0.19 0.16
3 0 -5 -0.02 0.14
-3 0 5 -0.05 0.13
3 0 -5 -0.21 0.17
-3 0 5 -0.12 0.16
3 0 -5 0.08 0.14
3 0 -5 0.04 0.07
-3 0 5 0.16 0.16
-2 0 5 0.17 0.13
2 0 -5 0.14 0.2
-2 0 5 -0.1 0.14
2 0 -5 0.1 0.14
2 0 -5 -0.07 0.14
2 0 -5 0.05 0.14
-2 0 5 -0.05 0.13
-2 0 5 -0.03 0.14
-1 0 5 -0.01 0.11
-1 0 5 0.22 0.13
1 0 -5 0.11 0.12
1 0 -5 0.27 0.15
1 0 -5 0.03 0.16
1 0 -5 0 0.19
-1 0 5 0.2 0.13
0 0 -5 0.14 0.18
0 0 5 0.05 0.1
0 0 -5 -0.12 0.19
0 0 5 0.05 0.11
0 0 5 0.04 0.14
0 0 -5 -0.2 0.13
0 0 -5 0.04 0.11
0 0 5 0.03 0.18
-1 0 -5 0.59 0.29
1 0 5 0.22 0.09
-1 0 -5 0.15 0.16
1 0 5 0.32 0.23
1 0 5 0.16 0.16
-2 0 -5 0.04 0.14
2 0 5 -0.28 0.21
2 0 5 0.01 0.07
-2 0 -5 0.14 0.28
-2 0 -5 -0.25 0.16
2 0 5 0.04 0.21
2 0 5 -0.14 0.15
-3 0 -5 -0.04 0.2
-3 0 -5 0.01 0.19
3 0 5 0.22 0.2
3 0 5 0.33 0.29
-3 0 -5 -0.23 0.32
4 0 5 0.03 0.23
-4 0 -5 0.16 0.22
-4 0 -5 -0.15 0.25
4 0 5 0.12 0.24
4 0 5 -0.02 0.31
-4 0 -5 0.08 0.39
-5 0 -5 0.01 0.33
-5 0 -5 -0.17 0.23
5 0 5 -0.36 0.31
-5 0 -5 -0.44 0.46
-5 0 -5 -0.13 0.29
5 0 5 -0.2 0.23
5 0 5 0.37 0.36
-6 0 -5 0.12 0.3
6 0 5 0.19 0.38
-6 0 -5 0.7 0.42
6 0 5 -0.33 0.35
6 0 5 -0.55 0.29
-6 0 -5 0.26 0.37
-6 0 -5 0.03 0.55
7 0 5 -0.27 0.35
7 0 5 -0.41 0.47
-7 0 -5 0.03 0.46
-7 0 -5 -0.37 0.37
-7 0 -5 -0.04 0.52
7 0 5 -0.1 0.47
-7 0 -5 -0.18 0.68
8 0 5 0.7 0.58
-8 0 -5 -0.42 0.65
8 0 5 -0.85 0.62
-8 0 -5 1 0.81
8 0 5 -0.05 0.43
9 0 5 0.01 0.52
-9 0 -5 0.87 1.03
-9 0 -5 -0.46 0.76
-9 0 -5 0.53 0.62
9 0 5 0.93 0.87
9 0 5 -0.21 0.82
-9 0 -5 0.03 0.84
10 0 5 -0.45 0.67
-10 0 -5 1.14 0.83
10 0 5 -0.58 0.77
10 0 5 -1.16 1.09
10 0 5 -3.5 1.02
-10 0 -5 0.35 1.24
-10 0 -5 -0.19 0.99
-11 0 -5 2.78 1.26
-11 0 -5 -0.58 0.97
11 0 5 0.21 0.77
13 -1 -5 -1.58 1.37
13 -1 -5 2.63 1.34
13 -1 -5 1.98 0.93
13 1 -5 0.57 1.29
13 1 -5 0.62 1.13
13 1 -5 2.58 1.27
13 1 -5 1.48 1.08
12 -1 -5 0.81 1.07
12 -1 -5 0.21 0.79
12 -1 -5 0.8 0.97
12 -1 -5 -0.03 1.03
12 -1 -5 0.07 0.94
12 1 -5 0.27 0.92
12 1 -5 -1.65 0.93
12 1 -5 0.32 0.93
12 1 -5 -0.86 0.99
12 1 -5 -0.06 0.96
12 1 -5 0.2 0.83
11 -1 -5 0.79 0.74
11 -1 -5 -1.24 0.8
11 -1 -5 -0.59 0.71
11 -1 -5 0.1 0.55
11 -1 -5 -0.29 0.83
11 1 -5 -0.27 0.63
11 1 -5 0.29 0.74
11 1 -5 1.2 0.84
11 1 -5 0.32 0.78
11 1 -5 -0.47 0.71
11 1 -5 -0.78 0.74
10 -1 -5 2.36 0.7
10 -1 -5 2.36 0.69
10 -1 -5 1.15 0.46
10 -1 -5 1.9 0.62
10 -1 -5 2.21 0.68
10 -1 -5 2.21 0.61
10 1 -5 1.92 0.58
10 1 -5 0.4 0.69
10 1 -5 1.49 0.65
10 1 -5 1.46 0.64
-10 1 5 2.29 0.66
10 1 -5 1.84 0.54
10 1 -5 1.57 0.64
9 -1 -5 7.91 0.7
9 -1 -5 7.39 0.69
9 -1 -5 6.07 0.65
9 -1 -5 6.04 0.49
9 -1 -5 5.82 0.44
9 -1 -5 5.46 0.64
9 -1 -5 5.91 0.61
9 -1 -5 5.81 0.62
9 1 -5 6.31 0.63
9 1 -5 5.64 0.55
9 1 -5 6.44 0.67
-9 1 5 5.04 0.62
9 1 -5 5.52 0.59
9 1 -5 5.78 0.62
9 1 -5 5.93 0.64
8 -1 -5 2.43 0.47
8 -1 -5 2.65 0.49
8 -1 -5 2.56 0.32
8 -1 -5 2.62 0.41
8 -1 -5 2.48 0.46
8 -1 -5 2.24 0.48
8 -1 -5 2.15 0.34
-8 1 5 2.04 0.26
8 1 -5 2.35 0.47
8 1 -5 2.59 0.42
8 1 -5 0.92 0.42
-8 1 5 1.79 0.45
-8 1 5 2.5 0.29
8 1 -5 2.43 0.4
8 1 -5 1.48 0.41
8 1 -5 2.24 0.45
7 -1 -5 9.03 0.65
7 -1 -5 7.8 0.65
7 -1 -5 8.3 0.49
7 -1 -5 8.63 0.6
7 -1 -5 7.95 0.64
7 -1 -5 8.05 0.48
-7 1 5 8.19 0.43
7 1 -5 8.89 0.61
7 1 -5 7.7 0.66
-7 1 5 8.02 0.46
7 1 -5 8.57 0.63
-7 1 5 8.47 0.64
7 1 -5 8.41 0.55
7 1 -5 8.96 0.56
7 1 -5 8.34 0.61
6 -1 -5 3.71 0.37
6 -1 -5 2.51 0.34
6 -1 -5 2.38 0.34
6 -1 -5 2.88 0.35
-6 -1 5 2.96 0.37
6 -1 -5 2.78 0.37
6 -1 -5 4.05 0.36
6 1 -5 3.25 0.33
-6 1 5 3.41 0.38
6 1 -5 3.27 0.38
-6 1 5 3.16 0.32
6 1 -5 4.5 0.39
6 1 -5 3.16 0.34
6 1 -5 3.15 0.37
-5 -1 5 0.22 0.22
5 -1 -5 0.21 0.16
-5 -1 5 0.4 0.24
5 -1 -5 0.23 0.2
-5 -1 5 0.2 0.11
5 -1 -5 0.34 0.25
-5 -1 5 0.2 0.23
5 -1 -5 0.17 0.23
-5 -1 5 0.27 0.1
5 -1 -5 0.34 0.15
5 -1 -5 0.13 0.24
5 1 -5 0.24 0.22
-5 1 5 0.02 0.24
-5 1 5 0.43 0.19
5 1 -5 0.31 0.23
-5 1 5 0.24 0.17
5 1 -5 0.22 0.16
5 1 -5 0.31 0.19
5 1 -5 0.24 0.22
-5 1 5 0.07 0.24
-5 1 5 0.15 0.17
5 1 -5 0.37 0.17
5 1 -5 0.44 0.2
-4 -1 5 0.87 0.23
4 -1 -5 0.85 0.23
-4 -1 5 0.49 0.18
4 -1 -5 0.65 0.22
-4 -1 5 1.08 0.18
4 -1 -5 0.74 0.22
4 -1 -5 0.9 0.23
-4 -1 5 0.55 0.19
4 -1 -5 0.61 0.2
4 1 -5 0.8 0.2
-4 1 5 0.87 0.21
4 1 -5 0.86 0.14
4 1 -5 0.71 0.21
4 1 -5 1.21 0.2
-4 1 5 0.87 0.22
-4 1 5 0.91 0.18
4 1 -5 0.62 0.23
-4 1 5 0.87 0.16
-4 1 5 0.55 0.21
4 1 -5 0.82 0.17
-3 -1 5 1.77 0.21
-3 -1 5 2.33 0.18
3 -1 -5 2.23 0.28
-3 -1 5 2.08 0.25
-3 -1 5 2.58 0.23
-3 -1 5 2.72 0.25
-3 -1 5 2.26 0.24
3 -1 -5 2.55 0.25
3 -1 -5 2.16 0.3
3 -1 -5 2.21 0.23
-3 1 5 2.59 0.29
3 1 -5 2.56 0.35
3 1 -5 2.11 0.15
-3 1 5 1.84 0.18
3 1 -5 2.56 0.23
3 1 -5 2.32 0.23
3 1 -5 2.58 0.24
-3 1 5 1.97 0.22
-3 1 5 2.17 0.23
3 1 -5 2.37 0.25
-3 1 5 2.27 0.27
-2 -1 5 13.27 0.58
2 -1 -5 13.95 0.6
-2 -1 5 12.94 0.44
2 -1 -5 12.85 0.44
2 -1 -5 13.05 0.48
-2 -1 5 13.5 0.33
-2 -1 5 13.03 0.51
2 -1 -5 13.19 0.57
-2 -1 5 13.52 0.45
-2 -1 5 13.3 0.45
-2 1 5 12.69 0.46
-2 1 5 12.96 0.45
-2 1 5 12.59 0.56
2 1 -5 13.48 0.52
-2 1 5 13.54 0.56
2 1 -5 13.46 0.46
2 1 -5 13.03 0.45
2 1 -5 13.66 0.64
1 -1 -5 65.65 1.72
-1 -1 5 61.73 1.45
-1 -1 5 62.92 1.69
-1 -1 5 63.21 1.6
1 -1 -5 66.19 1.68
-1 -1 5 65.41 1.42
-1 1 5 67.45 1.44
-1 1 5 64.6 1.32
-1 1 5 61.63 1.69
1 1 -5 61.38 1.46
-1 1 5 61.83 1.45
1 1 -5 64.59 1.62
1 1 -5 62.76 1.73
1 1 -5 66.95 1.43
-1 1 5 65.96 1.66
0 -1 5 1.49 0.22
0 -1 -5 0.99 0.19
0 -1 -5 1.4 0.27
0 -1 5 1.18 0.23
0 -1 -5 1.48 0.33
0 -1 5 1.42 0.14
0 -1 5 1.32 0.25
0 1 5 1.45 0.21
0 1 5 1.52 0.27
0 1 5 1.33 0.12
0 1 -5 1.59 0.15
0 1 5 1.49 0.16
0 1 -5 1.59 0.26
0 1 -5 1.45 0.21
0 1 5 1.38 0.27
0 1 -5 1.4 0.33
-1 -1 -5 46.57 1.37
1 -1 5 46.7 1.47
1 -1 5 48.44 1.36
-1 -1 -5 48.45 1.48
1 -1 5 46.76 1.19
1 1 5 46.54 1.35
1 1 5 50.8 1.45
-1 1 -5 45.84 1.52
1 1 5 48.66 1.11
1 1 5 48.23 1.18
1 1 5 46.88 1.06
-1 1 -5 46.81 1.04
-1 1 -5 49.74 1.1
-2 -1 -5 1.73 0.43
-2 -1 -5 1.31 0.29
2 -1 5 1.13 0.21
2 -1 5 0.54 0.3
-2 -1 -5 1.07 0.22
-2 1 -5 1.3 0.2
2 1 5 1.14 0.12
2 1 5 1.18 0.27
2 1 5 0.73 0.2
-2 1 -5 1.24 0.42
-2 1 -5 1.2 0.25
3 -1 5 1.91 0.25
-3 -1 -5 2.32 0.5
3 -1 5 1.54 0.33
-3 -1 -5 1.82 0.33
3 -1 5 2.22 0.36
-3 -1 -5 1.97 0.28
3 1 5 2.9 0.47
-3 1 -5 2.19 0.48
-3 1 -5 2.15 0.27
3 1 5 1.99 0.3
3 1 5 2.33 0.36
-3 1 -5 2.66 0.36
-4 -1 -5 4.04 0.61
4 -1 5 3.16 0.32
-4 -1 -5 3.89 0.33
-4 -1 -5 3.19 0.42
4 -1 5 3.96 0.49
4 -1 5 2.94 0.48
-4 -1 -5 3.27 0.35
-4 1 -5 3.28 0.45
4 1 5 3.33 0.43
4 1 5 3.36 0.49
4 1 5 3.45 0.15
-4 1 -5 3.81 0.63
-4 1 -5 4.14 0.38
-5 -1 -5 14.08 1.04
5 -1 5 13.5 0.66
5 -1 5 14.06 0.79
-5 -1 -5 14.43 0.73
-5 -1 -5 12.88 0.74
5 -1 5 14.71 0.96
-5 -1 -5 13.16 0.64
-5 1 -5 13.1 0.76
-5 1 -5 14.09 0.69
5 1 5 13.76 0.67
5 1 5 14 0.89
5 1 5 14.04 0.79
-5 1 -5 13.99 0.69
-5 1 -5 14.86 1.13
-6 -1 -5 0.79 0.35
6 -1 5 0.71 0.47
6 -1 5 0.97 0.41
-6 -1 -5 0.82 0.37
-6 -1 -5 0.76 0.63
6 -1 5 0.63 0.36
-6 -1 -5 0.55 0.46
-6 1 -5 0.47 0.43
-6 1 -5 1.35 0.61
-6 1 -5 0.31 0.39
6 1 5 0.37 0.41
6 1 5 0.29 0.35
6 1 5 1.24 0.47
-6 1 -5 -0.18 0.28
7 -1 5 10.31 1.23
7 -1 5 10.44 0.87
7 -1 5 7.83 0.95
-7 -1 -5 9.8 1.27
-7 -1 -5 11.02 0.87
-7 -1 -5 9.76 0.74
-7 -1 -5 10.95 0.82
-7 1 -5 10.92 1.35
7 1 5 9.85 0.97
-7 1 -5 9.97 0.88
-7 1 -5 10.31 0.91
-7 1 -5 8.65 0.79
7 1 5 10.78 0.81
8 -1 5 0.59 0.48
8 -1 5 0.1 0.59
-8 -1 -5 -0.49 0.69
8 -1 5 0.26 0.53
-8 -1 -5 -0.04 0.73
-8 -1 -5 1.24 0.6
8 1 5 0.26 0.45
-8 1 -5 0.05 0.63
8 1 5 1.07 0.64
-8 1 -5 -0.41 0.81
-8 1 -5 0.81 0.67
8 1 5 -0.71 0.64
8 1 5 1.03 0.53
9 -1 5 0.35 0.87
9 -1 5 1.49 0.8
-9 -1 -5 1.27 0.91
-9 -1 -5 -0.05 0.99
9 -1 5 0.74 0.57
-9 -1 -5 0.18 0.75
-9 -1 -5 0.65 0.65
9 1 5 2.17 0.69
-9 1 -5 0.42 0.84
-9 1 -5 -0.03 0.59
9 1 5 1.59 0.6
-9 1 -5 0.61 0.81
9 1 5 0.51 0.78
-9 1 -5 1.21 1.11
9 1 5 1.56 0.87
-10 -1 -5 -0.47 0.75
-10 -1 -5 -0.39 0.94
10 -1 5 1.12 1.09
10 -1 5 2.77 1.23
10 -1 5 2.37 0.71
-10 -1 -5 1.06 1.19
10 -1 5 0.07 0.95
-10 -1 -5 0.93 1.03
10 1 5 -0.22 0.69
-10 1 -5 0.81 0.76
-10 1 -5 -0.27 1.28
-10 1 -5 -1.51 1.06
10 1 5 0.76 1.11
10 1 5 -0.26 0.74
10 1 5 1.4 1.11
-11 -1 -5 -2.33 1.31
-11 -1 -5 -0.72 0.9
11 -1 5 -0.59 0.78
-11 1 -5 -0.4 1.03
11 1 5 0.61 0.79
-11 1 -5 1.31 1.34
13 -2 -5 -0.53 0.91
13 -2 -5 2.78 1.43
13 -2 -5 0.83 1.47
13 2 -5 -1.56 1.16
13 2 -5 -0.25 1.21
13 2 -5 -1.87 2.01
13 2 -5 3.83 1.34
12 -2 -5 0.8 1.12
12 -2 -5 -0.24 0.65
12 -2 -5 -1.32 1.11
12 -2 -5 1.88 1.02
12 -2 -5 -0.11 0.98
12 2 -5 0.27 0.9
12 2 -5 1.15 0.96
12 2 -5 -2.09 0.85
12 2 -5 -0.55 0.94
12 2 -5 -0.84 1.04
12 2 -5 1.21 0.99
11 -2 -5 1.07 0.52
11 -2 -5 0.07 0.86
11 -2 -5 1.53 0.78
11 -2 -5 1.11 0.85
11 -2 -5 0.28 0.77
11 -2 -5 -0.65 0.35
11 2 -5 0.08 0.68
11 2 -5 0.71 0.74
-11 2 5 0.55 0.76
11 2 -5 0.47 0.72
11 2 -5 -0.76 0.77
11 2 -5 1.28 0.81
11 2 -5 0.6 0.77
10 -2 -5 -0.02 0.53
10 -2 -5 0.27 0.42
10 -2 -5 0.56 0.38
10 -2 -5 0.88 0.69
10 -2 -5 -0.48 0.67
10 -2 -5 -0.38 0.6
-10 2 5 -0.41 0.28
10 2 -5 0.57 0.62
10 2 -5 -0.03 0.56
10 2 -5 0.21 0.56
-10 2 5 -0.3 0.62
10 2 -5 -0.4 0.61
10 2 -5 0.15 0.54
10 2 -5 -0.38 0.58
9 -2 -5 19.59 0.84
9 -2 -5 19.46 1.04
9 -2 -5 19.05 0.79
9 2 -5 18.86 1.06
-9 2 5 19.18 1.04
-9 2 5 19.41 0.76
9 2 -5 19.16 0.98
9 2 -5 19.16 0.98
9 2 -5 17.08 1.03
9 2 -5 20.93 0.98
9 2 -5 19.58 0.99
8 -2 -5 5.8 0.68
8 -2 -5 6.69 0.5
8 -2 -5 6.69 0.69
8 -2 -5 6.72 0.52
8 -2 -5 6.86 0.62
8 -2 -5 7.23 0.6
8 2 -5 7.39 0.6
8 2 -5 6.18 0.52
-8 2 5 7.4 0.51
-8 2 5 8.45 0.63
8 2 -5 6.79 0.58
8 2 -5 7.17 0.64
8 2 -5 8.71 0.71
8 2 -5 6.88 0.51
7 -2 -5 12.97 0.51
7 -2 -5 11.89 0.72
7 -2 -5 11.13 0.69
7 -2 -5 11.46 0.76
7 -2 -5 11.65 0.71
7 -2 -5 11.58 0.6
-7 2 5 11.2 0.69
7 2 -5 10.73 0.69
7 2 -5 12.36 0.62
7 2 -5 12.44 0.66
7 2 -5 10.88 0.7
7 2 -5 11.69 0.65
-7 2 5 11.87 0.6
7 2 -5 11.01 0.64
6 -2 -5 20.4 0.62
6 -2 -5 21.76 0.81
6 -2 -5 20.6 0.81
6 -2 -5 22.07 0.88
6 -2 -5 20.57 0.79
6 -2 -5 20.67 0.78
6 2 -5 20.41 0.78
6 2 -5 20.68 0.75
6 2 -5 20.65 0.72
6 2 -5 19.95 0.75
-6 2 5 20.83 0.77
-6 2 5 21.34 0.83
6 2 -5 20.66 0.71
-6 2 5 20.35 0.77
6 2 -5 21.36 0.73
5 -2 -5 5.84 0.44
5 -2 -5 5.53 0.43
5 -2 -5 5.98 0.51
-5 -2 5 5.89 0.46
5 -2 -5 5.63 0.49
-5 -2 5 5.78 0.4
5 -2 -5 5.28 0.45
-5 2 5 5.84 0.48
-5 2 5 5.35 0.37
-5 2 5 5.57 0.33
-5 2 5 5.18 0.47
5 2 -5 6.24 0.46
5 2 -5 5.78 0.3
5 2 -5 5.47 0.41
5 2 -5 4.78 0.37
5 2 -5 5.78 0.34
5 2 -5 5.97 0.39
5 2 -5 5.32 0.43
5 2 -5 5.9 0.46
-4 -2 5 0.25 0.14
4 -2 -5 0.02 0.19
4 -2 -5 0.11 0.22
4 -2 -5 0.22 0.18
4 -2 -5 0.32 0.21
-4 -2 5 0.04 0.22
-4 -2 5 0.03 0.15
-4 -2 5 0.28 0.17
4 2 -5 0.27 0.19
4 2 -5 0.01 0.17
4 2 -5 0.13 0.12
-4 2 5 0.31 0.21
-4 2 5 0.3 0.15
-4 2 5 0.32 0.14
4 2 -5 0.42 0.23
-4 2 5 -0.14 0.19
4 2 -5 0.49 0.22
-4 2 5 0.05 0.2
-3 -2 5 0.18 0.15
3 -2 -5 0.16 0.15
-3 -2 5 0.21 0.17
3 -2 -5 -0.01 0.15
-3 -2 5 0.17 0.16
-3 -2 5 0.06 0.11
-3 -2 5 0.09 0.11
3 -2 -5 0.31 0.2
3 -2 -5 0.19 0.19
3 2 -5 0 0.21
3 2 -5 0.16 0.16
3 2 -5 0.15 0.09
-3 2 5 0.08 0.16
3 2 -5 0.27 0.13
-3 2 5 0.04 0.18
-3 2 5 0.25 0.2
3 2 -5 0.22 0.18
3 2 -5 0.08 0.17
-3 2 5 0.11 0.13
-3 2 5 -0.04 0.18
2 -2 -5 0 0.14
-2 -2 5 -0.08 0.1
2 -2 -5 -0.05 0.14
-2 -2 5 -0.1 0.08
-2 -2 5 -0.17 0.14
-2 -2 5 0.1 0.16
-2 -2 5 0.05 0.16
2 -2 -5 0.06 0.18
2 2 -5 0.32 0.16
-2 2 5 0.06 0.17
2 2 -5 0.38 0.23
-2 2 5 -0.05 0.15
2 2 -5 -0.19 0.1
2 2 -5 -0.08 0.14
-2 2 5 0.08 0.18
-2 2 5 -0.05 0.14
-1 -2 5 0.74 0.19
1 -2 -5 0.76 0.23
-1 -2 5 0.7 0.24
1 -2 -5 0.88 0.23
1 -2 -5 0.6 0.09
1 -2 -5 0.6 0.17
-1 -2 5 1.02 0.18
-1 -2 5 0.55 0.17
-1 2 5 0.68 0.16
-1 2 5 0.42 0.18
1 2 -5 0.8 0.18
1 2 -5 0.71 0.16
1 2 -5 0.54 0.25
1 2 -5 0.43 0.15
-1 2 5 0.53 0.2
-1 2 5 0.72 0.17
0 -2 5 30.64 1.11
0 -2 -5 31.83 0.85
0 -2 -5 31.22 1.03
0 -2 5 31.87 1
0 -2 5 30.84 0.84
0 2 -5 30.84 0.75
0 2 -5 30.12 1.14
0 2 5 31.13 1.07
0 2 5 32.59 0.73
0 2 -5 30.13 0.98
0 2 5 32.24 0.83
0 2 5 31.6 1.03
1 -2 5 25.82 1.04
-1 -2 -5 25.5 1.02
-1 -2 -5 25.22 0.93
1 -2 5 26.23 0.91
-1 -2 -5 25.04 0.75
1 -2 5 24.75 0.78
-1 2 -5 26.04 0.61
-1 2 -5 23.98 0.89
-1 2 -5 24.34 0.64
1 2 5 25.87 0.97
-1 2 -5 26.4 1.11
1 2 5 25.92 0.75
1 2 5 25.1 0.67
1 2 5 25.99 0.92
2 -2 5 6.41 0.49
-2 -2 -5 7.27 0.64
-2 -2 -5 6.48 0.39
-2 -2 -5 6.22 0.48
2 -2 5 6.18 0.61
-2 2 -5 6.13 0.22
-2 2 -5 6.69 0.34
2 2 5 5.6 0.36
-2 2 -5 6.64 0.49
-2 2 -5 6.3 0.67
2 2 5 5.94 0.47
2 2 5 6.63 0.53
2 2 5 6.45 0.47
3 -2 5 0.71 0.39
3 -2 5 0.45 0.21
-3 -2 -5 0.84 0.27
-3 -2 -5 0.61 0.24
3 -2 5 0.64 0.21
-3 -2 -5 0.47 0.36
3 2 5 0.34 0.26
-3 2 -5 0.35 0.23
3 2 5 0.62 0.22
3 2 5 1.04 0.28
3 2 5 0.5 0.22
-3 2 -5 0.77 0.45
-3 2 -5 0.53 0.21
-4 -2 -5 1.81 0.53
4 -2 5 1.16 0.34
4 -2 5 1.37 0.29
-4 -2 -5 1.03 0.24
4 -2 5 1.14 0.44
-4 -2 -5 1.17 0.29
-4 -2 -5 1.29 0.35
4 2 5 1.42 0.33
-4 2 -5 1.37 0.29
4 2 5 1.01 0.34
4 2 5 1.68 0.35
-4 2 -5 1.03 0.3
4 2 5 1.55 0.32
-4 2 -5 0.89 0.5
5 -2 5 0.51 0.33
-5 -2 -5 0.45 0.28
-5 -2 -5 0.17 0.29
-5 -2 -5 0.53 0.36
5 -2 5 0.5 0.32
5 -2 5 0.48 0.4
-5 -2 -5 -0.02 0.5
-5 2 -5 0 0.27
5 2 5 0.26 0.32
5 2 5 0.97 0.34
-5 2 -5 -0.1 0.34
-5 2 -5 0.36 0.33
-5 2 -5 0.52 0.52
5 2 5 0.51 0.35
-6 -2 -5 4.62 0.73
6 -2 5 4.82 0.72
-6 -2 -5 3.83 0.44
6 -2 5 5.19 0.53
-6 -2 -5 4.71 0.57
6 -2 5 4.71 0.62
-6 -2 -5 5.48 0.64
6 2 5 5.28 0.73
6 2 5 5.32 0.61
-6 2 -5 4.77 0.55
-6 2 -5 4.69 0.54
-6 2 -5 4.81 0.82
6 2 5 4.33 0.29
6 2 5 4.79 0.59
-6 2 -5 4.19 0.54
7 -2 5 8.43 0.9
-7 -2 -5 9.23 0.87
-7 -2 -5 9.22 1.27
7 -2 5 8.57 1.02
-7 -2 -5 9.21 0.66
7 -2 5 8.82 0.69
-7 -2 -5 9.3 0.76
-7 2 -5 8.76 0.85
7 2 5 8.64 0.91
7 2 5 9.2 0.37
-7 2 -5 8.97 0.76
7 2 5 6.32 0.78
7 2 5 7.7 0.78
-7 2 -5 8.75 1.17
8 -2 5 1.35 0.63
-8 -2 -5 2 0.62
8 -2 5 1.91 0.54
-8 -2 -5 -0.03 0.82
-8 -2 -5 1.16 0.71
8 -2 5 2.63 0.72
-8 2 -5 2.89 0.73
8 2 5 3.61 0.67
-8 2 -5 1.74 0.57
-8 2 -5 1.44 0.97
-8 2 -5 3.58 0.76
8 2 5 2.04 0.73
8 2 5 2.51 0.54
-9 -2 -5 3.1 0.76
-9 -2 -5 0.6 0.92
-9 -2 -5 3.34 0.72
-9 -2 -5 2.15 0.89
9 -2 5 1.92 0.88
9 -2 5 2.55 0.87
9 -2 5 2.94 0.69
-9 2 -5 1.34 1.13
9 2 5 2.69 0.62
-9 2 -5 1.3 0.84
-9 2 -5 3.22 0.73
9 2 5 3 0.96
9 2 5 3.82 0.82
-10 -2 -5 -1.23 0.96
-10 -2 -5 -0.76 1.18
10 -2 5 0.45 0.96
10 -2 5 1.53 0.77
-10 -2 -5 0.38 1.08
-10 -2 -5 -0.48 0.75
10 -2 5 0.57 1.08
-10 2 -5 2.37 1.15
-10 2 -5 0.43 0.83
10 2 5 1.32 1.09
10 2 5 -0.72 0.71
-10 2 -5 1.91 1.4
10 2 5 1.86 0.67
-11 -2 -5 1.76 1.35
-11 2 -5 -0.07 1.36
12 -3 -5 -1.44 1.11
12 -3 -5 0.68 1.09
12 -3 -5 1.07 0.5
12 -3 -5 2.35 1.04
12 -3 -5 1.6 0.58
12 -3 -5 0.98 0.78
-12 3 5 -0.11 1
12 3 -5 -0.55 0.92
12 3 -5 0.68 0.93
12 3 -5 1.62 1.06
12 3 -5 1.31 1.07
12 3 -5 1.5 1
12 3 -5 1.81 1.01
11 -3 -5 0.55 0.87
11 -3 -5 0.33 0.44
11 -3 -5 0.94 0.8
11 -3 -5 1.51 0.7
11 -3 -5 0.11 0.94
-11 3 5 0.17 0.78
11 3 -5 0.57 0.81
-11 3 5 0.06 0.46
11 3 -5 1.91 0.82
11 3 -5 0.75 0.75
11 3 -5 -0.15 0.73
11 3 -5 1.33 0.8
11 3 -5 0.32 0.71
10 -3 -5 0.41 0.65
10 -3 -5 2.78 0.8
10 -3 -5 1.31 0.44
10 -3 -5 2.55 0.4
10 -3 -5 2.34 0.76
10 3 -5 0.84 0.69
10 3 -5 1.54 0.66
10 3 -5 2.26 0.68
10 3 -5 2.16 0.68
10 3 -5 0.78 0.6
10 3 -5 2.25 0.63
-10 3 5 1.91 0.41
9 -3 -5 4.9 0.38
9 -3 -5 4.46 0.71
9 -3 -5 4.31 0.66
9 -3 -5 4.82 0.62
9 3 -5 4.32 0.61
-9 3 5 4.56 0.67
-9 3 5 4.22 0.59
9 3 -5 4.49 0.6
9 3 -5 4.89 0.76
9 3 -5 4.8 0.56
-9 3 5 4.87 0.6
8 -3 -5 0.62 0.3
8 -3 -5 -0.08 0.46
8 -3 -5 0.38 0.24
8 -3 -5 0.7 0.39
8 3 -5 0.61 0.41
-8 3 5 0.64 0.44
8 3 -5 0.68 0.37
8 3 -5 0.34 0.37
-8 3 5 0.64 0.46
-8 3 5 0.75 0.29
8 3 -5 0.85 0.38
-8 3 5 0.42 0.41
8 3 -5 1.05 0.45
8 3 -5 0.71 0.42
7 -3 -5 2.15 0.46
7 -3 -5 2.52 0.45
7 -3 -5 2.38 0.36
7 -3 -5 3.33 0.49
7 3 -5 2.48 0.36
7 3 -5 2.62 0.41
-7 3 5 1.65 0.4
-7 3 5 1.98 0.4
-7 3 5 2.21 0.37
7 3 -5 2.99 0.36
-7 3 5 2.09 0.4
7 3 -5 1.79 0.39
7 3 -5 2.39 0.34
7 3 -5 2.2 0.43
6 -3 -5 5.88 0.46
6 -3 -5 5.85 0.48
6 -3 -5 5.26 0.48
6 -3 -5 5.36 0.55
6 3 -5 6.17 0.47
-6 3 5 5.79 0.49
-6 3 5 5.71 0.59
-6 3 5 5.85 0.46
6 3 -5 6.12 0.43
6 3 -5 5.43 0.39
6 3 -5 5.91 0.47
6 3 -5 5.28 0.44
-6 3 5 5.63 0.47
6 3 -5 6.21 0.47
5 -3 -5 3.02 0.34
5 -3 -5 3.68 0.4
-5 -3 5 4.47 0.42
5 -3 -5 3.61 0.49
-5 -3 5 3.89 0.29
-5 -3 5 4 0.4
5 -3 -5 3.71 0.42
5 3 -5 3.84 0.26
5 3 -5 3.41 0.32
5 3 -5 3.69 0.37
-5 3 5 3.76 0.39
-5 3 5 3.25 0.36
5 3 -5 3.61 0.28
5 3 -5 3.52 0.29
5 3 -5 3.95 0.35
5 3 -5 2.84 0.32
-5 3 5 3.78 0.51
-5 3 5 3.68 0.28
-4 -3 5 0.55 0.25
-4 -3 5 0.62 0.19
4 -3 -5 0.86 0.23
4 -3 -5 0.98 0.3
4 -3 -5 0.63 0.25
4 -3 -5 1.06 0.25
-4 -3 5 0.58 0.18
-4 -3 5 0.6 0.19
-4 3 5 0.78 0.14
4 3 -5 0.7 0.24
4 3 -5 0.71 0.15
-4 3 5 0.65 0.23
4 3 -5 0.7 0.16
4 3 -5 0.72 0.26
4 3 -5 0.74 0.19
-4 3 5 0.63 0.24
-4 3 5 0.68 0.27
4 3 -5 0.72 0.17
-4 3 5 0.47 0.2
4 3 -5 0.5 0.24
3 -3 -5 8.26 0.45
-3 -3 5 8.01 0.48
-3 -3 5 8.28 0.35
3 -3 -5 7.29 0.55
3 -3 -5 7.77 0.4
-3 -3 5 7.39 0.43
-3 -3 5 8.12 0.41
3 -3 -5 8.18 0.52
-3 -3 5 7.73 0.35
3 3 -5 8.15 0.55
3 3 -5 7.92 0.43
-3 3 5 8.3 0.44
3 3 -5 7.58 0.42
-3 3 5 8.33 0.45
-3 3 5 8.56 0.56
-3 3 5 8.11 0.51
3 3 -5 8.21 0.37
3 3 -5 8.07 0.4
2 -3 -5 1.76 0.24
-2 -3 5 1.66 0.25
-2 -3 5 1.43 0.15
-2 -3 5 2.07 0.21
2 -3 -5 1.16 0.25
2 -3 -5 1.9 0.2
-2 -3 5 1.51 0.23
2 -3 -5 1.58 0.3
-2 -3 5 1.23 0.28
-2 3 5 1.54 0.3
-2 3 5 1.7 0.3
2 3 -5 1.93 0.23
2 3 -5 1.67 0.24
2 3 -5 2.28 0.4
-2 3 5 1.29 0.21
2 3 -5 1.69 0.2
-2 3 5 1.79 0.23
2 3 -5 1.27 0.2
1 -3 -5 2.43 0.18
-1 -3 5 2.79 0.23
1 -3 -5 2.45 0.38
-1 -3 5 2.4 0.38
1 -3 -5 2.54 0.34
-1 -3 5 2.6 0.25
-1 -3 5 2.62 0.31
1 -3 -5 2.26 0.24
-1 3 5 3.2 0.38
-1 3 5 2.01 0.23
1 3 -5 2.13 0.28
-1 3 5 2.24 0.34
1 3 -5 2.55 0.43
0 -3 -5 148.94 3.08
0 -3 -5 149.15 3.15
0 -3 5 141.85 3.38
0 -3 5 149.22 3.58
0 -3 5 147.54 3.14
0 -3 -5 149.27 3.51
0 3 -5 139.85 3.58
0 3 -5 145.85 3.38
0 3 -5 148.06 3.02
0 3 5 142.75 3.46
0 3 5 150.7 3.06
0 3 5 146.22 3.13
0 3 5 145.95 3.44
1 -3 5 0.74 0.27
-1 -3 -5 0.81 0.18
1 -3 5 0.89 0.24
-1 -3 -5 1.14 0.28
-1 3 -5 0.52 0.2
1 3 5 1.15 0.28
-1 3 -5 0.75 0.13
-1 3 -5 0.8 0.38
2 -3 5 56.24 1.3
2 -3 5 59.59 1.88
-2 -3 -5 57.46 1.37
2 -3 5 57.2 1.68
-2 -3 -5 56.78 1.68
-2 -3 -5 58.32 1.77
2 3 5 55.21 1.68
2 3 5 57.02 1.63
-2 3 -5 57.3 1.31
2 3 5 57.03 1.4
-2 3 -5 56.04 1.9
-2 3 -5 58.06 1.65
2 3 5 58.24 1.38
-3 -3 -5 0.38 0.26
-3 -3 -5 0.23 0.16
-3 -3 -5 0.41 0.24
3 -3 5 0.47 0.39
-3 -3 -5 0.5 0.37
3 -3 5 0.41 0.23
3 -3 5 0.35 0.21
3 3 5 0.6 0.28
-3 3 -5 0.7 0.22
3 3 5 0.37 0.22
-3 3 -5 0.33 0.45
3 3 5 0.74 0.27
-3 3 -5 0.38 0.25
3 3 5 0.29 0.25
4 -3 5 4.45 0.36
-4 -3 -5 4.91 0.54
-4 -3 -5 4.99 0.65
4 -3 5 6.09 0.75
-4 -3 -5 4.7 0.38
-4 -3 -5 5.1 0.43
4 -3 5 4.61 0.58
4 3 5 4.81 0.54
4 3 5 5.06 0.44
-4 3 -5 5.66 0.41
-4 3 -5 4.92 0.78
4 3 5 4.96 0.61
4 3 5 4.5 0.41
-4 3 -5 4.9 0.54
-5 -3 -5 0.8 0.33
5 -3 5 0.85 0.45
5 -3 5 1.72 0.37
-5 -3 -5 0.91 0.28
-5 -3 -5 1.7 0.59
-5 -3 -5 1.17 0.37
5 -3 5 0.87 0.38
-5 3 -5 0.87 0.36
-5 3 -5 1.07 0.35
5 3 5 1.01 0.36
-5 3 -5 1.34 0.38
5 3 5 1.03 0.41
5 3 5 1.64 0.43
-5 3 -5 2.24 0.67
5 3 5 1.33 0.39
-6 -3 -5 13.71 0.81
-6 -3 -5 13.54 0.72
-6 -3 -5 14.83 1.18
6 -3 5 13.12 1.16
6 -3 5 15.97 0.81
6 -3 5 14.42 0.97
-6 -3 -5 13.69 0.87
6 3 5 13.88 0.83
-6 3 -5 15.43 0.85
6 3 5 14.43 1.05
6 3 5 13.33 0.51
-6 3 -5 12.56 1.35
-6 3 -5 12.4 1.15
-6 3 -5 13.18 0.87
6 3 5 13.94 0.93
-7 -3 -5 20.07 1.09
-7 -3 -5 20.26 0.95
7 -3 5 17.77 1.33
-7 -3 -5 20.12 1.13
7 -3 5 19.83 1.15
7 -3 5 19.74 1.02
-7 -3 -5 19.12 1.43
-7 3 -5 20.39 1.14
-7 3 -5 20.2 1.68
7 3 5 19.08 1.17
7 3 5 19.37 1.07
7 3 5 18.82 0.63
8 -3 5 7.07 0.8
8 -3 5 6.12 0.81
8 -3 5 6.91 1.05
-8 -3 -5 7.32 0.87
-8 -3 -5 5.3 0.65
-8 3 -5 5.32 0.8
-8 3 -5 6.98 0.87
-8 3 -5 4.48 1.21
8 3 5 5.79 0.71
8 3 5 5.89 0.8
8 3 5 6.37 0.88
8 3 5 5.51 0.37
-9 -3 -5 7.28 1.06
9 -3 5 7.38 1.14
9 -3 5 7.53 1.03
-9 -3 -5 6.02 0.85
-9 -3 -5 7.96 0.94
9 -3 5 8.81 1.14
-9 3 -5 6.59 1.02
9 3 5 7.18 0.52
-9 3 -5 7.79 0.98
9 3 5 9.01 1.12
9 3 5 7.39 0.98
9 3 5 8.63 0.98
-10 -3 -5 0.97 0.82
10 -3 5 -1.05 0.99
-10 -3 -5 -0.11 0.95
10 -3 5 0.12 1.16
10 -3 5 -1.51 0.69
-10 -3 -5 0.47 1.18
-10 -3 -5 1.11 1.22
10 3 5 1.73 0.75
10 3 5 0.08 1.03
-10 3 -5 -0.05 0.82
10 3 5 1 0.65
-10 3 -5 3.24 1.22
-10 3 -5 -2.29 1.33
12 -4 -5 1.15 1.26
12 -4 -5 0.82 0.95
12 -4 -5 1.6 0.65
12 4 -5 -0.96 0.91
12 4 -5 -0.07 0.94
12 4 -5 1.8 1.1
12 4 -5 0.82 1.02
12 4 -5 2.5 1.1
-12 4 5 0.67 0.69
-12 4 5 -1.19 1.07
-12 4 5 -0.49 0.53
12 4 -5 -0.3 1.07
11 -4 -5 2.89 1.03
11 -4 -5 3.25 1
11 -4 -5 4.53 0.95
11 -4 -5 4.5 0.81
11 -4 -5 3.41 0.65
11 4 -5 2.6 0.89
11 4 -5 3.71 0.77
-11 4 5 2.42 0.88
11 4 -5 1.63 0.84
11 4 -5 3.75 0.92
-11 4 5 3.53 1.04
11 4 -5 2.98 0.84
11 4 -5 2.49 0.79
10 -4 -5 0.14 0.57
10 -4 -5 0.29 0.72
10 -4 -5 0.87 0.47
10 -4 -5 0.42 0.69
10 -4 -5 0.57 0.78
-10 4 5 -0.39 0.41
10 4 -5 1.02 0.63
10 4 -5 0.31 0.66
10 4 -5 0.24 0.54
10 4 -5 -0.67 0.62
10 4 -5 -0.36 0.56
-10 4 5 0.33 0.74
10 4 -5 0.63 0.7
-10 4 5 0 0.56
-10 4 5 -0.32 0.65
9 -4 -5 4.76 0.7
9 -4 -5 6.34 0.79
9 -4 -5 5.19 0.71
9 4 -5 5.67 0.68
9 4 -5 5.06 0.54
-9 4 5 5.31 0.67
9 4 -5 5 0.65
-9 4 5 4.89 0.75
9 4 -5 6.34 0.73
9 4 -5 4.79 0.63
-9 4 5 4.17 0.64
9 4 -5 5.53 0.68
8 -4 -5 -0.67 0.51
8 -4 -5 -0.1 0.4
8 -4 -5 0.03 0.31
8 -4 -5 0.04 0.48
8 4 -5 0.45 0.46
-8 4 5 0.03 0.29
8 4 -5 0.51 0.44
-8 4 5 -0.32 0.47
8 4 -5 0.47 0.38
8 4 -5 -0.14 0.4
8 4 -5 0.08 0.43
8 4 -5 -0.61 0.34
-8 4 5 -0.73 0.46
-8 4 5 -0.07 0.43
7 -4 -5 1.22 0.47
7 -4 -5 0.96 0.43
7 -4 -5 0.65 0.42
7 -4 -5 0.69 0.33
-7 4 5 1.01 0.43
7 4 -5 0.93 0.32
-7 4 5 1.17 0.4
7 4 -5 1.94 0.41
7 4 -5 1.63 0.33
7 4 -5 1.33 0.35
-7 4 5 0.55 0.38
7 4 -5 0.76 0.36
-7 4 5 1.45 0.38
7 4 -5 0.62 0.4
6 -4 -5 3.36 0.57
-6 -4 5 2.69 0.39
6 -4 -5 2.67 0.39
6 -4 -5 2.95 0.42
6 -4 -5 2.34 0.4
-6 4 5 2.65 0.39
6 4 -5 3.13 0.36
-6 4 5 2.73 0.4
6 4 -5 2.57 0.3
-6 4 5 2.89 0.49
6 4 -5 2.18 0.36
6 4 -5 2.35 0.29
6 4 -5 3.27 0.43
-6 4 5 2.84 0.41
6 4 -5 2.6 0.33
-5 -4 5 0.51 0.19
5 -4 -5 0.12 0.29
5 -4 -5 0.35 0.26
-5 -4 5 -0.13 0.29
5 -4 -5 0.19 0.33
-5 -4 5 0.07 0.25
5 -4 -5 0.28 0.24
-5 -4 5 0.24 0.14
5 4 -5 0.38 0.15
-5 4 5 0.09 0.32
-5 4 5 0.23 0.28
5 4 -5 0.17 0.24
5 4 -5 0.28 0.18
-5 4 5 0.26 0.13
-5 4 5 0.32 0.31
5 4 -5 0.17 0.18
-5 4 5 0.07 0.22
5 4 -5 0.63 0.31
5 4 -5 -0.18 0.28
5 4 -5 0.11 0.2
4 -4 -5 24.49 0.81
-4 -4 5 24.27 0.74
-4 -4 5 23.57 0.65
4 -4 -5 24.94 1.05
4 -4 -5 24.13 0.77
-4 -4 5 24.67 0.83
4 -4 -5 23.9 0.96
-4 -4 5 23.97 0.84
4 4 -5 24.75 0.79
-4 4 5 24.14 0.59
4 4 -5 23.83 0.89
4 4 -5 24.88 0.64
4 4 -5 24.18 0.8
4 4 -5 23.64 0.66
-4 4 5 24.23 0.79
4 4 -5 23.04 0.68
-4 4 5 24.31 0.8
4 4 -5 23.64 0.74
-4 4 5 23 0.92
-4 4 5 24.45 1.04
-3 -4 5 0.21 0.17
3 -4 -5 0.39 0.31
3 -4 -5 0.51 0.2
-3 -4 5 0.46 0.25
-3 -4 5 0.66 0.19
3 -4 -5 0.18 0.22
-3 -4 5 0.27 0.15
-3 -4 5 0.53 0.25
3 -4 -5 0.45 0.22
3 4 -5 0.31 0.23
-3 4 5 0.29 0.2
-3 4 5 0.19 0.25
3 4 -5 0.28 0.27
-3 4 5 0.71 0.24
3 4 -5 0.2 0.16
3 4 -5 0.47 0.18
-3 4 5 0.33 0.22
3 4 -5 0.59 0.12
2 -4 -5 35.43 1.27
-2 -4 5 35.07 0.97
2 -4 -5 34.8 1.21
-2 -4 5 36.1 0.89
2 -4 -5 35.9 0.95
-2 -4 5 34.66 0.87
-2 -4 5 35.4 1.2
-2 -4 5 35.93 1.09
2 -4 -5 36.51 0.89
2 4 -5 34.45 1.25
2 4 -5 35.81 0.96
-2 4 5 35.56 1.24
2 4 -5 35.19 1.07
-2 4 5 35.39 0.95
2 4 -5 35.38 0.89
1 -4 -5 29.65 1.13
-1 -4 5 28.87 0.8
1 -4 -5 30.37 0.74
1 -4 -5 30.27 0.75
1 -4 -5 30.22 0.84
-1 -4 5 32.17 1.18
1 -4 -5 29.56 1.11
-1 -4 5 29.2 0.85
-1 -4 5 30.37 1
-1 4 5 30.5 1.09
1 4 -5 30.48 1.21
1 4 -5 30.99 0.64
-1 4 5 29.83 0.83
-1 4 5 30.69 1.14
1 4 -5 30.11 1
0 -4 5 -0.18 0.26
0 -4 -5 0.01 0.26
0 -4 5 0.01 0.19
0 -4 -5 0.13 0.15
0 -4 -5 0.36 0.24
0 -4 5 0.13 0.21
0 -4 5 0.05 0.19
0 -4 -5 0.04 0.21
0 4 -5 -0.05 0.29
0 4 5 0.29 0.19
0 4 5 0.29 0.11
0 4 -5 0.13 0.2
0 4 -5 0.06 0.09
0 4 5 0.31 0.2
0 4 5 0.15 0.26
-1 -4 -5 25.26 1.05
-1 -4 -5 27.33 0.8
-1 -4 -5 26.16 1.06
1 -4 5 27.64 1.2
-1 -4 -5 26.86 0.76
1 -4 5 25.12 0.99
-1 4 -5 26.75 0.65
1 4 5 24.97 1.01
1 4 5 25.91 0.72
1 4 5 25.07 0.76
-1 4 -5 26.78 1.23
-1 4 -5 27.78 1
2 -4 5 0.49 0.16
-2 -4 -5 0.88 0.29
2 -4 5 0.32 0.27
-2 -4 -5 0.47 0.25
-2 -4 -5 1.16 0.32
2 -4 5 0.35 0.25
2 4 5 0.82 0.3
2 4 5 0.39 0.22
2 4 5 0.47 0.19
-2 4 -5 0.63 0.17
-2 4 -5 0.23 0.23
-2 4 -5 0.34 0.41
2 4 5 0.51 0.27
-3 -4 -5 17.43 0.49
-3 -4 -5 17.57 0.89
-3 -4 -5 16.76 1
3 -4 5 17.63 0.58
-3 -4 -5 16.75 0.67
3 -4 5 17.74 1.07
3 -4 5 17.02 0.85
3 4 5 17.2 0.88
-3 4 -5 16.7 0.84
-3 4 -5 17.76 0.61
-3 4 -5 17.03 1.16
3 4 5 17.37 0.66
3 4 5 17.88 0.69
3 4 5 17.39 0.84
-4 -4 -5 2.28 0.24
-4 -4 -5 3.26 0.63
-4 -4 -5 2.65 0.44
4 -4 5 1.69 0.34
4 -4 5 2.17 0.48
-4 -4 -5 2.43 0.37
4 -4 5 2.31 0.31
-4 4 -5 2.6 0.65
-4 4 -5 2.16 0.41
4 4 5 2.14 0.35
4 4 5 2.58 0.42
-4 4 -5 2.08 0.32
4 4 5 2.07 0.36
4 4 5 2.36 0.41
5 -4 5 10.42 0.86
-5 -4 -5 10.57 0.68
-5 -4 -5 11.38 0.55
5 -4 5 10 0.64
5 -4 5 10.38 1.02
-5 -4 -5 10.45 0.81
-5 -4 -5 12.05 1.06
5 4 5 11.23 0.72
5 4 5 11.51 0.77
5 4 5 10.88 0.83
-5 4 -5 9.07 1.16
-5 4 -5 10.84 0.73
-5 4 -5 11.6 0.67
-5 4 -5 12.43 0.82
5 4 5 10.87 0.79
-6 -4 -5 -0.17 0.39
6 -4 5 0.86 0.52
6 -4 5 -0.06 0.49
-6 -4 -5 0.07 0.33
-6 -4 -5 0.19 0.63
6 -4 5 -0.31 0.43
-6 -4 -5 0.35 0.73
6 4 5 0.2 0.49
-6 4 -5 -0.45 0.38
6 4 5 0.62 0.41
6 4 5 0.38 0.44
-6 4 -5 0.1 0.64
-6 4 -5 0.22 0.51
6 4 5 0.49 0.4
7 -4 5 5.09 0.71
-7 -4 -5 4.6 0.51
7 -4 5 3.89 0.61
-7 -4 -5 4.18 0.71
-7 -4 -5 3.57 0.62
7 -4 5 5.48 0.98
7 4 5 4.64 0.4
-7 4 -5 5.02 1.14
7 4 5 5.91 0.7
-7 4 -5 3.63 0.68
7 4 5 5.02 0.71
8 -4 5 2.75 0.74
-8 -4 -5 1.52 0.58
8 -4 5 1.53 0.61
-8 -4 -5 -0.51 0.8
-8 -4 -5 1.56 0.76
8 -4 5 -0.48 0.74
8 4 5 1.63 0.38
-8 4 -5 1.14 0.79
8 4 5 2.08 0.73
8 4 5 0.77 0.74
8 4 5 0.94 0.6
-8 4 -5 0.86 0.57
8 4 5 1.5 0.51
-8 4 -5 1 1.08
9 -4 5 0.68 0.97
-9 -4 -5 1.57 0.73
-9 -4 -5 1.48 0.72
9 -4 5 2.17 0.92
-9 -4 -5 -0.49 0.96
-9 -4 -5 0.88 0.93
9 -4 5 0.98 0.72
9 4 5 2.5 0.66
9 4 5 2.53 0.94
-9 4 -5 1.08 0.74
-9 4 -5 2.08 1
9 4 5 2.18 0.65
9 4 5 1.46 0.43
9 4 5 3.46 1.02
-9 4 -5 -0.47 1.2
-10 -4 -5 2.66 0.95
-10 -4 -5 -0.92 1.2
10 -4 5 4.42 1.22
10 -4 5 3.56 0.98
-10 -4 -5 2.15 1.27
10 -4 5 1.73 1.16
-10 -4 -5 2.43 0.9
10 4 5 3.29 0.83
-10 4 -5 -0.3 1.5
-10 4 -5 0.83 0.95
10 4 5 2.3 0.47
10 4 5 2.86 0.69
-10 4 -5 1.7 1.2
10 4 5 1.97 1.3
12 -5 -5 0.98 0.91
12 -5 -5 2.82 1.39
12 -5 -5 3.58 0.81
-12 5 5 3.09 1.2
12 5 -5 2.56 0.98
12 5 -5 2.4 1.13
-12 5 5 3.12 1.3
12 5 -5 1.35 1.17
12 5 -5 2.9 0.95
-12 5 5 2.75 0.76
12 5 -5 3.68 1.22
12 5 -5 2.37 1.08
11 -5 -5 2.04 0.98
11 -5 -5 -0.05 0.61
11 -5 -5 0.25 0.79
11 -5 -5 0.81 0.99
11 -5 -5 0.14 1.09
11 5 -5 -0.49 0.69
11 5 -5 0.4 0.89
11 5 -5 -0.53 0.82
11 5 -5 0.75 0.79
-11 5 5 0.2 0.8
11 5 -5 0.94 0.95
-11 5 5 -0.61 1.02
-11 5 5 -1.26 0.53
-11 5 5 1.77 0.93
11 5 -5 1.36 0.85
10 -5 -5 -0.17 0.74
10 -5 -5 1.27 0.74
10 -5 -5 0.43 0.67
10 -5 -5 0.37 0.56
10 -5 -5 0.8 0.83
-10 5 5 0.52 0.7
10 5 -5 0.28 0.66
-10 5 5 -0.38 0.67
10 5 -5 -0.15 0.64
10 5 -5 0.88 0.74
10 5 -5 1.04 0.78
-10 5 5 0.75 0.82
10 5 -5 0.55 0.55
10 5 -5 -0.27 0.6
9 -5 -5 1.78 0.66
9 -5 -5 3.07 0.7
9 -5 -5 1.95 0.61
9 -5 -5 2.14 0.56
9 -5 -5 1.97 0.71
9 5 -5 2.11 0.47
9 5 -5 2.69 0.67
-9 5 5 2.49 0.69
-9 5 5 2.59 0.72
9 5 -5 2.86 0.68
-9 5 5 3.28 0.58
9 5 -5 2.29 0.62
9 5 -5 3.13 0.55
9 5 -5 1.95 0.58
8 -5 -5 2.62 0.49
8 -5 -5 3.1 0.63
8 -5 -5 2.42 0.62
8 -5 -5 1.58 0.53
8 5 -5 2.56 0.4
8 5 -5 2.54 0.48
8 5 -5 2.52 0.53
-8 5 5 2.36 0.62
8 5 -5 2.22 0.57
-8 5 5 2.34 0.64
8 5 -5 2.57 0.54
-8 5 5 2.82 0.56
8 5 -5 2.02 0.43
7 -5 -5 -0.04 0.34
7 -5 -5 -0.34 0.45
7 -5 -5 0.51 0.43
7 -5 -5 0.36 0.45
7 5 -5 0.08 0.31
-7 5 5 0.28 0.4
-7 5 5 -0.07 0.42
7 5 -5 0.49 0.42
-7 5 5 0.01 0.35
7 5 -5 0.17 0.39
7 5 -5 0.21 0.32
-7 5 5 0.93 0.46
7 5 -5 0.72 0.43
7 5 -5 0.39 0.28
-6 -5 5 2.29 0.4
6 -5 -5 2.3 0.52
6 -5 -5 2.19 0.43
6 -5 -5 2.4 0.45
6 -5 -5 1.99 0.4
-6 5 5 1.93 0.41
-6 5 5 2.62 0.43
-6 5 5 2.59 0.56
-6 5 5 1.84 0.41
6 5 -5 1.89 0.41
6 5 -5 2.79 0.27
6 5 -5 2.95 0.34
6 5 -5 2.3 0.28
6 5 -5 1.97 0.43
6 5 -5 2.03 0.29
-5 -5 5 13.73 0.55
-5 -5 5 14.15 0.76
-5 -5 5 14.49 0.66
5 -5 -5 13.67 0.73
5 -5 -5 14.52 0.81
-5 -5 5 14.08 0.66
5 -5 -5 13.75 0.94
5 -5 -5 14.39 0.67
-5 5 5 14.47 0.79
-5 5 5 14.42 0.92
5 5 -5 14.2 0.7
5 5 -5 14.07 0.7
5 5 -5 13.39 0.68
5 5 -5 13.83 0.57
5 5 -5 14.04 0.51
-5 5 5 12.89 0.71
5 5 -5 14.36 0.5
-5 5 5 14.84 0.69
-4 -5 5 0.27 0.15
4 -5 -5 0.43 0.3
-4 -5 5 0.25 0.17
4 -5 -5 -0.15 0.26
4 -5 -5 0.39 0.27
4 -5 -5 -0.07 0.24
-4 -5 5 0.37 0.24
-4 -5 5 0.23 0.32
-4 -5 5 0.3 0.22
-4 5 5 0.28 0.36
-4 5 5 0.29 0.24
-4 5 5 0.28 0.24
4 5 -5 0.13 0.16
4 5 -5 0.14 0.14
4 5 -5 0 0.16
4 5 -5 0.47 0.3
-4 5 5 0.07 0.28
-4 5 5 0.18 0.11
-4 5 5 -0.1 0.27
4 5 -5 0.41 0.28
-3 -5 5 61.93 1.5
-3 -5 5 64.8 1.67
-3 -5 5 62.49 1.8
-3 -5 5 61.24 1.38
3 -5 -5 61.55 1.85
-3 -5 5 65.1 1.59
3 -5 -5 61.27 1.96
3 -5 -5 64.69 1.55
3 -5 -5 64.47 1.49
-3 5 5 61.86 1.53
-3 5 5 64.12 1.94
3 5 -5 62.88 1.33
3 5 -5 62.98 1.65
3 5 -5 63.25 1.56
3 5 -5 62.36 1.83
-3 5 5 61.05 1.83
3 5 -5 61.52 1.41
2 -5 -5 16.55 0.92
-2 -5 5 17.45 0.89
2 -5 -5 17.36 0.65
2 -5 -5 17.54 0.55
-2 -5 5 17.43 0.67
-2 -5 5 16.8 0.57
-2 -5 5 17.41 0.74
2 -5 -5 17.9 0.88
-2 -5 5 16.79 0.53
2 5 -5 17.72 0.94
-2 5 5 17.56 0.63
-2 5 5 18.77 0.93
2 5 -5 18.26 0.73
2 5 -5 17.94 0.65
-2 5 5 17 0.82
-1 -5 5 26.53 0.8
-1 -5 5 25.49 0.95
-1 -5 5 24.14 1.09
1 -5 -5 25.05 0.69
1 -5 -5 25.39 0.78
-1 -5 5 24.67 0.73
1 -5 -5 25.76 1.07
1 -5 -5 25.8 0.65
1 -5 -5 25.82 1.12
1 5 -5 24.53 1.14
-1 5 5 25.49 1.09
-1 5 5 24.77 0.75
-1 5 5 25.39 1.03
1 5 -5 25.49 0.94
0 -5 5 5.41 0.5
0 -5 -5 5.82 0.35
0 -5 -5 4.66 0.23
0 -5 -5 5.57 0.44
0 -5 -5 4.58 0.54
0 -5 5 4.76 0.41
0 -5 -5 4.93 0.57
0 -5 5 4.56 0.61
0 -5 5 5.09 0.43
0 5 5 5.27 0.53
0 5 5 5.58 0.39
0 5 -5 6.12 0.74
0 5 5 5.25 0.6
0 5 -5 5.29 0.47
-1 -5 -5 8.29 0.68
1 -5 5 8.77 0.82
1 -5 5 8.61 0.47
-1 -5 -5 9.01 0.46
-1 -5 -5 9.44 0.69
-1 -5 -5 8.78 0.24
1 -5 5 9.63 0.63
-1 -5 -5 8.69 0.52
-1 5 -5 9.32 0.62
1 5 5 7.88 0.38
1 5 5 9.2 0.49
-1 5 -5 8.28 0.86
1 5 5 8.61 0.63
1 5 5 10.11 0.7
2 -5 5 -0.3 0.31
2 -5 5 0.65 0.29
2 -5 5 0.37 0.16
-2 -5 -5 0.12 0.27
-2 -5 -5 0.45 0.26
-2 -5 -5 0.05 0.27
-2 5 -5 0.48 0.3
2 5 5 0.42 0.23
2 5 5 0.39 0.23
-2 5 -5 0.37 0.43
2 5 5 0.14 0.19
2 5 5 0.48 0.3
-3 -5 -5 6.15 0.27
3 -5 5 6.68 0.42
3 -5 5 7.7 0.9
-3 -5 -5 5.89 0.66
3 -5 5 7.94 0.69
-3 -5 -5 7.2 0.55
-3 -5 -5 6.8 0.58
-3 5 -5 8.29 0.68
-3 5 -5 7.29 1
3 5 5 6.59 0.66
3 5 5 7.19 0.49
3 5 5 6.87 0.53
3 5 5 7.37 0.66
-4 -5 -5 5.15 0.33
-4 -5 -5 5.28 0.73
-4 -5 -5 5.02 0.65
4 -5 5 5.74 0.81
4 -5 5 6.04 0.67
4 -5 5 5.23 0.4
-4 -5 -5 4.83 0.46
4 5 5 4.95 0.63
4 5 5 5.88 0.49
4 5 5 5.45 0.45
4 5 5 5.69 0.63
-4 5 -5 4.69 0.62
-4 5 -5 5.02 0.81
-5 -5 -5 1.22 0.44
5 -5 5 1.71 0.52
5 -5 5 1.22 0.57
-5 -5 -5 1.64 0.64
5 -5 5 1.63 0.4
-5 -5 -5 0.87 0.25
-5 -5 -5 1.94 0.49
5 5 5 1.44 0.44
-5 5 -5 1.75 0.23
5 5 5 1.21 0.41
5 5 5 1.65 0.44
-5 5 -5 1.44 0.71
5 5 5 0.89 0.38
-5 5 -5 1.15 0.47
-6 -5 -5 4.84 0.65
6 -5 5 3.6 0.8
-6 -5 -5 4.6 0.4
-6 -5 -5 4.29 0.86
-6 -5 -5 4.59 0.68
6 -5 5 4.76 0.54
6 -5 5 4.28 0.69
-6 5 -5 3.4 0.24
-6 5 -5 4.38 1.01
6 5 5 4.24 0.6
6 5 5 5.09 0.59
6 5 5 4.22 0.57
6 5 5 4.08 0.58
-6 5 -5 5.03 0.67
-7 -5 -5 0.49 0.73
-7 -5 -5 1.36 0.68
-7 -5 -5 1.53 0.43
7 -5 5 0.64 0.71
7 -5 5 1.56 0.61
7 -5 5 1.26 0.62
-7 -5 -5 2.22 0.7
7 5 5 1.62 0.51
7 5 5 1.18 0.63
-7 5 -5 1.33 0.68
7 5 5 2.45 0.64
7 5 5 1.59 0.53
-7 5 -5 1.2 0.53
-7 5 -5 1 0.97
-8 -5 -5 0.49 0.81
8 -5 5 -0.82 0.62
-8 -5 -5 -0.1 0.58
-8 -5 -5 0.35 0.53
-8 -5 -5 -0.59 0.89
8 -5 5 -0.19 0.73
8 -5 5 0.13 0.8
8 5 5 0.73 0.55
-8 5 -5 0.8 1.15
-8 5 -5 0.22 0.65
8 5 5 1.16 0.7
8 5 5 0.58 0.52
-8 5 -5 0.42 0.76
8 5 5 0.44 0.73
8 5 5 -0.22 0.42
-9 -5 -5 1.52 1.06
-9 -5 -5 1.31 1.07
9 -5 5 0.64 1.04
-9 -5 -5 3.41 0.81
-9 -5 -5 0.37 0.69
9 -5 5 4.38 1.06
9 -5 5 1.08 0.74
-9 5 -5 -0.21 1.39
-9 5 -5 2.83 1.08
9 5 5 2.57 0.54
-9 5 -5 0.96 0.81
9 5 5 2.95 0.98
9 5 5 2.33 0.98
9 5 5 1.48 0.66
9 5 5 2.78 0.7
10 -5 5 1.76 1.28
-10 -5 -5 0.13 1.21
10 -5 5 1.66 0.87
10 -5 5 -1.25 1.32
-10 -5 -5 -0.26 0.87
10 5 5 -0.02 0.68
10 5 5 0.69 1.25
-10 5 -5 -1.65 1.28
-10 5 -5 1.2 1.78
10 5 5 -0.09 0.7
10 5 5 -1.1 0.6
-10 5 -5 -0.25 1.2
12 -6 -5 1.07 1.51
12 -6 -5 -0.42 0.79
12 6 -5 0.14 1.66
12 6 -5 1.24 1.15
-12 6 5 1.18 1.26
12 6 -5 1.06 0.91
12 6 -5 -1.89 1.08
-12 6 5 0.17 0.8
-12 6 5 2.02 1.37
12 6 -5 -1.43 1.44
12 6 -5 0.86 1.31
11 -6 -5 0.51 0.74
11 -6 -5 3.44 1.08
11 -6 -5 0.52 0.92
11 -6 -5 2.19 1.1
11 -6 -5 2.36 1.2
11 6 -5 4.05 1.08
11 6 -5 1.93 0.73
11 6 -5 1.11 1.1
11 6 -5 3.17 0.92
-11 6 5 3.25 1.19
-11 6 5 1.84 1.01
11 6 -5 1.31 0.85
11 6 -5 1.8 0.94
-11 6 5 1.7 0.74
-11 6 5 1.23 1
10 -6 -5 0.3 0.82
10 -6 -5 1.72 0.95
10 -6 -5 1.85 0.85
10 -6 -5 2 0.88
10 -6 -5 1.2 0.64
10 6 -5 1.83 0.88
-10 6 5 1.66 0.62
10 6 -5 2.27 0.7
-10 6 5 -0.67 0.74
-10 6 5 0.95 0.83
10 6 -5 2.36 0.7
-10 6 5 2.94 0.97
10 6 -5 2.26 0.84
10 6 -5 2.04 0.55
10 6 -5 0.71 0.71
9 -6 -5 -0.02 0.76
9 -6 -5 -0.03 0.61
9 -6 -5 -0.31 0.69
9 -6 -5 -0.12 0.43
9 6 -5 0.19 0.54
9 6 -5 1.3 0.66
-9 6 5 -0.53 0.61
-9 6 5 0.97 0.7
9 6 -5 -0.87 0.51
9 6 -5 -0.12 0.58
9 6 -5 -0.85 0.7
-9 6 5 -0.37 0.64
9 6 -5 0.65 0.42
8 -6 -5 1.12 0.67
8 -6 -5 -0.14 0.42
8 -6 -5 0.13 0.6
8 6 -5 1.01 0.35
8 6 -5 1.2 0.45
-8 6 5 0.67 0.43
-8 6 5 0.76 0.58
8 6 -5 1.07 0.55
8 6 -5 1.22 0.61
-8 6 5 0.27 0.52
8 6 -5 0.77 0.5
8 6 -5 1.38 0.44
-8 6 5 0.62 0.65
-7 -6 5 0.99 0.51
7 -6 -5 2.41 0.52
7 -6 -5 2.61 0.61
7 -6 -5 0.7 0.55
7 6 -5 1.22 0.41
-7 6 5 2.12 0.53
-7 6 5 1.46 0.64
7 6 -5 1.54 0.31
7 6 -5 1.84 0.39
-7 6 5 1.56 0.52
7 6 -5 1.38 0.51
7 6 -5 1.8 0.37
6 -6 -5 4.05 0.55
-6 -6 5 2.95 0.35
6 -6 -5 3.92 0.74
-6 -6 5 3.28 0.48
-6 -6 5 3.74 0.39
6 -6 -5 3.52 0.51
6 -6 -5 3.18 0.44
6 6 -5 3.7 0.37
6 6 -5 4.27 0.46
6 6 -5 3.19 0.28
-6 6 5 3.07 0.48
-6 6 5 3.27 0.67
6 6 -5 4.11 0.53
-6 6 5 5.3 0.68
-6 6 5 3.37 0.5
6 6 -5 3.74 0.51
6 6 -5 3.83 0.34
6 6 -5 2.99 0.35
5 -6 -5 1.95 0.42
5 -6 -5 3.34 0.65
-5 -6 5 2.47 0.46
-5 -6 5 1.77 0.36
-5 -6 5 2.45 0.41
5 -6 -5 2.47 0.36
5 -6 -5 2.25 0.46
5 6 -5 2.67 0.42
5 6 -5 2.62 0.29
-5 6 5 1.74 0.53
-5 6 5 1.67 0.38
5 6 -5 2.71 0.44
5 6 -5 2.4 0.23
5 6 -5 2.36 0.25
-5 6 5 2.14 0.45
5 6 -5 2.24 0.31
-5 6 5 2.03 0.41
4 -6 -5 0.96 0.34
-4 -6 5 1.47 0.28
-4 -6 5 1.54 0.3
-4 -6 5 1.67 0.38
4 -6 -5 1.71 0.47
4 -6 -5 1.24 0.29
-4 -6 5 1.42 0.18
4 -6 -5 0.96 0.36
-4 -6 5 1.47 0.4
4 6 -5 1.56 0.17
-4 6 5 2.01 0.48
4 6 -5 2.07 0.32
4 6 -5 1.7 0.45
4 6 -5 1.56 0.2
-4 6 5 1.66 0.3
-4 6 5 1.23 0.34
4 6 -5 1.69 0.37
-3 -6 5 2.82 0.46
3 -6 -5 2.84 0.36
-3 -6 5 2.68 0.35
-3 -6 5 2.83 0.32
-3 -6 5 3.13 0.41
3 -6 -5 2.56 0.45
3 -6 -5 2.86 0.28
-3 -6 5 2.75 0.21
3 -6 -5 2.82 0.55
-3 6 5 2.37 0.32
-3 6 5 2.49 0.47
-3 6 5 2.04 0.27
3 6 -5 3.01 0.5
3 6 -5 2.47 0.34
3 6 -5 2.22 0.34
-3 6 5 1.71 0.45
-2 -6 5 10.03 0.47
-2 -6 5 8.24 0.73
2 -6 -5 8.86 0.8
2 -6 -5 9.63 0.74
-2 -6 5 9.66 0.61
2 -6 -5 10.04 0.55
2 -6 -5 9.37 0.42
-2 -6 5 9.31 0.41
-2 -6 5 9.62 0.59
-2 6 5 9.37 0.79
2 6 -5 9.83 0.55
-2 6 5 10.16 0.52
2 6 -5 10.1 0.6
2 6 -5 9.68 0.82
-2 6 5 8.65 0.68
1 -6 -5 9.05 0.43
1 -6 -5 9.25 0.36
-1 -6 5 9.49 0.63
-1 -6 5 9.73 0.76
1 -6 -5 10.27 0.56
1 -6 -5 11.18 0.81
-1 -6 5 10.19 0.49
1 -6 -5 9.45 0.71
1 6 -5 9.42 0.62
-1 6 5 10.04 0.8
-1 6 5 9.7 0.51
-1 6 5 8.04 0.64
1 6 -5 9.06 0.87
1 6 -5 9.66 0.52
0 -6 -5 3.75 0.34
0 -6 -5 4.72 0.39
0 -6 5 4.94 0.67
0 -6 -5 4.95 0.59
0 -6 -5 4.36 0.21
0 -6 5 4.89 0.53
0 -6 5 4.77 0.45
0 -6 -5 5.05 0.62
0 6 5 4.6 0.42
0 6 -5 3.91 0.48
0 6 5 4.48 0.54
0 6 5 3.11 0.44
0 6 -5 5.37 0.74
-1 -6 -5 2.44 0.32
1 -6 5 2.05 0.49
1 -6 5 1.94 0.35
-1 -6 -5 1.84 0.43
1 -6 5 2.9 0.32
-1 -6 -5 2.95 0.5
1 -6 5 2.11 0.16
-1 -6 -5 2.55 0.32
-1 6 -5 2.6 0.43
1 6 5 2.68 0.47
1 6 5 2.35 0.44
-1 6 -5 3.06 0.66
1 6 5 2.15 0.27
-2 -6 -5 0.36 0.3
-2 -6 -5 -0.01 0.28
2 -6 5 -0.07 0.25
2 -6 5 0.17 0.27
2 -6 5 0.22 0.17
-2 -6 -5 -0.35 0.3
2 -6 5 -0.21 0.36
2 6 5 -0.02 0.31
-2 6 -5 0.22 0.51
-2 6 -5 -0.19 0.3
2 6 5 -0.03 0.25
2 6 5 0.1 0.2
2 6 5 -0.13 0.31
3 -6 5 26.32 1.48
-3 -6 -5 25.31 1.17
3 -6 5 27.11 0.87
-3 -6 -5 27.33 0.93
3 -6 5 26.66 0.77
-3 -6 -5 26.46 1.23
-3 -6 -5 26.95 0.99
3 -6 5 26.49 1.22
-3 6 -5 25.7 1.17
-3 6 -5 26.86 1.55
3 6 5 25.81 1.15
3 6 5 26.2 0.86
3 6 5 26.16 0.88
3 6 5 25.8 1.18
-4 -6 -5 1.19 0.41
4 -6 5 0.68 0.31
-4 -6 -5 0.45 0.58
4 -6 5 0.26 0.51
4 -6 5 1.46 0.46
-4 -6 -5 1.28 0.43
-4 6 -5 1.19 0.43
4 6 5 0.64 0.34
-4 6 -5 0.62 0.7
4 6 5 1.27 0.44
4 6 5 1.06 0.33
5 -6 5 34.97 1.75
5 -6 5 37.12 1.12
5 -6 5 36.57 1.86
-5 -6 -5 36.91 1.68
-5 -6 -5 36.82 1.2
-5 6 -5 35.63 1.47
5 6 5 36.56 1.45
-5 6 -5 36.55 1.99
5 6 5 33.97 1.38
5 6 5 35.07 1.17
-6 -6 -5 2.83 0.85
-6 -6 -5 2.2 0.6
6 -6 5 3.15 0.54
6 -6 5 3.23 0.84
6 -6 5 3.27 0.7
-6 -6 -5 2.81 0.62
6 6 5 2.07 0.54
-6 6 -5 1.71 0.3
-6 6 -5 2.34 0.91
-6 6 -5 2.64 0.64
6 6 5 2.9 0.58
6 6 5 2.97 0.69
-7 -6 -5 0.77 0.66
7 -6 5 0 0.82
7 -6 5 0.83 0.62
7 -6 5 0.19 0.52
-7 -6 -5 0.55 0.75
-7 6 -5 0.53 0.54
7 6 5 1.6 0.66
7 6 5 -0.31 0.59
7 6 5 -0.09 0.48
-7 6 -5 -0.25 1.07
-7 6 -5 1.46 0.72
-7 6 -5 -0.2 0.25
7 6 5 0.62 0.5
8 -6 5 -0.82 0.79
8 -6 5 0.81 0.66
-8 -6 -5 -0.3 0.77
8 -6 5 0.29 0.98
-8 -6 -5 -0.18 0.7
8 6 5 -1.5 0.76
8 6 5 0.07 0.5
8 6 5 0.76 0.58
-8 6 -5 -0.42 1.26
8 6 5 0.66 0.51
-8 6 -5 0.36 0.9
-8 6 -5 0.88 0.62
9 -6 5 0.48 1.02
9 -6 5 1.42 1.09
9 -6 5 2.15 0.89
-9 -6 -5 -0.24 1.15
-9 -6 -5 -1.78 1.09
-9 -6 -5 0.75 0.85
-9 6 -5 -0.01 1.1
9 6 5 0.08 0.96
9 6 5 -0.32 0.62
9 6 5 -0.35 0.95
-9 6 -5 -0.01 0.86
9 6 5 0.44 0.59
9 6 5 -0.56 0.59
-9 6 -5 -0.31 1.51
-10 -6 -5 0.17 1.01
10 -6 5 2.09 1.4
10 -6 5 -0.46 1.31
-10 -6 -5 0.11 1.36
10 -6 5 -1.02 0.96
-10 6 -5 -0.71 1.36
-10 6 -5 0.3 1.98
10 6 5 0.87 0.79
10 6 5 -0.59 0.74
10 6 5 1.54 1.29
11 -7 -5 2.17 1.12
11 -7 -5 -3.16 1.32
11 -7 -5 -0.01 0.78
11 -7 -5 1.06 1.27
11 7 -5 0 0.88
11 7 -5 1.38 0.7
11 7 -5 -0.35 0.92
11 7 -5 1.48 1.11
-11 7 5 -1.22 0.8
-11 7 5 -0.84 1.17
11 7 -5 -1.3 0.93
11 7 -5 -1.67 1.14
-11 7 5 -0.22 1.17
-11 7 5 -2.04 1.03
10 -7 -5 0.69 0.96
10 -7 -5 -1.25 0.97
10 -7 -5 0.28 0.92
10 -7 -5 -1.01 0.64
10 7 -5 1.3 0.74
-10 7 5 0.18 0.62
10 7 -5 0.81 0.93
10 7 -5 -0.81 0.74
-10 7 5 1.89 0.98
-10 7 5 0.21 0.89
10 7 -5 -1.07 0.85
-10 7 5 0.29 0.85
10 7 -5 0.78 0.54
10 7 -5 0.42 0.73
9 -7 -5 0.41 0.57
9 -7 -5 -0.5 0.85
9 -7 -5 -0.08 0.74
9 -7 -5 0.7 0.73
-9 7 5 0.5 0.62
9 7 -5 0.7 0.74
-9 7 5 0.75 0.75
9 7 -5 -0.27 0.41
9 7 -5 0.68 0.55
-9 7 5 0.19 0.72
9 7 -5 0.95 0.79
-9 7 5 -1.28 0.74
9 7 -5 0.35 0.61
9 7 -5 0.96 0.57
8 -7 -5 1.16 0.72
8 -7 -5 0.37 0.49
8 -7 -5 -0.29 0.66
-8 7 5 -0.49 0.61
8 7 -5 -0.78 0.59
-8 7 5 -0.65 0.58
8 7 -5 0.2 0.42
-8 7 5 0.04 0.72
8 7 -5 -0.02 0.42
8 7 -5 0.44 0.51
8 7 -5 0.16 0.65
8 7 -5 -0.02 0.32
7 -7 -5 -0.21 0.42
7 -7 -5 -0.19 0.53
7 -7 -5 0.08 0.46
7 -7 -5 -0.18 0.59
-7 -7 5 -0.49 0.48
7 7 -5 0.24 0.53
7 7 -5 0.03 0.21
-7 7 5 0.14 0.54
7 7 -5 0.34 0.3
-7 7 5 0.34 0.41
-7 7 5 -0.65 0.53
7 7 -5 -0.19 0.33
7 7 -5 -0.08 0.42
-7 7 5 -0.26 0.62
7 7 -5 0.32 0.26
7 7 -5 -0.05 0.33
-6 -7 5 12.19 0.61
6 -7 -5 12.27 0.82
6 -7 -5 13.49 0.97
6 -7 -5 12.95 1.18
-6 -7 5 12.26 0.76
6 -7 -5 10.59 0.94
-6 -7 5 11.74 0.86
6 7 -5 13.35 0.47
-6 7 5 12.82 0.91
-6 7 5 11.84 1.23
-6 7 5 10.87 0.83
6 7 -5 12.49 0.81
6 7 -5 14.61 0.68
6 7 -5 12.63 0.57
-6 7 5 12.61 1.22
5 -7 -5 5.21 0.82
-5 -7 5 4.7 0.52
-5 -7 5 4.79 0.45
5 -7 -5 4.51 0.46
5 -7 -5 3.32 0.5
5 -7 -5 4 0.61
-5 -7 5 3.62 0.53
-5 7 5 3.69 0.45
5 7 -5 3.57 0.29
5 7 -5 4.46 0.58
5 7 -5 3.69 0.42
-5 7 5 3.66 0.68
5 7 -5 2.98 0.46
-5 7 5 4.94 0.66
4 -7 -5 2.22 0.6
4 -7 -5 2.16 0.34
-4 -7 5 2.64 0.48
-4 -7 5 2.46 0.38
4 -7 -5 2.4 0.43
4 -7 -5 2.56 0.47
-4 -7 5 2.61 0.39
-4 -7 5 2.56 0.47
-4 7 5 1.77 0.33
4 7 -5 2.41 0.43
-4 7 5 2.82 0.52
4 7 -5 2.17 0.54
4 7 -5 2.29 0.37
-4 7 5 2.33 0.63
3 -7 -5 -0.12 0.4
-3 -7 5 -0.2 0.15
3 -7 -5 0.02 0.29
-3 -7 5 0.02 0.26
3 -7 -5 0.29 0.23
-3 -7 5 -0.06 0.33
-3 -7 5 0.19 0.24
-3 -7 5 0.04 0.36
3 -7 -5 0.32 0.32
-3 7 5 0.43 0.32
-3 7 5 0.14 0.24
3 7 -5 -0.33 0.39
-3 7 5 -0.26 0.25
3 7 -5 0.47 0.33
3 7 -5 0.03 0.23
-3 7 5 0.12 0.43
-2 -7 5 0.89 0.25
-2 -7 5 1.63 0.35
-2 -7 5 1.58 0.44
2 -7 -5 1.25 0.39
-2 -7 5 1.17 0.22
-2 -7 5 0.97 0.34
2 -7 -5 1.03 0.22
2 -7 -5 1.03 0.32
2 -7 -5 1.2 0.4
-2 7 5 1.18 0.32
-2 7 5 1.21 0.29
2 7 -5 1.11 0.3
2 7 -5 1.4 0.5
2 7 -5 0.61 0.34
-2 7 5 0.87 0.45
-1 -7 5 10.02 0.61
1 -7 -5 9.5 0.58
1 -7 -5 9.74 0.48
-1 -7 5 8.81 0.82
-1 -7 5 10.74 0.71
1 -7 -5 9.45 0.38
1 -7 -5 10.76 0.77
1 -7 -5 8.93 0.84
-1 -7 5 9.34 0.5
1 7 -5 8.69 0.94
-1 7 5 10.46 0.77
-1 7 5 10.05 0.91
1 7 -5 8.69 0.66
-1 7 5 8.93 0.52
1 7 -5 9.56 0.59
0 -7 5 1.31 0.33
0 -7 5 1.26 0.38
0 -7 -5 1.8 0.45
0 -7 -5 1.28 0.27
0 -7 -5 1.74 0.32
0 -7 -5 1.47 0.52
0 -7 5 1.44 0.47
0 7 -5 1.57 0.39
0 7 -5 1.14 0.48
0 7 5 1.44 0.28
0 7 5 1.7 0.46
0 7 5 1.35 0.31
-1 -7 -5 0.52 0.31
-1 -7 -5 0.36 0.27
1 -7 5 0.67 0.51
1 -7 5 0.09 0.3
1 -7 5 0.3 0.13
1 -7 5 0.38 0.28
-1 -7 -5 -0.19 0.4
-1 -7 -5 0.48 0.36
1 7 5 0.71 0.3
1 7 5 0.08 0.33
1 7 5 0.09 0.25
-1 7 -5 0.46 0.31
-1 7 -5 0.61 0.56
2 -7 5 0.08 0.3
-2 -7 -5 0.21 0.33
2 -7 5 0.46 0.45
-2 -7 -5 0.36 0.38
-2 -7 -5 0.18 0.35
2 -7 5 -0.14 0.35
2 -7 5 0.24 0.19
-2 -7 -5 0.03 0.32
2 7 5 0.3 0.23
2 7 5 0.06 0.26
-2 7 -5 0.42 0.56
2 7 5 0.44 0.34
2 7 5 -0.03 0.41
-2 7 -5 -0.44 0.26
-3 -7 -5 3.37 0.6
3 -7 5 3.44 0.65
-3 -7 -5 3.36 0.43
3 -7 5 3.04 0.32
-3 -7 -5 2.6 0.5
3 -7 5 1.57 0.56
3 -7 5 3.61 0.39
-3 -7 -5 3.35 0.5
3 7 5 2.54 0.51
3 7 5 3.1 0.54
-3 7 -5 3.46 0.55
-3 7 -5 3.97 0.87
3 7 5 2.81 0.37
3 7 5 3.31 0.39
-4 -7 -5 5.49 1.12
-4 -7 -5 5.41 0.55
4 -7 5 7.1 0.61
4 -7 5 6.56 0.9
4 -7 5 6.29 0.45
-4 -7 -5 6.85 0.65
4 -7 5 6.06 0.83
-4 7 -5 6.11 0.89
-4 7 -5 6.83 1.03
4 7 5 6.63 0.73
4 7 5 7.22 0.64
4 7 5 6.62 0.63
4 7 5 6.44 0.81
5 -7 5 4.45 0.76
5 -7 5 3.06 0.44
-5 -7 -5 3.79 0.84
-5 -7 -5 2.54 0.64
5 -7 5 3.66 0.91
5 -7 5 3.01 0.47
5 7 5 2.78 0.51
-5 7 -5 3.2 0.62
5 7 5 3.6 0.47
5 7 5 2.85 0.5
-5 7 -5 3.61 1.09
6 -7 5 1.32 0.85
-6 -7 -5 0.88 0.79
-6 -7 -5 2.1 0.66
6 -7 5 0.79 0.6
6 -7 5 0.8 0.51
-6 7 -5 0.02 0.36
6 7 5 1.39 0.49
6 7 5 0.73 0.79
-6 7 -5 0.65 0.96
6 7 5 0.84 0.5
6 7 5 0.69 0.54
-6 7 -5 0.68 0.61
-7 -7 -5 -0.17 0.9
-7 -7 -5 0.42 0.7
7 -7 5 1.31 0.56
7 -7 5 0.21 0.66
-7 -7 -5 0.32 0.77
7 -7 5 0.81 0.9
7 7 5 1.1 0.55
-7 7 -5 -0.34 0.35
-7 7 -5 0.95 1.18
7 7 5 0.15 0.6
-7 7 -5 0.42 0.78
-7 7 -5 -0.57 0.57
7 7 5 0.27 0.65
7 7 5 -0.4 0.52
-8 -7 -5 -0.25 1
8 -7 5 -1 1.11
8 -7 5 -1.35 0.85
8 -7 5 0.71 0.82
-8 -7 -5 -0.82 0.73
-8 -7 -5 0.96 0.95
8 7 5 0.54 0.62
8 7 5 0.07 0.76
-8 7 -5 2.05 0.93
-8 7 -5 1.6 0.75
8 7 5 -1.03 0.8
-8 7 -5 0.18 0.34
8 7 5 -0.84 0.58
-8 7 -5 1.09 1.41
9 -7 5 -2.51 1.17
9 -7 5 -0.24 1.15
-9 -7 -5 2.45 1.24
-9 -7 -5 -1.89 0.95
-9 -7 -5 -0.81 1.2
9 -7 5 -0.73 0.86
9 7 5 1.14 0.67
9 7 5 -0.01 0.68
-9 7 -5 1.69 1.77
-9 7 -5 1.65 1.3
-9 7 -5 0 1.09
9 7 5 -1.89 1.11
9 7 5 -1.47 0.98
9 7 5 -1.55 0.71
11 -8 -5 -2 1.28
11 -8 -5 -1.21 0.91
11 -8 -5 -2.95 1.41
11 8 -5 -0.36 1
11 8 -5 -1.01 1.04
-11 8 5 -1.06 1.31
-11 8 5 1.37 1.35
-11 8 5 2.3 1.24
11 8 -5 -0.22 1.04
11 8 -5 0.06 1.27
-11 8 5 -1.04 0.91
11 8 -5 -0.09 0.65
10 -8 -5 0.7 0.76
10 -8 -5 0.95 1.03
10 -8 -5 0.93 1.08
10 -8 -5 0 1.14
10 8 -5 0.29 0.76
10 8 -5 -2.41 0.96
10 8 -5 -0.56 0.78
-10 8 5 -0.7 1.06
10 8 -5 -0.04 0.49
10 8 -5 -0.61 1.01
10 8 -5 -1.23 0.76
-10 8 5 0.25 1.06
-10 8 5 -0.33 0.7
-10 8 5 0.51 1.02
9 -8 -5 0.04 0.92
9 -8 -5 1.58 0.97
9 -8 -5 1.18 0.78
-9 8 5 2.56 0.79
9 8 -5 2.53 0.89
-9 8 5 1.75 0.89
-9 8 5 0.28 1.02
9 8 -5 2.85 0.71
9 8 -5 2.35 0.62
9 8 -5 2.36 0.37
-9 8 5 1.78 0.83
9 8 -5 2.52 0.66
9 8 -5 2.2 0.86
8 -8 -5 -1.31 0.67
8 -8 -5 -0.71 0.74
8 -8 -5 -0.66 0.52
-8 -8 5 -1.88 0.71
-8 8 5 1.41 0.86
8 8 -5 -0.18 0.46
8 8 -5 -0.3 0.7
-8 8 5 -1.08 0.54
8 8 -5 0.36 0.54
8 8 -5 -0.71 0.64
-8 8 5 -0.11 0.66
8 8 -5 -1.03 0.44
-8 8 5 0.05 0.73
7 -8 -5 5.71 1
-7 -8 5 5.78 0.66
7 -8 -5 4.47 0.69
7 -8 -5 5.19 0.72
-7 -8 5 6.03 0.75
7 -8 -5 4.82 0.72
-7 8 5 4.5 0.67
7 8 -5 5.29 0.58
7 8 -5 5.29 0.59
7 8 -5 7.01 0.66
7 8 -5 5.49 0.46
-7 8 5 6.42 0.76
7 8 -5 5.38 0.71
7 8 -5 4.97 0.51
-7 8 5 4.75 0.94
-6 -8 5 1.71 0.5
6 -8 -5 2.62 0.71
6 -8 -5 2.3 0.51
6 -8 -5 2.34 0.62
6 -8 -5 2.33 0.73
-6 -8 5 2.48 0.55
-6 8 5 3.52 0.84
-6 8 5 1.09 0.56
6 8 -5 1.76 0.35
-6 8 5 2.34 0.55
6 8 -5 2.18 0.51
5 -8 -5 3.19 0.57
5 -8 -5 2.81 0.57
5 -8 -5 1.78 0.57
-5 -8 5 2.38 0.51
5 -8 -5 2.95 0.47
-5 -8 5 2.78 0.42
-5 -8 5 2.34 0.55
5 8 -5 2.66 0.42
-5 8 5 2.14 0.67
-5 8 5 2.45 0.48
5 8 -5 2.04 0.52
5 8 -5 3.27 0.61
-4 -8 5 1.23 0.32
4 -8 -5 0.99 0.44
-4 -8 5 0.55 0.44
-4 -8 5 0.53 0.36
4 -8 -5 0.9 0.6
4 -8 -5 0.89 0.43
-4 -8 5 1.34 0.53
4 -8 -5 0.89 0.35
4 8 -5 1.81 0.47
-4 8 5 1.09 0.16
-4 8 5 1.08 0.59
4 8 -5 1.26 0.38
-4 8 5 0.66 0.34
-4 8 5 0.96 0.41
4 8 -5 2.13 0.56
-3 -8 5 2.05 0.39
-3 -8 5 3.16 0.59
-3 -8 5 3.38 0.5
3 -8 -5 2.72 0.52
3 -8 -5 2.88 0.7
-3 -8 5 3.21 0.42
-3 -8 5 2.69 0.19
3 -8 -5 2.94 0.43
3 8 -5 3.19 0.5
3 8 -5 2.14 0.43
3 8 -5 2.93 0.63
-3 8 5 3.11 0.71
-3 8 5 4.49 0.67
-3 8 5 3.01 0.36
2 -8 -5 4.5 0.67
2 -8 -5 4.47 0.41
2 -8 -5 4.18 0.43
-2 -8 5 6.45 0.84
-2 -8 5 4.99 0.44
-2 -8 5 4.56 0.53
-2 -8 5 5.4 0.59
2 -8 -5 5.04 0.7
-2 -8 5 4.45 0.4
-2 8 5 4.49 0.63
-2 8 5 3.89 0.63
2 8 -5 4.77 0.74
2 8 -5 4.33 0.45
-2 8 5 3.85 0.4
2 8 -5 4.05 0.56
-1 -8 5 -0.06 0.27
1 -8 -5 0.21 0.25
-1 -8 5 -0.22 0.25
-1 -8 5 0.39 0.45
1 -8 -5 0.16 0.34
1 -8 -5 0.34 0.42
1 -8 -5 0.28 0.31
-1 -8 5 0.63 0.37
-1 8 5 0.35 0.29
1 8 -5 -0.07 0.32
-1 8 5 0.29 0.42
1 8 -5 0.59 0.61
-1 8 5 0.18 0.34
1 8 -5 0.15 0.3
0 -8 5 4.65 0.47
0 -8 -5 4.66 0.43
0 -8 -5 4.25 0.58
0 -8 5 5.24 0.66
0 -8 5 7.68 0.98
0 -8 -5 5.14 0.76
0 -8 -5 4.94 0.5
0 8 -5 4.07 0.71
0 8 5 5.2 0.67
0 8 5 5.22 0.39
0 8 5 3.86 0.61
0 8 -5 5.31 0.66
1 -8 5 22.76 0.57
-1 -8 -5 25.91 1.29
-1 -8 -5 24.46 0.88
1 -8 5 24.2 1.19
-1 -8 -5 24.88 0.9
1 -8 5 24.1 0.9
1 -8 5 22.62 1.44
-1 -8 -5 21.52 1.32
1 8 5 23.73 0.79
1 8 5 26.46 1.31
1 8 5 25.85 1.24
-1 8 -5 23.42 1.54
-1 8 -5 26.04 1.19
-2 -8 -5 0.83 0.37
-2 -8 -5 1.61 0.52
2 -8 5 1.16 0.22
2 -8 5 1.14 0.44
2 -8 5 1.17 0.36
2 -8 5 0.83 0.58
-2 -8 -5 1.35 0.4
-2 -8 -5 1.23 0.55
2 8 5 1.39 0.31
2 8 5 0.99 0.34
2 8 5 1.31 0.48
-2 8 -5 0.58 0.7
-2 8 -5 0.91 0.42
-3 -8 -5 3.27 0.82
3 -8 5 2.97 0.61
-3 -8 -5 2.43 0.58
-3 -8 -5 2.62 0.5
3 -8 5 2.18 0.4
3 -8 5 2.56 0.31
-3 -8 -5 2.31 0.48
3 -8 5 2.96 0.76
3 8 5 1.88 0.54
3 8 5 2.34 0.35
-3 8 -5 1.56 0.53
3 8 5 2.04 0.36
3 8 5 3.14 0.66
-3 8 -5 3.03 0.92
-4 -8 -5 3.46 0.64
4 -8 5 3.67 0.45
-4 -8 -5 3.6 0.67
-4 -8 -5 3.49 0.56
4 -8 5 3.94 0.42
-4 -8 -5 3.86 0.69
4 -8 5 2.11 0.57
4 -8 5 3.48 0.82
-4 8 -5 4.45 1.05
4 8 5 2.45 0.95
4 8 5 2.5 0.53
4 8 5 3.1 0.45
4 8 5 3.39 0.43
-4 8 -5 2.62 0.55
5 -8 5 0.68 0.45
5 -8 5 0.96 0.43
-5 -8 -5 0.1 0.82
5 -8 5 0.32 0.54
5 -8 5 0.67 0.81
-5 -8 -5 1.53 0.59
5 8 5 1.15 0.51
-5 8 -5 1.68 0.63
5 8 5 0.27 0.42
-5 8 -5 1.44 1.01
-5 8 -5 0.39 0.54
5 8 5 1.11 0.63
6 -8 5 0.61 0.45
-6 -8 -5 0.83 0.66
6 -8 5 1 1.05
6 -8 5 1.69 0.59
6 -8 5 1.02 0.51
-6 -8 -5 0.08 0.82
-6 -8 -5 0.49 0.7
6 8 5 0.78 0.52
-6 8 -5 1.69 0.66
-6 8 -5 0.62 0.66
6 8 5 0.18 0.56
6 8 5 1.74 0.52
6 8 5 0.51 0.58
-6 8 -5 1.23 1.13
7 -8 5 1.98 1.19
-7 -8 -5 0.34 0.84
-7 -8 -5 -0.24 1
7 -8 5 0.41 0.53
7 -8 5 0.6 0.68
-7 -8 -5 1.14 0.83
7 8 5 1.08 0.63
-7 8 -5 -0.02 0.48
-7 8 -5 0.32 0.57
-7 8 -5 1.01 0.87
7 8 5 -0.22 0.69
-7 8 -5 0.06 1.36
7 8 5 0.85 0.65
7 8 5 0.86 0.64
-8 -8 -5 0.24 1.22
8 -8 5 1.23 0.8
-8 -8 -5 0.5 1.03
8 -8 5 0.58 0.61
8 -8 5 2.33 1.44
8 -8 5 -1.43 0.9
8 8 5 1.72 0.74
-8 8 -5 1.43 1.79
-8 8 -5 1.19 1.09
8 8 5 -1.24 0.83
-8 8 -5 -0.1 0.49
8 8 5 -0.69 0.79
-8 8 -5 -1 0.79
8 8 5 0.47 0.65
-9 -8 -5 -1.64 1.03
9 -8 5 0.03 0.72
9 -8 5 -1.27 1.21
9 -8 5 -1.9 1.49
9 -8 5 -1.75 1.02
-9 -8 -5 -0.62 1.34
9 8 5 1.23 1.03
9 8 5 1.33 0.76
-9 8 -5 2.24 1.99
-9 8 -5 0.19 1.4
9 8 5 0.16 0.88
9 8 5 -0.74 0.78
10 -9 -5 -0.28 1.27
10 -9 -5 2.77 1.25
10 -9 -5 0.46 1.32
10 -9 -5 1.46 0.91
-10 9 5 3.29 0.98
-10 9 5 1.53 1.14
10 9 -5 -0.17 0.9
-10 9 5 0.84 1.12
10 9 -5 3.92 1.27
10 9 -5 1.84 1.29
-10 9 5 -0.6 1.29
10 9 -5 0.9 0.85
9 -9 -5 -0.57 1
9 -9 -5 0.77 1.09
9 -9 -5 -0.59 0.69
9 9 -5 -0.63 0.91
-9 9 5 -1.38 1.13
9 9 -5 -0.34 0.91
9 9 -5 -0.12 0.71
-9 9 5 0.36 0.9
-9 9 5 -0.26 0.88
9 9 -5 1.33 0.66
-9 9 5 -0.17 0.91
8 -9 -5 0.01 0.83
8 -9 -5 0.06 0.62
-8 -9 5 -0.39 0.8
8 -9 -5 -0.26 0.89
8 9 -5 -0.54 0.74
-8 9 5 1.2 0.68
-8 9 5 0.33 0.76
8 9 -5 0.34 0.32
-8 9 5 -0.95 0.74
8 9 -5 0.69 0.5
-8 9 5 0.43 1.04
8 9 -5 -0.71 0.81
8 9 -5 0.08 0.6
-7 -9 5 0.21 0.68
-7 -9 5 1.11 0.5
7 -9 -5 1.02 0.74
7 -9 -5 -0.26 0.57
7 -9 -5 0.18 0.73
-7 -9 5 -0.06 0.35
7 9 -5 0.34 0.51
-7 9 5 0.63 0.68
7 9 -5 0.45 0.52
-7 9 5 -0.03 0.89
-7 9 5 0.46 0.69
-7 9 5 0.79 0.62
7 9 -5 0.55 0.36
6 -9 -5 1.42 0.6
6 -9 -5 2.2 0.67
-6 -9 5 3.06 0.65
6 -9 -5 2.48 0.84
-6 -9 5 2.55 0.6
-6 9 5 2.08 0.57
6 9 -5 1.75 0.42
6 9 -5 2.78 0.61
-6 9 5 2.29 0.88
5 -9 -5 0.43 0.48
-5 -9 5 1.18 0.57
-5 -9 5 1.11 0.39
5 -9 -5 1.32 0.81
-5 -9 5 0.85 0.47
5 -9 -5 1.3 0.59
-5 9 5 1.49 0.49
5 9 -5 1.74 0.61
-5 9 5 0.84 0.75
5 9 -5 0.32 0.49
5 9 -5 1.57 0.42
-4 -9 5 0.95 0.51
4 -9 -5 -0.42 0.5
-4 -9 5 -0.73 0.28
4 -9 -5 0.18 0.47
-4 -9 5 0 0.43
4 -9 -5 0.25 0.45
4 9 -5 -0.53 0.31
-4 9 5 -0.01 0.16
-4 9 5 0.33 0.48
4 9 -5 0.02 0.44
-4 9 5 -0.01 0.37
4 9 -5 0.13 0.57
-4 9 5 -0.68 0.63
-3 -9 5 15.88 0.81
-3 -9 5 14.66 0.92
3 -9 -5 14.3 0.88
-3 -9 5 15.79 1.15
3 -9 -5 14.81 1.1
3 -9 -5 16.45 1.31
-3 -9 5 15.11 0.9
-3 9 5 15.94 1.09
3 9 -5 15.77 1.23
-3 9 5 15.56 0.7
3 9 -5 14.31 0.9
3 9 -5 13.44 0.88
-3 9 5 16.51 1.36
-3 9 5 15.24 0.59
-2 -9 5 0.83 0.25
2 -9 -5 1.71 0.6
2 -9 -5 0.39 0.39
-2 -9 5 1.13 0.57
2 -9 -5 0.78 0.48
-2 -9 5 0.92 0.36
2 -9 -5 0.11 0.28
-2 -9 5 0.14 0.44
-2 -9 5 0.54 0.35
-2 9 5 0.19 0.36
2 9 -5 0.22 0.37
2 9 -5 0.76 0.61
-2 9 5 0.51 0.56
2 9 -5 0.53 0.41
1 -9 -5 8.2 1.09
-1 -9 5 6.98 0.97
-1 -9 5 8.71 0.77
-1 -9 5 8.3 0.63
1 -9 -5 7.77 0.69
1 -9 -5 7.72 0.89
-1 -9 5 7.47 0.58
1 -9 -5 7.14 0.58
1 9 -5 7.65 0.7
1 9 -5 7.83 0.74
-1 9 5 8.52 0.87
1 9 -5 7.75 1.06
-1 9 5 7.64 1.05
-1 9 5 7 0.6
0 -9 5 7.46 1.02
0 -9 -5 7.06 0.53
0 -9 -5 7.48 0.92
0 -9 -5 7.82 1.04
0 -9 5 7.39 0.82
0 -9 -5 8.08 0.64
0 -9 5 7.34 0.71
0 9 5 6.81 0.57
0 9 5 8.12 0.88
0 9 -5 6.99 0.8
0 9 -5 6.9 0.95
0 9 5 6.71 0.91
-1 -9 -5 0.41 0.38
1 -9 5 0.15 0.71
1 -9 5 0.11 0.39
-1 -9 -5 0.1 0.44
1 -9 5 -0.04 0.36
-1 -9 -5 -0.42 0.35
1 9 5 0.29 0.44
-1 9 -5 -0.85 0.36
1 9 5 0.48 0.3
-1 9 -5 0.07 0.72
1 9 5 0.15 0.54
2 -9 5 9.88 0.73
2 -9 5 8.81 0.43
-2 -9 -5 9.97 0.8
2 -9 5 9.11 0.99
-2 -9 -5 9.52 0.99
-2 9 -5 10.37 0.98
2 9 5 9.63 0.98
2 9 5 10.05 1.26
-2 9 -5 10.61 1.3
2 9 5 8.58 0.59
-3 -9 -5 1.47 0.52
3 -9 5 1.67 0.32
3 -9 5 0.58 0.51
-3 -9 -5 1.22 0.53
3 -9 5 1.68 0.84
-3 -9 -5 0.54 0.57
-3 -9 -5 1.68 0.56
3 -9 5 1.65 0.43
3 9 5 1.46 0.66
3 9 5 1.5 0.35
-3 9 -5 2.11 1.01
-3 9 -5 1.63 0.56
3 9 5 1.55 0.47
-4 -9 -5 6.77 0.9
4 -9 5 6.44 0.49
-4 -9 -5 6.68 0.76
4 -9 5 5.36 0.75
4 -9 5 5.4 0.99
-4 -9 -5 6.75 0.7
4 -9 5 8.06 0.73
4 9 5 5.13 0.7
4 9 5 5.95 0.47
-4 9 -5 4.97 0.74
4 9 5 6.65 0.93
-4 9 -5 5.09 1.36
-5 -9 -5 2.04 0.8
-5 -9 -5 0.54 0.63
5 -9 5 1.05 0.48
5 -9 5 0.5 0.92
-5 -9 -5 0.62 0.75
5 -9 5 1.14 0.63
5 -9 5 2.23 0.49
5 9 5 1.61 0.67
5 9 5 0.54 0.43
-5 9 -5 2.98 1.47
5 9 5 1.08 0.52
5 9 5 1.18 0.54
-5 9 -5 0.66 0.71
-5 9 -5 1.51 0.66
6 -9 5 0.16 0.49
6 -9 5 -0.51 0.84
-6 -9 -5 1.58 0.78
6 -9 5 0.71 0.66
6 -9 5 0.09 0.61
-6 -9 -5 0.23 0.99
-6 -9 -5 -1.3 0.76
6 9 5 0.51 0.63
-6 9 -5 0.6 0.66
6 9 5 0.7 0.66
-6 9 -5 0.37 1.15
6 9 5 0.89 0.65
-6 9 -5 -0.2 0.81
6 9 5 0.51 0.52
7 -9 5 0.55 1.15
-7 -9 -5 0.02 0.91
7 -9 5 -0.3 0.58
-7 -9 -5 1.58 1.16
-7 -9 -5 0.73 0.99
7 -9 5 -0.32 0.69
-7 9 -5 -1.46 0.89
7 9 5 0.41 0.74
-7 9 -5 -1.38 0.89
7 9 5 0.24 0.73
-7 9 -5 -0.39 1.42
7 9 5 0.58 0.63
-7 9 -5 0 0.62
7 9 5 -0.37 0.65
-8 -9 -5 -2.54 1.03
8 -9 5 0.17 1.01
-8 -9 -5 0.19 1.19
8 -9 5 0.79 1.33
8 -9 5 0.09 1.03
-8 -9 -5 1.79 1.33
8 -9 5 -0.29 0.66
-8 9 -5 0.32 1.19
-8 9 -5 3.34 1.84
8 9 5 -0.2 0.89
-8 9 -5 0.04 0.64
8 9 5 -0.68 0.84
8 9 5 -0.75 0.77
8 9 5 1.01 0.8
10 -10 -5 -3.03 1.45
10 -10 -5 0.93 1.07
10 -10 -5 4.16 2.54
-10 10 5 -1.72 1.23
10 10 -5 -0.56 0.93
-10 10 5 -1.9 1.52
-10 10 5 1.84 1.32
9 -10 -5 0.43 1.42
-9 -10 5 -1.7 1.15
9 -10 -5 1.9 1.27
9 -10 -5 -0.33 0.87
9 10 -5 -0.36 1.13
-9 10 5 -0.51 1.05
9 10 -5 0.34 0.76
9 10 -5 -0.53 1.13
-9 10 5 -1.27 0.87
-9 10 5 -0.45 1.07
-9 10 5 -1.15 1.31
8 -10 -5 -1.28 0.97
8 -10 -5 -0.96 0.74
8 -10 -5 -0.35 1
-8 -10 5 0.61 0.93
-8 10 5 0.5 0.85
8 10 -5 0.46 0.88
-8 10 5 1.2 0.77
8 10 -5 -0.17 0.39
8 10 -5 -0.39 0.64
-8 10 5 -0.9 1.09
8 10 -5 0.85 0.93
-8 10 5 0.02 0.88
8 10 -5 0.11 0.52
7 -10 -5 0.11 1.05
-7 -10 5 0.06 0.78
7 -10 -5 1.69 0.86
-7 -10 5 0.5 0.55
7 -10 -5 1.37 0.72
-7 -10 5 -0.18 0.6
7 10 -5 1.85 0.79
7 10 -5 0.3 0.39
7 10 -5 1.44 0.56
-7 10 5 0.91 0.74
-7 10 5 2.71 1.18
-7 10 5 2 0.87
-7 10 5 1.17 0.78
6 -10 -5 5.74 0.94
6 -10 -5 6.66 1.15
-6 -10 5 5.69 0.85
-6 -10 5 4.1 0.75
6 -10 -5 5.06 0.82
6 10 -5 4.43 0.91
6 10 -5 5.54 0.72
6 10 -5 5.32 0.77
-6 10 5 6.18 1.17
5 -10 -5 1.38 0.61
-5 -10 5 1.95 0.62
5 -10 -5 1.34 0.75
-5 -10 5 0.34 0.38
-5 -10 5 1.15 0.68
5 10 -5 1 0.74
5 10 -5 1.25 0.46
-5 10 5 1.78 0.57
-5 10 5 1.97 0.99
-4 -10 5 13.3 0.92
4 -10 -5 13.84 1.7
-4 -10 5 12.11 1.23
4 -10 -5 13.14 1.17
-4 -10 5 12.38 0.93
4 -10 -5 12.6 1.03
4 10 -5 8.74 0.86
-4 10 5 14.09 0.84
4 10 -5 12.23 0.93
-4 10 5 14.73 1.28
-4 10 5 13.62 1.51
3 -10 -5 -0.84 0.93
-3 -10 5 -0.14 0.52
3 -10 -5 0.1 0.47
-3 -10 5 0.58 0.38
-3 -10 5 -0.09 0.6
-3 10 5 0.29 0.5
3 10 -5 -0.09 0.51
3 10 -5 -0.56 0.41
-3 10 5 0.19 0.36
-3 10 5 0.01 0.29
-3 10 5 1.21 0.74
2 -10 -5 0.96 0.38
-2 -10 5 1.59 0.51
2 -10 -5 0.64 0.56
-2 -10 5 1.04 0.42
2 -10 -5 1.52 0.48
-2 -10 5 0.44 0.51
2 -10 -5 1.06 0.73
-2 -10 5 1.48 0.27
-2 -10 5 0.74 0.57
2 10 -5 1.26 0.45
2 10 -5 1.36 0.5
-2 10 5 1.04 0.36
-2 10 5 1.13 0.71
1 -10 -5 0.55 0.55
-1 -10 5 1.24 0.41
-1 -10 5 0.94 0.49
-1 -10 5 0.88 0.36
1 -10 -5 0.23 0.37
1 -10 -5 0.33 0.44
1 -10 -5 -0.11 0.6
-1 -10 5 1.1 0.51
-1 10 5 0.09 0.66
1 10 -5 0.27 0.44
-1 10 5 1.07 0.48
1 10 -5 0.41 0.45
0 -10 -5 -0.01 0.4
0 -10 5 -0.33 0.32
0 -10 5 0.8 0.48
0 -10 -5 0.01 0.56
0 -10 -5 0.55 0.42
0 -10 -5 0.43 0.53
0 10 -5 0.23 0.45
0 10 5 0.08 0.5
0 10 5 0.26 0.35
0 10 -5 1.28 0.95
1 -10 5 15.58 1.16
1 -10 5 15.17 1.5
-1 -10 -5 15.23 0.86
-1 -10 -5 15 0.92
1 -10 5 15.54 0.91
-1 -10 -5 17.31 1.31
-1 10 -5 15.24 1.66
1 10 5 15.74 1.3
-1 10 -5 15.34 1.15
1 10 5 14.71 0.73
1 10 5 16.93 1.22
2 -10 5 0.8 0.46
2 -10 5 0.5 0.23
-2 -10 -5 0.32 0.64
2 -10 5 0.67 0.48
2 -10 5 1.12 0.76
-2 -10 -5 0.94 0.56
2 10 5 0.36 0.33
2 10 5 0.19 0.61
-2 10 -5 0.95 0.54
2 10 5 0.82 0.52
-2 10 -5 1.01 0.99
-3 -10 -5 16.77 1.29
-3 -10 -5 10.01 1.32
-3 -10 -5 14.38 1.09
3 -10 5 13.41 0.91
3 -10 5 14.31 1.28
3 -10 5 13.58 1.64
3 10 5 14.12 0.73
-3 10 -5 14.23 1.25
3 10 5 14.59 1.16
-3 10 -5 15.07 1.93
3 10 5 14.71 1.32
-4 -10 -5 2.05 0.65
-4 -10 -5 1.82 0.81
4 -10 5 1.99 0.9
4 -10 5 0.46 0.67
-4 -10 -5 2.3 0.71
4 -10 5 1.5 0.51
4 -10 5 1.12 0.44
-4 -10 -5 0.36 0.68
4 10 5 1.2 0.71
-4 10 -5 1.57 0.7
4 10 5 1.98 0.7
-4 10 -5 0.09 0.62
4 10 5 1.65 0.4
-4 10 -5 1.92 1.2
5 -10 5 1.69 0.84
5 -10 5 1.57 0.53
-5 -10 -5 0.54 0.82
-5 -10 -5 -0.04 0.64
-5 -10 -5 1.09 0.87
-5 -10 -5 1.06 0.75
5 -10 5 1.15 0.55
5 -10 5 1.68 1.02
-5 10 -5 2.39 0.77
5 10 5 0.79 0.7
5 10 5 1.76 0.56
5 10 5 1.55 0.7
5 10 5 0.67 0.43
-5 10 -5 0.34 0.71
-5 10 -5 0.12 1.4
6 -10 5 0.55 0.74
6 -10 5 -0.14 0.81
-6 -10 -5 0.14 0.92
6 -10 5 0.59 0.57
-6 -10 -5 1.03 0.86
6 -10 5 1.21 1.26
-6 -10 -5 -1.6 1.09
6 10 5 0.69 0.51
6 10 5 -0.35 0.8
-6 10 -5 2.28 0.87
6 10 5 2.22 0.74
-6 10 -5 -1.56 1.45
-6 10 -5 0.06 0.94
6 10 5 0.9 0.68
7 -10 5 -0.57 0.6
7 -10 5 1.59 1.61
-7 -10 -5 -2.64 1.01
7 -10 5 -0.05 0.98
-7 -10 -5 0.59 1.29
-7 -10 -5 -0.15 1.11
-7 10 -5 0.69 0.74
-7 10 -5 -1.57 1.73
-7 10 -5 2.61 1.01
7 10 5 -0.09 0.77
7 10 5 0.3 0.6
7 10 5 -0.33 0.84
-7 10 -5 -0.71 1.13
8 -10 5 3.71 1.26
8 -10 5 2.54 1.59
8 -10 5 2.19 1.21
-8 -10 -5 4 1.39
8 -10 5 2.11 0.69
-8 -10 -5 2.06 1.24
-8 10 -5 -0.48 0.83
8 10 5 2.18 0.81
-8 10 -5 1.81 1.44
8 10 5 2.9 1.11
8 10 5 1.67 1.05
-8 10 -5 3.34 2.04
9 -11 -5 0.47 1.34
9 -11 -5 0.25 1.12
-9 -11 5 1.4 1.43
9 -11 -5 -1.86 1.45
-9 11 5 0.41 1.3
9 11 -5 0.88 0.85
-9 11 5 -3.29 1.19
-9 11 5 0.1 1.51
-8 -11 5 2.41 0.88
8 -11 -5 0.83 0.98
-8 -11 5 0.6 1.16
8 -11 -5 0.01 1.12
-8 -11 5 0.3 0.51
8 -11 -5 -0.62 1.23
-8 11 5 1.5 1.07
8 11 -5 2.35 0.52
8 11 -5 2.36 0.7
-8 11 5 -0.17 1.41
-8 11 5 1.42 1.11
8 11 -5 2.26 1.05
-8 11 5 2.26 0.84
-7 -11 5 0.05 0.87
7 -11 -5 1.68 1.28
-7 -11 5 0.13 0.97
7 -11 -5 2.27 0.96
7 -11 -5 0.59 0.8
-7 11 5 0.78 0.86
7 11 -5 1.71 0.53
7 11 -5 0.98 0.93
7 11 -5 -0.14 0.69
-7 11 5 1.65 0.89
7 11 -5 2.09 0.64
-7 11 5 -0.16 1.19
-7 11 5 0.94 1.01
6 -11 -5 2.31 0.85
6 -11 -5 1.23 0.96
-6 -11 5 1.63 0.85
6 -11 -5 2.03 0.73
-6 -11 5 0.18 0.49
6 11 -5 0.78 0.51
-6 11 5 2.98 0.82
6 11 -5 1.5 0.84
-6 11 5 1.15 0.74
-6 11 5 1.87 1.08
6 11 -5 2.73 0.85
-5 -11 5 11.74 1.16
5 -11 -5 11.38 1.51
5 -11 -5 9.87 0.9
5 -11 -5 8.82 1.06
5 11 -5 11.27 0.99
-5 11 5 10.76 1.51
5 11 -5 8.9 0.94
-5 11 5 11.05 1.23
5 11 -5 11.79 1.34
-5 11 5 10.28 0.81
4 -11 -5 1.38 0.65
4 -11 -5 1.12 0.65
-4 -11 5 0.87 0.61
-4 -11 5 1.34 0.53
4 -11 -5 1.3 0.77
4 11 -5 1.24 0.79
-4 11 5 0.07 0.68
-4 11 5 0.35 0.8
-4 11 5 0.5 0.52
4 11 -5 0.72 0.52
4 11 -5 0.28 0.73
3 -11 -5 30.11 1.68
3 -11 -5 28.76 1.93
3 -11 -5 31.77 1.28
-3 -11 5 31.37 1.28
-3 -11 5 28.86 1.46
-3 11 5 30.75 1.07
-3 11 5 30.66 2.02
3 11 -5 32.14 1.49
3 11 -5 27.64 1.8
-3 11 5 32.47 1.72
2 -11 -5 6.06 1.13
-2 -11 5 5.26 0.79
-2 -11 5 5.1 0.65
2 -11 -5 5.33 0.93
2 -11 -5 3.54 0.6
2 -11 -5 5.25 0.6
-2 11 5 5.29 1.03
2 11 -5 4.47 1.03
-2 11 5 5.09 0.51
2 11 -5 4.96 0.67
-2 11 5 5.24 0.88
2 11 -5 4.38 0.78
-1 -11 5 4.37 0.66
1 -11 -5 5.01 1.03
-1 -11 5 4.29 0.58
1 -11 -5 5.49 0.85
-1 -11 5 4.47 0.67
-1 -11 5 3.51 0.46
1 -11 -5 4.95 0.6
1 -11 -5 3.89 0.55
-1 11 5 3.75 0.94
1 11 -5 5.26 0.75
-1 11 5 4.3 0.56
-1 11 5 3.06 0.7
1 11 -5 5 0.75
1 11 -5 4.74 1.08
0 -11 -5 2.73 0.54
0 -11 -5 1.85 0.66
0 -11 5 1.65 0.59
0 -11 5 2.59 0.54
0 -11 5 1.85 0.6
0 -11 -5 1.46 0.8
0 11 -5 2.26 0.87
0 11 5 3.38 0.7
0 11 -5 1.36 0.53
0 11 5 3.18 0.88
0 11 5 2.86 0.59
-1 -11 -5 -0.63 0.59
-1 -11 -5 0.76 0.54
1 -11 5 0.92 0.53
-1 -11 -5 0.22 0.48
1 -11 5 0.26 0.44
1 -11 5 -0.38 0.87
-1 11 -5 0.21 0.85
1 11 5 0.41 0.75
-1 11 -5 0.07 0.54
1 11 5 0.97 0.39
1 11 5 0.3 0.59
-2 -11 -5 0.33 0.56
2 -11 5 0.97 0.56
2 -11 5 0.33 0.23
2 -11 5 1.4 0.92
2 -11 5 0.15 0.62
-2 -11 -5 1 0.68
-2 11 -5 0.73 0.97
2 11 5 -0.3 0.64
2 11 5 0.79 0.72
2 11 5 0.47 0.38
-2 11 -5 0.88 0.65
3 -11 5 -0.48 0.95
3 -11 5 0.05 0.34
3 -11 5 0.03 0.52
-3 -11 -5 0.86 0.63
-3 -11 -5 0.68 0.64
-3 -11 -5 0.2 0.64
3 -11 5 -0.08 0.52
-3 -11 -5 -0.33 0.82
3 11 5 -0.15 0.37
3 11 5 -0.1 0.61
3 11 5 -0.45 0.69
-3 11 -5 0.11 1.06
-3 11 -5 -0.3 0.67
4 -11 5 6.97 0.66
-4 -11 -5 5.4 0.79
-4 -11 -5 7.92 1.04
4 -11 5 8.09 1.45
-4 -11 -5 6.85 1
-4 -11 -5 7.01 1.13
4 -11 5 5.82 1.05
-4 11 -5 6.39 1.49
4 11 5 6.02 1.03
-4 11 -5 8.23 1.21
4 11 5 6.23 0.49
-4 11 -5 6.28 0.91
4 11 5 7.04 0.96
-5 -11 -5 0.8 0.83
-5 -11 -5 1.23 0.86
5 -11 5 0.49 1.31
5 -11 5 0.96 0.59
5 -11 5 -0.07 0.59
-5 -11 -5 -0.97 1.01
5 -11 5 0.67 0.75
-5 -11 -5 1.86 1.05
5 11 5 1.35 0.88
-5 11 -5 0.51 0.82
5 11 5 0.92 0.45
-5 11 -5 0.62 1.42
5 11 5 2.34 0.85
-5 11 -5 2.34 0.92
6 -11 5 0.06 0.6
-6 -11 -5 -0.69 1.41
6 -11 5 0.59 0.97
-6 -11 -5 1.18 1.29
-6 -11 -5 1.04 1.16
-6 -11 -5 0.58 1.03
6 -11 5 1.35 1.48
6 -11 5 -0.29 1.37
6 11 5 0.59 0.81
-6 11 -5 -0.6 1.5
6 11 5 1.75 0.8
-6 11 -5 1.78 1.05
-6 11 -5 -0.55 1.03
6 11 5 1.02 0.5
6 11 5 1.36 0.92
-7 -11 -5 -2.46 1.42
7 -11 5 1.77 1.72
7 -11 5 0.73 0.64
7 -11 5 1.19 1.16
7 -11 5 2.08 1.18
-7 -11 -5 4.35 1.39
-7 -11 -5 1.89 1.21
7 11 5 0.51 1.02
7 11 5 -0.82 0.93
7 11 5 1.71 0.6
-7 11 -5 1.27 1.34
-7 11 -5 -1.66 2.05
-8 -12 5 0.32 0.96
8 -12 -5 -0.34 1.63
-8 -12 5 1.49 1.34
8 -12 -5 -0.16 1.3
8 -12 -5 1.26 1.19
8 12 -5 2.6 0.92
-8 12 5 -1.3 1.33
-8 12 5 -0.28 1.17
-8 12 5 -1.15 1.65
7 -12 -5 0.47 0.93
7 -12 -5 -1.24 1.07
-7 -12 5 0.6 1.19
-7 -12 5 3.2 0.99
7 -12 -5 2.17 1.53
-7 -12 5 -0.52 0.62
-7 12 5 0.14 0.99
7 12 -5 1.24 0.88
-7 12 5 0.33 0.94
7 12 -5 -0.07 0.7
-7 12 5 0.89 1.46
-7 12 5 1.64 1.14
7 12 -5 -0.5 1.08
-6 -12 5 0.93 0.96
6 -12 -5 2.46 1
6 -12 -5 2.51 1.26
-6 -12 5 3.8 1.06
6 -12 -5 1.62 0.95
6 12 -5 2.02 0.95
6 12 -5 1.26 0.59
-6 12 5 0.87 0.93
-6 12 5 1.19 0.82
6 12 -5 1.34 0.99
-6 12 5 2.74 1.34
5 -12 -5 0.37 1.06
-5 -12 5 2.06 0.99
-5 -12 5 2.16 0.89
5 -12 -5 0.9 0.84
-5 -12 5 0.08 0.63
5 -12 -5 3.1 0.93
-5 12 5 1.51 1.08
5 12 -5 1.44 0.89
5 12 -5 2.42 0.71
-5 12 5 1.22 0.85
5 12 -5 1.51 0.9
-5 12 5 1.39 0.7
-4 -12 5 5.02 1.15
4 -12 -5 4.6 0.93
4 -12 -5 5.02 0.83
4 -12 -5 4.56 1.22
-4 -12 5 4.17 0.78
-4 12 5 4.66 0.65
-4 12 5 6.31 1.08
-4 12 5 5.11 1.25
4 12 -5 4.74 0.77
4 12 -5 5.06 0.86
4 12 -5 5.56 1.22
3 -12 -5 2.15 0.99
-3 -12 5 0.95 0.97
3 -12 -5 2 0.68
3 -12 -5 3.25 0.86
-3 -12 5 2.46 0.75
3 -12 -5 0.92 0.54
-3 -12 5 1.79 0.63
3 12 -5 1.66 0.76
-3 12 5 0.11 0.98
-3 12 5 2.33 0.91
-3 12 5 0.46 0.39
-3 12 5 1.36 0.5
3 12 -5 1.37 0.89
3 12 -5 2.28 0.69
-2 -12 5 2.82 1.04
-2 -12 5 1.1 0.67
2 -12 -5 1.94 0.53
2 -12 -5 1.22 0.61
2 -12 -5 -0.02 0.95
-2 -12 5 2.3 0.65
2 -12 -5 0.36 0.78
-2 12 5 2.89 1.1
-2 12 5 2.09 0.85
2 12 -5 0.29 0.96
2 12 -5 1.4 0.67
-2 12 5 1.16 0.49
1 -12 -5 4.09 0.62
-1 -12 5 4.43 0.65
-1 -12 5 4.62 1.19
1 -12 -5 3.91 0.64
-1 -12 5 4.75 0.77
1 -12 -5 4.94 0.95
1 -12 -5 4.52 0.93
1 12 -5 4.48 1.2
-1 12 5 5.34 0.64
-1 12 5 4.18 1.1
1 12 -5 4.03 0.75
-1 12 5 6.3 0.98
1 12 -5 4.11 0.7
0 -12 5 2.18 0.66
0 -12 -5 2.63 0.64
0 -12 -5 1.99 0.96
0 -12 5 1.5 0.63
0 -12 -5 2.36 0.6
0 -12 5 1.08 0.86
0 -12 5 -0.06 0.54
0 12 -5 2.14 0.66
0 12 5 2.44 0.93
0 12 5 2.2 0.66
0 12 -5 1.97 0.98
0 12 5 1.53 0.74
-1 -12 -5 8.25 1.1
-1 -12 -5 7.26 1.18
-1 -12 -5 8.6 0.87
1 -12 5 5.93 0.72
1 -12 5 5.42 0.79
1 -12 5 7.19 1.41
1 12 5 5.76 0.97
1 12 5 6.91 0.83
-1 12 -5 5.23 1.22
1 12 5 6.87 0.97
-1 12 -5 7.48 1.08
-2 -12 -5 0.1 0.64
-2 -12 -5 -0.67 0.71
2 -12 5 1 0.75
2 -12 5 0.36 0.61
2 -12 5 -0.07 0.2
-2 -12 -5 -0.62 0.91
-2 -12 -5 0.14 0.76
2 -12 5 0.34 1.17
-2 12 -5 -0.5 1.05
2 12 5 0.99 0.88
2 12 5 -0.12 0.73
-2 12 -5 -0.23 0.59
-3 -12 -5 9.5 1.31
3 -12 5 6.85 0.91
-3 -12 -5 8.97 0.89
-3 -12 -5 8.01 0.95
3 -12 5 5.8 1.32
3 -12 5 9.39 0.79
-3 -12 -5 9.8 1.24
3 12 5 8.68 0.73
-3 12 -5 8.51 0.94
-3 12 -5 6.85 1.52
-3 12 -5 7.64 1.04
3 12 5 8.86 1.02
3 12 5 8.93 1.24
3 12 5 10.07 1.32
4 -12 5 1.87 0.91
-4 -12 -5 1.18 0.83
4 -12 5 0.48 0.51
4 -12 5 -0.03 1.27
-4 -12 -5 2.09 1.02
4 -12 5 -0.69 0.65
-4 -12 -5 -1.34 0.83
-4 -12 -5 -0.5 0.89
-4 12 -5 -0.93 0.89
4 12 5 1.41 1.02
4 12 5 1.25 0.82
4 12 5 1.19 0.93
-4 12 -5 -0.16 1.36
-4 12 -5 -0.63 0.85
4 12 5 0.3 0.39
5 -12 5 7.91 0.79
-5 -12 -5 7.17 1.09
-5 -12 -5 5.89 1.24
5 -12 5 7.61 1.8
5 -12 5 7.45 1.26
-5 -12 -5 7.02 1.45
-5 12 -5 10.8 2.15
5 12 5 6.97 1.3
-5 12 -5 8.26 1.38
5 12 5 9.9 1.37
5 12 5 8.8 1.17
5 12 5 7.6 0.5
-5 12 -5 8.04 1.16
6 -12 5 2.78 0.73
-6 -12 -5 2.95 1.41
6 -12 5 0.49 1.03
6 -12 5 4.14 1.24
6 -12 5 1.2 1.79
-6 -12 -5 3.84 1.22
-6 -12 -5 2.37 1.45
6 12 5 2.75 0.43
6 12 5 2.05 1.15
6 12 5 1.43 1.08
-6 12 -5 2.39 1.88
-6 12 -5 4.41 1.34
7 -13 -5 0.82 1.16
-7 -13 5 3.2 1.45
7 -13 -5 1.92 1.32
7 -13 -5 -2.15 1.72
-7 -13 5 1.43 1.26
-7 13 5 3.93 1.39
7 13 -5 2.91 0.83
-7 13 5 3.46 1.73
7 13 -5 4.12 1.19
7 13 -5 3.8 0.86
-7 13 5 3.98 1.18
-6 -13 5 1.36 1.21
6 -13 -5 0.24 1.06
6 -13 -5 0.04 1.61
-6 -13 5 -0.24 0.78
-6 -13 5 -1.25 1.13
6 -13 -5 0.42 1.13
6 13 -5 0.37 1.05
-6 13 5 1.97 1.17
-6 13 5 0.25 1.57
-6 13 5 -0.5 0.89
6 13 -5 1.51 1.21
6 13 -5 -0.78 0.69
5 -13 -5 0.5 1
5 -13 -5 0.92 1.32
-5 -13 5 -0.91 0.72
5 -13 -5 2.06 0.98
-5 -13 5 2.69 0.99
-5 -13 5 1.18 1.22
-5 13 5 0.55 1.06
-5 13 5 1.5 0.8
5 13 -5 1.54 0.76
-5 13 5 1.48 1.34
5 13 -5 2.33 1.05
5 13 -5 -0.75 1.05
-4 -13 5 -0.63 0.85
4 -13 -5 -0.73 1.28
-4 -13 5 0.74 1.14
4 -13 -5 0.9 0.91
4 -13 -5 0.33 0.86
-4 -13 5 -0.02 0.68
-4 13 5 0.23 0.66
-4 13 5 1.42 0.97
4 13 -5 0.46 0.95
4 13 -5 2.2 1.11
4 13 -5 -0.56 0.71
-4 13 5 0.16 1.13
3 -13 -5 0.84 0.92
3 -13 -5 2.1 0.67
3 -13 -5 3.05 1.3
3 -13 -5 2.73 0.94
-3 -13 5 1.47 0.68
-3 -13 5 1.56 1.09
-3 -13 5 1.66 0.86
-3 13 5 2.92 1
-3 13 5 2.3 0.59
3 13 -5 2.57 0.89
3 13 -5 3.25 0.89
3 13 -5 2.85 1.1
-3 13 5 3.22 1.24
-2 -13 5 4.01 1.26
2 -13 -5 4.46 0.98
-2 -13 5 3.13 0.76
-2 -13 5 2.31 0.72
2 -13 -5 3.27 0.75
2 -13 -5 4.23 0.75
2 -13 -5 5.08 1.3
2 13 -5 2.43 1.17
-2 13 5 3.31 1.05
2 13 -5 2.44 0.83
-2 13 5 2.16 1.22
-2 13 5 0.07 0.55
2 13 -5 2.82 0.88
1 -13 -5 0.52 1.07
-1 -13 5 1.3 0.7
1 -13 -5 2.08 0.95
-1 -13 5 -0.91 0.45
-1 -13 5 0.33 0.76
1 -13 -5 1.74 0.69
-1 -13 5 0.27 0.39
-1 -13 5 1.55 1.06
1 -13 -5 0.89 0.66
1 13 -5 -0.32 0.8
1 13 -5 1.18 1.07
-1 13 5 0.43 1.09
-1 13 5 0.29 0.65
-1 13 5 1.85 0.93
0 -13 -5 1.44 0.85
0 -13 5 0.41 0.52
0 -13 5 1.14 0.66
0 -13 -5 0.2 0.64
0 -13 5 0.13 0.63
0 -13 -5 1.01 0.69
0 -13 -5 1.13 1.17
0 -13 5 3.06 0.87
0 -13 5 1.64 1.14
0 13 5 1.42 1.16
0 13 -5 0.39 0.73
0 13 -5 1.63 1.15
0 13 5 1.93 0.77
0 13 5 2.93 0.97
1 -13 5 -0.18 0.63
1 -13 5 0.78 1.27
-1 -13 -5 0.89 0.77
1 -13 5 1.51 0.88
-1 -13 -5 -0.31 0.63
-1 -13 -5 0.92 0.92
-1 -13 -5 1.58 1.06
-1 13 -5 0.95 0.69
-1 13 -5 -0.55 1.29
1 13 5 2.31 0.94
1 13 5 1.5 1.06
-2 -13 -5 2.31 0.82
2 -13 5 1.71 1.43
-2 -13 -5 -1.39 1.2
2 -13 5 -0.07 0.67
-2 -13 -5 0.55 0.92
2 13 5 0.96 0.97
-2 13 -5 1.81 0.81
2 13 5 2.62 1.03
2 13 5 1.65 1.04
-2 13 -5 3.76 1.55
3 -13 5 0 1.45
3 -13 5 3.43 1.11
3 -13 5 0.34 0.38
-3 -13 -5 0.86 0.98
-3 -13 -5 0.9 0.87
-3 -13 -5 -0.49 1.11
-3 -13 -5 0.68 0.95
3 -13 5 0.43 0.75
3 13 5 0.5 1.07
3 13 5 0.29 0.88
-3 13 -5 -0.21 0.91
3 13 5 0.63 1.02
-3 13 -5 0.02 1.65
-3 13 -5 1.96 0.94
4 -13 5 9.99 1.38
-4 -13 -5 7.11 1.13
4 -13 5 6.75 1.77
-4 -13 -5 5.74 1.54
4 -13 5 6.81 0.84
-4 -13 -5 6.63 1.24
-4 13 -5 7.73 1.86
-4 13 -5 7.03 1.14
-4 13 -5 7.76 1.4
4 13 5 6.65 1.34
4 13 5 8.08 1.4
4 13 5 6.19 1.35
-5 -13 -5 3.24 1.15
-5 -13 -5 1.5 1.29
-5 -13 -5 1.97 1.13
5 -13 5 2.58 1.04
5 -13 5 1.87 1.86
5 -13 5 -0.9 0.75
5 13 5 0.56 1.1
-5 13 -5 0.72 1.3
-5 13 -5 1.71 1.93
5 13 5 0.71 1.21
6 -14 -5 1.92 1.33
-6 -14 5 1.59 1.55
6 -14 -5 0.73 1.84
-6 -14 5 -0.17 1.38
6 -14 -5 -0.18 1.34
6 14 -5 0.04 1.34
-6 14 5 0.95 1.1
6 14 -5 0.55 1.06
-6 14 5 0.9 1.82
5 -14 -5 -1.85 1.1
-5 -14 5 1.81 0.95
-5 -14 5 -0.9 1.47
-5 -14 5 1.14 1.19
5 -14 -5 0.4 1.21
-5 14 5 0.12 0.95
-5 14 5 1.75 1.63
5 14 -5 0.37 1.24
5 14 -5 -1.43 0.91
5 14 -5 -1.34 1.18
-4 -14 5 0.89 1.08
4 -14 -5 1.26 1.58
4 -14 -5 -0.26 1.14
-4 -14 5 3.77 1.6
4 -14 -5 1.97 1.04
4 -14 -5 1.94 0.87
-4 -14 5 -0.92 0.86
-4 14 5 -0.47 1.48
4 14 -5 0.11 1.27
4 14 -5 0.4 0.83
-4 14 5 0.07 1.15
4 14 -5 0.51 1.2
-4 14 5 1.68 0.82
-3 -14 5 -0.68 0.82
-3 -14 5 -0.75 0.91
3 -14 -5 -1.35 0.94
3 -14 -5 0.28 0.99
3 -14 -5 -2.82 1.39
-3 -14 5 1.3 1.4
3 -14 -5 0.23 0.82
3 14 -5 -1.11 0.83
-3 14 5 1.92 1.15
-3 14 5 0 1.41
3 14 -5 0.17 1.3
-3 14 5 -0.76 0.56
3 14 -5 2.03 1.03
2 -14 -5 -0.3 0.99
-2 -14 5 2.44 0.86
2 -14 -5 2.18 0.89
-2 -14 5 0.55 0.86
2 -14 -5 1.48 0.85
2 -14 -5 5.2 1.53
-2 -14 5 0.83 1.29
2 14 -5 0.14 0.83
2 14 -5 -0.21 1.18
-2 14 5 0.22 0.69
-2 14 5 3.17 1.56
-2 14 5 3.25 1.12
2 14 -5 0.97 0.97
1 -14 -5 1.32 1.17
1 -14 -5 -0.16 1.04
1 -14 -5 -0.39 0.87
-1 -14 5 3.25 1.39
-1 -14 5 0.79 0.79
-1 -14 5 -0.46 0.84
1 -14 -5 0.56 0.8
-1 -14 5 -0.01 0.42
1 14 -5 -1.43 0.87
-1 14 5 0.62 1.12
-1 14 5 0.21 0.93
-1 14 5 0.41 1.18
1 14 -5 -0.59 1.44
0 -14 5 8.4 1.62
0 -14 -5 4.39 0.95
0 -14 -5 4.97 1.2
0 -14 -5 0.45 0.75
0 -14 5 1.78 0.85
0 -14 5 0.56 0.73
0 -14 5 0.56 0.61
0 -14 5 2.83 0.93
0 -14 -5 3.39 1.51
0 14 -5 3 1.16
0 14 5 4.47 1.29
0 14 5 3.57 1.66
0 14 -5 6.56 1.67
-1 -14 -5 0 1.45
-1 -14 -5 0.17 1.1
1 -14 5 1.37 0.83
1 -14 5 0.65 0.92
-1 -14 -5 1.87 0.99
1 -14 5 0.35 0.75
-1 -14 -5 -0.12 0.73
1 -14 5 2.65 1.68
-1 14 -5 2.06 0.94
1 14 5 1.79 1.02
1 14 5 1.44 1.1
1 14 5 1.77 1.17
-1 14 -5 -0.31 1.37
2 -14 5 4.8 1.18
-2 -14 -5 1.3 0.96
2 -14 5 0.92 0.88
-2 -14 -5 1.02 1.19
-2 -14 -5 2.31 1.51
2 -14 5 -2.47 1.59
-2 -14 -5 2.12 1.09
-2 14 -5 0.5 0.98
2 14 5 0.68 1.15
2 14 5 2.09 1.4
2 14 5 3.39 1.24
-2 14 -5 1.58 1.67
-2 14 -5 4.02 0.97
-3 -14 -5 -0.35 1.15
-3 -14 -5 2.39 1.11
3 -14 5 0.32 1.87
3 -14 5 -0.51 0.99
3 -14 5 0.32 1.05
-3 -14 -5 -0.29 1.05
3 14 5 0.54 1.26
-3 14 -5 -0.69 1.88
3 14 5 0.48 1.06
-3 14 -5 -1.69 1.03
-3 14 -5 1.39 1.22
3 14 5 -0.04 1.25
-4 -14 -5 -2.57 2.21
4 -14 5 0.65 1.04
-4 -14 -5 0.32 1.17
-4 -14 -5 -0.11 1.42
4 -14 5 0.96 1.26
-4 14 -5 1.52 2.22
4 14 5 2.36 1.39
4 14 5 1.57 1.51
-4 14 -5 -2.37 1.27
4 14 5 2.12 1.22
4 -15 -5 0.11 1.09
4 -15 -5 2.9 1.46
-4 -15 5 0.05 1.12
4 -15 -5 -0.86 1.24
-4 -15 5 -0.55 1.35
4 15 -5 2.36 1.43
4 15 -5 0.37 1.06
-4 15 5 -0.89 1.75
4 15 -5 -0.1 1.56
-3 -15 5 2.85 1.27
3 -15 -5 1.54 0.98
-3 -15 5 0.15 1.06
3 -15 -5 1.9 1.17
3 -15 -5 2.36 1.33
3 15 -5 -0.31 1.08
3 15 -5 -0.11 1.63
-3 15 5 3.42 1.78
3 15 -5 0.9 1.31
2 -15 -5 -0.52 0.98
-2 -15 5 -0.56 1.05
-2 -15 5 0.26 0.96
2 -15 -5 -1.59 1.13
2 -15 -5 -1.23 1.25
2 15 -5 -0.14 1.21
2 15 -5 0.02 1.49
-2 15 5 -0.71 1.76
2 15 -5 -1.76 1.14
-2 15 5 -1.2 1.35
-2 15 5 0.36 0.79
-1 -15 5 2.8 1.07
1 -15 -5 -0.28 1.09
1 -15 -5 1.07 0.98
1 -15 -5 1.09 1.19
-1 -15 5 3.01 1.15
1 15 -5 1.33 1.19
-1 15 5 0.33 0.96
-1 15 5 1.46 1.69
1 15 -5 1.89 1.85
-1 15 5 -2.88 1.39
0 -15 -5 -0.26 1.14
0 -15 -5 0.07 1.25
0 -15 5 -0.07 0.67
0 -15 5 1.7 0.95
0 -15 5 -0.19 1.16
0 -15 -5 -0.12 0.91
0 -15 5 -1.09 0.96
0 15 5 0.73 1.11
0 15 -5 -1.18 1.72
0 15 5 -0.88 1.33
0 15 5 4.74 1.51
0 15 -5 0.21 1.08
-1 -15 -5 0.53 1.16
1 -15 5 1.77 1.27
1 -15 5 -0.26 1.11
-1 -15 -5 -1 1.02
1 -15 5 0.59 0.92
1 -15 5 0.01 1.02
-1 -15 -5 0.84 1.37
-1 15 -5 -1.45 1.06
1 15 5 0.13 1.34
-1 15 -5 -1.67 1.64
1 15 5 -1.92 1.23
1 15 5 -1.78 1.28
-1 15 -5 -0.47 1
2 -15 5 0.98 1.69
2 -15 5 -2.56 1.22
-2 -15 -5 -2.24 1.33
-2 -15 -5 -1.26 1.21
-2 -15 -5 -0.05 1.17
2 15 5 0.55 1.37
-2 15 -5 1.94 1.84
-2 15 -5 -0.9 1.12
2 15 5 0.29 1.74
-2 15 -5 0.46 1.04
2 15 5 -1.24 1.39
13 0 -6 0.55 1.34
13 0 -6 0.87 1.02
13 0 -6 -1.48 1.13
12 0 -6 0.02 1
12 0 -6 0.32 0.76
12 0 -6 2.03 1.03
12 0 -6 0.32 1.01
12 0 -6 1.71 1.05
12 0 -6 -0.74 0.87
11 0 -6 1.13 0.79
11 0 -6 0.29 0.82
11 0 -6 0.72 0.82
11 0 -6 0.37 0.59
11 0 -6 1.92 0.74
11 0 -6 1.02 0.79
10 0 -6 0.85 0.5
10 0 -6 2.28 0.6
10 0 -6 1.59 0.7
10 0 -6 3.37 0.69
10 0 -6 1.02 0.63
10 0 -6 1.34 0.64
9 0 -6 2.67 0.6
-9 0 6 3.31 0.62
9 0 -6 2.32 0.45
9 0 -6 2.04 0.48
9 0 -6 1.56 0.53
9 0 -6 1.81 0.55
8 0 -6 0.58 0.47
8 0 -6 -0.2 0.42
8 0 -6 0.48 0.42
8 0 -6 1.12 0.45
8 0 -6 0.48 0.33
8 0 -6 0.6 0.35
-8 0 6 0.75 0.48
7 0 -6 1.55 0.3
7 0 -6 0.66 0.38
7 0 -6 1.3 0.37
7 0 -6 0.94 0.27
7 0 -6 0.82 0.3
7 0 -6 0.23 0.35
7 0 -6 0.57 0.29
-7 0 6 0.89 0.39
-7 0 6 1 0.18
6 0 -6 16.03 0.6
-6 0 6 16.22 0.56
6 0 -6 16.36 0.71
6 0 -6 16.18 0.72
-6 0 6 16.87 0.58
6 0 -6 16.28 0.68
6 0 -6 13.79 0.91
6 0 -6 16.3 0.71
-6 0 6 15.77 0.71
-6 0 6 15.66 0.66
6 0 -6 16.59 0.61
5 0 -6 12.79 0.6
-5 0 6 12.93 0.59
5 0 -6 12.79 0.58
-5 0 6 12.5 0.57
-5 0 6 12.17 0.53
5 0 -6 12.54 0.56
5 0 -6 13.53 0.58
5 0 -6 12.94 0.63
5 0 -6 12.83 0.45
5 0 -6 11.58 0.51
-5 0 6 12.31 0.52
4 0 -6 71.42 1.83
4 0 -6 68.9 1.67
4 0 -6 71.57 1.66
4 0 -6 71.92 1.54
-4 0 6 71.77 1.78
-4 0 6 71.34 1.68
-4 0 6 73.16 1.64
4 0 -6 71.53 1.79
-4 0 6 70.06 1.74
-4 0 6 70.98 1.65
3 0 -6 1.33 0.22
-3 0 6 1.37 0.24
-3 0 6 1.13 0.23
3 0 -6 1.13 0.28
3 0 -6 1.07 0.22
2 0 -6 0.62 0.19
2 0 -6 1 0.32
-2 0 6 0.91 0.2
-2 0 6 0.68 0.2
2 0 -6 0.98 0.2
-2 0 6 0.55 0.17
-2 0 6 1.07 0.23
2 0 -6 0.55 0.17
1 0 -6 55.3 1.52
1 0 -6 53.97 1.62
-1 0 6 53.31 1.31
1 0 -6 56.72 1.28
-1 0 6 55.46 1.27
1 0 -6 55.13 1.34
-1 0 6 56.05 1.5
0 0 -6 65.55 1.78
0 0 -6 65.92 1.47
0 0 -6 68.19 1.59
0 0 6 65.93 1.57
0 0 -6 66.29 1.93
0 0 6 67.48 1.87
0 0 6 65.56 1.77
0 0 6 68.11 1.47
-1 0 -6 1.52 0.43
-1 0 -6 1.25 0.29
1 0 6 1.7 0.29
1 0 6 1.37 0.15
1 0 6 1.34 0.33
1 0 6 1.52 0.3
2 0 6 0.14 0.09
2 0 6 0.23 0.26
2 0 6 0.28 0.2
-2 0 -6 0.7 0.39
2 0 6 0.15 0.27
-2 0 -6 0.23 0.19
-2 0 -6 0.23 0.2
3 0 6 2.08 0.34
-3 0 -6 2.42 0.3
-3 0 -6 2.25 0.35
-3 0 -6 1.8 0.56
3 0 6 2.05 0.46
3 0 6 1.67 0.36
4 0 6 1.19 0.37
4 0 6 2.05 0.48
-4 0 -6 1.71 0.58
-4 0 -6 1.28 0.34
-4 0 -6 1.18 0.32
-5 0 -6 31.65 1.03
-5 0 -6 30.81 1.6
5 0 6 31.38 1.4
5 0 6 30.82 1.23
-5 0 -6 30.51 1.04
-5 0 -6 30.67 1.24
-6 0 -6 8.74 0.64
-6 0 -6 8.61 0.65
6 0 6 8.24 0.73
-6 0 -6 5.89 0.81
-6 0 -6 7.94 0.96
6 0 6 8.39 0.78
6 0 6 7.74 0.93
7 0 6 16.17 1.26
-7 0 -6 15.73 1.63
-7 0 -6 17.34 1.12
7 0 6 17.98 1.12
-7 0 -6 17.12 1.05
-8 0 -6 14.63 1.23
-8 0 -6 13.65 1.17
-8 0 -6 16.59 1.29
8 0 6 15.77 1.12
8 0 6 14.38 1.38
8 0 6 16.75 1.43
8 0 6 14 1.2
-9 0 -6 1.26 0.77
-9 0 -6 0.74 1.12
9 0 6 -0.22 0.66
9 0 6 0.55 1
-9 0 -6 0.01 0.96
-9 0 -6 0.72 0.84
9 0 6 1.18 0.89
10 0 6 0.01 0.96
-10 0 -6 -0.29 1.38
-10 0 -6 0.59 1.15
-10 0 -6 1.35 1
-10 0 -6 -1.1 1.13
10 0 6 0.31 0.81
13 -1 -6 0.72 0.94
13 -1 -6 0.17 1.39
13 -1 -6 1.04 1.28
13 1 -6 2.31 1.16
13 1 -6 1.26 1.07
13 1 -6 -1.62 1.3
13 1 -6 0.96 1.31
12 -1 -6 1.9 1.05
12 -1 -6 1.92 0.93
12 -1 -6 1.28 0.99
12 -1 -6 0.94 0.78
12 -1 -6 -0.25 1.05
12 1 -6 1.3 1.04
12 1 -6 0.54 0.98
12 1 -6 -0.04 0.83
12 1 -6 0.91 0.87
12 1 -6 1.56 1.1
12 1 -6 -0.21 0.96
11 -1 -6 1.1 0.78
11 -1 -6 0.91 0.58
11 -1 -6 1.71 0.71
11 -1 -6 -0.02 0.81
11 -1 -6 0.45 0.81
11 1 -6 1.23 0.78
11 1 -6 -0.12 0.77
11 1 -6 0.31 0.68
11 1 -6 -0.21 0.79
11 1 -6 1.07 0.67
11 1 -6 1.01 0.76
10 -1 -6 4.76 0.71
10 -1 -6 3.28 0.7
10 -1 -6 4.2 0.55
10 -1 -6 2.85 0.68
10 -1 -6 4.66 0.76
10 -1 -6 4 0.65
10 1 -6 4.77 0.63
10 1 -6 3.96 0.65
10 1 -6 4.71 0.73
-10 1 6 3.46 0.73
10 1 -6 3.65 0.71
10 1 -6 4.86 0.72
9 -1 -6 0.93 0.55
9 -1 -6 1.26 0.46
9 -1 -6 1.28 0.55
9 -1 -6 1.14 0.57
9 -1 -6 1.13 0.41
9 -1 -6 0.48 0.37
9 -1 -6 0.13 0.26
-9 1 6 1.26 0.57
9 1 -6 0.58 0.51
9 1 -6 1.1 0.49
9 1 -6 0.86 0.54
9 1 -6 1.56 0.89
9 1 -6 0.93 0.46
9 1 -6 0.73 0.44
8 -1 -6 9.56 0.84
8 -1 -6 9.54 0.69
8 -1 -6 10.46 0.61
8 -1 -6 9.43 0.71
8 -1 -6 10.8 0.83
8 -1 -6 9.08 0.53
8 -1 -6 10.31 0.87
-8 1 6 9.61 0.49
8 1 -6 8.48 0.66
-8 1 6 9.45 0.79
-8 1 6 9.75 0.49
8 1 -6 10.49 0.71
8 1 -6 9.97 0.81
8 1 -6 9.55 0.81
8 1 -6 8.28 0.76
8 1 -6 8.5 0.73
7 -1 -6 2.56 0.43
7 -1 -6 2.27 0.34
7 -1 -6 2.38 0.31
-7 -1 6 3.35 0.46
7 -1 -6 3.34 0.46
7 -1 -6 2.47 0.43
-7 1 6 2.83 0.35
7 1 -6 3.16 0.4
7 1 -6 2.69 0.46
7 1 -6 2.06 0.39
-7 1 6 3.05 0.35
7 1 -6 2.86 0.37
7 1 -6 2.16 0.34
7 1 -6 2.32 0.42
-7 1 6 2.52 0.44
-6 -1 6 0.43 0.15
6 -1 -6 -0.06 0.22
-6 -1 6 0.43 0.32
6 -1 -6 0.18 0.21
6 -1 -6 0.56 0.31
6 -1 -6 0.29 0.24
-6 -1 6 0.27 0.27
6 -1 -6 0.57 0.31
-6 -1 6 0.36 0.12
6 -1 -6 0.19 0.3
6 1 -6 0.77 0.26
6 1 -6 0.36 0.32
6 1 -6 0.39 0.29
-6 1 6 0.26 0.19
6 1 -6 0.22 0.28
-6 1 6 0.5 0.3
-6 1 6 0 0.2
6 1 -6 0.3 0.25
-6 1 6 0.07 0.25
6 1 -6 0.52 0.21
6 1 -6 0.43 0.21
5 -1 -6 1.53 0.3
5 -1 -6 1.78 0.27
5 -1 -6 1.14 0.3
-5 -1 6 1.56 0.32
5 -1 -6 1.54 0.29
-5 -1 6 1.24 0.26
-5 -1 6 0.92 0.25
5 -1 -6 1.55 0.29
-5 -1 6 1.6 0.22
-5 1 6 0.93 0.27
-5 1 6 1.21 0.27
-5 1 6 1.18 0.3
5 1 -6 1.39 0.19
-5 1 6 1.3 0.24
-5 1 6 1.49 0.26
5 1 -6 1.12 0.27
5 1 -6 1.22 0.26
5 1 -6 1.31 0.24
5 1 -6 1.76 0.29
4 -1 -6 1.14 0.27
4 -1 -6 0.7 0.25
-4 -1 6 1.25 0.27
-4 -1 6 1.99 0.26
-4 -1 6 0.94 0.21
-4 -1 6 1.24 0.24
4 -1 -6 0.88 0.23
4 -1 -6 1.12 0.26
4 -1 -6 0.8 0.23
-4 -1 6 1.33 0.22
-4 1 6 0.92 0.23
4 1 -6 1.28 0.23
4 1 -6 1.26 0.22
-4 1 6 0.96 0.23
4 1 -6 1.17 0.14
-4 1 6 1.32 0.25
4 1 -6 1.15 0.26
-4 1 6 1.83 0.29
-4 1 6 1.06 0.19
4 1 -6 1.3 0.3
4 1 -6 1.27 0.21
3 -1 -6 5.04 0.17
3 -1 -6 4.8 0.42
-3 -1 6 4.31 0.38
-3 -1 6 4.45 0.35
3 -1 -6 4.97 0.41
3 -1 -6 5.97 0.41
-3 -1 6 4.63 0.36
-3 -1 6 5.01 0.22
3 -1 -6 5.23 0.42
-3 -1 6 5.23 0.37
-3 -1 6 5.62 0.38
3 1 -6 5.61 0.36
3 1 -6 4.76 0.37
-3 1 6 5.34 0.34
-3 1 6 4.4 0.38
-3 1 6 5.17 0.42
3 1 -6 5.8 0.51
-3 1 6 4.98 0.39
-3 1 6 5.16 0.4
3 1 -6 5.02 0.37
2 -1 -6 1.01 0.23
-2 -1 6 0.6 0.08
2 -1 -6 0.45 0.18
-2 -1 6 0.53 0.23
2 -1 -6 0.88 0.32
2 -1 -6 0.39 0.18
-2 -1 6 0.99 0.22
-2 -1 6 0.66 0.18
-2 -1 6 0.78 0.21
-2 -1 6 0.7 0.2
-2 1 6 0.71 0.2
-2 1 6 0.54 0.19
2 1 -6 0.62 0.18
-2 1 6 0.2 0.2
2 1 -6 0.65 0.2
2 1 -6 0.42 0.3
2 1 -6 0.61 0.19
-2 1 6 0.67 0.18
-1 -1 6 161.16 3.37
-1 -1 6 165.19 3.64
-1 -1 6 160.23 3.74
1 -1 -6 153.6 3.68
-1 -1 6 161.62 3.42
1 -1 -6 160.38 3.44
1 -1 -6 157.71 3.76
-1 1 6 163.02 3.67
1 1 -6 168.4 3.38
1 1 -6 160.63 3.64
1 1 -6 158.74 3.78
1 1 -6 157.62 3.43
-1 1 6 158.18 3.26
-1 1 6 158.12 3.42
-1 1 6 160.2 3.74
-1 1 6 161.44 3.38
0 -1 6 79.22 1.8
0 -1 6 75.75 2.12
0 -1 -6 81.46 2.18
0 -1 6 76.46 2.01
0 -1 -6 75.55 1.81
0 -1 6 79.07 1.7
0 -1 -6 78.55 2.06
0 1 -6 79.04 2.2
0 1 -6 77.36 2.01
0 1 6 78.31 2.12
0 1 -6 79.13 1.7
0 1 6 78.68 1.72
0 1 6 80.39 1.69
0 1 6 78.69 1.81
0 1 6 77.41 2.03
1 -1 6 6.62 0.61
-1 -1 -6 6.73 0.67
-1 -1 -6 6.5 0.5
1 -1 6 6.32 0.48
1 -1 6 6.8 0.5
1 1 6 6.13 0.3
1 1 6 6.41 0.45
1 1 6 6.85 0.33
-1 1 -6 6.86 0.7
-1 1 -6 6.42 0.27
1 1 6 6.88 0.56
-1 1 -6 6.75 0.34
1 1 6 6.83 0.51
-1 1 -6 6.98 0.49
-2 -1 -6 0.8 0.27
2 -1 6 0.65 0.21
2 -1 6 0.53 0.27
-2 -1 -6 1.35 0.42
2 -1 6 0.55 0.27
2 1 6 0.92 0.23
2 1 6 0.83 0.28
2 1 6 0.85 0.14
-2 1 -6 0.76 0.28
2 1 6 0.67 0.28
-2 1 -6 1.28 0.48
-2 1 -6 0.77 0.2
3 -1 6 1.34 0.34
-3 -1 -6 1.08 0.48
-3 -1 -6 1.33 0.29
3 -1 6 1.16 0.39
-3 -1 -6 0.97 0.28
3 1 6 1.19 0.29
-3 1 -6 0.98 0.31
-3 1 -6 1.23 0.27
3 1 6 1.43 0.13
3 1 6 1.59 0.37
-3 1 -6 1.38 0.53
-4 -1 -6 2.4 0.37
-4 -1 -6 1.73 0.52
4 -1 6 2.23 0.53
4 -1 6 2.03 0.37
-4 -1 -6 1.34 0.35
4 1 6 1.94 0.41
-4 1 -6 2.28 0.36
4 1 6 2.28 0.52
-4 1 -6 1.95 0.38
4 1 6 2.28 0.42
-4 1 -6 1.78 0.57
5 -1 6 0.61 0.37
5 -1 6 0.77 0.38
-5 -1 -6 0.51 0.6
-5 -1 -6 0.32 0.37
-5 -1 -6 0.41 0.34
-5 -1 -6 0.78 0.33
5 -1 6 0.8 0.49
5 1 6 0.8 0.42
-5 1 -6 0.98 0.6
-5 1 -6 0.34 0.34
5 1 6 0.4 0.32
-5 1 -6 0.2 0.39
-5 1 -6 0.42 0.36
-6 -1 -6 12.28 0.78
6 -1 6 13.77 0.93
-6 -1 -6 14.44 1.45
-6 -1 -6 14.59 1.3
6 -1 6 11.15 1.04
-6 -1 -6 12.42 0.83
-6 1 -6 13.15 0.88
-6 1 -6 13.55 0.9
6 1 6 12.32 0.89
-6 1 -6 13.16 0.89
-6 1 -6 12.84 1.38
-7 -1 -6 7.93 0.68
7 -1 6 7.83 0.99
-7 -1 -6 9.37 0.79
7 -1 6 9.96 0.94
-7 -1 -6 10.99 1.29
-7 1 -6 8.59 0.77
-7 1 -6 9.1 1.28
7 1 6 9.06 1.05
-7 1 -6 8.33 0.76
7 1 6 8.51 0.86
8 -1 6 -1.56 0.67
-8 -1 -6 -0.41 0.93
-8 -1 -6 0.1 0.57
8 -1 6 -0.04 0.52
-8 -1 -6 -0.55 0.77
8 -1 6 0.83 0.7
8 1 6 1.28 0.51
-8 1 -6 0.87 0.99
8 1 6 -0.56 0.62
-8 1 -6 0.03 0.73
-8 1 -6 0.39 0.69
8 1 6 1.29 0.83
-8 1 -6 -0.14 0.55
-9 -1 -6 -0.54 0.93
9 -1 6 0.46 0.92
-9 -1 -6 0.46 0.72
-9 -1 -6 1.22 0.85
9 -1 6 -0.64 0.89
-9 -1 -6 0.73 1.1
9 -1 6 0.12 0.64
9 1 6 1.26 0.76
9 1 6 0.67 0.62
-9 1 -6 0.88 1.19
-9 1 -6 1.38 0.78
-9 1 -6 -0.26 0.89
-9 1 -6 0.86 0.86
9 1 6 3.04 1.05
-10 -1 -6 -1.39 0.9
-10 -1 -6 1.02 1.08
10 -1 6 4.05 2.08
-10 -1 -6 0.28 1.25
10 -1 6 -0.09 0.81
-10 -1 -6 -1.99 1.31
-10 1 -6 3.32 1.59
10 1 6 1.59 0.96
10 1 6 0.69 0.76
-10 1 -6 2.57 1.23
-10 1 -6 1.02 0.97
13 -2 -6 1.1 1.48
13 -2 -6 -0.05 1.23
13 -2 -6 -0.62 0.83
13 2 -6 1.72 1.2
13 2 -6 -0.19 1.22
13 2 -6 0.48 1.18
13 2 -6 -1.12 1.34
12 -2 -6 0.36 1.03
12 -2 -6 0.81 1
12 -2 -6 1.15 0.64
12 -2 -6 -0.17 1.13
12 -2 -6 0.55 1.06
12 2 -6 3.17 1.02
12 2 -6 -0.35 0.99
12 2 -6 1.25 1.02
12 2 -6 0.4 0.95
12 2 -6 0.37 0.91
12 2 -6 1.04 0.91
11 -2 -6 0.23 0.85
11 -2 -6 0.6 0.89
11 -2 -6 1.2 0.88
11 -2 -6 1.46 0.75
11 -2 -6 1.49 0.52
11 2 -6 0.65 0.69
11 2 -6 0.52 0.8
11 2 -6 1.28 0.84
11 2 -6 0.96 0.84
11 2 -6 0.05 0.71
-11 2 6 2.25 0.85
11 2 -6 0.76 0.76
10 -2 -6 -0.23 0.52
10 -2 -6 1.08 0.41
10 -2 -6 -0.26 0.66
10 -2 -6 0.41 0.64
10 -2 -6 0.23 0.35
10 -2 -6 0.42 0.68
-10 2 6 0.38 0.67
10 2 -6 -0.36 0.64
10 2 -6 0.11 0.61
-10 2 6 0.33 0.31
10 2 -6 -0.54 0.55
10 2 -6 -0.21 0.6
10 2 -6 -0.31 0.63
10 2 -6 -0.84 0.5
9 -2 -6 4.26 0.55
9 -2 -6 4.15 0.61
9 -2 -6 5.1 0.44
9 -2 -6 4.81 0.62
9 -2 -6 4.24 0.77
9 2 -6 3.68 0.52
9 2 -6 3.96 0.58
9 2 -6 5.16 0.67
-9 2 6 3.88 0.63
9 2 -6 4.51 0.63
9 2 -6 4.72 0.58
-9 2 6 4.15 0.49
9 2 -6 5.14 0.6
8 -2 -6 9.69 0.56
8 -2 -6 9.48 0.62
8 -2 -6 11.9 0.91
8 -2 -6 9.44 0.72
8 2 -6 9.44 0.74
8 2 -6 9.95 0.8
8 2 -6 9.48 0.73
8 2 -6 10.13 0.68
-8 2 6 10.77 0.81
-8 2 6 9.48 0.58
8 2 -6 9.56 0.79
8 2 -6 11.59 0.76
7 -2 -6 1.31 0.39
7 -2 -6 1.24 0.35
7 -2 -6 1.47 0.41
7 -2 -6 2.07 0.43
7 -2 -6 1.77 0.27
-7 2 6 1.36 0.32
-7 2 6 1.82 0.31
7 2 -6 1.25 0.41
-7 2 6 1.59 0.41
7 2 -6 1.83 0.37
7 2 -6 1.8 0.44
7 2 -6 2.42 0.34
7 2 -6 2.04 0.37
7 2 -6 1.26 0.34
-6 -2 6 1.58 0.34
6 -2 -6 1.87 0.36
6 -2 -6 1.64 0.34
6 -2 -6 2.08 0.34
6 -2 -6 1.67 0.33
6 -2 -6 1.79 0.38
-6 2 6 2.38 0.39
-6 2 6 1.86 0.36
6 2 -6 1.61 0.34
6 2 -6 1.28 0.33
-6 2 6 2.01 0.31
-6 2 6 1.54 0.26
6 2 -6 1.96 0.32
6 2 -6 1.77 0.25
6 2 -6 1.71 0.31
6 2 -6 1.45 0.31
5 -2 -6 18.7 0.72
-5 -2 6 19.73 0.72
-5 -2 6 18.85 0.65
-5 -2 6 18.93 0.62
5 -2 -6 18.81 0.74
5 -2 -6 19.37 0.85
5 -2 -6 18.08 0.77
5 -2 -6 19.03 0.72
-5 -2 6 18.52 0.59
5 2 -6 19 0.69
5 2 -6 19.13 0.72
-5 2 6 17.92 0.59
5 2 -6 18.38 0.66
-5 2 6 17.75 0.71
-5 2 6 19.38 0.8
5 2 -6 18.94 0.58
-5 2 6 18.65 0.75
-5 2 6 18.38 0.72
5 2 -6 19.81 0.74
5 2 -6 17.83 0.71
-4 -2 6 1.36 0.24
-4 -2 6 1.68 0.29
-4 -2 6 1.71 0.2
-4 -2 6 1.49 0.22
4 -2 -6 1.83 0.33
4 -2 -6 1.89 0.34
-4 -2 6 1.88 0.26
4 -2 -6 1.55 0.28
4 -2 -6 1.72 0.27
-4 2 6 1.64 0.2
-4 2 6 1.34 0.25
4 2 -6 1.17 0.26
-4 2 6 1.14 0.24
4 2 -6 1.47 0.31
-4 2 6 1.65 0.31
-4 2 6 1.25 0.26
4 2 -6 1.65 0.25
4 2 -6 1.87 0.26
4 2 -6 1.26 0.15
4 2 -6 1.23 0.24
-3 -2 6 4.17 0.34
-3 -2 6 4.39 0.42
-3 -2 6 4.07 0.38
-3 -2 6 4.21 0.24
-3 -2 6 3.78 0.34
3 -2 -6 4.48 0.4
3 -2 -6 4.75 0.44
3 -2 -6 4.04 0.43
-3 2 6 3.77 0.31
-3 2 6 3.86 0.43
-3 2 6 4.29 0.41
-3 2 6 4.3 0.35
3 2 -6 3.95 0.47
3 2 -6 3.67 0.31
3 2 -6 3.9 0.29
3 2 -6 4.33 0.33
2 -2 -6 0.27 0.2
-2 -2 6 0.55 0.23
-2 -2 6 0.1 0.17
-2 -2 6 0.47 0.1
2 -2 -6 0.24 0.21
2 -2 -6 0.41 0.21
-2 -2 6 0.25 0.18
-2 -2 6 0.36 0.17
2 -2 -6 0.33 0.07
2 2 -6 0.45 0.19
-2 2 6 0.54 0.2
-2 2 6 0.29 0.2
-2 2 6 0.3 0.25
-2 2 6 0.37 0.21
2 2 -6 0.2 0.18
2 2 -6 0.24 0.24
2 2 -6 0.32 0.17
1 -2 -6 2.95 0.39
-1 -2 6 3.02 0.36
1 -2 -6 2.12 0.31
1 -2 -6 2.65 0.28
-1 -2 6 2.27 0.37
-1 -2 6 2.11 0.24
-1 2 6 3.11 0.28
-1 2 6 2.46 0.37
-1 2 6 2.2 0.23
1 2 -6 2.88 0.47
1 2 -6 2 0.24
1 2 -6 2.73 0.23
-1 2 6 1.71 0.26
0 -2 6 2.57 0.3
0 -2 6 1.33 0.32
0 -2 6 1.96 0.33
0 -2 -6 2.36 0.45
0 -2 -6 2.53 0.4
0 -2 -6 2.01 0.27
0 2 6 2.41 0.36
0 2 -6 2.36 0.48
0 2 6 2.4 0.22
0 2 6 2.74 0.4
0 2 6 2.81 0.28
0 2 -6 2.11 0.2
0 2 -6 1.72 0.28
0 2 6 2.14 0.19
1 -2 6 0.3 0.21
-1 -2 -6 0.78 0.25
-1 -2 -6 0.43 0.33
1 -2 6 0.28 0.3
-1 2 -6 0.14 0.12
1 2 6 0.1 0.22
-1 2 -6 0.19 0.22
-1 2 -6 1.35 0.42
-2 -2 -6 11.04 0.85
-2 -2 -6 10.66 0.67
2 -2 6 10.55 0.79
-2 -2 -6 10.83 0.48
2 -2 6 10.07 0.64
-2 2 -6 10.71 0.9
2 2 6 10.93 0.62
-2 2 -6 10.88 0.32
2 2 6 10.21 0.47
-2 2 -6 10.95 0.45
-2 2 -6 11.13 0.66
2 2 6 10.89 0.71
2 2 6 10.87 0.6
3 -2 6 9.66 0.66
-3 -2 -6 9.75 0.66
-3 -2 -6 9.66 0.52
3 -2 6 9.33 0.83
-3 -2 -6 9.94 0.93
-3 2 -6 9.91 0.5
3 2 6 10.02 0.66
-3 2 -6 9.75 0.66
3 2 6 9.52 0.71
3 2 6 9.89 0.53
3 2 6 9.37 0.64
-3 2 -6 10.01 0.94
-4 -2 -6 0.02 0.28
4 -2 6 0.06 0.28
-4 -2 -6 0.27 0.25
-4 -2 -6 0.9 0.56
-4 -2 -6 0.02 0.32
4 -2 6 0.15 0.46
4 -2 6 0.2 0.3
4 2 6 0.32 0.34
4 2 6 0.38 0.41
-4 2 -6 -0.09 0.24
-4 2 -6 0.48 0.3
-4 2 -6 -0.06 0.49
4 2 6 0.32 0.32
4 2 6 0.31 0.28
5 -2 6 4.87 0.66
-5 -2 -6 5.34 0.82
-5 -2 -6 5.02 0.66
5 -2 6 6.06 0.51
-5 -2 -6 5.29 0.42
5 -2 6 5.5 0.8
-5 -2 -6 5.62 0.54
-5 2 -6 5.74 0.52
5 2 6 5.41 0.54
5 2 6 5.77 0.64
5 2 6 5.82 0.6
-5 2 -6 5.14 0.51
5 2 6 5.34 0.74
-5 2 -6 5.86 0.65
5 2 6 4.76 0.25
-5 2 -6 7.29 1.02
-6 -2 -6 1.25 0.7
6 -2 6 1.27 0.58
6 -2 6 0.97 0.52
-6 -2 -6 0.87 0.4
-6 -2 -6 0.55 0.54
6 -2 6 1.71 0.63
-6 2 -6 1.38 0.77
6 2 6 1.21 0.46
-6 2 -6 0.76 0.44
6 2 6 1.23 0.58
-6 2 -6 1.28 0.51
6 2 6 0.89 0.45
-6 2 -6 0.47 0.47
-7 -2 -6 1.77 0.84
7 -2 6 -0.21 0.48
-7 -2 -6 0.23 0.6
-7 -2 -6 0.59 0.48
7 -2 6 -0.07 0.56
7 2 6 -0.01 0.56
-7 2 -6 1.03 0.62
-7 2 -6 0.47 0.85
-7 2 -6 1 0.56
7 2 6 0.5 0.46
8 -2 6 1.73 0.6
-8 -2 -6 1.31 0.64
-8 -2 -6 1.48 0.66
8 -2 6 -0.56 0.7
-8 -2 -6 0.22 0.94
-8 -2 -6 1.55 0.74
8 -2 6 1.13 0.74
8 2 6 1.92 0.69
8 2 6 0.4 0.75
8 2 6 0.39 0.52
-8 2 -6 -1.18 0.98
-8 2 -6 0.57 0.77
-8 2 -6 1.67 0.74
-8 2 -6 -0.08 0.58
-9 -2 -6 1.79 1.02
-9 -2 -6 0.69 1.14
-9 -2 -6 1.55 0.72
9 -2 6 1.43 0.97
9 -2 6 1.18 0.69
9 -2 6 2.43 0.95
-9 -2 -6 1.27 0.81
9 2 6 1.76 0.79
9 2 6 1.12 0.98
-9 2 -6 2.37 0.99
9 2 6 1.24 0.67
-9 2 -6 -0.47 1.25
-9 2 -6 0.95 0.73
10 -2 6 -0.86 1.1
-10 -2 -6 -0.36 1.25
10 -2 6 -2.81 2.08
10 -2 6 0.43 0.81
-10 -2 -6 1.26 1.42
-10 -2 -6 0.81 0.91
-10 -2 -6 0.2 1.04
10 2 6 1.66 0.83
-10 2 -6 -2.46 1.59
10 2 6 -0.12 0.91
-10 2 -6 -1.17 0.89
-10 2 -6 1.42 1.24
12 -3 -6 -0.49 0.8
12 -3 -6 0.47 0.5
12 -3 -6 0.39 0.56
12 -3 -6 -0.26 1.2
12 -3 -6 1.27 1.09
12 -3 -6 -2.21 1.16
12 -3 -6 1.15 1.12
-12 3 6 -0.27 1.05
12 3 -6 -0.51 1.03
12 3 -6 -2.63 0.98
12 3 -6 -1.17 0.9
12 3 -6 0.81 0.88
12 3 -6 1.47 1.16
12 3 -6 -1.97 0.94
11 -3 -6 1.49 0.91
11 -3 -6 -0.14 0.68
11 -3 -6 -0.02 0.44
11 -3 -6 -0.78 0.82
11 -3 -6 0.18 0.93
11 3 -6 0.12 0.67
11 3 -6 0.13 0.73
-11 3 6 -0.26 0.43
-11 3 6 0.2 0.84
11 3 -6 0.11 0.82
11 3 -6 -0.63 0.75
11 3 -6 -0.22 0.76
11 3 -6 1.37 0.82
10 -3 -6 -0.48 1.06
10 -3 -6 -0.37 0.67
10 -3 -6 0.66 0.37
10 -3 -6 -0.18 0.72
10 -3 -6 -0.01 0.39
10 3 -6 -0.22 0.71
-10 3 6 -0.55 0.65
10 3 -6 -0.76 0.56
10 3 -6 0.64 0.54
10 3 -6 -0.93 0.64
10 3 -6 -0.13 0.6
-10 3 6 -0.37 0.35
10 3 -6 0.16 0.61
-10 3 6 -0.22 0.41
9 -3 -6 0.01 0.36
9 -3 -6 -0.03 0.61
9 -3 -6 -0.56 0.41
-9 3 6 0.6 0.55
9 3 -6 -0.19 0.64
9 3 -6 0.09 0.48
-9 3 6 -0.2 0.38
9 3 -6 0.99 0.55
9 3 -6 0.98 0.57
-9 3 6 1.11 0.35
9 3 -6 0.82 0.45
9 3 -6 0.56 0.53
8 -3 -6 -0.2 0.39
8 -3 -6 0.25 0.33
8 -3 -6 -0.15 0.48
8 3 -6 -0.42 0.39
8 3 -6 0.36 0.4
8 3 -6 0.05 0.35
8 3 -6 -0.08 0.38
-8 3 6 0.48 0.32
8 3 -6 0.54 0.48
8 3 -6 1.1 0.48
-8 3 6 0.21 0.47
-8 3 6 0.36 0.39
7 -3 -6 1.54 0.46
7 -3 -6 2.25 0.4
7 -3 -6 2.86 0.49
7 -3 -6 2.53 0.43
-7 3 6 2.33 0.46
-7 3 6 2.01 0.37
7 3 -6 1.8 0.39
7 3 -6 2.33 0.35
7 3 -6 1.63 0.38
-7 3 6 2.13 0.43
7 3 -6 2.69 0.37
7 3 -6 2.51 0.45
7 3 -6 1.48 0.35
6 -3 -6 3.3 0.45
6 -3 -6 2.77 0.42
-6 -3 6 2.69 0.39
6 -3 -6 2.22 0.4
6 -3 -6 2.48 0.46
-6 3 6 3.23 0.46
6 3 -6 3.13 0.29
6 3 -6 2.48 0.36
-6 3 6 2.66 0.25
6 3 -6 2.25 0.37
6 3 -6 2.76 0.36
-6 3 6 2.47 0.38
6 3 -6 2.85 0.33
-6 3 6 3.25 0.4
6 3 -6 2.93 0.33
5 -3 -6 0.45 0.27
-5 -3 6 -0.08 0.21
-5 -3 6 0.18 0.29
5 -3 -6 0 0.3
-5 -3 6 0.15 0.22
5 -3 -6 -0.22 0.23
5 -3 -6 -0.31 0.27
-5 -3 6 -0.1 0.18
-5 -3 6 0.12 0.14
-5 3 6 -0.05 0.18
5 3 -6 0.15 0.26
5 3 -6 0.05 0.2
-5 3 6 -0.31 0.26
-5 3 6 0.13 0.27
5 3 -6 -0.05 0.15
5 3 -6 -0.23 0.27
5 3 -6 -0.03 0.27
-5 3 6 -0.13 0.27
5 3 -6 0.02 0.19
5 3 -6 0.05 0.21
-5 3 6 0.08 0.17
-4 -3 6 6.08 0.39
4 -3 -6 6.92 0.56
-4 -3 6 6.4 0.38
4 -3 -6 6.06 0.45
4 -3 -6 6.58 0.49
-4 -3 6 5.36 0.48
-4 -3 6 6.1 0.46
-4 -3 6 5.9 0.38
4 -3 -6 6.28 0.54
4 3 -6 6.3 0.29
4 3 -6 6.14 0.38
-4 3 6 5.95 0.49
4 3 -6 6.9 0.56
4 3 -6 6.77 0.46
-4 3 6 6.6 0.58
-4 3 6 6.25 0.46
-4 3 6 5.89 0.48
-4 3 6 5.65 0.32
4 3 -6 5.75 0.4
4 3 -6 6.43 0.48
3 -3 -6 2.05 0.24
-3 -3 6 2.13 0.23
3 -3 -6 2.29 0.38
-3 -3 6 2.33 0.29
-3 -3 6 2.06 0.31
3 -3 -6 2.46 0.37
-3 -3 6 2.29 0.2
3 -3 -6 2.1 0.28
-3 -3 6 1.97 0.27
3 3 -6 2.22 0.28
3 3 -6 2.31 0.29
-3 3 6 1.97 0.28
-3 3 6 2.27 0.39
-3 3 6 2.04 0.28
3 3 -6 2.03 0.24
-3 3 6 2.26 0.35
3 3 -6 2.14 0.37
3 3 -6 1.91 0.28
2 -3 -6 3.64 0.45
-2 -3 6 3.85 0.23
-2 -3 6 4.01 0.36
2 -3 -6 4.05 0.47
-2 -3 6 3.8 0.37
-2 -3 6 4.19 0.49
2 -3 -6 4.42 0.36
2 -3 -6 3.85 0.19
-2 -3 6 3.95 0.38
-2 3 6 3.65 0.32
2 3 -6 4.75 0.34
-2 3 6 4.13 0.49
2 3 -6 4.22 0.56
-2 3 6 3.76 0.32
-2 3 6 3.86 0.43
2 3 -6 4.44 0.37
2 3 -6 3.84 0.37
1 -3 -6 60.37 1.3
1 -3 -6 60.97 1.77
-1 -3 6 58.83 1.77
1 -3 -6 59.37 1.44
-1 -3 6 56.95 1.61
1 -3 -6 58.7 1.74
-1 -3 6 60.02 1.44
-1 -3 6 57.85 1.4
1 3 -6 60.27 1.38
-1 3 6 58 1.72
1 3 -6 59.32 1.62
1 3 -6 59.86 1.82
-1 3 6 57.57 1.42
-1 3 6 61.08 1.72
0 -3 -6 0.2 0.22
0 -3 -6 0.25 0.23
0 -3 -6 0.3 0.15
0 -3 6 0.32 0.24
0 -3 6 0.41 0.29
0 -3 -6 0.6 0.28
0 -3 6 0.53 0.24
0 3 6 0.11 0.23
0 3 6 0.48 0.26
0 3 -6 0.41 0.17
0 3 6 0.23 0.2
0 3 6 0.39 0.12
0 3 -6 0.25 0.36
0 3 -6 0.45 0.2
0 3 -6 0.3 0.12
-1 -3 -6 16.19 0.81
-1 -3 -6 17.24 0.96
1 -3 6 16.37 0.78
1 -3 6 15.73 0.67
-1 -3 -6 15.83 0.67
1 -3 6 15.8 0.92
-1 3 -6 17.11 0.49
-1 3 -6 15.89 1.01
1 3 6 16.09 0.83
1 3 6 16.27 0.64
1 3 6 15.97 0.52
-1 3 -6 16.19 0.49
-1 3 -6 16.41 0.76
1 3 6 15.92 0.8
-2 -3 -6 1.3 0.35
-2 -3 -6 2.14 0.5
2 -3 6 1.1 0.4
2 -3 6 1.73 0.38
-2 -3 -6 1.42 0.26
-2 3 -6 1.81 0.17
-2 3 -6 1.75 0.22
2 3 6 2.08 0.33
-2 3 -6 1.14 0.27
2 3 6 1.85 0.35
2 3 6 1.3 0.34
-2 3 -6 1.86 0.59
2 3 6 1.87 0.25
3 -3 6 1.13 0.42
3 -3 6 0.99 0.25
-3 -3 -6 0.72 0.29
-3 -3 -6 1.13 0.34
3 -3 6 1.22 0.34
-3 -3 -6 1.42 0.53
-3 3 -6 1.15 0.12
3 3 6 0.93 0.39
3 3 6 1.32 0.36
-3 3 -6 0.28 0.5
3 3 6 0.71 0.32
-3 3 -6 0.96 0.27
-3 3 -6 1.26 0.34
3 3 6 1.07 0.27
-4 -3 -6 2.26 0.39
-4 -3 -6 3.43 0.67
4 -3 6 3.09 0.67
-4 -3 -6 3.06 0.3
4 -3 6 3.1 0.36
-4 -3 -6 3.49 0.5
4 -3 6 2.64 0.4
-4 3 -6 3.34 0.51
4 3 6 2.83 0.43
4 3 6 3.95 0.61
4 3 6 3.84 0.45
4 3 6 2.72 0.43
-4 3 -6 3.07 0.74
-4 3 -6 3.13 0.38
5 -3 6 0.21 0.51
-5 -3 -6 0.3 0.6
-5 -3 -6 -0.1 0.41
5 -3 6 0.32 0.35
-5 -3 -6 -0.06 0.32
5 -3 6 0.03 0.36
-5 -3 -6 0.07 0.29
-5 3 -6 0.03 0.31
-5 3 -6 0.14 0.66
-5 3 -6 0.56 0.44
5 3 6 0.45 0.4
5 3 6 0.35 0.42
5 3 6 0.06 0.39
-5 3 -6 0.24 0.39
5 3 6 0.74 0.37
6 -3 6 0.47 0.55
6 -3 6 0.29 0.48
-6 -3 -6 0.12 0.72
-6 -3 -6 1 0.47
-6 -3 -6 0.99 0.51
6 -3 6 0.68 0.45
-6 -3 -6 0.83 0.38
-6 3 -6 1.18 0.82
6 3 6 0.32 0.49
6 3 6 0.48 0.21
6 3 6 1.99 0.54
6 3 6 0.87 0.4
-6 3 -6 1.07 0.54
-6 3 -6 0.16 0.46
6 3 6 0.78 0.56
-6 3 -6 0.69 0.44
-7 -3 -6 1.26 0.5
-7 -3 -6 1.4 0.82
7 -3 6 0.84 0.65
-7 -3 -6 1.32 0.66
7 -3 6 1.76 0.55
-7 3 -6 0.75 0.58
-7 3 -6 0.3 0.91
7 3 6 0.66 0.51
-7 3 -6 1.15 0.51
-7 3 -6 0.47 0.62
7 3 6 1.53 0.24
7 3 6 0.75 0.54
7 3 6 0.67 0.7
8 -3 6 -0.19 0.7
-8 -3 -6 0.61 0.94
-8 -3 -6 0.35 0.75
-8 -3 -6 -0.43 0.6
8 -3 6 -0.06 0.55
8 -3 6 1.09 0.78
-8 -3 -6 -0.13 0.62
-8 3 -6 0.37 1.18
8 3 6 0.47 0.79
8 3 6 0.05 0.44
-8 3 -6 -0.25 0.74
8 3 6 0.99 0.89
8 3 6 -0.17 0.59
-8 3 -6 -0.31 0.62
9 -3 6 -0.12 0.62
-9 -3 -6 -0.44 0.97
-9 -3 -6 -0.55 0.73
9 -3 6 0.87 0.97
9 -3 6 -0.29 0.95
-9 -3 -6 1.07 0.93
-9 -3 -6 0.29 1.16
9 3 6 -0.12 0.73
9 3 6 0.28 0.61
-9 3 -6 -0.77 1.04
9 3 6 0.67 1.12
-9 3 -6 0.07 1.33
-9 3 -6 -1.61 0.73
9 3 6 0.26 1
-10 -3 -6 -1.68 2.27
-10 -3 -6 1.93 1.1
10 -3 6 -0.16 1.21
10 -3 6 0.63 0.91
-10 -3 -6 0.81 0.93
-10 -3 -6 -2.54 1.25
10 3 6 1.56 1.49
-10 3 -6 -1 0.91
10 3 6 -0.76 0.8
10 3 6 0.27 0.76
-10 3 -6 0.74 1.71
-10 3 -6 -0.01 1.29
12 -4 -6 2.45 0.66
12 -4 -6 1.25 1.31
12 -4 -6 4.65 1.04
12 4 -6 2.52 0.97
12 4 -6 3.82 1.21
-12 4 6 0.12 0.98
-12 4 6 0.6 0.62
12 4 -6 2.43 0.94
12 4 -6 6.12 1.15
12 4 -6 1.88 1.11
12 4 -6 2.12 1.08
-12 4 6 2.83 1.13
11 -4 -6 0.23 0.92
11 -4 -6 -0.09 0.68
11 -4 -6 -0.24 1.01
11 -4 -6 0.79 0.84
11 -4 -6 -0.59 0.48
11 4 -6 0.37 0.69
11 4 -6 -0.8 0.79
11 4 -6 0.19 0.71
-11 4 6 -0.91 0.84
11 4 -6 0.14 0.85
11 4 -6 -1.39 0.75
11 4 -6 -0.61 0.91
10 -4 -6 -0.83 0.79
10 -4 -6 -0.33 0.44
10 -4 -6 0.23 0.59
10 -4 -6 0.76 0.78
10 -4 -6 0.92 0.64
10 4 -6 -0.56 0.55
-10 4 6 0.67 0.44
10 4 -6 -0.06 0.7
10 4 -6 -0.43 0.65
-10 4 6 0.07 0.55
10 4 -6 0.15 0.5
10 4 -6 -0.18 0.63
10 4 -6 0.14 0.67
-10 4 6 0.15 0.69
9 -4 -6 2.92 0.71
9 -4 -6 4.02 0.61
9 -4 -6 3.84 0.66
9 4 -6 4.78 0.7
9 4 -6 3.18 0.53
9 4 -6 3.48 0.61
9 4 -6 3.22 0.53
9 4 -6 5.13 0.71
8 -4 -6 0.38 0.48
8 -4 -6 1.25 0.5
8 -4 -6 0.74 0.4
-8 4 6 0.51 0.38
-8 4 6 0.9 0.49
8 4 -6 0.92 0.39
8 4 -6 0.71 0.52
8 4 -6 0.95 0.51
8 4 -6 0.63 0.36
8 4 -6 0.27 0.4
-8 4 6 0.4 0.51
8 4 -6 0.83 0.47
7 -4 -6 12.54 0.91
7 -4 -6 12.63 0.94
7 -4 -6 13.72 0.83
7 -4 -6 12.66 0.82
7 4 -6 12.42 0.76
-7 4 6 14.14 0.8
7 4 -6 13.5 0.66
7 4 -6 11.73 0.76
-7 4 6 12.94 0.79
-7 4 6 13.44 0.9
7 4 -6 13.98 0.66
7 4 -6 13.29 0.67
7 4 -6 12.52 0.81
-6 -4 6 2.77 0.4
6 -4 -6 2.68 0.49
6 -4 -6 2.57 0.39
6 -4 -6 2.74 0.46
6 -4 -6 2.96 0.45
-6 -4 6 2.37 0.43
6 4 -6 3.84 0.34
6 4 -6 2.96 0.43
-6 4 6 2.89 0.54
-6 4 6 3.65 0.49
-6 4 6 2.75 0.42
6 4 -6 2.77 0.32
6 4 -6 2.45 0.3
6 4 -6 2.33 0.43
-6 4 6 2.42 0.22
6 4 -6 2.48 0.32
5 -4 -6 1.49 0.37
-5 -4 6 1.37 0.29
5 -4 -6 1.52 0.41
-5 -4 6 1.14 0.36
-5 -4 6 1.31 0.25
5 -4 -6 1.45 0.35
5 -4 -6 0.91 0.29
-5 -4 6 1.32 0.27
-5 -4 6 1.43 0.29
-5 4 6 1.41 0.18
-5 4 6 0.99 0.33
-5 4 6 1.54 0.36
-5 4 6 1.28 0.34
5 4 -6 1.33 0.35
5 4 -6 1.11 0.23
5 4 -6 1.43 0.22
5 4 -6 1.37 0.33
-5 4 6 1.56 0.42
5 4 -6 1.86 0.38
5 4 -6 1.17 0.25
-4 -4 6 9.44 0.44
-4 -4 6 9.25 0.59
4 -4 -6 8.79 0.52
4 -4 -6 9.49 0.59
-4 -4 6 9.64 0.47
4 -4 -6 9.22 0.73
4 -4 -6 9.44 0.64
-4 -4 6 9.8 0.49
-4 -4 6 10.58 0.6
-4 4 6 9.22 0.61
4 4 -6 9.89 0.56
-4 4 6 9.54 0.38
4 4 -6 9.01 0.38
4 4 -6 8.99 0.47
4 4 -6 9.68 0.45
-4 4 6 9.92 0.71
4 4 -6 9.55 0.56
4 4 -6 10.06 0.67
-4 4 6 9.64 0.57
-4 4 6 9.9 0.57
-3 -4 6 18.34 0.83
-3 -4 6 19.51 0.59
3 -4 -6 18.81 0.88
3 -4 -6 18.8 0.64
-3 -4 6 18.43 0.71
3 -4 -6 20.19 0.72
-3 -4 6 18.76 0.74
-3 -4 6 18.78 0.58
3 -4 -6 19.3 0.94
3 4 -6 19.04 0.69
-3 4 6 18.9 0.71
-3 4 6 18.82 0.91
3 4 -6 18.64 0.62
3 4 -6 18.99 0.92
-3 4 6 18.69 0.85
-3 4 6 18.91 0.69
3 4 -6 18.12 0.68
3 4 -6 18.57 0.72
2 -4 -6 24.69 0.71
-2 -4 6 23.37 0.71
-2 -4 6 25.9 0.81
2 -4 -6 25.13 0.81
-2 -4 6 24.88 1.03
2 -4 -6 25.26 0.63
2 -4 -6 24.58 1.02
-2 -4 6 25.39 0.9
-2 -4 6 25.61 0.69
2 -4 -6 25.6 1.06
-2 4 6 24.42 1
2 4 -6 24.54 0.75
-2 4 6 24.08 1.05
2 4 -6 24.82 0.88
2 4 -6 24.6 0.74
-2 4 6 26.37 0.79
2 4 -6 24.3 1.1
-1 -4 6 5.16 0.41
1 -4 -6 5.34 0.53
1 -4 -6 3.87 0.54
1 -4 -6 5 0.3
-1 -4 6 4.81 0.56
1 -4 -6 4.22 0.28
-1 -4 6 5.78 0.44
1 -4 -6 5.33 0.38
-1 -4 6 5.61 0.49
1 4 -6 5.43 0.67
1 4 -6 4.66 0.43
1 4 -6 5.54 0.2
-1 4 6 4.65 0.57
-1 4 6 4.91 0.43
-1 4 6 4.72 0.51
0 -4 6 4.29 0.35
0 -4 -6 3.95 0.35
0 -4 -6 4.83 0.53
0 -4 6 4.46 0.47
0 -4 -6 4.3 0.31
0 -4 6 4.38 0.59
0 -4 6 4.97 0.39
0 4 6 4.9 0.36
0 4 6 4.15 0.25
0 4 -6 4.34 0.43
0 4 -6 4.52 0.62
0 4 6 4.57 0.54
0 4 6 3.83 0.5
0 4 -6 4.58 0.22
1 -4 6 23.67 1.18
-1 -4 -6 24.67 0.82
-1 -4 -6 23.64 0.75
-1 -4 -6 24.78 1.06
1 -4 6 24.44 1.02
-1 -4 -6 25.97 1.11
1 4 6 22.96 1.02
-1 4 -6 23.51 0.98
1 4 6 24.05 0.78
-1 4 -6 24.78 0.64
1 4 6 24.17 1.05
1 4 6 24.74 0.7
-1 4 -6 24.92 1.28
-2 -4 -6 2.16 0.41
2 -4 6 1.9 0.45
2 -4 6 2.28 0.4
-2 -4 -6 1.83 0.49
2 4 6 2.7 0.28
2 4 6 2.16 0.32
-2 4 -6 1.78 0.34
-2 4 -6 2.65 0.25
2 4 6 2.63 0.46
2 4 6 2.05 0.41
-2 4 -6 3.15 0.69
-3 -4 -6 25.3 0.68
-3 -4 -6 26.25 1.3
-3 -4 -6 24.18 0.84
3 -4 6 24.9 1.35
3 -4 6 24.87 0.76
-3 -4 -6 24.86 1.13
3 -4 6 25.49 1.12
-3 4 -6 25.36 1.1
3 4 6 26.2 0.9
-3 4 -6 25.45 0.78
3 4 6 24.72 1.09
3 4 6 25.52 0.84
3 4 6 25.27 1.16
-3 4 -6 25.97 1.45
4 -4 6 0.48 0.33
-4 -4 -6 0 0.34
-4 -4 -6 0.19 0.33
4 -4 6 0.19 0.29
4 -4 6 0.99 0.6
-4 -4 -6 0.51 0.23
-4 -4 -6 0.78 0.52
-4 4 -6 0.01 0.33
4 4 6 0.42 0.31
4 4 6 0.34 0.41
-4 4 -6 0.19 0.13
-4 4 -6 0.24 0.61
4 4 6 0.11 0.35
-4 4 -6 0.21 0.31
4 4 6 0.17 0.33
5 -4 6 3.21 0.66
-5 -4 -6 4.76 0.37
5 -4 6 4.92 0.67
-5 -4 -6 5.13 0.71
-5 -4 -6 5.59 0.89
-5 -4 -6 5.07 0.57
5 -4 6 4.99 0.48
-5 4 -6 5.86 0.95
5 4 6 5.19 0.53
5 4 6 5.24 0.69
-5 4 -6 5.16 0.51
5 4 6 5.1 0.68
5 4 6 5.41 0.57
6 -4 6 5.51 0.57
6 -4 6 5.74 0.8
-6 -4 -6 6.49 0.68
-6 -4 -6 5.37 0.7
6 -4 6 5.17 0.91
-6 -4 -6 5.16 0.47
-6 -4 -6 5.94 0.99
-6 4 -6 5.54 0.7
-6 4 -6 6.47 0.64
6 4 6 6.29 0.76
6 4 6 5.59 0.67
-6 4 -6 8.3 1.19
6 4 6 4.98 0.62
7 -4 6 1.49 0.75
-7 -4 -6 0.02 0.82
-7 -4 -6 2.87 0.68
7 -4 6 2.1 0.64
-7 -4 -6 1.84 0.5
-7 4 -6 1.79 0.67
7 4 6 3.06 0.74
7 4 6 2.05 0.53
-7 4 -6 2.28 0.59
7 4 6 1.37 0.32
-7 4 -6 2.59 1.1
7 4 6 1.87 0.62
7 4 6 2.36 0.65
8 -4 6 0.79 0.63
-8 -4 -6 0 0.6
-8 -4 -6 -0.11 1.06
8 -4 6 0.15 0.91
8 -4 6 0.13 0.76
-8 -4 -6 -0.83 0.59
-8 -4 -6 0.36 0.82
8 4 6 0.14 0.74
8 4 6 -0.33 0.57
8 4 6 0.22 0.34
-8 4 -6 -0.76 1.2
8 4 6 1.02 0.56
8 4 6 -1.01 0.84
-8 4 -6 -0.35 0.82
9 -4 6 1.19 1
9 -4 6 2.73 1.15
-9 -4 -6 1.49 0.82
-9 -4 -6 3.04 0.88
-9 -4 -6 0.2 1.19
-9 -4 -6 0.56 1.07
9 -4 6 1.12 0.82
-9 4 -6 -0.67 1.37
9 4 6 2.16 0.76
9 4 6 0.54 1.14
9 4 6 2.55 0.35
-9 4 -6 1.82 0.9
9 4 6 1.51 0.73
-9 4 -6 1.65 1.12
9 4 6 2.56 1.04
10 -4 6 -0.3 1.21
-10 -4 -6 -0.24 1.32
10 -4 6 2.56 1
-10 -4 -6 1.62 1.07
-10 -4 -6 0.33 1.01
10 4 6 0.88 1.48
10 4 6 3.03 0.84
-10 4 -6 1.13 1.83
-10 4 -6 -0.87 1.32
10 4 6 0.33 1.1
12 -5 -6 0.6 0.71
12 -5 -6 -0.18 1.4
12 -5 -6 0.25 0.88
-12 5 6 -0.78 1.19
12 5 -6 -0.46 0.95
12 5 -6 1.43 1.08
12 5 -6 0.79 1.13
12 5 -6 -1.8 1.22
12 5 -6 1.78 0.94
12 5 -6 -1.44 1.1
-12 5 6 -0.64 0.64
11 -5 -6 3.62 1.01
11 -5 -6 -0.04 0.62
11 -5 -6 -1.36 1.03
11 -5 -6 1.71 0.98
11 -5 -6 -0.71 0.78
11 5 -6 0.55 0.96
-11 5 6 0.6 0.77
11 5 -6 1.31 0.86
11 5 -6 0.41 0.88
11 5 -6 0.52 0.7
11 5 -6 0.43 0.72
11 5 -6 1.71 0.95
-11 5 6 -0.16 0.91
-11 5 6 0.15 0.55
10 -5 -6 0.19 0.58
10 -5 -6 1.05 0.7
10 -5 -6 -0.4 0.81
10 -5 -6 -0.43 0.84
10 -5 -6 -0.23 0.73
-10 5 6 -0.5 0.67
-10 5 6 -0.64 0.71
10 5 -6 0.4 0.78
10 5 -6 -0.44 0.76
10 5 -6 1.22 0.72
10 5 -6 -0.07 0.62
10 5 -6 -1.43 0.57
10 5 -6 0.78 0.57
9 -5 -6 -0.01 0.43
9 -5 -6 0.44 0.72
9 -5 -6 -0.12 0.61
9 -5 -6 0.5 0.57
9 5 -6 0.85 0.45
-9 5 6 -0.55 0.42
9 5 -6 0.32 0.45
-9 5 6 0.53 0.61
9 5 -6 0.31 0.53
-9 5 6 -0.45 0.67
-9 5 6 -0.27 0.56
9 5 -6 0.02 0.59
9 5 -6 -0.2 0.62
8 -5 -6 0.64 0.55
8 -5 -6 -0.07 0.56
8 -5 -6 -0.4 0.5
8 -5 -6 -0.26 0.4
8 5 -6 0.34 0.38
8 5 -6 -0.69 0.36
8 5 -6 -0.06 0.47
-8 5 6 0.13 0.55
8 5 -6 -0.21 0.4
-8 5 6 -0.56 0.5
-8 5 6 -0.2 0.39
-8 5 6 0.19 0.5
8 5 -6 -0.52 0.49
8 5 -6 -0.33 0.47
7 -5 -6 8.56 0.71
7 -5 -6 7.37 0.93
7 -5 -6 6.92 0.72
7 -5 -6 8 0.66
-7 5 6 8.09 0.75
7 5 -6 7.8 0.75
-7 5 6 7.14 0.9
7 5 -6 8.39 0.73
7 5 -6 9.2 0.6
-7 5 6 8.5 0.68
-7 5 6 10.33 0.82
7 5 -6 7.78 0.58
7 5 -6 9.29 0.71
7 5 -6 7.91 0.6
6 -5 -6 1.88 0.47
6 -5 -6 2.72 0.56
6 -5 -6 3.36 0.45
6 -5 -6 2.96 0.48
-6 -5 6 3.04 0.53
-6 -5 6 2.84 0.42
-6 -5 6 3.06 0.31
-6 -5 6 2.71 0.32
6 5 -6 2.22 0.42
6 5 -6 3.04 0.32
6 5 -6 3.31 0.43
6 5 -6 2.25 0.47
6 5 -6 2.89 0.34
-6 5 6 3.69 0.63
6 5 -6 2.68 0.3
-6 5 6 3.34 0.51
-6 5 6 3.34 0.48
6 5 -6 2.91 0.32
-5 -5 6 2.07 0.33
5 -5 -6 1.33 0.41
5 -5 -6 1.93 0.39
-5 -5 6 1.9 0.39
5 -5 -6 2.34 0.38
-5 -5 6 1.9 0.25
-5 -5 6 2.36 0.38
5 -5 -6 1.56 0.41
-5 5 6 1.18 0.32
-5 5 6 1.72 0.38
5 5 -6 1.93 0.39
-5 5 6 1.69 0.47
5 5 -6 1.84 0.24
-5 5 6 2.11 0.18
5 5 -6 2.65 0.43
5 5 -6 1.77 0.26
5 5 -6 2.05 0.38
5 5 -6 2.06 0.28
5 5 -6 2.36 0.25
4 -5 -6 2.45 0.41
-4 -5 6 2.27 0.31
4 -5 -6 2.16 0.39
-4 -5 6 1.86 0.3
-4 -5 6 2.04 0.37
-4 -5 6 2.14 0.24
4 -5 -6 2.53 0.48
4 -5 -6 1.91 0.3
-4 -5 6 1.89 0.4
-4 5 6 2.3 0.41
4 5 -6 2.05 0.46
-4 5 6 2.26 0.37
4 5 -6 2.36 0.37
4 5 -6 2.12 0.26
-4 5 6 1.94 0.5
4 5 -6 2.21 0.31
4 5 -6 2.03 0.19
-4 5 6 1.8 0.36
4 5 -6 2.38 0.36
-3 -5 6 0.08 0.26
3 -5 -6 -0.12 0.23
3 -5 -6 -0.03 0.27
-3 -5 6 -0.32 0.27
3 -5 -6 0.07 0.23
-3 -5 6 0.12 0.19
-3 -5 6 0.07 0.17
-3 -5 6 0.08 0.18
3 -5 -6 0.12 0.33
-3 5 6 -0.04 0.26
3 5 -6 0 0.25
-3 5 6 -0.19 0.2
3 5 -6 0.18 0.33
3 5 -6 0.01 0.1
3 5 -6 0.11 0.2
3 5 -6 -0.16 0.17
-3 5 6 -0.05 0.29
-2 -5 6 9.04 0.56
-2 -5 6 8.78 0.58
-2 -5 6 9.08 0.45
2 -5 -6 9.13 0.37
2 -5 -6 8.71 0.42
2 -5 -6 9.88 0.57
2 -5 -6 9.19 0.72
-2 -5 6 9.8 0.7
-2 -5 6 9.19 0.42
2 -5 -6 9.33 0.72
2 5 -6 8.15 0.79
-2 5 6 9.98 0.54
-2 5 6 8.6 0.72
2 5 -6 9.54 0.54
-2 5 6 9.75 0.68
2 5 -6 8.86 0.55
-1 -5 6 2.26 0.32
-1 -5 6 2.55 0.3
1 -5 -6 2.4 0.21
1 -5 -6 2.12 0.22
-1 -5 6 2.12 0.44
-1 -5 6 2.77 0.43
1 -5 -6 1.9 0.29
1 -5 -6 2.76 0.49
1 -5 -6 2.52 0.48
-1 5 6 2.18 0.44
1 5 -6 3.39 0.42
1 5 -6 1.82 0.43
-1 5 6 2.24 0.3
-1 5 6 1.86 0.35
0 -5 -6 3.95 0.37
0 -5 6 3.03 0.47
0 -5 -6 4.26 0.25
0 -5 -6 4.2 0.36
0 -5 6 4.2 0.37
0 -5 -6 4.59 0.6
0 -5 6 4 0.36
0 -5 -6 5.05 0.6
0 -5 6 5.3 0.53
0 5 -6 4.45 0.69
0 5 -6 3.68 0.2
0 5 6 3.56 0.58
0 5 -6 4.63 0.49
0 5 6 3.09 0.31
0 5 6 3 0.45
1 -5 6 9.37 0.68
-1 -5 -6 8.86 0.75
-1 -5 -6 8.52 0.7
-1 -5 -6 8.56 0.59
1 -5 6 9.45 0.54
-1 -5 -6 10.04 0.51
-1 5 -6 9.4 0.67
1 5 6 8.89 0.71
-1 5 -6 9.98 0.98
1 5 6 9.14 0.42
1 5 6 10.56 0.71
-1 5 -6 9.62 0.36
1 5 6 9.73 0.56
2 -5 6 0.2 0.32
-2 -5 -6 0.06 0.32
-2 -5 -6 -0.1 0.27
2 -5 6 0.35 0.36
-2 -5 -6 -0.18 0.3
-2 5 -6 -0.1 0.26
-2 5 -6 0.01 0.19
2 5 6 0.63 0.29
-2 5 -6 -0.24 0.46
2 5 6 0.08 0.21
2 5 6 0.07 0.28
2 5 6 0.15 0.27
-3 -5 -6 1.01 0.43
3 -5 6 1.4 0.27
-3 -5 -6 1.51 0.36
3 -5 6 1.41 0.61
-3 -5 -6 1.36 0.6
3 -5 6 1.1 0.44
-3 -5 -6 1.57 0.18
3 5 6 1.54 0.3
3 5 6 1.29 0.46
-3 5 -6 0.78 0.62
-3 5 -6 1.7 0.49
3 5 6 0.65 0.37
-3 5 -6 1.11 0.26
3 5 6 1.53 0.36
-4 -5 -6 2.03 0.65
4 -5 6 1.18 0.32
-4 -5 -6 0.49 0.41
-4 -5 -6 1.01 0.41
4 -5 6 1.29 0.48
4 -5 6 1.84 0.69
-4 -5 -6 1.31 0.22
-4 5 -6 0.85 0.68
-4 5 -6 1.11 0.33
4 5 6 1.28 0.45
4 5 6 1.16 0.4
4 5 6 1.08 0.36
4 5 6 1.62 0.42
5 -5 6 4.28 0.81
-5 -5 -6 4.9 0.88
-5 -5 -6 4.54 0.67
-5 -5 -6 4.66 0.35
5 -5 6 4.22 0.48
-5 -5 -6 4.73 0.68
5 5 6 4.89 0.58
-5 5 -6 4.3 0.3
5 5 6 4.65 0.64
5 5 6 4.35 0.64
-5 5 -6 6.32 1.11
5 5 6 4.32 0.55
-6 -5 -6 1.73 0.82
-6 -5 -6 1.35 0.61
-6 -5 -6 -0.24 0.51
6 -5 6 0.56 0.76
6 -5 6 0.63 0.49
6 -5 6 1.16 0.53
-6 -5 -6 0.93 0.36
6 5 6 0.41 0.57
6 5 6 0.93 0.48
6 5 6 0.88 0.5
-6 5 -6 2.2 0.97
-6 5 -6 0.55 0.61
7 -5 6 0.68 0.54
-7 -5 -6 -0.38 0.68
-7 -5 -6 0.37 0.45
-7 -5 -6 0.72 0.85
7 -5 6 1.79 0.91
-7 -5 -6 -0.54 0.6
-7 5 -6 0.56 1.08
-7 5 -6 0.41 0.7
-7 5 -6 0.05 0.58
7 5 6 -0.26 0.46
7 5 6 -1.12 0.57
7 5 6 -0.53 0.5
8 -5 6 -0.05 0.6
-8 -5 -6 0.07 0.58
-8 -5 -6 0.44 1.05
-8 -5 -6 -0.61 0.73
8 -5 6 0.42 0.79
8 -5 6 -1.25 0.86
-8 -5 -6 0.24 0.83
-8 5 -6 -0.35 1.26
-8 5 -6 -0.11 0.91
8 5 6 0.75 0.87
8 5 6 0.88 0.59
8 5 6 0.93 0.64
8 5 6 0.23 0.44
8 5 6 0.32 0.83
-8 5 -6 1.51 0.73
9 -5 6 1.07 1.16
-9 -5 -6 1.43 1.34
-9 -5 -6 1.09 0.76
9 -5 6 0.32 0.78
9 -5 6 1.12 1.06
-9 -5 -6 0.64 1.15
-9 -5 -6 0.33 0.84
9 5 6 -0.92 0.48
-9 5 -6 0.17 1.54
9 5 6 0.01 0.74
-9 5 -6 1.7 1.14
-9 5 -6 -0.75 0.83
9 5 6 0.61 1.02
9 5 6 -0.58 1.14
9 5 6 -0.14 0.69
10 -5 6 6.1 1.59
10 -5 6 3.84 1.09
-10 -5 -6 1.12 1.06
-10 5 -6 1.61 1.51
-10 5 -6 -0.93 1.88
10 5 6 3.2 0.89
10 5 6 -1.68 1.47
12 -6 -6 -1.05 1.49
12 -6 -6 1.76 0.85
12 6 -6 -2.39 1.41
12 6 -6 0.97 1.37
-12 6 6 1.81 1.32
12 6 -6 0.52 1.14
12 6 -6 -0.5 1.05
-12 6 6 -0.55 0.77
12 6 -6 0.89 1.16
12 6 -6 0.01 0.91
11 -6 -6 -1.15 1.02
11 -6 -6 1.91 1.04
11 -6 -6 0.65 1.17
11 -6 -6 -0.2 0.73
-11 6 6 -0.02 0.92
-11 6 6 -0.21 0.69
11 6 -6 -1.02 1.01
11 6 -6 -0.89 0.88
11 6 -6 -0.74 0.89
-11 6 6 -0.19 0.99
11 6 -6 -0.37 1.06
11 6 -6 -1.14 0.8
11 6 -6 0.17 0.71
10 -6 -6 0 0.82
10 -6 -6 0.57 0.79
10 -6 -6 -0.72 0.91
10 -6 -6 0.02 0.59
10 -6 -6 0.44 0.92
10 6 -6 0.34 0.54
-10 6 6 1.36 0.6
10 6 -6 0.86 0.66
-10 6 6 0.15 0.84
-10 6 6 0.29 0.79
-10 6 6 -0.65 0.88
10 6 -6 0.84 0.76
10 6 -6 1.22 0.65
10 6 -6 2.01 0.89
10 6 -6 -0.09 0.87
9 -6 -6 0 0.61
9 -6 -6 -0.92 0.67
9 -6 -6 -0.4 0.45
9 -6 -6 1.05 0.76
-9 6 6 -0.88 0.7
-9 6 6 -0.38 0.69
9 6 -6 0.33 0.69
9 6 -6 -0.39 0.59
9 6 -6 0.14 0.5
9 6 -6 0.65 0.69
9 6 -6 -0.24 0.86
9 6 -6 0.17 0.45
-9 6 6 0.27 0.67
8 -6 -6 0.78 0.46
8 -6 -6 -0.47 0.6
8 -6 -6 0.61 0.63
-8 6 6 1.45 0.69
8 6 -6 0.82 0.51
8 6 -6 0.38 0.41
8 6 -6 0.65 0.38
8 6 -6 -0.39 0.51
-8 6 6 1.15 0.6
8 6 -6 0.44 0.43
-8 6 6 0.96 0.51
8 6 -6 0.95 0.6
-8 6 6 0.29 0.64
7 -6 -6 -0.03 0.7
7 -6 -6 0.04 0.47
-7 -6 6 -0.57 0.46
7 -6 -6 0.4 0.4
-7 6 6 -0.17 0.52
-7 6 6 0.49 0.51
7 6 -6 0.09 0.41
7 6 -6 0.13 0.31
7 6 -6 0.95 0.51
-7 6 6 0.03 0.4
-7 6 6 -0.15 0.46
7 6 -6 0.1 0.49
7 6 -6 0.06 0.31
7 6 -6 0.62 0.32
6 -6 -6 17.16 0.96
6 -6 -6 16.51 1.18
-6 -6 6 16.07 0.84
6 -6 -6 15.71 0.98
6 -6 -6 16.05 0.86
-6 -6 6 15.98 0.64
-6 -6 6 16.18 0.75
-6 6 6 17.32 0.92
6 6 -6 15.5 0.91
6 6 -6 16.64 0.83
-6 6 6 17.07 1.18
-6 6 6 16.55 0.85
6 6 -6 15.98 0.63
6 6 -6 15.8 0.62
6 6 -6 17.12 0.69
6 6 -6 16.22 0.92
6 6 -6 16.08 0.65
-6 6 6 15.59 0.95
5 -6 -6 9.59 0.76
-5 -6 6 8.58 0.44
-5 -6 6 9 0.62
-5 -6 6 8.82 0.68
5 -6 -6 9.21 0.91
5 -6 -6 8.59 0.66
-5 -6 6 9.27 0.74
5 -6 -6 10.22 0.8
-5 6 6 9.66 0.94
5 6 -6 8.86 0.76
5 6 -6 8.84 0.48
5 6 -6 8.73 0.51
5 6 -6 7.32 0.68
5 6 -6 8.62 0.7
-5 6 6 8.51 0.3
-5 6 6 8.68 0.7
-5 6 6 9.44 0.78
5 6 -6 8.07 0.4
4 -6 -6 3.94 0.39
-4 -6 6 4.08 0.39
4 -6 -6 3.54 0.56
-4 -6 6 3.91 0.45
-4 -6 6 3.43 0.51
-4 -6 6 3.79 0.27
4 -6 -6 4.68 0.73
-4 -6 6 3.08 0.44
4 -6 -6 3.43 0.43
4 6 -6 2.94 0.4
-4 6 6 2.36 0.4
4 6 -6 3.28 0.56
-4 6 6 2.95 0.56
4 6 -6 3.67 0.24
-4 6 6 3.86 0.44
4 6 -6 2.88 0.27
4 6 -6 2.87 0.41
-3 -6 6 14.96 0.9
3 -6 -6 15.1 0.91
-3 -6 6 16.24 0.78
-3 -6 6 15.88 0.62
-3 -6 6 16.23 0.55
-3 -6 6 15.83 0.76
3 -6 -6 17.02 0.63
3 -6 -6 16.93 1.06
3 -6 -6 17.55 0.73
3 6 -6 15.71 0.75
-3 6 6 18.12 0.72
3 6 -6 16.24 0.73
-3 6 6 16.69 0.93
-3 6 6 16.34 1.04
3 6 -6 15.55 0.98
2 -6 -6 0.12 0.18
-2 -6 6 0.3 0.22
2 -6 -6 0.44 0.31
-2 -6 6 0.07 0.25
2 -6 -6 0.31 0.36
2 -6 -6 0.26 0.2
-2 -6 6 0.14 0.28
-2 -6 6 -0.19 0.29
-2 -6 6 0.58 0.21
2 -6 -6 0.44 0.3
2 6 -6 0.15 0.24
-2 6 6 0.1 0.29
-2 6 6 0.4 0.26
2 6 -6 -0.23 0.41
2 6 -6 0.03 0.28
-2 6 6 0.14 0.27
1 -6 -6 11.3 0.41
-1 -6 6 12.08 0.72
-1 -6 6 10.92 0.86
1 -6 -6 11.76 0.87
-1 -6 6 10.29 0.57
1 -6 -6 9.07 0.78
1 -6 -6 11.12 0.6
1 -6 -6 11.61 0.48
-1 -6 6 10.54 0.61
1 6 -6 10.95 0.97
-1 6 6 10.57 0.57
1 6 -6 10.72 0.68
-1 6 6 11.74 0.88
0 -6 -6 1.2 0.44
0 -6 -6 0.99 0.24
0 -6 6 0.69 0.29
0 -6 -6 0.92 0.31
0 -6 -6 0.96 0.34
0 -6 6 0.73 0.38
0 -6 6 0.96 0.32
0 -6 6 0.76 0.29
0 6 6 1.13 0.36
0 6 6 0.82 0.32
0 6 6 0.75 0.28
0 6 -6 1 0.3
0 6 -6 0.35 0.44
-1 -6 -6 1.58 0.29
-1 -6 -6 2.39 0.38
-1 -6 -6 2.06 0.49
1 -6 6 2.39 0.48
1 -6 6 1.81 0.56
-1 -6 -6 2.23 0.49
1 -6 6 1.56 0.33
-1 6 -6 1.42 0.56
1 6 6 2.15 0.3
1 6 6 1.34 0.43
1 6 6 1.31 0.32
-1 6 -6 1.52 0.32
1 6 6 1.77 0.25
2 -6 6 1.19 0.2
2 -6 6 0.79 0.49
2 -6 6 0.89 0.31
-2 -6 -6 0.72 0.33
-2 -6 -6 1.07 0.43
2 -6 6 1.39 0.41
-2 -6 -6 2.28 0.52
2 6 6 0.09 0.36
2 6 6 0.87 0.33
2 6 6 0.97 0.25
2 6 6 1.1 0.44
-2 6 -6 1.05 0.62
-2 6 -6 1.53 0.43
3 -6 6 1.62 0.64
-3 -6 -6 0.34 0.4
3 -6 6 0.44 0.38
-3 -6 -6 0.8 0.39
-3 -6 -6 -0.01 0.42
3 -6 6 0.54 0.26
3 -6 6 0.34 0.34
3 6 6 -0.02 0.32
3 6 6 -0.01 0.28
-3 6 -6 0.55 0.4
-3 6 -6 0.19 0.67
3 6 6 0.6 0.31
3 6 6 0.94 0.42
4 -6 6 1.32 0.49
-4 -6 -6 1.07 0.45
-4 -6 -6 1.21 0.16
4 -6 6 0.08 0.63
4 -6 6 0.99 0.33
-4 -6 -6 0.97 0.6
4 6 6 1.49 0.51
4 6 6 1.25 0.4
4 6 6 1.09 0.42
-4 6 -6 1.45 0.79
4 6 6 1.16 0.43
-4 6 -6 1.03 0.53
-5 -6 -6 9.17 0.95
5 -6 6 7.23 0.56
5 -6 6 9.25 1.27
-5 -6 -6 6.47 0.65
5 -6 6 7.5 0.87
-5 -6 -6 10.77 1.27
-5 -6 -6 7.34 0.44
-5 6 -6 8.09 1.26
-5 6 -6 6.59 0.71
5 6 6 8.2 0.75
5 6 6 7.77 0.63
5 6 6 8.59 0.88
5 6 6 8.22 1.11
-6 -6 -6 8.17 0.78
6 -6 6 10.48 0.91
6 -6 6 6.02 0.92
-6 -6 -6 8.05 1.12
6 -6 6 9.11 1.01
6 6 6 7.45 0.93
6 6 6 8.68 0.94
6 6 6 7.63 0.69
-6 6 -6 10.86 1.4
-6 6 -6 8.59 0.81
-7 -6 -6 -0.46 0.65
7 -6 6 -0.41 0.87
7 -6 6 0.96 0.61
-7 -6 -6 0.42 0.78
-7 -6 -6 1.17 0.99
7 6 6 1.07 0.56
7 6 6 1.71 0.62
7 6 6 -0.83 0.75
7 6 6 0.68 0.67
-7 6 -6 0.68 1.17
-7 6 -6 0.46 0.77
-8 -6 -6 0.96 0.97
8 -6 6 0.21 0.84
8 -6 6 1.85 1.07
-8 -6 -6 -0.86 1.08
8 -6 6 1.73 0.76
-8 -6 -6 0.27 0.78
-8 6 -6 2.96 1.51
8 6 6 1.82 0.72
-8 6 -6 -0.03 0.77
-8 6 -6 0.98 0.98
8 6 6 1.66 0.87
8 6 6 0.91 0.88
8 6 6 0.79 0.53
8 6 6 1.41 0.65
9 -6 6 1.56 0.8
9 -6 6 -0.69 1.13
-9 -6 -6 -0.64 1.34
-9 -6 -6 2.75 1.22
-9 -6 -6 -1.65 0.9
9 -6 6 -0.55 1.53
9 6 6 1.2 1.25
9 6 6 1.09 0.6
9 6 6 1.53 1.13
-9 6 -6 0.17 1.16
-9 6 -6 1.72 1.19
-9 6 -6 1.25 1.64
9 6 6 1.5 0.76
9 6 6 2.51 0.81
11 -7 -6 0.3 2.09
11 -7 -6 -0.32 1.37
11 -7 -6 -0.13 1.07
11 -7 -6 1.35 1.59
11 -7 -6 -1.33 0.78
-11 7 6 1.89 1.2
11 7 -6 -1.13 0.93
11 7 -6 1.7 0.95
11 7 -6 -0.28 0.71
-11 7 6 0.31 0.89
11 7 -6 0.63 1.19
11 7 -6 0.71 0.8
-11 7 6 -1.41 1.12
-11 7 6 0.64 1.18
11 7 -6 -0.89 1.13
10 -7 -6 2.17 0.95
10 -7 -6 0.5 0.88
10 -7 -6 0.7 0.9
10 -7 -6 1.76 1.12
10 -7 -6 3.51 0.82
-10 7 6 3.31 0.82
10 7 -6 1.92 0.59
-10 7 6 -0.62 0.89
10 7 -6 2.55 0.84
10 7 -6 2.62 0.73
10 7 -6 2.95 0.72
-10 7 6 1.77 0.98
10 7 -6 2.11 0.92
-10 7 6 1.77 0.98
10 7 -6 1.48 0.97
9 -7 -6 1.46 0.92
9 -7 -6 0.34 0.76
9 -7 -6 1.55 0.74
9 -7 -6 0.55 0.6
9 7 -6 0.66 0.65
9 7 -6 0.44 0.44
-9 7 6 0.59 0.78
9 7 -6 0.98 0.57
-9 7 6 1.52 0.79
-9 7 6 0.93 0.79
9 7 -6 0.9 0.79
9 7 -6 1.1 0.78
9 7 -6 1.07 0.63
-9 7 6 0.61 0.58
8 -7 -6 0.98 0.74
-8 -7 6 0.64 0.67
8 -7 -6 0.9 0.71
8 -7 -6 0.74 0.53
-8 7 6 0.44 0.76
8 7 -6 0.18 0.35
-8 7 6 1.04 0.58
-8 7 6 0.9 0.65
-8 7 6 0.31 0.63
8 7 -6 1.29 0.66
8 7 -6 0.65 0.43
8 7 -6 0.68 0.45
8 7 -6 0.32 0.64
7 -7 -6 5.17 0.83
7 -7 -6 4.77 0.65
7 -7 -6 3.59 0.55
-7 -7 6 2.9 0.59
7 -7 -6 4.32 0.68
7 7 -6 4.84 0.37
-7 7 6 4.9 0.84
7 7 -6 5.01 0.59
-7 7 6 3.18 0.79
7 7 -6 4.18 0.52
7 7 -6 1.02 0.86
7 7 -6 4.47 0.65
7 7 -6 4.8 0.45
-7 7 6 5.19 0.68
7 7 -6 5.31 0.43
6 -7 -6 2.52 0.5
-6 -7 6 2.35 0.43
-6 -7 6 3.38 0.54
-6 -7 6 2.31 0.48
6 -7 -6 2.8 0.57
6 -7 -6 3.45 0.63
6 -7 -6 2.35 0.6
-6 7 6 1.84 0.64
-6 7 6 2.05 0.55
6 7 -6 2.15 0.41
6 7 -6 2.4 0.29
6 7 -6 2.38 0.3
-6 7 6 2.04 0.5
6 7 -6 2.28 0.55
6 7 -6 2.59 0.51
-6 7 6 2.95 0.58
5 -7 -6 10.24 0.86
5 -7 -6 8.95 0.98
-5 -7 6 9.34 0.78
-5 -7 6 10.32 0.86
-5 -7 6 10.2 0.72
-5 -7 6 9.83 0.6
5 -7 -6 8.96 0.67
5 -7 -6 9.04 0.88
-5 7 6 9.5 0.71
5 7 -6 8.82 0.41
5 7 -6 8.93 0.85
5 7 -6 9.44 0.58
-5 7 6 10.45 1.06
-5 7 6 9.7 0.81
-5 7 6 9.25 0.7
5 7 -6 8.36 0.71
-4 -7 6 0.02 0.38
4 -7 -6 -0.04 0.47
-4 -7 6 -0.1 0.22
-4 -7 6 -0.08 0.4
-4 -7 6 0.35 0.18
4 -7 -6 -0.14 0.28
-4 -7 6 -0.03 0.31
4 -7 -6 -0.54 0.3
4 -7 -6 0.48 0.41
-4 7 6 -0.01 0.49
-4 7 6 0.1 0.32
4 7 -6 -0.12 0.25
4 7 -6 0.12 0.38
-4 7 6 0.29 0.36
4 7 -6 -0.3 0.43
-3 -7 6 8.57 0.81
3 -7 -6 10.26 0.71
-3 -7 6 9.62 0.57
3 -7 -6 10.08 0.53
3 -7 -6 9.56 0.83
-3 -7 6 9.67 0.72
-3 -7 6 9.89 0.68
-3 -7 6 9.46 0.45
3 -7 -6 10.27 1
-3 7 6 11.15 1.01
3 7 -6 9.92 0.67
3 7 -6 9.53 0.94
3 7 -6 10.8 0.69
-3 7 6 10.31 0.81
-3 7 6 9.04 0.66
2 -7 -6 2.72 0.52
2 -7 -6 2.17 0.49
-2 -7 6 1.83 0.3
2 -7 -6 2.48 0.29
-2 -7 6 2.54 0.42
2 -7 -6 1.97 0.25
-2 -7 6 2.26 0.4
-2 -7 6 2.84 0.61
2 -7 -6 1.94 0.39
-2 -7 6 2.04 0.29
2 7 -6 1.77 0.37
-2 7 6 1.63 0.42
2 7 -6 1.78 0.37
-2 7 6 2.3 0.36
-2 7 6 2.63 0.63
2 7 -6 3.18 0.63
-1 -7 6 0.85 0.34
1 -7 -6 0.58 0.17
1 -7 -6 0.74 0.26
-1 -7 6 0.92 0.48
-1 -7 6 0.78 0.36
1 -7 -6 0.61 0.45
1 -7 -6 0.43 0.32
1 -7 -6 0.46 0.36
-1 -7 6 0.71 0.31
-1 7 6 0.47 0.27
-1 7 6 1.01 0.45
-1 7 6 0.26 0.34
1 7 -6 0.6 0.53
1 7 -6 0.14 0.29
0 -7 -6 8.9 0.86
0 -7 6 7.98 0.64
0 -7 6 9.38 0.74
0 -7 -6 8.33 0.52
0 -7 6 7.67 0.6
0 -7 6 9.1 0.94
0 -7 -6 7.96 0.88
0 -7 -6 8.28 0.65
0 7 -6 9.05 1.05
0 7 6 8.16 0.56
0 7 6 8.77 0.88
0 7 -6 9.63 0.7
-1 -7 -6 1.41 0.46
-1 -7 -6 0.87 0.35
-1 -7 -6 1.12 0.32
1 -7 6 0.58 0.36
1 -7 6 0.1 0.48
-1 -7 -6 0.85 0.45
1 -7 6 1.04 0.34
-1 7 -6 0.94 0.61
1 7 6 0.58 0.41
-1 7 -6 0.4 0.36
1 7 6 0.78 0.3
1 7 6 0.37 0.31
2 -7 6 14.04 1.23
-2 -7 -6 13.34 0.98
-2 -7 -6 12.63 0.77
2 -7 6 14.08 0.49
-2 -7 -6 14.43 1.11
2 -7 6 14.21 0.74
2 -7 6 15.07 0.98
-2 7 -6 14.07 0.91
2 7 6 15.2 0.96
2 7 6 14.22 0.63
-2 7 -6 14.27 1.39
2 7 6 13.58 1
2 7 6 12.89 0.68
-3 -7 -6 0.58 0.44
3 -7 6 0.36 0.27
-3 -7 -6 0 0.45
3 -7 6 0.19 0.35
3 -7 6 0.63 0.55
-3 -7 -6 0.65 0.51
3 -7 6 0.02 0.39
3 7 6 -0.24 0.4
3 7 6 0.94 0.42
-3 7 -6 0.94 0.72
3 7 6 0.12 0.35
3 7 6 0.39 0.31
-3 7 -6 0.57 0.4
4 -7 6 0.2 0.39
-4 -7 -6 0.21 0.52
4 -7 6 0.09 0.68
4 -7 6 0.41 0.33
-4 -7 -6 0.12 0.75
-4 -7 -6 -0.13 0.47
4 7 6 0.3 0.39
4 7 6 -0.03 0.4
4 7 6 0.17 0.43
-4 7 -6 0.2 0.44
-4 7 -6 0.71 0.79
5 -7 6 1.14 0.46
-5 -7 -6 1.17 0.62
-5 -7 -6 1.54 0.79
5 -7 6 0.23 0.54
5 -7 6 0.57 0.75
5 -7 6 -0.04 0.44
5 7 6 0.84 0.49
-5 7 -6 0.52 0.94
5 7 6 0.44 0.56
-5 7 -6 0.83 0.63
5 7 6 0.69 0.49
5 7 6 0.45 0.55
6 -7 6 6.32 1.42
-6 -7 -6 5.58 0.9
6 -7 6 6.12 0.7
6 -7 6 6.96 1.01
-6 -7 -6 5.34 0.8
6 7 6 5.3 0.69
-6 7 -6 6.25 0.86
-6 7 -6 5.7 1.37
6 7 6 5.1 0.79
6 7 6 7.21 0.98
6 7 6 6.21 0.71
7 -7 6 0.66 1.05
-7 -7 -6 0.87 0.83
7 -7 6 1.84 0.84
-7 -7 -6 1.15 1.09
-7 -7 -6 0.35 0.78
7 7 6 0.09 0.62
-7 7 -6 0.2 0.77
7 7 6 0.57 0.71
-7 7 -6 1.56 1.29
7 7 6 -1.05 0.71
-7 7 -6 0.12 0.28
7 7 6 -0.05 0.61
-7 7 -6 1.58 0.77
8 -7 6 0.1 0.9
8 -7 6 0.11 1.07
-8 -7 -6 -0.43 1.19
8 -7 6 1.32 0.79
-8 -7 -6 -0.44 1.01
-8 -7 -6 -0.18 0.88
8 7 6 0.9 0.74
8 7 6 0.32 0.69
-8 7 -6 -0.26 1
8 7 6 0.96 0.87
8 7 6 0 0.89
-8 7 -6 0.22 2.61
-8 7 -6 1.89 0.84
-9 -7 -6 -0.04 1.06
9 -7 6 0.27 1.44
-9 -7 -6 1.8 1.41
9 -7 6 2.99 1.16
9 -7 6 0.58 1.23
9 7 6 3.42 0.9
9 7 6 1.49 0.76
9 7 6 0.39 1.07
-9 7 -6 -1.07 1.99
-9 7 -6 0.14 1.4
9 7 6 0.51 0.87
11 -8 -6 3.73 1.37
11 -8 -6 3.28 1.07
11 -8 -6 2.88 1.5
-11 8 6 -1.73 1.36
11 8 -6 2.95 1.38
11 8 -6 0.45 1.03
-11 8 6 0.63 1.27
-11 8 6 4.21 1.31
11 8 -6 3.7 0.97
11 8 -6 1.68 0.67
11 8 -6 -0.55 1.05
-11 8 6 2.4 1.02
10 -8 -6 4.76 1.25
10 -8 -6 6.33 1.02
10 -8 -6 5.31 1.32
-10 8 6 4.48 1.18
-10 8 6 2.1 1.2
10 8 -6 5.16 0.56
10 8 -6 3.36 1.14
10 8 -6 3.88 0.93
10 8 -6 4.96 1.07
-10 8 6 5.94 0.96
-10 8 6 6.1 1.17
10 8 -6 4.93 0.83
10 8 -6 4.81 0.82
9 -8 -6 -0.93 0.86
9 -8 -6 -0.21 0.72
9 -8 -6 -0.18 0.99
9 -8 -6 0.35 0.86
-9 8 6 1.05 0.82
-9 8 6 0.21 0.9
9 8 -6 1.45 0.69
-9 8 6 0.41 0.62
9 8 -6 -0.01 0.84
-9 8 6 -0.69 0.92
9 8 -6 1.05 0.72
9 8 -6 1.19 0.88
9 8 -6 0.83 0.4
9 8 -6 0.29 0.56
-8 -8 6 2.66 0.78
8 -8 -6 4.71 0.89
8 -8 -6 2.96 0.79
8 -8 -6 3.45 0.86
8 -8 -6 3.44 0.77
8 8 -6 2.82 0.71
-8 8 6 2.66 0.77
8 8 -6 3.92 0.83
8 8 -6 3.48 0.81
-8 8 6 2.97 0.91
8 8 -6 4.2 0.57
8 8 -6 3.14 0.52
-8 8 6 3.25 0.83
8 8 -6 3.81 0.34
-8 8 6 2.89 0.75
-7 -8 6 2.28 0.49
-7 -8 6 2.45 0.66
7 -8 -6 1.23 0.56
7 -8 -6 2.1 0.84
7 -8 -6 1.63 0.7
7 -8 -6 1.68 0.67
7 8 -6 1.99 0.68
-7 8 6 2.16 0.63
7 8 -6 2.16 0.39
-7 8 6 2.62 0.68
-7 8 6 2.99 0.85
7 8 -6 2.06 0.35
-7 8 6 1.45 0.6
7 8 -6 2.54 0.53
6 -8 -6 2.57 0.52
6 -8 -6 2.22 0.76
6 -8 -6 2.39 0.6
-6 -8 6 2.3 0.56
-6 -8 6 2.29 0.58
6 -8 -6 3.55 0.83
-6 8 6 2.04 0.53
-6 8 6 2.68 0.62
6 8 -6 2.46 0.56
-6 8 6 0.81 0.7
6 8 -6 2.14 0.4
-5 -8 6 3.29 0.59
-5 -8 6 2.14 0.62
5 -8 -6 2.48 0.57
5 -8 -6 2.92 0.44
-5 -8 6 2.94 0.42
-5 -8 6 2.87 0.51
5 -8 -6 3.73 0.68
5 -8 -6 3 0.66
5 8 -6 2.8 0.58
5 8 -6 3.25 0.47
-5 8 6 2.59 0.48
5 8 -6 3.59 0.66
-5 8 6 3.15 0.79
-4 -8 6 4.26 0.3
-4 -8 6 4.43 0.5
4 -8 -6 3.5 0.41
4 -8 -6 4.75 0.85
4 -8 -6 4.6 0.56
-4 -8 6 3.67 0.56
-4 -8 6 3.68 0.67
-4 -8 6 4.22 0.54
4 -8 -6 5.49 0.77
4 8 -6 3.87 0.57
4 8 -6 4.09 0.51
-4 8 6 4.59 0.84
-4 8 6 4.68 0.82
4 8 -6 4.21 0.75
3 -8 -6 -0.34 0.44
-3 -8 6 0.05 0.21
-3 -8 6 -0.11 0.31
3 -8 -6 0.51 0.28
3 -8 -6 0.1 0.41
-3 -8 6 0.51 0.46
-3 -8 6 0.13 0.42
3 -8 -6 -0.24 0.4
-3 -8 6 0.43 0.33
-3 8 6 0.39 0.54
3 8 -6 0.1 0.31
-3 8 6 0.13 0.35
-3 8 6 0.58 0.35
3 8 -6 0.47 0.37
3 8 -6 0.03 0.51
-2 -8 6 3.77 0.57
-2 -8 6 3.88 0.51
-2 -8 6 3.56 0.64
2 -8 -6 2.49 0.32
2 -8 -6 2.77 0.3
2 -8 -6 3.54 0.65
-2 -8 6 3.21 0.33
-2 -8 6 3.07 0.38
2 -8 -6 3.3 0.46
2 -8 -6 3.3 0.67
2 8 -6 3.23 0.7
-2 8 6 3.49 0.71
2 8 -6 3.17 0.46
-2 8 6 2.99 0.42
2 8 -6 3.09 0.48
-2 8 6 2.38 0.56
1 -8 -6 2.67 0.6
-1 -8 6 3.09 0.48
-1 -8 6 2.81 0.39
1 -8 -6 2.85 0.42
-1 -8 6 1.75 0.57
1 -8 -6 2.8 0.37
-1 -8 6 2.66 0.46
1 -8 -6 2.75 0.5
-1 8 6 2.78 0.56
1 8 -6 2.58 0.77
-1 8 6 1.75 0.5
-1 8 6 2.03 0.36
1 8 -6 3.32 0.56
0 -8 6 -0.06 0.35
0 -8 -6 -0.01 0.38
0 -8 -6 -0.07 0.29
0 -8 -6 -0.14 0.41
0 -8 6 0.51 0.5
0 -8 6 -0.02 0.39
0 -8 -6 -0.12 0.5
0 -8 6 0.31 0.34
0 8 6 0.44 0.32
0 8 6 0.07 0.29
0 8 -6 0 0.52
0 8 -6 0 0.36
0 8 6 -0.17 0.39
-1 -8 -6 11.94 0.72
-1 -8 -6 11.39 0.97
1 -8 6 12.01 0.96
-1 -8 -6 13.26 1.13
1 -8 6 11.69 0.75
1 -8 6 11.05 1.18
-1 -8 -6 11.95 0.77
1 8 6 14.05 1.07
-1 8 -6 11.26 1.37
1 8 6 12.1 0.67
1 8 6 12.27 0.96
-1 8 -6 12.78 0.93
-2 -8 -6 3.72 0.67
-2 -8 -6 3.9 0.53
2 -8 6 3.7 0.68
2 -8 6 4 0.88
2 -8 6 3.58 0.27
2 -8 6 3.82 0.48
-2 8 -6 5.67 1.03
2 8 6 3.52 0.61
-2 8 -6 3.08 0.58
2 8 6 3.32 0.61
2 8 6 2.97 0.4
3 -8 6 5.69 1.1
-3 -8 -6 6.71 0.89
3 -8 6 6.22 0.55
-3 -8 -6 5.16 0.58
-3 -8 -6 6.52 0.68
3 -8 6 6.76 0.93
-3 -8 -6 5.34 0.72
3 -8 6 6.5 0.49
3 8 6 4.33 0.63
3 8 6 6.89 0.64
-3 8 -6 6.96 0.87
-3 8 -6 6.37 1.05
3 8 6 6.15 1.25
3 8 6 5.64 0.48
-4 -8 -6 1.86 0.58
4 -8 6 2.38 0.63
4 -8 6 1.46 0.8
4 -8 6 1.83 0.39
4 -8 6 0.77 0.45
-4 8 -6 2.79 1.15
-4 8 -6 1.86 0.54
4 8 6 1.23 0.43
4 8 6 1.35 0.6
4 8 6 1.28 0.44
4 8 6 1.36 0.55
-5 -8 -6 1.07 0.91
5 -8 6 1.07 0.49
-5 -8 -6 1.47 0.69
5 -8 6 1 0.76
-5 -8 -6 0.1 0.63
5 -8 6 1.1 0.66
5 -8 6 -0.11 0.48
-5 8 -6 0.25 0.65
5 8 6 0.7 0.52
5 8 6 0.46 0.59
-5 8 -6 -0.53 0.65
5 8 6 -0.01 0.49
-5 8 -6 -0.13 0.98
6 -8 6 0.41 0.54
6 -8 6 0.15 1.09
-6 -8 -6 -0.15 0.94
-6 -8 -6 0.66 0.77
6 -8 6 1.33 0.74
6 -8 6 1.56 0.67
-6 -8 -6 0.94 0.81
-6 8 -6 0.95 0.82
6 8 6 1.01 0.65
6 8 6 2.17 0.6
-6 8 -6 1.32 1.41
-6 8 -6 1.37 0.74
6 8 6 1.85 0.62
6 8 6 1.45 0.68
7 -8 6 0.23 0.8
-7 -8 -6 0.25 0.9
-7 -8 -6 -1.3 1.06
7 -8 6 0.65 1.24
7 -8 6 1.02 0.62
-7 -8 -6 0.1 0.88
-7 8 -6 -1.41 0.71
7 8 6 -0.28 0.76
7 8 6 0.04 0.74
-7 8 -6 -0.12 1.43
-7 8 -6 -0.7 0.9
7 8 6 0.74 0.71
7 8 6 0.67 0.82
-7 8 -6 -0.18 0.43
-8 -8 -6 0.93 1.47
8 -8 6 0.99 0.75
8 -8 6 0.61 0.95
8 -8 6 1.07 1.03
-8 -8 -6 -0.57 1.11
-8 -8 -6 0.04 1.06
8 -8 6 -0.01 1.39
-8 8 -6 0.48 1.22
8 8 6 0.94 0.94
8 8 6 -0.74 1.01
8 8 6 0.29 0.78
-8 8 -6 -2.77 1.83
8 8 6 0.63 0.8
10 -9 -6 4.29 1.03
10 -9 -6 0.36 1.18
10 -9 -6 2.26 1.39
10 9 -6 2.98 1.18
-10 9 6 -0.35 1.3
-10 9 6 3.93 1.02
-10 9 6 1.32 1.16
10 9 -6 2.45 0.79
10 9 -6 2.37 0.96
-10 9 6 1.33 1.23
9 -9 -6 2.14 0.89
9 -9 -6 4.53 1.22
9 -9 -6 3.83 1.09
-9 9 6 2.37 0.96
9 9 -6 4.27 0.71
9 9 -6 4.43 0.83
-9 9 6 4.4 1.02
-9 9 6 3.5 0.93
-9 9 6 -0.03 1.13
9 9 -6 4.7 1.02
9 9 -6 4.14 1.03
8 -9 -6 0.06 0.65
8 -9 -6 0.09 0.92
-8 -9 6 -0.38 0.82
8 -9 -6 -0.24 0.9
-8 9 6 -0.33 0.66
8 9 -6 0.2 0.33
8 9 -6 0.05 0.83
-8 9 6 -0.51 0.8
8 9 -6 -0.24 0.63
8 9 -6 0.08 0.77
-8 9 6 -0.39 0.98
-8 9 6 1.25 0.82
-7 -9 6 1.63 0.7
7 -9 -6 3.05 0.82
7 -9 -6 0.9 0.66
7 -9 -6 1.97 0.99
-7 -9 6 3.79 0.64
7 9 -6 3.71 0.64
-7 9 6 2.27 0.68
-7 9 6 2.44 0.8
-7 9 6 2.75 1.01
7 9 -6 1.96 0.74
-7 9 6 2.77 0.7
6 -9 -6 -0.6 0.58
6 -9 -6 0.66 0.6
-6 -9 6 -0.59 0.59
-6 -9 6 0.15 0.55
6 -9 -6 0.07 0.75
6 -9 -6 0.71 0.66
-6 -9 6 -0.08 0.34
6 9 -6 0.98 0.36
-6 9 6 -0.05 0.53
-6 9 6 -0.41 0.6
6 9 -6 -0.17 0.56
-6 9 6 -0.87 0.68
5 -9 -6 0.73 0.54
5 -9 -6 0.91 0.6
-5 -9 6 1.34 0.4
-5 -9 6 0.32 0.61
-5 -9 6 1.74 0.54
5 -9 -6 0.39 0.69
5 9 -6 -0.02 0.35
-5 9 6 1.57 0.8
5 9 -6 0.95 0.57
-5 9 6 0.75 0.48
-4 -9 6 0.45 0.36
-4 -9 6 0.18 0.62
4 -9 -6 1.11 0.75
4 -9 -6 0.28 0.52
-4 -9 6 0.33 0.45
-4 9 6 0.69 0.5
-4 9 6 0.72 0.23
4 9 -6 0.24 0.49
-4 9 6 -0.05 0.66
-4 9 6 0.46 0.4
4 9 -6 0.91 0.62
4 9 -6 0.62 0.37
3 -9 -6 4.45 0.57
3 -9 -6 3.62 0.64
-3 -9 6 3.94 0.56
3 -9 -6 3.22 0.73
-3 -9 6 3.53 0.26
-3 -9 6 3.2 0.6
-3 -9 6 3.68 0.5
-3 9 6 4.33 0.83
-3 9 6 3.39 0.77
3 9 -6 3.58 0.54
3 9 -6 4.27 0.87
-2 -9 6 4.04 0.47
-2 -9 6 3.14 0.52
2 -9 -6 4.11 0.54
-2 -9 6 4.65 0.6
-2 -9 6 5.17 0.38
2 -9 -6 4.35 0.65
2 -9 -6 4.16 0.42
2 -9 -6 4.54 0.81
2 9 -6 4.7 0.88
2 9 -6 5.31 0.74
2 9 -6 4.87 0.56
-2 9 6 3.13 0.52
-2 9 6 4.43 0.47
-2 9 6 4.41 0.83
-1 -9 6 0.2 0.43
-1 -9 6 -0.14 0.37
1 -9 -6 0.37 0.56
1 -9 -6 0.26 0.48
1 -9 -6 0.54 0.36
1 -9 -6 -0.04 0.38
-1 -9 6 -0.14 0.39
1 9 -6 -0.19 0.71
-1 9 6 0.02 0.42
-1 9 6 0.29 0.34
-1 9 6 -0.23 0.55
1 9 -6 0.01 0.39
0 -9 -6 1.19 0.45
0 -9 6 1.65 0.45
0 -9 -6 0.55 0.68
0 -9 6 1.17 0.45
0 -9 -6 1.3 0.4
0 -9 6 1.99 1
0 -9 -6 0.65 0.52
0 -9 6 1.92 0.48
0 9 6 0.6 0.5
0 9 6 1.29 0.51
0 9 -6 1.35 0.8
0 9 -6 0.77 0.44
0 9 6 1.19 0.36
1 -9 6 1.28 0.68
1 -9 6 0.88 0.45
-1 -9 -6 0.36 0.47
-1 -9 -6 -0.24 0.4
-1 -9 -6 0.11 0.42
1 -9 6 0.49 0.41
-1 9 -6 -0.07 0.74
-1 9 -6 0.68 0.52
1 9 6 0.06 0.35
1 9 6 1.02 0.47
1 9 6 -0.02 0.71
2 -9 6 8.69 0.79
2 -9 6 7.22 0.96
-2 -9 -6 10.54 1.13
2 -9 6 6.54 1.03
-2 -9 -6 8.2 0.69
2 9 6 7.95 1.1
2 9 6 7.63 0.68
2 9 6 9.62 0.97
-2 9 -6 4.34 1.69
3 -9 6 0.54 0.51
-3 -9 -6 0.78 0.69
-3 -9 -6 0.56 0.53
3 -9 6 0.64 0.3
3 -9 6 0.58 0.45
3 -9 6 0.09 0.83
-3 -9 -6 0.93 0.59
-3 9 -6 0.95 1.01
3 9 6 0.68 0.52
3 9 6 1.33 0.65
3 9 6 0.64 0.4
-3 9 -6 0.51 0.5
-4 -9 -6 7.93 1.02
4 -9 6 9.08 1.12
-4 -9 -6 4.78 0.75
4 -9 6 6.92 0.62
-4 -9 -6 8.22 1.06
-4 -9 -6 6.43 0.74
4 -9 6 5.12 1.1
4 -9 6 7 0.51
-4 9 -6 7.87 1.03
-4 9 -6 7.12 1.4
4 9 6 8.33 1.03
4 9 6 5.8 0.85
4 9 6 7.03 0.58
-5 -9 -6 1.3 0.76
5 -9 6 1.1 1.08
-5 -9 -6 2.04 0.87
-5 -9 -6 1.57 1.02
5 -9 6 2.52 0.56
5 -9 6 2.42 0.69
5 -9 6 1.76 0.55
5 9 6 1.61 0.56
5 9 6 2.31 0.66
-5 9 -6 1.77 0.7
5 9 6 1.14 0.7
5 9 6 1.74 0.54
-5 9 -6 2.08 0.77
-5 9 -6 3.79 1.41
-6 -9 -6 0.75 0.87
-6 -9 -6 -0.72 0.89
-6 -9 -6 0.3 1.11
6 -9 6 1.86 1.34
6 -9 6 2.94 0.93
6 -9 6 0.4 0.92
6 -9 6 0.56 0.61
-6 9 -6 1.41 0.94
6 9 6 1.92 0.76
-6 9 -6 0.88 1.46
-6 9 -6 -0.39 0.72
6 9 6 -0.6 0.58
6 9 6 1.18 0.68
6 9 6 0.28 0.73
7 -9 6 2.17 0.97
7 -9 6 2.42 0.71
-7 -9 -6 -0.66 1.3
7 -9 6 1.68 1.38
-7 -9 -6 0.76 1.11
-7 -9 -6 2.47 1.16
7 9 6 2.12 0.87
-7 9 -6 -0.55 1.02
7 9 6 2.64 0.85
7 9 6 1.56 0.82
7 9 6 1.82 0.75
-7 9 -6 1.05 1.75
-7 9 -6 0.66 0.59
-7 9 -6 1.01 0.82
-8 -9 -6 1.18 1.15
8 -9 6 -0.78 1.46
8 -9 6 0.37 1.04
8 -9 6 -1.17 1.11
-8 -9 -6 -3.78 1.29
8 -9 6 1.06 0.81
8 9 6 0.47 0.88
-8 9 -6 1.07 1.38
-8 9 -6 2.68 2.13
8 9 6 2.16 1.03
10 -10 -6 -3.62 2.83
10 -10 -6 -0.87 1.09
10 -10 -6 0.37 1.6
-10 10 6 1.63 1.41
-10 10 6 0.82 1.35
-10 10 6 -0.62 1.57
10 10 -6 1.85 1.04
9 -10 -6 -0.32 0.9
-9 -10 6 -0.27 1.16
9 -10 -6 -0.03 1.24
-9 10 6 -1.33 0.85
-9 10 6 -0.74 1.27
9 10 -6 -0.5 1.13
-9 10 6 1.98 1.09
9 10 -6 1.34 0.85
-9 10 6 0.5 1.11
9 10 -6 1.77 1.14
-8 -10 6 1.35 0.99
8 -10 -6 1.04 0.92
8 -10 -6 3.49 1.05
-8 10 6 3.38 0.99
-8 10 6 1.65 0.96
8 10 -6 0.85 0.9
8 10 -6 1.63 0.72
8 10 -6 2.94 0.84
-8 10 6 2.72 0.86
-8 10 6 2.66 1.16
8 10 -6 3.14 0.5
8 10 -6 2.86 0.99
-7 -10 6 0.39 0.63
7 -10 -6 -0.88 0.86
7 -10 -6 1.54 1.17
7 -10 -6 -1.16 0.71
-7 -10 6 0.23 0.78
7 10 -6 -0.07 0.64
7 10 -6 0.13 0.79
-7 10 6 -0.41 0.8
-7 10 6 -0.07 1
-7 10 6 -1.5 0.65
7 10 -6 0.17 0.39
-7 10 6 0.41 0.75
-6 -10 6 0.49 0.66
6 -10 -6 1.31 0.67
-6 -10 6 0.43 0.43
-6 -10 6 -0.75 0.58
6 -10 -6 0.83 0.76
6 10 -6 -0.34 0.66
6 10 -6 0.02 0.7
-6 10 6 0.95 0.73
-6 10 6 0.07 0.85
6 10 -6 -0.08 0.4
-5 -10 6 -0.36 0.61
5 -10 -6 -0.13 0.54
-5 -10 6 -0.18 0.39
5 -10 -6 0.01 0.66
-5 -10 6 0.04 0.55
5 10 -6 -0.45 0.61
-5 10 6 -0.02 0.5
-5 10 6 0.05 0.81
5 10 -6 0.41 0.43
5 10 -6 0.44 0.67
-4 -10 6 0.85 0.53
4 -10 -6 0.33 0.96
-4 -10 6 0.33 0.68
-4 -10 6 1.83 0.45
4 -10 -6 1.21 0.63
4 -10 -6 1.31 0.59
4 10 -6 0.38 0.67
4 10 -6 1.05 0.5
-4 10 6 -0.04 0.23
-4 10 6 -0.27 0.43
-4 10 6 1.71 0.65
-4 10 6 1.71 0.81
3 -10 -6 1.55 0.61
3 -10 -6 1.18 0.39
3 -10 -6 1.47 0.54
-3 -10 6 0.47 0.71
3 -10 -6 0.61 0.78
-3 -10 6 1.15 0.47
-3 10 6 1.5 0.86
3 10 -6 1.76 0.51
-3 10 6 0.6 0.34
3 10 -6 0.58 0.73
3 10 -6 1.28 0.54
-3 10 6 0.78 0.5
2 -10 -6 10.24 0.93
-2 -10 6 9.27 0.88
-2 -10 6 12.07 0.96
2 -10 -6 11.03 0.72
-2 -10 6 9.07 1.22
2 -10 -6 11.14 1.16
-2 -10 6 11.34 0.61
2 -10 -6 12.13 1.36
-2 -10 6 11.84 0.85
2 10 -6 11.72 1.43
2 10 -6 10.98 0.9
-2 10 6 12.61 1.17
-2 10 6 9.65 1.33
2 10 -6 8.74 0.84
1 -10 -6 1.89 0.76
-1 -10 6 0.57 0.49
1 -10 -6 -0.03 0.52
-1 -10 6 0.81 0.44
-1 -10 6 0.8 0.54
1 -10 -6 0.99 0.47
1 -10 -6 1.2 0.43
-1 10 6 0.1 0.57
-1 10 6 0.74 0.41
1 10 -6 1.04 0.81
-1 10 6 -0.03 0.53
1 10 -6 0.86 0.49
0 -10 -6 2.64 0.77
0 -10 6 3.43 0.54
0 -10 6 2.37 0.6
0 -10 -6 2.76 0.66
0 -10 -6 2.62 0.53
0 -10 -6 2.69 0.53
0 -10 6 3.66 0.59
0 10 6 4.09 0.83
0 10 6 2.58 0.43
0 10 6 2.06 0.65
0 10 -6 1.98 0.64
0 10 -6 2.94 0.99
1 -10 6 7.48 0.66
1 -10 6 6.53 1.13
-1 -10 -6 7.91 0.7
-1 -10 -6 7.12 0.62
1 -10 6 7.83 0.98
-1 -10 -6 8.42 1.06
-1 10 -6 8.02 1.28
1 10 6 6.98 0.52
-1 10 -6 8.47 1.09
1 10 6 6.67 0.82
1 10 6 5.46 0.79
2 -10 6 0.81 0.61
-2 -10 -6 1.19 0.71
-2 -10 -6 0.89 0.58
2 -10 6 0.98 0.52
2 -10 6 1.53 0.73
-2 10 -6 -0.76 0.62
2 10 6 1.7 0.69
-2 10 -6 1.76 1.1
2 10 6 1.14 0.67
2 10 6 1.14 0.41
-3 -10 -6 1.83 0.66
3 -10 6 3.83 0.6
-3 -10 -6 2.25 0.73
3 -10 6 1.34 0.59
-3 -10 -6 1.09 0.78
-3 -10 -6 1.25 0.67
3 -10 6 3.94 1.08
-3 10 -6 2.97 1.21
3 10 6 2.65 0.69
3 10 6 2.79 0.46
-3 10 -6 2.6 0.7
3 10 6 2.08 0.76
-4 -10 -6 0.88 0.75
4 -10 6 0.07 1.06
4 -10 6 -0.42 0.66
-4 -10 -6 1.18 0.69
4 -10 6 0.28 0.42
-4 -10 -6 0.16 0.77
4 -10 6 0.01 0.54
-4 -10 -6 -0.47 0.73
4 10 6 0.82 0.47
4 10 6 -1.16 0.63
4 10 6 0.43 0.68
-4 10 -6 0.97 1.13
-4 10 -6 1.85 0.76
-5 -10 -6 0.34 0.85
5 -10 6 0.37 0.59
-5 -10 -6 2.07 0.97
-5 -10 -6 0.69 0.89
5 -10 6 0.56 0.56
5 -10 6 -0.9 0.99
5 -10 6 2 0.85
-5 10 -6 0.73 1.41
-5 10 -6 -0.09 0.86
5 10 6 -0.06 0.53
5 10 6 0.17 0.67
5 10 6 0.12 0.55
5 10 6 0.41 0.77
-5 10 -6 1.46 0.87
-6 -10 -6 -0.65 1.25
-6 -10 -6 -0.88 0.92
-6 -10 -6 -0.04 1.02
6 -10 6 0.93 1.37
6 -10 6 -0.8 0.91
6 -10 6 -0.05 1.4
6 -10 6 0.35 0.65
-6 10 -6 0.07 0.87
6 10 6 0.27 0.84
6 10 6 -0.22 0.6
6 10 6 -0.13 0.76
-6 10 -6 -1.18 0.99
-6 10 -6 -0.34 1.54
6 10 6 0.91 0.71
-7 -10 -6 0.24 1.25
7 -10 6 0.62 1
7 -10 6 -2.28 1.3
-7 -10 -6 -0.44 1.5
7 -10 6 0.37 1.1
7 -10 6 0.6 0.72
-7 -10 -6 0.53 1.25
-7 10 -6 -0.17 0.77
7 10 6 0.97 1.04
7 10 6 -1.12 0.85
-7 10 -6 -0.5 1.25
-7 10 -6 3.89 2.01
7 10 6 -0.14 0.74
7 10 6 0.95 0.94
9 -11 -6 1.83 1.52
9 -11 -6 0.66 1.15
9 -11 -6 -0.96 1.36
-9 -11 6 0.07 1.34
-9 11 6 -3.07 1.49
-9 11 6 -2.07 1.26
-9 11 6 2.84 1.25
9 11 -6 -1.51 0.9
8 -11 -6 0.43 1.24
-8 -11 6 0.37 0.57
8 -11 -6 -0.15 0.94
-8 -11 6 2.53 1.13
8 -11 -6 1.55 1.38
8 11 -6 0.59 1.05
-8 11 6 -0.85 1.32
8 11 -6 1.09 0.79
8 11 -6 -0.52 1.12
8 11 -6 0.69 0.5
-8 11 6 2.56 0.99
-8 11 6 1.34 1.1
-8 11 6 1.06 1.03
8 11 -6 0.87 0.73
7 -11 -6 0.45 0.86
-7 -11 6 0.33 0.95
-7 -11 6 0.72 0.96
7 -11 -6 -0.15 0.96
-7 -11 6 1.36 0.52
7 -11 -6 -0.56 1.09
7 11 -6 0.12 0.46
7 11 -6 0.68 0.92
-7 11 6 -0.05 0.85
-7 11 6 -0.87 0.81
-7 11 6 0.43 1.17
-7 11 6 -0.11 1
7 11 -6 -0.33 0.7
-6 -11 6 0.01 0.53
-6 -11 6 -0.12 0.82
6 -11 -6 1.28 0.86
6 -11 -6 -0.66 1
-6 -11 6 -0.27 0.83
6 -11 -6 0.53 0.75
6 11 -6 0.24 0.81
6 11 -6 -0.08 0.52
-6 11 6 0.81 1.09
6 11 -6 -0.66 0.82
-6 11 6 0.79 0.82
-6 11 6 0.52 0.73
5 -11 -6 -0.04 0.68
5 -11 -6 0.51 0.75
5 -11 -6 -0.41 0.8
-5 -11 6 0.23 0.69
-5 -11 6 0 0.73
-5 -11 6 0.12 0.48
5 11 -6 0.63 0.76
-5 11 6 0.84 0.81
-5 11 6 -2.07 0.89
5 11 -6 -0.67 0.71
5 11 -6 -0.15 0.51
-5 11 6 0.35 0.58
-4 -11 6 1.2 0.64
-4 -11 6 1.09 0.54
4 -11 -6 1.17 0.76
4 -11 -6 -0.17 0.73
-4 -11 6 1.48 0.84
4 11 -6 0.59 0.69
4 11 -6 1.75 0.8
4 11 -6 1.75 0.56
-4 11 6 3.16 1.04
-4 11 6 0.21 0.28
-4 11 6 3.02 0.78
3 -11 -6 3.27 1.05
3 -11 -6 2.01 0.59
-3 -11 6 2.66 0.6
-3 -11 6 2.53 0.6
-3 -11 6 0.48 0.84
3 -11 -6 1.65 0.73
-3 -11 6 1.29 0.7
3 -11 -6 2.2 0.64
-3 11 6 2.7 0.7
-3 11 6 2.13 1.03
3 11 -6 0.98 0.82
3 11 -6 1.23 0.52
-3 11 6 0.11 0.38
-2 -11 6 0.17 0.33
2 -11 -6 -1.28 0.78
-2 -11 6 -0.13 0.61
2 -11 -6 0.06 0.44
2 -11 -6 0.24 0.7
-2 -11 6 -0.05 0.5
-2 -11 6 -0.6 0.73
-2 -11 6 0.29 0.51
2 -11 -6 0.35 0.57
2 11 -6 1.03 0.59
-2 11 6 -0.57 0.59
-2 11 6 -0.17 0.45
2 11 -6 0.53 0.45
2 11 -6 -0.14 0.9
-2 11 6 0.89 0.77
-1 -11 6 -0.7 0.45
1 -11 -6 0.17 0.59
1 -11 -6 -0.01 0.81
-1 -11 6 0.46 0.59
-1 -11 6 -0.46 0.44
1 -11 -6 0.11 0.49
-1 -11 6 -0.16 0.6
1 -11 -6 -0.5 0.68
-1 11 6 -0.61 0.77
1 11 -6 0.42 0.5
1 11 -6 -1.15 0.74
-1 11 6 0.02 0.62
0 -11 -6 0.69 0.56
0 -11 -6 0.59 0.82
0 -11 -6 0.51 0.6
0 -11 6 0.73 0.61
0 -11 6 1.6 0.57
0 -11 -6 0.91 0.74
0 -11 6 0.85 0.5
0 11 6 0.71 0.68
0 11 -6 0.37 0.55
0 11 -6 0.25 0.93
0 11 6 1.33 0.72
0 11 6 0.45 0.43
1 -11 6 0.32 0.58
-1 -11 -6 1.1 0.55
-1 -11 -6 1.07 0.7
-1 -11 -6 0.32 0.57
1 -11 6 1.34 0.91
-1 11 -6 -0.6 1.04
1 11 6 0.96 0.78
1 11 6 0.64 0.45
-1 11 -6 0.26 0.57
1 11 6 0.07 0.74
2 -11 6 -0.16 0.68
-2 -11 -6 0.9 0.76
2 -11 6 2.31 1.08
2 -11 6 0.99 0.59
-2 -11 -6 -0.29 0.65
-2 -11 -6 -0.12 0.59
2 11 6 1.57 0.75
2 11 6 -0.34 0.42
2 11 6 1.04 0.68
-2 11 -6 1.88 1.19
-2 11 -6 -0.35 0.68
-3 -11 -6 0.29 0.86
3 -11 6 0.3 0.6
3 -11 6 1.39 0.8
-3 -11 -6 0.64 0.71
-3 -11 -6 0.29 0.76
-3 -11 -6 -0.62 0.77
3 -11 6 -0.24 0.93
3 -11 6 -0.01 0.33
3 11 6 1.83 0.86
3 11 6 -0.33 0.67
3 11 6 1.08 0.45
-3 11 -6 0.46 1.36
-3 11 -6 0.24 0.74
4 -11 6 0.83 0.47
4 -11 6 0.03 1.03
-4 -11 -6 -0.93 0.74
4 -11 6 0.35 0.64
-4 -11 -6 0.65 0.85
4 -11 6 0.8 0.94
-4 -11 -6 2.85 1.04
-4 -11 -6 1.16 0.93
4 11 6 1.68 0.91
-4 11 -6 -0.37 0.87
-4 11 -6 0.33 0.84
-4 11 -6 2.85 1.48
4 11 6 -0.81 0.66
4 11 6 1.63 0.5
5 -11 6 0.52 0.69
-5 -11 -6 0.41 1.08
5 -11 6 -0.13 0.6
-5 -11 -6 2.53 1.04
5 -11 6 3.62 1.59
5 -11 6 0.5 0.96
-5 -11 -6 -0.49 1.09
5 11 6 1.31 0.53
-5 11 -6 -0.12 1.68
-5 11 -6 0.76 1.02
-5 11 -6 1.16 0.97
5 11 6 0.17 0.79
5 11 6 0.43 0.88
6 -11 6 1.42 1.46
6 -11 6 1.44 1.89
6 -11 6 2.44 0.78
6 -11 6 2.25 0.95
-6 -11 -6 -0.39 1.23
-6 -11 -6 1.16 1.56
-6 -11 -6 3.87 1.18
-6 11 -6 6.38 2.3
6 11 6 0.72 0.62
6 11 6 3.13 1.1
6 11 6 3.79 0.85
6 11 6 4.15 1.14
-6 11 -6 2.81 1.22
-6 11 -6 3.97 1.29
-7 -11 -6 0.68 1.34
7 -11 6 1.27 1.63
7 -11 6 -0.74 1.05
7 -11 6 0.7 0.82
-7 11 -6 0.37 1.71
7 11 6 0.58 1.12
7 11 6 2.58 1.76
-7 11 -6 0.33 2.28
-7 11 -6 0.11 0.96
-8 -12 6 0.71 0.96
8 -12 -6 0.63 1.14
-8 -12 6 0.67 1.3
8 -12 -6 -0.81 1.45
8 -12 -6 -0.7 1.31
8 12 -6 0.03 0.87
-8 12 6 -0.97 1.4
8 12 -6 -0.44 0.88
8 12 -6 1.33 0.77
-8 12 6 -2.07 1.66
-8 12 6 -0.26 1.14
7 -12 -6 -0.01 1.14
7 -12 -6 1.97 1.54
-7 -12 6 0.88 1.16
-7 -12 6 0.27 0.68
-7 -12 6 1.2 1
7 -12 -6 0.1 0.98
-7 12 6 1.92 1.06
7 12 -6 1.18 0.65
7 12 -6 0.42 1.08
-7 12 6 -0.47 1.38
-7 12 6 0.74 0.98
7 12 -6 -0.59 0.84
-7 12 6 0.33 1.15
6 -12 -6 1.05 0.91
-6 -12 6 -0.11 0.95
-6 -12 6 0.27 0.98
6 -12 -6 1.05 1.17
-6 -12 6 -0.33 0.63
6 -12 -6 0.76 0.98
-6 12 6 0.82 1.28
6 12 -6 0.34 0.98
6 12 -6 -0.29 0.6
6 12 -6 0.51 0.89
-6 12 6 0.97 0.82
-6 12 6 -0.44 0.9
-5 -12 6 0.05 0.85
5 -12 -6 -0.75 0.86
-5 -12 6 0.31 0.58
-5 -12 6 0.59 0.92
5 -12 -6 -1.12 0.83
5 -12 -6 1.61 1.17
-5 12 6 0.5 0.65
5 12 -6 1.27 0.69
5 12 -6 -1.16 0.95
-5 12 6 -0.44 0.85
-5 12 6 -0.08 1.14
5 12 -6 -0.42 0.93
4 -12 -6 0.6 0.75
-4 -12 6 -0.39 0.7
-4 -12 6 -0.79 0.57
4 -12 -6 -1.44 0.71
-4 -12 6 -0.55 0.97
4 -12 -6 0.97 1.18
-4 12 6 1.17 1.17
4 12 -6 -0.01 0.82
-4 12 6 -0.41 0.97
-4 12 6 -0.2 0.3
4 12 -6 -0.43 0.95
4 12 -6 0.36 0.58
-3 -12 6 0.12 0.59
3 -12 -6 0.43 0.81
3 -12 -6 1.12 0.72
3 -12 -6 0.2 1.09
-3 -12 6 2.26 0.72
-3 -12 6 -1.41 0.88
3 -12 -6 0.99 0.58
3 12 -6 1.66 0.78
-3 12 6 2.59 0.8
-3 12 6 0.99 1.05
3 12 -6 1.43 0.64
-3 12 6 0.47 0.44
3 12 -6 -0.33 0.85
-2 -12 6 5.5 0.76
2 -12 -6 4.9 1.08
2 -12 -6 5.69 0.77
2 -12 -6 5.25 0.69
2 -12 -6 5.83 0.99
-2 -12 6 6.43 1.22
-2 -12 6 5.47 0.8
2 12 -6 3.53 1.11
-2 12 6 5.88 1.21
-2 12 6 4.79 0.92
2 12 -6 6.23 0.95
2 12 -6 2.15 0.92
-2 12 6 4.45 0.64
1 -12 -6 2.33 1.05
-1 -12 6 1.32 0.57
1 -12 -6 1.01 0.82
-1 -12 6 -0.18 0.5
-1 -12 6 -0.24 0.73
1 -12 -6 0.44 0.64
-1 -12 6 2.48 1.03
1 -12 -6 -0.77 0.56
-1 -12 6 0.5 0.59
1 12 -6 1.1 0.52
-1 12 6 0.95 0.72
-1 12 6 0.98 0.95
-1 12 6 0.32 0.6
1 12 -6 0.83 1.06
0 -12 6 1.34 1.13
0 -12 6 0.56 0.63
0 -12 6 1.52 1.26
0 -12 -6 0.75 0.95
0 -12 -6 2.56 0.84
0 -12 -6 2.75 0.71
0 -12 -6 1.94 0.65
0 12 -6 1.61 1.09
0 12 6 2.69 1.13
0 12 6 3.07 0.9
0 12 -6 1.67 0.68
0 12 6 4.23 1.39
1 -12 6 -0.45 1.11
-1 -12 -6 -0.52 0.61
-1 -12 -6 1.52 0.99
-1 -12 -6 -0.19 1.46
1 -12 6 0.38 0.56
1 -12 6 -0.49 0.69
-1 -12 -6 0.37 0.72
1 12 6 -0.63 0.61
1 12 6 1.01 0.51
1 12 6 -0.27 0.89
-1 12 -6 1.63 1.14
-1 12 -6 0.85 0.71
-2 -12 -6 0.4 0.78
-2 -12 -6 -1.39 0.73
2 -12 6 0.98 0.67
2 -12 6 0.06 0.69
-2 -12 -6 1.02 1.01
2 -12 6 0.35 1.16
-2 -12 -6 0.1 0.72
2 12 6 0.09 0.49
2 12 6 0.34 0.86
-2 12 -6 0.37 0.8
2 12 6 -0.39 0.91
-2 12 -6 0.4 1.26
-3 -12 -6 2.15 1.11
3 -12 6 0.37 0.73
-3 -12 -6 1.15 0.91
-3 -12 -6 1.9 0.86
3 -12 6 -0.99 1.24
3 -12 6 1.86 0.81
-3 -12 -6 0.09 0.93
-3 12 -6 0.76 1.46
3 12 6 1.83 1.07
3 12 6 1.2 0.5
-3 12 -6 0.92 0.88
4 -12 6 0.97 1.39
-4 -12 -6 0.34 1.05
-4 -12 -6 1.12 0.97
4 -12 6 1.97 1.06
-4 -12 -6 0.71 0.93
4 -12 6 0.01 0.5
4 -12 6 2.82 0.77
-4 -12 -6 4 1.29
-4 12 -6 2.89 1.16
4 12 6 2.68 0.53
4 12 6 2.76 1.2
4 12 6 1.18 1
-4 12 -6 1.1 1.5
-4 12 -6 2.1 1.02
5 -12 6 0.48 1.66
5 -12 6 -0.69 0.77
5 -12 6 0.09 1.02
-5 -12 -6 3.24 1.41
-5 -12 -6 1.04 1.08
5 -12 6 0.81 0.67
-5 -12 -6 0.05 1.21
-5 -12 -6 -2.31 0.97
-5 12 -6 -1.6 1.14
-5 12 -6 0.38 1.08
5 12 6 -0.7 1.21
5 12 6 -0.06 1.02
-5 12 -6 -0.39 1.64
5 12 6 -0.69 0.54
-6 -12 -6 2.21 1.87
-6 -12 -6 2.18 1.33
6 -12 6 -0.5 1.78
6 -12 6 1.1 1.3
6 -12 6 0.59 0.82
6 12 6 0 1.29
6 12 6 -2.38 1.02
-6 12 -6 3.35 2.33
-6 12 -6 -0.12 1.35
-7 -13 6 0.12 1.32
7 -13 -6 -1.59 1.3
7 -13 -6 1.91 1.83
-7 -13 6 1.62 1.28
7 -13 -6 -1.53 1.18
7 13 -6 0.35 1.05
7 13 -6 -1.32 0.85
-7 13 6 -0.91 1.34
-7 13 6 2.41 1.16
-7 13 6 0.05 1.78
7 13 -6 0.9 0.94
-6 -13 6 -0.25 1.24
-6 -13 6 -1.34 0.73
6 -13 -6 1.45 1.19
-6 -13 6 1.05 1.18
6 -13 -6 0.63 1.5
6 -13 -6 0.66 1.12
-6 13 6 1.22 0.96
6 13 -6 -1.43 0.75
-6 13 6 -1.77 1.36
6 13 -6 1.35 1.2
-6 13 6 0.85 1.55
6 13 -6 -0.5 1.05
5 -13 -6 2.24 1.12
5 -13 -6 0.76 1.02
-5 -13 6 0.88 1.22
-5 -13 6 0.22 0.96
-5 -13 6 0.1 0.73
5 -13 -6 0.54 1.43
-5 13 6 4.01 1.48
5 13 -6 -0.12 0.75
5 13 -6 0.97 1.12
5 13 -6 1.89 1.18
-5 13 6 0.47 0.94
-5 13 6 -0.89 1.1
-4 -13 6 0.28 0.94
4 -13 -6 2.62 1.07
-4 -13 6 0.27 0.7
-4 -13 6 -0.42 1.12
4 -13 -6 1.03 1.38
4 -13 -6 0.77 0.92
4 -13 -6 1.72 0.73
-4 13 6 3.05 1.45
4 13 -6 1.02 0.96
4 13 -6 1.87 1.1
-4 13 6 0.26 0.34
-4 13 6 1.91 1.06
4 13 -6 1.44 0.82
3 -13 -6 0.91 0.94
3 -13 -6 -0.37 1.14
3 -13 -6 0.13 0.85
-3 -13 6 1.51 1.19
3 -13 -6 0.72 0.71
-3 -13 6 0.77 0.67
-3 -13 6 0.78 0.87
3 13 -6 0.28 0.87
-3 13 6 0.21 1.23
-3 13 6 -0.12 1.1
-3 13 6 0.57 0.52
3 13 -6 0.9 0.66
3 13 -6 2.3 1.18
-2 -13 6 -1.03 0.75
2 -13 -6 -1.38 1.09
-2 -13 6 1 1.15
-2 -13 6 -1.11 0.59
2 -13 -6 0.29 0.86
2 -13 -6 0.22 0.68
2 -13 -6 -0.29 0.76
2 13 -6 1.16 0.75
2 13 -6 -1.05 0.99
-2 13 6 -0.64 0.6
-2 13 6 -0.38 0.84
2 13 -6 1.62 0.85
-2 13 6 0.72 1.17
-1 -13 6 3.43 0.79
-1 -13 6 5.32 1.38
1 -13 -6 3.26 0.82
1 -13 -6 2.51 0.91
-1 -13 6 0.47 0.47
1 -13 -6 2.85 1.07
1 -13 -6 3.65 0.84
-1 -13 6 0.2 0.57
-1 13 6 3 0.77
1 13 -6 1.89 0.77
-1 13 6 2.62 1.05
1 13 -6 2.48 1.33
-1 13 6 2.28 1.26
0 -13 -6 0.2 0.8
0 -13 6 -0.95 0.8
0 -13 6 -1.12 1.17
0 -13 -6 0.96 0.89
0 -13 6 0.56 0.7
0 -13 -6 0.09 0.72
0 -13 -6 0.99 1.18
0 -13 6 -0.7 0.81
0 13 6 -0.42 1.21
0 13 6 -0.56 0.79
0 13 -6 1.33 0.78
0 13 -6 1.56 1.23
0 13 6 0.9 0.91
1 -13 6 1.66 0.7
1 -13 6 0.08 0.89
-1 -13 -6 -0.55 1.01
1 -13 6 -0.71 0.79
-1 -13 -6 0.86 0.83
-1 -13 -6 2.26 1.15
1 -13 6 0.2 1.42
-1 -13 -6 0.4 0.72
1 13 6 -0.57 1.08
-1 13 -6 0.33 1.2
-1 13 -6 -0.08 0.87
1 13 6 -0.85 0.88
1 13 6 2.56 1.05
-2 -13 -6 3.61 1.03
-2 -13 -6 1.54 0.95
2 -13 6 -0.15 0.76
2 -13 6 5.51 1.53
2 -13 6 2.75 0.95
-2 -13 -6 1.52 0.91
-2 -13 -6 1.4 1.23
2 13 6 0.3 0.94
2 13 6 2.51 1.22
-2 13 -6 2.5 1.61
2 13 6 1.59 1.06
-2 13 -6 3.05 0.99
-3 -13 -6 0.31 1.31
3 -13 6 0.04 0.81
-3 -13 -6 -0.31 1.09
-3 -13 -6 -1.76 1.16
-3 -13 -6 0.69 0.96
3 -13 6 -0.23 1.02
3 -13 6 -0.43 1.49
-3 13 -6 0.08 1.07
3 13 6 0.27 1.16
-3 13 -6 -0.24 0.99
-3 13 -6 1.2 1.82
3 13 6 1.63 1.19
3 13 6 1.41 1.07
4 -13 6 -1.07 0.55
4 -13 6 0.58 1.77
-4 -13 -6 1.22 1.12
-4 -13 -6 -0.57 1.26
4 -13 6 0.48 0.86
4 -13 6 0.65 0.96
-4 -13 -6 -0.39 1.13
-4 13 -6 1.18 1.15
4 13 6 1.71 1.4
-4 13 -6 1.46 2.09
-4 13 -6 0.34 1.17
4 13 6 0.05 1.21
4 13 6 3.9 1.18
5 -13 6 7.33 2.67
5 -13 6 -1.17 0.84
5 -13 6 -0.52 1.31
-5 -13 -6 1.08 1.28
-5 -13 -6 -0.88 1.49
5 13 6 -0.32 1.2
-5 13 -6 -0.09 2.16
5 13 6 2.78 1.41
-5 13 -6 0.83 1.32
6 -14 -6 -1.11 2.06
6 -14 -6 -0.88 1.33
-6 -14 6 0.97 1.35
6 -14 -6 2.63 1.76
-6 -14 6 1.85 1.54
-6 14 6 -0.74 1.12
-6 14 6 3.04 1.95
6 14 -6 1.92 1.42
-5 -14 6 -0.84 1.43
5 -14 -6 2.42 1.68
5 -14 -6 0.53 1.36
-5 -14 6 0.07 0.96
5 -14 -6 0.44 1.23
-5 -14 6 0.47 1.19
5 -14 -6 -0.49 0.88
5 14 -6 0.08 1.51
5 14 -6 0.35 0.96
5 14 -6 1.42 1.33
-5 14 6 3.29 1.74
-4 -14 6 0.11 1.08
-4 -14 6 2.52 1.54
4 -14 -6 1.11 1.13
-4 -14 6 0.41 0.96
4 -14 -6 3.25 1.73
4 -14 -6 1.11 1.16
4 -14 -6 1.9 0.93
4 14 -6 3.43 1.23
-4 14 6 1.82 1.61
4 14 -6 2.81 0.99
-4 14 6 1.99 1.29
4 14 -6 1.21 1.39
3 -14 -6 0.45 0.97
-3 -14 6 0.82 0.87
-3 -14 6 1.64 1.47
3 -14 -6 -1.84 1.46
3 -14 -6 1.02 1.19
-3 -14 6 1.27 1.02
3 -14 -6 1.56 0.88
-3 14 6 0.49 1.4
3 14 -6 -0.33 1.29
-3 14 6 -1.12 1.21
-3 14 6 -0.46 0.6
3 14 -6 -0.88 1.06
3 14 -6 0.19 0.88
2 -14 -6 0.4 1.3
2 -14 -6 0.59 0.88
-2 -14 6 0.49 1.27
2 -14 -6 0.06 1.07
-2 -14 6 -0.31 0.94
-2 14 6 -1.74 1.27
-2 14 6 -0.4 1.22
-2 14 6 0.07 0.75
2 14 -6 0.44 0.89
2 14 -6 -1.12 1.35
2 14 -6 1.29 1.03
-1 -14 6 0.31 0.56
-1 -14 6 0.88 0.87
1 -14 -6 -0.16 1.43
-1 -14 6 -1 0.89
1 -14 -6 -0.23 0.93
1 -14 -6 2.43 1.08
1 -14 -6 1.19 0.91
-1 -14 6 0.13 0.5
-1 -14 6 1.56 1.38
1 14 -6 1.39 0.83
-1 14 6 1.05 1.36
-1 14 6 -0.7 0.85
-1 14 6 -0.68 1.17
1 14 -6 2.73 1.59
0 -14 -6 1.51 1.1
0 -14 -6 -0.42 0.95
0 -14 6 0.66 0.83
0 -14 -6 0.72 1.5
0 -14 6 0.06 0.88
0 -14 6 1.74 1.51
0 -14 -6 0.25 0.87
0 -14 6 1.06 0.69
0 -14 6 -1.08 0.83
0 14 -6 0.65 1.03
0 14 6 1.2 1.3
0 14 6 -1.43 1.12
0 14 -6 0.48 1.57
1 -14 6 -0.81 1.04
-1 -14 -6 2.3 1.26
1 -14 6 0.55 0.81
-1 -14 -6 0.4 1.64
1 -14 6 -0.21 0.97
-1 -14 -6 2.79 1.07
-1 -14 -6 -0.64 0.85
1 -14 6 1.93 1.73
1 14 6 -1 1.1
-1 14 -6 1.19 1.14
1 14 6 0.05 1.16
-1 14 -6 2.63 1.62
1 14 6 0.97 1.36
-2 -14 -6 0.85 1.1
-2 -14 -6 0.57 1.06
-2 -14 -6 0.19 1.16
2 -14 6 1.47 1.2
-2 14 -6 3.4 1.17
-2 14 -6 2.34 1.78
2 14 6 -1.13 1.14
2 14 6 0.55 1.25
2 14 6 2.2 1.36
-3 -14 -6 -1.19 1.27
-3 -14 -6 -0.92 1.31
3 -14 6 0.09 0.96
-3 -14 -6 0.78 1.15
3 14 6 2.01 1.47
-3 14 -6 -1.25 1.22
-3 14 -6 2.91 1.76
3 14 6 0.98 1.23
3 14 6 1.28 1.31
3 -15 -6 -0.86 1.38
-3 -15 6 3.85 1.33
3 -15 -6 0.99 1.08
3 -15 -6 2.41 1.23
3 15 -6 0.01 1.32
-3 15 6 1.75 1.72
3 15 -6 1.35 1.76
3 15 -6 -0.19 1.07
2 -15 -6 -1.78 1.12
-2 -15 6 2.98 1.21
2 -15 -6 4.01 1.19
2 -15 -6 4.01 1.49
-2 -15 6 1.42 1.09
-2 15 6 0.28 0.93
-2 15 6 1.21 1.88
-2 15 6 6.53 1.54
2 15 -6 1.55 1.61
-1 -15 6 2.09 1.05
1 -15 -6 2.64 1.21
-1 -15 6 0.89 1.1
1 -15 -6 1.55 1.4
1 -15 -6 -0.09 1.07
-1 15 6 -1.05 1.37
1 15 -6 0.54 1.24
1 15 -6 -0.12 1.6
-1 15 6 0.37 1.45
0 -15 6 -0.25 0.94
0 -15 -6 0.01 1.18
0 -15 -6 -0.73 1.3
0 -15 6 0.36 1.08
0 -15 -6 -1.12 1.02
0 -15 6 -0.82 1.25
0 15 -6 2.13 1.36
0 15 6 1.46 1.63
0 15 6 0.35 1.5
0 15 6 -0.27 1.15
0 15 -6 0.43 1.56
-1 -15 -6 2.8 1.56
-1 -15 -6 -1.36 1.14
1 -15 6 0.91 1.11
1 -15 6 0.69 1.01
-1 -15 -6 0.9 1.23
1 -15 6 -0.85 1.16
-1 15 -6 1.7 2.14
1 15 6 -0.14 1.44
-1 15 -6 3.46 1.47
1 15 6 -0.57 1.37
13 0 -7 -0.42 1
13 0 -7 0.38 1.09
13 0 -7 -0.95 1.29
12 0 -7 -0.82 1.02
12 0 -7 -1.54 0.86
12 0 -7 0.62 1.03
12 0 -7 -1.05 1.01
12 0 -7 -1.55 1.01
12 0 -7 0.03 0.77
11 0 -7 -0.73 0.83
11 0 -7 0.23 0.65
11 0 -7 0.63 0.7
11 0 -7 -0.57 0.8
11 0 -7 0.32 0.87
11 0 -7 0.01 0.8
10 0 -7 0.26 0.63
10 0 -7 -0.79 0.66
10 0 -7 -0.3 0.5
10 0 -7 0.28 0.69
10 0 -7 0.6 0.64
9 0 -7 -0.38 0.4
9 0 -7 0.26 0.54
9 0 -7 -0.65 0.52
-9 0 7 -0.76 0.63
9 0 -7 0.11 0.55
9 0 -7 0.5 0.4
9 0 -7 0.04 0.52
8 0 -7 0 0.34
-8 0 7 0.13 0.45
8 0 -7 0.4 0.3
8 0 -7 -0.09 0.31
8 0 -7 -0.36 0.42
8 0 -7 -0.43 0.78
8 0 -7 -0.27 0.45
8 0 -7 -0.17 0.33
7 0 -7 0.69 0.27
-7 0 7 0.14 0.17
-7 0 7 0.14 0.18
-7 0 7 0.41 0.32
7 0 -7 0.55 0.4
7 0 -7 0.36 0.31
7 0 -7 0.22 0.4
-7 0 7 0.12 0.37
7 0 -7 0.16 0.29
7 0 -7 -0.26 0.29
7 0 -7 -0.07 0.37
6 0 -7 0.85 0.34
-6 0 7 1.08 0.3
-6 0 7 1.22 0.33
6 0 -7 0.73 0.26
6 0 -7 1.12 0.35
-6 0 7 0.12 0.34
6 0 -7 0.2 0.23
6 0 -7 1.44 0.36
-6 0 7 0.68 0.21
6 0 -7 0.63 0.31
-5 0 7 0.33 0.29
5 0 -7 -0.02 0.13
-5 0 7 0 0.26
5 0 -7 0.08 0.27
-5 0 7 -0.06 0.25
5 0 -7 -0.01 0.27
5 0 -7 -0.05 0.28
-5 0 7 0.26 0.18
-5 0 7 -0.03 0.16
5 0 -7 -0.35 0.18
5 0 -7 -0.24 0.27
4 0 -7 0.08 0.29
4 0 -7 0.14 0.26
4 0 -7 0.1 0.21
-4 0 7 0.03 0.18
-4 0 7 -0.01 0.19
-4 0 7 -0.01 0.24
4 0 -7 -0.05 0.08
4 0 -7 0.03 0.25
-4 0 7 0.15 0.22
-4 0 7 0 0.23
3 0 -7 -0.04 0.17
3 0 -7 -0.18 0.23
-3 0 7 0.12 0.19
3 0 -7 -0.08 0.28
-3 0 7 0.09 0.23
3 0 -7 0.11 0.22
-3 0 7 -0.21 0.2
-3 0 7 0.11 0.19
-3 0 7 0.11 0.22
-2 0 7 0.35 0.21
-2 0 7 0.11 0.19
-2 0 7 0.22 0.21
2 0 -7 -0.07 0.18
2 0 -7 0.04 0.22
2 0 -7 -0.28 0.27
2 0 -7 -0.21 0.2
-2 0 7 0.2 0.17
-1 0 7 -0.08 0.17
1 0 -7 -0.04 0.17
1 0 -7 0.15 0.24
-1 0 7 0.47 0.21
1 0 -7 0.08 0.29
-1 0 7 0.34 0.23
1 0 -7 -0.17 0.17
0 0 7 -0.03 0.22
0 0 -7 0.25 0.16
0 0 -7 -0.15 0.26
0 0 -7 -0.19 0.2
0 0 7 0.01 0.14
0 0 7 -0.01 0.29
0 0 -7 -0.18 0.33
0 0 7 0.14 0.22
1 0 7 0.04 0.13
-1 0 -7 0.53 0.41
1 0 7 -0.08 0.27
-1 0 -7 -0.02 0.22
1 0 7 -0.06 0.25
1 0 7 -0.2 0.26
2 0 7 -0.02 0.11
-2 0 -7 -0.02 0.41
2 0 7 0.1 0.21
-2 0 -7 -0.14 0.21
2 0 7 -0.17 0.28
2 0 7 0.25 0.3
-2 0 -7 -0.07 0.23
3 0 7 0.11 0.33
-3 0 -7 -0.18 0.26
3 0 7 0.15 0.26
-3 0 -7 -0.58 0.44
-3 0 -7 -0.13 0.27
3 0 7 0.04 0.4
4 0 7 0.15 0.3
-4 0 -7 -0.25 0.27
4 0 7 -0.2 0.45
-4 0 -7 -0.11 0.46
4 0 7 -0.33 0.37
-4 0 -7 -0.06 0.31
-5 0 -7 -0.08 0.61
5 0 7 -0.26 0.33
-5 0 -7 -0.31 0.39
5 0 7 0.38 0.53
-5 0 -7 0.19 0.4
-5 0 -7 0.14 0.7
-6 0 -7 0.15 0.73
-6 0 -7 0.4 0.56
-6 0 -7 -0.06 0.47
6 0 7 -0.13 0.56
-6 0 -7 0.58 0.43
6 0 7 0.12 0.39
7 0 7 -0.63 0.45
-7 0 -7 0.36 0.64
-7 0 -7 -0.17 0.54
-7 0 -7 0.06 0.93
-7 0 -7 -0.37 0.65
7 0 7 -0.1 0.68
-8 0 -7 -0.42 0.74
-8 0 -7 1.01 0.75
8 0 7 1.18 0.94
-8 0 -7 -0.28 1.11
-8 0 -7 0.26 0.83
8 0 7 0.64 0.66
9 0 7 -0.51 0.91
-9 0 -7 -0.7 0.93
-9 0 -7 -0.53 1.05
9 0 7 -0.92 1.09
-9 0 -7 0.31 0.85
9 0 7 -0.62 0.67
-9 0 -7 -0.16 1.32
-10 0 -7 -0.48 1.27
-10 0 -7 0.7 1.28
10 0 7 -0.33 1.08
-10 0 -7 -2.05 2.57
-10 0 -7 0.63 1.17
10 0 7 0.78 0.94
13 -1 -7 -0.33 0.91
13 -1 -7 0.57 1.15
13 -1 -7 -1.28 1.39
13 1 -7 -0.49 1.11
13 1 -7 -2.19 1.27
13 1 -7 -1.61 1.12
13 1 -7 -0.58 1.34
12 -1 -7 0.42 1.05
12 -1 -7 0.2 0.8
12 -1 -7 -2.14 1.07
12 -1 -7 1.61 0.93
12 -1 -7 0.95 1.04
12 1 -7 -1.03 0.84
12 1 -7 -0.79 1.1
12 1 -7 -1.19 0.96
12 1 -7 0.08 0.84
12 1 -7 1.49 1.16
12 1 -7 0.92 0.97
11 -1 -7 1.1 0.87
11 -1 -7 0.34 0.56
11 -1 -7 -0.07 0.86
11 -1 -7 0.53 0.89
11 -1 -7 0.77 0.7
11 1 -7 0.67 0.69
11 1 -7 0.73 0.8
11 1 -7 0.85 0.84
11 1 -7 1.26 0.64
11 1 -7 1.27 0.86
11 1 -7 1.98 0.88
10 -1 -7 0.3 0.45
10 -1 -7 0.28 0.71
10 -1 -7 -1.05 0.65
10 -1 -7 0.3 0.65
10 -1 -7 -0.63 0.69
10 1 -7 -0.53 0.74
-10 1 7 -0.21 0.66
10 1 -7 0.45 0.53
10 1 -7 -1.06 0.66
10 1 -7 -0.91 0.57
10 1 -7 0.3 0.72
10 1 -7 0.02 0.58
9 -1 -7 -0.16 0.53
9 -1 -7 1 0.42
9 -1 -7 1.18 0.56
9 -1 -7 0.62 0.44
9 -1 -7 0.57 0.68
9 -1 -7 0.86 0.37
9 1 -7 0.04 0.49
-9 1 7 1.91 0.73
9 1 -7 0.88 0.5
9 1 -7 0.42 0.51
9 1 -7 0.83 0.6
9 1 -7 0.87 0.43
9 1 -7 0.73 0.48
8 -1 -7 -0.4 0.45
8 -1 -7 0.44 0.34
8 -1 -7 0.3 0.29
8 -1 -7 -0.01 0.31
8 -1 -7 0.1 0.47
8 -1 -7 0.37 0.38
8 1 -7 0.5 0.49
-8 1 7 0.39 0.24
8 1 -7 0.35 0.33
-8 1 7 0.41 0.22
8 1 -7 0.59 0.42
8 1 -7 0.51 0.38
-8 1 7 0.73 0.5
8 1 -7 0.34 0.44
7 -1 -7 3.31 0.48
7 -1 -7 2.37 0.44
7 -1 -7 2.57 0.36
7 -1 -7 2.26 0.32
7 -1 -7 1.95 0.38
-7 -1 7 2.3 0.42
-7 -1 7 2.52 0.46
7 -1 -7 3.3 0.5
7 1 -7 2.19 0.42
-7 1 7 2.59 0.36
7 1 -7 2.32 0.35
-7 1 7 2.67 0.33
-7 1 7 2.45 0.46
7 1 -7 3 0.38
7 1 -7 1.98 0.31
7 1 -7 2.55 0.42
7 1 -7 2.2 0.45
7 1 -7 2.89 0.36
-6 -1 7 5.04 0.34
6 -1 -7 5.58 0.48
-6 -1 7 6.22 0.55
-6 -1 7 5.19 0.37
6 -1 -7 5.01 0.44
6 -1 -7 5.17 0.39
6 -1 -7 5.29 0.46
6 -1 -7 5.37 0.52
6 -1 -7 5.46 0.48
-6 -1 7 5.75 0.45
-6 -1 7 4.79 0.46
6 1 -7 6.09 0.45
-6 1 7 4.67 0.43
-6 1 7 5.89 0.45
6 1 -7 6.19 0.49
-6 1 7 5.46 0.46
-6 1 7 5.81 0.49
6 1 -7 5.4 0.38
-6 1 7 5.33 0.49
6 1 -7 5.07 0.48
6 1 -7 5.92 0.53
6 1 -7 5.93 0.46
-5 -1 7 11.06 0.58
5 -1 -7 10.83 0.4
-5 -1 7 10.59 0.61
-5 -1 7 10.32 0.56
-5 -1 7 10.74 0.53
5 -1 -7 9.7 0.55
5 -1 -7 9.9 0.6
5 -1 -7 10.68 0.62
5 -1 -7 11.45 0.58
5 -1 -7 10.49 0.61
5 1 -7 10.69 0.57
5 1 -7 11.05 0.57
5 1 -7 11.14 0.66
-5 1 7 11.08 0.59
5 1 -7 10.25 0.53
-5 1 7 10.49 0.58
-5 1 7 10.34 0.57
-5 1 7 11.02 0.51
5 1 -7 10.97 0.39
5 1 -7 10.97 0.53
-5 1 7 10.6 0.6
4 -1 -7 3.16 0.19
4 -1 -7 2.17 0.35
-4 -1 7 3.52 0.34
-4 -1 7 3.12 0.34
-4 -1 7 3.14 0.36
-4 -1 7 3.85 0.36
-4 -1 7 3.19 0.31
4 -1 -7 3.03 0.34
4 -1 -7 3.94 0.38
-4 1 7 3.17 0.39
-4 1 7 2.91 0.34
4 1 -7 2.93 0.32
-4 1 7 2.61 0.31
4 1 -7 3.57 0.47
-4 1 7 2.83 0.38
-4 1 7 2.61 0.27
4 1 -7 2.94 0.18
4 1 -7 2.95 0.38
4 1 -7 3.07 0.33
3 -1 -7 19.77 0.92
3 -1 -7 20.03 0.71
-3 -1 7 20.01 0.83
-3 -1 7 20.3 0.75
3 -1 -7 20.92 0.84
-3 -1 7 20.5 0.67
-3 -1 7 20.19 0.67
3 -1 -7 20.05 0.67
-3 -1 7 19.86 0.66
-3 -1 7 20.09 0.49
3 1 -7 19.79 0.91
3 1 -7 19.96 0.69
3 1 -7 20.32 0.68
-3 1 7 19.85 0.68
-3 1 7 20.49 0.85
-3 1 7 19.9 0.81
-3 1 7 19.22 0.69
3 1 -7 19.79 0.76
-2 -1 7 24.49 0.87
2 -1 -7 23.8 1.01
-2 -1 7 23.62 0.75
-2 -1 7 24.26 0.71
-2 -1 7 23.41 0.54
-2 -1 7 24.62 0.74
2 -1 -7 23.95 0.78
2 -1 -7 23.96 0.73
2 -1 -7 23.42 0.93
-2 -1 7 23.85 0.95
-2 1 7 23.46 0.75
-2 1 7 23.72 0.91
2 1 -7 22.6 0.75
-2 1 7 24.66 0.72
2 1 -7 24.75 0.71
2 1 -7 23.29 0.88
-2 1 7 22.91 0.94
2 1 -7 23.12 1.04
1 -1 -7 6.36 0.52
-1 -1 7 6.45 0.45
-1 -1 7 6.01 0.48
-1 -1 7 6.02 0.36
-1 -1 7 5.9 0.57
1 -1 -7 5.82 0.64
1 -1 -7 6.14 0.48
1 1 -7 6.2 0.48
-1 1 7 5.73 0.18
1 1 -7 5.53 0.35
1 1 -7 5.54 0.63
1 1 -7 5.59 0.45
-1 1 7 5.77 0.36
-1 1 7 5.44 0.43
-1 1 7 5.54 0.5
-1 1 7 4.66 0.52
0 -1 7 13.52 0.8
0 -1 7 12.89 0.6
0 -1 -7 13.03 0.86
0 -1 7 13.15 0.69
0 -1 -7 13.86 0.63
0 -1 7 13.65 0.45
0 -1 -7 13.26 0.74
0 1 7 13.37 0.6
0 1 7 12.43 0.75
0 1 -7 14.07 0.89
0 1 7 13.84 0.47
0 1 -7 13.69 0.69
0 1 -7 13.59 0.46
0 1 7 13.37 0.41
-1 -1 -7 10.84 0.82
1 -1 7 10.45 0.61
1 -1 7 10.43 0.65
1 -1 7 10.09 0.76
-1 -1 -7 9.72 0.65
1 1 7 10.11 0.42
-1 1 -7 10.17 0.37
1 1 7 9.26 0.38
-1 1 -7 11.5 0.45
1 1 7 10.99 0.72
1 1 7 9.58 0.64
-1 1 -7 9.2 0.62
-1 1 -7 10.78 0.86
2 -1 7 3.92 0.6
-2 -1 -7 4.36 0.69
-2 -1 -7 4.17 0.52
-2 -1 -7 3.04 0.32
2 -1 7 3.77 0.49
2 -1 7 4.1 0.44
-2 1 -7 4.31 0.73
-2 1 -7 3.52 0.3
-2 1 -7 3.75 0.49
2 1 7 3.43 0.25
2 1 7 3.52 0.49
2 1 7 4.12 0.4
2 1 7 4.53 0.46
-3 -1 -7 11.75 0.76
3 -1 7 11.02 0.75
3 -1 7 12.07 0.79
-3 -1 -7 11.26 1.05
-3 -1 -7 11.54 0.6
3 -1 7 10.97 0.89
3 1 7 10.98 0.75
-3 1 -7 10.92 0.55
-3 1 -7 11.5 0.74
3 1 7 10.92 0.74
3 1 7 11.42 0.61
3 1 7 11.54 0.34
-3 1 -7 9.73 1.06
-4 -1 -7 2.57 0.4
4 -1 7 3.1 0.5
-4 -1 -7 2.35 0.66
4 -1 7 1.86 0.55
-4 -1 -7 2.24 0.46
4 1 7 2.45 0.5
-4 1 -7 2.64 0.39
4 1 7 2.87 0.44
-4 1 -7 3.41 0.75
4 1 7 2.48 0.48
-4 1 -7 3 0.5
-5 -1 -7 5.33 0.49
5 -1 7 5.19 0.8
5 -1 7 5.93 0.73
-5 -1 -7 6.74 0.97
-5 -1 -7 5.89 0.58
-5 1 -7 6.28 1.02
5 1 7 5.72 0.64
-5 1 -7 5.8 0.56
5 1 7 5.83 0.6
-5 1 -7 6.12 0.57
5 1 7 5.83 0.74
-6 -1 -7 -0.85 0.53
6 -1 7 -0.19 0.43
-6 -1 -7 0.18 0.42
-6 -1 -7 -0.21 0.71
-6 -1 -7 -0.23 0.44
6 -1 7 -0.09 0.51
6 1 7 -0.54 0.55
6 1 7 0.47 0.65
6 1 7 -0.03 0.52
6 1 7 -0.2 0.39
-6 1 -7 0.99 0.87
-6 1 -7 0.24 0.49
-7 -1 -7 1.06 0.93
7 -1 7 1.58 0.56
-7 -1 -7 1.54 0.69
-7 -1 -7 0.78 0.62
-7 -1 -7 1.12 0.58
7 -1 7 0.86 0.72
7 1 7 1.14 0.64
-7 1 -7 1.27 1.05
-7 1 -7 0.48 0.64
-7 1 -7 0.34 0.61
7 1 7 1.1 0.52
7 1 7 1.14 0.72
-7 1 -7 0.9 0.56
-8 -1 -7 -0.22 1.06
8 -1 7 -0.26 0.57
-8 -1 -7 -0.1 0.71
8 -1 7 -0.68 0.89
-8 -1 -7 0.43 0.7
-8 -1 -7 -0.28 0.84
8 1 7 -0.09 0.55
-8 1 -7 -0.02 1.16
-8 1 -7 0.93 0.79
-8 1 -7 -0.63 0.76
-8 1 -7 0.6 0.66
8 1 7 -0.18 0.68
8 1 7 0.29 0.87
-9 -1 -7 -1.17 0.83
-9 -1 -7 0.32 1.06
-9 -1 -7 -0.64 0.91
9 -1 7 0.07 1.03
9 -1 7 1.46 1.18
-9 -1 -7 1.15 1.34
9 -1 7 0.68 0.77
-9 1 -7 -0.92 0.96
9 1 7 0.49 1.13
-9 1 -7 -0.73 0.83
9 1 7 0.87 0.91
9 1 7 0.88 0.71
-9 1 -7 -1.92 1.32
-9 1 -7 1.33 1.08
10 -1 7 -0.26 0.97
-10 -1 -7 -1.57 1.19
-10 -1 -7 -0.04 1.4
10 1 7 -0.42 0.85
-10 1 -7 -1.26 1.36
-10 1 -7 1 1.33
10 1 7 2.34 1.21
-10 1 -7 -0.33 2.24
13 -2 -7 1.58 1.52
13 -2 -7 0.08 1.18
13 2 -7 -0.88 1.23
13 2 -7 1.49 1.16
13 2 -7 1.4 1.41
12 -2 -7 0.25 1.2
12 -2 -7 0.89 1.06
12 -2 -7 -0.19 0.65
12 -2 -7 1.64 0.94
12 -2 -7 1.49 1.11
12 2 -7 1.32 1.06
12 2 -7 -0.6 1.01
12 2 -7 0.04 0.94
12 2 -7 3.41 1.12
12 2 -7 0.71 0.87
12 2 -7 0.77 0.94
11 -2 -7 0.73 0.89
11 -2 -7 0.19 0.9
11 -2 -7 0.07 0.81
11 -2 -7 -0.24 0.5
11 -2 -7 -0.22 0.68
11 2 -7 -0.99 0.86
11 2 -7 1.58 0.79
-11 2 7 -0.13 0.84
11 2 -7 0.78 0.68
11 2 -7 0.17 0.74
11 2 -7 -1.19 0.76
11 2 -7 0.01 0.84
10 -2 -7 2.9 0.47
10 -2 -7 2.06 0.76
10 -2 -7 0.78 0.73
10 -2 -7 3.6 0.48
10 -2 -7 2.84 0.63
10 -2 -7 3.58 0.77
10 2 -7 4.03 0.75
10 2 -7 2.92 0.76
10 2 -7 3.51 0.68
10 2 -7 3.54 0.68
10 2 -7 3.26 0.68
-10 2 7 3.15 0.37
10 2 -7 3.71 0.61
-10 2 7 3.62 0.76
9 -2 -7 2.02 0.65
9 -2 -7 1.72 0.39
-9 2 7 1.46 0.35
9 2 -7 1.29 0.59
9 2 -7 1.77 0.53
9 2 -7 2.52 0.49
9 2 -7 2.15 0.62
9 2 -7 1.72 0.53
9 2 -7 1.36 0.53
8 -2 -7 40.14 1.33
8 -2 -7 41.81 1.43
8 -2 -7 40.83 1.4
-8 2 7 39.61 1.24
8 2 -7 41.58 1.21
8 2 -7 42.54 1.31
-8 2 7 37.7 1.33
8 2 -7 40.16 1.27
8 2 -7 39.92 1.9
8 2 -7 41.58 1.26
-7 -2 7 9.29 0.73
7 -2 -7 9.72 0.75
7 -2 -7 8.59 0.63
7 -2 -7 9.01 0.68
7 -2 -7 10.14 0.79
7 -2 -7 9.52 0.75
7 2 -7 10.17 0.69
7 2 -7 9.64 0.55
-7 2 7 9.4 0.66
-7 2 7 8.98 0.72
7 2 -7 9.41 0.67
-7 2 7 9.1 0.57
7 2 -7 9.1 0.62
-7 2 7 8.96 0.59
7 2 -7 10.83 0.71
7 2 -7 9.53 0.75
-6 -2 7 2.75 0.39
6 -2 -7 3.38 0.42
6 -2 -7 3.49 0.48
6 -2 -7 2.64 0.41
-6 -2 7 3.24 0.31
-6 -2 7 3.13 0.3
6 -2 -7 2.31 0.39
6 -2 -7 3.85 0.49
-6 -2 7 3.56 0.38
6 2 -7 3.3 0.38
6 2 -7 3.43 0.34
-6 2 7 3.62 0.46
6 2 -7 3.21 0.37
-6 2 7 3.05 0.4
6 2 -7 3.17 0.41
-6 2 7 3.94 0.45
-6 2 7 2.63 0.43
6 2 -7 3.34 0.38
6 2 -7 3.52 0.41
6 2 -7 3.21 0.41
-6 2 7 2.79 0.31
5 -2 -7 0.41 0.25
-5 -2 7 0.25 0.3
5 -2 -7 0.56 0.32
5 -2 -7 0.69 0.27
5 -2 -7 0.47 0.29
-5 -2 7 0.46 0.26
5 -2 -7 0.42 0.29
-5 -2 7 0.1 0.22
5 2 -7 0.55 0.2
-5 2 7 0.35 0.21
-5 2 7 0.4 0.29
-5 2 7 0.42 0.3
5 2 -7 0.51 0.28
-5 2 7 0.74 0.23
5 2 -7 0.4 0.28
-5 2 7 0.7 0.31
5 2 -7 0.34 0.3
5 2 -7 0.29 0.28
5 2 -7 0.38 0.15
-4 -2 7 22.99 0.64
4 -2 -7 22.75 0.75
-4 -2 7 22 0.73
-4 -2 7 22.75 0.84
4 -2 -7 23.57 0.81
4 -2 -7 22.15 0.93
4 -2 -7 22.37 0.94
-4 -2 7 22.67 0.78
-4 -2 7 21.91 0.77
-4 2 7 25.05 0.7
4 2 -7 22.47 0.96
4 2 -7 22.6 0.78
-4 2 7 22.12 0.89
-4 2 7 23.74 0.79
-4 2 7 22.9 0.78
-4 2 7 22.76 0.93
4 2 -7 22.16 0.81
4 2 -7 22.66 0.74
3 -2 -7 2.85 0.12
3 -2 -7 2.74 0.39
-3 -2 7 2.85 0.38
-3 -2 7 3.03 0.23
-3 -2 7 3.67 0.34
3 -2 -7 3.54 0.46
-3 -2 7 3.43 0.31
-3 -2 7 3.43 0.36
3 -2 -7 3.34 0.36
3 2 -7 2.6 0.33
3 2 -7 2.34 0.28
3 2 -7 2.11 0.41
-3 2 7 3.88 0.48
-3 2 7 3.24 0.42
-3 2 7 3.28 0.33
-3 2 7 3.85 0.35
3 2 -7 3.4 0.33
2 -2 -7 1.87 0.28
2 -2 -7 1.39 0.29
2 -2 -7 2.46 0.42
-2 -2 7 2.08 0.26
-2 -2 7 1.77 0.34
-2 -2 7 1.85 0.17
-2 -2 7 1.6 0.27
-2 -2 7 1.98 0.31
-2 2 7 1.71 0.26
2 2 -7 2.06 0.29
-2 2 7 1.7 0.26
-2 2 7 1.54 0.31
2 2 -7 1.51 0.4
-2 2 7 1.82 0.36
2 2 -7 1.74 0.25
2 2 -7 1.86 0.3
-1 -2 7 98.29 2.27
-1 -2 7 96.02 2.63
1 -2 -7 101.68 2.61
-1 -2 7 98.09 2.5
1 -2 -7 101.9 2.69
1 -2 -7 101.12 2.3
1 2 -7 104.7 2.22
-1 2 7 99.29 2.28
1 2 -7 98.89 2.29
1 2 -7 101.36 2.52
-1 2 7 104.83 2.58
-1 2 7 99.33 2.62
-1 2 7 103.99 2.24
0 -2 7 5.73 0.5
0 -2 -7 5.87 0.57
0 -2 7 5.87 0.62
0 -2 -7 5.28 0.7
0 -2 7 4.87 0.38
0 -2 -7 5.71 0.43
0 2 -7 5.77 0.49
0 2 7 6.06 0.57
0 2 7 5.81 0.47
0 2 -7 5.8 0.71
0 2 7 5.76 0.27
0 2 -7 5.49 0.33
0 2 7 5.78 0.37
0 2 7 6.16 0.6
1 -2 7 26.92 0.92
-1 -2 -7 28.29 1.12
1 -2 7 27.31 1.08
-1 -2 -7 27.65 0.94
1 -2 7 29.34 1.24
-1 -2 -7 28.22 1.27
1 2 7 27.94 0.91
1 2 7 27.67 0.75
1 2 7 27.99 0.76
1 2 7 29.55 1.18
-1 2 -7 28.01 0.71
1 2 7 28.39 1.1
-1 2 -7 26.46 1.05
-1 2 -7 28.1 0.75
-1 2 -7 26.32 1.31
-2 -2 -7 7.28 0.83
-2 -2 -7 7.6 0.66
-2 -2 -7 7.17 0.46
2 -2 7 7.94 0.55
2 -2 7 6.39 0.59
2 -2 7 6.11 0.7
-2 2 -7 6.95 0.43
2 2 7 7.04 0.7
-2 2 -7 7.06 0.94
2 2 7 6.95 0.45
-2 2 -7 6.84 0.28
2 2 7 6.91 0.6
2 2 7 7.16 0.36
2 2 7 6.88 0.6
-3 -2 -7 8.43 1
-3 -2 -7 6.44 0.56
3 -2 7 8.11 0.68
3 -2 7 8.52 0.85
-3 -2 -7 8.35 0.7
3 2 7 8.04 0.68
3 2 7 7.99 0.36
-3 2 -7 7.78 0.51
-3 2 -7 7.48 0.63
3 2 7 7.82 0.57
3 2 7 7.11 0.54
3 2 7 6.85 0.78
-3 2 -7 8.3 1.02
-4 -2 -7 4.25 0.59
4 -2 7 5.77 0.66
-4 -2 -7 4.48 0.49
4 -2 7 4.45 0.67
-4 -2 -7 4 0.77
-4 2 -7 5.45 0.47
-4 2 -7 5.06 0.64
-4 2 -7 4.32 0.82
4 2 7 3.96 0.52
4 2 7 4.4 0.29
4 2 7 5.6 0.72
4 2 7 4.05 0.46
4 2 7 5.55 0.64
-5 -2 -7 0.35 0.36
5 -2 7 0.23 0.49
-5 -2 -7 0.16 0.62
-5 -2 -7 0.74 0.43
5 -2 7 0.21 0.44
-5 2 -7 1.23 0.44
5 2 7 0.99 0.52
5 2 7 0.71 0.47
-5 2 -7 0.44 0.82
5 2 7 0.55 0.4
-5 2 -7 0.36 0.39
5 2 7 0.18 0.42
6 -2 7 3.42 0.63
-6 -2 -7 3.97 0.65
-6 -2 -7 4.9 0.99
6 -2 7 2.27 0.67
-6 -2 -7 3.26 0.7
-6 -2 -7 3.6 0.52
6 -2 7 3.67 0.54
-6 2 -7 3.57 0.98
6 2 7 2.97 0.61
6 2 7 2.37 0.61
6 2 7 2.8 0.69
-6 2 -7 2.55 0.61
-6 2 -7 3.18 0.62
6 2 7 4.74 0.74
-7 -2 -7 0.39 0.72
-7 -2 -7 0.4 0.88
-7 -2 -7 0.39 0.58
-7 -2 -7 0.35 0.55
7 -2 7 1.12 0.72
7 -2 7 -0.25 0.73
7 -2 7 0.85 0.57
-7 2 -7 0.34 0.55
7 2 7 0.75 0.62
-7 2 -7 0.18 0.63
7 2 7 0.93 0.56
7 2 7 1.07 0.72
7 2 7 1.01 0.81
-7 2 -7 0.57 0.65
-7 2 -7 0.95 1.05
8 -2 7 5.13 0.91
8 -2 7 2.63 0.95
-8 -2 -7 4.45 0.92
8 -2 7 6.16 0.91
-8 -2 -7 4 0.86
8 2 7 4.77 1
8 2 7 4.47 1.08
-8 2 -7 3.86 0.93
8 2 7 3.72 0.72
-8 2 -7 4 0.9
-8 2 -7 4.92 0.85
9 -2 7 0.73 0.71
9 -2 7 2.45 1.09
-9 -2 -7 1.02 1.4
-9 -2 -7 2.65 0.9
9 -2 7 -0.52 1.03
-9 -2 -7 -0.54 0.9
-9 -2 -7 -0.16 1.11
-9 2 -7 1.3 1.12
-9 2 -7 1.54 0.91
9 2 7 1.68 0.75
9 2 7 2.65 1.28
9 2 7 0.26 0.95
-9 2 -7 0.2 1.37
9 2 7 0.21 1.16
-10 -2 -7 0.1 1.08
-10 -2 -7 0.66 1.18
-10 -2 -7 -0.21 1.6
10 -2 7 -0.97 1.27
10 -2 7 0.29 0.95
-10 2 -7 -0.17 1.3
10 2 7 0.48 0.91
-10 2 -7 3.22 2.29
10 2 7 3.39 1.66
12 -3 -7 0.04 1.03
12 -3 -7 -0.62 1.23
12 -3 -7 0.27 0.79
12 -3 -7 0.85 0.99
12 -3 -7 0.58 0.51
12 -3 -7 -0.28 1.22
12 3 -7 1.05 0.96
-12 3 7 -1.22 1.13
12 3 -7 -0.43 1.04
12 3 -7 0.86 1.03
12 3 -7 2.31 1.14
12 3 -7 -0.17 1
12 3 -7 0.73 0.95
11 -3 -7 1.03 0.94
11 -3 -7 -0.16 0.71
11 -3 -7 -0.86 0.98
11 -3 -7 -0.64 0.84
11 3 -7 -1.09 0.79
-11 3 7 -0.28 0.44
-11 3 7 0.45 0.91
11 3 -7 0.58 0.69
11 3 -7 -0.51 0.78
11 3 -7 0.41 0.9
11 3 -7 -0.33 0.74
11 3 -7 -1.57 0.79
10 -3 -7 -0.49 0.68
10 -3 -7 0.14 0.75
10 -3 -7 1.36 0.45
10 -3 -7 0.87 0.62
10 -3 -7 0.56 0.74
10 3 -7 1.02 0.63
-10 3 7 1.19 0.74
10 3 -7 1.06 0.55
10 3 -7 1.06 0.67
10 3 -7 1.08 0.62
10 3 -7 0.94 0.73
-10 3 7 1.2 0.41
10 3 -7 1.24 0.74
9 -3 -7 0.02 0.64
9 -3 -7 -0.34 0.42
9 -3 -7 0.02 0.38
-9 3 7 1.05 0.6
-9 3 7 -0.29 0.35
9 3 -7 0.24 0.41
9 3 -7 0.19 0.58
9 3 -7 0.29 0.6
9 3 -7 0.29 0.5
-9 3 7 0.34 0.42
9 3 -7 0.48 0.58
9 3 -7 -0.05 0.54
8 -3 -7 2.2 0.42
8 -3 -7 2.08 0.57
8 -3 -7 1.96 0.52
8 -3 -7 2.18 0.54
8 3 -7 2.37 0.46
8 3 -7 1.71 0.46
8 3 -7 1.9 0.56
-8 3 7 1.36 0.41
8 3 -7 1.89 0.38
-8 3 7 2.29 0.55
-8 3 7 1.4 0.44
8 3 -7 1.74 0.47
7 -3 -7 2.05 0.48
7 -3 -7 1.57 0.43
7 -3 -7 2.24 0.41
-7 -3 7 1.58 0.47
7 -3 -7 2.46 0.5
7 3 -7 2.73 0.39
7 3 -7 1.68 0.46
-7 3 7 2.19 0.41
-7 3 7 2.87 0.46
7 3 -7 1.32 0.45
7 3 -7 1.71 0.31
-7 3 7 2.9 0.49
7 3 -7 1.74 0.38
-7 3 7 1.82 0.3
7 3 -7 1.99 0.42
-6 -3 7 0.89 0.39
-6 -3 7 1.39 0.23
6 -3 -7 0.82 0.31
6 -3 -7 0.94 0.36
-6 -3 7 1.03 0.31
6 -3 -7 1.18 0.37
-6 -3 7 1.33 0.2
6 -3 -7 1.18 0.4
-6 3 7 0.92 0.25
6 3 -7 1.18 0.33
6 3 -7 1.15 0.25
-6 3 7 1.08 0.37
6 3 -7 1.06 0.32
-6 3 7 0.74 0.38
-6 3 7 1.23 0.34
6 3 -7 1.08 0.29
6 3 -7 1.39 0.23
6 3 -7 1.37 0.41
6 3 -7 1 0.35
-6 3 7 0.77 0.37
-5 -3 7 4.93 0.42
5 -3 -7 5.24 0.52
5 -3 -7 3.85 0.44
-5 -3 7 3.69 0.41
5 -3 -7 4.61 0.58
-5 -3 7 4.3 0.35
-5 -3 7 4.2 0.41
5 -3 -7 4.16 0.4
5 3 -7 4.85 0.37
-5 3 7 4.88 0.55
-5 3 7 3.59 0.4
-5 3 7 4.67 0.49
5 3 -7 4.18 0.54
5 3 -7 4.77 0.38
-5 3 7 4.26 0.38
5 3 -7 3.86 0.31
5 3 -7 3.59 0.38
-5 3 7 4.2 0.43
5 3 -7 4.44 0.42
4 -3 -7 5.61 0.58
-4 -3 7 4.83 0.34
-4 -3 7 4.82 0.43
4 -3 -7 4.2 0.51
-4 -3 7 4.24 0.41
4 -3 -7 4.11 0.38
-4 -3 7 4.14 0.38
-4 -3 7 4.32 0.49
4 -3 -7 4.2 0.36
4 3 -7 4.78 0.41
-4 3 7 5.21 0.6
-4 3 7 4.62 0.37
4 3 -7 4.44 0.4
4 3 -7 4.52 0.39
-4 3 7 4.29 0.38
-4 3 7 3.83 0.46
-4 3 7 5.4 0.43
4 3 -7 4.6 0.35
4 3 -7 4.38 0.58
3 -3 -7 11.15 0.6
-3 -3 7 10.4 0.39
-3 -3 7 10.61 0.64
-3 -3 7 10.74 0.56
-3 -3 7 10.41 0.5
-3 -3 7 10.5 0.57
3 -3 -7 10.06 0.67
3 -3 -7 10.38 0.5
3 -3 -7 10.29 0.7
3 3 -7 10.84 0.56
3 3 -7 10.48 0.54
3 3 -7 11.53 0.77
-3 3 7 10.37 0.64
-3 3 7 10.87 0.57
3 3 -7 9.96 0.51
-3 3 7 10.55 0.56
-3 3 7 10.97 0.72
-2 -3 7 100.76 2.23
-2 -3 7 97.1 2.46
-2 -3 7 95.06 2.6
-2 -3 7 99.04 2.28
2 -3 -7 101.23 2.28
2 -3 -7 100.13 2.67
-2 -3 7 100.09 2.14
2 -3 -7 98.41 2.64
2 -3 -7 100.2 2.09
-2 3 7 99.58 2.26
2 3 -7 100.21 2.24
2 3 -7 102.01 2.49
2 3 -7 100.85 2.71
-2 3 7 104.12 2.27
2 3 -7 98.48 2.25
-2 3 7 100.16 2.62
-2 3 7 99.11 2.6
-1 -3 7 9.75 0.53
1 -3 -7 8.62 0.67
1 -3 -7 9.14 0.56
-1 -3 7 9.7 0.6
-1 -3 7 9.26 0.7
-1 -3 7 8.65 0.52
1 -3 -7 9.37 0.67
1 -3 -7 8.83 0.33
-1 3 7 9.52 0.49
1 3 -7 9.18 0.57
1 3 -7 8.34 0.44
1 3 -7 9.4 0.81
-1 3 7 8.89 0.52
-1 3 7 9.21 0.65
-1 3 7 8.99 0.65
0 -3 7 225.23 5.3
0 -3 7 221.67 5.08
0 -3 -7 221.75 5.19
0 -3 7 219.36 4.77
0 -3 -7 228.03 4.79
0 -3 -7 221.95 5.24
0 3 7 224.47 4.7
0 3 -7 226.44 4.66
0 3 -7 215.4 5.33
0 3 7 223.67 4.75
0 3 7 230.16 4.63
0 3 7 221.82 5.13
0 3 -7 222.56 5.06
0 3 7 225.28 5.21
0 3 -7 226.78 4.61
-1 -3 -7 41.78 1.48
1 -3 7 42.56 1.62
1 -3 7 43.09 1.23
1 -3 7 43.13 1.43
-1 -3 -7 43.32 1.23
-1 -3 -7 43.66 1.62
1 3 7 42.74 1.19
1 3 7 43.37 1.07
-1 3 -7 43.93 1.03
-1 3 -7 43.67 1.04
1 3 7 43.01 1.5
1 3 7 44.34 1.47
-1 3 -7 42.92 1.69
-1 3 -7 43.34 1.43
2 -3 7 9.06 0.72
2 -3 7 10.16 0.72
-2 -3 -7 9.52 0.73
-2 -3 -7 9.99 0.96
2 -3 7 8.16 0.83
-2 -3 -7 9.58 0.56
2 3 7 9.48 0.5
-2 3 -7 9.98 0.47
-2 3 -7 9.98 1.07
2 3 7 10.09 0.71
-2 3 -7 9.78 0.37
2 3 7 9.94 0.65
-2 3 -7 9.71 0.7
2 3 7 9.14 0.76
-3 -3 -7 13.77 0.85
3 -3 7 12.05 0.83
-3 -3 -7 13.47 0.65
3 -3 7 11.35 1.01
-3 -3 -7 12.9 1.1
-3 3 -7 13.05 0.35
3 3 7 13.74 0.79
3 3 7 12.63 0.83
-3 3 -7 13.29 0.61
-3 3 -7 14.9 1.25
3 3 7 13.56 0.65
3 3 7 14.26 0.97
-3 3 -7 13.72 0.84
4 -3 7 2.9 0.56
-4 -3 -7 2.93 0.33
4 -3 7 3.76 0.74
-4 -3 -7 3.26 0.81
-4 -3 -7 2.57 0.48
-4 -3 -7 2.42 0.46
-4 3 -7 3.17 0.42
4 3 7 2.18 0.45
-4 3 -7 4.19 0.91
4 3 7 3.85 0.48
4 3 7 3.96 0.56
-4 3 -7 3.03 0.55
4 3 7 3.51 0.61
5 -3 7 2.74 0.72
5 -3 7 1.87 0.55
-5 -3 -7 1.1 0.47
-5 -3 -7 1.89 0.37
-5 -3 -7 2.39 0.8
-5 -3 -7 2.17 0.55
5 -3 7 2.34 0.44
5 3 7 2.14 0.51
5 3 7 1.69 0.53
5 3 7 1.42 0.59
-5 3 -7 0.98 0.79
-5 3 -7 1.74 0.47
5 3 7 2.81 0.54
6 -3 7 0.3 0.59
-6 -3 -7 1.26 0.43
-6 -3 -7 1.43 0.88
6 -3 7 0.96 0.56
-6 -3 -7 1.14 0.57
6 -3 7 0.58 0.53
6 3 7 0.66 0.55
6 3 7 0.62 0.66
-6 3 -7 1.62 0.95
6 3 7 1.16 0.5
-6 3 -7 0.33 0.52
6 3 7 1.11 0.2
-6 3 -7 0.56 0.59
6 3 7 0.23 0.6
7 -3 7 2.56 0.89
-7 -3 -7 1.16 0.54
-7 -3 -7 1.48 0.61
7 -3 7 2.53 0.72
-7 -3 -7 0.11 0.92
-7 -3 -7 0.25 0.75
7 3 7 2.34 0.73
-7 3 -7 1.81 0.75
-7 3 -7 1.93 1.11
-7 3 -7 3.46 0.73
7 3 7 2.25 0.74
7 3 7 2.91 0.84
-7 3 -7 1.29 0.56
7 3 7 0.77 0.55
-8 -3 -7 -0.02 0.73
8 -3 7 1.08 0.86
-8 -3 -7 0.66 1.17
-8 -3 -7 0.21 0.69
-8 -3 -7 1.55 0.89
8 -3 7 1.64 0.9
8 -3 7 -0.38 0.62
8 3 7 0.11 0.76
-8 3 -7 -0.48 0.68
8 3 7 0.57 0.57
-8 3 -7 -0.37 1.2
8 3 7 0.1 0.85
-8 3 -7 0.08 0.87
8 3 7 0.38 1
-9 -3 -7 1.55 0.89
-9 -3 -7 -0.07 1.09
9 -3 7 0.91 1.13
-9 -3 -7 1.33 0.92
9 -3 7 2.02 0.9
9 -3 7 3.11 1.19
-9 -3 -7 0.1 1.36
-9 3 -7 2.33 0.9
9 3 7 0.93 1.28
9 3 7 3.53 0.85
9 3 7 1.35 0.97
9 3 7 2.32 1.16
-9 3 -7 2.09 1.65
-9 3 -7 0.77 1.13
-10 -3 -7 1.21 1.22
-10 3 -7 1.22 1.42
12 -4 -7 -1.58 0.94
12 -4 -7 1.34 0.63
12 -4 -7 -1.15 1.36
-12 4 7 1.08 1.16
12 4 -7 0.5 1.01
12 4 -7 1.62 1.12
-12 4 7 0.56 0.64
12 4 -7 0.14 1.12
12 4 -7 1.76 0.93
12 4 -7 -0.14 0.95
12 4 -7 0.75 1.19
11 -4 -7 0.08 0.88
11 -4 -7 -1.07 0.62
11 -4 -7 1.04 0.89
11 -4 -7 -0.6 0.51
11 -4 -7 -1.02 1.02
-11 4 7 -0.56 0.94
11 4 -7 -0.89 0.92
11 4 -7 -0.39 0.91
11 4 -7 -0.21 0.81
-11 4 7 -0.3 0.65
11 4 -7 0.84 0.76
11 4 -7 -0.76 0.77
11 4 -7 1.14 0.7
10 -4 -7 4.11 0.82
10 -4 -7 5.43 0.86
10 -4 -7 5 0.66
10 -4 -7 4.41 0.91
10 -4 -7 5.25 0.87
10 4 -7 5.86 0.84
10 4 -7 4.81 0.86
10 4 -7 5.96 0.87
-10 4 7 4.72 0.86
10 4 -7 5.06 0.73
-10 4 7 6.58 0.77
10 4 -7 5.55 0.69
10 4 -7 5.9 0.69
9 -4 -7 2.16 0.53
9 -4 -7 1.6 0.59
9 -4 -7 1.04 0.61
9 -4 -7 0.78 0.72
-9 4 7 2.27 0.48
9 4 -7 1.26 0.61
9 4 -7 1.49 1.08
9 4 -7 1 0.6
9 4 -7 1.37 0.52
9 4 -7 1.2 0.56
9 4 -7 2.11 0.64
-9 4 7 1.72 0.68
-9 4 7 0.3 0.54
8 -4 -7 15.44 1.11
8 -4 -7 18.7 1.1
8 -4 -7 18.36 0.99
8 -4 -7 18.54 0.99
-8 4 7 20.02 1.11
-8 4 7 19.91 1.07
8 4 -7 18.45 0.83
8 4 -7 16.81 1
8 4 -7 18.73 0.87
8 4 -7 19.8 1.07
8 4 -7 18.79 1.59
8 4 -7 19.11 0.85
-8 4 7 17.3 0.95
7 -4 -7 9.32 0.77
7 -4 -7 10.19 0.87
-7 -4 7 9.62 0.72
7 -4 -7 9.53 0.86
7 -4 -7 8.64 0.79
7 4 -7 10.01 0.63
7 4 -7 9.05 0.77
-7 4 7 9.61 0.74
7 4 -7 9.48 0.67
-7 4 7 10.3 0.86
7 4 -7 10.33 0.76
7 4 -7 10.21 0.83
-7 4 7 9.57 0.7
7 4 -7 10.03 0.57
6 -4 -7 9.31 0.71
-6 -4 7 9.67 0.63
-6 -4 7 9 0.47
6 -4 -7 8.82 0.69
6 -4 -7 10.4 0.79
-6 -4 7 10.08 0.78
-6 -4 7 9.08 0.44
6 -4 -7 7.97 0.79
-6 -4 7 8.99 0.57
-6 4 7 10.7 0.84
6 4 -7 9.31 0.71
6 4 -7 10.55 0.74
6 4 -7 9.65 0.54
6 4 -7 9.18 0.48
-6 4 7 9.1 0.46
6 4 -7 9.68 0.51
6 4 -7 9.86 0.61
6 4 -7 9.51 0.65
-6 4 7 10.61 0.74
-6 4 7 8.94 0.66
-5 -4 7 5.17 0.48
-5 -4 7 7.43 0.65
-5 -4 7 5.37 0.37
5 -4 -7 5.08 0.6
5 -4 -7 4.51 0.42
5 -4 -7 5.09 0.48
5 -4 -7 4.95 0.66
-5 -4 7 5.31 0.5
-5 4 7 5.13 0.57
5 4 -7 4.97 0.64
-5 4 7 5.67 0.37
5 4 -7 4.55 0.38
5 4 -7 4.77 0.44
-5 4 7 5.76 0.65
5 4 -7 4.94 0.4
-5 4 7 5.86 0.51
5 4 -7 5.41 0.49
5 4 -7 4.8 0.44
-5 4 7 5.97 0.52
-4 -4 7 0.35 0.23
-4 -4 7 0.33 0.2
4 -4 -7 0.28 0.28
-4 -4 7 0.41 0.26
4 -4 -7 0.44 0.31
-4 -4 7 0.58 0.22
4 -4 -7 0.18 0.39
-4 -4 7 0.35 0.3
4 -4 -7 0.03 0.27
-4 4 7 0.67 0.28
4 4 -7 0.34 0.37
4 4 -7 0.05 0.28
4 4 -7 0.3 0.2
-4 4 7 0.54 0.3
-4 4 7 0.22 0.31
4 4 -7 0.64 0.25
-4 4 7 0.22 0.37
4 4 -7 0.35 0.29
-3 -4 7 1.16 0.31
-3 -4 7 1.08 0.34
3 -4 -7 0.88 0.25
-3 -4 7 1.01 0.2
3 -4 -7 0.54 0.32
-3 -4 7 1.16 0.29
-3 -4 7 0.73 0.24
3 -4 -7 0.95 0.29
3 -4 -7 0.77 0.32
3 4 -7 1.18 0.27
-3 4 7 1.09 0.31
-3 4 7 0.97 0.32
-3 4 7 0.91 0.31
3 4 -7 0.88 0.27
-3 4 7 0.52 0.38
3 4 -7 1.38 0.43
3 4 -7 1.27 0.32
-2 -4 7 3.01 0.45
-2 -4 7 3.98 0.45
2 -4 -7 3.89 0.4
-2 -4 7 3.87 0.4
2 -4 -7 3.92 0.36
2 -4 -7 4.17 0.54
2 -4 -7 3.79 0.24
-2 -4 7 4.38 0.34
2 -4 -7 3.24 0.43
2 4 -7 3.42 0.41
2 4 -7 4.29 0.37
2 4 -7 3.2 0.54
-2 4 7 4.26 0.56
-2 4 7 4.32 0.56
-2 4 7 3.22 0.34
2 4 -7 4.06 0.35
-2 4 7 3.09 0.33
1 -4 -7 24.27 1.09
-1 -4 7 22.44 0.77
-1 -4 7 22.87 0.79
1 -4 -7 22.25 0.63
1 -4 -7 23.49 0.83
1 -4 -7 24.65 1.11
-1 -4 7 21.58 1.06
-1 -4 7 20.95 0.93
-1 4 7 23.33 1.06
1 4 -7 24.23 0.74
1 4 -7 22.64 0.93
1 4 -7 22.8 1.19
-1 4 7 24.38 0.79
-1 4 7 22.72 1.05
1 4 -7 23.57 0.56
0 -4 -7 0.06 0.28
0 -4 7 0.24 0.29
0 -4 7 -0.06 0.31
0 -4 7 0.17 0.26
0 -4 7 -0.03 0.27
0 -4 -7 -0.37 0.3
0 -4 -7 -0.05 0.18
0 -4 -7 -0.15 0.26
0 4 7 0.1 0.3
0 4 -7 0.03 0.13
0 4 7 -0.04 0.26
0 4 -7 0.11 0.23
0 4 7 -0.19 0.3
0 4 -7 -0.21 0.41
0 4 7 0.09 0.13
0 4 -7 0.02 0.2
1 -4 7 22.27 1.01
1 -4 7 21.61 1.2
-1 -4 -7 21.24 0.84
-1 -4 -7 21.04 1.05
1 -4 7 20.3 0.86
1 4 7 21.06 0.79
-1 4 -7 20.51 0.6
1 4 7 21.18 1.06
1 4 7 23.16 1.05
-1 4 -7 21.49 1.29
1 4 7 20.83 0.65
-1 4 -7 21.86 0.65
-1 4 -7 22.36 0.98
-2 -4 -7 33.27 1.51
2 -4 7 36.39 1.37
2 -4 7 34.14 1.55
-2 -4 -7 35.21 1.39
2 4 7 35.17 1.39
2 4 7 34.11 1.09
2 4 7 35.16 0.98
-2 4 -7 34.32 1.31
-2 4 -7 35.06 0.87
2 4 7 35.57 1.33
-2 4 -7 37.1 1.7
-2 4 -7 36.33 0.93
-3 -4 -7 3.41 0.52
-3 -4 -7 4.91 0.8
3 -4 7 2.84 0.57
3 -4 7 4.49 0.66
-3 -4 -7 4 0.47
-3 4 -7 3.93 0.37
3 4 7 2.96 0.43
3 4 7 3.64 0.57
3 4 7 4.6 0.43
3 4 7 3.92 0.62
-3 4 -7 4.1 0.88
-3 4 -7 3.4 0.3
-3 4 -7 3.81 0.54
-4 -4 -7 19 0.84
-4 -4 -7 17.67 0.65
-4 -4 -7 17.4 1.08
4 -4 7 17.69 1.06
4 -4 7 19.05 1.36
-4 -4 -7 19.07 1.38
-4 4 -7 20.57 1.53
-4 4 -7 18.7 1.08
4 4 7 18.17 1.05
4 4 7 18.02 1.12
4 4 7 18.73 0.85
4 4 7 17.76 0.97
-4 4 -7 18.44 0.78
5 -4 7 7.97 0.61
5 -4 7 6.41 0.9
-5 -4 -7 6.47 0.83
-5 -4 -7 7.79 1.05
-5 -4 -7 6.59 0.64
5 -4 7 6.92 0.84
-5 -4 -7 6.43 0.58
5 4 7 7.3 0.91
5 4 7 6.89 0.64
5 4 7 6.1 0.66
-5 4 -7 6 0.55
-5 4 -7 6.49 1.1
6 -4 7 2.79 0.67
-6 -4 -7 4.32 0.49
6 -4 7 5.96 1.03
-6 -4 -7 4.99 0.73
6 -4 7 5.5 0.64
-6 -4 -7 6.32 1.09
-6 4 -7 5.74 0.66
6 4 7 5.81 0.76
6 4 7 5.49 0.83
-6 4 -7 4.42 1.11
-6 4 -7 4.11 0.7
7 -4 7 0.7 0.88
-7 -4 -7 -1.01 0.93
-7 -4 -7 0.48 0.61
7 -4 7 0.71 0.59
-7 -4 -7 -0.28 0.71
-7 -4 -7 -0.12 0.52
7 4 7 0.05 0.28
7 4 7 0.96 0.77
-7 4 -7 2.45 1.2
-7 4 -7 -0.97 0.51
7 4 7 -0.36 0.63
-7 4 -7 1.26 0.74
7 4 7 0.52 0.68
7 4 7 -0.12 0.5
8 -4 7 7.26 1
-8 -4 -7 7.8 1.04
8 -4 7 8.43 1.14
-8 -4 -7 5.59 0.75
8 -4 7 8.53 1.32
-8 -4 -7 6.03 1.01
-8 4 -7 6.44 1.05
8 4 7 8.96 1.12
8 4 7 6.38 1.09
8 4 7 7.18 1.1
8 4 7 7.51 1.03
-8 4 -7 7.1 1.04
-8 4 -7 5.8 1.57
8 4 7 6.77 0.43
-9 -4 -7 2.13 1.16
-9 -4 -7 1.85 1.46
9 -4 7 -1.19 0.86
-9 -4 -7 -0.34 1.28
9 -4 7 3.49 1.28
-9 -4 -7 2.79 1.04
9 -4 7 0.47 1.19
9 4 7 0.57 0.8
9 4 7 0.88 1.12
-9 4 -7 1.79 1.2
-9 4 -7 -0.71 1.66
-9 4 -7 1.12 0.95
9 4 7 1.78 1.26
9 4 7 1.83 0.95
12 -5 -7 -1.36 1.42
12 -5 -7 2.48 0.95
12 -5 -7 0.62 0.74
12 5 -7 -1.39 0.93
12 5 -7 1.94 1.19
12 5 -7 -0.19 1.27
-12 5 7 0.11 1.22
12 5 -7 0.38 1.07
-12 5 7 -1.54 0.62
12 5 -7 -0.82 1.15
12 5 -7 -0.64 0.92
11 -5 -7 1 1.09
11 -5 -7 -0.17 1.18
11 -5 -7 2.35 0.86
11 -5 -7 2.44 0.71
11 -5 -7 1.22 0.98
11 5 -7 1.16 0.86
11 5 -7 0.56 0.73
-11 5 7 0.24 0.81
11 5 -7 1.83 0.76
-11 5 7 0.65 0.61
11 5 -7 0.51 0.93
11 5 -7 0.63 1
11 5 -7 1.97 1.05
-11 5 7 0.19 0.96
10 -5 -7 -1.1 0.64
10 -5 -7 0.07 0.87
10 -5 -7 0.13 0.57
10 -5 -7 -0.18 0.76
-10 5 7 -0.13 0.7
-10 5 7 -0.89 0.52
10 5 -7 -1.55 0.81
-10 5 7 -0.46 0.78
10 5 -7 0.51 0.59
10 5 -7 -0.36 0.64
10 5 -7 -0.04 0.58
10 5 -7 -0.24 0.75
10 5 -7 -0.76 0.71
9 -5 -7 1 0.7
9 -5 -7 1.78 0.52
9 -5 -7 0.92 0.65
9 -5 -7 1.35 0.79
9 5 -7 1.79 0.65
-9 5 7 1.77 0.72
9 5 -7 1.61 0.7
9 5 -7 1.86 0.5
9 5 -7 1.09 0.62
9 5 -7 1.68 0.56
-9 5 7 -0.26 0.58
9 5 -7 2.5 0.51
8 -5 -7 0.11 0.48
8 -5 -7 -0.45 0.63
8 -5 -7 0.6 0.51
8 5 -7 0 0.53
-8 5 7 0 0.61
8 5 -7 0.1 0.54
8 5 -7 -0.53 0.4
-8 5 7 0.14 0.5
8 5 -7 0.45 0.57
8 5 -7 0.23 0.42
8 5 -7 0.16 0.35
-8 5 7 -0.64 0.42
-7 -5 7 15.94 1.02
7 -5 -7 15.88 1.01
7 -5 -7 15.16 0.94
7 -5 -7 14.51 1.12
7 5 -7 15.42 0.71
7 5 -7 15.54 0.86
7 5 -7 15.32 0.71
-7 5 7 17.66 0.97
7 5 -7 15.25 0.75
-7 5 7 16.4 1.07
-7 5 7 16.13 0.95
7 5 -7 15.07 0.91
-6 -5 7 14.92 0.61
6 -5 -7 14.4 0.89
6 -5 -7 14.58 0.91
6 -5 -7 15.46 1.06
-6 -5 7 15.41 0.71
-6 -5 7 15.43 0.77
-6 -5 7 14.37 0.92
6 -5 -7 15.22 0.82
-6 -5 7 15.48 0.66
6 5 -7 14.96 0.62
-6 5 7 14.25 1.02
6 5 -7 14.68 0.61
-6 5 7 15.2 0.5
-6 5 7 14.67 0.88
6 5 -7 15.43 0.87
6 5 -7 14.93 0.63
6 5 -7 14.45 0.87
-6 5 7 14.37 0.87
6 5 -7 15.8 0.82
6 5 -7 14.34 0.66
5 -5 -7 13.54 0.95
5 -5 -7 12.52 0.87
-5 -5 7 13.34 0.78
5 -5 -7 13.49 0.8
-5 -5 7 14.02 0.76
-5 -5 7 12.65 0.56
-5 -5 7 13.36 0.64
5 -5 -7 12 0.7
-5 5 7 12.64 0.47
5 5 -7 12.94 0.73
-5 5 7 13.57 0.93
5 5 -7 13.02 0.61
-5 5 7 12.05 0.8
5 5 -7 12.45 0.5
-5 5 7 13.35 0.72
5 5 -7 12.22 0.76
5 5 -7 12.04 0.6
5 5 -7 13.43 0.84
-5 5 7 12.74 0.76
4 -5 -7 24.03 1.24
-4 -5 7 25.41 0.92
-4 -5 7 24.36 0.93
-4 -5 7 24.35 0.75
4 -5 -7 25.32 0.93
-4 -5 7 23.96 1.05
-4 -5 7 24.31 0.79
4 -5 -7 25.08 1.14
4 -5 -7 26.03 0.86
-4 5 7 24.72 0.92
4 5 -7 25.08 1.13
4 5 -7 24.64 0.65
-4 5 7 25.48 1.2
4 5 -7 25.13 0.79
-4 5 7 23.96 1.07
4 5 -7 24.63 0.88
-4 5 7 24.81 0.91
4 5 -7 24.75 0.9
4 5 -7 23.64 0.89
3 -5 -7 2.39 0.31
-3 -5 7 2.88 0.3
-3 -5 7 2.17 0.36
-3 -5 7 2.25 0.46
3 -5 -7 3.14 0.53
-3 -5 7 2.75 0.39
3 -5 -7 3.22 0.41
3 -5 -7 2.3 0.43
-3 -5 7 2.71 0.28
3 5 -7 2.78 0.37
-3 5 7 2.72 0.51
3 5 -7 3.21 0.38
3 5 -7 2.52 0.21
-3 5 7 1.79 0.36
3 5 -7 2.1 0.49
-3 5 7 3.08 0.49
3 5 -7 2.56 0.31
3 5 -7 2.5 0.37
-3 5 7 2.41 0.35
2 -5 -7 0.38 0.16
2 -5 -7 0.33 0.3
-2 -5 7 0.08 0.18
2 -5 -7 0.25 0.22
2 -5 -7 0.22 0.36
-2 -5 7 0.25 0.23
-2 -5 7 0.6 0.35
2 -5 -7 0.33 0.29
-2 -5 7 0.27 0.24
-2 -5 7 0.67 0.33
2 5 -7 0.36 0.42
-2 5 7 0.25 0.29
-2 5 7 0.71 0.3
2 5 -7 0.18 0.27
2 5 -7 -0.19 0.24
-2 5 7 0 0.36
1 -5 -7 2.84 0.37
-1 -5 7 2.78 0.36
-1 -5 7 4.04 0.37
-1 -5 7 3.95 0.49
1 -5 -7 3.55 0.31
1 -5 -7 3.4 0.57
1 -5 -7 3.34 0.26
-1 -5 7 3.67 0.63
1 -5 -7 3.2 0.47
-1 5 7 4.31 0.62
1 5 -7 3.49 0.18
1 5 -7 3.66 0.49
-1 5 7 2.97 0.35
-1 5 7 2.49 0.37
1 5 -7 3.92 0.69
0 -5 7 0.14 0.38
0 -5 -7 0.17 0.34
0 -5 7 0.09 0.27
0 -5 -7 0.39 0.31
0 -5 -7 -0.12 0.33
0 -5 7 -0.18 0.3
0 -5 7 -0.17 0.27
0 -5 -7 0.03 0.22
0 5 7 0.15 0.28
0 5 -7 0.08 0.23
0 5 7 -0.14 0.22
0 5 -7 -0.12 0.42
0 5 -7 -0.04 0.12
0 5 7 -0.15 0.35
1 -5 7 9.61 0.6
1 -5 7 8.27 0.7
-1 -5 -7 9.16 0.84
-1 -5 -7 10.44 0.83
1 -5 7 9.56 0.92
1 -5 7 9.37 0.72
-1 -5 -7 8.87 0.54
-1 -5 -7 8.75 0.68
1 5 7 8.76 0.77
-1 5 -7 9.51 0.39
-1 5 -7 8.76 0.68
1 5 7 9.46 0.63
1 5 7 8.72 0.45
-1 5 -7 10.61 1.09
1 5 7 8.85 0.76
-2 -5 -7 1.48 0.44
2 -5 7 1.46 0.43
-2 -5 -7 0.7 0.54
2 -5 7 1.05 0.46
-2 5 -7 1.53 0.44
2 5 7 0.88 0.38
-2 5 -7 1.39 0.25
2 5 7 0.64 0.37
2 5 7 1.24 0.29
2 5 7 1.55 0.35
-2 5 -7 1.59 0.64
-3 -5 -7 28.68 1.03
3 -5 7 28.95 1.33
-3 -5 -7 28.08 1.52
3 -5 7 30.88 1.6
-3 -5 -7 29.7 1.37
-3 -5 -7 29.21 0.75
3 5 7 30.03 0.97
-3 5 -7 28.78 1.28
3 5 7 27.83 1.32
3 5 7 28.26 1.06
-3 5 -7 28.73 1.73
-3 5 -7 28.3 0.88
3 5 7 28.11 1.31
4 -5 7 -0.03 0.57
-4 -5 -7 0.36 0.48
-4 -5 -7 0.34 0.43
4 -5 7 0.73 0.35
4 -5 7 0.84 0.4
-4 -5 -7 0.63 0.24
-4 -5 -7 0.96 0.68
4 5 7 0.53 0.39
-4 5 -7 0.79 0.46
-4 5 -7 0.75 0.81
4 5 7 0.67 0.44
-4 5 -7 0.86 0.2
4 5 7 0.88 0.5
4 5 7 0.86 0.49
-4 5 -7 0.79 0.35
5 -5 7 16.31 0.88
-5 -5 -7 18.31 1.57
-5 -5 -7 16.38 0.68
-5 -5 -7 17.8 0.96
5 -5 7 16.16 1.15
5 -5 7 15.7 1.44
-5 -5 -7 12.77 1.1
5 5 7 18.8 1.22
-5 5 -7 14.94 1.78
5 5 7 16.59 1.1
5 5 7 16.2 0.93
5 5 7 16.61 1.07
-6 -5 -7 0.74 0.75
-6 -5 -7 1.87 0.71
6 -5 7 -0.41 0.76
-6 -5 -7 1.24 0.4
-6 -5 -7 0.73 0.86
6 -5 7 1.54 0.63
6 -5 7 0.51 0.55
-6 5 -7 0.3 0.98
6 5 7 1.8 0.55
-6 5 -7 0.67 0.65
6 5 7 1.54 0.64
-7 -5 -7 -0.36 0.49
-7 -5 -7 2.05 0.83
-7 -5 -7 3.05 0.79
-7 -5 -7 0.5 1.03
7 -5 7 1.05 0.93
7 -5 7 2.41 0.7
-7 5 -7 2.37 1.33
7 5 7 1.64 0.61
-7 5 -7 1.1 0.69
7 5 7 1.81 0.75
-7 5 -7 2.02 0.84
7 5 7 2.05 0.84
7 5 7 1.67 0.69
-8 -5 -7 0.46 1.22
-8 -5 -7 2.31 0.94
-8 -5 -7 0.27 0.68
8 -5 7 4.04 0.94
-8 -5 -7 4.7 1.06
8 -5 7 4.82 1.34
8 -5 7 4.54 0.91
-8 5 -7 3.22 1.65
8 5 7 3.76 0.45
8 5 7 4.04 1
8 5 7 3.43 0.87
8 5 7 4.41 0.88
8 5 7 3.59 1.08
-8 5 -7 3.28 0.92
-8 5 -7 5.24 1.05
9 -5 7 -0.2 0.98
9 -5 7 0.46 1.22
-9 -5 -7 -0.75 0.98
9 -5 7 1.41 1.4
-9 -5 -7 2.2 1.61
-9 -5 -7 3.37 1.34
-9 -5 -7 0.4 0.84
9 5 7 0.01 0.81
-9 5 -7 0.96 1.37
9 5 7 2.85 0.93
9 5 7 -0.52 1.27
-9 5 -7 -2.93 1.61
9 5 7 0.12 0.41
12 -6 -7 0.35 0.86
12 -6 -7 0.87 1.62
12 6 -7 -1.47 1.13
-12 6 7 1.09 1.39
12 6 -7 -1.35 0.99
12 6 -7 -0.56 0.94
12 6 -7 -1.07 1.34
-12 6 7 0.6 0.82
12 6 -7 1.29 1.25
11 -6 -7 -0.71 0.76
11 -6 -7 1.17 1.25
11 -6 -7 0.73 1.05
11 -6 -7 -0.61 1.15
11 -6 -7 0 0.9
11 6 -7 -0.31 1.01
11 6 -7 -1.69 0.79
-11 6 7 1.74 1.01
11 6 -7 -0.5 1.01
11 6 -7 0.07 0.75
11 6 -7 -1.88 1.05
11 6 -7 0.39 0.85
-11 6 7 -1.64 1.04
10 -6 -7 1.9 0.65
10 -6 -7 -0.44 0.75
10 -6 -7 -0.31 0.98
10 -6 -7 -0.93 0.76
10 6 -7 0.93 0.57
-10 6 7 0.49 0.89
10 6 -7 -0.09 0.68
10 6 -7 0.44 0.86
-10 6 7 -0.68 0.74
10 6 -7 -0.61 0.57
10 6 -7 0.87 0.76
10 6 -7 1.53 0.92
-10 6 7 -0.19 0.59
9 -6 -7 1.65 0.85
9 -6 -7 2.64 0.74
9 -6 -7 1.26 0.76
9 -6 -7 2.15 0.61
9 6 -7 3 0.77
-9 6 7 1.21 0.74
9 6 -7 1.38 0.77
9 6 -7 2.68 0.53
-9 6 7 2.16 0.61
9 6 -7 2.76 0.7
9 6 -7 0.93 0.54
9 6 -7 2.52 0.54
8 -6 -7 -0.51 0.46
8 -6 -7 -0.19 0.64
8 -6 -7 1.02 0.68
8 6 -7 0.13 0.4
-8 6 7 0.1 0.65
8 6 -7 0.52 0.41
-8 6 7 0.29 0.61
8 6 -7 0.2 0.53
8 6 -7 -0.43 0.6
8 6 -7 0.06 0.61
7 -6 -7 0.65 0.6
7 -6 -7 0.33 0.57
-7 -6 7 0.57 0.5
7 -6 -7 0.46 0.49
-7 6 7 0.14 0.44
7 6 -7 0.02 0.52
7 6 -7 0.13 0.33
7 6 -7 0.33 0.33
7 6 -7 0.6 0.25
7 6 -7 -0.48 0.51
7 6 -7 0.43 0.36
7 6 -7 0.16 0.31
-7 6 7 0.89 0.59
-6 -6 7 1.26 0.42
-6 -6 7 1.57 0.32
-6 -6 7 2.02 0.4
6 -6 -7 1.58 0.45
6 -6 -7 1.37 0.61
-6 -6 7 1.32 0.53
6 -6 -7 1.16 0.46
6 -6 -7 2.03 0.55
-6 6 7 1.61 0.64
6 6 -7 2.07 0.49
-6 6 7 1.88 0.55
-6 6 7 1.72 0.6
-6 6 7 1.85 0.18
6 6 -7 1.5 0.32
6 6 -7 1.68 0.29
-5 -6 7 23.98 1.07
-5 -6 7 24.08 0.74
5 -6 -7 25.39 1.24
-5 -6 7 24.98 0.91
-5 -6 7 24.76 1.09
5 -6 -7 24.57 0.94
5 -6 -7 24.24 1.32
5 -6 -7 25.55 1.06
-5 -6 7 25.71 0.93
5 6 -7 25.5 1.03
-5 6 7 23.75 0.66
-5 6 7 24.44 1.03
5 6 -7 24.38 0.8
-5 6 7 24.66 1.01
-5 6 7 25.48 1.18
5 6 -7 25.25 1
5 6 -7 23.27 0.88
-5 6 7 25.2 1.29
5 6 -7 24.35 1.17
5 6 -7 23.68 0.68
-4 -6 7 0.56 0.3
-4 -6 7 0.1 0.26
4 -6 -7 0.24 0.35
-4 -6 7 -0.11 0.35
4 -6 -7 0.12 0.45
4 -6 -7 0.38 0.3
-4 -6 7 0.14 0.42
-4 -6 7 0.81 0.25
4 -6 -7 0.42 0.42
4 6 -7 -0.09 0.44
-4 6 7 0.57 0.44
4 6 -7 0.17 0.26
-4 6 7 0.04 0.38
4 6 -7 0.05 0.24
4 6 -7 0.51 0.36
4 6 -7 -0.01 0.35
4 6 -7 0.33 0.15
-4 6 7 0.51 0.38
-4 6 7 0.57 0.37
-3 -6 7 33.42 0.93
3 -6 -7 34.37 1.1
-3 -6 7 34.29 1.38
3 -6 -7 34.28 0.98
-3 -6 7 33.95 1.21
-3 -6 7 31.55 0.96
-3 -6 7 33.12 1.12
3 -6 -7 33.43 1.49
3 -6 -7 33.51 1.39
-3 6 7 34.76 1.37
3 6 -7 34.5 1.49
3 6 -7 33.83 1.1
-3 6 7 34.35 1.08
-3 6 7 33.71 1.46
3 6 -7 33.93 1.18
-2 -6 7 4.92 0.45
2 -6 -7 6.47 0.75
2 -6 -7 6.53 0.51
2 -6 -7 5.83 0.43
-2 -6 7 5.4 0.73
-2 -6 7 6.08 0.51
2 -6 -7 7.13 0.78
-2 -6 7 5.93 0.57
2 -6 -7 5.73 0.38
-2 -6 7 5.35 0.41
2 6 -7 5.87 0.55
-2 6 7 6.19 0.47
2 6 -7 6.95 0.92
-2 6 7 5.9 0.78
-2 6 7 5.4 0.64
-1 -6 7 0.39 0.3
1 -6 -7 0.2 0.3
-1 -6 7 0.69 0.35
-1 -6 7 0.91 0.34
1 -6 -7 0.12 0.19
1 -6 -7 0.27 0.33
1 -6 -7 0.27 0.22
-1 -6 7 0.18 0.36
1 -6 -7 0.75 0.43
-1 6 7 0.13 0.29
1 6 -7 0.1 0.3
-1 6 7 0.65 0.35
-1 6 7 -0.24 0.35
1 6 -7 0.5 0.55
0 -6 7 0.28 0.35
0 -6 -7 0.48 0.45
0 -6 7 0.29 0.4
0 -6 7 0.15 0.3
0 -6 -7 0.08 0.24
0 -6 -7 0.13 0.16
0 -6 -7 -0.09 0.31
0 -6 7 0.16 0.31
0 -6 -7 -0.11 0.35
0 6 7 -0.62 0.3
0 6 7 -0.31 0.35
0 6 -7 0.65 0.48
0 6 7 0.13 0.28
0 6 -7 -0.21 0.2
-1 -6 -7 6.69 0.28
1 -6 7 6.34 0.71
-1 -6 -7 6.25 0.79
1 -6 7 6.64 0.92
1 -6 7 6.39 0.58
-1 -6 -7 6.32 0.54
-1 -6 -7 5.9 0.76
-1 -6 -7 6.28 0.52
1 -6 7 7.74 0.6
-1 6 -7 6 0.88
-1 6 -7 5.34 0.64
1 6 7 6.36 0.78
1 6 7 6.53 0.58
1 6 7 5.65 0.65
1 6 7 5.88 0.4
2 -6 7 8.22 1.03
2 -6 7 10.06 0.67
-2 -6 -7 7.77 0.88
2 -6 7 9.79 0.85
-2 -6 -7 8.99 0.9
-2 -6 -7 9.04 0.27
-2 -6 -7 9.22 0.67
2 6 7 10.85 0.71
2 6 7 9.2 0.54
2 6 7 9.18 0.85
2 6 7 8.62 0.84
-2 6 -7 8.59 0.79
-2 6 -7 6.34 0.86
-3 -6 -7 15.02 1.34
-3 -6 -7 13.42 0.78
-3 -6 -7 13.69 0.38
3 -6 7 14.95 1.04
3 6 7 11.64 1.01
3 6 7 13.69 0.8
-3 6 -7 12.79 0.95
3 6 7 12.63 0.97
-3 6 -7 14.64 1.49
3 6 7 12.93 0.69
-4 -6 -7 27.89 1.43
4 -6 7 28.84 1.78
-4 -6 -7 29.03 0.72
4 -6 7 28.07 0.96
-4 -6 -7 23.8 1.26
-4 -6 -7 30.51 1.69
4 6 7 29.41 1.4
4 6 7 28.73 2.02
-4 6 -7 29.6 2.02
4 6 7 29.43 1.07
4 6 7 26.97 1.16
-5 -6 -7 0.01 0.25
5 -6 7 -0.55 0.44
-5 -6 -7 0.3 0.59
-5 -6 -7 -0.85 0.8
5 -6 7 0.14 0.64
5 -6 7 -0.22 0.46
5 6 7 0.3 0.46
5 6 7 -0.06 0.53
5 6 7 -0.18 0.45
5 6 7 0.07 0.49
-5 6 -7 1.8 1.04
6 -6 7 4 0.74
6 -6 7 2.93 0.63
-6 -6 -7 4.67 0.83
-6 -6 -7 2.84 0.77
6 -6 7 1.94 0.92
-6 -6 -7 2.49 1.03
-6 6 -7 3.87 1.29
6 6 7 2.95 0.67
6 6 7 3.23 0.72
-6 6 -7 2.87 0.74
-6 6 -7 1.3 0.77
6 6 7 2.89 0.74
6 6 7 3.56 0.65
-7 -6 -7 0.48 0.47
-7 -6 -7 0.2 0.88
7 -6 7 0.59 0.64
7 -6 7 1.39 1.11
-7 -6 -7 -0.11 1.11
-7 -6 -7 0.22 0.73
7 6 7 0.3 0.61
7 6 7 0.36 0.78
7 6 7 1.27 0.68
-7 6 -7 1.01 0.83
-7 6 -7 1.4 1.37
7 6 7 0.88 0.76
-7 6 -7 0.17 0.73
-8 -6 -7 0.72 0.9
8 -6 7 0 0.8
8 -6 7 1.18 0.97
-8 -6 -7 -0.1 1.03
8 -6 7 -2.58 1.12
-8 -6 -7 0.02 1.32
8 6 7 1.03 0.76
8 6 7 0.03 0.52
8 6 7 -0.11 0.99
-8 6 -7 -2.45 1.9
-8 6 -7 1.97 0.82
8 6 7 1.51 0.94
-8 6 -7 -0.93 1.12
8 6 7 1.78 0.85
9 -6 7 -0.81 1.27
-9 -6 -7 4.27 1.47
9 -6 7 1.01 1.04
9 -6 7 1.62 1.52
-9 -6 -7 2.08 1.16
9 6 7 2.91 0.96
9 6 7 -0.36 1.32
9 6 7 -0.28 0.94
-9 6 -7 1.71 2.11
9 6 7 2.05 0.68
-9 6 -7 1.29 1.48
11 -7 -7 1.37 0.84
11 -7 -7 0.96 1.13
11 -7 -7 -1.2 1.42
11 7 -7 1.32 1.25
11 7 -7 -1.16 1.13
-11 7 7 1.2 1.22
11 7 -7 1.05 0.87
11 7 -7 0.3 0.76
11 7 -7 2.54 0.93
11 7 -7 1.11 1.09
-11 7 7 0.34 1.08
-11 7 7 1.65 0.9
10 -7 -7 0.85 1.09
10 -7 -7 2.4 1
10 -7 -7 2.74 0.85
10 -7 -7 0.65 0.96
10 7 -7 1.5 0.84
10 7 -7 1.5 0.73
-10 7 7 1.74 0.77
10 7 -7 1.6 0.96
-10 7 7 1.5 1.04
10 7 -7 0.4 0.92
-10 7 7 0.41 0.95
10 7 -7 1.9 0.67
10 7 -7 1.59 0.62
9 -7 -7 -0.98 0.87
9 -7 -7 0.79 0.75
9 -7 -7 1.58 0.84
9 -7 -7 -0.59 0.59
9 7 -7 0.13 0.67
-9 7 7 1.15 0.81
9 7 -7 -0.24 0.51
9 7 -7 -0.7 0.46
-9 7 7 0.39 0.8
9 7 -7 -1.48 0.79
9 7 -7 0.45 0.79
9 7 -7 -0.28 0.54
-9 7 7 0.32 0.67
8 -7 -7 1.48 0.79
8 -7 -7 1.66 0.63
-8 -7 7 0.55 0.67
8 -7 -7 1.36 0.74
8 -7 -7 0.83 0.78
-8 7 7 1.66 0.79
8 7 -7 0.76 0.7
8 7 -7 2.07 0.74
8 7 -7 2.02 0.46
8 7 -7 1.67 0.44
-8 7 7 0.61 0.57
8 7 -7 0.3 0.59
8 7 -7 1.29 0.42
-8 7 7 0.47 0.65
-7 -7 7 3.01 0.6
7 -7 -7 2.23 0.6
7 -7 -7 2.68 0.73
7 -7 -7 2.17 0.76
7 -7 -7 1.82 0.56
7 7 -7 2.48 0.35
7 7 -7 2.29 0.37
7 7 -7 2.53 0.38
-7 7 7 3.37 0.85
7 7 -7 2.24 0.66
-7 7 7 2.8 0.67
7 7 -7 1.04 0.67
7 7 -7 3.02 0.5
6 -7 -7 8.98 1.57
-6 -7 7 10.79 0.97
6 -7 -7 14.83 1.25
6 -7 -7 13.83 1.22
-6 -7 7 15.47 0.89
-6 -7 7 13.55 0.87
6 -7 -7 14.26 0.9
6 7 -7 13.66 0.98
-6 7 7 17.12 1.29
6 7 -7 14.99 0.64
6 7 -7 14.53 0.57
-6 7 7 15.47 1.04
-6 7 7 13 1.41
6 7 -7 15.19 0.69
5 -7 -7 5.42 0.76
5 -7 -7 4.4 0.57
5 -7 -7 5.71 0.85
-5 -7 7 4.78 0.51
5 -7 -7 4.92 0.51
-5 -7 7 4.31 0.63
-5 -7 7 4.77 0.65
-5 -7 7 4.75 0.33
-5 -7 7 4.38 0.51
5 7 -7 5.28 0.73
5 7 -7 5.53 0.54
-5 7 7 5.14 0.84
-5 7 7 4.54 0.59
5 7 -7 4.61 0.33
-5 7 7 4.22 0.32
-4 -7 7 16.22 0.92
-4 -7 7 16.59 0.76
-4 -7 7 16.61 0.6
-4 -7 7 17.72 0.85
4 -7 -7 17.34 0.76
-4 -7 7 17.12 1.04
4 -7 -7 17.29 1.24
4 -7 -7 17.76 1.09
4 -7 -7 16.09 0.91
4 7 -7 16.57 0.88
4 7 -7 15.46 0.8
4 7 -7 15.9 1.15
-4 7 7 15.67 1.18
-4 7 7 16.57 1.06
-4 7 7 15.48 0.86
-3 -7 7 1.43 0.46
3 -7 -7 1.29 0.3
3 -7 -7 1.64 0.47
3 -7 -7 1.25 0.43
-3 -7 7 0.98 0.42
3 -7 -7 1.24 0.25
-3 -7 7 1.63 0.4
-3 -7 7 1.24 0.29
-3 -7 7 1.24 0.31
3 -7 -7 1.5 0.56
3 7 -7 1.51 0.42
-3 7 7 1.6 0.54
3 7 -7 1.2 0.56
3 7 -7 1.44 0.38
-3 7 7 1.67 0.4
-3 7 7 1.92 0.47
2 -7 -7 1.52 0.26
2 -7 -7 1.43 0.26
2 -7 -7 1.34 0.41
-2 -7 7 1.61 0.33
2 -7 -7 0.9 0.45
2 -7 -7 2.24 0.66
-2 -7 7 1.81 0.41
-2 -7 7 1.55 0.3
-2 -7 7 2.52 0.64
-2 -7 7 1.55 0.39
2 7 -7 1.26 0.62
-2 7 7 1.77 0.57
2 7 -7 1.41 0.34
-2 7 7 1.52 0.43
-2 7 7 1.62 0.37
1 -7 -7 0.09 0.19
1 -7 -7 0.14 0.25
-1 -7 7 0.23 0.31
1 -7 -7 0.41 0.37
-1 -7 7 0.22 0.36
-1 -7 7 0.37 0.43
1 -7 -7 -0.68 0.44
-1 -7 7 0.18 0.34
1 -7 -7 0.16 0.43
1 7 -7 0.34 0.31
-1 7 7 0.98 0.49
-1 7 7 0.48 0.34
1 7 -7 0.77 0.57
-1 7 7 -0.44 0.32
0 -7 -7 0.77 0.15
0 -7 7 1.22 0.41
0 -7 -7 0.38 0.38
0 -7 -7 1.06 0.5
0 -7 7 1.35 0.39
0 -7 -7 -0.03 0.41
0 -7 -7 0.83 0.31
0 -7 7 1.05 0.49
0 -7 7 0.77 0.39
0 7 7 0.61 0.48
0 7 7 0.96 0.36
0 7 -7 1.17 0.4
0 7 -7 0.71 0.64
0 7 7 0.55 0.48
-1 -7 -7 -0.84 0.36
-1 -7 -7 0.25 0.4
1 -7 7 0.07 0.44
1 -7 7 0.35 0.38
1 -7 7 -0.05 0.52
-1 -7 -7 0.5 0.48
1 -7 7 0.84 0.39
-1 -7 -7 0.08 0.33
1 7 7 1 0.5
-1 7 -7 0.83 0.44
1 7 7 0.06 0.34
1 7 7 0.45 0.31
-1 7 -7 0.26 0.66
-2 -7 -7 22.33 1.26
-2 -7 -7 20.78 0.93
2 -7 7 20.34 0.9
2 -7 7 19.23 1.4
2 -7 7 21.84 1.18
-2 7 -7 20.21 1.17
2 7 7 20.39 1.24
2 7 7 20.13 0.86
-2 7 -7 21.31 1.65
2 7 7 21.52 0.8
2 7 7 21.33 1.18
3 -7 7 0.48 0.43
3 -7 7 0.77 0.47
3 -7 7 1.11 0.7
-3 -7 -7 0.37 0.48
-3 -7 -7 0.1 0.48
-3 -7 -7 0.42 0.73
3 7 7 0.45 0.41
3 7 7 0.37 0.33
-3 7 -7 0.12 0.36
-3 7 -7 0.64 0.88
3 7 7 0.99 0.51
4 -7 7 15.03 1.16
-4 -7 -7 16.13 1.55
-4 -7 -7 13.25 1.01
4 -7 7 13.78 0.76
4 -7 7 15.45 0.92
4 7 7 16.04 1.16
4 7 7 13.39 0.81
-4 7 -7 13.98 1.85
4 7 7 15.14 0.95
-4 7 -7 14.64 1.15
4 7 7 14.78 1.09
-5 -7 -7 0.89 0.86
5 -7 7 1.58 1.02
-5 -7 -7 1.25 0.68
5 -7 7 0.1 0.51
5 -7 7 1.12 0.5
-5 -7 -7 0.5 0.65
5 7 7 0.37 0.51
-5 7 -7 1.35 1.1
5 7 7 0.75 0.57
-5 7 -7 0.46 0.54
5 7 7 0.96 0.57
6 -7 7 -0.76 0.95
6 -7 7 0.44 0.61
-6 -7 -7 -0.29 0.71
6 -7 7 0.66 0.72
-6 -7 -7 -0.08 0.75
-6 -7 -7 0.09 1.03
6 7 7 -0.58 0.6
6 7 7 -0.71 0.67
-6 7 -7 -0.11 0.27
-6 7 -7 -0.56 0.77
6 7 7 0.29 0.58
6 7 7 0.61 0.68
-6 7 -7 0.26 0.69
-7 -7 -7 0.58 0.84
-7 -7 -7 0.55 1.16
7 -7 7 1.4 0.91
7 -7 7 -0.04 1.06
7 -7 7 -0.85 0.81
-7 -7 -7 0.13 0.97
-7 7 -7 1.69 1.44
7 7 7 0.17 0.85
7 7 7 0.2 0.69
7 7 7 -0.65 0.72
-7 7 -7 -0.19 0.99
7 7 7 0.46 0.74
-8 -7 -7 -1.22 1.21
8 -7 7 2.13 1.06
8 -7 7 1.42 1.47
-8 -7 -7 1.24 1.47
8 -7 7 -0.4 0.95
-8 -7 -7 2.7 1.18
8 7 7 1.34 0.84
8 7 7 0.99 1.03
-8 7 -7 0.15 1.84
8 7 7 2.23 0.88
8 7 7 -1.13 1.03
-8 7 -7 -0.24 1.26
-8 7 -7 -0.5 1.58
11 -8 -7 -0.94 0.98
11 -8 -7 0.14 1.24
11 -8 -7 -3.2 1.47
11 8 -7 0.98 0.7
11 8 -7 1.43 1.02
11 8 -7 -0.65 0.86
-11 8 7 0.28 1.31
11 8 -7 0.99 1.15
-11 8 7 -0.25 1.5
-11 8 7 2.92 1.03
10 -8 -7 0.47 1.03
10 -8 -7 -1.64 1.18
10 -8 -7 1.88 1.09
10 8 -7 -1.18 1.01
10 8 -7 -0.15 0.7
-10 8 7 1.26 1.06
-10 8 7 0.19 0.82
10 8 -7 -0.39 0.55
10 8 -7 -0.51 0.74
10 8 -7 2.34 1.15
-10 8 7 -1.15 1.11
10 8 -7 -0.3 0.87
9 -8 -7 0.03 0.73
9 -8 -7 1.82 1.06
9 -8 -7 0.95 1.05
9 -8 -7 2.21 0.86
9 8 -7 1.6 0.6
9 8 -7 2.02 0.96
9 8 -7 1.04 0.91
-9 8 7 1.29 0.88
9 8 -7 2.07 0.45
-9 8 7 2.47 0.86
-9 8 7 1.11 0.99
9 8 -7 1.9 0.56
9 8 -7 1.35 0.75
8 -8 -7 4.94 0.92
8 -8 -7 6.32 0.83
8 -8 -7 4.27 0.93
-8 -8 7 4.36 0.85
8 -8 -7 5.25 1.03
8 8 -7 4.44 0.82
8 8 -7 5.42 0.42
8 8 -7 5.32 0.53
-8 8 7 5.07 0.87
8 8 -7 4.89 0.72
-8 8 7 5.65 0.91
8 8 -7 5.29 0.92
-8 8 7 5.12 1.03
7 -8 -7 5.75 1.03
7 -8 -7 5.91 0.81
7 -8 -7 6.23 0.89
7 -8 -7 7.77 0.84
-7 -8 7 6.96 0.92
-7 -8 7 6.89 0.79
7 8 -7 7.18 0.61
-7 8 7 5.87 0.76
7 8 -7 7.13 0.61
7 8 -7 6.53 0.83
-7 8 7 7.72 0.92
7 8 -7 7.65 0.89
-7 8 7 7.62 1.11
6 -8 -7 0.29 0.48
-6 -8 7 -0.07 0.49
-6 -8 7 0.23 0.29
-6 -8 7 -0.43 0.49
6 -8 -7 0.96 0.61
6 -8 -7 -0.51 0.59
6 -8 -7 0.67 0.55
-6 8 7 -0.28 0.63
6 8 -7 0.05 0.31
-6 8 7 0.42 0.62
6 8 -7 0.28 0.26
6 8 -7 -0.09 0.51
-5 -8 7 0.4 0.56
5 -8 -7 1.45 0.44
-5 -8 7 1.21 0.51
5 -8 -7 1.04 0.66
5 -8 -7 1.21 0.6
5 -8 -7 1.04 0.5
-5 -8 7 0.78 0.32
-5 -8 7 1.54 0.45
5 8 -7 2.25 0.64
-5 8 7 1.53 0.7
-5 8 7 1.1 0.18
-5 8 7 1.48 0.63
5 8 -7 0.75 0.35
4 -8 -7 6.36 0.61
-4 -8 7 6.74 0.89
4 -8 -7 6.89 0.93
-4 -8 7 5.65 0.44
4 -8 -7 5.85 0.48
-4 -8 7 5.68 0.64
-4 -8 7 6.58 0.55
4 -8 -7 7.37 1
-4 -8 7 6.67 0.7
-4 8 7 5.42 0.82
-4 8 7 7.21 0.64
4 8 -7 6.6 0.65
-4 8 7 6.2 0.84
4 8 -7 6.15 0.85
4 8 -7 7.16 0.66
3 -8 -7 1.57 0.3
-3 -8 7 1.42 0.39
3 -8 -7 1.18 0.55
-3 -8 7 1.58 0.52
3 -8 -7 1.88 0.51
-3 -8 7 1.98 0.41
-3 -8 7 1.91 0.57
3 -8 -7 1.81 0.33
-3 -8 7 1.85 0.31
3 -8 -7 1.88 0.53
-3 8 7 1.97 0.52
-3 8 7 1.75 0.42
3 8 -7 1.9 0.64
3 8 -7 1.82 0.44
-3 8 7 1.57 0.64
3 8 -7 0.73 0.46
2 -8 -7 2.28 0.34
-2 -8 7 2.06 0.38
-2 -8 7 2.38 0.5
2 -8 -7 2.23 0.47
2 -8 -7 1.99 0.64
-2 -8 7 2.28 0.49
2 -8 -7 2.56 0.59
-2 -8 7 1.52 0.59
2 -8 -7 2.38 0.3
-2 -8 7 2.16 0.36
2 8 -7 2.78 0.75
-2 8 7 2.05 0.47
-2 8 7 2.01 0.55
-2 8 7 1.47 0.41
2 8 -7 2.52 0.48
-1 -8 7 0.45 0.4
1 -8 -7 0.17 0.42
-1 -8 7 0.17 0.37
1 -8 -7 -0.34 0.49
-1 -8 7 0.57 0.41
1 -8 -7 0.34 0.31
-1 -8 7 -0.25 0.45
1 -8 -7 0.1 0.5
1 -8 -7 0.16 0.2
1 8 -7 0.05 0.56
-1 8 7 0.66 0.53
-1 8 7 0.39 0.36
1 8 -7 0.17 0.36
-1 8 7 -0.54 0.34
0 -8 -7 1.78 0.61
0 -8 -7 0.91 0.43
0 -8 7 0.71 0.6
0 -8 7 1.35 0.46
0 -8 -7 1.21 0.49
0 -8 -7 0.77 0.35
0 -8 7 0.8 0.44
0 -8 7 1.05 0.48
0 8 -7 1.38 0.49
0 8 7 0.84 0.51
0 8 7 0.6 0.35
0 8 7 0.6 0.45
0 8 -7 0.42 0.68
-1 -8 -7 3.06 0.71
-1 -8 -7 2.51 0.51
-1 -8 -7 2.85 0.58
1 -8 7 3.45 0.52
-1 -8 -7 3.28 0.47
1 -8 7 3.7 0.65
1 -8 7 3.75 0.6
1 8 7 3.33 0.72
-1 8 -7 2.9 0.53
-1 8 -7 2.72 0.77
1 8 7 4.53 0.73
1 8 7 2.97 0.44
2 -8 7 0.72 0.47
2 -8 7 -0.9 0.6
2 -8 7 -0.16 0.44
-2 -8 -7 -0.91 0.47
-2 -8 -7 0.21 0.44
-2 8 -7 -0.16 0.7
2 8 7 -0.44 0.45
-2 8 -7 -0.32 0.46
2 8 7 -0.74 0.43
2 8 7 -0.12 0.38
3 -8 7 4.65 0.83
3 -8 7 2.64 0.71
3 -8 7 4.14 0.56
-3 -8 -7 2.28 0.61
-3 -8 -7 3.9 0.61
-3 -8 -7 4.03 0.64
3 8 7 3.73 0.81
-3 8 -7 2.81 1.21
3 8 7 3.37 0.5
3 8 7 4.37 0.72
-3 8 -7 5.23 0.86
4 -8 7 0.1 0.48
-4 -8 -7 -0.87 0.57
-4 -8 -7 -0.49 0.6
4 -8 7 0.15 0.76
-4 -8 -7 -0.56 0.85
4 -8 7 -0.05 0.54
4 -8 7 -0.1 0.41
4 8 7 -0.01 0.47
4 8 7 0.46 0.66
4 8 7 0.76 0.47
4 8 7 -0.32 0.49
-4 8 -7 0.25 1.15
-4 8 -7 0.1 0.54
5 -8 7 0.59 0.55
5 -8 7 0.82 0.51
5 -8 7 -0.42 0.61
-5 -8 -7 -0.4 0.93
-5 -8 -7 0.71 0.78
5 -8 7 1.56 0.94
-5 -8 -7 0.67 0.75
-5 8 -7 2.46 1.27
5 8 7 0.44 0.59
5 8 7 0.08 0.59
-5 8 -7 0.82 0.69
5 8 7 0.74 0.55
5 8 7 0.26 0.67
-5 8 -7 0.01 0.75
-6 -8 -7 0.14 1.1
6 -8 7 1.51 0.7
6 -8 7 0.37 0.6
-6 -8 -7 -0.27 0.85
6 -8 7 0.67 0.68
6 -8 7 1.12 1.1
-6 -8 -7 0 0.9
6 8 7 0.89 0.71
-6 8 -7 0.33 0.42
-6 8 -7 -0.18 0.77
-6 8 -7 0.36 0.83
6 8 7 -0.06 0.62
-6 8 -7 -1.38 1.21
6 8 7 -0.04 0.77
6 8 7 -0.5 0.64
7 -8 7 -0.06 1.31
7 -8 7 1.27 0.88
-7 -8 -7 1.34 1.36
-7 -8 -7 -0.61 0.99
7 -8 7 0.71 0.8
7 -8 7 -0.23 0.73
-7 -8 -7 -1.27 1.08
-7 8 -7 0.29 1.68
7 8 7 -1.05 0.82
7 8 7 -1.33 0.72
7 8 7 0.06 0.82
-7 8 -7 -0.3 0.91
7 8 7 0.01 0.82
-7 8 -7 0.76 1.05
8 -8 7 0.27 1.15
-8 -8 -7 2.21 1.28
-8 -8 -7 -0.22 1.39
8 -8 7 2.86 1.03
8 -8 7 0.65 1.56
8 -8 7 1.4 0.91
-8 -8 -7 -0.2 1.57
-8 8 -7 -0.7 1.29
-8 8 -7 3.21 2.2
8 8 7 0.62 0.92
8 8 7 2.11 1.11
8 8 7 1.47 0.95
10 -9 -7 0.31 1.31
10 -9 -7 0.88 0.99
10 -9 -7 1.38 1.3
-10 9 7 2.84 1.4
10 9 -7 -1.84 1.2
10 9 -7 1 0.75
-10 9 7 0.74 1.23
-10 9 7 -0.08 0.9
10 9 -7 0.64 0.96
9 -9 -7 1.66 0.94
9 -9 -7 2.84 1.26
9 -9 -7 -0.86 0.97
9 -9 -7 1.08 1.14
9 9 -7 1.78 0.61
9 9 -7 -2.13 0.77
-9 9 7 0.35 0.81
9 9 -7 0.66 1.04
-9 9 7 0.57 1.06
9 9 -7 2.64 1.11
-9 9 7 -0.01 1.08
8 -9 -7 -0.02 0.74
8 -9 -7 0.86 0.97
8 -9 -7 2.7 0.83
8 -9 -7 2.78 0.99
-8 -9 7 2.01 0.9
8 9 -7 -0.36 0.66
8 9 -7 0.04 0.82
8 9 -7 1.5 0.89
8 9 -7 0.71 0.5
-8 9 7 0.92 0.68
-8 9 7 -0.12 0.84
-8 9 7 2.6 1.13
8 9 -7 0.74 0.38
-7 -9 7 0.47 0.38
7 -9 -7 -0.15 0.67
-7 -9 7 0.02 0.72
-7 -9 7 -0.1 0.57
7 -9 -7 0 0.81
7 -9 -7 0.57 0.84
7 9 -7 0.09 0.76
-7 9 7 0.74 0.78
7 9 -7 0.47 0.62
-7 9 7 -0.93 0.91
7 9 -7 0.3 0.7
-7 9 7 1.04 0.67
-6 -9 7 1.2 0.62
6 -9 -7 0.64 0.69
-6 -9 7 -0.19 0.36
6 -9 -7 0 0.68
-6 -9 7 0.45 0.61
6 -9 -7 0.48 0.53
6 -9 -7 0.83 0.64
6 9 -7 0.42 0.39
-6 9 7 1.75 0.73
-6 9 7 0.4 0.79
6 9 -7 0.72 0.61
-5 -9 7 0.16 0.55
5 -9 -7 -0.05 0.44
5 -9 -7 0.15 0.77
5 -9 -7 0.57 0.76
5 -9 -7 -0.5 0.5
-5 -9 7 0.03 0.36
-5 -9 7 0.24 0.65
-5 -9 7 0.29 0.48
-5 9 7 0.22 0.71
5 9 -7 0.16 0.39
5 9 -7 0.14 0.65
-4 -9 7 10.56 1.09
4 -9 -7 9.43 0.71
4 -9 -7 8.51 1.08
-4 -9 7 8.6 0.8
-4 -9 7 10.01 0.84
4 -9 -7 8.31 1.07
-4 -9 7 8.93 0.8
4 -9 -7 8.45 0.71
4 9 -7 8.92 1.09
4 9 -7 7.67 0.72
4 9 -7 10.04 0.82
-4 9 7 10.26 1.29
-4 9 7 9.96 1.12
3 -9 -7 4.86 0.45
3 -9 -7 5.09 0.93
-3 -9 7 4.39 0.81
3 -9 -7 5.21 0.91
-3 -9 7 4.26 0.66
-3 -9 7 3.82 0.58
3 -9 -7 4.47 0.6
-3 -9 7 5.26 0.37
3 -9 -7 4.47 0.44
-3 -9 7 3.59 0.52
3 9 -7 3.85 0.6
3 9 -7 5.49 0.67
-3 9 7 4.04 0.52
-3 9 7 5.47 0.83
3 9 -7 4.58 1.03
-3 9 7 4.49 0.86
-2 -9 7 3.41 0.48
2 -9 -7 4.01 0.46
2 -9 -7 4.2 0.58
2 -9 -7 3.83 0.7
-2 -9 7 4.56 0.65
-2 -9 7 3.74 0.58
-2 -9 7 4.18 0.43
2 -9 -7 2.91 1.13
-2 -9 7 4.17 0.85
-2 9 7 3.49 0.89
-2 9 7 2.89 0.48
2 9 -7 4.97 0.69
1 -9 -7 3.91 0.83
1 -9 -7 3.8 0.55
1 -9 -7 4.44 0.49
-1 -9 7 3.71 0.59
-1 -9 7 4.23 0.51
-1 -9 7 3.85 0.6
1 -9 -7 4.17 0.75
1 9 -7 4.02 0.66
-1 9 7 3.55 0.89
-1 9 7 3.75 0.71
-1 9 7 3.9 0.49
0 -9 7 1.52 0.5
0 -9 -7 0.75 0.4
0 -9 -7 0.02 0.62
0 -9 -7 1 0.49
0 -9 7 0.88 0.5
0 -9 -7 1.69 0.63
0 -9 7 0.99 0.45
0 9 -7 0.58 0.84
0 9 -7 0.78 0.41
0 9 7 1.13 0.41
0 9 7 0.72 0.4
-1 -9 -7 0.15 0.47
1 -9 7 -0.01 0.67
1 -9 7 0.1 0.46
1 -9 7 -0.13 0.57
-1 -9 -7 0.27 0.56
-1 -9 -7 0.46 0.46
1 -9 7 0.31 0.46
1 9 7 0.79 0.4
-1 9 -7 0.72 0.88
1 9 7 0.51 0.51
1 9 7 0.07 0.58
-1 9 -7 0.77 0.53
2 -9 7 0.92 0.57
2 -9 7 -0.28 0.74
2 -9 7 0.38 0.5
-2 -9 -7 -0.32 0.51
2 9 7 -0.49 0.5
-2 9 -7 -0.26 0.86
2 9 7 0.57 0.56
2 9 7 0.03 0.41
-2 9 -7 0.14 0.46
-3 -9 -7 1.68 0.64
3 -9 7 2.02 0.55
3 -9 7 1.27 0.92
3 -9 7 1.51 0.6
-3 -9 -7 3.17 0.85
-3 -9 -7 1.92 0.67
-3 -9 -7 0.45 0.62
3 9 7 0.64 0.65
-3 9 -7 0.89 1.06
3 9 7 0.64 0.53
3 9 7 1.14 0.45
-3 9 -7 0.79 0.56
-4 -9 -7 -0.37 0.7
-4 -9 -7 2.74 0.86
4 -9 7 1.06 1.01
4 -9 7 0.19 0.52
4 -9 7 -0.13 0.43
4 -9 7 0.3 0.57
-4 -9 -7 0.18 0.69
4 9 7 -0.49 0.61
-4 9 -7 -0.02 0.64
4 9 7 -0.24 0.5
4 9 7 -0.16 0.68
4 9 7 0.27 0.56
-4 9 -7 0.63 1.11
5 -9 7 1.46 0.65
5 -9 7 1.17 0.56
-5 -9 -7 1.7 0.94
5 -9 7 -0.51 0.99
-5 -9 -7 0.78 1.18
5 -9 7 2.05 0.75
-5 -9 -7 1.29 0.82
-5 9 -7 0.26 1.25
5 9 7 1.08 0.75
5 9 7 1.56 0.64
5 9 7 1.79 0.71
5 9 7 1.32 0.59
-5 9 -7 0.61 0.61
-5 9 -7 1.11 0.9
6 -9 7 0.47 0.72
-6 -9 -7 -1.05 1.01
6 -9 7 0.2 0.95
-6 -9 -7 3.1 1.37
6 -9 7 3 1.31
6 -9 7 0.76 0.72
-6 -9 -7 1.5 1.02
6 9 7 0.43 0.74
-6 9 -7 -0.96 0.91
6 9 7 0.9 0.76
-6 9 -7 -0.48 1.02
6 9 7 1.41 0.88
6 9 7 -0.24 0.69
-6 9 -7 -1.06 1.46
7 -9 7 1.06 1.38
-7 -9 -7 0.07 1.17
7 -9 7 0.08 0.82
7 -9 7 -0.4 1.02
7 -9 7 1.28 0.94
-7 -9 -7 -0.96 1.52
-7 -9 -7 -0.2 1.25
7 9 7 0.06 1.06
7 9 7 -0.44 0.88
-7 9 -7 0.9 2.03
7 9 7 0.2 1.03
-7 9 -7 -0.03 1.24
-7 9 -7 0.05 0.51
10 -10 -7 0.44 1.15
10 -10 -7 -1.76 1.64
-10 10 7 1.22 1.39
10 10 -7 2.84 1.11
-10 10 7 0.3 1.59
-9 -10 7 0.66 1.16
9 -10 -7 -0.37 0.94
9 -10 -7 0.16 1.29
-9 10 7 2.53 1.1
-9 10 7 -0.1 1.23
9 10 -7 0.47 1.16
9 10 -7 -1.07 0.9
9 10 -7 0.04 1.79
-9 10 7 -0.55 1.3
8 -10 -7 -1.49 0.8
-8 -10 7 0.43 0.94
8 -10 -7 -0.33 1.06
8 -10 -7 -2.53 1.34
8 10 -7 -1.52 0.98
-8 10 7 0.67 0.97
8 10 -7 -0.17 0.61
-8 10 7 0.52 1.17
8 10 -7 0.11 0.96
-8 10 7 0.36 0.79
8 10 -7 0.88 0.75
8 10 -7 0.6 0.43
7 -10 -7 5.28 1.06
-7 -10 7 5.06 0.87
7 -10 -7 5.62 1.59
-7 -10 7 4.42 0.94
7 -10 -7 3.79 0.98
7 10 -7 4.73 0.6
7 10 -7 5.82 0.88
-7 10 7 3.55 0.95
7 10 -7 2.13 0.9
-7 10 7 4.07 1.26
7 10 -7 4.63 0.93
-7 10 7 4.45 1.06
6 -10 -7 1.48 0.79
-6 -10 7 0.19 0.42
-6 -10 7 0.23 0.7
6 -10 -7 -0.35 0.96
6 -10 -7 0.05 0.69
-6 10 7 -0.42 0.91
6 10 -7 0.61 0.75
-6 10 7 -0.08 0.76
6 10 -7 -0.08 0.75
-6 10 7 -0.07 0.73
6 10 -7 0.36 0.45
5 -10 -7 7.97 0.99
5 -10 -7 6.33 0.82
-5 -10 7 7.32 0.81
5 -10 -7 6.22 1.05
5 10 -7 7.52 0.85
-5 10 7 5.83 0.92
5 10 -7 7.28 0.81
5 10 -7 7.67 1.09
-5 10 7 7.45 1.18
4 -10 -7 -0.08 0.72
4 -10 -7 0.16 0.77
-4 -10 7 0.2 0.53
-4 -10 7 -0.02 0.67
4 -10 -7 -0.72 0.56
-4 -10 7 0.94 0.47
4 10 -7 -0.37 0.43
-4 10 7 0.13 0.61
4 10 -7 0.28 0.7
-4 10 7 0.2 0.31
-4 10 7 0.41 0.73
3 -10 -7 -0.01 0.39
3 -10 -7 0.26 0.57
3 -10 -7 -0.88 0.57
-3 -10 7 -0.41 0.61
-3 -10 7 -0.82 0.55
-3 -10 7 0.18 0.46
-3 -10 7 -0.2 0.27
3 -10 -7 -1.02 0.77
3 10 -7 -0.01 0.78
3 10 -7 -0.31 0.46
-3 10 7 0.63 0.61
2 -10 -7 0.69 0.42
2 -10 -7 0.73 0.67
2 -10 -7 1.07 0.78
2 -10 -7 1.05 0.56
-2 -10 7 0.76 0.48
-2 -10 7 0.56 0.39
-2 10 7 0.75 0.49
-2 10 7 1.31 0.65
-2 10 7 0.88 0.75
2 10 -7 -0.1 0.49
2 10 -7 0.14 0.8
-1 -10 7 1.07 0.48
1 -10 -7 -0.48 0.7
1 -10 -7 0.98 0.56
1 -10 -7 1.06 0.68
1 -10 -7 0.6 0.45
-1 -10 7 0.34 0.51
-1 -10 7 1.17 0.6
-1 10 7 0.5 0.45
1 10 -7 1.03 0.48
-1 10 7 0.2 0.65
1 10 -7 -0.32 0.82
-1 10 7 2.34 0.8
0 -10 7 9.68 0.79
0 -10 -7 11.1 1.29
0 -10 7 11.85 0.77
0 -10 -7 10.54 0.86
0 -10 -7 12.72 1.28
0 -10 -7 11.69 0.76
0 -10 7 9.28 1.05
0 10 7 10.13 0.82
0 10 -7 10.88 1.35
0 10 -7 11.24 1.09
0 10 7 10.62 1.4
1 -10 7 0.3 0.86
1 -10 7 0.59 0.63
-1 -10 -7 0.9 0.65
-1 -10 -7 -0.2 0.49
1 -10 7 0.79 0.53
1 -10 7 0.06 0.55
-1 -10 -7 -0.01 0.55
1 10 7 -0.68 0.58
-1 10 -7 0.72 0.91
1 10 7 -0.89 0.59
-1 10 -7 -0.52 0.55
1 10 7 0.55 0.45
-2 -10 -7 10.43 1.06
2 -10 7 10.8 1.24
2 -10 7 9.24 1.32
2 -10 7 11.29 1.03
-2 -10 -7 9.02 1.25
2 10 7 12.37 1.23
2 10 7 10.9 0.86
2 10 7 10.14 1.29
-2 10 -7 12.31 1.27
-2 10 -7 11.06 1.48
3 -10 7 0.11 0.65
-3 -10 -7 0.12 0.69
3 -10 7 0.1 0.59
3 -10 7 -1.4 0.74
-3 -10 -7 0.19 0.89
-3 -10 -7 0.12 0.69
-3 -10 -7 -0.55 0.72
-3 10 -7 0.2 0.6
-3 10 -7 0.18 1.27
3 10 7 0.66 0.65
3 10 7 0.25 0.71
3 10 7 0.16 0.49
-4 -10 -7 3.24 0.91
4 -10 7 4.89 0.71
4 -10 7 4.52 0.96
-4 -10 -7 3.25 1.02
4 -10 7 1.93 1.22
-4 -10 -7 3.87 0.86
4 10 7 4.58 0.95
-4 10 -7 6.07 1.11
4 10 7 2.87 0.61
4 10 7 5.12 1.04
-4 10 -7 4.75 1.55
-5 -10 -7 -0.64 1.26
-5 -10 -7 1.47 1.2
5 -10 7 -1.08 0.58
5 -10 7 3.05 0.95
5 -10 7 0.97 0.7
-5 -10 -7 0.35 0.97
5 -10 7 -0.69 0.92
5 10 7 -1.61 0.59
-5 10 -7 -0.33 0.8
5 10 7 -1.85 0.86
-5 10 -7 -0.58 0.91
5 10 7 -0.54 0.62
-5 10 -7 -0.08 1.55
5 10 7 0.08 0.7
6 -10 7 -0.34 0.79
-6 -10 -7 2.45 1.49
6 -10 7 0.98 0.99
-6 -10 -7 0.83 1.15
-6 -10 -7 4.27 1.32
6 -10 7 -1.36 1.24
6 -10 7 1 0.78
6 10 7 1.25 0.86
6 10 7 0.18 0.84
-6 10 -7 0.75 1.89
-6 10 -7 1.92 1.17
6 10 7 0.63 0.9
-6 10 -7 0.15 1.07
6 10 7 1.26 0.75
7 -10 7 2.01 1.24
7 -10 7 2.67 1.93
-7 -10 -7 -0.03 1.79
7 -10 7 -0.08 1.03
-7 -10 -7 1.58 1.35
7 -10 7 2.59 0.94
-7 10 -7 6.09 2.35
7 10 7 1.99 0.99
7 10 7 4.7 1.19
7 10 7 4.93 1.09
-7 10 -7 0.86 1.37
9 -11 -7 2.66 1.46
-9 -11 7 1.27 1.36
9 -11 -7 1.29 1.51
9 -11 -7 1.08 1.26
9 11 -7 1.41 1
-9 11 7 0.05 1.44
-9 11 7 -2.17 1.51
8 -11 -7 2.81 1.25
8 -11 -7 2.98 1.13
-8 -11 7 2.25 1.2
8 -11 -7 2.03 1.5
-8 11 7 2.43 1.17
8 11 -7 1.25 0.58
-8 11 7 0.48 1.04
8 11 -7 1.39 1.22
8 11 -7 2.43 0.9
8 11 -7 2.17 1.25
-8 11 7 0.14 1.4
8 11 -7 2.57 0.8
-7 -11 7 0.13 0.8
7 -11 -7 1.55 0.95
-7 -11 7 0.4 0.53
7 -11 -7 -0.53 1.04
7 -11 -7 2.82 1.28
-7 -11 7 0.15 0.97
7 11 -7 -0.41 0.48
7 11 -7 -0.08 1.01
7 11 -7 0.93 0.94
-7 11 7 -1.02 1.15
7 11 -7 -0.12 0.78
-7 11 7 -0.47 1
-7 11 7 0.84 0.94
-6 -11 7 3.72 0.87
6 -11 -7 2.5 1.05
6 -11 -7 3.38 0.94
-6 -11 7 2.92 0.97
6 -11 -7 1.43 0.88
6 11 -7 2.73 1
-6 11 7 2.52 0.99
6 11 -7 2.04 0.93
6 11 -7 2.81 0.68
-6 11 7 3.08 0.97
-6 11 7 1.84 1.21
5 -11 -7 0.11 0.75
-5 -11 7 0.33 0.47
-5 -11 7 -0.1 0.69
5 -11 -7 0.66 1
5 -11 -7 -0.21 0.79
-5 -11 7 0.96 0.75
5 11 -7 2.24 0.85
5 11 -7 0.98 0.56
5 11 -7 0.55 0.81
-5 11 7 0.55 0.91
-5 11 7 0.43 0.88
4 -11 -7 13.32 1.66
-4 -11 7 9.78 1.28
-4 -11 7 10.86 1.11
4 -11 -7 10.44 1.42
-4 -11 7 9.34 1
4 -11 -7 11.49 0.95
4 11 -7 10.67 1.09
4 11 -7 10.63 1.32
4 11 -7 10.21 0.93
-4 11 7 10.22 1.39
-4 11 7 12.76 1.54
3 -11 -7 0.62 0.69
3 -11 -7 -0.36 0.82
-3 -11 7 -0.52 0.54
3 -11 -7 0.03 0.45
-3 -11 7 0.12 0.53
-3 -11 7 -0.04 0.71
3 -11 -7 -0.21 0.66
-3 -11 7 -0.36 0.74
-3 -11 7 -0.16 0.26
-3 11 7 1.66 0.77
3 11 -7 0.42 0.69
3 11 -7 0.36 0.87
3 11 -7 -0.03 0.56
-3 11 7 0.23 0.88
-3 11 7 0.41 0.45
2 -11 -7 3.05 0.68
2 -11 -7 5.86 1.21
-2 -11 7 3.78 0.75
-2 -11 7 5.03 1.06
-2 -11 7 3.74 0.62
2 -11 -7 4.13 0.61
2 -11 -7 4.16 0.94
-2 -11 7 4.53 0.8
2 11 -7 4.33 1.13
-2 11 7 4.92 0.95
2 11 -7 3.55 0.73
-2 11 7 4.57 1.01
-1 -11 7 5.01 0.78
-1 -11 7 3.97 0.6
1 -11 -7 5.46 0.91
1 -11 -7 5.42 1.01
-1 -11 7 4.66 0.74
1 -11 -7 5.26 0.71
-1 -11 7 4.64 0.6
1 -11 -7 5.03 0.79
-1 11 7 6.83 0.64
1 11 -7 3.65 0.79
-1 11 7 5.49 1.08
-1 11 7 4.23 0.81
1 11 -7 4.2 1.19
0 -11 7 0.34 0.62
0 -11 -7 -0.08 0.73
0 -11 -7 -0.13 0.64
0 -11 -7 -0.06 0.56
0 -11 -7 -1.53 0.78
0 -11 7 0.9 0.65
0 -11 7 -1.54 0.88
0 -11 7 0.69 1.04
0 11 7 -0.29 0.87
0 11 -7 -0.53 0.62
0 11 -7 -0.88 0.96
0 11 7 -0.56 0.7
0 11 7 -0.18 0.5
-1 -11 -7 1.67 0.74
1 -11 7 0.96 0.73
1 -11 7 1.13 0.6
-1 -11 -7 0.72 0.62
-1 -11 -7 1.21 0.64
1 -11 7 1.91 0.67
-1 -11 -7 2.35 0.95
1 -11 7 1.3 0.98
1 11 7 0.54 0.74
1 11 7 0.44 0.49
-1 11 -7 1.8 1.12
-1 11 -7 0.93 0.68
1 11 7 1.95 0.82
-2 -11 -7 1.58 0.82
2 -11 7 3.13 1.16
-2 -11 -7 2.94 1.07
2 -11 7 2.03 0.83
2 -11 7 1.29 0.69
-2 -11 -7 1.96 0.74
2 11 7 2.03 0.53
2 11 7 1.4 0.84
2 11 7 1.99 0.9
-2 11 -7 2.06 1.14
-2 11 -7 1.78 0.81
3 -11 7 2.89 0.73
3 -11 7 3.25 1.34
-3 -11 -7 3.27 0.91
-3 -11 -7 2.36 0.91
3 -11 7 2.49 0.84
-3 -11 -7 3.53 0.83
-3 -11 -7 4.69 1.14
3 11 7 3.78 0.95
-3 11 -7 2.18 0.93
-3 11 -7 2.56 1.38
3 11 7 2.23 0.55
3 11 7 3.41 1.05
-4 -11 -7 -0.21 0.87
4 -11 7 -0.52 1.16
4 -11 7 -0.31 0.72
-4 -11 -7 -0.12 1.11
4 -11 7 -0.67 0.79
-4 -11 -7 -0.1 0.89
-4 -11 -7 -0.49 0.95
4 11 7 -0.51 0.96
4 11 7 1.32 0.88
4 11 7 0.61 0.6
-4 11 -7 2.98 1.57
-4 11 -7 1.57 0.87
5 -11 7 -0.7 1.34
5 -11 7 -1.08 0.65
-5 -11 -7 0.15 1.64
5 -11 7 2.11 1.1
-5 -11 -7 0.17 1.13
-5 -11 -7 0.56 1.3
5 -11 7 1.32 0.82
5 11 7 2.42 1.01
5 11 7 1.21 0.66
-5 11 -7 2.25 1.76
-5 11 -7 0.74 1.12
-5 11 -7 0.41 0.98
5 11 7 -0.04 0.98
6 -11 7 -0.76 1.5
6 -11 7 -1.41 0.88
-6 -11 -7 -1.14 1.74
6 -11 7 -1.96 1.09
6 -11 7 -1.05 0.87
-6 -11 -7 0.52 1.26
6 11 7 0.4 0.76
6 11 7 -0.12 1.08
6 11 7 4.24 1.2
-6 11 -7 0.52 1.24
6 11 7 3.22 1.2
-6 11 -7 -0.41 2.24
-8 -12 7 1 0.96
-8 -12 7 -0.58 1.33
8 -12 -7 -3.32 1.61
8 -12 -7 -0.74 1.21
8 -12 -7 0.43 1.48
8 12 -7 -0.09 0.96
8 12 -7 -0.75 0.87
-8 12 7 -0.56 1.67
-8 12 7 2.05 1.37
7 -12 -7 1.87 1.21
-7 -12 7 -1.5 0.62
7 -12 -7 -0.07 1.08
7 -12 -7 2.34 1.59
-7 -12 7 -1.26 1.15
-7 -12 7 0.63 1.09
-7 12 7 2.57 1.51
7 12 -7 0.1 0.95
-7 12 7 -0.16 1.16
7 12 -7 1 0.71
7 12 -7 0.01 1.34
-7 12 7 0.39 1.32
-6 -12 7 2.27 1.08
6 -12 -7 -1.41 1.04
-6 -12 7 -0.04 0.67
6 -12 -7 -0.19 0.93
-6 -12 7 0.85 0.99
6 -12 -7 3.35 1.62
-6 12 7 -2.57 1
6 12 -7 1.02 1
-6 12 7 -1.29 1.36
6 12 -7 -0.44 0.61
6 12 -7 0.56 1.06
-5 -12 7 2.78 0.9
-5 -12 7 3.04 1.15
5 -12 -7 4.21 0.99
5 -12 -7 3.75 1.1
5 -12 -7 2.22 1.31
5 12 -7 4.6 0.88
5 12 -7 4.4 1.04
-5 12 7 3.96 1.19
-5 12 7 5.73 1.42
5 12 -7 4.03 1.17
-4 -12 7 -0.1 0.79
-4 -12 7 -1.27 0.59
4 -12 -7 -0.11 0.8
-4 -12 7 0.55 1.07
4 -12 -7 1.35 0.88
4 -12 -7 -0.41 0.57
4 -12 -7 -0.06 1.06
4 12 -7 1.37 0.89
4 12 -7 0.13 1.04
-4 12 7 -0.12 0.4
4 12 -7 0.76 0.63
-4 12 7 0.03 1.12
-4 12 7 -0.44 0.8
3 -12 -7 6.52 1.18
3 -12 -7 7.21 0.9
-3 -12 7 5.74 1.15
-3 -12 7 5.33 0.87
3 -12 -7 7.23 1.43
-3 -12 7 6.12 0.83
-3 -12 7 5.17 0.99
3 -12 -7 7.32 0.73
3 12 -7 4.92 0.87
3 12 -7 5.65 0.98
-3 12 7 7.28 1.11
3 12 -7 7.35 1.46
-3 12 7 7.13 1.36
-2 -12 7 1.63 0.68
2 -12 -7 0.84 0.61
-2 -12 7 0.22 0.44
-2 -12 7 1.7 0.65
2 -12 -7 0.1 0.71
2 -12 -7 0.38 0.97
-2 -12 7 0.55 0.96
2 -12 -7 1.39 0.81
-2 -12 7 0.39 0.81
-2 12 7 1.07 0.6
-2 12 7 1.26 1.04
2 12 -7 0.3 0.66
-2 12 7 0.44 0.82
2 12 -7 0.1 1
1 -12 -7 4.94 0.8
1 -12 -7 2.86 1.12
-1 -12 7 5.04 1.16
-1 -12 7 5.25 0.9
1 -12 -7 4.44 1.08
-1 -12 7 6.52 1.03
-1 -12 7 5.16 0.73
1 -12 -7 5.06 0.75
-1 12 7 6.09 1.11
1 12 -7 5.71 1.47
-1 12 7 7.05 1.29
1 12 -7 3.81 1.08
0 -12 -7 11.51 1.37
0 -12 -7 15.48 2.01
0 -12 -7 9.13 0.9
0 -12 -7 10.5 0.89
0 -12 7 11.76 0.99
0 -12 7 11.08 1.57
0 -12 7 12.29 1.37
0 12 7 10.21 0.76
0 12 -7 11.67 1.31
0 12 7 11.5 1.51
0 12 -7 11.16 1.52
0 12 7 11.13 1.51
1 -12 7 0.27 0.86
-1 -12 -7 -0.37 1.03
-1 -12 -7 2.06 0.88
-1 -12 -7 0.27 0.71
1 -12 7 -0.37 1.09
1 -12 7 -0.36 0.76
1 -12 7 1.43 0.72
-1 -12 -7 0.03 0.74
-1 12 -7 1.18 1.43
-1 12 -7 2.04 0.85
1 12 7 0.06 0.57
1 12 7 -0.35 0.8
1 12 7 -0.35 0.93
-2 -12 -7 6.7 1.34
-2 -12 -7 5.64 0.96
-2 -12 -7 5.47 0.92
2 -12 7 5.26 1.36
2 -12 7 4.29 0.89
-2 -12 -7 5.87 1.17
-2 12 -7 8.29 1.27
-2 12 -7 2.24 1.61
2 12 7 5.96 0.64
2 12 7 5.06 1
2 12 7 8.1 1.36
-3 -12 -7 -0.27 1.64
-3 -12 -7 -0.01 0.93
3 -12 7 1.6 0.82
3 -12 7 1.88 0.83
-3 -12 -7 0.94 1.02
3 -12 7 0.18 1.44
-3 -12 -7 1.54 1.17
-3 12 -7 -0.13 0.87
3 12 7 0.76 0.92
-3 12 -7 -0.17 1.39
3 12 7 -0.62 1.05
3 12 7 0.39 0.57
4 -12 7 3.23 1.1
-4 -12 -7 0.22 1.04
4 -12 7 1.94 1.67
4 -12 7 1.95 0.88
-4 -12 -7 1.96 1.11
-4 -12 -7 0.33 1.3
-4 -12 -7 1.29 1.16
4 12 7 2.19 1.17
4 12 7 3.82 1.2
-4 12 -7 2.09 0.99
-4 12 -7 0.89 1.95
4 12 7 1.79 0.63
-4 12 -7 2.29 1.12
-5 -12 -7 -1.9 1.38
-5 -12 -7 2.53 1.27
5 -12 7 -2.01 0.89
5 -12 7 -0.77 1.77
5 -12 7 0.04 1.05
5 12 7 1.07 1.23
5 12 7 0.12 0.7
-5 12 -7 1 2.01
5 12 7 2.22 2.24
-5 12 -7 -0.95 1.2
7 -13 -7 -0.17 1.82
7 -13 -7 0.2 1.46
7 -13 -7 2.25 1.47
-7 -13 7 3.49 1.39
-7 -13 7 0.92 1.44
-7 13 7 1.91 1.54
7 13 -7 -1.61 1.04
-7 13 7 0.05 1.79
6 -13 -7 -0.66 1.23
-6 -13 7 1.16 1.18
6 -13 -7 1.12 1.29
6 -13 -7 -1.2 1.48
-6 -13 7 -0.36 1.27
-6 -13 7 -0.89 0.8
6 13 -7 -0.11 0.81
6 13 -7 0.8 1.21
-6 13 7 -0.26 1.54
-5 -13 7 0.55 1.29
-5 -13 7 0.32 0.75
5 -13 -7 1.57 1.14
-5 -13 7 0.12 1.02
5 -13 -7 -0.52 1.13
5 -13 -7 0.73 1.49
5 -13 -7 -0.09 0.74
-5 13 7 -0.32 1.33
5 13 -7 1.06 1.28
5 13 -7 0.45 0.78
5 13 -7 0.52 1.14
-5 13 7 2.58 1.28
-4 -13 7 2.27 0.94
4 -13 -7 0 1.03
4 -13 -7 1.58 1.01
4 -13 -7 0.83 1.41
4 -13 -7 2.07 0.78
-4 -13 7 -0.76 0.68
-4 -13 7 3.7 1.26
-4 13 7 2.93 1.5
4 13 -7 1.49 1.04
-4 13 7 -0.34 0.42
4 13 -7 1.65 0.89
4 13 -7 2.96 1.31
-4 13 7 1.12 1.18
3 -13 -7 -0.15 0.89
-3 -13 7 1.34 0.9
3 -13 -7 -2.13 1.28
3 -13 -7 0.11 1
-3 -13 7 -0.12 1.2
-3 -13 7 -1.7 0.76
3 -13 -7 -0.29 0.73
-3 13 7 0.85 1.35
3 13 -7 -1 1.06
3 13 -7 -0.41 0.93
-3 13 7 0.53 0.6
3 13 -7 -1.39 0.78
-3 13 7 2.1 1.06
2 -13 -7 3.27 1.15
-2 -13 7 3.12 1
-2 -13 7 3.48 0.85
-2 -13 7 4.55 1.24
2 -13 -7 3.22 1.36
2 -13 -7 3.67 0.89
-2 13 7 4.05 1.2
2 13 -7 2.01 1.23
-2 13 7 2.67 1.28
-2 13 7 0.49 0.73
2 13 -7 2.88 1.48
-1 -13 7 0.75 0.76
1 -13 -7 2 1.05
-1 -13 7 -0.03 0.93
1 -13 -7 0.81 0.82
1 -13 -7 0.08 0.88
1 -13 -7 1.02 1.3
-1 -13 7 0.49 0.67
-1 -13 7 0.83 0.71
-1 -13 7 1.78 1.18
-1 13 7 3.57 0.96
1 13 -7 -0.99 0.86
1 13 -7 2.39 1.33
-1 13 7 1.02 0.95
-1 13 7 2.05 1.18
0 -13 -7 0.84 0.83
0 -13 7 0.33 1.27
0 -13 -7 0.52 0.84
0 -13 7 -0.72 0.82
0 -13 7 1.01 0.73
0 -13 -7 0.29 0.94
0 -13 -7 -1.68 1.19
0 -13 7 0.87 0.9
0 13 7 -0.56 0.88
0 13 -7 1.89 1.57
0 13 -7 -1.41 0.92
0 13 7 2.21 1.24
1 -13 7 0.25 1.45
-1 -13 -7 2.32 1.29
1 -13 7 1.21 0.75
-1 -13 -7 0.1 0.93
-1 -13 -7 1 0.85
1 -13 7 -0.41 0.98
-1 -13 -7 3.11 1.04
1 -13 7 -0.23 0.87
-1 13 -7 0.02 0.91
-1 13 -7 -0.69 1.52
1 13 7 2.69 1.01
1 13 7 0.57 1.14
1 13 7 0.49 0.93
2 -13 7 0.51 0.86
-2 -13 -7 0.51 1.3
-2 -13 -7 1.39 1.01
-2 -13 -7 0.86 1.16
2 -13 7 -0.35 0.92
-2 -13 -7 -0.72 1
2 -13 7 2.3 1.69
-2 13 -7 1.98 1.86
-2 13 -7 1.14 0.99
2 13 7 1.76 1.26
2 13 7 1.43 1.06
2 13 7 -0.09 0.62
3 -13 7 1.42 0.95
3 -13 7 0.48 1.8
-3 -13 -7 -0.29 1.14
-3 -13 -7 1.12 1.2
3 -13 7 1.42 0.98
-3 -13 -7 2.27 1.17
3 13 7 1.21 1.16
-3 13 -7 0.06 1.71
-3 13 -7 1.26 1.19
3 13 7 1.02 0.66
3 13 7 0.91 1.15
-4 -13 -7 1 1.32
-4 -13 -7 -2.02 1.35
-4 -13 -7 1.27 1.28
4 -13 7 2.46 1.14
4 13 7 1.54 1.45
-4 13 -7 -0.04 2.27
-4 13 -7 0.1 1.27
4 13 7 0.85 1.26
4 13 7 0.37 0.68
-5 -14 7 -0.64 2.52
5 -14 -7 -0.2 0.91
5 -14 -7 -0.81 1.9
5 -14 -7 -0.37 1.33
5 -14 -7 0.77 1.45
-5 -14 7 -0.47 1.22
-5 -14 7 0.03 1
5 14 -7 1.05 1.48
5 14 -7 0.49 0.95
-5 14 7 1.53 1.94
-4 -14 7 -1.46 1.15
4 -14 -7 -0.36 0.88
-4 -14 7 -2.5 1.65
4 -14 -7 -0.86 1.24
4 -14 -7 4.63 1.59
4 -14 -7 2.26 1.25
-4 -14 7 0.46 0.94
-4 14 7 0.65 1.66
4 14 -7 0.03 1.3
-4 14 7 0.95 1.73
4 14 -7 -0.82 0.9
4 14 -7 -2.26 1.29
3 -14 -7 0.46 1.23
-3 -14 7 -0.39 1.07
-3 -14 7 1.47 0.84
3 -14 -7 -0.75 1.04
3 -14 -7 -0.41 1.48
3 -14 -7 -2.19 0.87
-3 -14 7 1.13 1.59
3 14 -7 3.78 1.6
3 14 -7 1.53 1.19
-3 14 7 0.54 0.71
3 14 -7 -1.7 1.08
-3 14 7 0.67 1.51
-3 14 7 -2.54 1.48
2 -14 -7 1.52 1.05
-2 -14 7 -1.82 0.93
-2 -14 7 -0.03 1.03
2 -14 -7 -1.25 0.91
2 -14 -7 1.02 1.21
-2 14 7 -0.38 0.82
-2 14 7 -1.84 1.13
2 14 -7 -1.11 1.47
2 14 -7 0.23 1.1
-2 14 7 -1.29 1.44
-1 -14 7 -0.61 0.62
-1 -14 7 3.46 0.87
1 -14 -7 5.94 1.61
-1 -14 7 -0.39 0.69
-1 -14 7 2.38 2.27
-1 -14 7 1.88 0.94
1 -14 -7 1.2 1.23
1 -14 -7 2.04 1.06
1 -14 -7 0.17 1.02
-1 14 7 0.79 0.98
-1 14 7 0.49 1.26
-1 14 7 3.36 1.5
1 14 -7 0.1 1.06
1 14 -7 -1.62 1.44
0 -14 7 -0.62 0.94
0 -14 -7 -0.15 0.96
0 -14 7 -0.64 0.79
0 -14 -7 0.15 1.24
0 -14 7 1.62 0.94
0 -14 7 0.56 0.95
0 -14 -7 1.23 1.03
0 14 7 1.99 1.09
0 14 -7 -1.69 1.58
0 14 7 2.62 1.48
0 14 -7 -0.91 1.15
0 14 7 3.85 1.22
-1 -14 -7 -0.13 1.07
-1 -14 -7 1 1.19
1 -14 7 -1.39 1.03
1 -14 7 1.5 0.94
-1 14 -7 0.81 1.63
1 14 7 0.75 1.36
-1 14 -7 -0.78 1.15
1 14 7 1.35 1.25
1 14 7 0.37 1.2
2 -14 7 -0.45 1.06
-2 -14 -7 1.22 1.22
2 -14 7 3.28 1.05
-2 -14 -7 0.93 1.56
-2 -14 -7 0.44 1.17
2 14 7 1.67 1.48
2 14 7 0.53 1.26
-2 14 -7 1.26 1.21
-2 14 -7 5.78 2.13
2 14 7 1.05 1.39
-2 -15 7 2.35 1.06
-2 -15 7 -0.08 1.26
2 -15 -7 -0.92 1.45
2 -15 -7 1.45 1.32
2 -15 -7 1.61 1.16
-2 15 7 2.6 1.85
1 -15 -7 -2.58 1.47
-1 -15 7 -2 1.06
-1 -15 7 0.75 1.16
1 -15 -7 0.24 1.17
-1 15 7 2.59 1.72
1 15 -7 -1.19 1.25
-1 15 7 2.51 1.68
13 0 -8 1.46 1.35
13 0 -8 4.39 1.17
13 0 -8 1.45 1.03
12 0 -8 4.24 0.89
12 0 -8 2.9 1.17
12 0 -8 2.78 0.82
12 0 -8 2.79 1.12
12 0 -8 3.88 1.11
12 0 -8 3.36 1.13
11 0 -8 0.98 0.85
11 0 -8 1.1 0.94
11 0 -8 -0.76 0.84
11 0 -8 1.08 0.66
11 0 -8 1.75 0.83
10 0 -8 6.64 0.84
10 0 -8 7.19 0.88
10 0 -8 6.35 0.63
10 0 -8 5.95 0.76
10 0 -8 5.49 0.64
10 0 -8 7.79 0.91
9 0 -8 8.01 0.76
9 0 -8 6.73 0.74
9 0 -8 7.34 0.68
9 0 -8 2.49 1.01
9 0 -8 6.67 0.58
9 0 -8 7.47 0.58
-9 0 8 7.99 0.78
8 0 -8 0.01 0.31
8 0 -8 0.24 0.49
8 0 -8 -0.25 0.54
-8 0 8 -0.08 0.21
8 0 -8 -0.21 0.37
-8 0 8 0.36 0.51
8 0 -8 0.07 0.36
-8 0 8 -0.12 0.44
-8 0 8 0 0.22
8 0 -8 -0.44 0.36
-7 0 8 2.81 0.51
7 0 -8 2.7 0.51
-7 0 8 2.12 0.4
-7 0 8 1.7 0.44
7 0 -8 1.72 0.29
7 0 -8 1.55 0.43
7 0 -8 1.93 0.45
7 0 -8 2.13 0.38
-7 0 8 1.98 0.31
7 0 -8 2.27 0.44
6 0 -8 0.33 0.18
-6 0 8 -0.2 0.3
6 0 -8 0.35 0.36
-6 0 8 0.39 0.24
6 0 -8 0.37 0.28
-6 0 8 0.36 0.37
-6 0 8 -0.22 0.37
-6 0 8 0.25 0.22
6 0 -8 0.13 0.34
6 0 -8 0.42 0.36
6 0 -8 0.1 0.36
5 0 -8 14.95 0.73
5 0 -8 15.22 0.44
5 0 -8 15.82 0.7
-5 0 8 15.01 0.69
-5 0 8 15.81 0.7
5 0 -8 16 0.73
5 0 -8 16.01 0.86
-5 0 8 16.61 0.7
-5 0 8 15.82 0.65
-5 0 8 15.29 0.72
-4 0 8 3.98 0.39
4 0 -8 3.21 0.49
4 0 -8 3.36 0.44
4 0 -8 4.19 0.4
-4 0 8 3.91 0.36
-4 0 8 3.13 0.42
-4 0 8 3.33 0.37
4 0 -8 4.21 0.41
-4 0 8 3.74 0.44
-3 0 8 21.71 0.93
-3 0 8 20.73 0.74
3 0 -8 21.36 0.78
3 0 -8 21.57 0.89
3 0 -8 21.16 1.03
-3 0 8 21.22 0.86
3 0 -8 20.31 0.72
-3 0 8 22.19 0.73
-3 0 8 21.11 0.72
2 0 -8 2.94 0.47
2 0 -8 2.22 0.36
-2 0 8 2.45 0.32
-2 0 8 1.8 0.35
-2 0 8 3.07 0.32
-2 0 8 3.08 0.43
2 0 -8 3.15 0.37
2 0 -8 2.39 0.28
1 0 -8 2.12 0.28
1 0 -8 2.04 0.35
-1 0 8 2.09 0.26
-1 0 8 1.63 0.35
1 0 -8 1.29 0.27
1 0 -8 2.18 0.49
-1 0 8 2.54 0.4
-1 0 8 2.38 0.33
0 0 8 0 0.35
0 0 -8 0.47 0.27
0 0 8 0.01 0.26
0 0 8 0.01 0.27
0 0 -8 -0.09 0.3
0 0 -8 0.21 0.4
0 0 8 0.11 0.17
1 0 8 0.25 0.38
1 0 8 0.21 0.25
-1 0 -8 -0.26 0.26
-1 0 -8 -0.1 0.21
1 0 8 0.15 0.17
1 0 8 0.04 0.33
-1 0 -8 0.02 0.41
-2 0 -8 23.02 0.76
-2 0 -8 21.82 1.33
2 0 8 22.12 1.2
2 0 8 22.79 0.58
2 0 8 22.9 1.05
-2 0 -8 23.23 1.05
2 0 8 21.8 0.94
3 0 8 1.98 0.48
-3 0 -8 1.85 0.43
3 0 8 2.24 0.48
-3 0 -8 2.37 0.39
-3 0 -8 2.31 0.72
3 0 8 2.77 0.63
-4 0 -8 5.85 0.7
4 0 8 7.33 0.74
4 0 8 6.36 0.65
4 0 8 7.03 0.97
-4 0 -8 5.73 0.92
-4 0 -8 6.76 0.53
5 0 8 7.65 0.99
-5 0 -8 8.33 0.91
-5 0 -8 8.13 0.65
-5 0 -8 7.21 1.03
5 0 8 9.14 0.86
-5 0 -8 9.1 0.83
5 0 8 7.83 0.93
6 0 8 2.12 0.79
-6 0 -8 1.37 0.98
-6 0 -8 0.1 0.54
-6 0 -8 0.28 0.6
-6 0 -8 -0.64 0.48
6 0 8 -0.1 0.5
6 0 8 -0.47 0.63
7 0 8 8.11 1.14
-7 0 -8 7.27 0.87
7 0 8 6.08 0.92
-7 0 -8 7.15 1.35
-7 0 -8 6.95 0.79
7 0 8 7.67 1.05
-7 0 -8 7.29 0.93
8 0 8 3.05 0.97
-8 0 -8 0.7 0.98
-8 0 -8 1.41 0.87
8 0 8 2.78 0.73
8 0 8 4.58 1.09
-8 0 -8 0.68 1.34
8 0 8 0.87 1.16
-8 0 -8 4.46 1.01
-9 0 -8 -0.52 1.67
9 0 8 0.63 1.34
9 0 8 -0.54 1.15
-9 0 -8 0.42 1.03
-9 0 -8 1.62 1.22
9 0 8 0.84 0.81
-9 0 -8 -0.15 1.07
9 0 8 -1.63 1.45
13 -1 -8 -0.05 1.14
13 1 -8 -0.01 1.09
13 1 -8 -2.87 1.39
12 -1 -8 0.32 0.87
12 -1 -8 0.3 1.07
12 -1 -8 -1.13 1.11
12 -1 -8 -1.35 1.04
12 1 -8 -0.23 1.16
12 1 -8 1.41 1.05
12 1 -8 1.88 0.86
12 1 -8 -1.62 1.04
12 1 -8 0.65 0.82
12 1 -8 1.4 1.03
11 -1 -8 2.11 0.83
11 -1 -8 2.32 0.91
11 -1 -8 1.12 0.93
11 -1 -8 1.67 0.61
11 -1 -8 2.16 0.93
11 -1 -8 2.34 0.71
11 1 -8 2.37 0.72
-11 1 8 1.2 0.91
11 1 -8 0.61 0.87
11 1 -8 0.41 0.89
11 1 -8 1.71 0.68
11 1 -8 0.93 0.83
11 1 -8 -0.09 0.81
10 -1 -8 1.21 0.74
10 -1 -8 1.52 0.56
10 -1 -8 0.62 0.74
10 -1 -8 1.53 0.51
10 -1 -8 1.75 0.76
10 -1 -8 0.53 0.72
10 1 -8 1.28 0.52
-10 1 8 1.46 0.79
10 1 -8 1.17 0.7
10 1 -8 2.33 0.74
10 1 -8 1.14 0.76
10 1 -8 1.13 0.68
9 -1 -8 4.14 0.6
9 -1 -8 5.43 0.73
9 -1 -8 5.34 0.73
9 -1 -8 4.71 0.53
9 -1 -8 4.53 0.6
9 1 -8 5.08 0.52
9 1 -8 3.69 0.69
9 1 -8 4.47 0.55
9 1 -8 3.07 0.68
9 1 -8 5.39 0.67
-9 1 8 4.66 0.7
-9 1 8 4.06 0.46
9 1 -8 4.48 0.65
-8 -1 8 0.95 0.52
8 -1 -8 0.69 0.33
8 -1 -8 0.34 0.45
8 -1 -8 -0.18 0.49
-8 -1 8 0.25 0.47
8 -1 -8 0.91 0.54
8 1 -8 0.72 0.54
8 1 -8 0.78 0.33
-8 1 8 -0.12 0.5
-8 1 8 0.52 0.27
-8 1 8 0.05 0.4
-8 1 8 0.67 0.27
8 1 -8 0.26 0.5
8 1 -8 -0.05 0.38
8 1 -8 0.74 0.46
7 -1 -8 1.49 0.43
-7 -1 8 1.32 0.24
-7 -1 8 0.78 0.4
-7 -1 8 0.52 0.44
7 -1 -8 0.37 0.47
-7 -1 8 0.85 0.21
7 -1 -8 0.35 0.41
7 -1 -8 0.89 0.26
-7 -1 8 0.56 0.4
7 -1 -8 0.15 0.3
-7 1 8 0.48 0.34
7 1 -8 1.48 0.4
7 1 -8 1.1 0.42
7 1 -8 1.14 0.41
-7 1 8 1.68 0.46
-7 1 8 0.68 0.26
7 1 -8 0.52 0.36
7 1 -8 0.55 0.31
-7 1 8 0.52 0.29
-7 1 8 1.05 0.45
7 1 -8 0.51 0.43
-6 -1 8 0.67 0.25
6 -1 -8 0.19 0.39
-6 -1 8 0.68 0.34
6 -1 -8 0.9 0.39
6 -1 -8 0.93 0.31
6 -1 -8 0.66 0.2
6 -1 -8 0.52 0.38
-6 -1 8 0.55 0.4
-6 -1 8 0.67 0.34
6 -1 -8 0.59 0.35
-6 1 8 0.7 0.37
6 1 -8 0.58 0.37
-6 1 8 0.78 0.31
-6 1 8 0.53 0.36
-6 1 8 0.37 0.28
6 1 -8 0.64 0.27
6 1 -8 0.78 0.38
6 1 -8 0.73 0.19
6 1 -8 0.66 0.34
-6 1 8 0.59 0.27
6 1 -8 0.36 0.34
5 -1 -8 6.93 0.62
-5 -1 8 7.04 0.54
5 -1 -8 6.51 0.29
5 -1 -8 6.73 0.6
-5 -1 8 6.92 0.47
-5 -1 8 7.41 0.56
-5 -1 8 7.11 0.51
-5 -1 8 7.13 0.59
5 -1 -8 7.54 0.6
5 -1 -8 7.29 0.74
5 -1 -8 7.18 0.54
5 1 -8 7.31 0.6
-5 1 8 6.99 0.54
-5 1 8 6.96 0.56
-5 1 8 6.84 0.49
-5 1 8 6.09 0.49
5 1 -8 7.82 0.59
5 1 -8 6.54 0.49
5 1 -8 7.02 0.67
5 1 -8 7.09 0.29
-5 1 8 6.22 0.57
4 -1 -8 10.11 0.78
-4 -1 8 11.16 0.58
4 -1 -8 11.29 0.69
-4 -1 8 10.39 0.58
4 -1 -8 10.73 0.64
-4 -1 8 11.79 0.65
-4 -1 8 10.9 0.58
4 -1 -8 10.01 0.57
-4 -1 8 10.23 0.57
-4 1 8 10.39 0.64
4 1 -8 10.73 0.6
-4 1 8 10.21 0.53
4 1 -8 10.95 0.62
4 1 -8 11.05 0.77
-4 1 8 11.17 0.66
4 1 -8 11.14 0.6
-4 1 8 10.21 0.6
-4 1 8 11.03 0.57
-3 -1 8 1.64 0.3
-3 -1 8 1.24 0.34
-3 -1 8 1.2 0.28
3 -1 -8 1.62 0.43
-3 -1 8 1.57 0.29
-3 -1 8 1.34 0.28
3 -1 -8 0.99 0.31
3 -1 -8 1.52 0.31
3 -1 -8 0.86 0.27
3 1 -8 1.42 0.29
-3 1 8 1 0.28
-3 1 8 0.82 0.28
3 1 -8 1.39 0.29
-3 1 8 1.35 0.3
3 1 -8 1.37 0.32
-3 1 8 1.04 0.28
3 1 -8 1.26 0.42
2 -1 -8 121.35 2.65
-2 -1 8 116.58 2.66
2 -1 -8 118.62 3.11
2 -1 -8 119.16 2.71
-2 -1 8 119.84 2.46
-2 -1 8 121.74 2.92
2 -1 -8 119.21 3
-2 -1 8 116.68 3.02
-2 -1 8 119.28 2.63
2 1 -8 120.82 2.64
2 1 -8 119.86 3.13
-2 1 8 123.45 2.66
2 1 -8 119.44 2.95
-2 1 8 115.05 2.67
-2 1 8 124.34 2.97
-2 1 8 118.36 3.05
2 1 -8 120.83 2.7
1 -1 -8 41.42 1.21
-1 -1 8 44.24 1.51
1 -1 -8 45.19 1.59
-1 -1 8 43.12 1.08
1 -1 -8 42.47 1.43
-1 -1 8 42.57 1.17
-1 -1 8 43.92 1.38
1 1 -8 44.42 1.09
-1 1 8 39.84 1.46
1 1 -8 44.46 1.22
-1 1 8 43.55 1.11
-1 1 8 39.61 1.16
1 1 -8 43.07 1.59
-1 1 8 45.37 1.42
1 1 -8 42.6 1.4
-1 1 8 41.88 0.92
0 -1 8 14.65 0.51
0 -1 -8 16.34 0.74
0 -1 -8 14.84 1.01
0 -1 8 14.76 0.7
0 -1 8 14.32 0.89
0 -1 -8 15.06 0.83
0 -1 8 14.99 0.8
0 1 -8 13.77 0.77
0 1 8 15.59 0.55
0 1 -8 15.15 0.53
0 1 8 15.39 0.8
0 1 -8 15.25 1.05
0 1 8 15.11 0.87
0 1 8 13.9 0.68
0 1 8 15.44 0.47
-1 -1 -8 21.24 1.22
1 -1 8 21.59 0.98
-1 -1 -8 21.11 1.01
1 -1 8 20.75 0.85
1 -1 8 21.12 1.11
1 1 8 20.26 0.66
1 1 8 20.93 1.05
-1 1 -8 20.21 0.96
-1 1 -8 22.97 1.25
1 1 8 22.2 0.63
1 1 8 22.22 0.85
1 1 8 21.53 0.99
-1 1 -8 20.3 0.67
-1 1 -8 21.26 0.6
-2 -1 -8 0.83 0.37
2 -1 8 0.7 0.4
-2 -1 -8 0.85 0.29
-2 -1 -8 1.25 0.64
2 -1 8 0.77 0.42
2 -1 8 0.93 0.37
2 1 8 0.76 0.38
-2 1 -8 0.86 0.59
2 1 8 0.64 0.3
-2 1 -8 1.12 0.34
2 1 8 1.52 0.29
-2 1 -8 0.67 0.28
2 1 8 1.24 0.41
2 1 8 1.14 0.19
-3 -1 -8 0.29 0.31
-3 -1 -8 0 0.58
3 -1 8 0.05 0.27
3 -1 8 0.49 0.43
3 -1 8 -0.54 0.33
-3 -1 -8 0.13 0.32
-3 1 -8 0.35 0.3
-3 1 -8 -0.24 0.57
3 1 8 -0.19 0.44
3 1 8 0.48 0.33
3 1 8 0.39 0.33
-3 1 -8 0.4 0.34
3 1 8 0.12 0.13
3 1 8 0.2 0.43
4 -1 8 -0.08 0.53
-4 -1 -8 0.5 0.4
-4 -1 -8 0.08 0.6
4 -1 8 -0.11 0.3
-4 -1 -8 0.17 0.36
4 -1 8 -0.28 0.46
4 1 8 0.72 0.42
-4 1 -8 0.22 0.39
-4 1 -8 0.35 0.38
4 1 8 0.55 0.52
4 1 8 0.4 0.38
-4 1 -8 0.83 0.7
4 1 8 0.63 0.43
5 -1 8 0.7 0.58
5 -1 8 0.25 0.51
-5 -1 -8 0.11 0.44
-5 -1 -8 0.4 0.72
-5 -1 -8 0.43 0.61
5 -1 8 0.55 0.69
-5 -1 -8 -0.01 0.46
5 1 8 0.7 0.6
5 1 8 0.51 0.51
-5 1 -8 0.65 0.46
-5 1 -8 0.15 0.82
5 1 8 0.9 0.53
5 1 8 0.63 0.52
-6 -1 -8 4.2 1.03
6 -1 8 4.15 0.87
-6 -1 -8 3.41 0.71
-6 -1 -8 1.54 0.7
6 -1 8 3.49 0.69
-6 -1 -8 3.46 0.59
6 1 8 3.26 0.82
6 1 8 4.52 0.77
-6 1 -8 3.4 1
-6 1 -8 2.62 0.64
-6 1 -8 3.68 1.08
6 1 8 1.82 0.74
6 1 8 2.86 0.6
-6 1 -8 2.23 0.6
-7 -1 -8 2.11 0.8
-7 -1 -8 0.05 1.03
7 -1 8 -0.12 0.75
-7 -1 -8 0.37 0.76
7 -1 8 1.55 0.68
-7 -1 -8 0.49 0.66
-7 1 -8 -0.15 0.57
-7 1 -8 -0.12 0.73
-7 1 -8 2.27 1.18
7 1 8 1.97 0.63
-7 1 -8 0.24 0.7
7 1 8 0.15 0.79
7 1 8 2.33 0.84
7 1 8 1.49 0.95
-8 -1 -8 1.47 1.38
8 -1 8 -0.02 0.93
-8 -1 -8 -0.32 0.83
-8 -1 -8 1.45 0.99
8 -1 8 0.5 0.7
-8 -1 -8 0.78 0.85
8 1 8 -1.41 0.63
-8 1 -8 0.42 0.89
-8 1 -8 1.32 1.32
8 1 8 2.03 0.92
-8 1 -8 0.21 0.78
8 1 8 -0.09 1.19
8 1 8 1.67 0.97
-8 1 -8 0.46 0.87
9 -1 8 -0.7 0.83
-9 -1 -8 1.05 1.14
-9 -1 -8 0.25 1.05
-9 -1 -8 1.19 1.08
9 -1 8 -1.17 1.29
-9 -1 -8 -2.03 1.58
-9 1 -8 1.29 1.05
-9 1 -8 0.41 1.76
9 1 8 1.16 0.92
9 1 8 -0.55 1.02
-9 1 -8 0.7 1.16
9 1 8 0.52 1.32
9 1 8 -1.67 1.5
-9 1 -8 -0.45 1.14
12 -2 -8 1.56 1.19
12 -2 -8 1.67 1.18
12 -2 -8 1.06 0.94
12 -2 -8 -0.3 1.21
12 2 -8 1.04 1.02
12 2 -8 0.53 1.12
12 2 -8 1.14 1.18
12 2 -8 1.73 1
-12 2 8 2 1.15
12 2 -8 -0.54 0.79
12 2 -8 2.38 0.99
11 -2 -8 0.49 0.91
11 -2 -8 -0.07 0.89
11 -2 -8 0.53 0.69
11 -2 -8 1.69 0.64
11 -2 -8 0.92 0.95
11 2 -8 -0.18 0.8
11 2 -8 0.18 0.76
11 2 -8 0.56 0.82
11 2 -8 0.45 0.89
11 2 -8 0.15 0.84
11 2 -8 0.12 0.67
-11 2 8 -1.63 0.89
10 -2 -8 0.99 0.77
10 -2 -8 1.5 0.63
10 -2 -8 0.07 0.75
10 -2 -8 1.6 0.71
10 -2 -8 0.67 0.55
-10 2 8 1.41 0.36
10 2 -8 2.67 0.81
10 2 -8 1.36 0.64
10 2 -8 1.02 0.73
-10 2 8 0.65 0.77
10 2 -8 1.47 0.65
10 2 -8 1.47 1.14
9 -2 -8 -0.04 0.34
9 -2 -8 0.94 0.44
9 -2 -8 0.15 0.66
9 -2 -8 0.41 0.52
-9 2 8 -0.26 0.32
9 2 -8 -0.17 0.54
9 2 -8 -0.32 0.56
9 2 -8 -0.05 0.56
9 2 -8 0.44 0.4
9 2 -8 0.12 0.54
-9 2 8 0.68 0.33
9 2 -8 0.22 0.6
-9 2 8 -0.36 0.59
8 -2 -8 0.34 0.32
-8 -2 8 -0.5 0.47
8 -2 -8 0.65 0.36
8 -2 -8 -0.36 0.55
8 2 -8 -0.08 0.44
8 2 -8 0.01 0.31
-8 2 8 0.16 0.49
-8 2 8 -0.41 0.3
8 2 -8 0.33 0.45
-8 2 8 -0.18 0.3
8 2 -8 0.19 0.49
8 2 -8 0.81 0.55
8 2 -8 0.86 0.44
7 -2 -8 1.52 0.48
-7 -2 8 0.68 0.43
-7 -2 8 0.8 0.39
7 -2 -8 0.74 0.44
7 -2 -8 1.12 0.45
-7 -2 8 0.39 0.2
7 -2 -8 1.16 0.35
7 -2 -8 1.42 0.38
7 2 -8 1.05 0.37
-7 2 8 0.55 0.45
7 2 -8 0.25 0.23
7 2 -8 1.05 0.39
-7 2 8 1.14 0.35
7 2 -8 1.09 0.39
-7 2 8 0.76 0.34
-7 2 8 0.95 0.38
7 2 -8 0.72 0.45
7 2 -8 0.87 0.3
7 2 -8 0.47 0.4
6 -2 -8 3.64 0.46
6 -2 -8 3.38 0.46
6 -2 -8 3.59 0.46
6 -2 -8 4.49 0.55
-6 -2 8 4.64 0.45
-6 -2 8 3.96 0.41
-6 -2 8 3.89 0.46
6 -2 -8 4.35 0.58
6 2 -8 4.23 0.51
6 2 -8 4.61 0.46
-6 2 8 3.95 0.49
-6 2 8 3.14 0.44
6 2 -8 4.83 0.5
-6 2 8 4.63 0.5
6 2 -8 4.38 0.33
6 2 -8 3.88 0.42
6 2 -8 3.53 0.44
-6 2 8 4.02 0.37
-6 2 8 3.57 0.5
-5 -2 8 23.62 0.88
-5 -2 8 24.35 0.83
5 -2 -8 23.67 1.02
-5 -2 8 24.33 0.85
5 -2 -8 23.97 1.03
5 -2 -8 24.01 0.93
-5 -2 8 24.56 0.92
5 -2 -8 25.05 0.88
-5 2 8 24.08 0.91
-5 2 8 25.33 1
-5 2 8 23.6 0.89
-5 2 8 25.06 0.96
-5 2 8 25.36 0.79
5 2 -8 24.74 0.88
5 2 -8 24.47 0.65
5 2 -8 23.76 1.04
5 2 -8 24.94 0.86
5 2 -8 24.33 0.9
-4 -2 8 3.14 0.43
4 -2 -8 3.62 0.43
4 -2 -8 3.01 0.46
-4 -2 8 2.73 0.32
4 -2 -8 2.8 0.16
-4 -2 8 3.38 0.39
4 -2 -8 3.11 0.46
-4 -2 8 2.6 0.36
-4 -2 8 2.97 0.28
-4 2 8 2.88 0.36
4 2 -8 2.75 0.49
-4 2 8 3.1 0.42
-4 2 8 2.66 0.3
4 2 -8 3.08 0.42
-4 2 8 2.58 0.37
4 2 -8 3.08 0.39
4 2 -8 2.7 0.34
-4 2 8 2.89 0.38
-3 -2 8 30.06 1.04
-3 -2 8 29.67 0.72
-3 -2 8 30.6 1.15
-3 -2 8 28.64 0.91
3 -2 -8 29.39 1.15
-3 -2 8 30.34 0.9
3 -2 -8 31.14 0.96
-3 2 8 30.93 0.91
3 2 -8 29.51 0.93
-3 2 8 30.56 1.15
3 2 -8 29.64 1.24
-3 2 8 30.7 0.95
3 2 -8 29.76 1.06
-3 2 8 29.43 1.14
3 2 -8 30.29 0.91
2 -2 -8 7.57 0.57
-2 -2 8 7.24 0.56
-2 -2 8 7.94 0.52
-2 -2 8 7.01 0.53
2 -2 -8 6.88 0.78
-2 -2 8 7.96 0.64
-2 -2 8 6.96 0.27
2 -2 -8 6.82 0.62
-2 2 8 7.09 0.52
2 2 -8 7.6 0.55
-2 2 8 8.31 0.65
2 2 -8 7.25 0.77
-2 2 8 7.23 0.49
2 2 -8 8.42 0.48
-2 2 8 6.42 0.61
2 2 -8 7.33 0.55
1 -2 -8 13.91 0.8
1 -2 -8 12.32 0.92
-1 -2 8 14.36 0.75
-1 -2 8 13.6 0.64
1 -2 -8 12.68 0.65
-1 -2 8 12.82 0.82
-1 2 8 13.37 0.56
1 2 -8 12.41 0.54
1 2 -8 12.8 0.66
-1 2 8 13.59 0.81
-1 2 8 13.82 0.35
-1 2 8 13.54 0.79
-1 2 8 13.56 0.65
1 2 -8 13.23 0.72
0 -2 -8 5.65 0.75
0 -2 8 3.94 0.53
0 -2 -8 4.22 0.43
0 -2 -8 5.43 0.61
0 -2 8 5.19 0.53
0 -2 8 3.78 0.38
0 2 -8 2.62 0.48
0 2 8 4.41 0.34
0 2 -8 3.6 0.48
0 2 8 3.75 0.27
0 2 -8 4.01 0.36
0 2 8 4.72 0.57
0 2 8 4.25 0.58
0 2 8 4.36 0.41
-1 -2 -8 7 0.87
-1 -2 -8 7.38 0.68
1 -2 8 7.47 0.68
1 -2 8 6.23 0.61
1 -2 8 8.18 0.81
1 2 8 7.7 0.41
1 2 8 7.55 0.42
-1 2 -8 6.96 0.64
-1 2 -8 7.77 0.43
-1 2 -8 7.3 0.97
1 2 8 7.89 0.63
1 2 8 8.36 0.73
1 2 8 7.87 0.67
-1 2 -8 8 0.38
2 -2 8 7.31 0.85
-2 -2 -8 7.54 0.72
-2 -2 -8 8.17 1.02
-2 -2 -8 7.88 0.57
2 -2 8 7.02 0.57
2 -2 8 7.27 0.68
2 2 8 7.69 0.78
2 2 8 7.72 0.68
-2 2 -8 7.66 0.49
-2 2 -8 8.76 0.71
-2 2 -8 7.64 0.33
-2 2 -8 7.81 1
2 2 8 7.66 0.5
2 2 8 5.48 0.49
2 2 8 7.29 0.41
3 -2 8 2.79 0.52
3 -2 8 3.17 0.5
-3 -2 -8 4.34 0.78
-3 -2 -8 4.07 0.61
3 -2 8 4.13 0.74
-3 -2 -8 2.63 0.42
3 2 8 3.29 0.26
-3 2 -8 4.23 0.89
3 2 8 3.22 0.49
-3 2 -8 3.05 0.48
3 2 8 3.64 0.6
3 2 8 4.01 0.43
3 2 8 3.34 0.49
-3 2 -8 4.14 0.41
4 -2 8 13.05 0.93
-4 -2 -8 12.89 0.8
-4 -2 -8 14.34 1.41
4 -2 8 13.14 1.13
4 2 8 12.79 0.8
4 2 8 12.51 0.42
-4 2 -8 12.3 0.75
4 2 8 12.87 0.91
4 2 8 12.21 0.97
-4 2 -8 12.81 1.39
4 2 8 14.12 1.11
-5 -2 -8 3.61 0.6
5 -2 8 3.91 0.67
-5 -2 -8 4.03 0.94
-5 -2 -8 3.65 0.67
-5 -2 -8 3.47 0.49
5 -2 8 3.56 0.8
5 2 8 3.46 0.59
5 2 8 2.15 0.65
5 2 8 2.73 0.57
5 2 8 4.98 0.75
-5 2 -8 4.93 1.13
-5 2 -8 3.66 0.53
6 -2 8 0.81 0.58
-6 -2 -8 0.5 0.97
-6 -2 -8 0.6 0.65
-6 -2 -8 1.87 0.52
6 -2 8 0.4 0.69
-6 -2 -8 0.78 0.53
-6 2 -8 1.46 0.98
6 2 8 1.25 0.66
-6 2 -8 1.17 0.5
6 2 8 1.04 0.57
6 2 8 0.63 0.71
-6 2 -8 1.25 0.65
-6 2 -8 1.13 0.59
-7 -2 -8 2.79 0.78
-7 -2 -8 4.41 0.84
7 -2 8 1.79 0.85
-7 -2 -8 3.45 0.68
7 -2 8 3.37 0.79
-7 -2 -8 0.76 1.1
7 2 8 4.8 0.89
7 2 8 2.3 0.96
7 2 8 2.96 0.88
-7 2 -8 3.95 0.74
7 2 8 3.96 0.71
-7 2 -8 4.85 1.36
-7 2 -8 2.69 0.8
-7 2 -8 3.02 0.78
-8 -2 -8 -1.82 0.82
-8 -2 -8 0.19 0.78
-8 -2 -8 1.33 1
8 -2 8 1.12 0.73
-8 -2 -8 0.32 1.22
8 -2 8 0.14 1.06
-8 2 -8 0.31 0.91
-8 2 -8 1.28 1.51
8 2 8 1.27 1.1
8 2 8 -0.36 0.94
8 2 8 0.43 0.61
8 2 8 2.09 0.95
-8 2 -8 0.6 0.92
-8 2 -8 1.48 0.83
-9 -2 -8 0.47 1.15
-9 -2 -8 0.76 1.06
9 -2 8 3.61 1.41
9 -2 8 3.39 0.96
-9 -2 -8 0.17 1.7
-9 -2 -8 2.52 1.07
9 2 8 3.24 1.34
9 2 8 -0.68 1.4
-9 2 -8 4.61 1.26
-9 2 -8 2.88 1.26
9 2 8 1.31 1.19
-9 2 -8 1.91 1.81
9 2 8 3.36 0.89
-9 2 -8 4.12 1.15
12 -3 -8 -0.12 0.76
12 -3 -8 0.12 0.96
12 -3 -8 -0.97 1.24
-12 3 8 -1.28 1.18
12 3 -8 2.03 1.14
12 3 -8 -1.04 1.04
12 3 -8 -0.22 0.82
12 3 -8 0.91 1.24
12 3 -8 0.86 1.08
12 3 -8 -0.67 0.98
11 -3 -8 -0.42 0.98
11 -3 -8 -0.21 0.7
11 -3 -8 0.77 1.04
11 -3 -8 0.11 0.46
11 -3 -8 0.37 0.75
11 -3 -8 -0.3 0.92
11 3 -8 0.32 0.94
11 3 -8 0.34 0.86
11 3 -8 1.23 0.65
11 3 -8 -0.75 0.93
11 3 -8 0.98 0.82
-11 3 8 1.25 0.45
-11 3 8 -0.01 0.42
-11 3 8 0.04 0.94
11 3 -8 0.63 0.79
10 -3 -8 -0.57 0.54
10 -3 -8 -0.42 0.43
10 -3 -8 0.13 0.81
10 -3 -8 1.04 0.7
-10 3 8 -0.37 0.73
10 3 -8 -0.01 0.5
10 3 -8 -0.25 0.72
10 3 -8 0.12 0.7
-10 3 8 0.06 0.55
10 3 -8 -0.73 0.66
-10 3 8 -0.41 0.49
10 3 -8 -0.37 0.73
10 3 -8 0.13 0.64
9 -3 -8 2.78 0.71
9 -3 -8 3.68 0.63
9 -3 -8 3.82 0.6
9 3 -8 3.08 0.49
9 3 -8 2.5 0.6
-9 3 8 3.3 0.51
9 3 -8 4.53 0.61
9 3 -8 4.44 0.68
9 3 -8 3.74 0.61
9 3 -8 2.47 0.6
-9 3 8 3.57 0.68
8 -3 -8 0.23 0.71
8 -3 -8 0.22 0.52
8 -3 -8 1.33 0.47
-8 -3 8 0.32 0.52
8 -3 -8 1.21 0.42
8 3 -8 1.37 0.54
8 3 -8 0.2 0.32
-8 3 8 1.02 0.44
8 3 -8 0.67 0.47
8 3 -8 0.81 0.43
8 3 -8 0.96 0.47
8 3 -8 1.37 0.54
-8 3 8 0.72 0.39
-7 -3 8 21.15 1
7 -3 -8 20.54 1.04
-7 -3 8 20.59 0.88
7 -3 -8 18.66 0.98
7 -3 -8 21.67 1.01
7 -3 -8 21.11 1.09
-7 3 8 21.11 1.03
-7 3 8 20.98 1.02
7 3 -8 20.59 0.86
-7 3 8 20.68 0.76
-7 3 8 21.46 0.95
7 3 -8 21.99 0.95
7 3 -8 20.51 0.83
7 3 -8 18.37 1.1
7 3 -8 21.79 0.98
7 3 -8 22.1 0.74
7 3 -8 19.84 0.75
7 3 -8 21.24 0.91
6 -3 -8 1.43 0.43
6 -3 -8 0.9 0.38
6 -3 -8 1.84 0.48
-6 -3 8 1.03 0.27
6 -3 -8 1.15 0.44
-6 -3 8 1.09 0.33
-6 -3 8 1.6 0.45
-6 -3 8 0.92 0.33
-6 3 8 0.91 0.28
-6 3 8 0.83 0.4
-6 3 8 1.64 0.41
6 3 -8 1.43 0.44
6 3 -8 0.96 0.35
6 3 -8 1.33 0.22
-6 3 8 0.86 0.32
-6 3 8 0.88 0.45
6 3 -8 1.41 0.36
6 3 -8 1.59 0.42
-5 -3 8 2.84 0.31
5 -3 -8 2.76 0.41
-5 -3 8 3.05 0.44
5 -3 -8 2.66 0.46
-5 -3 8 2.94 0.36
-5 -3 8 3.32 0.37
-5 -3 8 2.93 0.38
5 -3 -8 2.49 0.44
5 -3 -8 2.49 0.38
-5 3 8 3.36 0.32
5 3 -8 2.91 0.5
-5 3 8 2.88 0.42
5 3 -8 3.13 0.42
5 3 -8 3.21 0.4
5 3 -8 2.82 0.36
5 3 -8 3.62 0.44
-5 3 8 2.79 0.47
-5 3 8 3.29 0.43
-5 3 8 2.43 0.4
-4 -3 8 0.39 0.31
4 -3 -8 -0.09 0.3
-4 -3 8 0.11 0.17
-4 -3 8 0.26 0.28
4 -3 -8 0.62 0.31
4 -3 -8 0.03 0.31
-4 -3 8 0.39 0.21
4 -3 -8 0.18 0.27
-4 -3 8 0.14 0.28
4 3 -8 -0.14 0.28
-4 3 8 0.46 0.31
-4 3 8 0.06 0.3
-4 3 8 -0.08 0.25
4 3 -8 0.54 0.32
-4 3 8 0.08 0.32
4 3 -8 -0.3 0.19
4 3 -8 0.44 0.4
3 -3 -8 11.43 0.74
-3 -3 8 10.91 0.57
-3 -3 8 10.75 0.6
3 -3 -8 11.32 0.77
-3 -3 8 10.49 0.72
-3 -3 8 10.91 0.4
3 -3 -8 11.18 0.66
-3 -3 8 11.15 0.63
3 -3 -8 10.71 0.3
3 3 -8 11.37 0.59
3 3 -8 9.9 0.61
3 3 -8 11.01 0.61
-3 3 8 10.99 0.62
3 3 -8 10.61 0.86
-3 3 8 10.86 0.73
-3 3 8 10.09 0.61
-3 3 8 10.64 0.77
2 -3 -8 3.25 0.48
-2 -3 8 2.56 0.39
2 -3 -8 3 0.2
-2 -3 8 3.77 0.54
2 -3 -8 2.98 0.46
2 -3 -8 2.75 0.37
-2 -3 8 3.45 0.37
-2 -3 8 3.22 0.34
-2 3 8 2.74 0.36
2 3 -8 3.51 0.6
-2 3 8 2.17 0.41
2 3 -8 2.65 0.38
-2 3 8 3.39 0.54
2 3 -8 3.33 0.36
2 3 -8 2.64 0.34
-2 3 8 2.98 0.35
1 -3 -8 10.01 0.76
-1 -3 8 11.53 0.58
-1 -3 8 10.02 0.78
-1 -3 8 11.67 0.63
-1 -3 8 11.12 0.71
1 -3 -8 11.58 0.66
1 3 -8 12.77 0.96
1 3 -8 12 0.71
-1 3 8 11.75 0.56
-1 3 8 11.34 0.8
1 3 -8 10.71 0.52
-1 3 8 11.86 0.79
-1 3 8 11.96 0.61
0 -3 8 5.42 0.71
0 -3 8 4.72 0.45
0 -3 8 4.43 0.55
0 -3 -8 5.28 0.72
0 -3 -8 3.99 0.55
0 -3 -8 3.9 0.43
0 3 8 4.4 0.37
0 3 8 4.7 0.28
0 3 8 4.89 0.44
0 3 -8 4.45 0.55
0 3 8 4.5 0.58
0 3 8 4.82 0.64
0 3 -8 4.59 0.69
0 3 -8 4.61 0.33
0 3 -8 4.43 0.33
1 -3 8 0.92 0.41
-1 -3 -8 1.48 0.54
1 -3 8 1.02 0.31
-1 -3 -8 0.24 0.33
1 -3 8 0.73 0.36
-1 -3 -8 1.33 0.39
-1 3 -8 1.36 0.22
1 3 8 1.32 0.22
1 3 8 0.95 0.41
1 3 8 1.71 0.43
-1 3 -8 0.86 0.3
1 3 8 1.37 0.37
-1 3 -8 1.26 0.57
1 3 8 1.23 0.26
-1 3 -8 1.17 0.24
-2 -3 -8 0.26 0.32
2 -3 8 -0.09 0.39
-2 -3 -8 0.27 0.33
2 -3 8 -0.03 0.45
2 -3 8 0.5 0.37
-2 -3 -8 0.52 0.54
-2 3 -8 0.81 0.6
2 3 8 0.19 0.35
2 3 8 0.17 0.3
2 3 8 0.1 0.24
-2 3 -8 -0.04 0.24
2 3 8 0.74 0.39
-2 3 -8 -0.54 0.29
2 3 8 0.32 0.25
-2 3 -8 0.29 0.18
3 -3 8 1.75 0.53
-3 -3 -8 2.23 0.41
3 -3 8 1.62 0.44
-3 -3 -8 2.91 0.71
-3 -3 -8 1.88 0.51
3 -3 8 1.9 0.62
3 3 8 2.52 0.29
3 3 8 2.69 0.39
3 3 8 2.59 0.5
-3 3 -8 3.08 0.55
3 3 8 2.03 0.58
3 3 8 2.31 0.49
-3 3 -8 1.98 0.35
-3 3 -8 2 0.78
-4 -3 -8 0.13 0.45
-4 -3 -8 1 0.72
4 -3 8 0.83 0.62
4 -3 8 0.75 0.4
-4 -3 -8 0.35 0.47
-4 -3 -8 0.16 0.32
-4 3 -8 0.12 0.72
4 3 8 0.29 0.52
-4 3 -8 1.06 0.5
4 3 8 0.9 0.42
4 3 8 0.45 0.39
-4 3 -8 0.63 0.39
4 3 8 0.52 0.24
4 3 8 0.5 0.59
-5 -3 -8 8.01 0.73
-5 -3 -8 6.84 1.07
5 -3 8 8.06 1.13
5 -3 8 8.83 0.94
-5 -3 -8 7.59 0.54
5 3 8 7.11 0.96
5 3 8 7.34 0.43
5 3 8 8.03 0.89
-5 3 -8 7.3 0.62
-5 3 -8 8.53 1.31
5 3 8 8.19 1.12
-6 -3 -8 5.43 0.86
6 -3 8 4.06 0.72
-6 -3 -8 6 0.6
-6 -3 -8 6.97 0.82
-6 -3 -8 6.35 1.25
6 -3 8 6.53 1.13
6 3 8 6.2 0.84
6 3 8 7.2 1.02
6 3 8 5.17 0.74
-6 3 -8 6.3 1.25
-6 3 -8 5.96 0.81
-6 3 -8 5.73 0.69
-6 3 -8 6.78 1.09
-7 -3 -8 0.04 0.77
-7 -3 -8 -0.7 0.61
7 -3 8 0.46 0.58
-7 -3 -8 -0.45 0.59
-7 -3 -8 -0.13 1.07
7 -3 8 1.43 0.94
7 3 8 -0.03 0.74
-7 3 -8 -0.25 0.61
7 3 8 0.92 0.81
-7 3 -8 0.58 0.79
7 3 8 0.03 0.51
-7 3 -8 -0.98 0.71
7 3 8 -0.15 0.86
-7 3 -8 -0.95 1.11
8 -3 8 0.59 0.78
-8 -3 -8 0.34 1.06
-8 -3 -8 -0.6 0.84
-8 -3 -8 0.87 1.31
8 -3 8 -0.45 1.01
-8 -3 -8 0.28 0.79
8 3 8 -2.61 1.07
-8 3 -8 -1.37 1.01
8 3 8 -0.01 0.69
-8 3 -8 -1.2 1.48
-8 3 -8 -1.1 0.81
-8 3 -8 1.15 0.9
8 3 8 -0.02 0.93
-9 -3 -8 -1.32 1.6
9 -3 8 -1.2 0.93
-9 -3 -8 0.68 1
9 -3 8 -0.34 1.17
-9 -3 -8 2.15 1.34
-9 -3 -8 -0.27 1.07
9 3 8 0.43 1.08
-9 3 -8 0.78 1.31
9 3 8 1.03 0.85
-9 3 -8 2.78 2.07
9 3 8 -2.53 1.36
12 -4 -8 1.1 1.05
12 -4 -8 0.79 1.39
12 -4 -8 -0.09 1.02
12 -4 -8 -0.54 0.62
12 4 -8 -0.82 1.16
12 4 -8 0.4 1.26
-12 4 8 -0.74 1.25
12 4 -8 -0.1 0.97
-12 4 8 -1.37 0.54
12 4 -8 -0.37 0.83
12 4 -8 1.18 1.1
12 4 -8 -0.06 1.15
11 -4 -8 0.62 1.05
11 -4 -8 0.74 0.98
11 -4 -8 0.33 1
11 -4 -8 0.9 0.72
11 -4 -8 1.08 0.58
11 4 -8 0.48 0.95
11 4 -8 0.29 1.03
11 4 -8 0.39 0.91
-11 4 8 0.56 1
11 4 -8 2.73 1.41
11 4 -8 0.18 0.83
11 4 -8 -0.12 0.66
10 -4 -8 1 0.87
10 -4 -8 -0.08 0.76
10 -4 -8 0 0.62
10 -4 -8 1.09 0.48
10 4 -8 -0.67 0.71
10 4 -8 -0.46 0.5
-10 4 8 0.16 0.78
10 4 -8 0.16 0.73
-10 4 8 -0.23 0.57
10 4 -8 0.05 0.62
10 4 -8 -1.06 0.7
10 4 -8 -0.5 0.64
9 -4 -8 1.47 0.65
9 -4 -8 0.48 0.52
9 -4 -8 0.83 0.58
9 -4 -8 0.99 0.75
-9 4 8 0.49 0.44
9 4 -8 0.28 0.42
-9 4 8 0.5 0.53
9 4 -8 0.45 0.64
9 4 -8 0.27 0.61
9 4 -8 1.21 0.63
9 4 -8 0.42 0.55
-9 4 8 -0.07 0.67
8 -4 -8 0.42 0.41
8 -4 -8 1.08 0.61
8 -4 -8 1.18 0.54
8 -4 -8 0.39 0.88
-8 4 8 1.22 0.6
8 4 -8 -0.94 0.52
8 4 -8 0.23 0.44
-8 4 8 0.54 0.46
8 4 -8 0.69 0.36
8 4 -8 0.7 0.56
8 4 -8 0.15 0.43
8 4 -8 1.11 0.52
7 -4 -8 1.64 0.47
-7 -4 8 1.23 0.53
7 -4 -8 1 0.52
7 -4 -8 0.93 0.42
-7 4 8 1.24 0.47
7 4 -8 1.72 0.38
7 4 -8 1.61 0.3
7 4 -8 2 0.49
-7 4 8 1.45 0.43
7 4 -8 1.51 0.3
7 4 -8 1.31 0.42
7 4 -8 1.65 0.39
-7 4 8 0.19 0.52
7 4 -8 1.25 0.54
-7 4 8 1.54 0.31
6 -4 -8 20.96 1
-6 -4 8 19.78 0.79
-6 -4 8 19.71 0.98
-6 -4 8 17.22 0.89
-6 -4 8 18.99 0.77
-6 -4 8 20.04 0.78
6 -4 -8 20.36 0.93
6 -4 -8 18.54 1.11
6 -4 -8 19.88 1.03
6 4 -8 20.59 0.82
-6 4 8 20.38 0.69
-6 4 8 19.72 0.93
-6 4 8 20.71 0.98
6 4 -8 19.6 0.72
-6 4 8 20.67 0.97
6 4 -8 17.89 1.01
6 4 -8 20.48 0.96
6 4 -8 19.64 0.96
6 4 -8 19.82 0.66
-6 4 8 19.45 1.07
6 4 -8 19.63 0.89
-5 -4 8 13.77 0.64
5 -4 -8 12.59 0.91
5 -4 -8 12.93 0.8
-5 -4 8 12.35 0.6
-5 -4 8 12.63 0.63
5 -4 -8 12.28 0.7
-5 -4 8 13.14 0.79
5 -4 -8 13.02 0.84
-5 -4 8 13.52 0.76
-5 4 8 12.52 0.76
5 4 -8 12.36 0.63
-5 4 8 12.11 0.78
5 4 -8 12.88 0.66
5 4 -8 12.9 0.76
5 4 -8 14.01 0.74
-5 4 8 11.58 0.53
-5 4 8 12.25 0.88
5 4 -8 12.66 0.89
-5 4 8 13.14 0.76
-4 -4 8 6.39 0.53
-4 -4 8 5.43 0.62
4 -4 -8 6.2 0.76
-4 -4 8 5.54 0.51
4 -4 -8 6.32 0.53
-4 -4 8 4.86 0.46
-4 -4 8 6.6 0.42
4 -4 -8 5.13 0.42
4 -4 -8 6 0.67
-4 4 8 7.31 0.56
-4 4 8 6.67 0.64
-4 4 8 6.06 0.71
4 4 -8 5.85 0.5
4 4 -8 5.66 0.76
4 4 -8 5.92 0.5
4 4 -8 6.44 0.56
-4 4 8 7.26 0.53
-3 -4 8 1.33 0.32
-3 -4 8 1.58 0.35
3 -4 -8 1.43 0.39
-3 -4 8 1.73 0.23
3 -4 -8 1.53 0.16
-3 -4 8 2.2 0.44
-3 -4 8 1.53 0.31
3 -4 -8 1.64 0.43
3 -4 -8 1.33 0.28
3 -4 -8 1.07 0.39
-3 4 8 1.39 0.33
-3 4 8 1.74 0.43
-3 4 8 1.47 0.35
3 4 -8 1.69 0.33
3 4 -8 1.72 0.33
-3 4 8 1.95 0.4
3 4 -8 2.45 0.59
3 4 -8 1.44 0.34
-2 -4 8 12.14 0.67
2 -4 -8 13.17 0.43
-2 -4 8 12.74 0.63
2 -4 -8 12.85 0.7
-2 -4 8 12.84 0.73
-2 -4 8 12.67 0.85
2 -4 -8 13.53 0.88
2 -4 -8 13.55 0.89
2 4 -8 14.02 0.62
-2 4 8 13.13 0.67
2 4 -8 12.88 1
-2 4 8 12.66 0.81
-2 4 8 12.24 0.66
-2 4 8 13.7 0.86
2 4 -8 13.41 0.75
-1 -4 8 0.19 0.27
1 -4 -8 0.23 0.17
-1 -4 8 0.25 0.29
1 -4 -8 0.67 0.39
-1 -4 8 1.09 0.33
1 -4 -8 0.45 0.36
1 -4 -8 0.3 0.36
-1 -4 8 0.21 0.34
-1 4 8 0.08 0.3
-1 4 8 0.48 0.29
-1 4 8 0.2 0.3
-1 4 8 0.3 0.3
1 4 -8 0.41 0.15
1 4 -8 0.08 0.24
1 4 -8 0.62 0.46
1 4 -8 0.38 0.26
0 -4 8 6.57 0.53
0 -4 -8 5.86 0.5
0 -4 -8 5.64 0.67
0 -4 8 6.74 0.82
0 -4 8 5.7 0.6
0 -4 8 6.58 0.51
0 4 8 5.62 0.69
0 4 -8 6.13 0.46
0 4 -8 6.99 0.92
0 4 8 5.95 0.32
0 4 -8 5.42 0.59
0 4 -8 5.56 0.33
0 4 8 6.37 0.7
0 4 8 4.88 0.44
-1 -4 -8 21.03 1.29
1 -4 8 22.87 1.07
-1 -4 -8 21.99 0.94
-1 -4 -8 20.92 1.11
1 -4 8 20.42 1.26
1 -4 8 20.91 0.94
1 4 8 20.55 1.06
-1 4 -8 20.61 1.39
1 4 8 21.98 0.87
-1 4 -8 22.14 1.04
-1 4 -8 21.18 0.65
-1 4 -8 22.6 0.69
1 4 8 20.33 0.67
1 4 8 20.83 1.13
-2 -4 -8 7.41 0.79
2 -4 8 7.32 0.77
2 -4 8 8.61 1.02
-2 -4 -8 8.46 1.01
2 -4 8 6.02 0.57
2 4 8 6.21 0.7
2 4 8 7.2 0.47
-2 4 -8 6.83 0.48
2 4 8 7.12 0.82
-2 4 -8 7.05 0.41
-2 4 -8 6.81 1.03
2 4 8 7.33 0.58
-2 4 -8 6.11 0.73
3 -4 8 5.23 0.74
-3 -4 -8 3.94 0.64
-3 -4 -8 4.21 0.53
-3 -4 -8 4.19 0.81
3 -4 8 3.34 0.71
3 4 8 4.15 0.43
-3 4 -8 3.55 0.4
3 4 8 4.32 0.67
-3 4 -8 4.76 1
3 4 8 3.61 0.52
-3 4 -8 3.87 0.31
-3 4 -8 3.6 0.58
3 4 8 4.84 0.67
-4 -4 -8 0.13 0.44
4 -4 8 -1.17 0.52
-4 -4 -8 -0.21 0.3
4 -4 8 0.13 0.54
-4 -4 -8 0.39 0.72
4 4 8 0.04 0.45
-4 4 -8 -0.26 0.39
-4 4 -8 0.01 0.77
4 4 8 0.46 0.51
4 4 8 0.25 0.5
4 4 8 0.12 0.39
-4 4 -8 -0.07 0.44
-5 -4 -8 1.36 0.87
-5 -4 -8 1.27 0.58
5 -4 8 2.3 0.62
-5 -4 -8 1.37 0.39
5 -4 8 2.15 0.9
-5 4 -8 0.4 0.48
5 4 8 1.45 0.51
-5 4 -8 0.75 1
5 4 8 1.34 0.53
5 4 8 2.06 0.67
-6 -4 -8 0.49 0.47
-6 -4 -8 0.75 0.99
-6 -4 -8 0.99 0.65
6 -4 8 -0.62 0.81
6 -4 8 0.44 0.52
-6 -4 -8 0.5 0.71
-6 4 -8 0.8 0.72
-6 4 -8 0.35 0.62
-6 4 -8 0.47 0.63
6 4 8 0.57 0.52
6 4 8 0.79 0.75
-6 4 -8 -0.11 1.05
6 4 8 -0.38 0.64
7 -4 8 4.56 1.13
-7 -4 -8 -0.22 1.07
-7 -4 -8 2.6 0.64
-7 -4 -8 3.15 0.94
-7 -4 -8 2.63 0.88
7 -4 8 1.79 0.82
-7 4 -8 2.74 0.89
7 4 8 4.06 0.9
-7 4 -8 3.31 0.79
7 4 8 2.97 0.96
7 4 8 3.48 0.86
7 4 8 3.61 0.74
7 4 8 2.94 0.29
-7 4 -8 3.99 1.4
-7 4 -8 2.37 0.92
7 4 8 3.1 0.27
-8 -4 -8 -1.23 1.33
8 -4 8 0.91 0.87
-8 -4 -8 -0.38 0.75
-8 -4 -8 0.8 0.95
-8 -4 -8 -0.72 1.06
8 4 8 1.47 0.75
-8 4 -8 0.72 1.05
-8 4 -8 -0.56 1.59
8 4 8 1.89 0.91
-8 4 -8 0.45 0.88
8 4 8 1.51 0.99
8 4 8 1.07 1.12
-9 -4 -8 -2.54 0.99
-9 -4 -8 -0.44 1.38
-9 -4 -8 -0.17 1.89
-9 -4 -8 0.05 1.2
9 -4 8 1.45 0.95
9 -4 8 -0.3 1.29
-9 4 -8 1.7 1.43
-9 4 -8 -0.02 2.05
9 4 8 2.47 1.47
9 4 8 0.8 1.09
9 4 8 -1.71 0.9
12 -5 -8 0.14 1.13
12 -5 -8 -0.33 0.77
12 -5 -8 -1.16 1.44
-12 5 8 1.56 0.72
-12 5 8 -0.67 1.34
12 5 -8 -0.34 1.13
12 5 -8 1.65 1
12 5 -8 2.41 1.25
12 5 -8 0.78 1.38
12 5 -8 -2.17 0.93
12 5 -8 0.65 1.27
11 -5 -8 -0.6 1.13
11 -5 -8 -0.81 0.77
11 -5 -8 -1.62 1
11 -5 -8 -1.95 0.95
11 -5 -8 0.39 0.63
11 5 -8 0.48 0.98
11 5 -8 0.1 0.78
11 5 -8 -0.61 0.86
-11 5 8 0.59 0.79
11 5 -8 1.4 1.07
11 5 -8 0.53 0.73
-11 5 8 0.96 0.62
11 5 -8 0.36 0.97
-11 5 8 -0.42 1.03
10 -5 -8 -0.14 0.96
10 -5 -8 -0.41 0.8
10 -5 -8 0.16 0.6
10 -5 -8 0.12 0.77
-10 5 8 0.34 0.59
10 5 -8 0.25 0.79
10 5 -8 -0.42 0.54
10 5 -8 1.19 0.8
10 5 -8 0.93 0.63
10 5 -8 0.76 0.82
-10 5 8 -0.23 0.85
10 5 -8 0.78 0.64
-10 5 8 0.47 0.67
9 -5 -8 0.3 0.7
9 -5 -8 -0.21 0.79
9 -5 -8 1.12 0.71
9 -5 -8 -0.11 0.47
-9 5 8 0.28 0.6
9 5 -8 0.46 0.55
-9 5 8 2.38 0.72
9 5 -8 0.28 0.67
9 5 -8 0.39 0.65
9 5 -8 0.54 0.55
9 5 -8 0.52 0.73
9 5 -8 0.34 0.42
8 -5 -8 0.2 0.65
8 -5 -8 0.49 0.47
8 -5 -8 0.51 0.63
8 5 -8 0.72 0.43
-8 5 8 0.09 0.55
8 5 -8 0.2 0.45
8 5 -8 0.55 0.55
8 5 -8 1.1 0.38
-8 5 8 0.19 0.5
-8 5 8 0.05 0.63
8 5 -8 1.03 0.65
8 5 -8 -0.46 0.54
7 -5 -8 2.19 0.69
7 -5 -8 0.97 0.57
-7 -5 8 1.89 0.61
7 -5 -8 1.23 0.49
7 -5 -8 2.7 0.58
7 5 -8 1.98 0.32
7 5 -8 2.36 0.53
-7 5 8 1.44 0.5
7 5 -8 2.64 0.35
7 5 -8 1.64 0.4
-7 5 8 2.32 0.61
7 5 -8 1.69 0.43
7 5 -8 1.79 0.37
-7 5 8 1.48 0.27
6 -5 -8 1.13 0.51
6 -5 -8 0.17 0.46
-6 -5 8 1.72 0.43
6 -5 -8 1.92 0.54
-6 -5 8 1.35 0.38
6 -5 -8 1.7 0.57
-6 -5 8 1.52 0.56
-6 -5 8 0.94 0.35
6 5 -8 2 0.48
6 5 -8 1.21 0.28
6 5 -8 1.8 0.48
-6 5 8 1.34 0.26
6 5 -8 1.68 0.38
-6 5 8 1.48 0.54
6 5 -8 1.52 0.31
-6 5 8 1.22 0.4
-6 5 8 1.39 0.51
5 -5 -8 4.72 0.52
-5 -5 8 4.68 0.53
-5 -5 8 5.79 0.45
-5 -5 8 6.02 0.66
5 -5 -8 5.07 0.65
5 -5 -8 5.8 0.51
-5 -5 8 4.72 0.38
-5 -5 8 5.65 0.48
5 -5 -8 4.22 0.66
5 5 -8 4.7 0.68
-5 5 8 5.34 0.55
5 5 -8 5.14 0.41
-5 5 8 4.8 0.42
-5 5 8 4.81 0.71
5 5 -8 5.2 0.43
5 5 -8 4.78 0.54
5 5 -8 5.23 0.49
-5 5 8 5.69 0.68
5 5 -8 4.72 0.52
-5 5 8 5.38 0.57
-4 -5 8 5.54 0.41
4 -5 -8 6.87 0.74
-4 -5 8 5.53 0.46
4 -5 -8 6.32 0.48
-4 -5 8 4.65 0.48
-4 -5 8 5.58 0.54
4 -5 -8 4.85 0.5
4 -5 -8 6.69 0.81
-4 -5 8 5.19 0.68
4 5 -8 4.87 0.47
-4 5 8 5.61 0.64
4 5 -8 6.71 0.57
4 5 -8 5.28 0.34
-4 5 8 5.6 0.51
-4 5 8 6.19 0.76
4 5 -8 6.57 0.54
4 5 -8 5.89 0.82
-4 5 8 6.37 0.56
4 5 -8 5.99 0.52
-3 -5 8 0.89 0.36
3 -5 -8 0.63 0.41
3 -5 -8 1.63 0.45
3 -5 -8 1.37 0.41
-3 -5 8 0.58 0.39
-3 -5 8 0.85 0.3
-3 -5 8 1.64 0.33
-3 -5 8 1.36 0.25
3 -5 -8 0.98 0.18
3 -5 -8 0.8 0.29
3 5 -8 1.2 0.32
-3 5 8 0.87 0.36
-3 5 8 1.19 0.38
3 5 -8 1.34 0.51
-3 5 8 1.85 0.51
3 5 -8 0.66 0.36
-3 5 8 1.37 0.38
3 5 -8 0.91 0.32
2 -5 -8 8.05 0.79
-2 -5 8 9.38 0.68
2 -5 -8 9.82 0.87
2 -5 -8 9 0.5
2 -5 -8 10.11 0.7
-2 -5 8 10.07 0.84
-2 -5 8 8.26 0.6
-2 -5 8 9.25 0.69
2 -5 -8 9.6 0.41
2 5 -8 9.86 0.68
2 5 -8 9.8 0.62
-2 5 8 8.55 0.76
-2 5 8 9.65 0.65
2 5 -8 9.97 1
-2 5 8 8.1 0.63
-2 5 8 8.83 0.85
1 -5 -8 0.47 0.38
1 -5 -8 0.07 0.21
1 -5 -8 0.14 0.2
-1 -5 8 0.19 0.33
-1 -5 8 0.09 0.41
-1 -5 8 0.21 0.29
1 -5 -8 0.31 0.34
-1 -5 8 0.41 0.32
1 -5 -8 0.08 0.37
1 5 -8 0.44 0.3
1 5 -8 0.62 0.32
1 5 -8 0.34 0.44
1 5 -8 0.26 0.13
-1 5 8 0.31 0.32
-1 5 8 0.19 0.32
-1 5 8 0.09 0.33
0 -5 -8 0.76 0.44
0 -5 8 0.61 0.37
0 -5 8 0.17 0.37
0 -5 -8 0.22 0.24
0 -5 8 -0.32 0.4
0 -5 -8 0.6 0.41
0 -5 8 0.53 0.32
0 -5 -8 0.67 0.45
0 5 -8 0.48 0.17
0 5 -8 0.52 0.47
0 5 -8 0.55 0.3
0 5 8 0.35 0.33
0 5 8 0.21 0.35
0 5 8 1.03 0.43
0 5 -8 0.4 0.3
1 -5 8 5.85 0.55
1 -5 8 4.39 0.67
1 -5 8 6.03 0.51
1 -5 8 5.86 0.72
-1 -5 -8 5.01 0.51
-1 -5 -8 6.19 0.81
-1 5 -8 6.17 0.39
1 5 8 6.39 0.78
1 5 8 6.45 0.52
-1 5 -8 7.22 1.01
1 5 8 6.43 0.41
-1 5 -8 5.3 0.39
1 5 8 7.11 0.76
-1 5 -8 5.93 0.7
2 -5 8 4.27 0.78
-2 -5 -8 9.09 1.06
-2 -5 -8 7.17 0.9
2 -5 8 6.89 0.66
2 -5 8 5.98 0.76
-2 5 -8 5.82 0.93
2 5 8 5.6 0.5
-2 5 -8 6.51 0.47
2 5 8 5.58 0.5
2 5 8 6.6 0.78
2 5 8 7.37 0.86
-2 5 -8 5.74 0.71
-2 5 -8 6.5 0.49
-3 -5 -8 0.46 0.68
3 -5 8 0.67 0.6
3 -5 8 -0.12 0.41
-3 -5 -8 0.18 0.23
-3 -5 -8 0.12 0.41
-3 5 -8 -0.03 0.22
3 5 8 0.1 0.44
-3 5 -8 0.26 0.74
-3 5 -8 0.02 0.32
3 5 8 0.18 0.33
-3 5 -8 0.16 0.49
3 5 8 0.83 0.48
3 5 8 0.29 0.49
-4 -5 -8 0.93 0.56
-4 -5 -8 0.45 0.82
4 -5 8 2.05 0.83
4 -5 8 1.14 0.57
-4 -5 -8 1.57 0.3
-4 -5 -8 1.11 0.55
-4 5 -8 0.94 0.18
4 5 8 2.39 0.59
-4 5 -8 1.21 0.56
-4 5 -8 0.42 0.88
-4 5 -8 1.54 0.42
4 5 8 1.99 0.55
4 5 8 1.26 0.43
4 5 8 1.49 0.54
-5 -5 -8 0.93 0.92
5 -5 8 0.4 0.51
-5 -5 -8 0.7 0.59
-5 -5 -8 0.48 0.36
5 -5 8 0.67 0.78
-5 -5 -8 1.71 0.7
5 5 8 -0.22 0.55
-5 5 -8 0.65 0.49
5 5 8 1.08 0.57
-5 5 -8 1.25 0.98
5 5 8 0.59 0.51
-6 -5 -8 4.71 1.32
-6 -5 -8 7.42 0.91
-6 -5 -8 5.83 0.98
6 -5 8 6.82 0.99
-6 5 -8 6.08 0.9
6 5 8 6.83 0.8
6 5 8 7.13 0.84
-6 5 -8 5.57 0.91
6 5 8 7.07 0.97
6 5 8 5.68 0.8
-6 5 -8 6.03 1.38
-7 -5 -8 0.89 0.87
7 -5 8 0.78 0.7
-7 -5 -8 0.87 1.29
7 -5 8 -0.25 1.1
-7 -5 -8 0.03 0.87
-7 -5 -8 0.56 0.55
7 5 8 0.94 0.8
-7 5 -8 -0.01 1.43
-7 5 -8 -0.79 0.88
7 5 8 0.15 0.37
7 5 8 -0.52 0.89
7 5 8 0.98 0.69
7 5 8 0.18 0.74
-7 5 -8 -0.1 0.72
-8 -5 -8 1.44 1.5
8 -5 8 1.12 0.81
-8 -5 -8 0.39 0.74
8 -5 8 -0.58 1.18
-8 -5 -8 0.28 1.08
8 5 8 -1.11 0.97
-8 5 -8 1.08 0.95
8 5 8 1.1 0.85
8 5 8 0.05 0.35
8 5 8 -1.32 1.13
-8 5 -8 -0.43 1.12
8 5 8 0.02 0.83
-9 -5 -8 -0.51 0.97
9 -5 8 1.72 1.17
9 -5 8 4.39 1.7
-9 -5 -8 1.47 1.54
-9 5 -8 1.08 1.54
9 5 8 0.91 1.52
9 5 8 0.7 0.95
-9 5 -8 2.3 2.26
12 -6 -8 -0.94 0.85
12 -6 -8 -2.37 2.82
12 6 -8 -1.48 1.25
12 6 -8 -2.52 1.14
12 6 -8 -0.73 1.27
-12 6 8 -0.36 0.86
-12 6 8 3.51 1.51
12 6 -8 1.47 1.01
11 -6 -8 2.48 1.26
11 -6 -8 2.46 1.12
11 -6 -8 3.38 1.1
11 -6 -8 0.15 1.32
11 -6 -8 3.26 0.91
11 6 -8 3.49 0.84
11 6 -8 4.65 1.11
-11 6 8 3.94 1.16
-11 6 8 4.97 0.88
11 6 -8 4.4 1.22
11 6 -8 3.52 0.88
-11 6 8 -0.02 1
11 6 -8 2.12 1.11
11 6 -8 3.38 0.94
10 -6 -8 -0.9 1.02
10 -6 -8 1.28 0.71
10 -6 -8 -1.79 0.8
10 -6 -8 0.51 0.88
10 6 -8 -0.01 0.67
10 6 -8 0.37 0.96
10 6 -8 -0.11 0.65
-10 6 8 0.51 0.67
-10 6 8 1.42 0.86
10 6 -8 0.35 0.9
-10 6 8 0.62 0.92
10 6 -8 -1.11 0.57
10 6 -8 -1.7 0.78
9 -6 -8 -0.46 0.68
9 -6 -8 0.05 0.76
9 -6 -8 0.3 0.83
9 -6 -8 0.69 0.58
-9 6 8 0.11 0.71
-9 6 8 -0.26 0.54
9 6 -8 1.05 0.76
-9 6 8 -0.16 0.79
9 6 -8 0.37 0.72
9 6 -8 0.42 0.55
9 6 -8 0.66 0.76
9 6 -8 0.64 0.51
9 6 -8 -0.56 0.41
8 -6 -8 4.55 0.71
8 -6 -8 3.12 0.81
8 -6 -8 4 0.79
8 6 -8 6.71 0.64
-8 6 8 5.75 0.87
8 6 -8 4.84 0.52
8 6 -8 3.99 0.69
8 6 -8 4.43 0.7
-8 6 8 5.02 0.78
8 6 -8 4.94 0.51
8 6 -8 6.04 0.8
-7 -6 8 0.77 0.61
7 -6 -8 1.05 0.55
7 -6 -8 1.24 0.62
-7 -6 8 0.42 0.48
7 -6 -8 0.93 0.51
-7 -6 8 0.3 0.24
7 -6 -8 1.29 0.58
7 6 -8 0.96 0.35
7 6 -8 0.75 0.59
7 6 -8 0.76 0.3
-7 6 8 1.53 0.47
7 6 -8 0.93 0.44
-7 6 8 1.35 0.64
7 6 -8 0.98 0.4
-7 6 8 0.37 0.6
-6 -6 8 1.31 0.43
-6 -6 8 1.34 0.35
6 -6 -8 1.28 0.48
6 -6 -8 1.73 0.52
-6 -6 8 1.17 0.41
6 -6 -8 1.52 0.61
6 -6 -8 0.87 0.56
-6 -6 8 1.57 0.57
6 6 -8 1.71 0.39
-6 6 8 1.52 0.25
6 6 -8 1.82 0.53
-6 6 8 1.48 0.54
6 6 -8 1.74 0.32
6 6 -8 1.77 0.54
6 6 -8 1.44 0.28
-6 6 8 1.85 0.6
-6 6 8 1.03 0.43
5 -6 -8 1.41 0.5
5 -6 -8 0.76 0.4
5 -6 -8 0.25 0.39
-5 -6 8 0.9 0.3
-5 -6 8 0.46 0.45
-5 -6 8 1.47 0.37
-5 -6 8 0.99 0.5
-5 -6 8 0.95 0.31
5 -6 -8 0.34 0.48
-5 6 8 0.91 0.52
-5 6 8 1.65 0.49
5 6 -8 1.16 0.35
5 6 -8 0.27 0.27
5 6 -8 0.83 0.49
5 6 -8 0.8 0.22
-5 6 8 1.04 0.48
-5 6 8 1.42 0.49
5 6 -8 1.1 0.52
5 6 -8 0.81 0.43
-5 6 8 0.78 0.24
-4 -6 8 0.71 0.3
-4 -6 8 1.06 0.45
4 -6 -8 1.15 0.36
-4 -6 8 1.36 0.32
-4 -6 8 1.4 0.36
4 -6 -8 1.35 0.49
4 -6 -8 1.29 0.48
4 -6 -8 0.78 0.55
-4 -6 8 1.13 0.45
4 6 -8 1.53 0.37
-4 6 8 1.3 0.41
4 6 -8 1.87 0.6
4 6 -8 1.17 0.43
4 6 -8 1.58 0.46
4 6 -8 1.29 0.17
4 6 -8 1.13 0.33
-4 6 8 1.52 0.53
-4 6 8 0.95 0.45
-4 6 8 0.99 0.48
-3 -6 8 0.56 0.33
-3 -6 8 -0.03 0.4
-3 -6 8 0.49 0.26
3 -6 -8 0.56 0.2
-3 -6 8 0.45 0.33
3 -6 -8 0.14 0.42
3 -6 -8 0.44 0.41
3 -6 -8 0.56 0.3
3 -6 -8 0.26 0.42
-3 -6 8 0.84 0.41
3 6 -8 0.44 0.3
3 6 -8 0.56 0.09
-3 6 8 0.04 0.35
3 6 -8 0.61 0.53
-3 6 8 0.97 0.49
-3 6 8 0.5 0.42
3 6 -8 0.21 0.36
-3 6 8 0.65 0.38
-2 -6 8 0.78 0.39
2 -6 -8 0.69 0.27
-2 -6 8 0.22 0.44
2 -6 -8 0.82 0.23
-2 -6 8 0.41 0.33
2 -6 -8 0.32 0.36
2 -6 -8 0.84 0.4
-2 -6 8 0.63 0.35
2 -6 -8 -0.09 0.4
2 6 -8 0.27 0.34
-2 6 8 0.75 0.36
2 6 -8 0.55 0.29
-2 6 8 0.29 0.28
2 6 -8 0.55 0.6
-2 6 8 0.76 0.5
-1 -6 8 3.83 0.56
1 -6 -8 3.38 0.56
1 -6 -8 3.84 0.34
1 -6 -8 3.76 0.3
1 -6 -8 4.48 0.52
-1 -6 8 3.54 0.43
-1 -6 8 3.73 0.48
-1 -6 8 4.19 0.65
1 -6 -8 5.22 0.71
1 6 -8 4.42 0.78
1 6 -8 3.65 0.52
-1 6 8 4.67 0.7
-1 6 8 3.93 0.44
0 -6 8 -0.08 0.37
0 -6 8 0.18 0.36
0 -6 8 -0.14 0.41
0 -6 -8 -0.07 0.41
0 -6 8 0.27 0.48
0 -6 -8 -0.08 0.4
0 -6 -8 -0.16 0.27
0 -6 -8 0.03 0.2
0 -6 -8 0.17 0.43
0 6 -8 -0.14 0.27
0 6 -8 0.08 0.15
0 6 8 -0.42 0.34
0 6 8 0.1 0.44
0 6 8 -0.17 0.34
0 6 -8 0.21 0.67
-1 -6 -8 4.6 0.71
-1 -6 -8 5.43 0.48
-1 -6 -8 5.7 0.58
1 -6 8 5.39 0.53
1 -6 8 5.65 0.73
-1 -6 -8 4.39 0.68
1 -6 8 4.55 0.8
1 -6 8 4.92 0.59
1 6 8 3.1 0.47
1 6 8 3.88 0.62
1 6 8 5.03 0.41
-1 6 -8 4.97 0.37
-1 6 -8 4.49 0.82
1 6 8 5.46 0.5
-1 6 -8 5.12 0.69
2 -6 8 1.34 0.62
2 -6 8 0.49 0.55
-2 -6 -8 0.79 0.71
2 -6 8 0.38 0.45
2 -6 8 0.91 0.43
2 6 8 0.9 0.41
2 6 8 0.73 0.29
-2 6 -8 0.04 0.76
2 6 8 1.41 0.41
2 6 8 0.43 0.48
-2 6 -8 0.55 0.27
-2 6 -8 1.38 0.46
-3 -6 -8 0.06 0.18
3 -6 8 0.69 0.51
3 -6 8 -0.02 0.63
-3 -6 -8 0.23 0.78
3 6 8 -0.25 0.43
-3 6 -8 -0.05 0.8
-3 6 -8 -0.28 0.42
-3 6 -8 -0.03 0.28
3 6 8 0.88 0.46
3 6 8 -0.03 0.36
3 6 8 -0.49 0.51
4 -6 8 2.72 0.65
-4 -6 -8 1.5 0.85
-4 -6 -8 2.54 0.62
-4 6 -8 2.35 0.58
4 6 8 1.67 0.57
4 6 8 2.25 0.67
-4 6 -8 2.35 1.08
4 6 8 2.08 0.59
5 -6 8 3.19 0.97
-5 -6 -8 2.31 0.74
-5 -6 -8 3.76 1.12
-5 -6 -8 3.48 0.69
5 -6 8 2.45 0.71
-5 6 -8 4.14 1.27
5 6 8 3.14 0.75
5 6 8 4.12 0.76
-5 6 -8 3.16 0.74
6 -6 8 1.23 0.64
-6 -6 -8 1.34 0.85
-6 -6 -8 0.72 1.06
-6 -6 -8 0.08 0.39
-6 -6 -8 -0.73 0.76
6 -6 8 -1.54 0.87
6 6 8 0.45 0.77
6 6 8 1.56 0.67
-6 6 -8 0.49 0.71
6 6 8 1.42 0.73
6 6 8 2.43 0.75
-6 6 -8 1.28 0.85
-7 -6 -8 0.58 1.21
7 -6 8 1.8 1.29
7 -6 8 5.25 0.88
-7 -6 -8 3.53 1.02
7 -6 8 2.79 0.93
-7 -6 -8 4.38 1
7 6 8 5.26 0.98
-7 6 -8 3.78 1.69
7 6 8 5.06 0.9
-7 6 -8 3 1.05
-7 6 -8 2.76 0.88
7 6 8 4.31 0.87
7 6 8 3.6 0.9
8 -6 8 0.5 1.06
-8 -6 -8 -0.48 1.66
8 -6 8 2.42 1.49
8 -6 8 -0.26 0.9
-8 -6 -8 -1.07 0.99
-8 -6 -8 -1.53 1.2
-8 -6 -8 0.38 0.69
8 6 8 1.14 0.99
-8 6 -8 -1.17 1.26
8 6 8 -0.45 0.78
8 6 8 1.38 1.16
8 6 8 0.92 0.9
-8 6 -8 -1.1 1.9
8 6 8 -0.01 0.52
11 -7 -8 1.64 0.99
11 -7 -8 0.12 1.45
11 -7 -8 -0.11 1.16
-11 7 8 1.41 1.28
11 7 -8 -0.27 0.79
-11 7 8 0.9 1.18
11 7 -8 0.67 1.26
11 7 -8 2.09 1.17
11 7 -8 -2.46 1.21
11 7 -8 0.81 0.81
-11 7 8 0.29 0.87
11 7 -8 -0.11 0.92
10 -7 -8 0.92 0.95
10 -7 -8 0.49 0.98
10 -7 -8 -0.88 1.14
10 -7 -8 -0.19 0.77
10 7 -8 -0.05 0.63
-10 7 8 -0.49 1.02
-10 7 8 0.69 0.98
10 7 -8 -0.11 0.96
10 7 -8 0.13 0.94
10 7 -8 1.1 0.71
10 7 -8 0.83 0.63
10 7 -8 -0.28 0.92
-10 7 8 -0.35 0.75
9 -7 -8 -0.03 0.64
9 -7 -8 -0.35 0.75
9 -7 -8 0.2 0.76
9 -7 -8 -1.04 0.89
-9 7 8 -0.56 0.6
9 7 -8 0.41 0.47
9 7 -8 -0.09 0.81
-9 7 8 0.37 0.8
9 7 -8 0.23 0.55
-9 7 8 0 0.8
9 7 -8 0.26 0.75
9 7 -8 -0.49 0.53
9 7 -8 1.55 0.83
8 -7 -8 -0.22 0.78
8 -7 -8 -1.09 0.72
8 -7 -8 1.06 0.67
8 -7 -8 -0.85 0.51
8 7 -8 -0.11 0.42
-8 7 8 0.97 0.61
-8 7 8 -0.49 0.67
8 7 -8 1.38 0.64
8 7 -8 -1.08 0.72
8 7 -8 -0.2 0.74
8 7 -8 0.26 0.45
-8 7 8 1.11 0.74
7 -7 -8 0.1 0.54
-7 -7 8 0.13 0.38
7 -7 -8 0.55 0.68
7 -7 -8 0.51 0.59
7 -7 -8 0.33 0.5
-7 -7 8 -0.05 0.27
-7 -7 8 0.25 0.54
-7 -7 8 -1.05 0.61
-7 7 8 0.16 0.72
7 7 -8 0.01 0.39
7 7 -8 0.46 0.62
7 7 -8 -0.03 0.33
-7 7 8 0.01 0.64
7 7 -8 -0.13 0.47
7 7 -8 -0.01 0.33
6 -7 -8 0.66 0.53
-6 -7 8 0.21 0.59
-6 -7 8 0.15 0.33
6 -7 -8 -0.32 0.62
6 -7 -8 0.04 0.6
-6 -7 8 0.69 0.47
-6 -7 8 0.34 0.29
6 -7 -8 0.22 0.46
-6 -7 8 1.26 0.48
6 7 -8 -0.23 0.53
6 7 -8 0.24 0.25
-6 7 8 0.08 0.57
6 7 -8 0.04 0.36
6 7 -8 0.09 0.3
-6 7 8 0.39 0.2
-6 7 8 0.35 0.57
-5 -7 8 0.48 0.29
-5 -7 8 0.32 0.3
-5 -7 8 0.5 0.66
5 -7 -8 0.61 0.41
5 -7 -8 0.14 0.5
5 -7 -8 -0.09 0.54
-5 -7 8 0.71 0.41
5 -7 -8 0.58 0.62
-5 -7 8 0.13 0.47
5 7 -8 0.35 0.54
-5 7 8 0.25 0.64
-5 7 8 0.38 0.48
5 7 -8 0.34 0.18
-5 7 8 0.49 0.24
-5 7 8 0.87 0.61
5 7 -8 0.48 0.31
5 7 -8 0.39 0.49
-4 -7 8 0.76 0.32
4 -7 -8 0.85 0.43
-4 -7 8 0.37 0.48
4 -7 -8 0.72 0.53
-4 -7 8 1.05 0.5
-4 -7 8 1.51 0.4
4 -7 -8 0.11 0.57
4 -7 -8 1.11 0.37
-4 -7 8 0.95 0.37
-4 7 8 0.81 0.54
4 7 -8 0.29 0.57
4 7 -8 0.73 0.48
-4 7 8 0.82 0.45
4 7 -8 1.2 0.33
-4 7 8 0.18 0.48
3 -7 -8 4.19 0.66
-3 -7 8 6.26 0.68
-3 -7 8 5.93 0.55
3 -7 -8 5.51 0.87
3 -7 -8 6.12 0.44
3 -7 -8 5.33 0.44
3 -7 -8 5.47 0.57
-3 -7 8 4.78 0.57
-3 -7 8 6.04 0.45
-3 -7 8 4.34 0.65
3 7 -8 5.51 0.62
3 7 -8 5.93 0.92
-3 7 8 4.97 0.51
-3 7 8 6.9 0.88
-3 7 8 4.68 0.65
2 -7 -8 2.21 0.65
2 -7 -8 2.49 0.31
-2 -7 8 3.19 0.57
-2 -7 8 2.1 0.33
2 -7 -8 2.58 0.32
-2 -7 8 2.66 0.65
-2 -7 8 2.9 0.53
2 -7 -8 2.59 0.55
2 -7 -8 2.63 0.49
-2 -7 8 2.45 0.41
2 7 -8 2.79 0.5
-2 7 8 2.67 0.56
2 7 -8 3.72 0.82
-2 7 8 2.22 0.57
-2 7 8 2.87 0.45
-1 -7 8 6.81 0.75
1 -7 -8 5.79 0.8
-1 -7 8 5.18 0.55
1 -7 -8 6.03 0.58
-1 -7 8 4.56 0.48
-1 -7 8 4.29 0.78
1 -7 -8 4.66 0.32
1 -7 -8 5.07 0.5
1 -7 -8 5.7 0.81
1 7 -8 4.83 0.95
1 7 -8 4.99 0.66
-1 7 8 5.8 0.79
-1 7 8 5.65 0.76
-1 7 8 5.59 0.51
0 -7 -8 1.98 0.5
0 -7 -8 1.12 0.53
0 -7 8 1.45 0.46
0 -7 -8 0.88 0.19
0 -7 8 1.75 0.48
0 -7 -8 1.26 0.33
0 -7 -8 1.99 0.58
0 -7 8 0.24 0.47
0 -7 8 1.07 0.46
0 7 8 0.83 0.42
0 7 -8 1.31 0.63
0 7 8 1.8 0.59
0 7 -8 1.65 0.49
0 7 8 0.66 0.38
1 -7 8 6.24 0.66
-1 -7 -8 6.77 0.91
1 -7 8 5.51 1.13
-1 -7 -8 5.06 0.58
-1 -7 -8 5.03 0.51
-1 -7 -8 4.88 1.12
1 -7 8 5.43 0.55
1 -7 8 6.52 0.84
1 7 8 5.12 0.71
1 7 8 5.54 0.8
1 7 8 4.08 0.48
-1 7 -8 3.96 0.58
-1 7 -8 4.24 0.93
2 -7 8 0.78 0.89
-2 -7 -8 0.65 0.55
2 -7 8 0.83 0.54
2 -7 8 0.47 0.45
2 -7 8 -0.21 0.62
-2 -7 -8 0.43 0.46
2 7 8 0.96 0.45
-2 7 -8 1.59 0.68
2 7 8 0.97 0.35
2 7 8 1.42 0.57
-2 7 -8 1.3 0.88
-3 -7 -8 2.18 0.62
3 -7 8 2.75 0.79
-3 -7 -8 1.81 0.92
3 -7 8 2.65 0.52
3 -7 8 0.83 0.49
3 7 8 2.12 0.52
3 7 8 2.12 0.42
-3 7 -8 2.58 0.67
-3 7 -8 2.68 1.08
3 7 8 1.05 0.53
3 7 8 0.69 0.61
-4 -7 -8 3.62 1.01
-4 -7 -8 3.27 0.8
4 -7 8 4.75 0.78
4 -7 8 4.31 1.06
4 -7 8 3.52 0.62
-4 -7 -8 3.9 0.72
4 7 8 2.99 0.69
4 7 8 3.22 0.62
4 7 8 2.71 0.51
4 7 8 3.86 0.81
-4 7 -8 4.75 0.82
-5 -7 -8 -0.5 0.98
-5 -7 -8 0.49 0.72
5 -7 8 1.04 0.71
-5 -7 -8 -0.92 0.76
5 -7 8 1.64 0.98
-5 7 -8 -0.47 1.19
5 7 8 0.25 0.68
5 7 8 0.21 0.69
-5 7 -8 0.08 0.3
5 7 8 1.73 0.74
5 7 8 0.63 0.59
-5 7 -8 -0.71 0.63
6 -7 8 1.54 0.75
-6 -7 -8 -0.92 1.15
6 -7 8 0.71 0.67
-6 -7 -8 1.1 0.88
6 -7 8 0.47 0.89
-6 -7 -8 1.98 0.92
6 7 8 0.62 0.73
6 7 8 -0.03 0.81
6 7 8 -0.01 0.73
6 7 8 0.59 0.66
-6 7 -8 1.58 0.79
-6 7 -8 3.69 1.58
-6 7 -8 0.96 0.94
7 -7 8 -1.45 1.24
7 -7 8 -0.27 0.87
-7 -7 -8 0.75 1.43
-7 -7 -8 -1.24 1.04
-7 -7 -8 -0.06 1.12
7 -7 8 0.02 0.89
-7 7 -8 -0.76 0.89
-7 7 -8 -1.7 1.08
7 7 8 1.81 0.85
7 7 8 0.45 0.99
7 7 8 1.33 0.81
7 7 8 -1.75 0.82
-7 7 -8 -0.67 1.67
-8 -7 -8 -1.87 1.71
-8 -7 -8 -0.23 1.23
8 -7 8 1.6 1.15
8 -7 8 2.44 1.19
-8 -7 -8 0.14 1.42
8 -7 8 -1.01 1.43
-8 7 -8 1.15 1.43
8 7 8 1.97 1.26
8 7 8 1.81 0.97
8 7 8 1.56 0.69
-8 7 -8 3.1 2.08
8 7 8 1.28 0.96
11 -8 -8 0.81 1.71
11 -8 -8 -0.57 1.4
11 -8 -8 1.54 1.11
11 8 -8 0.53 0.97
11 8 -8 0.03 1.18
11 8 -8 0.97 0.87
-11 8 8 1.78 1.4
11 8 -8 1.96 0.78
-11 8 8 -0.86 1.17
10 -8 -8 1.68 1.26
10 -8 -8 2.24 1.08
10 -8 -8 1.7 0.91
10 -8 -8 -0.64 1.13
10 8 -8 1.1 1.07
10 8 -8 1.76 1.01
-10 8 8 2.37 1.25
10 8 -8 -0.3 0.63
10 8 -8 0.7 1.13
10 8 -8 0.97 0.61
10 8 -8 0.65 0.74
-10 8 8 0.29 0.9
-10 8 8 -0.45 1.13
9 -8 -8 1.38 1.1
9 -8 -8 -0.24 0.83
9 -8 -8 1.76 1.08
9 -8 -8 1.05 0.76
9 8 -8 0.46 0.82
-9 8 8 -0.52 0.75
9 8 -8 0.51 0.95
9 8 -8 0.28 0.94
-9 8 8 0.02 0.92
-9 8 8 0.86 0.93
9 8 -8 0.62 0.56
9 8 -8 0.49 0.5
8 -8 -8 1.05 0.79
-8 -8 8 -0.43 0.71
8 -8 -8 -0.31 0.91
8 -8 -8 0.1 0.68
8 -8 -8 -0.07 0.71
-8 8 8 -0.12 0.74
8 8 -8 -1.11 0.8
8 8 -8 1.62 0.85
8 8 -8 0.07 0.4
-8 8 8 -0.62 0.79
8 8 -8 0.17 0.43
8 8 -8 -0.2 0.63
8 8 -8 0.49 0.36
-8 8 8 0.2 0.81
7 -8 -8 2.39 0.67
7 -8 -8 2.77 0.83
7 -8 -8 2.96 0.8
-7 -8 8 2.7 0.57
-7 8 8 1.62 0.71
7 8 -8 3.84 0.66
7 8 -8 2.23 0.36
7 8 -8 1.48 0.93
-7 8 8 2.12 0.84
-7 8 8 2.36 0.7
-6 -8 8 0.04 0.34
6 -8 -8 1.59 0.69
6 -8 -8 1.08 0.9
-6 -8 8 0.97 0.7
-6 -8 8 0.84 0.53
6 -8 -8 0.93 0.62
6 -8 -8 1.41 0.72
-6 -8 8 1.57 0.6
6 8 -8 0.8 0.25
-6 8 8 1.1 0.69
6 8 -8 1.4 0.36
6 8 -8 0.42 0.61
-6 8 8 0.87 0.66
5 -8 -8 9.03 1.12
5 -8 -8 6.55 0.58
-5 -8 8 7.39 0.76
-5 -8 8 6.19 0.51
-5 -8 8 8.57 0.79
-5 -8 8 6.72 0.7
5 -8 -8 7.5 0.91
-5 8 8 5.59 0.9
5 8 -8 8.75 0.73
5 8 -8 7.33 0.9
-5 8 8 7.05 0.74
-5 8 8 7.02 0.45
4 -8 -8 1.86 0.41
-4 -8 8 1.34 0.33
4 -8 -8 1.48 0.74
4 -8 -8 1.74 0.87
-4 -8 8 1.82 0.46
-4 -8 8 2.35 0.49
4 -8 -8 1.36 0.56
4 8 -8 1.32 0.4
4 8 -8 1.67 0.54
4 8 -8 1.47 0.67
-4 8 8 0.98 0.65
3 -8 -8 3.79 0.82
3 -8 -8 4.14 0.62
-3 -8 8 6.31 0.94
3 -8 -8 4.67 0.43
3 -8 -8 4.73 0.41
-3 -8 8 5.05 0.45
-3 -8 8 4.18 0.47
-3 -8 8 5.56 0.7
3 -8 -8 5.07 0.8
-3 -8 8 4.59 0.64
-3 8 8 4.67 0.55
-3 8 8 4.58 0.77
-3 8 8 5.3 0.9
3 8 -8 5.36 0.7
3 8 -8 5.27 0.93
2 -8 -8 9.1 0.54
2 -8 -8 9.92 1.04
2 -8 -8 9.76 0.87
-2 -8 8 9.51 0.73
2 -8 -8 7.9 1
-2 -8 8 9.6 0.87
-2 -8 8 9.53 0.65
2 -8 -8 8.66 0.61
-2 -8 8 9.1 0.87
-2 -8 8 9.29 1.07
2 8 -8 10.23 1.31
-2 8 8 9.72 0.98
-2 8 8 8.67 0.79
-2 8 8 9.58 1.18
2 8 -8 9.36 0.86
1 -8 -8 -0.02 0.47
-1 -8 8 -0.06 0.39
-1 -8 8 0.46 0.43
1 -8 -8 0.29 0.21
1 -8 -8 -0.44 0.57
-1 -8 8 0.11 0.46
1 -8 -8 0.79 0.5
1 -8 -8 0.02 0.33
1 8 -8 0.72 0.78
-1 8 8 0.9 0.43
-1 8 8 -0.19 0.34
1 8 -8 0.03 0.38
-1 8 8 -0.14 0.53
0 -8 8 3.72 0.56
0 -8 8 3.59 0.54
0 -8 -8 3.26 0.57
0 -8 8 2.37 0.54
0 -8 -8 3.24 0.44
0 -8 -8 3.34 0.79
0 -8 -8 2.87 0.61
0 8 8 3.31 0.77
0 8 -8 2.77 1.22
0 8 8 2.77 0.65
0 8 -8 4.56 0.76
0 8 8 2.57 0.45
-1 -8 -8 -0.2 0.52
1 -8 8 0.37 0.58
1 -8 8 0.23 0.49
-1 -8 -8 -0.03 0.52
-1 -8 -8 0.08 0.43
1 -8 8 0.19 0.51
1 -8 8 0.62 0.51
-1 8 -8 -0.37 0.44
1 8 8 0.62 0.63
1 8 8 0.95 0.57
-1 8 -8 0.47 1.33
1 8 8 0.13 0.41
2 -8 8 0.88 0.58
-2 -8 -8 0.46 0.52
2 -8 8 0.17 0.69
-2 -8 -8 0.71 0.66
2 -8 8 -0.13 0.67
2 -8 8 0.5 0.51
2 8 8 0 0.44
-2 8 -8 0.03 0.47
-2 8 -8 0.56 0.92
2 8 8 -0.38 0.52
2 8 8 -0.14 0.42
3 -8 8 -0.42 0.53
3 -8 8 0.61 0.91
-3 -8 -8 -0.17 0.61
3 -8 8 -0.48 0.52
3 8 8 0.2 0.48
-3 8 -8 0.46 1.1
-3 8 -8 0.29 0.45
3 8 8 0.13 0.59
3 8 8 0.15 0.53
3 8 8 -0.24 0.4
4 -8 8 1.55 0.61
4 -8 8 1.58 0.61
-4 -8 -8 2.48 0.89
-4 -8 -8 2.68 1.06
4 -8 8 2.67 0.86
-4 -8 -8 1.81 0.7
-4 8 -8 1.89 1.3
4 8 8 2.35 0.6
4 8 8 2.76 0.81
4 8 8 2.25 0.65
-4 8 -8 1.27 0.59
-5 -8 -8 3.41 1.28
-5 -8 -8 4.69 0.88
5 -8 8 3.67 1.03
5 -8 8 4.63 1.02
5 -8 8 3.78 0.71
-5 -8 -8 5.92 1.12
-5 8 -8 5.04 0.97
-5 8 -8 2.14 1.42
5 8 8 3.92 0.69
5 8 8 4.55 0.96
5 8 8 3.54 0.74
5 8 8 4 0.83
-6 -8 -8 0.18 1.38
-6 -8 -8 1.42 0.95
6 -8 8 -0.44 1.33
-6 -8 -8 -0.58 1.04
6 -8 8 -0.14 0.89
6 -8 8 0.45 0.88
-6 8 -8 1.81 0.97
6 8 8 0.54 0.87
-6 8 -8 -0.03 0.34
6 8 8 1.07 0.8
6 8 8 1.3 0.77
-6 8 -8 -0.91 0.98
-6 8 -8 1.97 1.63
-6 8 -8 0.28 0.34
6 8 8 1.19 0.81
7 -8 8 -0.29 1.03
7 -8 8 0.82 0.9
-7 -8 -8 0.29 1.58
-7 -8 -8 0.81 1.29
7 -8 8 1.87 0.99
7 -8 8 1.01 1.36
-7 -8 -8 -0.01 1.22
7 8 8 0.16 0.96
-7 8 -8 1.48 1.19
7 8 8 0.03 1.01
7 8 8 2.6 1.02
-7 8 -8 1.32 1.95
7 8 8 1.35 0.89
10 -9 -8 -0.4 1.41
10 -9 -8 1.3 1.44
10 -9 -8 2.16 1
10 -9 -8 -0.4 1.29
10 9 -8 0.87 1.06
10 9 -8 0.04 0.76
-10 9 8 0.7 1.31
-10 9 8 0.9 1.31
-10 9 8 0.14 1.15
9 -9 -8 0.39 1.13
9 -9 -8 2.86 0.97
9 -9 -8 0.99 1.04
9 -9 -8 -0.81 1.15
-9 9 8 -0.85 0.85
9 9 -8 1.28 1.05
9 9 -8 0.22 1.03
-9 9 8 1.37 1.08
-9 9 8 -2.02 1.01
9 9 -8 -0.54 0.58
9 9 -8 0.42 0.88
8 -9 -8 -0.72 0.95
8 -9 -8 1.44 0.84
8 -9 -8 -0.05 1.03
-8 -9 8 0.05 0.83
8 9 -8 0.28 0.94
8 9 -8 0.59 0.42
8 9 -8 -0.05 0.97
-8 9 8 0.22 1.02
-8 9 8 0.82 0.95
8 9 -8 0.76 0.59
-8 9 8 1.53 0.87
8 9 -8 0.65 0.7
-7 -9 8 1.6 0.78
7 -9 -8 0.76 0.84
7 -9 -8 1.29 1.03
7 -9 -8 2.26 0.78
-7 -9 8 0.47 0.62
-7 9 8 0.96 0.86
7 9 -8 1.23 0.82
7 9 -8 0.57 0.39
-7 9 8 1.86 0.98
-7 9 8 0.75 0.8
7 9 -8 0.78 0.8
-6 -9 8 3.11 0.71
6 -9 -8 3.01 0.81
-6 -9 8 2.04 0.67
6 -9 -8 2.57 0.63
6 -9 -8 2.88 0.77
6 -9 -8 2.9 1.03
-6 -9 8 2.05 0.81
-6 9 8 4.18 1.01
6 9 -8 2.93 0.54
6 9 -8 3.31 0.81
-6 9 8 3.61 0.79
6 9 -8 3.99 0.83
-5 -9 8 0.84 0.55
5 -9 -8 0.24 0.64
-5 -9 8 -0.15 0.26
-5 -9 8 0.76 0.63
5 -9 -8 1.25 0.52
-5 -9 8 0.07 0.36
5 -9 -8 0.85 0.81
5 -9 -8 0.96 0.57
-5 -9 8 1.33 0.73
5 9 -8 1.05 0.42
-5 9 8 0.88 0.65
5 9 -8 -0.5 0.58
-5 9 8 0.89 0.72
5 9 -8 1.41 0.7
4 -9 -8 5.12 1.03
-4 -9 8 5.96 0.8
4 -9 -8 5.34 0.52
4 -9 -8 5.91 0.89
-4 -9 8 3.2 0.36
4 -9 -8 5.8 0.86
-4 -9 8 5.99 0.61
4 -9 -8 5.68 0.5
-4 -9 8 5.08 0.89
-4 -9 8 5.23 0.76
4 9 -8 4.2 0.87
-4 9 8 4.89 0.76
4 9 -8 4.9 0.69
-4 9 8 4.92 0.63
-4 9 8 6.57 1.02
3 -9 -8 3.89 0.43
3 -9 -8 3.52 1.19
-3 -9 8 4.11 0.53
-3 -9 8 4.01 0.67
-3 -9 8 4.85 0.45
3 -9 -8 4.73 0.68
-3 -9 8 3.56 0.89
3 -9 -8 4.01 0.73
-3 -9 8 4.4 0.63
3 -9 -8 5.17 0.48
3 9 -8 4.42 0.92
3 9 -8 5.72 0.75
-3 9 8 3.64 0.67
-3 9 8 5.1 0.67
-3 9 8 4.53 0.85
2 -9 -8 1.25 0.41
-2 -9 8 1.07 0.54
2 -9 -8 1.21 0.75
2 -9 -8 1.57 0.31
2 -9 -8 1.7 0.56
-2 -9 8 0.75 0.43
2 -9 -8 0.49 0.87
-2 -9 8 1.22 0.41
-2 -9 8 0.99 0.69
-2 9 8 1.57 0.56
2 9 -8 2.54 0.97
2 9 -8 1.11 0.43
-2 9 8 1.38 0.5
-2 9 8 0.5 0.64
1 -9 -8 0.77 0.55
1 -9 -8 0.18 0.4
-1 -9 8 0.53 0.47
1 -9 -8 1.66 0.59
-1 -9 8 0 0.52
1 -9 -8 0.1 0.66
-1 -9 8 1.09 0.51
1 9 -8 0.65 0.47
-1 9 8 0.73 0.52
-1 9 8 0.44 0.46
1 9 -8 0.17 0.9
-1 9 8 0.86 0.72
0 -9 -8 0.59 0.77
0 -9 -8 0.03 0.42
0 -9 8 0.17 0.53
0 -9 8 0.48 0.53
0 -9 -8 0.51 0.63
0 -9 8 0.44 0.56
0 -9 -8 -0.08 0.54
0 9 -8 0.15 0.53
0 9 8 0.94 0.71
0 9 -8 0.53 0.85
0 9 8 0.05 0.65
0 9 8 0.11 0.46
1 -9 8 0.5 0.56
1 -9 8 -0.09 0.73
-1 -9 -8 -0.06 0.56
-1 -9 -8 0.28 0.5
-1 -9 -8 0.39 0.6
1 -9 8 0.72 0.66
1 -9 8 -1.01 0.44
-1 9 -8 -0.16 0.58
-1 9 -8 -0.68 0.83
1 9 8 0.52 0.69
1 9 8 0.23 0.55
1 9 8 -0.47 0.44
2 -9 8 1.16 0.6
2 -9 8 0.87 0.65
2 -9 8 -0.02 0.8
2 -9 8 0.78 0.83
-2 -9 -8 0.91 0.59
-2 -9 -8 1.61 0.61
-2 9 -8 0.06 0.54
2 9 8 -0.31 0.48
-2 9 -8 1.98 1.05
2 9 8 0.57 0.48
2 9 8 0.65 0.63
3 -9 8 4.85 0.73
3 -9 8 4.05 0.84
-3 -9 -8 3.3 0.78
-3 -9 -8 3.75 0.97
-3 -9 -8 5.1 0.81
3 -9 8 1.09 0.75
-3 9 -8 3.51 0.76
3 9 8 4.13 0.81
-3 9 -8 2.52 1.16
3 9 8 3.87 0.96
3 9 8 3.23 0.59
-4 -9 -8 1.5 0.79
4 -9 8 2 1.21
-4 -9 -8 0.39 0.82
-4 -9 -8 2.53 1.16
4 -9 8 -0.28 0.64
4 -9 8 1.55 0.74
4 9 8 1.18 0.59
4 9 8 1.33 0.57
-4 9 -8 1.49 1.36
-4 9 -8 0.33 0.68
4 9 8 1.1 0.79
4 9 8 0.8 0.86
5 -9 8 0.89 0.75
-5 -9 -8 -1.38 1.23
5 -9 8 0.58 0.75
-5 -9 -8 0.76 0.94
-5 -9 -8 0.18 0.94
5 -9 8 -0.15 1.27
-5 9 -8 -0.29 0.84
5 9 8 0.11 0.81
5 9 8 0.55 0.72
5 9 8 0.04 0.66
-5 9 -8 -0.04 1.49
-5 9 -8 1.04 0.98
5 9 8 1.34 0.78
-6 -9 -8 -0.52 1.44
6 -9 8 4.2 1.41
-6 -9 -8 -0.2 1.07
6 -9 8 2.31 0.88
-6 -9 -8 0.65 1.16
-6 9 -8 3.42 1.95
-6 9 -8 1.61 1.14
6 9 8 2.55 0.89
-6 9 -8 0.65 1.17
6 9 8 3.08 1.01
6 9 8 0.87 0.86
6 9 8 3.74 0.88
7 -9 8 0.63 0.93
7 -9 8 -1.32 1.58
7 -9 8 2.16 1.03
-7 -9 -8 -0.31 1.8
7 -9 8 2.32 1.24
-7 -9 -8 0.3 1.36
7 9 8 -0.36 1.06
-7 9 -8 2.94 2.23
7 9 8 -1.2 1
7 9 8 -1.35 1.08
-7 9 -8 1.12 1.4
10 10 -8 -0.15 1.19
9 -10 -8 1.22 1.39
9 -10 -8 1.14 0.94
9 -10 -8 1.84 1.46
-9 -10 8 0.12 1.19
9 10 -8 1.69 1
-9 10 8 -0.26 1.36
-9 10 8 -0.83 1.27
-8 -10 8 2.06 1.05
8 -10 -8 -1.78 1.27
8 -10 -8 0.4 0.87
8 -10 -8 0.35 1.11
-8 -10 8 0.48 0.45
8 10 -8 0.27 0.67
8 10 -8 -0.06 0.82
-8 10 8 -1.42 0.83
-8 10 8 -0.67 1.25
-8 10 8 0.53 1.11
8 10 -8 -0.47 1.02
8 10 -8 0.68 0.49
8 10 -8 0.09 1.06
7 -10 -8 -0.32 0.94
7 -10 -8 0.22 0.81
-7 -10 8 2.42 0.93
7 -10 -8 2.11 0.87
7 -10 -8 1.94 1.05
-7 10 8 2.66 0.94
7 10 -8 1.49 0.94
-7 10 8 1.93 0.93
7 10 -8 1.49 0.98
-7 10 8 1.55 1.17
7 10 -8 2.59 0.89
7 10 -8 1.71 0.52
6 -10 -8 2.27 0.92
6 -10 -8 1.03 0.7
-6 -10 8 0.5 0.47
6 -10 -8 1.83 0.82
-6 -10 8 0.77 0.75
6 -10 -8 2.68 0.89
6 10 -8 0.76 0.47
6 10 -8 0.71 0.79
6 10 -8 2.69 0.85
-6 10 8 0.78 0.85
-6 10 8 -0.13 1
-6 10 8 1.36 0.75
6 10 -8 0.71 0.82
5 -10 -8 3.5 0.83
5 -10 -8 4.18 0.63
5 -10 -8 4.04 0.84
-5 -10 8 3.39 0.69
-5 -10 8 1.62 0.85
5 -10 -8 6.2 1.18
5 10 -8 4.15 0.78
5 10 -8 3.36 0.94
-5 10 8 4.53 0.91
5 10 -8 2.83 0.61
-4 -10 8 -0.06 0.29
-4 -10 8 0.59 0.76
-4 -10 8 0.48 0.75
-4 -10 8 0.29 0.49
4 -10 -8 -1.23 0.63
-4 -10 8 1.55 0.59
4 -10 -8 -0.6 0.79
4 -10 -8 -0.46 0.69
4 -10 -8 0.19 0.43
4 10 -8 -0.08 0.49
-4 10 8 0.2 0.75
-4 10 8 1.15 0.77
4 10 -8 0.78 0.69
4 10 -8 0.64 0.83
-3 -10 8 6.51 0.67
3 -10 -8 5.07 0.77
3 -10 -8 5.82 1.1
-3 -10 8 5.51 0.82
3 -10 -8 7.1 1.01
-3 -10 8 3.45 0.97
3 -10 -8 5.55 0.57
-3 -10 8 5.14 0.83
-3 10 8 6.55 0.71
-3 10 8 5.05 0.83
-3 10 8 5.13 0.95
3 10 -8 5.15 0.75
3 10 -8 5.8 1.14
2 -10 -8 2.63 0.51
2 -10 -8 3.4 0.85
-2 -10 8 2.77 0.52
2 -10 -8 2.42 0.64
2 -10 -8 4.19 0.99
-2 -10 8 2.73 0.56
-2 -10 8 4.26 0.97
-2 -10 8 3.19 0.72
-2 -10 8 3.39 0.63
2 10 -8 1.66 0.99
-2 10 8 2.89 0.9
-2 10 8 3.22 0.83
-2 10 8 0.89 0.55
2 10 -8 2.76 0.65
1 -10 -8 2.89 0.74
-1 -10 8 1.94 0.69
-1 -10 8 2.79 0.58
1 -10 -8 3.14 0.9
1 -10 -8 1.89 0.5
-1 -10 8 3.67 0.69
1 -10 -8 2.21 0.65
-1 10 8 1.41 0.53
-1 10 8 2.19 0.69
1 10 -8 2.27 0.65
-1 10 8 3.31 1
1 10 -8 3.01 0.96
0 -10 8 3.43 0.66
0 -10 -8 3.41 0.69
0 -10 -8 2.28 0.84
0 -10 8 4 0.72
0 -10 -8 4.18 0.62
0 10 -8 3.99 1.19
0 10 8 2.21 0.74
0 10 8 3.93 0.8
0 10 8 3.47 0.55
-1 -10 -8 0.68 0.77
-1 -10 -8 1.11 0.61
1 -10 8 1.79 0.7
1 -10 8 2.52 0.74
-1 -10 -8 -0.51 0.84
-1 -10 -8 0.59 0.65
1 -10 8 1.1 0.66
1 -10 8 1.84 1.02
1 10 8 1.53 0.75
1 10 8 1.29 0.51
-1 10 -8 1.98 1.14
-1 10 -8 1.89 0.64
1 10 8 1.98 0.8
2 -10 8 0.36 0.59
2 -10 8 1.27 1.1
2 -10 8 1.32 0.65
2 -10 8 1.38 0.9
-2 -10 -8 1.79 0.72
-2 -10 -8 2.16 0.76
2 10 8 1.1 0.81
-2 10 -8 0.7 1.19
2 10 8 1.25 0.55
-2 10 -8 1.49 0.63
-3 -10 -8 0.21 0.96
-3 -10 -8 0.45 0.84
-3 -10 -8 -0.41 0.78
3 -10 8 0.74 0.66
3 -10 8 1.2 0.69
-3 -10 -8 0.57 0.8
3 -10 8 0.56 1.07
3 10 8 0.91 0.58
-3 10 -8 0.93 1.31
3 10 8 0.66 0.85
3 10 8 0.76 0.75
4 -10 8 -1.07 0.75
4 -10 8 -0.25 1.4
-4 -10 -8 0.4 1.33
-4 -10 -8 -1.25 0.98
4 -10 8 1.42 0.74
-4 -10 -8 1.17 0.96
4 10 8 1.49 0.76
4 10 8 0.08 0.65
-4 10 -8 1.74 1.53
4 10 8 1.52 0.9
-4 10 -8 -0.55 0.75
5 -10 8 0.92 1.48
-5 -10 -8 -0.1 1.49
-5 -10 -8 1.21 1.03
-5 -10 -8 0.64 1.19
5 -10 8 1.02 1.05
-5 10 -8 -0.58 1.05
-5 10 -8 0.19 1.04
5 10 8 1.78 0.85
5 10 8 -0.39 0.74
-5 10 -8 1.25 1.74
5 10 8 0.22 0.9
5 10 8 -0.08 0.71
6 -10 8 1.13 0.97
6 -10 8 0.05 1.53
6 -10 8 -0.56 1.04
-6 -10 -8 -0.26 1.72
-6 -10 -8 0.52 1.27
-6 10 -8 1.98 2.23
-6 10 -8 -0.84 1.3
6 10 8 0.48 0.99
6 10 8 0.74 1
6 10 8 1.35 1.01
6 10 8 1.25 0.88
9 -11 -8 -0.19 1.57
9 -11 -8 2.62 1.4
-9 -11 8 -0.51 1.41
9 -11 -8 -3.07 1.66
-9 11 8 -1.07 1.48
9 11 -8 0.52 1.12
-9 11 8 -2.77 1.64
8 -11 -8 1.85 1.4
-8 -11 8 0.12 0.59
-8 -11 8 0.25 0.84
-8 -11 8 0.59 1.17
8 -11 -8 3.53 1.32
8 -11 -8 1.33 1.09
-8 11 8 0.72 1.28
8 11 -8 0.32 0.87
8 11 -8 1.54 0.59
8 11 -8 0.16 0.8
-8 11 8 -0.65 1.43
7 -11 -8 -1.24 1.25
-7 -11 8 0.32 0.56
7 -11 -8 -2.42 1.07
-7 -11 8 -1.17 0.82
-7 -11 8 -0.01 1.02
7 -11 -8 1.37 0.98
-7 11 8 0.24 1.19
7 11 -8 1.76 1.08
7 11 -8 -0.71 1.03
-7 11 8 -1.12 1.1
7 11 -8 0.53 0.93
-7 11 8 -0.75 0.96
7 11 -8 -0.43 0.52
6 -11 -8 0.76 0.92
6 -11 -8 -1.07 0.88
-6 -11 8 1.53 0.9
6 -11 -8 2.04 0.99
-6 -11 8 0.19 0.51
-6 -11 8 0.62 0.85
-6 11 8 1.34 1.03
6 11 -8 1.79 0.96
-6 11 8 0.72 1.3
6 11 -8 1.41 0.6
-6 11 8 0.34 0.98
6 11 -8 2.18 1
-5 -11 8 1.02 0.75
5 -11 -8 0.65 0.8
-5 -11 8 0.47 0.57
5 -11 -8 1.18 0.87
5 -11 -8 2.87 1.14
-5 -11 8 2.27 0.94
5 11 -8 0.68 0.6
-5 11 8 1.99 0.88
-5 11 8 -0.14 0.99
5 11 -8 -0.43 0.88
5 11 -8 0.18 0.82
-4 -11 8 1.67 0.7
-4 -11 8 2.55 1.02
4 -11 -8 0.33 0.85
-4 -11 8 0.48 0.54
4 -11 -8 1.48 0.55
4 -11 -8 0.38 1.04
4 -11 -8 -0.24 0.74
-4 -11 8 1.8 0.87
4 11 -8 1.18 0.84
4 11 -8 1.55 0.63
-4 11 8 0.02 0.99
-4 11 8 1.62 0.87
4 11 -8 1.58 0.98
-4 11 8 0.52 0.43
3 -11 -8 -0.4 0.9
-3 -11 8 0.47 0.81
-3 -11 8 -0.01 0.57
3 -11 -8 0.16 0.74
3 -11 -8 0.04 0.5
3 -11 -8 1.06 0.86
-3 -11 8 -0.46 0.56
-3 -11 8 -0.14 0.8
-3 -11 8 -0.41 0.37
3 11 -8 -0.21 1.02
-3 11 8 0.53 0.72
-3 11 8 0.49 0.86
3 11 -8 -0.35 0.53
-2 -11 8 -0.2 0.49
2 -11 -8 -0.44 0.52
2 -11 -8 -0.25 0.88
-2 -11 8 0.31 0.79
2 -11 -8 1.37 0.83
-2 -11 8 -1.58 0.75
2 -11 -8 -0.61 0.67
-2 -11 8 -0.22 0.58
-2 -11 8 0.06 0.56
-2 11 8 0.37 0.59
-2 11 8 -0.35 0.63
2 11 -8 0.88 1.03
-2 11 8 -0.7 0.93
2 11 -8 -0.95 0.59
-1 -11 8 -0.62 0.6
-1 -11 8 0.84 0.72
1 -11 -8 0.6 0.74
1 -11 -8 -0.04 0.71
1 -11 -8 -0.13 0.87
-1 -11 8 -0.29 0.89
-1 -11 8 0.08 0.61
-1 11 8 -1.45 0.55
1 11 -8 -0.68 0.63
1 11 -8 -0.96 1.05
-1 11 8 0.32 0.73
-1 11 8 1.4 0.88
0 -11 8 0.87 0.73
0 -11 -8 -0.2 1
0 -11 -8 0.83 0.74
0 -11 8 -0.7 0.83
0 -11 -8 0.48 0.64
0 -11 8 1.66 0.75
0 -11 -8 0.9 0.83
0 11 8 -0.25 0.75
0 11 -8 0.94 0.68
0 11 8 1.39 0.58
0 11 8 0.32 0.73
0 11 -8 0.64 1.16
-1 -11 -8 -0.05 0.97
-1 -11 -8 0.32 0.83
1 -11 8 0.38 0.82
1 -11 8 0.22 0.59
-1 -11 -8 -0.34 0.68
1 -11 8 1.66 1.09
1 -11 8 -0.36 0.72
-1 -11 -8 -0.01 0.72
1 11 8 0.84 0.76
-1 11 -8 1.08 0.7
1 11 8 0.46 0.55
-1 11 -8 -0.9 1.15
1 11 8 -1.25 0.8
-2 -11 -8 2.81 1.02
2 -11 8 4.3 1.33
2 -11 8 1.7 0.78
2 -11 8 2.55 1.07
-2 -11 -8 0.58 0.79
-2 -11 -8 1.15 1.05
2 -11 8 1.83 0.74
2 11 8 1.91 0.92
2 11 8 0.61 0.79
2 11 8 2.19 0.62
-2 11 -8 3.08 1.52
-2 11 -8 1.5 0.72
-3 -11 -8 0.3 0.93
-3 -11 -8 1.39 0.91
3 -11 8 2.94 1.38
3 -11 8 1.96 0.95
3 -11 8 3.12 0.96
-3 -11 -8 -0.75 1.04
-3 -11 -8 2.32 1.18
-3 11 -8 0.43 1.63
3 11 8 -0.2 0.94
3 11 8 1.27 0.62
-3 11 -8 1.64 0.89
3 11 8 2.48 1.02
-4 -11 -8 -0.42 1.16
-4 -11 -8 0.28 1.06
4 -11 8 -0.5 0.96
4 -11 8 0.36 1
-4 -11 -8 1.23 1.1
4 -11 8 -1.67 1.42
4 11 8 1.31 1.06
-4 11 -8 1.32 1.87
4 11 8 1.39 0.7
4 11 8 1.73 1.12
-4 11 -8 -0.3 0.83
5 -11 8 -1 1.86
5 -11 8 1.5 1.12
-5 -11 -8 2.76 1.72
-5 -11 -8 -0.99 1.18
5 -11 8 -0.31 0.93
-5 11 -8 3.42 2.16
-5 11 -8 0.23 1.27
5 11 8 0.83 1.26
5 11 8 0.9 0.8
5 11 8 3.11 1.23
-8 -12 8 -0.37 0.96
8 -12 -8 1.87 1.64
-8 -12 8 -0.59 1.36
8 -12 -8 -1.06 1.55
8 -12 -8 -0.81 1.5
8 12 -8 -0.38 1.02
-8 12 8 -0.82 1.5
-8 12 8 -0.11 1.73
8 12 -8 -0.63 1.01
-7 -12 8 -1.48 0.68
7 -12 -8 2.98 1.19
7 -12 -8 -0.6 1.61
7 -12 -8 2.14 1.34
-7 -12 8 0.38 1.1
-7 -12 8 0.26 1.19
-7 12 8 0.18 1.59
7 12 -8 0.64 1.01
7 12 -8 -1.21 0.67
-7 12 8 0.37 1.27
6 -12 -8 -1.04 1.02
-6 -12 8 1.08 1.05
-6 -12 8 1.14 1.08
6 -12 -8 -0.01 1.14
6 -12 -8 0.13 1.15
-6 -12 8 0.43 0.68
6 12 -8 0.12 1.17
6 12 -8 0.03 0.69
-6 12 8 -0.29 1.16
-6 12 8 -1 1.19
-6 12 8 0.2 1.44
6 12 -8 1.26 1.11
5 -12 -8 1.24 1.03
5 -12 -8 0.57 0.63
-5 -12 8 1.05 0.89
5 -12 -8 -0.09 1.09
5 -12 -8 1.75 1.02
-5 -12 8 0.12 1.07
-5 -12 8 0.57 0.66
-5 12 8 0.77 1.04
5 12 -8 0.3 1.03
5 12 -8 0.46 0.65
5 12 -8 1.58 1.1
-5 12 8 1.75 1.19
-4 -12 8 1.61 1.13
4 -12 -8 1.08 0.61
4 -12 -8 -1.01 0.97
4 -12 -8 -0.09 0.93
-4 -12 8 1 0.83
4 -12 -8 0.2 1.27
-4 -12 8 0.79 0.68
-4 12 8 0.22 1.09
4 12 -8 -0.1 0.93
-4 12 8 -0.35 0.47
4 12 -8 0.16 1.14
4 12 -8 1.04 0.69
-4 12 8 1.96 0.97
-3 -12 8 1.78 0.73
3 -12 -8 0.65 0.86
-3 -12 8 0.35 0.97
-3 -12 8 -0.15 0.34
-3 -12 8 0.27 0.93
-3 -12 8 -1.11 0.68
3 -12 -8 2.81 1.05
3 -12 -8 0.17 1.13
3 -12 -8 -0.37 0.62
-3 12 8 0.26 0.9
3 12 -8 -0.32 1.13
3 12 -8 1.78 0.78
-3 12 8 0.3 0.59
-3 12 8 -0.08 1.12
2 -12 -8 -0.3 0.83
2 -12 -8 1.72 0.69
-2 -12 8 0.02 1.08
2 -12 -8 0.36 1.09
-2 -12 8 1.38 0.69
2 -12 -8 -0.27 0.87
-2 -12 8 -0.49 0.88
-2 -12 8 0.45 0.7
-2 -12 8 -0.01 0.54
2 12 -8 2.15 0.86
-2 12 8 0.12 1.12
-2 12 8 1.51 0.96
2 12 -8 0.54 1.12
-1 -12 8 -0.14 1.02
-1 -12 8 0.29 0.68
1 -12 -8 1.99 0.84
-1 -12 8 2.66 0.94
-1 -12 8 1.32 0.69
1 -12 -8 1.65 0.71
1 -12 -8 0.95 1.07
1 -12 -8 2.68 1.02
-1 -12 8 0.36 0.73
-1 12 8 1.34 0.88
1 12 -8 1.73 0.78
1 12 -8 3.38 1.33
-1 12 8 1.64 0.69
-1 12 8 2.48 1.16
0 -12 8 1.06 0.87
0 -12 -8 0.34 0.74
0 -12 -8 0.54 1.15
0 -12 -8 1.05 0.84
0 -12 -8 0.84 0.88
0 -12 8 -1.24 1.14
0 -12 8 -0.63 0.81
0 -12 8 0.97 0.89
0 12 8 -0.13 0.62
0 12 -8 0.51 1.38
0 12 -8 0.94 0.74
0 12 8 2.22 0.78
0 12 8 -0.2 0.91
1 -12 8 0.08 1.12
-1 -12 -8 1.12 0.99
-1 -12 -8 -1.76 1.17
1 -12 8 -0.06 1.1
-1 -12 -8 0.34 0.83
1 -12 8 1.03 0.76
1 -12 8 0.48 0.82
-1 -12 -8 -0.5 0.8
-1 12 -8 -1.01 0.73
-1 12 -8 1.51 1.4
1 12 8 1.46 0.65
1 12 8 2.04 0.94
1 12 8 0.5 1.1
-2 -12 -8 -0.47 0.97
2 -12 8 1.07 0.88
2 -12 8 0.91 1.18
-2 -12 -8 0.6 0.95
2 -12 8 1.45 1.12
-2 -12 -8 0.1 0.92
-2 -12 -8 -0.94 1.16
-2 12 -8 1.97 1.52
2 12 8 0.28 0.67
2 12 8 -1.37 1.02
2 12 8 0.42 1.06
-2 12 -8 2.68 1.03
3 -12 8 -0.09 0.92
-3 -12 -8 -1.99 1.04
-3 -12 -8 -0.3 1.09
3 -12 8 -2.35 1.52
3 -12 8 -0.61 0.93
-3 -12 -8 -1.14 1.3
-3 -12 -8 -0.72 1.03
3 12 8 -0.93 1.05
-3 12 -8 -0.97 1.62
-3 12 -8 1.75 1.16
3 12 8 0.69 0.69
3 12 8 -0.46 0.94
-4 -12 -8 0.14 1.22
-4 -12 -8 -0.85 1.3
4 -12 8 -0.42 1.26
4 -12 8 -0.91 0.97
4 -12 8 -0.77 1.38
4 12 8 -1.98 1.22
-4 12 -8 -3.02 1.17
4 12 8 -0.43 0.99
4 12 8 0.6 0.75
-4 12 -8 -0.35 2.03
-4 12 -8 1.21 1.24
-6 -13 8 1.64 1.25
6 -13 -8 -0.28 1.26
6 -13 -8 1.01 1.33
-6 -13 8 -0.16 0.97
-6 -13 8 2.34 1.38
6 -13 -8 -0.85 1.7
6 13 -8 -0.2 1.35
6 13 -8 -1.06 0.85
-6 13 8 -1.39 1.26
-6 13 8 -2.12 1.68
-5 -13 8 1.89 1.15
-5 -13 8 -1.23 0.79
5 -13 -8 -1.67 1.14
5 -13 -8 1.06 0.82
5 -13 -8 -0.29 1.24
5 -13 -8 -3.11 1.44
-5 -13 8 2.4 1.42
-5 13 8 -0.35 1.46
5 13 -8 1.86 1.35
5 13 -8 -0.61 0.77
-5 13 8 1.38 1.84
5 13 -8 -0.48 1.21
-4 -13 8 3.92 1.37
4 -13 -8 0.15 1.55
4 -13 -8 0.63 0.76
4 -13 -8 1.52 1.07
4 -13 -8 -2.06 1.11
-4 -13 8 -0.33 0.78
-4 -13 8 1.19 1
4 13 -8 2.02 1.15
-4 13 8 -0.19 0.54
-4 13 8 -1.93 1.2
-4 13 8 3.66 1.15
4 13 -8 0.73 0.8
4 13 -8 1.43 1.28
3 -13 -8 0.62 0.78
-3 -13 8 -1.45 1.16
-3 -13 8 -0.66 0.75
3 -13 -8 1.56 1.19
3 -13 -8 1.77 1.28
3 -13 -8 -0.3 1.01
-3 -13 8 0.41 0.92
-3 13 8 0.02 0.7
-3 13 8 2.95 1.15
3 13 -8 1.51 0.95
3 13 -8 -1.57 1.3
-3 13 8 -0.13 1.32
-2 -13 8 1.51 1.05
-2 -13 8 -0.05 1.2
2 -13 -8 4.48 1.21
-2 -13 8 2.91 0.9
-2 -13 8 1.74 0.98
-2 -13 8 -0.09 0.57
2 -13 -8 3.74 1.57
2 -13 -8 1.17 1
2 -13 -8 3.08 0.85
-2 13 8 2.08 1.16
2 13 -8 2.45 0.96
2 13 -8 2.01 1.4
-2 13 8 -0.24 0.8
-2 13 8 0.7 1.41
1 -13 -8 0.15 1.09
1 -13 -8 -1.41 1.28
1 -13 -8 2.94 1.95
-1 -13 8 -2.34 1.28
-1 -13 8 -1.29 0.8
-1 -13 8 -0.34 0.75
-1 -13 8 -1.14 0.86
1 -13 -8 -1.82 0.8
-1 -13 8 0.04 1.01
1 13 -8 -0.27 0.95
-1 13 8 1.97 0.91
-1 13 8 -1.37 1.26
-1 13 8 -0.09 0.98
1 13 -8 -0.4 1.46
0 -13 -8 0.74 0.89
0 -13 -8 0.77 1.07
0 -13 8 0.21 0.96
0 -13 8 0.13 0.99
0 -13 8 0.1 1.37
0 -13 8 1.02 0.81
0 -13 -8 -2.3 1.35
0 -13 -8 -0.27 0.96
0 13 8 0.05 1.17
0 13 -8 1.98 1.01
0 13 -8 0.38 1.49
0 13 8 -0.19 1.16
-1 -13 -8 0.73 1.47
-1 -13 -8 -1.12 0.97
1 -13 8 0.89 1.15
1 -13 8 1.03 1.11
-1 -13 -8 -1.07 0.96
1 -13 8 -1.09 1.41
-1 -13 -8 0.03 1.19
1 -13 8 -0.26 0.99
-1 13 -8 -0.44 1.63
1 13 8 -0.06 0.7
-1 13 -8 -1.74 0.93
1 13 8 0.29 1.1
1 13 8 0.39 1.19
2 -13 8 -0.73 0.95
-2 -13 -8 -0.09 1.15
-2 -13 -8 1.88 1.12
2 -13 8 0.51 1.07
2 -13 8 -0.27 1.39
2 -13 8 -1.58 2.46
-2 -13 -8 0.69 1.13
-2 13 -8 1.73 1.22
-2 13 -8 -1.99 1.81
2 13 8 -0.16 0.74
2 13 8 1.82 1.18
-3 -13 -8 0.84 1.18
3 -13 8 -0.17 1.09
-3 -13 -8 -0.02 1.28
3 -13 8 1.61 1.13
3 -13 8 1.06 1.71
-3 -13 -8 -0.36 1.29
3 13 8 0.07 0.75
3 13 8 0.92 1.48
-3 13 -8 0.89 1.27
-3 13 -8 -0.53 1.81
5 -14 -8 0.54 1.45
-5 -14 8 0.53 1.31
5 -14 -8 0.6 0.98
5 -14 -8 4.29 2.19
5 -14 -8 0.19 1.42
5 14 -8 2.12 1.67
-5 14 8 0.16 1.8
5 14 -8 0.06 1.31
-4 -14 8 0.58 1
4 -14 -8 -0.2 1.31
4 -14 -8 -0.6 1.61
-4 -14 8 -1.75 1.2
4 -14 -8 -1.35 0.92
4 -14 -8 1.97 1.43
4 14 -8 1.15 1.55
-4 14 8 0.19 1.54
4 14 -8 -1.55 1.07
4 14 -8 1.67 2.23
3 -14 -8 0.77 1.01
3 -14 -8 -2.95 1.7
-3 -14 8 -1.22 0.9
3 -14 -8 -0.77 1.38
-3 -14 8 0.13 1.12
3 -14 -8 0.67 1.21
-3 14 8 -0.38 1.41
3 14 -8 0.45 1.1
3 14 -8 0.68 1.57
-3 14 8 1.1 1.5
-3 14 8 1.14 0.81
2 -14 -8 2.13 1.31
2 -14 -8 1.26 1.23
-2 -14 8 1.06 1.05
2 -14 -8 -0.02 1.02
-2 -14 8 2.19 0.96
2 14 -8 -0.19 1.07
2 14 -8 0.14 1.45
-2 14 8 -1.67 1.36
-2 14 8 -1.99 1.32
1 -14 -8 1.43 1.35
-1 -14 8 0.27 1.03
1 -14 -8 -0.54 1.01
1 -14 -8 0.04 1.13
-1 -14 8 0.27 1.18
-1 -14 8 -0.02 0.83
-1 -14 8 0.73 1.01
1 14 -8 -0.09 1.66
-1 14 8 0.01 1.61
-1 14 8 2.98 1.4
1 14 -8 -0.23 1.13
0 -14 -8 2.49 1.31
0 -14 8 1.75 1.06
0 -14 8 0.11 1.16
0 -14 8 2.68 1.07
0 -14 -8 -0.17 1.13
0 -14 8 0.26 0.98
0 -14 -8 -0.32 1.08
0 14 -8 0.77 1.19
0 14 8 2.58 1.25
0 14 8 1.35 1.42
0 14 -8 -0.04 1.88
0 14 8 1.62 1.36
-1 -14 -8 -1.08 1.13
1 -14 8 -2.86 1.17
-1 -14 -8 1.4 1.52
1 -14 8 0.54 1.19
1 -14 8 1.04 1.33
1 14 8 1.27 1.41
1 14 8 -0.65 1.37
-1 14 -8 -0.9 1.17
1 14 8 -0.19 1.59
-1 14 -8 1.08 2.01
12 0 -9 1.69 0.83
12 0 -9 2.6 1.18
12 0 -9 -1.4 1.16
12 0 -9 -0.58 1.12
12 0 -9 1.05 1.09
12 0 -9 1.98 0.86
11 0 -9 1.55 0.68
11 0 -9 0.4 0.9
11 0 -9 -0.34 0.6
11 0 -9 0.47 0.87
11 0 -9 -0.01 0.86
11 0 -9 0.81 1.03
10 0 -9 0.19 0.78
10 0 -9 0.55 0.72
10 0 -9 0.03 0.77
10 0 -9 -0.35 0.49
10 0 -9 1.12 0.54
-10 0 9 -0.23 0.79
10 0 -9 -0.08 0.73
9 0 -9 0.17 0.41
9 0 -9 -1.03 0.66
9 0 -9 0.11 0.37
9 0 -9 -0.01 0.45
-9 0 9 -0.22 0.64
9 0 -9 0.36 0.69
8 0 -9 -0.03 0.42
-8 0 9 -0.13 0.24
8 0 -9 -0.81 0.5
8 0 -9 0.28 0.27
8 0 -9 0.14 0.45
-8 0 9 -0.26 0.22
-8 0 9 0.49 0.68
-8 0 9 -0.66 0.45
8 0 -9 -0.89 0.55
7 0 -9 -0.25 0.29
-7 0 9 -0.15 0.46
-7 0 9 0.12 0.39
-7 0 9 0.1 0.28
7 0 -9 0.07 0.43
7 0 -9 -0.22 0.4
-7 0 9 -0.25 0.44
7 0 -9 0.22 0.6
7 0 -9 0.09 0.22
-7 0 9 0.46 0.25
6 0 -9 -0.03 0.41
-6 0 9 0.14 0.37
-6 0 9 -0.09 0.25
6 0 -9 0.38 0.29
-6 0 9 -0.33 0.38
6 0 -9 0.8 0.41
6 0 -9 0.34 0.42
-6 0 9 0.22 0.33
-6 0 9 0.34 0.25
6 0 -9 0.1 0.35
6 0 -9 0.3 0.16
-5 0 9 0.05 0.3
5 0 -9 -0.18 0.24
5 0 -9 -0.08 0.37
-5 0 9 0.14 0.33
5 0 -9 -0.13 0.37
5 0 -9 -0.28 0.37
5 0 -9 0.09 0.08
-5 0 9 -0.22 0.23
-5 0 9 -0.11 0.34
-5 0 9 -0.23 0.22
-4 0 9 -0.1 0.29
4 0 -9 0.11 0.27
-4 0 9 0.1 0.22
4 0 -9 -0.05 0.32
4 0 -9 0.01 0.3
-4 0 9 0.09 0.29
-4 0 9 0 0.26
4 0 -9 -0.46 0.38
3 0 -9 0.48 0.33
-3 0 9 0.09 0.24
3 0 -9 0.03 0.37
-3 0 9 0.19 0.29
-3 0 9 -0.26 0.28
3 0 -9 0.1 0.31
-3 0 9 0.11 0.27
-3 0 9 -0.42 0.27
3 0 -9 -0.08 0.29
-2 0 9 0.16 0.27
2 0 -9 -0.06 0.26
-2 0 9 0.06 0.24
2 0 -9 0.27 0.28
2 0 -9 0.02 0.38
-2 0 9 0.24 0.27
2 0 -9 0.03 0.33
-2 0 9 0.1 0.34
1 0 -9 0.06 0.25
-1 0 9 -0.04 0.12
1 0 -9 -0.15 0.32
-1 0 9 0.26 0.28
1 0 -9 -0.06 0.4
1 0 -9 0.45 0.28
-1 0 9 0.29 0.32
-1 0 9 0.21 0.23
-1 0 9 -0.02 0.28
0 0 9 0.31 0.3
0 0 9 0.17 0.32
0 0 9 -0.04 0.21
0 0 -9 0.1 0.39
0 0 -9 -0.26 0.27
0 0 -9 -0.16 0.51
-1 0 -9 0.38 0.34
1 0 9 -0.06 0.39
-1 0 -9 0.55 0.5
1 0 9 -0.15 0.27
-1 0 -9 -0.09 0.26
1 0 9 0.04 0.19
1 0 9 -0.05 0.35
-2 0 -9 0.15 0.3
2 0 9 0.28 0.44
-2 0 -9 0.38 0.65
2 0 9 -0.09 0.44
-2 0 -9 0.23 0.37
2 0 9 0.04 0.33
-3 0 -9 0.09 0.35
3 0 9 0.51 0.61
3 0 9 0.11 0.35
-3 0 -9 -0.1 0.36
3 0 9 -0.5 0.52
-3 0 -9 -0.15 0.65
4 0 9 -0.02 0.6
-4 0 -9 0.22 0.8
-4 0 -9 0.65 0.43
4 0 9 -0.58 0.55
-5 0 -9 0.58 0.87
5 0 9 -1.22 0.71
-5 0 -9 -0.97 0.54
5 0 9 0.17 0.62
5 0 9 -0.17 0.47
6 0 9 -0.12 0.56
-6 0 -9 -0.43 0.65
-6 0 -9 0.81 0.59
6 0 9 0.48 0.88
-6 0 -9 0.48 1.07
-7 0 -9 0.48 0.86
-7 0 -9 1.22 1.35
-7 0 -9 0.63 0.8
7 0 9 0.6 1.13
7 0 9 -0.17 0.91
7 0 9 1.31 0.73
-7 0 -9 0.6 0.77
-8 0 -9 0.31 1
-8 0 -9 0.11 0.93
8 0 9 1.08 1.16
8 0 9 0.36 1.09
-8 0 -9 -0.55 1.04
8 0 9 2.41 0.91
-8 0 -9 2.19 1.54
8 0 9 1.05 1.39
9 0 9 1.11 0.96
-9 0 -9 1.09 1.26
-9 0 -9 3.33 2.01
-9 0 -9 -0.1 1.33
9 0 9 -0.22 1.29
12 -1 -9 0.14 0.81
12 -1 -9 0.22 1.34
12 -1 -9 0.68 1.11
12 -1 -9 -0.02 1.17
12 1 -9 0.18 0.81
12 1 -9 1.48 1.09
12 1 -9 -0.42 1.1
12 1 -9 0.18 1.17
12 1 -9 0.43 0.88
12 1 -9 1.35 1.18
11 -1 -9 -0.25 0.98
11 -1 -9 0.13 0.87
11 -1 -9 -0.54 0.93
11 -1 -9 -0.34 0.62
11 -1 -9 1.1 0.93
11 1 -9 -0.43 0.98
11 1 -9 1.34 0.85
11 1 -9 -0.23 0.87
11 1 -9 0.18 0.62
11 1 -9 -1.01 0.67
-11 1 9 -0.31 0.94
11 1 -9 -0.11 0.88
10 -1 -9 -0.65 0.77
10 -1 -9 -0.39 0.48
10 -1 -9 0.15 0.51
10 -1 -9 -0.32 0.75
10 -1 -9 -0.83 0.71
10 -1 -9 -0.13 0.67
10 -1 -9 0.22 0.52
10 1 -9 -0.17 0.79
10 1 -9 0.18 0.77
10 1 -9 -0.09 0.48
10 1 -9 0.37 0.57
-10 1 9 -0.74 0.78
10 1 -9 0.73 0.71
10 1 -9 -0.51 0.7
9 -1 -9 3.7 0.59
9 -1 -9 3.89 0.76
9 -1 -9 3.64 0.48
9 -1 -9 4.32 0.75
9 -1 -9 4.1 0.63
9 1 -9 3.04 0.57
-9 1 9 2.8 0.42
9 1 -9 3.4 0.75
-9 1 9 4.03 0.72
9 1 -9 3.11 0.45
9 1 -9 4.56 0.66
9 1 -9 3.71 0.67
9 1 -9 2.71 0.69
8 -1 -9 0.75 0.51
-8 -1 9 0.82 0.22
8 -1 -9 1.22 0.32
-8 -1 9 0.32 0.23
8 -1 -9 0.29 0.56
-8 -1 9 1.1 0.56
8 -1 -9 0.64 0.56
8 -1 -9 0.85 0.4
-8 -1 9 0.45 0.5
8 1 -9 0.82 0.57
-8 1 9 0.52 0.59
8 1 -9 1.09 0.43
8 1 -9 1.04 0.41
-8 1 9 0.71 0.32
8 1 -9 0.57 0.29
8 1 -9 0.45 0.42
8 1 -9 0.45 0.5
-8 1 9 0.02 0.43
7 -1 -9 0.65 0.47
-7 -1 9 0.72 0.44
-7 -1 9 0.67 0.47
-7 -1 9 1.02 0.3
7 -1 -9 0.6 0.46
-7 -1 9 1.19 0.44
7 -1 -9 0.67 0.24
7 -1 -9 0.53 0.35
-7 1 9 0.91 0.48
-7 1 9 0.34 0.29
7 1 -9 0.8 0.22
7 1 -9 0.47 0.45
-7 1 9 0.33 0.37
-7 1 9 0.72 0.33
-7 1 9 1.03 0.51
7 1 -9 -0.02 0.26
7 1 -9 1.18 0.42
-6 -1 9 1.48 0.41
6 -1 -9 1.03 0.45
6 -1 -9 1.21 0.38
-6 -1 9 0.82 0.26
-6 -1 9 0.93 0.43
-6 -1 9 0.97 0.31
-6 -1 9 0.69 0.38
6 -1 -9 0.91 0.18
6 -1 -9 0.88 0.42
6 -1 -9 0.62 0.46
6 -1 -9 0.64 0.42
-6 1 9 0.77 0.3
6 1 -9 0.8 0.31
-6 1 9 1.2 0.41
-6 1 9 0.67 0.4
-6 1 9 1.4 0.37
6 1 -9 0.96 0.43
6 1 -9 0.5 0.41
6 1 -9 1.05 0.19
-6 1 9 1.2 0.33
6 1 -9 1.52 0.48
5 -1 -9 4.77 0.59
-5 -1 9 4.29 0.42
5 -1 -9 5.28 0.51
5 -1 -9 4.81 0.52
-5 -1 9 5.74 0.52
5 -1 -9 5.56 0.7
-5 -1 9 5.38 0.49
5 -1 -9 4.83 0.2
-5 -1 9 5.21 0.47
-5 -1 9 4.72 0.54
-5 1 9 4.51 0.55
-5 1 9 5.58 0.49
-5 1 9 6.55 0.58
-5 1 9 4.82 0.5
5 1 -9 5.36 0.49
5 1 -9 4.86 0.47
5 1 -9 4.73 0.54
-5 1 9 5.11 0.41
5 1 -9 5.74 0.67
-4 -1 9 0.51 0.29
-4 -1 9 0.76 0.33
4 -1 -9 0.48 0.34
4 -1 -9 0.71 0.43
-4 -1 9 1.01 0.35
4 -1 -9 0.29 0.3
4 -1 -9 0.28 0.31
-4 -1 9 0.83 0.28
-4 -1 9 0.97 0.33
-4 1 9 0.92 0.35
4 1 -9 1.05 0.47
-4 1 9 0.83 0.32
-4 1 9 0.89 0.35
4 1 -9 0.5 0.27
4 1 -9 0.83 0.35
4 1 -9 0.49 0.32
-4 1 9 0.48 0.32
-4 1 9 0.81 0.27
3 -1 -9 6.7 0.65
-3 -1 9 6.86 0.62
-3 -1 9 7.58 0.59
-3 -1 9 7.12 0.56
-3 -1 9 6.85 0.51
3 -1 -9 7.1 0.54
3 -1 -9 5.93 0.48
3 -1 -9 6.82 0.8
-3 -1 9 5.6 0.43
3 1 -9 7.04 0.62
3 1 -9 6.88 0.54
3 1 -9 6.7 0.61
-3 1 9 7.8 0.55
-3 1 9 6.94 0.64
3 1 -9 7.26 0.84
-3 1 9 7.7 0.6
-3 1 9 6.34 0.65
2 -1 -9 3.83 0.42
-2 -1 9 4.17 0.35
-2 -1 9 4.36 0.4
-2 -1 9 4.63 0.18
2 -1 -9 4.97 0.69
-2 -1 9 4.46 0.56
2 -1 -9 5.12 0.61
-2 1 9 5.8 0.6
-2 1 9 4.16 0.57
2 1 -9 4.39 0.55
2 1 -9 5.22 0.72
-2 1 9 4.99 0.41
2 1 -9 4.22 0.37
-2 1 9 3.13 0.36
2 1 -9 4.97 0.47
-1 -1 9 7.36 0.45
-1 -1 9 6.48 0.73
1 -1 -9 7.8 0.68
1 -1 -9 6.64 0.87
-1 -1 9 5.48 0.59
-1 -1 9 7.45 0.61
1 -1 -9 7.86 0.65
1 1 -9 6.98 0.49
1 1 -9 7.48 0.57
-1 1 9 7.48 0.24
-1 1 9 7.68 0.6
-1 1 9 6.97 0.48
1 1 -9 8.22 0.91
-1 1 9 7.08 0.66
1 1 -9 7.19 0.63
-1 1 9 6.2 0.68
0 -1 9 7.73 0.82
0 -1 9 8.16 0.68
0 -1 -9 7.48 0.97
0 -1 -9 8 0.7
0 -1 9 8.71 0.7
0 -1 -9 8.52 0.75
0 -1 9 8.79 0.45
0 1 9 8.23 0.37
0 1 -9 7.84 0.48
0 1 -9 7.47 0.67
0 1 9 8.64 0.47
0 1 9 8.15 0.67
0 1 -9 7.84 1.02
0 1 9 7.81 0.75
1 -1 9 0.36 0.33
1 -1 9 0.42 0.42
-1 -1 -9 1.08 0.59
-1 -1 -9 0.05 0.34
1 -1 9 0.6 0.39
-1 1 -9 0.74 0.27
1 1 9 1.06 0.39
1 1 9 0.49 0.36
-1 1 -9 0.32 0.57
1 1 9 0.18 0.21
1 1 9 0.34 0.23
-1 1 -9 0.25 0.36
1 1 9 0.39 0.34
2 -1 9 0.4 0.44
2 -1 9 0.28 0.32
2 -1 9 1.28 0.55
-2 -1 -9 0.83 0.65
-2 -1 -9 0.87 0.39
-2 -1 -9 0.55 0.34
2 1 9 0.64 0.3
2 1 9 0.12 0.41
-2 1 -9 0.67 0.31
2 1 9 0.23 0.43
-2 1 -9 0.88 0.51
2 1 9 0.79 0.21
2 1 9 0.66 0.38
-2 1 -9 0.04 0.34
-3 -1 -9 0.32 0.4
-3 -1 -9 0.27 0.7
3 -1 9 -0.11 0.49
3 -1 9 0.49 0.6
-3 -1 -9 0.65 0.4
3 -1 9 -0.18 0.38
-3 1 -9 -0.02 0.37
-3 1 -9 0.33 0.71
3 1 9 -0.56 0.41
-3 1 -9 0.22 0.38
3 1 9 -0.05 0.35
3 1 9 -0.16 0.53
3 1 9 0.09 0.16
3 1 9 0.23 0.33
-4 -1 -9 0.45 0.84
4 -1 9 0.94 0.65
-4 -1 -9 0.03 0.45
-4 1 -9 0.42 0.44
4 1 9 -0.19 0.46
4 1 9 -0.34 0.54
4 1 9 -0.02 0.57
-4 1 -9 -0.21 0.76
5 -1 9 0.13 0.68
-5 -1 -9 0.08 0.55
-5 -1 -9 -1.03 0.48
-5 -1 -9 -0.4 0.8
5 -1 9 -0.65 0.44
5 -1 9 0.06 0.72
5 1 9 -1.11 0.54
-5 1 -9 -0.02 0.63
5 1 9 -1.19 0.63
5 1 9 0 0.59
5 1 9 -0.3 0.45
-5 1 -9 0.33 0.86
-6 -1 -9 1.22 1.07
-6 -1 -9 2.34 0.75
6 -1 9 2.1 0.62
-6 -1 -9 2.32 0.63
6 -1 9 1.42 0.97
-6 -1 -9 2.71 0.77
6 -1 9 0.98 0.85
-6 1 -9 2.27 0.67
-6 1 -9 2.48 0.72
6 1 9 1.62 0.91
6 1 9 1.5 0.64
6 1 9 2.78 0.86
-6 1 -9 1.91 0.65
-6 1 -9 2.67 1.2
-7 -1 -9 0.1 0.85
-7 -1 -9 0.45 1.21
7 -1 9 1.45 1.13
-7 -1 -9 0.65 0.78
7 -1 9 0.32 1
-7 -1 -9 0.11 0.75
7 -1 9 -0.03 0.61
7 1 9 -0.84 1.05
-7 1 -9 0.59 0.8
7 1 9 1.13 0.92
-7 1 -9 0.81 1.35
7 1 9 0.64 0.65
7 1 9 0.05 0.86
-7 1 -9 -0.48 0.75
-7 1 -9 -1.46 0.77
8 -1 9 1.43 0.81
-8 -1 -9 0.75 1.12
-8 -1 -9 1.04 1.66
8 -1 9 0.81 1.39
-8 -1 -9 0.31 0.93
-8 -1 -9 -0.34 0.95
8 -1 9 1.26 1.23
-8 1 -9 0.33 1.52
-8 1 -9 0.34 0.95
8 1 9 -0.13 0.86
8 1 9 0.45 1.16
-8 1 -9 -0.78 1.07
8 1 9 0.86 1.32
-8 1 -9 0.83 1.04
-9 -1 -9 -2.45 1.31
-9 -1 -9 -2.61 1.93
-9 -1 -9 0.61 1.22
9 -1 9 -0.73 0.93
9 1 9 1.51 1
-9 1 -9 1.27 2.05
-9 1 -9 -0.94 1.34
9 1 9 1.09 1.29
-9 1 -9 -0.9 1.36
12 -2 -9 2.27 1.21
12 -2 -9 -0.78 1.23
12 -2 -9 2.02 0.9
12 2 -9 0.68 1.06
12 2 -9 1.9 1.16
-12 2 9 -0.16 1.18
12 2 -9 0.73 0.79
12 2 -9 -0.95 1.18
12 2 -9 -0.34 0.96
12 2 -9 1.72 1.09
11 -2 -9 1.18 0.71
11 -2 -9 2.45 1
11 -2 -9 1.28 1
11 -2 -9 1.63 0.65
11 -2 -9 1.99 0.71
11 -2 -9 0.45 0.98
11 2 -9 1.3 0.8
11 2 -9 0.64 0.87
11 2 -9 2.35 0.64
11 2 -9 1.67 0.87
-11 2 9 0.38 1
11 2 -9 1.91 1.01
11 2 -9 1.87 1.08
10 -2 -9 0.7 0.66
10 -2 -9 0.23 0.55
10 -2 -9 0.35 0.65
10 -2 -9 -0.59 0.8
10 -2 -9 -0.2 0.69
10 2 -9 1.22 0.63
-10 2 9 -0.35 0.35
10 2 -9 -0.02 0.83
10 2 -9 0.62 0.69
10 2 -9 0.6 0.48
10 2 -9 1.01 0.75
10 2 -9 0.95 0.69
-10 2 9 -0.47 0.34
-10 2 9 0.36 0.76
9 -2 -9 15.17 1
9 -2 -9 16.57 0.86
9 -2 -9 14.93 1.25
9 2 -9 15.3 0.8
9 2 -9 15.53 1.26
9 2 -9 17.61 1.13
9 2 -9 15.57 1.18
-9 2 9 15.89 0.85
9 2 -9 17.07 1.02
9 2 -9 14.94 1.02
-9 2 9 16.6 1.2
8 -2 -9 2.64 0.57
8 -2 -9 2.99 0.41
-8 -2 9 2.87 0.59
-8 2 9 2.66 0.47
-8 2 9 3.21 0.49
8 2 -9 3.58 0.37
8 2 -9 3.29 0.48
8 2 -9 2.99 0.61
8 2 -9 3.54 0.54
8 2 -9 2.75 0.53
-8 2 9 2.78 0.49
8 2 -9 3.68 0.44
-8 2 9 4.47 0.67
8 2 -9 3.87 0.66
8 2 -9 3.08 0.56
7 -2 -9 14.61 0.94
-7 -2 9 15.14 0.89
-7 -2 9 13.86 0.61
-7 -2 9 13.4 0.65
7 -2 -9 12.51 0.84
-7 -2 9 13.38 0.86
7 -2 -9 12.33 0.88
7 -2 -9 13.57 0.59
-7 2 9 14.13 0.86
-7 2 9 13.6 0.81
-7 2 9 13.26 1.07
-7 2 9 13.43 0.75
7 2 -9 13.44 0.55
-7 2 9 14.09 0.86
7 2 -9 14.46 0.87
7 2 -9 12.93 1.1
7 2 -9 14.74 0.81
7 2 -9 12.02 1.04
7 2 -9 14.1 0.91
7 2 -9 14.68 1.18
6 -2 -9 16.66 0.53
6 -2 -9 18.35 0.93
-6 -2 9 15.54 0.84
-6 -2 9 16.74 0.78
6 -2 -9 16.58 0.94
-6 -2 9 15.65 0.7
-6 -2 9 16.56 0.8
6 -2 -9 17.42 0.88
-6 2 9 17.39 0.91
6 2 -9 15.88 0.85
-6 2 9 17.02 0.71
6 2 -9 15.85 0.53
6 2 -9 16.51 0.84
-6 2 9 17.95 0.91
-6 2 9 16.74 0.86
-6 2 9 16.29 0.83
6 2 -9 16.54 0.76
6 2 -9 16.54 0.94
5 -2 -9 0.02 0.11
5 -2 -9 -0.09 0.32
5 -2 -9 -0.22 0.31
-5 -2 9 0.42 0.24
5 -2 -9 0.3 0.4
-5 -2 9 0.37 0.33
-5 -2 9 0.36 0.27
-5 -2 9 0.25 0.33
5 2 -9 0.08 0.27
-5 2 9 -0.37 0.32
-5 2 9 0.23 0.27
5 2 -9 -0.03 0.33
-5 2 9 0.25 0.39
-5 2 9 0.1 0.36
5 2 -9 0 0.37
5 2 -9 0.19 0.42
-5 2 9 0.08 0.28
4 -2 -9 0.4 0.33
-4 -2 9 0.8 0.18
-4 -2 9 0.99 0.35
-4 -2 9 0.3 0.27
-4 -2 9 1.09 0.28
-4 -2 9 0.98 0.33
4 -2 -9 1.31 0.47
4 -2 -9 0.62 0.39
4 2 -9 1.22 0.36
-4 2 9 0.74 0.35
-4 2 9 0.29 0.35
4 2 -9 1.23 0.3
4 2 -9 0.86 0.33
-4 2 9 0.71 0.29
4 2 -9 0.77 0.42
-4 2 9 0.81 0.34
-4 2 9 1.23 0.33
-3 -2 9 -0.01 0.24
3 -2 -9 -0.08 0.28
-3 -2 9 -0.11 0.31
-3 -2 9 0.03 0.29
-3 -2 9 0.13 0.12
3 -2 -9 0.45 0.42
3 -2 -9 -0.1 0.35
-3 -2 9 -0.11 0.35
-3 2 9 0.28 0.29
3 2 -9 0.26 0.27
-3 2 9 0.44 0.33
-3 2 9 0.24 0.31
3 2 -9 -0.15 0.28
3 2 -9 -0.18 0.31
3 2 -9 0.21 0.41
-3 2 9 0.29 0.27
-2 -2 9 2.4 0.38
2 -2 -9 2.76 0.57
2 -2 -9 2.91 0.5
-2 -2 9 2.95 0.51
-2 -2 9 3.17 0.4
2 -2 -9 2.63 0.44
-2 -2 9 3.23 0.48
2 2 -9 2.76 0.35
-2 2 9 2.72 0.38
2 2 -9 2.7 0.41
-2 2 9 3.12 0.37
-2 2 9 3.25 0.51
2 2 -9 3.03 0.43
2 2 -9 1.6 0.46
-2 2 9 2.41 0.49
1 -2 -9 1.1 0.36
1 -2 -9 0.47 0.44
-1 -2 9 1.3 0.45
1 -2 -9 1.13 0.4
-1 -2 9 0.77 0.33
-1 -2 9 1.26 0.36
1 2 -9 0.66 0.36
1 2 -9 0.96 0.28
-1 2 9 0.67 0.27
-1 2 9 0.69 0.38
-1 2 9 1.3 0.38
-1 2 9 1.21 0.12
1 2 -9 0.28 0.4
-1 2 9 1.04 0.37
1 2 -9 0.7 0.29
0 -2 -9 21.1 0.94
0 -2 9 22.87 0.92
0 -2 9 22.48 1.03
0 -2 9 22.09 1.18
0 -2 -9 21.14 1.11
0 -2 -9 22.41 1.29
0 2 9 21.23 0.89
0 2 9 22.84 1.17
0 2 -9 22.44 0.71
0 2 9 22.39 0.74
0 2 -9 22.67 1.34
0 2 9 22.44 0.62
0 2 -9 21.44 1.03
0 2 9 23.95 1.07
1 -2 9 -0.16 0.36
1 -2 9 0.44 0.39
-1 -2 -9 -0.63 0.33
1 -2 9 0.24 0.33
-1 -2 -9 -0.43 0.48
-1 2 -9 0.42 0.24
1 2 9 0.57 0.45
1 2 9 0.32 0.41
-1 2 -9 0.17 0.35
1 2 9 0.43 0.24
-1 2 -9 -0.1 0.52
1 2 9 0.22 0.32
1 2 9 0.59 0.23
-1 2 -9 0.09 0.21
2 -2 9 0 0.44
-2 -2 -9 0.22 0.62
-2 -2 -9 0.1 0.36
-2 -2 -9 -0.29 0.37
2 -2 9 0.39 0.46
2 -2 9 0.19 0.31
2 2 9 0.3 0.45
2 2 9 0.26 0.27
-2 2 -9 -0.48 0.28
-2 2 -9 0.33 0.54
-2 2 -9 0.08 0.3
2 2 9 0.44 0.34
2 2 9 0.24 0.23
2 2 9 -0.12 0.42
-3 -2 -9 2.25 0.76
3 -2 9 1.2 0.55
-3 -2 -9 1.4 0.45
3 -2 9 1.61 0.77
3 -2 9 0.6 0.59
-3 -2 -9 2.62 0.81
-3 2 -9 1.91 0.4
3 2 9 2.45 0.57
-3 2 -9 1.6 0.77
3 2 9 2.05 0.52
3 2 9 1.95 0.4
-3 2 -9 0.73 0.45
3 2 9 1.33 0.24
3 2 9 1.55 0.54
4 -2 9 0.94 0.7
-4 -2 -9 2.33 0.92
4 -2 9 2.21 0.64
4 2 9 1.85 0.53
4 2 9 1.29 0.47
-4 2 -9 0.57 0.83
4 2 9 1.57 0.64
4 2 9 1.36 0.66
-4 2 -9 2 0.49
4 2 9 1.55 0.19
-5 -2 -9 10 0.78
5 -2 9 8.53 1.01
-5 -2 -9 9.03 0.66
-5 -2 -9 10.51 1.37
5 -2 9 9.89 1.29
-5 2 -9 8.76 0.81
5 2 9 8.65 0.87
5 2 9 10.1 1.24
-5 2 -9 8.75 1.34
5 2 9 9.61 0.96
5 2 9 9.83 1.05
-6 -2 -9 0.49 1.04
6 -2 9 -0.46 0.73
6 -2 9 -0.19 0.96
6 -2 9 0.57 0.65
-6 -2 -9 0.05 0.55
-6 -2 -9 -1.26 0.62
-6 -2 -9 0.09 0.7
-6 2 -9 0.01 0.54
-6 2 -9 0.14 0.64
-6 2 -9 -0.55 0.69
-6 2 -9 -0.5 1.17
6 2 9 0.01 0.55
6 2 9 1.44 0.74
6 2 9 1.48 0.86
-7 -2 -9 10.27 1.19
7 -2 9 10.89 1.5
7 -2 9 11.1 1.32
-7 -2 -9 9.86 1.38
-7 -2 -9 9.52 1.06
7 -2 9 9.15 1.23
-7 2 -9 11.16 1.31
-7 2 -9 10.75 1.06
7 2 9 15.19 1.72
7 2 9 9.1 1.17
-7 2 -9 11.12 1.07
7 2 9 10.13 1.11
7 2 9 8.42 1.16
-7 2 -9 14.05 1.97
-8 -2 -9 0.47 0.91
-8 -2 -9 1.43 1.02
8 -2 9 0.2 1.52
-8 -2 -9 -0.82 1.09
8 -2 9 0.31 0.85
8 -2 9 -0.09 1.22
-8 -2 -9 1.02 1.56
8 2 9 0.91 1.31
-8 2 -9 0.38 1.07
-8 2 -9 -2.27 1.58
-8 2 -9 0.51 1.08
8 2 9 1.19 1.2
-8 2 -9 -1.05 0.93
8 2 9 1.08 0.78
8 2 9 2.63 1.14
-9 -2 -9 1.4 1.57
9 -2 9 -2.09 1.64
9 -2 9 0.81 1.02
-9 -2 -9 0.45 1.19
-9 -2 -9 1.26 2.45
-9 2 -9 -0.4 2.05
-9 2 -9 -0.51 1.42
-9 2 -9 1.31 1.31
9 2 9 -0.31 0.91
9 2 9 2.5 1.31
12 -3 -9 -0.12 0.85
12 -3 -9 0.05 0.92
12 -3 -9 0.09 1.29
12 -3 -9 1.62 0.87
12 3 -9 -0.24 0.8
12 3 -9 2.34 1.05
-12 3 9 0.79 1.29
12 3 -9 0.84 1.21
12 3 -9 -0.87 1.28
12 3 -9 0.85 1.11
12 3 -9 3.4 1.06
11 -3 -9 2.33 1.11
11 -3 -9 0.62 0.77
11 -3 -9 1.5 0.96
11 -3 -9 -0.89 0.94
11 -3 -9 -0.43 0.71
-11 3 9 0.93 1.05
-11 3 9 0.2 0.46
11 3 -9 0.28 0.61
11 3 -9 1.98 1.03
11 3 -9 3 0.87
-11 3 9 -0.57 0.44
11 3 -9 1.3 1.07
11 3 -9 0.23 0.82
11 3 -9 0.85 0.83
10 -3 -9 0.44 0.6
10 -3 -9 0.3 0.9
10 -3 -9 1.04 0.49
10 -3 -9 0.38 0.85
10 -3 -9 0.53 0.56
10 3 -9 1.52 0.7
10 3 -9 1.44 0.73
10 3 -9 1.13 0.83
-10 3 9 1.23 0.49
10 3 -9 0.85 0.66
10 3 -9 1.75 0.84
-10 3 9 1.37 0.81
9 -3 -9 1.41 0.65
9 -3 -9 2.09 0.52
9 -3 -9 1.19 0.7
9 -3 -9 0.97 0.74
9 3 -9 1.72 0.57
9 3 -9 2.04 0.61
9 3 -9 1.98 0.45
9 3 -9 1.65 0.69
-9 3 9 2.21 0.75
9 3 -9 1.5 0.59
-9 3 9 2.23 0.5
9 3 -9 1.05 0.7
-8 -3 9 17.42 1.14
8 -3 -9 18.35 0.98
8 -3 -9 17.99 1.15
8 -3 -9 17.73 1.11
8 3 -9 17.61 1.04
-8 3 9 14.35 0.99
-8 3 9 17.95 1.13
8 3 -9 18.04 1.01
-8 3 9 17.98 0.84
8 3 -9 18 0.73
8 3 -9 17.36 0.93
-8 3 9 17.46 0.96
8 3 -9 15.66 0.98
-7 -3 9 4.27 0.47
7 -3 -9 4.59 0.66
-7 -3 9 4.83 0.52
-7 -3 9 4.19 0.58
-7 -3 9 4.98 0.44
7 -3 -9 5.04 0.71
7 -3 -9 3.63 0.63
7 -3 -9 5.47 0.69
-7 3 9 4.72 0.64
-7 3 9 4.46 0.62
7 3 -9 4.13 0.54
7 3 -9 5.68 0.42
-7 3 9 4.83 0.6
7 3 -9 4.29 0.53
-7 3 9 4.07 0.43
7 3 -9 4.95 0.58
-7 3 9 4.6 0.58
7 3 -9 4.34 0.58
-6 -3 9 15.22 0.79
6 -3 -9 15.34 0.93
6 -3 -9 15.92 0.87
-6 -3 9 16.47 0.89
6 -3 -9 15.17 0.99
-6 -3 9 15.26 0.77
6 -3 -9 15.61 0.94
-6 3 9 16.12 0.89
6 3 -9 15.47 0.73
-6 3 9 15.39 0.68
-6 3 9 15.63 0.92
-6 3 9 16.82 0.97
6 3 -9 15.14 0.81
6 3 -9 16.46 0.9
-6 3 9 16.92 0.93
6 3 -9 15.45 0.95
5 -3 -9 8.08 0.77
5 -3 -9 8.85 0.78
5 -3 -9 8.87 0.68
-5 -3 9 7.69 0.48
5 -3 -9 7.77 0.71
-5 -3 9 8.73 0.64
-5 -3 9 8.57 0.72
-5 -3 9 8.12 0.65
-5 -3 9 8.83 0.57
-5 3 9 9.03 0.72
-5 3 9 8.05 0.53
-5 3 9 8.2 0.67
5 3 -9 9.17 0.72
5 3 -9 8.61 0.59
5 3 -9 7.87 0.83
5 3 -9 7.34 0.67
-5 3 9 8.44 0.67
-5 3 9 8.1 0.79
-4 -3 9 -0.16 0.18
4 -3 -9 -0.19 0.28
-4 -3 9 -0.41 0.31
4 -3 -9 0.16 0.34
4 -3 -9 0.01 0.08
4 -3 -9 -0.11 0.37
-4 -3 9 -0.19 0.35
-4 -3 9 -0.01 0.23
-4 -3 9 0.1 0.35
4 -3 -9 -0.13 0.31
-4 3 9 -0.25 0.35
-4 3 9 -0.33 0.33
4 3 -9 0.11 0.27
-4 3 9 0.07 0.26
4 3 -9 -0.14 0.33
4 3 -9 -0.24 0.33
-4 3 9 -0.15 0.34
4 3 -9 0.04 0.41
-3 -3 9 2 0.46
3 -3 -9 2.06 0.42
3 -3 -9 1.86 0.43
-3 -3 9 1.95 0.37
-3 -3 9 2.37 0.36
-3 -3 9 2.65 0.27
-3 -3 9 2.43 0.38
3 -3 -9 1.95 0.41
3 3 -9 1.78 0.38
-3 3 9 2.21 0.41
-3 3 9 2.52 0.44
3 3 -9 2.45 0.42
-3 3 9 1.85 0.36
-3 3 9 2.31 0.36
3 3 -9 2.37 0.37
3 3 -9 1.75 0.5
2 -3 -9 3.01 0.62
-2 -3 9 3.17 0.4
2 -3 -9 3.14 0.41
-2 -3 9 3.6 0.58
-2 -3 9 3.19 0.42
-2 -3 9 2.8 0.39
2 -3 -9 3.54 0.57
-2 3 9 3.15 0.39
2 3 -9 3.24 0.42
2 3 -9 3.22 0.37
-2 3 9 3.81 0.58
-2 3 9 4.13 0.6
2 3 -9 3.33 0.62
2 3 -9 2.82 0.43
-2 3 9 2.51 0.37
1 -3 -9 14.48 1.13
1 -3 -9 15.36 0.94
-1 -3 9 14.51 0.97
-1 -3 9 14.5 0.77
-1 -3 9 13.44 0.71
1 -3 -9 15.03 0.82
-1 -3 9 15.01 0.82
-1 3 9 13.8 0.94
1 3 -9 15.24 1.13
1 3 -9 15.83 0.85
1 3 -9 13.95 0.63
-1 3 9 15.12 0.92
-1 3 9 14.39 0.75
-1 3 9 14.69 0.66
0 -3 -9 2.82 0.68
0 -3 9 1.63 0.48
0 -3 -9 1.93 0.43
0 -3 -9 2.07 0.53
0 -3 9 2.15 0.46
0 -3 9 2.16 0.41
0 3 -9 1.78 0.4
0 3 -9 2.32 0.31
0 3 -9 1.91 0.25
0 3 9 2.38 0.33
0 3 -9 2.64 0.73
0 3 9 2.3 0.46
0 3 9 2.4 0.22
0 3 9 1.67 0.39
0 3 9 2.5 0.51
-1 -3 -9 4.09 0.69
1 -3 9 5.45 0.8
1 -3 9 6.29 0.63
-1 -3 -9 5.24 0.67
1 -3 9 4.07 0.59
-1 -3 -9 5.14 0.57
1 3 9 3.77 0.54
-1 3 -9 4.59 0.41
1 3 9 5.07 0.39
1 3 9 4.25 0.5
-1 3 -9 4.93 0.85
-1 3 -9 4.65 0.62
-1 3 -9 4.73 0.36
1 3 9 4.96 0.39
1 3 9 4.57 0.66
-2 -3 -9 0.96 0.41
2 -3 9 1.04 0.56
2 -3 9 0.83 0.34
2 -3 9 -0.05 0.49
-2 -3 -9 0.39 0.63
-2 -3 -9 0.83 0.44
2 3 9 0.99 0.47
2 3 9 0.23 0.44
-2 3 -9 0.69 0.21
-2 3 -9 0.76 0.3
-2 3 -9 0.24 0.37
-2 3 -9 0.94 0.73
2 3 9 0.92 0.46
2 3 9 0.45 0.3
2 3 9 0.6 0.27
3 -3 9 1.34 0.52
-3 -3 -9 1.6 0.47
3 -3 9 1.75 0.63
3 -3 9 1.32 0.75
-3 -3 -9 1.36 0.79
-3 3 -9 1.61 0.39
3 3 9 1.64 0.56
3 3 9 1.11 0.51
-3 3 -9 0.86 0.81
3 3 9 1.53 0.29
3 3 9 1.98 0.4
3 3 9 2.38 0.56
-4 -3 -9 9.2 1.27
-4 -3 -9 6.92 0.68
4 -3 9 6.11 0.92
4 -3 9 7.37 0.91
4 3 9 8.66 1.18
-4 3 -9 7.14 0.58
4 3 9 6.41 0.45
4 3 9 7.73 0.77
4 3 9 6.51 0.8
-4 3 -9 8.29 1.27
4 3 9 8.24 0.76
-5 -3 -9 1.33 0.66
-5 -3 -9 1.35 0.61
-5 -3 -9 1.64 0.48
5 -3 9 0.25 0.69
-5 -3 -9 2.54 1.05
5 -3 9 1.45 0.62
5 3 9 1.27 0.71
5 3 9 1.72 0.23
-5 3 -9 1.91 1.09
5 3 9 1.82 0.58
5 3 9 2.21 0.72
-5 3 -9 2.13 0.6
5 3 9 2.11 0.63
6 -3 9 9.29 1.16
6 -3 9 8.18 1.24
-6 -3 -9 7.73 1.49
-6 -3 -9 9.15 0.72
-6 -3 -9 9.42 0.93
-6 -3 -9 7.21 1
-6 3 -9 8.64 1.16
-6 3 -9 8.62 0.96
6 3 9 8.44 1.11
6 3 9 6.41 0.95
6 3 9 6.74 0.94
-6 3 -9 10.39 1.62
6 3 9 8.7 1.16
-6 3 -9 7.13 0.79
-7 -3 -9 0.4 0.72
7 -3 9 -0.24 0.72
-7 -3 -9 -0.11 1.3
-7 -3 -9 0.62 0.83
-7 -3 -9 1.05 0.93
-7 3 -9 0.95 1.43
7 3 9 -0.19 0.87
-7 3 -9 0.71 0.78
7 3 9 0.6 0.87
-7 3 -9 0.98 0.85
-7 3 -9 0.86 0.91
7 3 9 2.22 0.75
7 3 9 -0.25 1.05
8 -3 9 0.61 1.18
8 -3 9 -0.44 0.88
-8 -3 -9 -0.38 1.17
-8 -3 -9 0.67 1.6
-8 -3 -9 0.09 0.91
-8 -3 -9 -1.31 1.02
-8 3 -9 -1.03 0.89
8 3 9 0.63 1.31
8 3 9 -1.41 0.98
-8 3 -9 -0.44 1.16
8 3 9 0.93 0.81
-8 3 -9 0.04 1.03
-8 3 -9 0.28 1.6
8 3 9 2.23 1.15
12 -4 -9 1.35 1.03
12 -4 -9 3.09 0.72
12 -4 -9 2.3 1.45
12 -4 -9 1.56 1.09
12 4 -9 -0.32 1.4
12 4 -9 1.81 1.11
12 4 -9 -0.15 0.91
-12 4 9 1.31 1.37
12 4 -9 1.08 1.16
12 4 -9 0.77 1.28
12 4 -9 1.94 1.06
-12 4 9 0.23 0.59
11 -4 -9 -0.03 0.74
11 -4 -9 1.03 1.04
11 -4 -9 0.08 1.12
11 -4 -9 2.77 0.68
11 -4 -9 1.91 1.07
11 4 -9 -0.81 0.64
11 4 -9 1.71 0.93
11 4 -9 0.13 0.86
-11 4 9 0.7 1.07
11 4 -9 0.93 1.13
-11 4 9 1.06 0.6
11 4 -9 1.05 0.88
11 4 -9 2.41 1.06
10 -4 -9 1.56 0.72
10 -4 -9 -0.27 0.53
10 -4 -9 1.51 0.88
10 -4 -9 -0.02 0.96
10 4 -9 0.61 0.79
10 4 -9 0.86 0.51
10 4 -9 1.49 0.78
-10 4 9 -0.45 0.57
-10 4 9 0.38 0.87
10 4 -9 -0.34 0.69
10 4 -9 -0.38 0.85
10 4 -9 -0.23 0.66
9 -4 -9 11.4 1.03
9 -4 -9 11.81 0.95
9 -4 -9 10.5 0.99
9 -4 -9 10.12 1.12
9 4 -9 10.17 0.91
9 4 -9 10.94 0.8
9 4 -9 14.56 0.8
9 4 -9 13.06 1.18
-9 4 9 11.65 1.02
-9 4 9 13 1.01
9 4 -9 12.16 0.96
-8 -4 9 9.93 0.86
8 -4 -9 9.29 1.05
8 -4 -9 12 0.91
8 -4 -9 9.41 1.46
-8 4 9 8.22 0.77
8 4 -9 11.66 0.63
-8 4 9 8.09 0.85
-8 4 9 9.09 0.67
8 4 -9 8 0.77
8 4 -9 10.6 0.79
8 4 -9 10.85 0.83
8 4 -9 10.31 0.92
-8 4 9 10.28 0.86
8 4 -9 8.1 0.71
7 -4 -9 4.82 0.64
7 -4 -9 5.32 0.76
7 -4 -9 4.26 0.64
-7 -4 9 5.2 0.45
-7 -4 9 4.42 0.49
-7 -4 9 4.77 0.53
-7 -4 9 4.4 0.69
7 -4 -9 3.94 0.77
7 4 -9 4.26 0.52
7 4 -9 4.4 0.53
7 4 -9 5.56 0.62
7 4 -9 4.6 0.43
7 4 -9 4.41 0.47
-7 4 9 5.12 0.69
7 4 -9 4 0.59
-7 4 9 4.46 0.4
-6 -4 9 15.52 0.78
-6 -4 9 16.68 0.78
6 -4 -9 15.58 0.87
6 -4 -9 16.2 1.02
6 -4 -9 16.39 1
-6 -4 9 17.34 0.98
-6 -4 9 16.43 0.74
6 -4 -9 15.12 1.09
-6 4 9 15.87 0.93
-6 4 9 17.31 0.94
6 4 -9 17.14 0.9
6 4 -9 15.87 0.73
-6 4 9 16.49 1.03
6 4 -9 15.32 0.99
-6 4 9 16.69 0.67
6 4 -9 16.68 0.86
5 -4 -9 0.06 0.42
5 -4 -9 0.63 0.4
-5 -4 9 -0.03 0.32
5 -4 -9 0.32 0.36
-5 -4 9 0.04 0.26
-5 -4 9 -0.33 0.36
-5 -4 9 -0.32 0.4
5 -4 -9 0.41 0.4
-5 -4 9 0.05 0.27
-5 4 9 -0.04 0.41
-5 4 9 -0.12 0.27
5 4 -9 0.02 0.46
5 4 -9 0.43 0.35
5 4 -9 0.19 0.42
-5 4 9 -0.41 0.28
-5 4 9 0.3 0.41
5 4 -9 -0.16 0.27
-5 4 9 -0.08 0.42
-4 -4 9 5.42 0.41
-4 -4 9 5.65 0.44
4 -4 -9 4.84 0.44
-4 -4 9 5.54 0.58
-4 -4 9 5.63 0.71
4 -4 -9 5.04 0.25
-4 -4 9 5.78 0.52
4 -4 -9 5.33 0.7
4 -4 -9 5.03 0.66
4 -4 -9 4.15 0.5
4 4 -9 5.66 0.53
4 4 -9 6.64 0.89
-4 4 9 5.82 0.77
-4 4 9 5.3 0.61
-4 4 9 5.77 0.55
4 4 -9 4.86 0.47
4 4 -9 4.8 0.54
-4 4 9 5.26 0.52
3 -4 -9 0.19 0.14
3 -4 -9 0.19 0.34
3 -4 -9 0.26 0.39
-3 -4 9 0.26 0.19
-3 -4 9 0.44 0.35
3 -4 -9 0.03 0.28
-3 -4 9 -0.15 0.35
-3 -4 9 0.33 0.33
3 -4 -9 0.4 0.36
-3 -4 9 0.04 0.29
-3 4 9 0.85 0.37
-3 4 9 0.17 0.34
-3 4 9 0.27 0.37
-3 4 9 0.43 0.42
3 4 -9 0.22 0.34
3 4 -9 0.32 0.35
3 4 -9 0.33 0.48
3 4 -9 0.35 0.28
-2 -4 9 15.94 1.02
2 -4 -9 17.72 1.07
-2 -4 9 16.97 0.8
-2 -4 9 18.23 0.77
2 -4 -9 16.05 1.01
2 -4 -9 15.82 0.86
2 -4 -9 16.53 0.5
-2 -4 9 16.88 0.89
-2 4 9 17.17 0.75
-2 4 9 15.77 0.97
-2 4 9 15.86 0.8
2 4 -9 16.29 0.89
2 4 -9 18.22 0.73
2 4 -9 15.07 1.19
-2 4 9 17.32 1.02
-1 -4 9 0.44 0.31
1 -4 -9 0 0.31
-1 -4 9 0.44 0.36
-1 -4 9 0.19 0.33
-1 -4 9 -0.27 0.37
1 -4 -9 0.14 0.39
-1 4 9 0.32 0.36
1 4 -9 0.48 0.18
1 4 -9 0.17 0.29
-1 4 9 0.12 0.35
-1 4 9 -0.11 0.37
1 4 -9 -0.34 0.28
-1 4 9 0.89 0.38
1 4 -9 -0.04 0.48
0 -4 9 43.73 1.58
0 -4 -9 43.42 1.7
0 -4 9 42.69 1.78
0 -4 -9 43.67 1.82
0 -4 -9 42.28 1.36
0 -4 9 43.04 1.35
0 4 9 43.17 1.63
0 4 -9 43.11 1.92
0 4 9 42.83 1.05
0 4 9 43.5 1.66
0 4 -9 43.58 1.15
0 4 -9 43.77 1.06
0 4 9 44.44 1.22
0 4 -9 44.36 1.57
0 4 9 42.99 1.3
1 -4 9 3.56 0.59
1 -4 9 3.72 0.53
-1 -4 -9 3.26 0.53
-1 -4 -9 4.09 0.83
1 -4 9 3.03 0.62
-1 -4 -9 3.65 0.58
1 4 9 4.51 0.66
-1 4 -9 4.32 0.35
-1 4 -9 4.1 0.33
-1 4 -9 4.87 0.97
-1 4 -9 4.45 0.62
1 4 9 4.52 0.65
1 4 9 3.29 0.38
1 4 9 3.64 0.33
1 4 9 3.66 0.51
-2 -4 -9 6.51 0.86
2 -4 9 4.92 0.9
2 -4 9 6.44 0.69
2 -4 9 7 0.78
-2 -4 -9 5.42 0.53
-2 -4 -9 6.01 0.96
-2 4 -9 5.54 0.74
-2 4 -9 5.27 0.44
2 4 9 6.56 0.51
2 4 9 6.19 0.58
2 4 9 6.09 0.83
2 4 9 5.44 0.77
-2 4 -9 5.99 0.43
2 4 9 6.6 0.47
-2 4 -9 4.68 0.9
3 -4 9 8.93 1.21
-3 -4 -9 9.13 0.79
3 -4 9 10.18 1.01
3 -4 9 11.06 0.9
-3 -4 -9 12.13 1.34
3 4 9 9.68 0.68
3 4 9 8.7 1.14
-3 4 -9 7.68 0.93
-3 4 -9 9.84 0.67
3 4 9 11.62 1.13
3 4 9 10.92 0.96
-3 4 -9 9.55 0.4
-3 4 -9 9.45 1.23
3 4 9 9.77 0.62
-4 -4 -9 0.74 0.37
4 -4 9 1.65 0.64
-4 -4 -9 0.77 0.88
4 -4 9 1.68 0.63
-4 -4 -9 2.38 0.59
4 4 9 0.94 0.64
-4 4 -9 1.96 0.6
4 4 9 0.49 0.46
4 4 9 1 0.34
-4 4 -9 1.28 0.89
4 4 9 1.3 0.54
-4 4 -9 1.37 0.46
4 4 9 1.82 0.63
5 -4 9 5.61 1.04
-5 -4 -9 7.76 1.38
-5 -4 -9 7.13 0.82
5 -4 9 8.05 1.02
-5 -4 -9 6.92 0.55
-5 -4 -9 6.02 0.92
5 4 9 6.95 0.57
-5 4 -9 6 0.67
5 4 9 6.94 0.73
5 4 9 7.62 1
5 4 9 8.26 1.06
-5 4 -9 8.58 1.47
5 4 9 6.31 0.81
-6 -4 -9 0.16 0.82
-6 -4 -9 0.04 0.52
-6 -4 -9 0.38 1.17
6 -4 9 -0.84 0.82
6 -4 9 0.54 0.63
-6 -4 -9 0.24 0.69
6 4 9 0.2 0.28
-6 4 -9 1.28 1.22
-6 4 -9 -0.66 0.78
6 4 9 1.04 0.87
-6 4 -9 0.75 0.71
6 4 9 1.12 0.73
6 4 9 -0.89 0.76
6 4 9 0.25 0.63
-6 4 -9 0.18 0.66
7 -4 9 2.88 0.89
-7 -4 -9 0.87 0.68
-7 -4 -9 6.13 1.07
7 -4 9 5.94 1.38
-7 -4 -9 3.74 0.95
-7 -4 -9 -0.95 1.33
-7 4 -9 5.64 1.09
7 4 9 4.09 1.11
7 4 9 3.9 0.9
-7 4 -9 4.68 0.96
-7 4 -9 2.57 1.83
7 4 9 6.44 1.05
7 4 9 6.86 1.12
-7 4 -9 4.16 0.91
8 -4 9 -1.22 1.23
-8 -4 -9 -0.33 1.57
-8 -4 -9 -1.09 1.23
8 -4 9 2.6 1.04
-8 -4 -9 -0.94 1.06
-8 -4 -9 -0.67 0.85
8 4 9 1.71 1.36
8 4 9 1 0.88
8 4 9 1.61 1.15
-8 4 -9 2.5 1.23
8 4 9 0.81 1.04
-8 4 -9 0.33 1.87
12 -5 -9 1.66 1.52
12 -5 -9 -0.73 0.81
-12 5 9 0.27 1.37
12 5 -9 -0.08 1.08
12 5 -9 0.04 1.32
12 5 -9 3.88 0.96
12 5 -9 1.34 1.35
-12 5 9 1.42 0.81
12 5 -9 1.1 1.12
11 -5 -9 0.97 1.25
11 -5 -9 3.71 0.93
11 -5 -9 2.46 0.81
11 -5 -9 0.96 1.1
11 5 -9 -0.05 0.91
11 5 -9 4.37 1.09
-11 5 9 2.62 1.14
11 5 -9 1.48 0.89
11 5 -9 0.99 1.06
-11 5 9 3.1 0.77
11 5 -9 1.05 1.03
-11 5 9 -0.9 0.84
11 5 -9 2.67 0.73
10 -5 -9 1.65 0.89
10 -5 -9 1.82 0.65
10 -5 -9 1.46 1.02
10 -5 -9 1.97 0.89
10 5 -9 0.11 0.71
10 5 -9 0.54 0.93
10 5 -9 2.82 0.89
-10 5 9 2.47 0.64
-10 5 9 -0.15 0.68
-10 5 9 1.41 0.95
10 5 -9 1.03 0.59
10 5 -9 2.41 0.85
10 5 -9 1.91 0.71
9 -5 -9 -0.45 0.74
9 -5 -9 -0.6 0.65
9 -5 -9 -0.84 0.81
9 -5 -9 0.81 0.52
9 5 -9 -0.23 0.53
9 5 -9 0.66 0.76
-9 5 9 -0.12 0.76
-9 5 9 0.11 0.65
9 5 -9 0.6 0.71
-9 5 9 1.09 0.68
9 5 -9 -0.2 0.72
9 5 -9 -0.31 0.58
-8 -5 9 -0.57 0.66
8 -5 -9 0.32 0.68
8 -5 -9 0.25 0.48
8 -5 -9 -0.92 0.56
8 5 -9 -0.24 0.65
8 5 -9 0.32 0.42
-8 5 9 0.15 0.7
8 5 -9 -0.05 0.29
8 5 -9 -0.51 0.47
-8 5 9 0.23 0.59
8 5 -9 0.81 0.61
8 5 -9 -0.34 0.55
-7 -5 9 3.77 0.47
7 -5 -9 5.2 0.77
7 -5 -9 5.52 0.85
-7 -5 9 7.21 0.56
-7 -5 9 5.94 0.75
-7 -5 9 5.83 0.52
7 -5 -9 5.72 0.75
7 -5 -9 6.09 0.69
-7 5 9 5.76 0.72
7 5 -9 5.15 0.57
7 5 -9 6.09 0.69
-7 5 9 5.76 0.78
7 5 -9 4.8 0.61
-7 5 9 5.69 0.41
7 5 -9 6.29 0.57
-7 5 9 5.07 0.74
7 5 -9 6.14 0.47
-6 -5 9 1.2 0.57
6 -5 -9 0.55 0.49
6 -5 -9 1.55 0.48
-6 -5 9 0.23 0.27
-6 -5 9 1.31 0.47
-6 -5 9 0.92 0.37
-6 -5 9 1.19 0.39
6 -5 -9 0.64 0.43
6 -5 -9 0.21 0.57
6 5 -9 1.13 0.3
-6 5 9 0.77 0.45
6 5 -9 0.69 0.51
6 5 -9 0.55 0.3
6 5 -9 0.84 0.51
-6 5 9 0.75 0.5
-6 5 9 0.93 0.29
6 5 -9 0.22 0.41
-6 5 9 0.51 0.53
-5 -5 9 14.05 0.77
5 -5 -9 15.25 1.14
-5 -5 9 15.25 0.94
5 -5 -9 14.23 0.81
-5 -5 9 14.47 0.69
5 -5 -9 15.46 1.06
5 -5 -9 16.55 0.98
-5 -5 9 14.85 0.75
-5 -5 9 15.39 0.94
-5 5 9 15.73 0.92
5 5 -9 14.05 1.13
5 5 -9 15.31 0.87
5 5 -9 14.45 0.92
5 5 -9 15.05 0.82
-5 5 9 15.38 0.64
5 5 -9 14.43 0.57
5 5 -9 14.72 0.76
-5 5 9 15.27 0.93
-5 5 9 16.16 1.13
-5 5 9 15.65 0.98
4 -5 -9 0.41 0.35
-4 -5 9 0.05 0.25
4 -5 -9 0.01 0.39
4 -5 -9 0.12 0.15
-4 -5 9 0.39 0.38
4 -5 -9 0.28 0.47
4 -5 -9 0.08 0.45
-4 -5 9 0.27 0.34
-4 -5 9 -0.07 0.25
-4 -5 9 -0.96 0.37
4 5 -9 0.4 0.52
-4 5 9 0.36 0.31
-4 5 9 -0.19 0.44
4 5 -9 -0.01 0.37
-4 5 9 0.82 0.42
-4 5 9 0.01 0.45
4 5 -9 -0.07 0.26
4 5 -9 0.36 0.37
-3 -5 9 24.19 1.07
3 -5 -9 23.96 1.29
3 -5 -9 24.14 1.22
-3 -5 9 24.15 1.23
-3 -5 9 23.96 0.92
3 -5 -9 23.91 0.67
-3 -5 9 24.75 1.01
-3 -5 9 23.47 0.75
3 -5 -9 25 0.86
3 -5 -9 24.57 1.04
-3 5 9 24.45 0.98
-3 5 9 25.77 1.32
3 5 -9 25.44 1.07
3 5 -9 24.5 0.94
3 5 -9 26.03 1.38
-3 5 9 24.43 0.99
-3 5 9 24.07 1.18
-2 -5 9 -0.27 0.3
2 -5 -9 -0.14 0.26
-2 -5 9 0.33 0.41
-2 -5 9 0.27 0.4
-2 -5 9 -0.09 0.35
2 -5 -9 -0.06 0.19
2 -5 -9 -0.12 0.41
2 -5 -9 0.69 0.39
2 -5 -9 0.22 0.4
-2 5 9 -0.2 0.38
2 5 -9 0.39 0.35
-2 5 9 -0.15 0.36
-2 5 9 0.29 0.38
2 5 -9 -0.68 0.5
2 5 -9 -0.03 0.31
-2 5 9 0.32 0.46
-1 -5 9 29.14 1.08
1 -5 -9 30.45 1.14
-1 -5 9 30.39 1.28
-1 -5 9 32.15 1.51
1 -5 -9 30.11 0.86
1 -5 -9 28.99 1.42
1 -5 -9 30.44 1.43
-1 -5 9 28.64 1.05
1 5 -9 29.79 0.74
-1 5 9 30.56 1.37
1 5 -9 28.81 1.57
-1 5 9 31.52 1.07
-1 5 9 30.59 1.04
1 5 -9 31.4 0.98
1 5 -9 29.15 1.27
-1 5 9 27.88 1.37
0 -5 9 27.08 1.51
0 -5 -9 28.53 1.43
0 -5 9 29.12 1.3
0 -5 9 28.25 1.13
0 -5 9 28.92 1.05
0 -5 -9 28.26 1.13
0 5 -9 27.2 1.24
0 5 9 28.5 1.36
0 5 9 29.7 1.37
0 5 -9 27.49 1.63
0 5 -9 28.3 0.91
0 5 -9 28.32 0.75
0 5 9 27.73 1.03
1 -5 9 11.24 1.18
-1 -5 -9 13.5 0.95
-1 -5 -9 13.36 1.34
1 -5 9 12.73 0.97
1 -5 9 12.54 0.81
-1 -5 -9 12.92 1.1
1 -5 9 12.44 0.96
-1 5 -9 13.21 0.97
-1 5 -9 11.06 1.36
-1 5 -9 12.16 0.63
1 5 9 12.53 1.03
1 5 9 12.99 0.86
1 5 9 11.88 0.97
1 5 9 12.32 0.56
-1 5 -9 11.98 0.54
-2 -5 -9 22.54 1.53
2 -5 9 22.57 1.23
2 -5 9 21.75 1.51
2 -5 9 22.52 1.27
-2 -5 -9 21.43 1.55
-2 5 -9 21.27 0.73
2 5 9 21.33 0.81
-2 5 -9 20.93 1.72
-2 5 -9 22.32 0.78
-2 5 -9 21.07 1.21
2 5 9 22.51 1.05
2 5 9 22.47 1.26
2 5 9 21.69 1.32
3 -5 9 10.84 1.3
-3 -5 -9 10.38 0.88
-3 -5 -9 11.54 1.5
3 -5 9 10.86 0.88
3 5 9 10.68 0.72
-3 5 -9 10.99 1.03
3 5 9 9.92 0.76
3 5 9 11.42 1.13
-3 5 -9 11.32 0.5
-3 5 -9 11.49 1.58
3 5 9 10 1.01
-3 5 -9 10.45 0.71
-4 -5 -9 7.01 1.23
4 -5 9 3.85 1.08
-4 -5 -9 5.19 0.42
4 -5 9 4.98 0.8
-4 -5 -9 4.42 0.67
4 5 9 4.81 0.85
4 5 9 4.83 0.66
-4 5 -9 4.16 0.74
-4 5 -9 6.46 1.27
-4 5 -9 4.71 0.54
4 5 9 5.35 0.83
4 5 9 4.32 0.73
-5 -5 -9 4.59 1.25
5 -5 9 2.41 0.86
-5 -5 -9 3.56 0.74
5 -5 9 4.03 0.86
-5 -5 -9 3.88 0.78
-5 5 -9 3.22 1.27
-5 5 -9 3.19 0.6
5 5 9 3.63 0.87
5 5 9 3.15 0.78
5 5 9 3.94 0.76
6 -5 9 -0.45 0.75
-6 -5 -9 0.18 0.78
6 -5 9 -0.93 1.01
-6 -5 -9 -0.24 0.5
-6 -5 -9 -0.25 0.73
-6 -5 -9 -1.32 1.11
6 5 9 1.24 0.85
-6 5 -9 0.95 0.73
-6 5 -9 0.42 1.52
6 5 9 0.95 0.71
6 5 9 -0.68 0.73
-6 5 -9 0.07 0.87
-6 5 -9 -0.32 0.7
6 5 9 0.65 0.69
7 -5 9 0.93 1.1
7 -5 9 0.23 0.86
-7 -5 -9 0.26 0.64
-7 -5 -9 -0.84 1.07
-7 -5 -9 0.8 1.03
7 5 9 0.85 0.4
7 5 9 0.68 0.93
7 5 9 0.18 0.33
-7 5 -9 0.42 0.88
7 5 9 -1.16 1
7 5 9 0.21 0.85
-7 5 -9 2.17 1.72
-7 5 -9 -0.74 1.04
7 5 9 1.13 0.88
-8 -5 -9 -1.47 1.73
-8 -5 -9 -1.15 1.2
8 -5 9 3.72 1.44
8 -5 9 1.95 1.02
-8 -5 -9 -0.67 0.84
-8 -5 -9 -1.24 1.33
8 5 9 0.44 1.15
8 5 9 -0.67 0.95
-8 5 -9 0.28 2.13
8 5 9 -0.5 1
-8 5 -9 -0.52 1.32
8 5 9 2.79 1.32
11 -6 -9 4.86 1.38
11 -6 -9 3.67 1.34
11 -6 -9 4.5 0.97
11 -6 -9 3.81 1.18
11 6 -9 4.06 0.82
-11 6 9 2.67 0.84
11 6 -9 4.26 0.94
11 6 -9 2.8 1.21
11 6 -9 2.56 1.13
-11 6 9 2.61 1.29
11 6 -9 4.17 1.2
11 6 -9 4.03 0.95
10 -6 -9 0 0.74
10 -6 -9 -0.45 1.12
10 -6 -9 1.95 1.02
10 -6 -9 0.34 0.87
10 6 -9 -0.65 0.58
10 6 -9 1.11 0.99
10 6 -9 -1.12 0.69
-10 6 9 -0.6 0.64
-10 6 9 0.33 0.8
10 6 -9 0.59 0.91
-10 6 9 -0.79 0.95
10 6 -9 -1.01 0.99
10 6 -9 0.29 0.7
9 -6 -9 0.97 0.62
9 -6 -9 1.89 0.87
9 -6 -9 0.38 0.83
9 -6 -9 1.84 0.92
9 6 -9 1.72 0.57
-9 6 9 0.07 0.89
-9 6 9 0.86 0.71
9 6 -9 1.34 0.59
-9 6 9 1.02 0.66
9 6 -9 2.41 0.48
9 6 -9 2.32 0.84
9 6 -9 1.65 0.89
9 6 -9 1.34 0.75
8 -6 -9 0.25 0.67
8 -6 -9 0.07 0.65
8 -6 -9 0.26 0.55
8 -6 -9 0.11 0.74
-8 -6 9 -0.74 0.72
8 6 -9 0.14 0.61
-8 6 9 -0.11 0.71
8 6 -9 0.14 0.51
-8 6 9 0.62 0.58
-8 6 9 0.49 0.68
8 6 -9 0.25 0.69
8 6 -9 0.28 0.63
8 6 -9 0.82 0.45
7 -6 -9 -0.35 0.59
-7 -6 9 0.04 0.28
-7 -6 9 -0.19 0.47
-7 -6 9 0.05 0.67
7 -6 -9 0.62 0.58
7 -6 -9 1.08 0.69
7 -6 -9 0.73 0.55
7 6 -9 -0.2 0.51
7 6 -9 -0.26 0.43
-7 6 9 0.3 0.27
-7 6 9 0.07 0.64
-7 6 9 0.23 0.62
7 6 -9 -0.19 0.32
7 6 -9 -0.13 0.54
7 6 -9 -0.18 0.35
-6 -6 9 0.88 0.46
6 -6 -9 0.24 0.46
6 -6 -9 0.54 0.49
-6 -6 9 0.94 0.31
6 -6 -9 1.02 0.59
-6 -6 9 0.44 0.61
6 -6 -9 -0.64 0.54
-6 -6 9 0.72 0.44
-6 -6 9 0.86 0.38
6 6 -9 -0.14 0.3
6 6 -9 0.74 0.43
-6 6 9 0.4 0.56
-6 6 9 0.54 0.28
-6 6 9 1.19 0.45
-6 6 9 0.44 0.53
6 6 -9 0.83 0.53
6 6 -9 0.78 0.54
6 6 -9 0.32 0.27
-6 6 9 0.72 0.55
5 -6 -9 15.3 0.86
-5 -6 9 16.08 1
5 -6 -9 16.42 1.1
-5 -6 9 13.94 0.82
-5 -6 9 14.8 0.76
5 -6 -9 16.59 1.27
-5 -6 9 14.67 0.74
-5 -6 9 14.58 1.01
5 -6 -9 14.03 1.05
-5 6 9 13.69 0.99
-5 6 9 13.94 0.95
-5 6 9 14.82 1.19
-5 6 9 16.3 1.23
5 6 -9 15.07 0.93
5 6 -9 14.85 0.81
5 6 -9 16.26 1.18
5 6 -9 14.14 0.52
5 6 -9 13.98 0.81
-5 6 9 13.94 0.63
4 -6 -9 10.66 0.7
4 -6 -9 9.81 0.45
-4 -6 9 10.49 0.7
4 -6 -9 9.5 1.04
-4 -6 9 10.55 0.95
-4 -6 9 10.31 0.74
-4 -6 9 9.35 0.6
4 -6 -9 10.27 0.92
-4 -6 9 9.76 0.85
4 -6 -9 10.56 0.96
-4 6 9 9.72 1.05
4 6 -9 9.99 1.07
4 6 -9 9.71 0.72
-4 6 9 10.3 0.85
4 6 -9 10.59 0.8
4 6 -9 10.17 0.37
-4 6 9 9.6 0.85
-4 6 9 11.01 1.41
-3 -6 9 10.63 0.57
3 -6 -9 9.94 1.05
3 -6 -9 10.58 0.48
-3 -6 9 11.82 1
-3 -6 9 11.27 0.74
-3 -6 9 11.9 0.85
3 -6 -9 11.22 0.88
-3 -6 9 11.27 0.84
3 -6 -9 10.99 1.02
3 -6 -9 11.44 0.66
3 6 -9 11.06 0.33
-3 6 9 12.39 0.83
3 6 -9 10.56 0.78
-3 6 9 12.13 1.11
3 6 -9 9.92 1.15
3 6 -9 10.53 0.79
-3 6 9 10.06 0.79
-3 6 9 11.53 0.93
2 -6 -9 13.58 1.12
-2 -6 9 13.67 0.86
-2 -6 9 12.67 0.78
-2 -6 9 13.21 0.9
2 -6 -9 13.25 0.92
2 -6 -9 14.11 0.65
-2 -6 9 14.19 1.1
2 -6 -9 13.19 0.57
2 -6 -9 12.7 1.04
2 6 -9 11.52 1.22
2 6 -9 12.73 0.85
-2 6 9 13.7 0.98
-2 6 9 13.28 1.08
2 6 -9 14.64 0.81
-2 6 9 13.42 0.84
2 6 -9 13.32 0.34
-2 6 9 13.4 0.83
1 -6 -9 1.54 0.31
-1 -6 9 1.96 0.64
1 -6 -9 1.69 0.3
-1 -6 9 1.9 0.44
1 -6 -9 2.06 0.53
1 -6 -9 2.52 0.58
1 -6 -9 1.82 0.51
-1 -6 9 1.34 0.45
-1 -6 9 1.97 0.51
-1 6 9 0.82 0.4
1 6 -9 1.86 0.46
1 6 -9 2.3 0.77
1 6 -9 1.53 0.16
1 6 -9 1.61 0.42
-1 6 9 2.25 0.55
-1 6 9 1.81 0.5
0 -6 9 1.22 0.66
0 -6 -9 1.75 0.57
0 -6 -9 0.85 0.5
0 -6 -9 2.23 0.38
0 -6 9 1.22 0.52
0 -6 9 1.04 0.44
0 -6 -9 2.72 0.61
0 -6 9 1.86 0.49
0 -6 -9 1.96 0.27
0 6 -9 1.86 0.51
0 6 -9 1.75 0.21
0 6 -9 1.71 0.39
0 6 9 1.73 0.53
0 6 9 1.03 0.41
0 6 -9 0.92 0.73
0 6 9 2.2 0.65
1 -6 9 14.19 1.08
-1 -6 -9 12.64 1.26
-1 -6 -9 14.88 1.02
1 -6 9 15.09 0.89
1 -6 9 15.95 1.08
-1 6 -9 14.87 1.02
-1 6 -9 14.6 0.56
1 6 9 14.8 0.89
1 6 9 14.75 0.62
1 6 9 16 1.15
-1 6 -9 14.85 0.73
-1 6 -9 14.23 1.5
1 6 9 16.19 1.14
2 -6 9 -0.48 0.44
-2 -6 -9 0.24 0.67
2 -6 9 0.43 0.46
2 -6 9 -0.57 0.59
-2 6 -9 -0.25 0.77
-2 6 -9 -0.06 0.33
2 6 9 0.18 0.49
-2 6 -9 0.37 0.31
-2 6 -9 -0.5 0.74
2 6 9 0.37 0.5
2 6 9 0.36 0.54
2 6 9 0.19 0.31
3 -6 9 5.44 1.01
-3 -6 -9 4.73 1
3 -6 9 4.67 0.85
3 -6 9 4.68 0.86
-3 -6 -9 4.23 0.66
3 6 9 5.16 0.54
-3 6 -9 3.94 1.04
3 6 9 4.93 0.73
3 6 9 4.41 0.65
-3 6 -9 4.85 0.4
-3 6 -9 5.71 0.74
-3 6 -9 4.66 0.47
3 6 9 5.91 0.85
-4 -6 -9 0.02 0.95
-4 -6 -9 -0.01 0.28
4 -6 9 -0.03 0.87
4 -6 9 -0.16 0.62
-4 -6 -9 0.97 0.66
-4 -6 -9 -0.65 0.6
4 6 9 1.04 0.65
-4 6 -9 0.03 0.26
-4 6 -9 -0.62 1.11
4 6 9 -0.05 0.47
-4 6 -9 -0.23 0.61
4 6 9 -0.11 0.62
4 6 9 0.39 0.57
-5 -6 -9 -0.09 0.74
5 -6 9 0.89 0.63
5 -6 9 -0.22 0.8
-5 -6 -9 0.1 0.74
-5 -6 -9 0.07 0.36
-5 -6 -9 0.11 1.13
-5 6 -9 -0.2 1.15
5 6 9 0.57 0.7
5 6 9 1.25 0.69
-5 6 -9 0.84 0.73
5 6 9 0.13 0.72
-6 -6 -9 0.25 1.24
6 -6 9 -0.98 1.12
-6 -6 -9 -0.28 0.84
-6 -6 -9 0.52 0.95
6 -6 9 -1 0.76
-6 -6 -9 0.01 0.44
6 6 9 0.14 0.69
-6 6 -9 -0.79 0.74
-6 6 -9 -1.14 0.89
6 6 9 1.09 0.7
6 6 9 -1.65 0.69
6 6 9 -1.24 0.85
-6 6 -9 0.15 1.53
-7 -6 -9 2.58 1.58
7 -6 9 2.26 0.97
-7 -6 -9 -0.6 1.09
-7 -6 -9 2.05 1.18
-7 -6 -9 0.21 0.61
7 -6 9 0.31 1.28
-7 6 -9 1.68 1.86
-7 6 -9 -0.85 1.14
7 6 9 1.29 0.93
-7 6 -9 -1.16 0.9
7 6 9 0.78 0.91
7 6 9 0.29 1.08
7 6 9 0.84 0.82
-8 -6 -9 2.06 1.19
8 -6 9 4.28 1.77
-8 -6 -9 1.13 2.02
-8 -6 -9 2.62 1.63
8 -6 9 3 1.26
-8 6 -9 2.52 1.43
8 6 9 1.65 1
8 6 9 -0.08 1.02
8 6 9 1.58 1.4
-8 6 -9 5.48 2.35
11 -7 -9 -1.06 0.93
11 -7 -9 0.28 1.51
11 -7 -9 -1.1 1.16
11 7 -9 3.09 1.23
-11 7 9 -0.09 1.17
-11 7 9 -2.06 0.84
-11 7 9 -0.62 1.28
11 7 -9 1.63 0.79
11 7 -9 2.48 0.96
11 7 -9 0.13 0.85
10 -7 -9 1.82 1.26
10 -7 -9 2.73 1.13
10 -7 -9 2.71 0.94
10 -7 -9 2.97 1.06
-10 7 9 2.8 1.14
10 7 -9 3.8 1.09
10 7 -9 3.06 0.75
-10 7 9 1.23 1.03
10 7 -9 2.61 1.01
10 7 -9 2.3 0.77
10 7 -9 4.37 0.7
10 7 -9 3.07 1.1
-10 7 9 1.96 0.87
9 -7 -9 1.37 0.97
9 -7 -9 1.86 0.73
9 -7 -9 1.82 0.99
9 -7 -9 3.11 0.83
9 7 -9 1.95 0.82
-9 7 9 3.44 0.96
-9 7 9 0.56 0.73
9 7 -9 2.5 0.6
9 7 -9 2.1 0.93
9 7 -9 1.76 0.62
-9 7 9 -0.28 0.93
9 7 -9 3.67 0.96
-8 -7 9 1.6 0.83
8 -7 -9 2.4 0.72
8 -7 -9 3.05 0.88
8 -7 -9 2.51 0.89
8 -7 -9 2.64 0.73
-8 7 9 2.87 0.85
8 7 -9 2.56 0.54
-8 7 9 2.98 0.91
-8 7 9 1.98 0.72
8 7 -9 2.56 0.78
8 7 -9 2.98 0.48
8 7 -9 3.67 0.81
8 7 -9 2.43 0.43
8 7 -9 2.75 0.55
7 -7 -9 2.98 0.78
7 -7 -9 3.2 0.78
-7 -7 9 4 0.83
7 -7 -9 2.13 0.79
7 -7 -9 4.04 0.76
-7 -7 9 4.77 0.66
-7 -7 9 3.94 0.61
7 7 -9 3.39 0.52
7 7 -9 3.78 0.71
7 7 -9 3.59 0.67
7 7 -9 3.86 0.41
-7 7 9 4.43 0.81
-7 7 9 4.88 0.78
-7 7 9 3.73 0.91
6 -7 -9 0.04 0.58
-6 -7 9 0.48 0.66
-6 -7 9 1.15 0.53
-6 -7 9 0.86 0.38
-6 -7 9 1.39 0.51
6 -7 -9 1.33 0.64
6 -7 -9 1.68 0.7
6 -7 -9 1.18 0.63
-6 7 9 1.04 0.28
6 7 -9 0.68 0.27
-6 7 9 0.68 0.64
6 7 -9 1.3 0.4
6 7 -9 0.28 0.43
-6 7 9 1.38 0.72
-6 7 9 1.32 0.65
6 7 -9 1.52 0.63
5 -7 -9 -0.45 0.63
-5 -7 9 -0.51 0.48
5 -7 -9 -0.54 0.44
-5 -7 9 0.51 0.42
5 -7 -9 -0.42 0.87
-5 -7 9 0.3 0.36
-5 -7 9 0.53 0.36
5 -7 -9 -0.45 0.43
-5 -7 9 0.39 0.53
-5 7 9 -0.62 0.53
-5 7 9 -0.89 0.52
5 7 -9 0.32 0.6
5 7 -9 -0.03 0.34
5 7 -9 -0.43 0.54
-5 7 9 0.96 0.68
5 7 -9 -0.22 0.18
4 -7 -9 13.57 1.88
4 -7 -9 14.56 0.8
-4 -7 9 13.47 0.75
4 -7 -9 13.85 0.58
4 -7 -9 15.54 1.08
-4 -7 9 13.78 1.69
-4 -7 9 14.38 0.75
-4 -7 9 13.69 0.89
4 -7 -9 13.55 1.28
-4 7 9 14.21 1.18
-4 7 9 13.93 1.03
4 7 -9 13.47 0.93
4 7 -9 14.68 1.29
4 7 -9 14.12 0.88
-4 7 9 10.56 1.12
-3 -7 9 2.07 0.47
3 -7 -9 0.65 0.47
3 -7 -9 1 0.52
-3 -7 9 0.92 0.33
-3 -7 9 2.01 0.57
-3 -7 9 1.7 0.43
3 -7 -9 1.17 0.37
3 -7 -9 1.01 0.3
3 -7 -9 1.06 0.64
3 7 -9 1.1 0.41
-3 7 9 1.41 0.45
-3 7 9 2.15 0.7
-3 7 9 0.86 0.52
3 7 -9 1.79 0.53
3 7 -9 0.97 0.73
-3 7 9 1.18 0.5
-2 -7 9 7.78 1
-2 -7 9 9.85 0.88
2 -7 -9 9.76 0.73
2 -7 -9 9.79 0.57
2 -7 -9 10.45 1.11
-2 -7 9 10.51 0.9
2 -7 -9 9.98 0.6
2 -7 -9 9.52 1.05
-2 -7 9 9.08 0.6
-2 -7 9 9.26 0.79
-2 7 9 9.79 0.98
-2 7 9 10.23 0.7
2 7 -9 9.08 1.26
2 7 -9 9.06 0.81
2 7 -9 9.91 0.82
-2 7 9 10.99 1.16
-1 -7 9 2.05 0.53
1 -7 -9 1.82 0.6
1 -7 -9 2.23 0.3
-1 -7 9 2.76 0.59
-1 -7 9 2.88 0.51
1 -7 -9 2.04 0.54
1 -7 -9 3.1 0.73
1 -7 -9 2.78 0.37
1 7 -9 2.55 0.84
-1 7 9 1.71 0.44
-1 7 9 1.64 0.56
1 7 -9 2.47 0.46
-1 7 9 3.32 0.65
1 7 -9 2.55 0.47
0 -7 -9 5.95 0.41
0 -7 -9 8.98 1.05
0 -7 9 7.01 0.89
0 -7 -9 6.89 1.01
0 -7 9 7.56 0.69
0 -7 9 4.81 0.84
0 -7 9 6.46 0.67
0 -7 -9 7.03 0.65
0 -7 -9 5.74 0.64
0 7 -9 6.32 0.55
0 7 9 5.88 0.59
0 7 -9 6.24 0.81
0 7 -9 8.47 1.29
0 7 9 5.26 0.81
-1 -7 -9 -0.69 0.51
1 -7 9 1.43 0.63
-1 -7 -9 1.1 0.59
-1 -7 -9 0.98 0.2
1 -7 9 0.93 0.5
-1 -7 -9 1.88 0.66
-1 -7 -9 1.05 0.44
1 -7 9 0.81 0.6
1 -7 9 2.82 0.84
-1 7 -9 0.73 0.44
1 7 9 0.54 0.45
1 7 9 -0.09 0.55
1 7 9 0.91 0.58
-1 7 -9 0.93 0.41
2 -7 9 4.07 0.82
2 -7 9 4.47 0.61
2 -7 9 3.41 0.75
2 -7 9 4.51 1.14
-2 -7 -9 5.35 1.16
2 7 9 2.76 0.62
2 7 9 4.73 0.83
-2 7 -9 4.42 1.01
-2 7 -9 2.93 0.61
2 7 9 4.56 0.44
2 7 9 3.85 0.58
-2 7 -9 3.88 0.47
3 -7 9 1.01 0.56
3 -7 9 -0.06 0.81
-3 -7 -9 -0.31 0.97
3 -7 9 0.98 0.64
-3 -7 -9 0.76 0.64
3 7 9 1.24 0.58
-3 7 -9 0.31 1.06
-3 7 -9 0.79 0.39
3 7 9 0.43 0.5
3 7 9 1.68 0.54
-3 7 -9 0.33 0.57
3 7 9 0.29 0.61
4 -7 9 0.6 0.73
4 -7 9 -0.71 0.81
-4 -7 -9 0.14 1.02
-4 -7 -9 0.68 0.73
-4 -7 -9 0.38 0.71
4 -7 9 0.22 0.62
4 7 9 0.53 0.49
4 7 9 -0.4 0.64
-4 7 -9 0.31 0.36
4 7 9 0.12 0.64
-4 7 -9 -1.09 0.59
4 7 9 -0.02 0.68
-4 7 -9 1.69 1.24
5 -7 9 0.97 0.93
5 -7 9 1.26 0.78
-5 -7 -9 1.22 0.89
-5 -7 -9 0.25 0.78
-5 -7 -9 1.34 1.25
5 7 9 0.96 0.7
5 7 9 1.23 0.76
-5 7 -9 1.16 1.48
5 7 9 0.35 0.8
5 7 9 0.4 0.76
-5 7 -9 0.89 0.81
-6 -7 -9 1.82 1.53
-6 -7 -9 1.83 1.09
6 -7 9 0.12 1.26
-6 -7 -9 2.27 0.97
6 -7 9 0.76 0.86
6 7 9 1.2 0.81
6 7 9 1.38 0.91
-6 7 -9 0.58 1.76
-6 7 -9 0.35 0.92
6 7 9 0.79 0.93
-6 7 -9 -0.36 1
6 7 9 0.17 0.91
-7 -7 -9 -2.56 1.6
7 -7 9 2.35 1.04
-7 -7 -9 0.61 1.23
7 -7 9 0.79 1.37
-7 -7 -9 1.05 1.14
-7 7 -9 0.37 1.27
-7 7 -9 1.67 2.09
7 7 9 0.76 0.92
7 7 9 0.87 1.03
7 7 9 -0.86 1.16
7 7 9 -1.32 0.97
11 8 -9 -0.33 1.24
10 -8 -9 0.24 0.9
10 -8 -9 -2.02 1.13
10 -8 -9 0.8 1.37
10 -8 -9 -0.6 1.19
10 8 -9 1.99 1.18
-10 8 9 -0.72 1.19
10 8 -9 0.72 0.72
10 8 -9 -0.02 0.69
10 8 -9 -0.06 1.07
10 8 -9 -0.43 1.28
-10 8 9 1.72 0.99
-10 8 9 -2.12 1.21
9 -8 -9 1.56 0.89
9 -8 -9 3.23 1.21
9 -8 -9 0.64 1.1
9 -8 -9 -1.73 0.83
-9 8 9 0.78 1.01
9 8 -9 -1.31 0.94
9 8 -9 -0.54 0.84
9 8 -9 0.57 0.58
-9 8 9 0.03 0.83
-9 8 9 0.31 1.02
9 8 -9 1.13 1.04
9 8 -9 0.5 0.57
8 -8 -9 -1.44 0.83
8 -8 -9 0.84 0.93
8 -8 -9 0.98 0.78
-8 -8 9 0.24 0.73
8 -8 -9 0.26 0.73
8 8 -9 -0.36 0.48
-8 8 9 0.17 0.96
8 8 -9 0.84 0.45
-8 8 9 0.27 0.8
8 8 -9 2 0.85
8 8 -9 0.65 0.57
8 8 -9 -0.24 0.84
8 8 -9 0.32 0.44
-8 8 9 1.44 0.9
-7 -8 9 -0.15 0.82
7 -8 -9 0.63 0.79
7 -8 -9 0.69 0.95
7 -8 -9 -0.34 0.62
-7 8 9 0.61 0.82
7 8 -9 0.32 0.77
-7 8 9 -0.76 0.61
-7 8 9 -0.03 0.76
7 8 -9 0.28 0.4
7 8 -9 0.28 0.78
7 8 -9 -0.36 0.63
7 8 -9 0.49 0.33
6 -8 -9 4.75 0.83
-6 -8 9 3.24 0.81
6 -8 -9 5.18 1.02
6 -8 -9 4.44 0.82
-6 -8 9 4.24 0.76
6 -8 -9 3.12 0.7
-6 -8 9 3.45 0.63
6 8 -9 3.74 0.57
6 8 -9 3.44 1.01
-6 8 9 4.84 0.81
6 8 -9 3.73 0.3
-6 8 9 3.13 0.9
6 8 -9 2.75 0.72
5 -8 -9 0.97 0.6
-5 -8 9 0.63 0.62
-5 -8 9 -0.2 0.66
-5 -8 9 0.52 0.36
-5 -8 9 0.7 0.39
5 -8 -9 0.84 0.66
5 -8 -9 0.28 0.48
-5 -8 9 1 0.47
5 -8 -9 0.53 0.68
-5 8 9 -0.06 0.63
-5 8 9 -0.12 0.58
5 8 -9 0.63 0.38
-5 8 9 1.09 0.77
-4 -8 9 1.25 0.45
-4 -8 9 0.74 0.64
4 -8 -9 -0.15 0.59
-4 -8 9 1.08 0.39
4 -8 -9 1.09 0.44
-4 -8 9 0.96 0.64
-4 -8 9 1.03 0.44
4 -8 -9 0.56 0.3
4 -8 -9 1.39 0.69
4 8 -9 0.09 0.77
4 8 -9 0.26 0.57
-4 8 9 1.41 0.67
-4 8 9 -0.27 0.63
4 8 -9 0.77 0.4
-4 8 9 0.14 0.55
-3 -8 9 1.69 0.46
-3 -8 9 1.73 0.59
-3 -8 9 1.02 0.39
3 -8 -9 1.91 0.82
3 -8 -9 1.62 0.35
3 -8 -9 1.28 0.39
-3 -8 9 1.42 0.61
-3 -8 9 1.71 0.52
3 -8 -9 1.96 0.63
3 -8 -9 1.66 0.61
3 8 -9 2.2 0.8
-3 8 9 1.47 0.69
-3 8 9 1.92 0.59
3 8 -9 1.29 0.53
3 8 -9 1.6 0.56
2 -8 -9 4.1 0.38
-2 -8 9 4.49 0.54
2 -8 -9 4.59 0.44
-2 -8 9 4.53 0.5
2 -8 -9 3.99 0.64
-2 -8 9 4.61 0.68
-2 -8 9 3.36 0.68
2 -8 -9 5.14 0.92
2 -8 -9 2.86 1.19
-2 -8 9 4.86 0.77
2 8 -9 3.9 0.65
2 8 -9 3.61 0.9
-2 8 9 3.81 0.56
-2 8 9 4.94 0.81
-2 8 9 4.34 0.86
1 -8 -9 2.35 0.67
1 -8 -9 2.28 0.61
-1 -8 9 2.45 0.56
1 -8 -9 1.94 0.42
1 -8 -9 2.39 0.3
1 -8 -9 1.67 0.69
-1 -8 9 2.02 0.56
-1 -8 9 1.72 0.55
-1 8 9 1.84 0.55
-1 8 9 2.41 0.53
1 8 -9 2.26 0.65
1 8 -9 2.33 0.86
-1 8 9 1.6 0.74
0 -8 -9 0.1 0.18
0 -8 -9 0.36 0.68
0 -8 -9 0.69 0.59
0 -8 -9 0.15 0.41
0 -8 -9 0.29 0.59
0 -8 9 -0.85 0.58
0 -8 9 0.31 0.52
0 -8 9 1.39 0.56
0 8 9 0.69 0.56
0 8 9 0.44 0.6
0 8 -9 0.48 0.88
0 8 -9 0.02 0.47
0 8 9 0.69 0.48
1 -8 9 -0.11 0.66
-1 -8 -9 0.32 0.61
1 -8 9 -0.34 0.55
1 -8 9 0.13 0.51
-1 -8 -9 -0.75 0.69
-1 -8 -9 -0.53 0.52
1 -8 9 -0.06 0.75
-1 -8 -9 -0.32 0.46
-1 8 -9 0 0.5
1 8 9 -0.64 0.48
1 8 9 0.69 0.53
1 8 9 -0.09 0.58
-1 8 -9 0.45 0.96
-2 -8 -9 0.73 0.56
2 -8 9 0.34 0.59
2 -8 9 -0.41 0.76
2 -8 9 1.08 0.63
2 -8 9 -0.23 0.75
-2 8 -9 -0.87 0.99
2 8 9 0.77 0.53
-2 8 -9 -0.17 0.49
2 8 9 1.27 0.62
2 8 9 -0.61 0.59
-3 -8 -9 0.37 0.7
3 -8 9 -0.38 0.62
3 -8 9 0.54 0.69
-3 -8 -9 -0.71 0.97
-3 -8 -9 0.13 0.73
3 -8 9 0.36 0.94
3 8 9 -0.88 0.42
-3 8 -9 0.2 0.55
-3 8 -9 -0.73 1.14
3 8 9 -0.13 0.59
3 8 9 1.15 0.6
3 8 9 -1.27 0.63
-4 -8 -9 1.75 0.9
-4 -8 -9 -1.03 0.78
4 -8 9 0.92 0.74
4 -8 9 -0.27 0.77
4 -8 9 0.87 1.03
-4 -8 -9 -0.24 1.18
4 8 9 0.59 0.63
-4 8 -9 0.04 0.77
-4 8 -9 1.15 1.3
4 8 9 -0.15 0.7
4 8 9 0.4 0.7
-4 8 -9 -0.05 0.44
4 8 9 -0.09 0.66
5 -8 9 -0.7 0.85
-5 -8 -9 -0.91 1.02
-5 -8 -9 0.77 1.32
5 -8 9 0.27 0.74
-5 -8 -9 0.07 0.93
5 -8 9 0.71 1.23
-5 8 -9 3.62 1.59
-5 8 -9 -0.02 0.42
5 8 9 -0.24 0.86
-5 8 -9 -1.96 0.79
5 8 9 -0.06 0.63
5 8 9 0.52 0.73
5 8 9 -0.35 0.8
-6 -8 -9 1.03 1.14
6 -8 9 1.92 0.87
6 -8 9 1.27 1.36
-6 -8 -9 -1.96 1.51
6 -8 9 0.98 1
-6 -8 -9 -0.04 1.11
6 8 9 -0.18 0.96
-6 8 -9 2.14 2
6 8 9 -0.26 0.79
6 8 9 -0.33 0.97
-6 8 -9 0.57 1.13
-6 8 -9 0.07 1.07
6 8 9 0.31 0.8
-7 -8 -9 -1.76 1.89
-7 -8 -9 -0.44 1.37
7 -8 9 0.66 1.88
7 -8 9 1.61 1.06
7 -8 9 1.59 1.16
7 8 9 -0.7 0.98
7 8 9 0.61 0.99
7 8 9 1.93 1.09
-7 8 -9 -0.39 1.46
-7 8 -9 1.77 2.34
7 8 9 -0.93 1.17
10 -9 -9 1.09 1.51
10 -9 -9 -1.7 1.53
10 -9 -9 -0.4 1.53
10 -9 -9 2.21 1.17
-10 9 9 3.52 1.34
10 9 -9 -2.08 1.12
10 9 -9 -0.86 0.77
-10 9 9 -2.09 1.37
9 -9 -9 -0.02 0.91
9 -9 -9 -1.57 0.98
9 -9 -9 -0.87 1.14
9 -9 -9 1.3 1.2
-9 9 9 -1.01 0.89
-9 9 9 -0.03 1.14
9 9 -9 1.33 1.15
9 9 -9 -1.75 1.1
9 9 -9 0.39 0.98
9 9 -9 -0.61 0.58
-9 9 9 -1.05 1.05
8 -9 -9 3.18 0.95
-8 -9 9 0.4 0.4
8 -9 -9 -0.03 1.03
8 -9 -9 2.08 1.11
8 -9 -9 2.62 0.91
-8 -9 9 1.27 0.89
8 9 -9 1.42 0.98
8 9 -9 1.29 0.46
8 9 -9 -0.25 0.97
-8 9 9 3.29 1.09
-8 9 9 0.91 0.96
8 9 -9 2.65 0.52
-8 9 9 1.55 0.99
8 9 -9 0.75 1.08
7 -9 -9 2.29 0.96
7 -9 -9 1.57 0.87
-7 -9 9 1.58 0.75
7 -9 -9 1.26 1.13
7 -9 -9 0.7 1
-7 -9 9 1.31 0.69
7 9 -9 0.55 0.77
7 9 -9 0.66 0.86
-7 9 9 2.09 0.84
-7 9 9 2.71 0.99
7 9 -9 0.58 0.47
-7 9 9 2.47 0.89
7 9 -9 1.56 0.88
-6 -9 9 0.19 0.63
-6 -9 9 -0.22 0.42
-6 -9 9 1.73 0.88
6 -9 -9 2.16 0.78
6 -9 -9 0.44 0.78
6 -9 -9 0.66 0.86
6 -9 -9 0.71 0.58
6 9 -9 1.31 0.78
-6 9 9 1.98 0.75
6 9 -9 0.98 0.72
-6 9 9 1.13 0.78
-6 9 9 1.65 0.86
6 9 -9 0.3 0.45
6 9 -9 0.63 0.76
-5 -9 9 0.39 0.57
5 -9 -9 0.53 0.5
5 -9 -9 0.86 0.72
-5 -9 9 1.42 0.81
5 -9 -9 -0.23 0.69
-5 -9 9 -0.24 0.35
-5 -9 9 0.27 0.42
-5 9 9 1.05 0.68
5 9 -9 -0.48 0.62
-5 9 9 0.44 0.76
5 9 -9 0.17 0.68
5 9 -9 0.3 0.76
-5 9 9 1.19 0.75
5 9 -9 0.85 0.46
-4 -9 9 0.07 0.66
4 -9 -9 -0.16 0.76
4 -9 -9 0.07 0.43
4 -9 -9 0.4 0.37
-4 -9 9 -0.6 0.42
4 -9 -9 -0.36 0.65
-4 -9 9 -0.13 0.38
-4 -9 9 0.83 0.49
4 -9 -9 -0.24 0.69
-4 9 9 -0.85 0.57
-4 9 9 -0.34 0.62
-4 9 9 -0.48 0.75
4 9 -9 0.38 0.75
4 9 -9 -0.06 0.47
3 -9 -9 2.87 0.84
-3 -9 9 1.81 0.71
3 -9 -9 2.7 0.45
-3 -9 9 1.82 0.48
3 -9 -9 2.38 0.83
-3 -9 9 2.07 0.48
-3 -9 9 2.38 0.58
3 -9 -9 2.1 0.4
3 -9 -9 2.06 0.7
3 9 -9 2.84 0.64
3 9 -9 2.38 0.86
-3 9 9 2.94 0.81
-3 9 9 1.64 0.6
2 -9 -9 4.44 0.51
2 -9 -9 4.26 0.98
2 -9 -9 3.97 0.39
-2 -9 9 3.45 0.52
2 -9 -9 3.78 0.68
-2 -9 9 4.8 0.75
2 -9 -9 4.27 0.77
-2 -9 9 2.72 0.66
-2 -9 9 3.78 0.57
2 9 -9 5.31 1.17
-2 9 9 1.65 0.74
-2 9 9 3.72 0.74
2 9 -9 5.7 0.8
-1 -9 9 -0.34 0.52
1 -9 -9 -0.07 0.62
-1 -9 9 0.51 0.57
1 -9 -9 1.26 0.72
1 -9 -9 0.47 0.44
1 -9 -9 -0.05 0.23
-1 -9 9 0.04 0.58
1 -9 -9 0.48 0.77
1 9 -9 -0.23 0.41
1 9 -9 0.35 0.91
-1 9 9 -0.14 0.5
-1 9 9 0.24 0.72
-1 9 9 0.49 0.41
0 -9 -9 -1.53 0.72
0 -9 9 -0.13 0.72
0 -9 -9 0.11 0.78
0 -9 -9 0.32 0.61
0 -9 9 -0.23 0.65
0 -9 -9 0.45 0.47
0 -9 9 0 0.59
0 9 9 -0.17 0.51
0 9 -9 0.16 0.55
0 9 9 -0.7 0.47
0 9 9 0.09 0.68
0 9 -9 -0.21 1.01
-1 -9 -9 0.98 0.58
-1 -9 -9 0.19 0.83
1 -9 9 0.31 0.69
-1 -9 -9 1.02 0.68
1 -9 9 1.51 0.89
-1 -9 -9 1.2 0.68
-1 9 -9 1.42 0.51
1 9 9 1.01 0.72
1 9 9 0.34 0.55
1 9 9 0.8 0.54
-1 9 -9 1.38 1.08
-2 -9 -9 0.77 0.71
-2 -9 -9 0.49 0.75
2 -9 9 0.13 0.69
2 -9 9 3.75 1.15
-2 -9 -9 0.59 0.84
2 -9 9 1.74 0.88
-2 9 -9 0.4 1.12
-2 9 -9 0.34 0.67
2 9 9 0.34 0.67
2 9 9 1.35 0.79
2 9 9 0.25 0.56
-3 -9 -9 0.75 0.86
-3 -9 -9 -0.64 1.29
3 -9 9 -0.98 1.03
3 -9 9 1.37 0.76
3 -9 9 0.18 0.74
-3 -9 -9 0.11 0.82
3 -9 9 -1.08 0.94
3 9 9 1.07 0.77
-3 9 -9 -0.89 1.32
3 9 9 0.29 0.76
-3 9 -9 -0.05 0.66
4 -9 9 0.88 0.78
4 -9 9 -0.34 0.83
-4 -9 -9 -1.08 1.28
-4 -9 -9 1.69 1.05
4 -9 9 0.31 1.06
-4 -9 -9 -0.39 0.91
4 9 9 -1.03 0.77
4 9 9 1.61 0.97
4 9 9 1.46 0.6
-4 9 -9 0.53 0.83
4 9 9 1.08 0.73
-4 9 -9 -0.01 1.51
-5 -9 -9 -0.52 1.04
5 -9 9 -0.84 1.29
5 -9 9 0.49 0.86
-5 -9 -9 1.37 1.58
-5 -9 -9 0.92 1.09
5 -9 9 0.25 0.84
-5 9 -9 -0.25 0.96
5 9 9 0.34 0.86
5 9 9 -0.44 0.9
5 9 9 1.06 0.76
-5 9 -9 1.92 1.7
5 9 9 2.16 1.07
-5 9 -9 0.8 0.56
6 -9 9 -0.49 0.99
-6 -9 -9 0.56 1.32
6 -9 9 1.3 0.99
-6 -9 -9 -1.16 1.84
6 -9 9 -1.24 1.35
6 9 9 0.83 1.16
6 9 9 1.45 1.01
6 9 9 -0.92 0.9
-6 9 -9 -1.06 1.2
-6 9 -9 0.55 1.98
6 9 9 0.08 0.99
9 -10 -9 -0.08 1.1
9 -10 -9 -0.61 1.21
9 -10 -9 -2.21 1.36
9 -10 -9 -1.05 1.34
-9 -10 9 -2.27 1.19
-9 10 9 0.13 1.33
9 10 -9 -1.56 1.08
-9 10 9 1.39 1.4
8 -10 -9 2.08 0.97
-8 -10 9 1.14 1.03
8 -10 -9 0.7 1.05
8 -10 -9 1.79 1.26
8 -10 -9 -0.34 1.17
-8 -10 9 -0.37 0.5
8 10 -9 1.17 0.8
8 10 -9 0.93 0.57
-8 10 9 2.23 1.17
-8 10 9 1.6 1.56
8 10 -9 2.28 1.09
8 10 -9 2.45 1.22
-8 10 9 2.99 1.04
7 -10 -9 -1.44 0.87
-7 -10 9 0.15 0.48
-7 -10 9 0.29 0.88
7 -10 -9 0.26 1.18
7 -10 -9 0.56 1.06
-7 -10 9 -0.78 0.79
7 -10 -9 1.93 0.83
7 10 -9 0.15 0.93
7 10 -9 -0.41 1
7 10 -9 -0.85 0.49
7 10 -9 0.48 0.84
-7 10 9 1.18 1.03
-7 10 9 -0.48 1.02
6 -10 -9 1.33 1.11
6 -10 -9 2.5 0.69
-6 -10 9 1.91 0.87
6 -10 -9 1.84 0.91
-6 -10 9 1.35 1.03
6 -10 -9 2.63 0.91
-6 -10 9 -0.13 0.5
-6 -10 9 1.11 0.79
-6 10 9 0.72 1.08
-6 10 9 1.45 0.88
6 10 -9 1.98 0.92
-6 10 9 1.52 0.95
6 10 -9 1.8 0.87
6 10 -9 1.56 0.6
6 10 -9 1.51 0.87
5 -10 -9 -0.95 0.73
-5 -10 9 -0.1 0.34
-5 -10 9 1.16 0.91
-5 -10 9 0.77 0.7
5 -10 -9 0.16 0.82
5 -10 -9 1.1 0.58
-5 -10 9 1.51 0.86
5 -10 -9 1.24 0.99
5 -10 -9 -0.08 0.42
-5 -10 9 0.07 0.51
-5 10 9 2.38 0.84
5 10 -9 1.24 0.85
-5 10 9 0.05 0.87
5 10 -9 1.09 0.57
-5 10 9 1.95 0.93
5 10 -9 -0.61 0.8
5 10 -9 0.35 0.77
-4 -10 9 -0.17 0.38
4 -10 -9 0.79 0.49
-4 -10 9 1.2 0.55
4 -10 -9 -0.62 0.81
-4 -10 9 0.71 0.59
-4 -10 9 0.75 0.85
-4 -10 9 0.65 0.78
4 -10 -9 0.12 0.77
4 -10 -9 0.75 0.75
4 -10 -9 0.43 0.45
-4 10 9 -0.02 0.64
-4 10 9 0.35 0.69
-4 10 9 -0.03 0.85
4 10 -9 0.91 0.58
4 10 -9 0.53 0.89
-3 -10 9 1.13 0.76
-3 -10 9 1.07 0.56
3 -10 -9 0.5 0.72
-3 -10 9 1.8 0.81
3 -10 -9 -0.04 0.84
-3 -10 9 1.49 0.6
-3 -10 9 0.51 0.49
3 -10 -9 0.75 0.44
3 -10 -9 1.88 0.5
3 -10 -9 2.74 0.81
3 10 -9 0.99 0.63
-3 10 9 1.33 0.68
-3 10 9 1.12 0.64
3 10 -9 1.75 1.01
-3 10 9 2.09 0.93
2 -10 -9 0.83 0.5
2 -10 -9 1.6 0.87
-2 -10 9 0.13 0.58
-2 -10 9 0.64 0.51
-2 -10 9 0.51 0.54
2 -10 -9 1.37 0.7
-2 -10 9 0.23 0.71
-2 -10 9 0 0.79
2 10 -9 0.21 0.95
2 10 -9 -0.02 0.51
-2 10 9 1.04 0.81
-2 10 9 -0.2 0.67
-2 10 9 1.15 0.61
-1 -10 9 -0.31 0.66
-1 -10 9 0.47 0.63
-1 -10 9 1.57 0.65
1 -10 -9 0.16 0.53
1 -10 -9 0.7 0.72
1 -10 -9 -0.29 0.83
1 -10 -9 1.1 0.75
1 10 -9 -0.32 0.62
1 10 -9 0.61 1.04
-1 10 9 0.37 0.74
-1 10 9 1.23 0.77
-1 10 9 0.19 0.69
0 -10 -9 -0.08 0.57
0 -10 9 1.29 0.95
0 -10 -9 -0.26 0.64
0 -10 9 1.02 0.62
0 -10 9 0.85 0.7
0 -10 9 -0.27 0.71
0 -10 -9 0.39 0.71
0 -10 -9 0.48 0.92
0 10 9 0.37 0.62
0 10 -9 0.09 0.58
0 10 9 -0.45 0.82
0 10 9 0.02 0.61
0 10 -9 -0.7 1.06
1 -10 9 2.06 0.88
1 -10 9 2.98 0.78
-1 -10 -9 4.04 1.13
1 -10 9 3.85 0.91
-1 -10 -9 3.57 0.95
-1 -10 -9 3.58 0.81
1 -10 9 2.61 1.15
-1 10 -9 3.11 1.33
1 10 9 4.02 1.05
1 10 9 2.01 0.65
1 10 9 3.09 0.66
-1 10 -9 0.97 0.69
2 -10 9 1.02 0.68
-2 -10 -9 -0.08 1
2 -10 9 0.01 0.75
-2 -10 -9 -0.43 0.72
-2 -10 -9 2.67 1.1
2 -10 9 -1.55 1.13
2 10 9 1.85 0.79
-2 10 -9 0.31 1.4
2 10 9 -0.01 0.65
-2 10 -9 0.71 0.73
2 10 9 0.11 0.84
3 -10 9 3.12 0.81
3 -10 9 1.11 1.17
-3 -10 -9 2.64 0.97
-3 -10 -9 2.91 1.19
3 -10 9 2.7 0.93
3 -10 9 1.83 1.16
-3 -10 -9 2.72 0.93
3 10 9 2.53 0.92
3 10 9 1.8 0.9
3 10 9 3.04 1.57
-3 10 -9 1.16 0.87
-3 10 -9 1.16 1.54
-4 -10 -9 1.59 1.56
4 -10 9 -0.95 1.3
4 -10 9 1.96 1.03
-4 -10 -9 0.36 1.09
-4 -10 -9 0.05 1.02
4 -10 9 -1.78 0.83
-4 10 -9 -1.16 0.9
4 10 9 1.31 0.95
4 10 9 -0.39 0.75
-4 10 -9 -1.59 1.6
4 10 9 -0.55 0.98
5 -10 9 -0.39 0.96
5 -10 9 0.27 1.39
-5 -10 -9 0.93 1.18
-5 -10 -9 3.65 1.83
5 -10 9 -0.32 1.12
5 10 9 0.72 0.88
-5 10 -9 -0.54 2.01
5 10 9 -2.1 0.9
5 10 9 -0.9 0.8
-5 10 -9 -0.53 1.24
5 10 9 -0.35 1.06
-5 10 -9 1.36 1.2
-6 -10 -9 0.07 1.95
6 -10 9 -0.13 1.85
6 10 9 0.77 1.22
-6 10 -9 -0.44 2.25
-8 -11 9 -0.35 0.89
8 -11 -9 2.05 1.64
-8 -11 9 -0.88 1.24
8 -11 -9 0.31 1.41
8 -11 -9 0.61 1.24
8 11 -9 -0.42 0.9
8 11 -9 1.11 0.79
-8 11 9 0.94 1.53
-8 11 9 0.59 1.37
7 -11 -9 0.66 1.18
7 -11 -9 1.32 1.13
-7 -11 9 0.77 1.04
-7 -11 9 -0.96 0.6
-7 -11 9 -0.07 0.88
7 -11 -9 -2.27 1.29
-7 11 9 2.1 1.17
-7 11 9 -1.93 1.25
7 11 -9 0.38 0.6
7 11 -9 -0.7 1.07
-7 11 9 -0.71 1.19
7 11 -9 -0.74 1.12
7 11 -9 0.5 0.96
-6 -11 9 0.86 0.9
6 -11 -9 0.69 1.08
-6 -11 9 -0.84 0.65
6 -11 -9 0.55 0.95
-6 -11 9 0.35 0.96
6 -11 -9 1.2 1.27
-6 11 9 0.21 1.13
-6 11 9 0.2 0.98
6 11 -9 0.8 0.63
-6 11 9 0.38 0.99
6 11 -9 0.58 1.06
6 11 -9 -0.86 0.95
6 11 -9 2.48 1.03
-5 -11 9 0.21 0.76
5 -11 -9 0.38 0.97
-5 -11 9 -0.75 1
-5 -11 9 1.3 0.9
5 -11 -9 1.35 0.95
5 -11 -9 0.84 1.11
-5 -11 9 0.09 0.61
-5 11 9 -0.21 0.39
5 11 -9 0.58 0.99
5 11 -9 0.36 0.87
-5 11 9 1.58 1.01
5 11 -9 0.57 0.68
-5 11 9 2.2 0.98
-5 11 9 1.1 0.92
-4 -11 9 0.55 0.91
-4 -11 9 0.88 0.74
4 -11 -9 1.29 0.88
-4 -11 9 -0.31 0.88
4 -11 -9 -0.15 0.83
4 -11 -9 -0.14 0.53
4 -11 -9 -0.28 1.06
-4 -11 9 -0.03 0.55
-4 -11 9 0.33 0.37
4 11 -9 0.37 0.61
4 11 -9 0.31 1.03
-4 11 9 -0.54 0.81
-4 11 9 0.51 1.11
3 -11 -9 3.2 0.63
3 -11 -9 2.53 1.07
-3 -11 9 2.62 1.04
-3 -11 9 3.15 0.92
3 -11 -9 2.59 0.82
-3 -11 9 0.51 0.49
-3 -11 9 3.67 0.77
-3 -11 9 3.65 0.76
3 -11 -9 5.29 1.12
-3 11 9 3.31 0.94
3 11 -9 2.65 0.89
-3 11 9 2.94 0.76
-3 11 9 3.6 1.1
3 11 -9 4.54 1.28
-2 -11 9 1.09 0.68
-2 -11 9 1.76 0.92
-2 -11 9 0.91 0.62
-2 -11 9 0.3 0.6
2 -11 -9 1.18 1.05
2 -11 -9 1.61 0.86
2 -11 -9 0.9 0.59
2 -11 -9 0.11 0.81
-2 -11 9 0.7 0.83
-2 11 9 0.12 1
-2 11 9 0.53 0.67
2 11 -9 0.96 0.71
2 11 -9 -0.09 1.07
-2 11 9 1.9 0.84
1 -11 -9 0.58 0.8
-1 -11 9 0.34 0.71
-1 -11 9 0.59 0.84
1 -11 -9 -1.06 1
-1 -11 9 1.02 0.99
-1 11 9 -0.68 0.72
-1 11 9 0.39 0.87
1 11 -9 0.18 0.69
1 11 -9 0.11 1.3
-1 11 9 0.61 0.62
0 -11 9 -0.44 0.82
0 -11 9 -0.04 0.81
0 -11 9 1.98 0.8
0 -11 9 -0.81 1.09
0 -11 -9 -0.58 0.81
0 -11 -9 -0.01 0.8
0 -11 -9 1.51 1.06
0 -11 -9 -0.72 0.68
0 11 9 0.71 0.92
0 11 -9 0.68 0.71
0 11 9 -0.2 0.73
0 11 -9 0.44 1.22
0 11 9 -0.07 0.65
-1 -11 -9 1.37 1.14
-1 -11 -9 2.73 0.87
-1 -11 -9 2.34 0.83
-1 -11 -9 2.41 0.96
1 -11 9 2.34 0.97
1 -11 9 2.79 0.86
1 -11 9 3.59 0.86
1 -11 9 3.71 1.39
1 11 9 1.5 0.95
-1 11 -9 2.34 0.94
1 11 9 4.24 1.15
-1 11 -9 1.9 1.41
-2 -11 -9 4.53 1.1
2 -11 9 2.87 0.88
-2 -11 -9 1.68 0.92
-2 -11 -9 1.45 1.22
2 -11 9 2.26 0.9
2 -11 9 1.82 1.15
2 -11 9 -0.82 1.28
-2 -11 -9 1.97 0.92
-2 11 -9 0.04 0.79
2 11 9 1.11 1.53
2 11 9 2.11 1.1
2 11 9 -0.07 0.8
-2 11 -9 5.84 1.72
-3 -11 -9 0.91 1.09
3 -11 9 2.23 1.41
3 -11 9 1.91 1.4
3 -11 9 1.85 0.95
-3 -11 -9 0.27 1.08
3 -11 9 1.8 0.97
-3 -11 -9 0.28 1.26
3 11 9 0.59 1.11
-3 11 -9 3.05 1.1
-3 11 -9 3.37 1.75
3 11 9 1.81 1.08
3 11 9 1.46 0.96
-4 -11 -9 0.78 1.92
4 -11 9 1.34 1.57
-4 -11 -9 1.59 1.2
4 -11 9 1.76 1.02
4 -11 9 2.88 1.03
4 11 9 2.3 0.85
-4 11 -9 4.72 2.26
-4 11 -9 -0.39 1.2
4 11 9 1.33 1.08
4 11 9 0.58 1.23
-5 -11 -9 -0.86 1.37
-5 -11 -9 0.19 2.09
5 -11 9 0.92 1.1
5 -11 9 1.36 1.44
5 -11 9 0.36 2.08
5 11 9 0.86 1.06
-5 11 -9 -4.04 1.38
-5 11 -9 2.16 2.44
5 11 9 0.07 1.24
5 11 9 0.7 0.94
7 -12 -9 -0.27 1.36
7 -12 -9 0.71 1.35
-7 -12 9 -0.84 1.2
7 -12 -9 -0.04 1.42
-7 -12 9 1.36 1.25
7 12 -9 2.03 1.28
-7 12 9 0.57 1.59
7 12 -9 0.09 0.74
-7 12 9 1.22 1.42
-6 -12 9 0.01 0.78
6 -12 -9 -2.84 1.4
-6 -12 9 1.2 1.11
6 -12 -9 0.8 1.15
6 -12 -9 1.87 1.28
-6 -12 9 2.77 1.26
6 -12 -9 -0.06 0.69
6 12 -9 -0.35 1.13
-6 12 9 -1.5 1.38
6 12 -9 1.08 0.82
6 12 -9 0.8 1.14
6 12 -9 1.23 2.01
-6 12 9 1.54 1.22
5 -12 -9 3.2 1.2
-5 -12 9 1.14 1.26
5 -12 -9 0.36 1.12
5 -12 -9 0.49 1.31
-5 -12 9 0.66 0.69
-5 -12 9 2.66 1
5 -12 -9 1.17 0.68
5 12 -9 0.66 0.73
5 12 -9 2.27 1.12
-5 12 9 3.25 1.46
-5 12 9 0.09 1.17
5 12 -9 1.04 1.19
-5 12 9 0.11 0.37
-4 -12 9 -0.5 1.09
4 -12 -9 2.24 1.04
-4 -12 9 1.42 0.9
4 -12 -9 0.57 0.66
4 -12 -9 0.64 1.04
4 -12 -9 2.63 1.38
-4 -12 9 2.91 1.24
-4 -12 9 -0.39 0.67
4 12 -9 -0.9 0.78
-4 12 9 -0.35 0.56
-4 12 9 1.95 1.2
4 12 -9 1.24 1.28
-4 12 9 3.61 1.12
3 -12 -9 1.24 0.73
-3 -12 9 -0.12 0.71
-3 -12 9 -0.28 0.48
3 -12 -9 2.46 1.19
3 -12 -9 1.27 1.23
-3 -12 9 1.97 0.85
-3 -12 9 1.32 1.15
-3 -12 9 2.6 1.04
3 -12 -9 2.4 1
3 12 -9 1.98 1.3
-3 12 9 2.45 1.18
-3 12 9 2.61 1.24
3 12 -9 2.33 0.9
-2 -12 9 2.74 1.24
2 -12 -9 2.09 0.76
-2 -12 9 2.38 0.78
2 -12 -9 3.02 1
-2 -12 9 0.77 0.67
-2 -12 9 3.83 1.03
2 -12 -9 5.02 1.14
-2 -12 9 2.39 1.05
2 -12 -9 1.59 1.28
-2 12 9 2.82 1.32
-2 12 9 1.82 0.97
2 12 -9 3.73 1.19
-2 12 9 2.59 0.79
2 12 -9 2.53 1.44
-1 -12 9 0.99 1.01
1 -12 -9 -0.27 0.92
-1 -12 9 0.98 0.76
1 -12 -9 0.31 1.22
1 -12 -9 1.54 1.02
-1 -12 9 0.19 1.21
1 -12 -9 0.6 0.73
-1 -12 9 -0.77 0.77
-1 -12 9 -0.84 0.7
-1 12 9 0.45 0.99
-1 12 9 -1.11 1.1
1 12 -9 0.12 1.43
-1 12 9 0.34 0.75
1 12 -9 0.3 0.89
0 -12 9 0.12 0.97
0 -12 -9 -1.21 1.18
0 -12 -9 -1.46 0.94
0 -12 -9 -0.84 1.79
0 -12 9 -0.61 1.3
0 -12 9 0.07 0.91
0 -12 -9 -0.48 0.79
0 -12 9 0.58 0.89
0 12 9 0.33 0.73
0 12 9 0.11 1.15
0 12 9 0.86 1.02
0 12 -9 -0.79 0.93
0 12 -9 3.97 1.54
1 -12 9 2.06 0.99
-1 -12 -9 2.9 1.4
-1 -12 -9 4.49 1.17
1 -12 9 2.73 1.01
1 -12 9 1.19 1.4
-1 -12 -9 2.62 1
-1 -12 -9 3.28 1.06
1 -12 9 4.04 1.17
-1 12 -9 1.79 1.73
1 12 9 3.77 1.28
-1 12 -9 0.63 0.93
1 12 9 1.81 1.13
1 12 9 2.4 0.77
2 -12 9 -2.13 1.01
2 -12 9 -0.99 1.47
-2 -12 -9 -0.69 1.01
-2 -12 -9 -1.19 1.08
-2 -12 -9 -1.39 1.1
-2 -12 -9 0.7 1.47
2 -12 9 -0.22 0.97
2 -12 9 -0.66 1.29
2 12 9 1.56 1.23
2 12 9 -0.06 0.78
-2 12 -9 -1.95 1.66
-2 12 -9 -2.13 0.89
2 12 9 -0.14 1.26
-3 -12 -9 1.32 1.29
-3 -12 -9 0.25 1.34
3 -12 9 3.97 1.62
3 -12 9 -2.58 1.69
3 -12 9 -1.45 1.16
3 -12 9 -0.75 1.07
-3 -12 -9 -1.28 1.17
-3 12 -9 -1.88 0.89
-3 12 -9 -0.45 2.07
3 12 9 2.07 0.9
3 12 9 1.54 1.27
-4 -12 -9 -0.17 1.47
-4 -12 -9 -3.34 2.15
4 -12 9 0.03 1.14
4 -12 9 -0.1 1.22
4 -12 9 1.65 1.96
4 12 9 2.43 1.53
4 12 9 1.01 0.94
-4 12 -9 5.22 2.33
4 12 9 0.67 1.58
6 -13 -9 -1.32 1.46
6 -13 -9 1.57 1.43
6 -13 -9 0.1 0.91
-6 -13 9 -0.16 1.32
-6 -13 9 0.85 1.44
6 -13 -9 1.2 1.77
6 13 -9 -0.04 1.44
-6 13 9 1.73 1.75
-6 13 9 -2.01 1.67
-5 -13 9 -0.24 1.11
-5 -13 9 3.17 1.58
5 -13 -9 2.57 1.32
-5 -13 9 2.39 0.96
5 -13 -9 3.01 1.38
5 -13 -9 0.77 0.84
5 -13 -9 -1.72 1.68
-5 13 9 1.49 1.63
5 13 -9 2.45 1.39
4 -13 -9 1.16 1.18
4 -13 -9 0.82 1.29
4 -13 -9 0.74 0.83
-4 -13 9 0.59 1.07
-4 -13 9 1.7 1.4
4 -13 -9 3.91 1.72
-4 -13 9 1.19 0.89
-4 13 9 1.34 1.4
-4 13 9 1.26 1.29
4 13 -9 0.8 1.42
-4 13 9 -0.4 0.63
4 13 -9 1.01 1.01
-3 -13 9 3.56 1.02
-3 -13 9 1.44 1.23
-3 -13 9 -0.47 0.8
3 -13 -9 3.15 0.87
3 -13 -9 3.69 1.7
3 -13 -9 1.83 1.15
3 -13 -9 0.93 1.28
-3 -13 9 1.37 1.41
-3 13 9 -0.03 0.81
-3 13 9 3.03 1.27
-3 13 9 1.68 1.45
3 13 -9 4.07 1.61
-2 -13 9 -0.52 0.95
-2 -13 9 -0.54 1.14
-2 -13 9 -1.46 1.25
-2 -13 9 -0.13 0.92
2 -13 -9 -0.11 0.86
2 -13 -9 -1.1 1.16
2 -13 -9 -2.93 1.29
2 -13 -9 0.22 1.13
-2 -13 9 -0.93 0.71
-2 13 9 0.74 1.42
2 13 -9 -0.07 1.63
2 13 -9 0.25 1.04
-2 13 9 0.61 1.15
-1 -13 9 0.19 0.9
-1 -13 9 0.58 1.87
1 -13 -9 1.27 1.55
1 -13 -9 3.08 1.2
1 -13 -9 3.75 1
-1 -13 9 1.99 0.93
-1 -13 9 -0.37 1.16
-1 -13 9 2.67 0.93
1 -13 -9 1.53 1.07
-1 13 9 3.74 1.34
1 13 -9 2.43 1.14
-1 13 9 1.94 0.89
1 13 -9 3.25 1.86
-1 13 9 -0.31 1.27
0 -13 9 0.29 1.3
0 -13 -9 -0.88 0.93
0 -13 -9 0.7 2.53
0 -13 9 1.46 1.15
0 -13 -9 1.31 1.09
0 -13 9 -0.37 1.06
0 -13 -9 -0.46 1.34
0 13 9 -0.76 1.2
0 13 9 3.57 1.43
0 13 9 -0.32 0.83
0 13 -9 0.74 1.7
0 13 -9 1.36 1.14
1 -13 9 0.84 1.13
-1 -13 -9 1.36 1.15
1 -13 9 0.77 1.18
-1 -13 -9 0.85 1.28
1 13 9 1.8 1.28
1 13 9 0.05 1.26
1 13 9 0.36 0.84
-1 13 -9 0.86 1.79
-1 13 -9 1.19 1.24
2 -13 9 1.44 1.19
-2 -13 -9 1.11 1.4
-2 -13 -9 1.51 1.26
2 -13 9 0.99 1.12
-2 -13 -9 -0.37 1.26
2 -13 9 1.77 1.6
2 13 9 0.37 0.88
-2 13 -9 -2.49 1.12
-2 13 -9 2.43 2.22
2 13 9 -3.56 1.39
2 13 9 2.6 1.46
3 -14 -9 -3.84 1.5
3 -14 -9 1.47 1.41
-3 -14 9 2.86 1.36
-3 -14 9 -0.85 1.26
3 -14 -9 2.21 1.08
-3 14 9 -0.34 1.77
3 14 -9 -0.59 1.1
3 14 -9 -1.04 1.55
-2 -14 9 5.94 1.17
2 -14 -9 7 1.67
2 -14 -9 4.97 1.17
-2 -14 9 1.73 1.18
-2 -14 9 2.34 1.41
2 -14 -9 2.75 1.38
2 14 -9 2.33 1.69
2 14 -9 4.38 1.18
-2 14 9 7.23 1.89
-2 14 9 1.71 1.76
-2 14 9 -0.3 1.08
-1 -14 9 -0.73 1.11
-1 -14 9 1.81 1.1
1 -14 -9 1.6 1.41
1 -14 -9 0.43 1.3
-1 -14 9 0.24 1.32
1 -14 -9 2.24 1.18
-1 14 9 0.55 1.43
-1 14 9 4.29 1.68
1 14 -9 -0.07 1.99
1 14 -9 2.45 1.21
-1 14 9 0.74 1.22
0 -14 -9 2.32 1.58
0 -14 9 1.77 1.1
0 -14 9 2.31 1.13
0 -14 -9 0.09 1.27
0 -14 -9 0.5 1.22
0 -14 9 3.14 1.35
0 14 9 4.48 1.64
0 14 9 4.32 1.39
0 14 -9 4.39 1.46
12 0 -10 0.04 1.23
12 0 -10 1.02 0.8
12 0 -10 -0.75 1.25
12 0 -10 2.13 1.2
11 0 -10 0.48 0.71
11 0 -10 0.74 0.97
11 0 -10 2.83 0.95
11 0 -10 0.33 1.11
11 0 -10 -0.45 0.96
10 0 -10 0.86 0.91
10 0 -10 -0.2 0.45
10 0 -10 -0.35 0.74
-10 0 10 0.6 0.81
10 0 -10 -0.05 0.78
10 0 -10 1.08 0.81
9 0 -10 0.07 0.5
-9 0 10 0.17 0.25
9 0 -10 0.12 0.73
9 0 -10 0.67 0.57
-9 0 10 -0.58 0.56
9 0 -10 0.29 0.38
-9 0 10 -0.1 0.3
9 0 -10 0.34 0.66
-9 0 10 0.13 0.72
-8 0 10 1.07 0.53
8 0 -10 1.38 0.44
8 0 -10 1.28 0.29
-8 0 10 1.49 0.4
-8 0 10 2.41 0.67
8 0 -10 1.49 0.6
-8 0 10 1.39 0.64
8 0 -10 1.34 0.59
7 0 -10 0.92 0.21
-7 0 10 0.91 0.58
7 0 -10 0.67 0.47
7 0 -10 1.44 0.56
-7 0 10 1.25 0.46
-7 0 10 1.04 0.35
-7 0 10 0.9 0.32
-7 0 10 0.8 0.49
7 0 -10 1.01 0.37
6 0 -10 4.76 0.57
-6 0 10 6.41 0.6
6 0 -10 5.14 0.59
-6 0 10 5.09 0.49
6 0 -10 5.45 0.65
-6 0 10 5.65 0.58
6 0 -10 5.01 0.67
6 0 -10 5.33 0.24
-6 0 10 5.29 0.54
-6 0 10 5.76 0.61
-5 0 10 7.34 0.66
5 0 -10 5.88 0.73
-5 0 10 7.68 0.67
5 0 -10 7.96 0.63
-5 0 10 6.34 0.57
5 0 -10 7.81 0.6
-5 0 10 8.44 0.61
5 0 -10 7.71 0.69
-5 0 10 8.31 0.67
-4 0 10 0.23 0.36
-4 0 10 0.14 0.38
4 0 -10 -0.05 0.33
-4 0 10 0.22 0.27
-4 0 10 0.11 0.31
4 0 -10 0.11 0.35
4 0 -10 0.57 0.4
4 0 -10 0.07 0.43
-4 0 10 0.2 0.33
-3 0 10 12.56 0.66
3 0 -10 12.06 1.04
3 0 -10 11.96 0.78
3 0 -10 11.53 0.82
-3 0 10 11.16 0.72
-3 0 10 11.54 0.78
3 0 -10 12.64 0.7
-3 0 10 12 0.84
-2 0 10 1.41 0.39
-2 0 10 1.55 0.41
2 0 -10 1.28 0.34
-2 0 10 1.16 0.33
2 0 -10 1.37 0.54
-2 0 10 1.37 0.45
2 0 -10 1.06 0.43
2 0 -10 1.39 0.35
-1 0 10 2.4 0.19
1 0 -10 2.24 0.48
-1 0 10 2.23 0.4
1 0 -10 2.89 0.36
1 0 -10 2.35 0.5
-1 0 10 2.45 0.55
-1 0 10 2.06 0.47
-1 0 10 2.13 0.33
1 0 -10 2.82 0.7
0 0 10 0.08 0.21
0 0 -10 0.3 0.62
0 0 10 0.41 0.41
0 0 10 0.18 0.33
0 0 10 0.64 0.28
0 0 -10 1.06 0.39
0 0 10 0.41 0.36
-1 0 -10 2.11 0.74
-1 0 -10 1.15 0.42
1 0 10 1.12 0.47
-1 0 -10 1.13 0.34
1 0 10 0.83 0.39
1 0 10 1.3 0.26
-2 0 -10 22.91 0.88
2 0 10 22.56 1.14
-2 0 -10 23.13 1.23
2 0 10 24.51 1.24
-2 0 -10 24.57 1.68
-3 0 -10 0.99 0.87
3 0 10 1.49 0.62
-3 0 -10 1.01 0.42
-3 0 -10 0.35 0.47
3 0 10 1.25 0.67
4 0 10 16.17 1.14
4 0 10 16.6 1.33
-4 0 -10 18.33 1.91
5 0 10 -0.16 0.65
-5 0 -10 -0.28 0.63
5 0 10 -0.34 0.52
5 0 10 -0.32 0.8
-5 0 -10 1.05 0.98
6 0 10 1.54 0.66
-6 0 -10 1.6 0.77
-6 0 -10 3.15 0.83
6 0 10 0.83 0.98
-6 0 -10 1.44 0.72
6 0 10 1.57 0.83
-6 0 -10 3.76 1.4
7 0 10 0.14 0.73
7 0 10 -0.4 1.05
-7 0 -10 0.43 0.95
7 0 10 0.26 1.23
-7 0 -10 0.46 0.95
7 0 10 1.45 1.12
-7 0 -10 -0.08 1.5
-7 0 -10 -0.67 0.89
-8 0 -10 1.29 1.23
-8 0 -10 -0.07 1.83
-8 0 -10 2.68 1.21
8 0 10 4.85 2.19
8 0 10 5.13 1.44
8 0 10 4.14 1.61
8 0 10 4.76 1.08
12 -1 -10 1.27 0.83
12 -1 -10 0.21 1.21
12 -1 -10 1.62 1.28
12 1 -10 -0.07 1.09
12 1 -10 1.4 0.83
12 1 -10 0.26 1.12
12 1 -10 1.76 1.33
11 -1 -10 0.93 1.04
11 -1 -10 -2.77 1.01
11 -1 -10 0 0.95
11 1 -10 -0.12 0.6
11 1 -10 1.46 0.9
11 1 -10 0.51 0.93
11 1 -10 0.97 0.98
-11 1 10 0.08 1.04
11 1 -10 -0.5 1
10 -1 -10 0.21 0.61
10 -1 -10 1.26 0.5
10 -1 -10 0.81 0.89
10 -1 -10 0.89 0.6
10 -1 -10 0.67 0.8
10 -1 -10 1.25 0.84
10 1 -10 -0.9 0.74
10 1 -10 0.82 0.45
10 1 -10 0.1 0.84
10 1 -10 0.57 0.86
10 1 -10 1.61 0.8
-10 1 10 1.88 0.88
9 -1 -10 1.51 0.41
9 -1 -10 1.33 0.61
9 -1 -10 1.79 0.72
-9 -1 10 1.47 0.66
9 -1 -10 1.12 0.74
-9 1 10 1.34 0.75
9 1 -10 0.59 0.66
-9 1 10 1.05 0.57
-9 1 10 1.64 0.4
9 1 -10 1.07 0.73
9 1 -10 1.69 0.51
9 1 -10 1.55 0.47
9 1 -10 1.14 0.65
9 1 -10 2.14 0.39
8 -1 -10 6.94 0.52
-8 -1 10 6.12 0.64
8 -1 -10 8 0.97
8 -1 -10 3.92 0.79
-8 -1 10 7.87 0.77
8 -1 -10 5.23 0.82
8 -1 -10 6.08 0.8
-8 -1 10 7.19 0.58
-8 1 10 6.28 0.61
-8 1 10 6.32 0.75
8 1 -10 6.48 0.68
8 1 -10 6.11 0.77
8 1 -10 6.12 0.46
8 1 -10 7.03 0.77
-8 1 10 7.64 0.68
-8 1 10 8.2 0.79
7 -1 -10 7.4 0.41
-7 -1 10 8.44 0.68
-7 -1 10 7.05 0.62
7 -1 -10 7.13 0.76
-7 -1 10 10.61 1.17
-7 -1 10 7.62 0.63
7 -1 -10 8.11 0.95
7 -1 -10 7.51 0.65
7 -1 -10 8.45 0.69
-7 1 10 6.88 0.67
7 1 -10 9.81 0.91
7 1 -10 8.38 0.41
7 1 -10 7.46 0.65
7 1 -10 5.85 0.63
-7 1 10 10.21 1.21
-7 1 10 6.89 0.58
-7 1 10 8.62 0.69
6 -1 -10 0.05 0.11
-6 -1 10 0.56 0.32
-6 -1 10 0.9 0.41
-6 -1 10 0.05 0.42
6 -1 -10 -0.1 0.47
6 -1 -10 -0.38 0.47
6 -1 -10 0.21 0.34
-6 -1 10 0.37 0.3
6 -1 -10 -0.06 0.46
6 -1 -10 0.2 0.43
-6 -1 10 -0.21 0.45
-6 1 10 0.53 0.37
6 1 -10 0.07 0.29
6 1 -10 0.46 0.45
6 1 -10 -0.19 0.52
-6 1 10 -0.17 0.42
6 1 -10 0.17 0.46
-6 1 10 0.11 0.3
-6 1 10 0.14 0.44
-6 1 10 0.15 0.32
5 -1 -10 1.71 0.44
-5 -1 10 0.92 0.36
-5 -1 10 1.68 0.44
5 -1 -10 1.32 0.45
-5 -1 10 1.19 0.33
5 -1 -10 1.5 0.55
-5 -1 10 1.08 0.38
5 -1 -10 1.28 0.45
-5 -1 10 1.39 0.45
5 1 -10 1.6 0.43
-5 1 10 0.93 0.41
-5 1 10 1.44 0.4
-5 1 10 1.65 0.42
5 1 -10 0.9 0.4
-5 1 10 1.37 0.36
5 1 -10 1.37 0.44
5 1 -10 1.65 0.55
-5 1 10 1.59 0.44
4 -1 -10 3.28 0.5
4 -1 -10 2.31 0.6
-4 -1 10 3.08 0.45
-4 -1 10 2.6 0.41
-4 -1 10 3.21 0.46
-4 -1 10 2.67 0.41
-4 -1 10 3.73 0.53
4 -1 -10 3 0.44
4 -1 -10 2.45 0.45
4 1 -10 2.78 0.63
-4 1 10 2.54 0.42
4 1 -10 3.08 0.5
-4 1 10 2.4 0.41
-4 1 10 3.25 0.51
4 1 -10 3.26 0.42
-4 1 10 2.69 0.44
-4 1 10 3.26 0.41
4 1 -10 2.45 0.43
-3 -1 10 0.1 0.33
-3 -1 10 0.21 0.32
3 -1 -10 0.41 0.4
3 -1 -10 0.53 0.52
-3 -1 10 0.35 0.34
3 -1 -10 0.41 0.33
3 -1 -10 0.58 0.34
-3 -1 10 0.15 0.32
-3 -1 10 0.42 0.3
-3 1 10 -0.23 0.29
3 1 -10 0.63 0.4
3 1 -10 0.68 0.35
3 1 -10 0.29 0.35
-3 1 10 -0.04 0.3
-3 1 10 0.4 0.33
-3 1 10 0.86 0.39
3 1 -10 0.14 0.46
2 -1 -10 26.89 1.38
-2 -1 10 25.46 0.87
-2 -1 10 25.5 0.59
-2 -1 10 25.76 1.12
-2 -1 10 26.8 0.97
2 -1 -10 26.77 1.2
2 -1 -10 25.96 1.05
2 1 -10 27.69 0.89
2 1 -10 26.98 1.03
-2 1 10 25.9 0.88
-2 1 10 26.87 1.17
-2 1 10 25.73 1.24
-2 1 10 26.14 0.96
2 1 -10 25.26 1.16
2 1 -10 26.1 1.39
-1 -1 10 4.22 0.5
-1 -1 10 3.34 0.51
1 -1 -10 3.46 0.65
1 -1 -10 4.32 0.63
1 -1 -10 4.61 0.56
-1 -1 10 3.94 0.38
-1 -1 10 5.09 0.73
-1 1 10 4.23 0.38
-1 1 10 4.44 0.22
1 1 -10 4.77 0.4
-1 1 10 3.71 0.54
1 1 -10 3.24 0.68
1 1 -10 5.2 0.58
1 1 -10 3.98 0.55
-1 1 10 5.32 0.7
-1 1 10 3.73 0.45
0 -1 -10 33.14 1.23
0 -1 10 36.42 1.59
0 -1 10 34.72 1.38
0 -1 10 34.24 1.2
0 -1 -10 35.25 1.45
0 -1 -10 34.88 1.73
0 1 10 34.38 0.88
0 1 10 34.51 1.39
0 1 -10 34.45 0.97
0 1 -10 35.36 1.73
0 1 -10 33.32 1.39
0 1 10 33.11 0.97
0 1 10 34.51 1.18
0 1 10 34.7 1.51
1 -1 10 7.91 0.64
-1 -1 -10 7.94 1.01
1 -1 10 6.93 0.91
1 -1 10 8.43 0.83
-1 -1 -10 7.35 0.84
1 1 10 7.12 0.5
-1 1 -10 6.98 0.78
-1 1 -10 5.62 0.84
-1 1 -10 7.21 0.55
1 1 10 6.07 0.57
1 1 10 7.6 0.82
1 1 10 8.19 0.48
1 1 10 6.99 0.89
2 -1 10 0.06 0.38
-2 -1 -10 0.09 0.42
2 -1 10 0.82 0.57
-2 -1 -10 0.15 0.39
-2 -1 -10 0.14 0.69
2 -1 10 0.49 0.58
-2 1 -10 0.37 0.42
2 1 10 0.45 0.24
-2 1 -10 0.57 0.34
2 1 10 0.33 0.49
-2 1 -10 0.49 0.65
2 1 10 0.54 0.34
2 1 10 0.31 0.43
2 1 10 -0.08 0.46
3 -1 10 4.52 0.85
-3 -1 -10 3.87 0.51
-3 -1 -10 4.95 1.06
3 -1 10 2.83 0.7
-3 1 -10 3.9 0.49
-3 1 -10 5.65 1.17
3 1 10 3.72 0.65
3 1 10 3.9 0.79
3 1 10 5.13 0.54
-3 1 -10 4.05 0.68
3 1 10 3.66 0.24
4 -1 10 -0.32 0.44
4 -1 10 0.16 0.67
-4 -1 -10 0.75 0.53
-4 -1 -10 -0.93 0.97
-4 1 -10 -0.29 0.49
4 1 10 0.35 0.67
4 1 10 0.8 0.65
4 1 10 0.59 0.51
-4 1 -10 0.73 1.02
4 1 10 0.22 0.44
5 -1 10 0 0.82
-5 -1 -10 -0.11 1.04
-5 -1 -10 0.05 0.7
-5 -1 -10 -0.01 0.65
5 -1 10 -0.18 0.57
5 -1 10 -1 0.75
5 1 10 0.28 0.82
5 1 10 0.86 0.65
5 1 10 0.57 0.54
-5 1 -10 0.3 0.61
5 1 10 -0.24 0.67
-5 1 -10 1.49 1.1
-6 -1 -10 0.04 1.23
6 -1 10 -1.69 0.95
6 -1 10 1.08 0.96
-6 -1 -10 0.66 0.73
-6 -1 -10 -1.24 0.73
-6 -1 -10 0.43 0.8
6 -1 10 -0.1 0.68
-6 1 -10 0.13 0.74
-6 1 -10 -1 1.27
6 1 10 -0.18 0.58
6 1 10 0.41 0.93
-6 1 -10 -0.18 0.76
6 1 10 -1.11 0.77
6 1 10 -0.23 0.77
-6 1 -10 -0.47 0.72
7 -1 10 -0.02 1.28
7 -1 10 1.31 1.32
7 -1 10 -0.15 0.74
-7 -1 -10 -1.79 1.41
-7 -1 -10 -1.02 0.98
-7 -1 -10 0.65 0.86
-7 -1 -10 0.02 0.97
7 1 10 1.84 1.01
-7 1 -10 0.3 0.91
7 1 10 0.1 0.71
-7 1 -10 -0.83 0.87
7 1 10 0.12 1.03
7 1 10 1.2 1.2
-7 1 -10 1.35 0.96
-7 1 -10 2.15 1.65
8 -1 10 -0.52 1.39
-8 -1 -10 2.01 2.1
-8 -1 -10 1.67 1.14
-8 -1 -10 0.59 1.3
8 -1 10 1.61 0.99
8 1 10 3.64 1.57
-8 1 -10 0.23 1.24
8 1 10 -1.55 1.4
8 1 10 -0.58 1.32
-8 1 -10 0.43 1.24
-8 1 -10 3.91 2.06
8 1 10 0.05 0.91
12 -2 -10 0.07 0.84
12 -2 -10 1.38 1.3
12 2 -10 -1.37 1.31
12 2 -10 -1.37 1.01
12 2 -10 -0.15 1.09
-12 2 10 -1.22 1.29
12 2 -10 -1.43 1.12
12 2 -10 1.08 0.8
11 -2 -10 1.35 0.76
11 -2 -10 1.68 1.25
11 -2 -10 -0.2 1.06
11 -2 -10 0.99 0.94
11 -2 -10 2.65 1.08
11 2 -10 0.53 0.89
11 2 -10 0.57 0.6
-11 2 10 -1.09 1.04
11 2 -10 0.6 0.83
11 2 -10 0.14 1.03
11 2 -10 0.94 1.05
11 2 -10 1.58 0.97
10 -2 -10 0.72 0.77
10 -2 -10 1.18 0.92
10 -2 -10 1.66 0.55
-10 2 10 0.76 0.43
10 2 -10 0.49 0.95
10 2 -10 1.34 0.47
10 2 -10 -0.76 0.82
10 2 -10 1.44 0.7
10 2 -10 1.83 0.79
10 2 -10 2.52 0.77
-10 2 10 1.35 0.85
9 -2 -10 1.25 0.75
9 -2 -10 -0.05 0.49
9 -2 -10 1.57 0.76
-9 -2 10 0.14 0.82
9 -2 -10 1.1 0.42
9 -2 -10 0.34 0.64
9 2 -10 -0.04 0.7
9 2 -10 0.52 0.6
9 2 -10 2.01 0.62
9 2 -10 1.09 0.68
-9 2 10 0.23 0.54
-9 2 10 0.56 0.73
-9 2 10 -0.07 0.39
9 2 -10 1.08 0.39
9 2 -10 1.11 0.75
8 -2 -10 1.43 0.33
8 -2 -10 0.89 0.52
-8 -2 10 1.24 0.29
-8 -2 10 0.07 0.23
-8 -2 10 0.38 0.59
8 -2 -10 0.83 0.65
-8 -2 10 1.66 0.59
8 -2 -10 0.91 0.64
8 2 -10 0.78 0.5
-8 2 10 0.58 0.47
-8 2 10 0.76 0.65
-8 2 10 0.1 0.38
8 2 -10 0.62 0.57
8 2 -10 0.54 0.59
8 2 -10 0.14 0.4
-8 2 10 1.51 0.44
8 2 -10 1.3 0.29
-7 -2 10 0.08 0.29
7 -2 -10 -0.72 0.47
7 -2 -10 -0.09 0.21
7 -2 -10 0.54 0.62
7 -2 -10 0.2 0.43
7 -2 -10 -0.51 0.54
-7 -2 10 -0.01 0.51
-7 -2 10 0.12 0.46
-7 2 10 0.21 0.39
7 2 -10 0.38 0.28
7 2 -10 -0.12 0.19
7 2 -10 0.22 0.49
7 2 -10 -0.31 0.49
-7 2 10 0.35 0.51
-7 2 10 -0.34 0.37
-7 2 10 0.02 0.39
6 -2 -10 12.11 0.83
-6 -2 10 12 0.86
-6 -2 10 10.26 0.71
6 -2 -10 9.72 0.71
6 -2 -10 11.09 0.36
6 -2 -10 9.68 1.06
6 -2 -10 9.82 0.84
-6 -2 10 11.4 0.8
-6 -2 10 11.07 0.66
-6 2 10 10.18 0.8
6 2 -10 10.78 0.82
6 2 -10 11.29 0.95
6 2 -10 10.82 0.71
6 2 -10 8.65 0.89
-6 2 10 10.02 0.86
-6 2 10 10.43 0.84
-6 2 10 11.85 0.79
-6 2 10 11.81 0.69
-5 -2 10 1.37 0.4
5 -2 -10 1.08 0.39
-5 -2 10 1.2 0.36
-5 -2 10 2.03 0.44
-5 -2 10 1.93 0.36
5 -2 -10 1.79 0.51
5 -2 -10 1.18 0.47
5 -2 -10 1.5 0.58
-5 2 10 0.96 0.43
5 2 -10 1.56 0.41
-5 2 10 1.39 0.38
-5 2 10 1.12 0.43
5 2 -10 1.36 0.46
5 2 -10 1.44 0.47
-5 2 10 1.58 0.35
5 2 -10 0.97 0.54
-5 2 10 0.8 0.41
4 -2 -10 9.11 1.01
-4 -2 10 8.97 0.68
-4 -2 10 9.27 0.71
4 -2 -10 8.59 0.75
-4 -2 10 7.55 0.69
4 -2 -10 9.03 0.77
-4 -2 10 8.39 0.71
-4 2 10 9.65 0.73
-4 2 10 9.56 0.7
4 2 -10 7.81 0.94
4 2 -10 9.02 0.69
-4 2 10 8.94 0.78
-4 2 10 8.71 0.61
-4 2 10 7.42 0.73
4 2 -10 8.96 0.74
4 2 -10 8.9 0.69
-3 -2 10 1.5 0.37
3 -2 -10 1.3 0.47
3 -2 -10 1.62 0.47
-3 -2 10 1.63 0.16
3 -2 -10 1.21 0.58
-3 -2 10 2.03 0.41
-3 -2 10 1.43 0.35
3 2 -10 1.19 0.54
3 2 -10 1.96 0.4
-3 2 10 0.98 0.39
3 2 -10 1.73 0.47
-3 2 10 1.18 0.38
-3 2 10 1.27 0.4
-3 2 10 1.08 0.38
3 2 -10 1.55 0.38
-2 -2 10 0.13 0.37
2 -2 -10 0.12 0.37
-2 -2 10 0.11 0.4
2 -2 -10 0.16 0.34
-2 -2 10 -0.51 0.34
-2 -2 10 0.53 0.36
2 -2 -10 0.44 0.51
-2 2 10 0.37 0.34
2 2 -10 0.44 0.41
-2 2 10 0 0.33
2 2 -10 -0.1 0.57
-2 2 10 0.56 0.39
2 2 -10 -0.22 0.32
-2 2 10 0.35 0.36
2 2 -10 0.23 0.33
-1 -2 10 -0.3 0.38
1 -2 -10 0.5 0.59
1 -2 -10 0.24 0.44
1 -2 -10 0.17 0.39
-1 -2 10 -0.18 0.27
-1 -2 10 0.28 0.43
-1 2 10 -0.07 0.39
1 2 -10 -0.41 0.29
1 2 -10 -0.26 0.55
-1 2 10 0.28 0.33
1 2 -10 0 0.28
-1 2 10 0.1 0.31
-1 2 10 0.09 0.09
0 -2 -10 0.03 0.55
0 -2 10 0.25 0.41
0 -2 10 -0.41 0.37
0 -2 -10 -0.05 0.43
0 -2 10 0.23 0.3
0 -2 -10 0.14 0.39
0 2 10 -0.04 0.28
0 2 -10 0.08 0.34
0 2 -10 -0.2 0.25
0 2 10 -0.36 0.34
0 2 10 -0.03 0.41
0 2 10 -0.47 0.4
0 2 -10 -0.22 0.51
0 2 -10 0.05 0.27
0 2 10 -0.1 0.17
1 -2 10 18.96 1.02
-1 -2 -10 16.55 1.39
1 -2 10 15.78 1.19
1 -2 10 16.6 1.03
-1 -2 -10 16.14 1.12
-1 2 -10 17.58 1.48
-1 2 -10 17.27 0.64
1 2 10 16.38 0.68
1 2 10 17.39 1.07
1 2 10 17.18 0.98
1 2 10 18.45 1.18
-1 2 -10 17.91 0.7
1 2 10 16.44 0.64
-1 2 -10 17.17 1.03
2 -2 10 4.08 0.73
-2 -2 -10 6.11 1.07
-2 -2 -10 3.93 0.78
2 -2 10 5.01 0.68
-2 -2 -10 4.83 0.5
-2 2 -10 3.96 0.61
-2 2 -10 2.92 0.75
2 2 10 4.78 0.7
2 2 10 4.99 0.44
2 2 10 4.7 0.36
2 2 10 4.34 0.69
2 2 10 3.64 0.61
-2 2 -10 3.84 0.43
-3 -2 -10 3.45 0.56
3 -2 10 4.51 0.9
-3 -2 -10 3.53 0.95
3 2 10 3.05 0.7
-3 2 -10 5.19 0.53
3 2 10 4.57 0.32
-3 2 -10 4.34 1.07
3 2 10 5.08 0.54
3 2 10 5.69 0.75
-3 2 -10 3.64 0.66
3 2 10 4.65 0.76
-4 -2 -10 1.54 0.99
-4 -2 -10 1.97 0.58
4 -2 10 1.86 0.59
4 -2 10 1.58 0.68
-4 2 -10 0.36 0.9
4 2 10 0.94 0.65
-4 2 -10 1.51 0.52
4 2 10 1.33 0.18
4 2 10 2.22 0.62
4 2 10 1.05 0.55
4 2 10 1.86 0.67
-5 -2 -10 -0.58 1.03
5 -2 10 -0.32 0.74
-5 -2 -10 0.77 0.56
-5 -2 -10 0.5 0.67
5 -2 10 0.06 0.59
5 -2 10 0.77 0.96
-5 2 -10 0.54 0.63
5 2 10 0.52 0.78
5 2 10 -0.4 0.76
5 2 10 1.4 0.64
-5 2 -10 0.35 1.19
5 2 10 -0.2 0.63
6 -2 10 0.69 1.18
-6 -2 -10 -0.14 0.65
-6 -2 -10 -0.33 0.73
-6 -2 -10 -0.11 1.27
6 -2 10 1.41 1.12
6 -2 10 0.3 0.67
-6 -2 -10 -0.53 0.84
6 2 10 0.44 0.85
6 2 10 0.81 0.65
-6 2 -10 1.19 1.36
-6 2 -10 0.15 0.71
-6 2 -10 -1.3 0.81
6 2 10 0.74 0.92
6 2 10 -0.29 1.05
-6 2 -10 -0.2 0.75
-7 -2 -10 3.16 1.64
7 -2 10 -0.2 0.81
7 -2 10 -0.76 1.27
7 -2 10 -2.29 1.07
-7 -2 -10 0.61 0.85
-7 -2 -10 -0.97 1
-7 -2 -10 0.83 0.9
7 2 10 0.67 1.02
-7 2 -10 1.94 1.07
-7 2 -10 -1.03 0.98
7 2 10 -1.41 1.16
-7 2 -10 -0.62 0.86
7 2 10 1.53 1.13
7 2 10 0 0.71
-7 2 -10 -1.04 1.71
8 -2 10 0.39 1.37
-8 -2 -10 2.17 1.13
8 -2 10 1.77 1.05
-8 -2 -10 -1.13 1.93
-8 -2 -10 1.91 1.32
8 2 10 0.96 1.32
-8 2 -10 -1.15 2.17
8 2 10 1.05 1.47
8 2 10 2.31 0.92
8 2 10 -1.55 1.3
-8 2 -10 2.46 1.31
-8 2 -10 1.68 1.23
12 -3 -10 1.15 0.93
12 -3 -10 1.88 1.4
12 -3 -10 0.67 0.88
12 -3 -10 0.16 0.91
12 3 -10 0.01 1.12
12 3 -10 -0.72 0.81
12 3 -10 -2.17 1.82
12 3 -10 -0.8 1.11
-12 3 10 0.3 1.34
12 3 -10 -1.41 1.08
11 -3 -10 0.26 0.92
11 -3 -10 1.52 1.13
11 -3 -10 1.28 0.72
11 -3 -10 1.22 1.15
11 -3 -10 -0.12 0.89
11 3 -10 1.38 0.93
11 3 -10 -0.01 1
11 3 -10 1.9 1.13
11 3 -10 -0.2 0.87
11 3 -10 0.17 0.62
11 3 -10 1.51 0.86
-11 3 10 1.84 1.12
10 -3 -10 0.67 0.55
10 -3 -10 -0.32 0.9
10 -3 -10 -1.07 0.8
10 -3 -10 0.16 0.63
10 3 -10 1.89 0.89
10 3 -10 -1.23 0.73
10 3 -10 -0.28 0.72
-10 3 10 -0.04 0.91
10 3 -10 0.91 0.95
-10 3 10 -0.31 0.58
10 3 -10 0.05 0.46
10 3 -10 0.99 0.71
9 -3 -10 0.08 0.48
9 -3 -10 -0.58 0.77
9 -3 -10 -0.6 0.55
-9 -3 10 -0.28 0.69
9 -3 -10 0.12 0.43
9 -3 -10 0.12 0.74
9 3 -10 0.1 0.38
9 3 -10 1.92 0.76
9 3 -10 -0.37 0.64
9 3 -10 1.2 0.73
-9 3 10 0.63 0.53
-9 3 10 -0.07 0.46
-9 3 10 0.57 0.75
9 3 -10 1.08 0.59
9 3 -10 -0.65 0.61
8 -3 -10 0.71 0.53
-8 -3 10 0.48 0.55
-8 -3 10 1.07 0.27
8 -3 -10 1.78 0.66
8 -3 -10 0.55 0.54
-8 -3 10 0.66 0.75
8 -3 -10 0.28 0.33
8 3 -10 1.16 0.58
8 3 -10 1.37 0.59
-8 3 10 0.55 0.42
8 3 -10 0.36 0.6
8 3 -10 0.43 0.27
-8 3 10 -0.03 0.44
8 3 -10 1.37 0.42
-8 3 10 0.17 0.62
8 3 -10 1.26 0.51
-8 3 10 0.95 0.46
8 3 -10 0.87 0.48
7 -3 -10 2.98 0.63
-7 -3 10 3.32 0.6
7 -3 -10 2.14 0.55
-7 -3 10 3.17 0.54
7 -3 -10 3.32 0.33
7 -3 -10 3.55 0.67
7 -3 -10 3.88 0.57
-7 -3 10 3.35 0.44
-7 3 10 3.3 0.44
-7 3 10 2.35 0.63
7 3 -10 3.66 0.66
7 3 -10 2.68 0.46
-7 3 10 3.46 0.58
7 3 -10 3.33 0.56
-7 3 10 3.77 0.65
6 -3 -10 1.93 0.5
6 -3 -10 2.06 0.58
-6 -3 10 2.51 0.54
6 -3 -10 3.03 0.59
-6 -3 10 2.44 0.46
-6 -3 10 2.25 0.39
6 -3 -10 2.3 0.23
6 -3 -10 2.18 0.58
-6 -3 10 1.73 0.41
6 3 -10 2.34 0.6
-6 3 10 1.77 0.38
6 3 -10 2.03 0.42
-6 3 10 1.89 0.46
6 3 -10 2.41 0.54
-6 3 10 1.69 0.55
-6 3 10 2.08 0.53
-6 3 10 1.82 0.49
6 3 -10 2.43 0.49
-5 -3 10 0.84 0.36
-5 -3 10 0.73 0.45
5 -3 -10 0.56 0.37
-5 -3 10 0.64 0.25
5 -3 -10 0.27 0.45
5 -3 -10 0.93 0.42
-5 -3 10 0.72 0.4
5 -3 -10 0.55 0.41
-5 -3 10 0.75 0.3
-5 3 10 0.73 0.47
5 3 -10 0.44 0.53
-5 3 10 0.97 0.46
5 3 -10 0.74 0.32
-5 3 10 0.56 0.37
5 3 -10 0.44 0.42
-5 3 10 1.27 0.36
-5 3 10 0.79 0.48
5 3 -10 0.24 0.43
-4 -3 10 -0.1 0.4
-4 -3 10 0.49 0.38
4 -3 -10 0.84 0.4
-4 -3 10 0.33 0.42
4 -3 -10 0.62 0.43
-4 -3 10 -0.13 0.28
-4 -3 10 0.35 0.19
-4 3 10 0 0.31
4 3 -10 0.29 0.49
4 3 -10 -0.03 0.32
-4 3 10 0.19 0.41
4 3 -10 0.58 0.42
-4 3 10 -0.14 0.38
-4 3 10 0.47 0.4
4 3 -10 0.27 0.35
-3 -3 10 0.28 0.37
3 -3 -10 0.76 0.46
-3 -3 10 0.41 0.39
3 -3 -10 0.43 0.55
-3 -3 10 0.35 0.17
-3 -3 10 0.2 0.28
3 -3 -10 0.33 0.44
-3 -3 10 0.03 0.41
3 3 -10 0.49 0.35
-3 3 10 0.85 0.41
3 3 -10 0.61 0.4
-3 3 10 -0.08 0.33
3 3 -10 0.14 0.31
-3 3 10 0.93 0.41
-3 3 10 0.12 0.41
3 3 -10 0.78 0.56
-2 -3 10 -0.18 0.36
-2 -3 10 0.14 0.38
2 -3 -10 0.03 0.42
-2 -3 10 -0.14 0.36
2 -3 -10 0.39 0.55
2 -3 -10 -0.19 0.33
-2 -3 10 0.06 0.3
2 3 -10 0.1 0.34
2 3 -10 -0.16 0.31
2 3 -10 0.62 0.56
-2 3 10 -0.02 0.38
-2 3 10 0.19 0.36
-2 3 10 -0.1 0.35
-2 3 10 -0.09 0.35
2 3 -10 0.27 0.42
-1 -3 10 0.28 0.45
1 -3 -10 0.47 0.54
-1 -3 10 0.5 0.37
1 -3 -10 0.42 0.44
-1 -3 10 0.38 0.41
1 -3 -10 0.68 0.42
-1 3 10 0.55 0.43
-1 3 10 0.48 0.42
1 3 -10 0.11 0.36
1 3 -10 0.75 0.32
-1 3 10 -0.02 0.32
-1 3 10 0.29 0.38
1 3 -10 0.72 0.53
0 -3 10 0.28 0.45
0 -3 10 0.58 0.53
0 -3 -10 -0.26 0.42
0 -3 10 -0.02 0.34
0 -3 -10 -0.37 0.47
0 -3 -10 -0.38 0.5
0 3 10 -0.12 0.39
0 3 -10 0.26 0.26
0 3 10 -0.21 0.43
0 3 10 0.02 0.31
0 3 -10 -0.41 0.32
0 3 10 0.36 0.4
0 3 -10 0.1 0.58
0 3 10 0.3 0.17
0 3 -10 0.25 0.29
1 -3 10 1.98 0.58
1 -3 10 1.37 0.5
-1 -3 -10 0.24 0.66
-1 -3 -10 1.18 0.56
1 -3 10 1.15 0.49
1 3 10 1.06 0.45
-1 3 -10 0.75 0.4
1 3 10 0.73 0.33
1 3 10 0.55 0.43
1 3 10 0.76 0.52
-1 3 -10 1.07 0.29
-1 3 -10 1.82 0.84
-1 3 -10 0.99 0.3
1 3 10 1.46 0.26
-2 -3 -10 -0.48 0.66
-2 -3 -10 0.58 0.44
2 -3 10 0.14 0.64
-2 -3 -10 0.93 0.51
2 -3 10 0.81 0.57
2 -3 10 0.01 0.42
-2 3 -10 0.2 0.72
-2 3 -10 0.12 0.24
2 3 10 0.2 0.3
2 3 10 -0.18 0.3
2 3 10 0.09 0.44
2 3 10 0.03 0.48
-2 3 -10 0.05 0.43
-2 3 -10 0.38 0.33
2 3 10 0.4 0.54
3 -3 10 -0.07 0.49
3 -3 10 -0.15 0.67
-3 -3 -10 0.15 0.84
3 -3 10 -0.14 0.73
-3 -3 -10 0.38 0.5
-3 3 -10 -0.02 0.45
3 3 10 0 0.58
3 3 10 0.49 0.39
3 3 10 -0.65 0.61
3 3 10 0.14 0.3
3 3 10 0.36 0.44
-3 3 -10 0.46 0.9
-3 3 -10 0.25 0.43
-4 -3 -10 -0.41 0.53
-4 -3 -10 -0.28 0.91
4 -3 10 -0.27 0.55
4 3 10 0 0.53
4 3 10 0.02 0.27
-4 3 -10 -0.83 0.53
4 3 10 -0.67 0.63
4 3 10 -0.18 0.5
-4 3 -10 -0.02 0.52
-4 3 -10 -1.15 0.97
4 3 10 -0.45 0.71
5 -3 10 3.21 0.96
-5 -3 -10 4.58 0.81
5 -3 10 2.5 0.89
-5 -3 -10 4.56 0.8
-5 -3 -10 4.68 0.62
-5 -3 -10 5.68 1.4
5 -3 10 5.78 0.93
5 3 10 5.87 0.76
5 3 10 3.8 0.91
5 3 10 5.79 0.9
5 3 10 5.65 0.95
-5 3 -10 4.77 0.72
-5 3 -10 4.54 1.38
6 -3 10 2.29 1.18
6 -3 10 3.23 0.92
-6 -3 -10 3.09 1.51
6 -3 10 3.19 1.16
-6 -3 -10 3.42 0.89
-6 -3 -10 2.42 0.94
-6 -3 -10 2.1 0.68
-6 3 -10 2.7 0.83
-6 3 -10 2.76 0.85
-6 3 -10 1.25 0.94
6 3 10 2.25 0.76
6 3 10 1.61 0.95
-6 3 -10 3.38 2.62
6 3 10 3.87 0.83
6 3 10 1.55 0.98
7 -3 10 2.11 1.36
-7 -3 -10 -1.96 1.46
7 -3 10 1.78 1.3
-7 -3 -10 -0.32 1.13
7 -3 10 0.37 0.87
-7 -3 -10 0.3 1.06
-7 -3 -10 0.82 0.94
7 3 10 -1.6 1.06
-7 3 -10 -2.03 0.8
7 3 10 1.78 0.88
-7 3 -10 -0.14 1.12
-7 3 -10 3.19 1.77
7 3 10 2.59 1.08
-7 3 -10 0.95 0.99
7 3 10 0.25 1.16
8 -3 10 2.21 1.55
-8 -3 -10 0.11 1.04
-8 -3 -10 0.25 1.24
8 -3 10 0.49 0.97
-8 -3 -10 -0.52 1.94
8 3 10 -1.43 1.55
-8 3 -10 -1.18 2.13
8 3 10 0.36 0.92
-8 3 -10 1.72 1.34
-8 3 -10 0.71 1.2
8 3 10 -0.57 1.28
8 3 10 1.72 1.29
12 -4 -10 0.41 0.99
12 -4 -10 -0.66 1.54
12 4 -10 -0.33 1.12
12 4 -10 -2.24 1.18
12 4 -10 1.17 0.87
-12 4 10 0.44 1.39
12 4 -10 0.12 1.19
-12 4 10 0.06 0.65
11 -4 -10 0.57 0.77
11 -4 -10 -0.87 1.17
11 -4 -10 0.73 1.04
11 -4 -10 0.07 0.64
11 -4 -10 -0.13 0.83
11 4 -10 0.9 0.99
11 4 -10 1.72 0.94
11 4 -10 -0.53 0.61
11 4 -10 -0.73 1.13
11 4 -10 0.69 1.1
-11 4 10 0.35 1.19
-11 4 10 0.01 0.58
11 4 -10 0.35 0.91
10 -4 -10 0.21 0.97
10 -4 -10 1.2 0.9
10 -4 -10 -0.06 0.69
10 -4 -10 -0.3 0.56
10 4 -10 0.21 0.78
-10 4 10 0.34 0.87
-10 4 10 0.8 0.58
10 4 -10 -0.13 0.49
10 4 -10 -0.43 0.87
10 4 -10 0.09 0.7
-10 4 10 -0.52 0.63
10 4 -10 -0.36 0.96
10 4 -10 0.06 0.77
9 -4 -10 -1.16 0.74
9 -4 -10 0.78 0.85
9 -4 -10 0.08 0.53
9 -4 -10 0.3 0.66
-9 -4 10 -1.64 0.72
9 4 -10 0.23 0.72
9 4 -10 0.48 0.4
9 4 -10 -0.01 0.63
9 4 -10 0 0.66
-9 4 10 0.18 0.77
-9 4 10 1.13 0.63
9 4 -10 0.37 0.72
9 4 -10 -0.02 0.66
8 -4 -10 0.43 0.54
8 -4 -10 0.03 0.71
8 -4 -10 0.49 0.44
-8 -4 10 0.26 0.68
8 4 -10 0.47 0.29
8 4 -10 -0.15 0.53
8 4 -10 -0.93 0.55
8 4 -10 0.24 0.46
-8 4 10 -0.12 0.54
8 4 -10 0.34 0.35
-8 4 10 -1.08 0.65
-8 4 10 -0.04 0.4
8 4 -10 0.15 0.58
8 4 -10 0.54 0.52
-7 -4 10 0.14 0.34
-7 -4 10 0.19 0.65
7 -4 -10 0 0.49
7 -4 -10 -0.49 0.52
-7 -4 10 0.1 0.33
-7 -4 10 0.29 0.48
7 -4 -10 0.82 0.64
-7 4 10 0.46 0.37
-7 4 10 0.97 0.57
-7 4 10 0.76 0.49
7 4 -10 0.74 0.53
7 4 -10 0.47 0.38
7 4 -10 0.04 0.35
7 4 -10 0.69 0.52
-7 4 10 0.73 0.58
7 4 -10 0.27 0.51
6 -4 -10 3.6 0.57
-6 -4 10 4.44 0.55
-6 -4 10 4.01 0.42
-6 -4 10 3.72 0.48
6 -4 -10 4.35 0.77
-6 -4 10 2.8 0.47
6 -4 -10 3.54 0.63
-6 -4 10 3.52 0.62
6 4 -10 3.89 0.48
-6 4 10 3.34 0.41
6 4 -10 3.74 0.54
6 4 -10 2.9 0.59
-6 4 10 3.59 0.67
6 4 -10 3.9 0.66
-6 4 10 3.09 0.54
5 -4 -10 -0.14 0.44
-5 -4 10 -0.01 0.43
5 -4 -10 -0.05 0.55
-5 -4 10 0.34 0.28
-5 -4 10 -0.09 0.26
5 -4 -10 0.26 0.41
5 -4 -10 0.1 0.13
-5 -4 10 0.25 0.39
-5 -4 10 0.65 0.5
5 -4 -10 -0.27 0.38
-5 4 10 0.01 0.43
-5 4 10 -0.23 0.36
5 4 -10 0.27 0.48
5 4 -10 0.68 0.43
-5 4 10 0.34 0.33
5 4 -10 0.26 0.51
-5 4 10 -0.1 0.46
5 4 -10 -0.07 0.31
-4 -4 10 6.32 0.6
-4 -4 10 5.67 0.62
4 -4 -10 6.79 0.55
-4 -4 10 6.43 0.45
4 -4 -10 7.72 0.86
4 -4 -10 6.22 0.78
-4 -4 10 6.79 0.84
4 -4 -10 7.12 0.66
4 -4 -10 6.16 0.25
-4 -4 10 7.09 0.55
4 4 -10 5.01 0.52
-4 4 10 7.21 0.63
-4 4 10 6.26 0.61
4 4 -10 6.35 0.65
-4 4 10 7.59 0.76
-4 4 10 6.67 0.82
4 4 -10 8.65 0.65
4 4 -10 6.78 0.89
-3 -4 10 0.53 0.44
-3 -4 10 0.65 0.43
-3 -4 10 1.19 0.39
-3 -4 10 0.82 0.23
3 -4 -10 0.95 0.48
3 -4 -10 0.84 0.48
3 -4 -10 0.86 0.46
-3 -4 10 1.19 0.43
-3 4 10 0.31 0.41
-3 4 10 0.32 0.44
3 4 -10 1 0.43
3 4 -10 0.92 0.43
3 4 -10 1.24 0.39
-3 4 10 1.38 0.51
-3 4 10 0.99 0.46
3 4 -10 0.68 0.57
2 -4 -10 1.58 0.47
-2 -4 10 2.46 0.54
2 -4 -10 1.15 0.51
-2 -4 10 2 0.42
-2 -4 10 1.65 0.4
-2 -4 10 1.89 0.46
-2 4 10 1.96 0.47
-2 4 10 2.21 0.58
2 4 -10 1.62 0.45
-2 4 10 2.06 0.51
2 4 -10 1.92 0.72
2 4 -10 1.61 0.39
-2 4 10 1.43 0.4
-1 -4 10 5.92 0.72
1 -4 -10 6.61 0.98
-1 -4 10 6.27 0.85
-1 -4 10 5.24 0.55
1 -4 -10 5.49 0.77
-1 -4 10 5.76 0.55
1 -4 -10 6.94 0.67
1 4 -10 7.01 0.76
-1 4 10 6.29 0.83
-1 4 10 5.07 0.51
1 4 -10 5.92 0.88
1 4 -10 5.41 0.46
1 4 -10 6.31 0.41
-1 4 10 7.35 0.82
-1 4 10 5.53 0.49
0 -4 -10 0.35 0.5
0 -4 10 -0.16 0.46
0 -4 -10 0.15 0.62
0 -4 10 0.21 0.36
0 -4 10 -0.14 0.52
0 -4 -10 0.48 0.48
0 4 -10 0.13 0.24
0 4 -10 0.03 0.33
0 4 -10 -0.17 0.63
0 4 10 -0.66 0.34
0 4 10 -0.2 0.39
0 4 10 0.08 0.46
0 4 -10 0.54 0.4
0 4 10 -0.73 0.41
0 4 10 0.33 0.19
1 -4 10 0.8 0.57
1 -4 10 1.17 0.58
1 -4 10 0.73 0.44
-1 -4 -10 1.58 0.76
-1 -4 -10 1.39 0.54
-1 -4 -10 1.04 0.55
-1 4 -10 0.67 0.69
-1 4 -10 0.94 0.3
-1 4 -10 0.3 0.38
1 4 10 0.56 0.26
1 4 10 0.94 0.45
1 4 10 0.77 0.37
1 4 10 1.3 0.51
1 4 10 -0.04 0.45
-1 4 -10 0.92 0.31
-2 -4 -10 0.86 0.83
2 -4 10 0.11 0.42
-2 -4 -10 -0.01 0.51
2 -4 10 0.33 0.66
2 -4 10 0.03 0.62
-2 4 -10 0.71 0.91
2 4 10 -0.75 0.44
2 4 10 0.73 0.36
2 4 10 0.27 0.3
-2 4 -10 0.26 0.27
-2 4 -10 0.02 0.35
-2 4 -10 0.34 0.76
2 4 10 -0.04 0.55
-3 -4 -10 -0.32 0.52
3 -4 10 0.52 0.5
3 -4 10 -0.12 0.91
-3 -4 -10 0 0.87
3 4 10 -0.18 0.38
3 4 10 0.3 0.51
-3 4 -10 0.1 0.41
3 4 10 0.71 0.61
3 4 10 0.18 0.35
3 4 10 -0.98 0.59
-3 4 -10 0.51 0.95
-3 4 -10 -0.54 0.43
4 -4 10 0.68 0.51
4 -4 10 1.18 0.83
-4 -4 -10 0.73 0.64
4 -4 10 -0.45 0.8
-4 -4 -10 0.67 0.44
-4 -4 -10 1.8 1.03
4 4 10 0.3 0.36
4 4 10 0.68 0.59
-4 4 -10 1.33 0.55
-4 4 -10 0.76 0.6
4 4 10 1.19 0.61
-4 4 -10 0.51 1.12
4 4 10 0.42 0.72
4 4 10 1.83 0.74
5 -4 10 -0.14 0.67
-5 -4 -10 -1.2 0.7
-5 -4 -10 -1.01 1.08
5 -4 10 0.55 1
5 -4 10 -0.73 0.86
-5 -4 -10 -0.16 0.49
-5 -4 -10 -0.04 0.79
-5 4 -10 -0.32 0.65
5 4 10 0.17 0.33
5 4 10 0.99 0.77
5 4 10 -0.41 0.79
5 4 10 0.47 0.69
-5 4 -10 1.68 2.17
-5 4 -10 0.64 0.67
6 -4 10 -0.23 0.71
-6 -4 -10 -0.12 0.96
6 -4 10 1 1
-6 -4 -10 2.42 0.97
6 -4 10 -0.43 1.11
-6 -4 -10 -0.75 1.3
-6 -4 -10 0.55 0.63
6 4 10 -0.04 0.99
-6 4 -10 -0.44 0.75
-6 4 -10 0.08 1.39
6 4 10 1.4 0.81
-6 4 -10 -0.57 0.96
-6 4 -10 0.33 0.82
6 4 10 1.74 0.99
6 4 10 1.02 0.78
7 -4 10 0.28 1.46
7 -4 10 0.74 0.99
7 -4 10 -2.41 1.27
-7 -4 -10 2.07 1.2
-7 -4 -10 -0.19 0.77
-7 -4 -10 -0.38 1.03
-7 -4 -10 2.23 1.68
7 4 10 0.62 0.99
7 4 10 1.65 1.2
-7 4 -10 -2.75 1.77
7 4 10 -1.01 0.83
7 4 10 1.57 1.04
-7 4 -10 0.01 0.95
-7 4 -10 -0.71 1.17
-7 4 -10 1.05 0.95
-8 -4 -10 -0.71 1.76
8 -4 10 -3.39 1.5
-8 -4 -10 0.29 1.19
8 -4 10 0.59 1.13
-8 -4 -10 0.81 1.85
8 4 10 2 1.26
-8 4 -10 0.67 2.18
8 4 10 1.1 2.25
8 4 10 -0.34 0.99
8 4 10 -1 1.44
-8 4 -10 1.05 1.43
12 -5 -10 1.3 1.1
12 5 -10 1.34 0.94
11 -5 -10 -0.37 0.92
11 -5 -10 0.08 0.74
11 -5 -10 -1.52 1.19
11 -5 -10 0.77 1.3
11 5 -10 -1.83 1.2
11 5 -10 -0.1 0.64
11 5 -10 0.97 1.1
-11 5 10 -0.03 1.13
-11 5 10 0.8 0.85
11 5 -10 1.17 1.04
-11 5 10 1.09 0.73
11 5 -10 -0.62 0.91
11 5 -10 -1.03 0.94
10 -5 -10 0.79 0.94
10 -5 -10 -0.54 0.68
10 -5 -10 0.57 0.8
10 -5 -10 1.94 1.11
10 5 -10 1.37 1
10 5 -10 -0.16 0.5
-10 5 10 -0.55 0.95
-10 5 10 0.24 0.76
10 5 -10 0.27 0.74
-10 5 10 0.13 0.64
10 5 -10 0.82 0.91
10 5 -10 0.1 0.71
10 5 -10 -0.71 0.94
9 -5 -10 -0.1 0.71
9 -5 -10 0.58 0.56
9 -5 -10 1.37 0.95
9 -5 -10 0.55 0.84
9 5 -10 0.47 0.42
9 5 -10 -0.89 0.72
9 5 -10 -0.01 0.63
9 5 -10 0.56 0.75
-9 5 10 0.15 0.58
9 5 -10 -0.51 0.82
-9 5 10 0.51 0.69
9 5 -10 1.17 0.59
-9 5 10 -0.64 0.81
8 -5 -10 1.56 0.65
-8 -5 10 2.18 0.77
8 -5 -10 2.24 0.72
8 -5 -10 2.42 0.78
8 -5 -10 2.77 0.65
8 5 -10 2.63 0.59
8 5 -10 2.17 0.56
-8 5 10 1.27 0.8
8 5 -10 1.12 0.65
-8 5 10 0.99 0.65
8 5 -10 1.53 0.48
8 5 -10 1.95 0.43
-8 5 10 -0.07 0.39
7 -5 -10 0.28 0.66
-7 -5 10 0.32 0.34
-7 -5 10 -0.16 0.47
7 -5 -10 0.14 0.51
7 -5 -10 -0.35 0.59
-7 -5 10 -0.02 0.64
-7 -5 10 0.21 0.37
7 -5 -10 1.06 0.57
7 5 -10 0.76 0.59
-7 5 10 0.53 0.63
7 5 -10 0.78 0.36
7 5 -10 0.65 0.52
-7 5 10 0.13 0.58
7 5 -10 0.88 0.6
7 5 -10 0.47 0.37
-7 5 10 0.8 0.37
6 -5 -10 0.79 0.58
-6 -5 10 -0.62 0.57
6 -5 -10 -0.29 0.52
-6 -5 10 0.09 0.32
6 -5 -10 -0.74 0.45
-6 -5 10 0.39 0.42
6 -5 -10 0.48 0.47
-6 -5 10 0.43 0.37
-6 5 10 0.04 0.32
6 5 -10 0.48 0.32
6 5 -10 0.24 0.34
-6 5 10 0.84 0.58
6 5 -10 -0.1 0.53
-6 5 10 -0.08 0.56
-6 5 10 1.27 0.42
6 5 -10 0.18 0.45
6 5 -10 0.17 0.59
5 -5 -10 0.61 0.55
-5 -5 10 0.43 0.4
-5 -5 10 0.28 0.54
5 -5 -10 -0.22 0.39
5 -5 -10 0.5 0.43
5 -5 -10 0.06 0.17
-5 -5 10 0.24 0.44
-5 -5 10 0.2 0.34
-5 -5 10 -0.16 0.31
5 -5 -10 0.15 0.53
-5 5 10 1.26 0.51
5 5 -10 -0.12 0.31
-5 5 10 -0.08 0.47
-5 5 10 -0.06 0.33
5 5 -10 0.22 0.57
5 5 -10 0.1 0.43
5 5 -10 -0.15 0.46
-5 5 10 -0.4 0.48
-5 5 10 0.53 0.51
4 -5 -10 0.88 0.46
4 -5 -10 0.79 0.54
-4 -5 10 1.34 0.54
-4 -5 10 1.65 0.4
-4 -5 10 1.02 0.29
-4 -5 10 1.6 0.49
4 -5 -10 0.83 0.4
4 -5 -10 1.28 0.2
4 -5 -10 1.06 0.48
-4 -5 10 1.13 0.41
4 5 -10 1.19 0.45
-4 5 10 0.79 0.54
4 5 -10 1.7 0.42
-4 5 10 1.35 0.49
4 5 -10 1.14 0.47
-4 5 10 0.8 0.46
4 5 -10 1.15 0.64
3 -5 -10 7.35 0.94
3 -5 -10 5.55 0.35
3 -5 -10 4.34 0.57
3 -5 -10 6.01 0.48
-3 -5 10 5.96 0.45
-3 -5 10 5.95 0.73
-3 -5 10 6.03 0.8
-3 -5 10 5.35 0.61
-3 -5 10 6.12 0.55
3 -5 -10 5.44 0.74
-3 5 10 5.54 0.55
3 5 -10 6.56 0.58
-3 5 10 4.96 0.72
3 5 -10 5.66 0.68
3 5 -10 6.53 0.93
-3 5 10 5.48 0.58
-3 5 10 6.64 0.79
2 -5 -10 0.33 0.32
-2 -5 10 0 0.42
2 -5 -10 0.72 0.5
2 -5 -10 0.34 0.49
2 -5 -10 -0.08 0.22
-2 -5 10 -0.06 0.45
-2 -5 10 0.23 0.38
-2 -5 10 0.39 0.44
2 -5 -10 0.17 0.47
2 5 -10 0.53 0.62
-2 5 10 0.08 0.39
2 5 -10 -0.2 0.35
-2 5 10 -0.4 0.46
2 5 -10 -0.05 0.38
-2 5 10 0.79 0.45
2 5 -10 0.24 0.18
-2 5 10 0.56 0.5
-1 -5 10 3.76 0.75
1 -5 -10 3.81 0.58
-1 -5 10 3.63 0.53
-1 -5 10 2.02 0.49
1 -5 -10 3.07 0.63
-1 -5 10 3.95 0.62
-1 5 10 4.34 0.74
-1 5 10 2.82 0.47
-1 5 10 3.24 0.69
1 5 -10 2.96 0.77
1 5 -10 3.04 0.54
1 5 -10 3.32 0.44
-1 5 10 3.33 0.49
1 5 -10 3.52 0.27
0 -5 10 7.65 0.64
0 -5 10 10.7 0.76
0 -5 -10 8.74 1.08
0 -5 10 8.59 0.89
0 -5 -10 10.18 0.77
0 -5 -10 7.51 1.03
0 5 -10 8.76 0.47
0 5 10 10.01 1
0 5 -10 7.06 0.97
0 5 10 8.86 0.74
0 5 -10 8.5 0.89
0 5 -10 8.66 0.66
0 5 10 9.41 0.84
0 5 10 6.83 0.89
1 -5 10 8.51 0.68
1 -5 10 10.46 1.26
1 -5 10 9.57 0.83
1 -5 10 9.08 0.95
-1 -5 -10 8.87 0.79
-1 -5 -10 6.04 0.99
-1 -5 -10 10.2 1.13
1 5 10 8.26 0.74
1 5 10 9.45 0.74
-1 5 -10 8.24 0.92
1 5 10 9.28 1.07
1 5 10 8.8 1.06
1 5 10 8.88 0.52
-1 5 -10 9.31 0.55
-1 5 -10 5.44 0.92
-1 5 -10 8.86 0.64
-2 -5 -10 -0.01 0.79
2 -5 10 0.28 0.64
-2 -5 -10 0.32 0.53
2 -5 10 0.14 0.58
2 -5 10 0.61 0.56
-2 5 -10 -0.61 0.44
2 5 10 0.03 0.94
2 5 10 0.4 0.52
2 5 10 0.26 0.41
2 5 10 0.05 0.49
-2 5 -10 -0.64 0.83
2 5 10 -0.25 0.33
-2 5 -10 0.27 0.31
-2 5 -10 0.19 0.34
-3 -5 -10 3.07 0.62
3 -5 10 2.75 1.01
3 -5 10 2.69 0.75
-3 -5 -10 1.52 0.98
3 5 10 2.77 0.47
-3 5 -10 2.58 0.47
3 5 10 2.46 0.46
3 5 10 3.54 0.78
3 5 10 3.76 0.7
3 5 10 4.06 0.76
-3 5 -10 1.64 0.62
4 -5 10 3.63 0.85
4 -5 10 3.35 0.96
4 -5 10 4.3 1.07
-4 -5 -10 4.55 0.77
-4 -5 -10 4.63 1.33
-4 -5 -10 3.59 0.84
4 5 10 2.79 0.76
4 5 10 4.57 0.62
4 5 10 3.67 0.8
-4 5 -10 4.28 0.83
4 5 10 4.36 0.51
4 5 10 4.65 1
-4 5 -10 4.98 1.38
-4 5 -10 3.31 0.59
-5 -5 -10 5.89 1.51
5 -5 10 2.81 1.07
-5 -5 -10 4.41 0.9
5 -5 10 4.57 0.96
-5 -5 -10 4.62 0.85
5 -5 10 6.51 1.21
5 5 10 5.74 0.52
5 5 10 4.93 1.01
5 5 10 6.26 0.95
-5 5 -10 7.4 1.09
-5 5 -10 7.83 1.7
5 5 10 3.94 0.92
6 -5 10 0.77 1.17
-6 -5 -10 -0.1 0.89
-6 -5 -10 -0.29 0.98
-6 -5 -10 -0.58 0.58
6 -5 10 0.78 1.3
6 -5 10 0.71 0.87
-6 -5 -10 3.04 1.44
-6 5 -10 -1.04 1.02
-6 5 -10 0.07 0.76
6 5 10 0.83 0.81
6 5 10 -0.62 0.88
-6 5 -10 0.73 0.89
6 5 10 1.55 1.02
6 5 10 0.23 0.79
6 5 10 0.22 0.42
-6 5 -10 0.25 1.54
-7 -5 -10 -0.09 0.77
-7 -5 -10 0.37 1.22
-7 -5 -10 1.95 1.74
-7 -5 -10 0.37 1.19
7 -5 10 0.8 0.97
7 -5 10 2.15 1.3
7 5 10 0.73 1.01
7 5 10 0.77 1.1
-7 5 -10 -0.57 1.83
-7 5 -10 -0.88 1.19
7 5 10 0.25 1.28
7 5 10 1.28 0.9
11 -6 -10 1.56 1.47
11 -6 -10 1.63 1.19
11 -6 -10 0.69 0.9
-11 6 10 1.46 0.84
11 6 -10 1.7 0.74
11 6 -10 -0.87 1.11
-11 6 10 0.23 1.24
11 6 -10 0.69 1.23
11 6 -10 -0.91 0.93
11 6 -10 2.78 0.96
10 -6 -10 -0.7 0.91
10 -6 -10 1.18 1.2
10 -6 -10 -0.46 1.01
10 -6 -10 0.43 0.81
-10 6 10 -0.15 0.91
10 6 -10 -0.34 1
10 6 -10 -0.17 0.54
10 6 -10 0.46 0.78
10 6 -10 -1.03 1
10 6 -10 -0.63 0.71
-10 6 10 -1.43 1.01
-10 6 10 0.89 0.77
10 6 -10 -1.36 0.97
9 -6 -10 0.11 0.89
9 -6 -10 1.49 0.68
9 -6 -10 -0.58 0.82
9 -6 -10 1.21 1.03
9 6 -10 -0.9 0.88
9 6 -10 -0.2 0.59
-9 6 10 0.68 0.75
9 6 -10 1.19 0.82
-9 6 10 0.33 0.93
9 6 -10 -1.95 0.82
9 6 -10 -0.64 0.66
-9 6 10 -0.3 0.8
8 -6 -10 2.71 0.68
8 -6 -10 2.15 0.85
8 -6 -10 1.17 0.78
-8 -6 10 1.35 0.82
8 -6 -10 2.46 0.8
8 6 -10 1.77 0.46
8 6 -10 2.32 0.61
8 6 -10 1.87 0.6
-8 6 10 2.59 0.78
8 6 -10 2 0.49
-8 6 10 2.09 0.67
8 6 -10 0.62 0.74
8 6 -10 0.84 0.67
-8 6 10 0.15 0.7
-7 -6 10 -0.32 0.47
7 -6 -10 -0.87 0.51
-7 -6 10 -0.62 0.73
-7 -6 10 0.46 0.41
7 -6 -10 0.01 0.73
-7 -6 10 0.05 0.5
-7 6 10 0.39 0.34
-7 6 10 0.02 0.64
7 6 -10 0.2 0.36
-7 6 10 -0.12 0.49
7 6 -10 0.56 0.52
7 6 -10 -0.06 0.34
-7 6 10 -0.63 0.66
7 6 -10 -0.82 0.59
7 6 -10 0.29 0.58
-6 -6 10 0.19 0.35
-6 -6 10 -0.16 0.48
-6 -6 10 0.21 0.42
6 -6 -10 0.73 0.7
6 -6 -10 -0.15 0.53
-6 -6 10 0.38 0.64
6 -6 -10 0.35 0.69
-6 -6 10 1.05 0.44
6 6 -10 0.23 0.29
-6 6 10 -0.5 0.58
-6 6 10 0.17 0.6
6 6 -10 0.16 0.47
6 6 -10 -0.18 0.53
6 6 -10 0.46 0.39
-6 6 10 0.3 0.34
6 6 -10 0.35 0.66
-6 6 10 0.49 0.61
-5 -6 10 0.33 0.6
-5 -6 10 0.48 0.38
-5 -6 10 0.23 0.41
-5 -6 10 0.81 0.63
-5 -6 10 0.35 0.37
5 -6 -10 0.25 0.21
5 -6 -10 0.24 0.49
5 -6 -10 0.73 0.63
5 -6 -10 0.81 0.61
5 -6 -10 0.18 0.52
5 6 -10 0.62 0.24
5 6 -10 1.08 0.57
-5 6 10 0.92 0.59
5 6 -10 0.25 0.46
-5 6 10 0.25 0.55
-5 6 10 0.56 0.61
5 6 -10 -0.01 0.35
5 6 -10 0.25 0.65
4 -6 -10 -0.05 0.22
-4 -6 10 0.28 0.41
4 -6 -10 -0.43 0.5
4 -6 -10 -0.26 0.4
4 -6 -10 0.24 0.61
-4 -6 10 0.39 0.42
-4 -6 10 0.53 0.32
4 6 -10 -0.38 0.35
-4 6 10 -0.29 0.52
4 6 -10 -0.01 0.19
-4 6 10 0.04 0.48
-4 6 10 0.39 0.51
4 6 -10 0.74 0.67
-3 -6 10 0.01 0.29
3 -6 -10 -0.11 0.52
3 -6 -10 -0.14 0.44
-3 -6 10 0.16 0.6
-3 -6 10 -0.16 0.33
-3 -6 10 0.1 0.46
-3 -6 10 -0.2 0.47
3 -6 -10 0.81 0.55
3 -6 -10 -0.13 0.37
3 -6 -10 -0.01 0.22
3 6 -10 0.27 0.35
-3 6 10 -0.63 0.5
3 6 -10 0.85 0.65
-3 6 10 -0.11 0.44
-3 6 10 0.26 0.73
-3 6 10 -0.44 0.5
3 6 -10 0.67 0.45
2 -6 -10 3.15 0.41
2 -6 -10 3.66 0.71
-2 -6 10 3.33 0.6
2 -6 -10 3.86 0.75
2 -6 -10 2.75 0.6
-2 -6 10 2.08 0.63
-2 -6 10 3.07 0.6
2 -6 -10 3.29 0.34
-2 -6 10 3.66 0.53
-2 6 10 3.15 0.74
2 6 -10 3.94 0.63
2 6 -10 3.17 0.25
-2 6 10 3.39 0.57
2 6 -10 2.47 0.78
-2 6 10 3.85 0.57
2 6 -10 3.36 0.54
1 -6 -10 0.06 0.29
-1 -6 10 0.74 0.45
1 -6 -10 -0.22 0.52
1 -6 -10 0.65 0.52
1 -6 -10 -0.2 0.3
1 -6 -10 0.27 0.51
-1 -6 10 0.32 0.46
-1 -6 10 0.45 0.5
-1 6 10 0.78 0.57
1 6 -10 0.7 0.42
-1 6 10 -0.02 0.45
1 6 -10 0.26 0.19
-1 6 10 0.01 0.33
1 6 -10 0.02 0.39
1 6 -10 0.15 0.63
-1 6 10 0.44 0.48
0 -6 -10 -0.17 0.54
0 -6 10 -0.11 0.46
0 -6 10 0.34 0.45
0 -6 10 0.19 0.64
0 -6 10 -0.49 0.54
0 -6 -10 0.35 0.57
0 6 10 -0.04 0.48
0 6 10 0.15 0.54
0 6 10 0.94 0.53
0 6 -10 0.52 0.42
0 6 -10 -0.21 0.45
0 6 -10 -0.07 0.22
0 6 -10 0.75 0.92
1 -6 10 1.49 0.51
-1 -6 -10 1.05 0.62
1 -6 10 1.73 0.83
-1 -6 -10 0.63 0.69
1 -6 10 1.3 0.55
-1 -6 -10 0.06 0.79
1 6 10 2.48 0.71
-1 6 -10 1.47 0.3
1 6 10 1.34 0.29
1 6 10 1.9 0.57
-1 6 -10 0.44 0.55
1 6 10 2.59 0.71
-1 6 -10 1.87 1.09
-1 6 -10 1.4 0.42
-2 -6 -10 2.61 1.02
2 -6 10 2.47 0.69
2 -6 10 2.39 0.79
2 -6 10 2.53 0.62
2 -6 10 1.53 0.88
2 6 10 2.29 0.42
-2 6 -10 1.75 0.38
-2 6 -10 1.76 1
2 6 10 1.81 0.63
2 6 10 1.38 0.79
-2 6 -10 2.26 0.39
2 6 10 3.74 0.8
-2 6 -10 2.51 0.65
-3 -6 -10 0.94 0.65
3 -6 10 -0.29 0.52
3 -6 10 -0.89 0.75
3 -6 10 1.28 1.23
-3 -6 -10 1.56 0.93
-3 -6 -10 -0.16 0.29
3 6 10 0.7 0.63
-3 6 -10 0.36 0.62
3 6 10 -0.66 0.62
-3 6 -10 0.22 0.43
3 6 10 0.71 0.61
-3 6 -10 0.02 0.34
-3 6 -10 0.4 1.08
3 6 10 0.12 0.42
4 -6 10 7.31 1.06
-4 -6 -10 8.23 1.1
4 -6 10 7.12 1.13
-4 -6 -10 6.38 1.42
-4 -6 -10 6.96 0.91
4 -6 10 6.6 1.28
4 6 10 6.38 1.07
-4 6 -10 7.26 0.65
4 6 10 5.96 0.95
-4 6 -10 5.39 1.48
4 6 10 7.7 0.89
-4 6 -10 7.4 0.99
4 6 10 7.51 0.71
-5 -6 -10 0.8 0.86
5 -6 10 1.66 1.03
-5 -6 -10 1.82 0.89
-5 -6 -10 0.73 1.33
5 -6 10 -0.01 0.66
5 -6 10 1.08 1.18
-5 -6 -10 0.37 0.43
5 6 10 0.43 0.73
5 6 10 -1.07 0.62
5 6 10 0.71 0.89
-5 6 -10 -1.32 0.78
-5 6 -10 0.89 1.54
6 -6 10 6.26 1.3
-6 -6 -10 4.88 1.14
6 -6 10 4.81 1.44
-6 -6 -10 1.65 1.58
6 -6 10 3.8 1.4
-6 -6 -10 5.64 1.08
6 6 10 4.89 0.63
6 6 10 4.55 1
6 6 10 4.35 0.92
-6 6 -10 3.83 1.12
6 6 10 4.74 1.09
-6 6 -10 4.15 1.85
6 6 10 5.41 1.17
-6 6 -10 3.24 1.02
7 -6 10 4.4 1.69
-7 -6 -10 -1.03 1.82
-7 -6 -10 0.21 1.27
-7 -6 -10 0.46 0.69
7 6 10 -0.14 1.02
-7 6 -10 -0.63 2.13
7 6 10 0.34 0.53
7 6 10 1.65 1
7 6 10 2.32 1.1
-7 6 -10 0.23 1.29
7 6 10 -0.25 1.3
11 -7 -10 -0.66 1.6
11 -7 -10 -0.4 0.99
11 -7 -10 -0.33 1.94
-11 7 10 -0.51 1
-11 7 10 -1.66 1.36
11 7 -10 1.67 0.97
11 7 -10 0.76 1.35
11 7 -10 -0.78 0.93
10 -7 -10 2.02 0.86
10 -7 -10 -2.7 1.07
10 -7 -10 0.81 1.23
10 -7 -10 1.96 1.1
10 7 -10 0.82 0.75
-10 7 10 -0.02 0.83
-10 7 10 0.93 1.07
10 7 -10 0.47 1.14
10 7 -10 0.06 1.2
10 7 -10 -0.06 0.79
10 7 -10 -1.12 1.02
-10 7 10 0.54 1.23
9 -7 -10 1.25 0.73
9 -7 -10 2.02 0.96
9 -7 -10 1.79 1.07
9 -7 -10 0.21 0.89
9 7 -10 0.88 0.6
9 7 -10 2.15 1.04
9 7 -10 1.74 0.92
-9 7 10 1.28 0.84
9 7 -10 0.89 0.68
9 7 -10 2.19 0.93
-9 7 10 1.09 0.99
-9 7 10 0.45 0.89
-8 -7 10 -0.32 0.69
8 -7 -10 0.61 0.93
8 -7 -10 0.74 0.66
8 -7 -10 0.43 0.86
-8 -7 10 -0.99 0.88
8 -7 -10 -0.15 0.76
-8 7 10 -0.46 0.81
8 7 -10 -0.45 0.56
8 7 -10 0.33 0.6
8 7 -10 -0.76 0.86
-8 7 10 -0.29 0.68
8 7 -10 -0.06 0.45
-8 7 10 0.47 0.8
8 7 -10 0.05 0.78
8 7 -10 -0.82 0.42
-7 -7 10 -0.06 0.48
-7 -7 10 0.98 0.61
-7 -7 10 0.29 0.82
7 -7 -10 0.97 0.6
7 -7 -10 1.05 0.82
7 -7 -10 3.21 0.88
-7 7 10 -0.22 0.32
7 7 -10 1.17 0.53
7 7 -10 0.28 0.7
7 7 -10 0.89 0.71
7 7 -10 0.85 0.37
7 7 -10 0.46 0.74
-7 7 10 1.11 0.68
7 7 -10 0.57 0.38
-7 7 10 1.48 0.79
-7 7 10 0.7 0.75
-6 -7 10 1.02 0.74
6 -7 -10 0.13 0.74
-6 -7 10 0.57 0.43
-6 -7 10 -0.14 0.56
6 -7 -10 0.05 0.73
6 -7 -10 -0.29 0.59
-6 -7 10 0.3 0.5
-6 -7 10 0.01 0.37
6 -7 -10 -0.6 0.55
-6 7 10 -0.21 0.5
-6 7 10 -0.3 0.33
6 7 -10 0.09 0.26
6 7 -10 0.12 0.39
-6 7 10 0.24 0.67
6 7 -10 0.36 0.62
-6 7 10 0.24 0.66
6 7 -10 -0.33 0.48
-6 7 10 0.07 0.65
6 7 -10 -0.03 0.81
-5 -7 10 1.07 0.45
-5 -7 10 1.5 0.67
5 -7 -10 1.2 0.28
5 -7 -10 0.92 0.66
5 -7 -10 1.04 0.51
-5 -7 10 0.99 0.44
-5 -7 10 0.46 0.58
-5 -7 10 1.33 0.45
5 -7 -10 0.67 0.71
5 -7 -10 1.19 0.54
5 7 -10 0.33 0.44
5 7 -10 0.69 0.21
-5 7 10 1.05 0.65
-5 7 10 1.24 0.7
-5 7 10 0.24 0.57
-4 -7 10 5.37 0.81
4 -7 -10 4.87 0.83
-4 -7 10 5.52 0.51
4 -7 -10 5.86 0.48
4 -7 -10 5.67 0.88
-4 -7 10 5.46 0.53
-4 -7 10 5.62 0.77
-4 -7 10 5.2 0.75
4 -7 -10 5.6 0.91
4 -7 -10 5.55 0.56
-4 7 10 7.14 1
-4 7 10 5.34 0.66
4 7 -10 4.93 0.64
4 7 -10 6.46 0.73
-4 7 10 5.7 0.71
-3 -7 10 0.12 0.35
3 -7 -10 0.28 0.4
-3 -7 10 -0.8 0.52
3 -7 -10 -0.56 0.53
3 -7 -10 -0.05 0.54
-3 -7 10 -0.08 0.42
-3 -7 10 -0.14 0.48
3 -7 -10 0.12 0.59
-3 -7 10 -0.21 0.57
3 -7 -10 0.17 0.3
3 7 -10 0.07 0.36
3 7 -10 0.37 0.75
-3 7 10 -0.34 0.58
-3 7 10 0.06 0.49
-3 7 10 -0.15 0.5
2 -7 -10 1.77 0.35
2 -7 -10 2.48 0.65
2 -7 -10 1.06 0.79
-2 -7 10 1.78 0.36
2 -7 -10 1.95 0.38
-2 -7 10 1.84 0.53
2 -7 -10 2.5 0.71
-2 -7 10 3.16 0.62
-2 -7 10 1.96 0.8
2 7 -10 2.2 0.82
-2 7 10 1.02 0.5
-2 7 10 2.09 0.6
-2 7 10 2.54 0.77
2 7 -10 1.6 0.51
2 7 -10 2.37 0.53
1 -7 -10 0.04 0.58
1 -7 -10 0.59 0.36
-1 -7 10 0.85 0.63
1 -7 -10 0.95 0.33
1 -7 -10 1.12 0.63
-1 -7 10 0.95 0.56
-1 -7 10 0.74 0.51
1 -7 -10 0.87 0.55
1 7 -10 1.05 0.49
-1 7 10 1.17 0.55
-1 7 10 1.22 0.63
-1 7 10 0.44 0.41
1 7 -10 0.17 0.73
1 7 -10 1.07 0.51
0 -7 -10 1.22 0.29
0 -7 -10 0.89 0.42
0 -7 -10 2.06 0.72
0 -7 10 1.36 0.71
0 -7 10 0.45 0.62
0 -7 -10 1.37 0.65
0 -7 10 0.8 0.53
0 -7 -10 0.53 0.64
0 7 10 1.21 0.66
0 7 -10 0.97 0.48
0 7 10 1.71 0.56
0 7 10 0.38 0.59
0 7 -10 2.06 0.59
0 7 -10 0.57 0.81
-1 -7 -10 0.51 0.87
1 -7 10 0.97 0.73
-1 -7 -10 -1.14 0.57
-1 -7 -10 -0.29 0.23
1 -7 10 -0.76 0.5
1 -7 10 1.01 0.73
-1 -7 -10 0.65 0.66
-1 7 -10 -0.32 0.93
-1 7 -10 -0.3 0.44
1 7 10 -0.4 0.63
-1 7 -10 -0.2 0.52
2 -7 10 2.4 0.64
2 -7 10 4.27 0.87
2 -7 10 3.78 0.83
-2 -7 -10 4.03 1.19
2 7 10 3.92 0.82
-2 7 -10 3.86 0.7
-2 7 -10 4.11 1.21
2 7 10 2.52 0.66
-2 7 -10 4.23 0.51
2 7 10 3.14 0.77
2 7 10 3.62 0.46
3 -7 10 1.3 0.96
3 -7 10 2.1 0.95
-3 -7 -10 1.97 1.11
3 -7 10 2.24 0.68
-3 -7 -10 2.82 0.79
3 -7 10 2.77 0.79
-3 -7 -10 2.49 0.82
3 7 10 1.96 0.78
3 7 10 2.85 0.73
3 7 10 1.34 0.69
-3 7 -10 2.41 0.79
-3 7 -10 3.31 1.33
3 7 10 2.87 0.52
-4 -7 -10 0.1 1.19
4 -7 10 -0.31 0.7
4 -7 10 0.81 0.71
4 -7 10 0.32 1.16
-4 -7 -10 1.57 0.87
4 -7 10 0.56 1.12
-4 -7 -10 0.79 0.84
-4 7 -10 1.19 0.8
4 7 10 0.3 0.69
-4 7 -10 1.37 1.4
4 7 10 1.7 0.85
-4 7 -10 -0.33 0.35
4 7 10 0.14 0.76
5 -7 10 0.96 0.83
-5 -7 -10 0.96 0.95
5 -7 10 0.56 1.36
-5 -7 -10 1.04 1.46
5 -7 10 -0.82 1.02
-5 -7 -10 -0.02 0.94
5 7 10 1.36 0.81
5 7 10 1.55 0.9
5 7 10 0.31 0.91
-5 7 -10 -0.61 1.49
-5 7 -10 1.35 0.91
5 7 10 0.81 0.69
6 -7 10 1.1 0.94
-6 -7 -10 -0.52 1.19
6 -7 10 -0.94 1.31
-6 -7 -10 0.9 1.73
-6 -7 -10 0.9 1.16
6 7 10 0.8 0.97
6 7 10 1.13 1.1
-6 7 -10 -1.77 1.2
6 7 10 0.51 0.89
6 7 10 0.71 1.02
-6 7 -10 3.01 2.02
-6 7 -10 -1.18 1.17
7 -7 10 2.17 1.93
-7 -7 -10 -3.17 2.29
-7 -7 -10 1.69 2.18
7 7 10 -2.3 1.14
-7 7 -10 1.86 1.69
7 7 10 -0.03 1.37
-7 7 -10 -0.19 2.42
7 7 10 -1.27 1.29
7 7 10 -0.92 0.97
10 -8 -10 -0.48 1.37
10 -8 -10 -2.37 1.2
10 -8 -10 -0.65 0.96
10 -8 -10 -1.3 1.14
-10 8 10 0.4 1.25
-10 8 10 -1.92 0.94
10 8 -10 -1.15 1.15
10 8 -10 0.4 0.73
10 8 -10 -0.13 0.77
-10 8 10 -1.09 1.33
9 -8 -10 1.57 1.2
9 -8 -10 2.55 1.04
9 -8 -10 2.54 1
9 -8 -10 2.07 1.18
9 8 -10 1.05 0.67
-9 8 10 -0.47 0.92
-9 8 10 1.38 1.07
9 8 -10 1.45 0.6
9 8 -10 3.14 1.02
-9 8 10 1.4 0.94
9 8 -10 0.84 1.08
9 8 -10 1.57 1.03
8 -8 -10 1.51 0.87
8 -8 -10 0.82 1.02
8 -8 -10 0.83 0.92
8 -8 -10 1.71 0.85
-8 -8 10 0.44 0.41
-8 -8 10 1.95 0.85
8 8 -10 0.84 0.87
-8 8 10 2.71 0.83
-8 8 10 0.16 0.92
8 8 -10 1.46 0.55
-8 8 10 1.18 0.91
8 8 -10 1.33 0.99
8 8 -10 1.49 0.61
8 8 -10 1.66 0.46
7 -8 -10 1.49 0.97
7 -8 -10 0.87 0.84
-7 -8 10 0.93 0.63
-7 -8 10 -0.1 0.87
-7 -8 10 1.38 0.85
7 -8 -10 -0.01 0.73
7 8 -10 1 0.34
-7 8 10 0.58 0.86
7 8 -10 1.59 0.78
7 8 -10 1.31 0.78
7 8 -10 -0.3 0.39
-7 8 10 0.17 0.65
-7 8 10 -1.08 0.83
-7 8 10 0.56 0.27
7 8 -10 0.98 0.88
-6 -8 10 4.57 0.68
-6 -8 10 6.25 0.92
6 -8 -10 5.15 0.73
6 -8 -10 4.99 0.91
-6 -8 10 4.72 0.91
6 -8 -10 4.47 0.88
6 -8 -10 5.49 0.98
-6 8 10 4.9 0.97
6 8 -10 2.06 0.82
6 8 -10 5.06 0.7
6 8 -10 5.23 0.85
6 8 -10 4.09 0.92
-6 8 10 4.66 0.89
-6 8 10 4.74 0.8
6 8 -10 4.77 0.39
-6 8 10 4.63 0.82
5 -8 -10 1.06 0.34
5 -8 -10 0.03 0.7
-5 -8 10 1.78 0.76
-5 -8 10 0.27 0.45
5 -8 -10 1.11 0.54
5 -8 -10 0.7 0.59
-5 -8 10 0.82 0.45
-5 -8 10 -0.3 0.49
5 -8 -10 0.49 0.78
5 8 -10 -0.37 0.43
-5 8 10 1.05 0.74
-5 8 10 0.49 0.72
-5 8 10 0.41 0.64
5 8 -10 1.15 0.73
5 8 -10 1.56 0.84
-4 -8 10 2.67 0.52
-4 -8 10 2.36 0.48
4 -8 -10 1.41 0.5
-4 -8 10 1.72 0.54
4 -8 -10 2.09 0.93
4 -8 -10 1.74 0.36
4 -8 -10 1.5 0.73
-4 -8 10 1.95 0.72
4 -8 -10 1.54 0.67
-4 8 10 2.16 0.85
-4 8 10 2.04 0.64
-4 8 10 1.19 0.66
-4 8 10 0.83 0.74
4 8 -10 1.46 0.85
4 8 -10 1.48 0.54
-3 -8 10 2.27 0.47
3 -8 -10 2.34 0.39
3 -8 -10 1.8 0.73
-3 -8 10 2.42 0.56
3 -8 -10 4.03 0.97
-3 -8 10 2.5 0.62
-3 -8 10 2.22 0.7
3 -8 -10 1.63 0.68
3 -8 -10 1.84 0.44
3 8 -10 2.42 0.65
3 8 -10 1.37 0.52
-3 8 10 2.4 0.58
-3 8 10 1.71 0.66
-3 8 10 2.55 0.79
3 8 -10 2.63 0.99
-3 8 10 1.22 0.59
-2 -8 10 -0.11 0.53
-2 -8 10 -0.31 0.6
2 -8 -10 -0.65 0.65
-2 -8 10 0.13 0.4
2 -8 -10 0.38 0.66
2 -8 -10 0.28 0.33
2 -8 -10 -0.23 0.38
2 -8 -10 -0.16 0.58
-2 -8 10 0.72 0.51
2 8 -10 0.18 0.82
-2 8 10 -0.1 0.42
2 8 -10 0.63 0.61
2 8 -10 0.72 0.45
-2 8 10 -0.85 0.57
1 -8 -10 1.05 0.31
-1 -8 10 0.62 0.61
1 -8 -10 1.5 0.68
1 -8 -10 1.65 0.76
-1 -8 10 1.09 0.49
-1 -8 10 0.96 0.58
1 -8 -10 2.44 0.78
1 -8 -10 0.95 0.44
-1 8 10 0.52 0.57
-1 8 10 0.89 0.66
1 8 -10 1.98 0.56
-1 8 10 1.44 0.58
1 8 -10 1.52 0.96
1 8 -10 2.15 0.59
0 -8 10 0.47 0.62
0 -8 -10 -0.38 0.74
0 -8 10 -0.04 0.69
0 -8 -10 -0.26 0.47
0 -8 -10 0.02 0.23
0 -8 10 -0.64 0.6
0 -8 -10 -0.29 0.64
0 8 10 -0.23 0.62
0 8 -10 -0.45 0.57
0 8 10 -0.72 0.67
0 8 -10 0.1 0.53
0 8 -10 0.07 0.86
-1 -8 -10 0.84 0.56
1 -8 10 1.54 0.8
-1 -8 -10 1.61 0.71
1 -8 10 1.26 0.57
1 -8 10 0.39 0.62
1 -8 10 0.04 0.72
-1 -8 -10 2.59 0.75
-1 8 -10 1.75 0.56
1 8 10 1.5 0.71
1 8 10 1.33 0.62
-1 8 -10 0.65 1.06
1 8 10 -0.27 0.73
-1 8 -10 0.03 0.59
2 -8 10 0.53 0.7
2 -8 10 -0.34 0.85
-2 -8 -10 -0.28 0.86
2 -8 10 0.39 0.7
-2 -8 -10 0.71 1.17
-2 8 -10 0.89 1.24
2 8 10 1.03 0.64
-2 8 -10 0.55 0.64
2 8 10 -0.93 0.76
-2 8 -10 1.27 0.53
2 8 10 -0.46 0.64
3 -8 10 5.53 1.16
-3 -8 -10 4.38 1.07
3 -8 10 5.21 0.9
-3 -8 -10 4.56 0.94
3 -8 10 2.88 1.16
3 -8 10 2.84 0.74
-3 -8 -10 4.41 1.37
3 8 10 2.95 0.72
-3 8 -10 4.73 1.53
3 8 10 2.84 0.77
3 8 10 4.08 0.95
-3 8 -10 0.55 0.52
3 8 10 3.27 0.57
-3 8 -10 3.52 0.88
4 -8 10 2.13 1.25
4 -8 10 1.74 0.8
-4 -8 -10 3.56 1.12
-4 -8 -10 3.06 1.47
4 -8 10 2.57 0.84
4 -8 10 3.52 1.16
-4 -8 -10 1.76 0.93
4 8 10 2.2 1.02
4 8 10 1.7 0.74
4 8 10 1.76 0.66
-4 8 -10 1.12 0.84
-4 8 -10 2.97 1.68
4 8 10 2.72 0.84
-4 8 -10 -0.22 0.48
5 -8 10 0.55 1.48
-5 -8 -10 -0.3 1.07
5 -8 10 1.03 0.88
-5 -8 -10 -1.14 1.6
-5 -8 -10 1.11 1.19
5 -8 10 0 0.88
5 -8 10 0.01 1.54
5 8 10 0.92 0.79
-5 8 -10 -1.91 0.98
-5 8 -10 0.98 1.91
5 8 10 -0.32 0.97
5 8 10 -0.03 0.93
5 8 10 1.87 0.88
6 -8 10 3.78 1.33
-6 -8 -10 0.3 1.92
6 -8 10 2.05 1.04
6 -8 10 -1.05 1.72
-6 -8 -10 2.66 1.38
6 8 10 3.77 1.03
6 8 10 3.88 1.2
-6 8 -10 2.06 1.29
6 8 10 1.5 1.2
6 8 10 2.17 1.18
-6 8 -10 2.96 2.16
10 -9 -10 2.48 1.14
10 -9 -10 0.6 1.59
10 -9 -10 2.09 2.29
10 9 -10 -0.44 0.93
-10 9 10 0.03 1.5
-10 9 10 3.97 1.58
10 9 -10 0.12 1.27
9 -9 -10 -1.91 1.01
9 -9 -10 -0.96 1.1
9 -9 -10 -0.57 1.24
9 -9 -10 1.52 1.4
9 9 -10 -0.66 0.59
9 9 -10 -0.14 1.08
-9 9 10 0.82 1.27
-9 9 10 3.19 1.37
-9 9 10 -0.98 1.09
8 -9 -10 -1.51 1.25
8 -9 -10 2.09 1.22
-8 -9 10 -0.53 0.9
8 -9 -10 0.07 0.88
8 -9 -10 -1.54 0.92
-8 -9 10 -0.1 0.49
8 9 -10 0.02 0.54
-8 9 10 -1 1.01
8 9 -10 0.42 0.42
8 9 -10 -1.16 0.91
-8 9 10 0.8 1.03
8 9 -10 -0.49 0.74
8 9 -10 0.22 1.08
-8 9 10 1.02 1.14
-7 -9 10 -1.21 1.01
7 -9 -10 -1.22 0.98
7 -9 -10 0.65 0.75
-7 -9 10 0.32 0.47
7 -9 -10 0.62 0.86
-7 -9 10 -0.25 0.79
-7 9 10 1.66 0.81
7 9 -10 0.19 0.87
7 9 -10 -1.33 0.79
-7 9 10 0.11 1.01
7 9 -10 0.5 0.49
-7 9 10 0.29 0.97
7 9 -10 0.87 0.97
6 -9 -10 -0.7 0.65
6 -9 -10 1.12 0.78
6 -9 -10 -0.16 0.93
-6 -9 10 0.71 0.76
-6 -9 10 -0.08 0.44
-6 -9 10 -0.23 0.88
-6 -9 10 1.01 0.51
-6 -9 10 0.76 0.66
6 -9 -10 0.17 0.99
6 9 -10 0.01 0.92
-6 9 10 0.28 0.77
6 9 -10 -0.6 0.87
-6 9 10 0.05 0.34
6 9 -10 0.18 0.51
6 9 -10 -0.24 0.79
-6 9 10 0.43 0.84
-6 9 10 0.41 0.88
-5 -9 10 0.6 0.52
-5 -9 10 0.11 0.45
5 -9 -10 0.53 0.87
5 -9 -10 2.34 0.42
5 -9 -10 1.05 0.87
-5 -9 10 2.16 0.74
5 -9 -10 1.72 0.59
-5 -9 10 2.61 0.92
-5 -9 10 1.19 0.83
5 -9 -10 2.33 0.81
5 9 -10 1.39 0.8
5 9 -10 1.09 0.58
-5 9 10 2.35 0.73
-5 9 10 2.47 0.74
-5 9 10 2.07 0.86
5 9 -10 1.95 0.95
-5 9 10 1.99 1.02
-4 -9 10 1.44 0.75
4 -9 -10 1.61 0.89
4 -9 -10 2.46 0.74
4 -9 -10 0.87 0.5
-4 -9 10 0.17 0.49
4 -9 -10 2.11 0.8
-4 -9 10 0.03 0.49
-4 -9 10 1.26 0.57
4 -9 -10 1.14 0.41
-4 -9 10 0.68 0.73
-4 9 10 -0.46 0.64
-4 9 10 0.23 0.83
-4 9 10 1.29 0.75
-4 9 10 0.41 0.64
4 9 -10 0.45 0.84
4 9 -10 1.2 0.54
4 9 -10 1.11 0.76
-3 -9 10 0.95 0.49
3 -9 -10 0.65 0.86
3 -9 -10 0.52 0.73
3 -9 -10 -0.06 0.41
-3 -9 10 1.26 0.76
3 -9 -10 0.45 0.41
-3 -9 10 1.08 0.58
-3 -9 10 1.95 0.56
-3 -9 10 -0.45 0.68
3 -9 -10 1.32 0.75
-3 9 10 -0.03 0.8
-3 9 10 1.16 0.63
3 9 -10 0.33 0.55
3 9 -10 -0.06 0.9
-3 9 10 0.64 0.65
2 -9 -10 0.44 0.45
-2 -9 10 -0.22 0.55
2 -9 -10 -0.5 0.62
2 -9 -10 0.48 0.74
2 -9 -10 -1.18 0.75
-2 -9 10 -0.28 0.71
-2 -9 10 -0.01 0.59
-2 -9 10 -0.63 0.7
-2 -9 10 -0.25 0.44
2 -9 -10 0 0.33
-2 9 10 0.27 0.55
-2 9 10 0.32 0.66
2 9 -10 -0.68 0.72
2 9 -10 -0.73 0.95
2 9 -10 0.4 0.58
-2 9 10 0.79 0.83
-1 -9 10 0.79 0.68
-1 -9 10 1.54 0.69
1 -9 -10 0.91 0.49
1 -9 -10 0.79 0.83
1 -9 -10 0.75 0.69
-1 -9 10 0.74 0.61
1 -9 -10 0.35 0.27
-1 9 10 1.17 0.56
1 9 -10 0.69 0.63
-1 9 10 1.09 0.75
1 9 -10 2.15 1.07
-1 9 10 0.99 0.61
1 9 -10 1.12 0.61
0 -9 -10 -0.19 0.67
0 -9 -10 -0.35 0.85
0 -9 10 1.17 0.64
0 -9 10 0.78 0.89
0 -9 10 0.27 0.84
0 -9 10 0.3 0.69
0 -9 -10 1 0.55
0 -9 -10 0.34 0.86
0 9 10 -0.29 0.81
0 9 -10 -0.04 0.51
0 9 10 0.04 0.69
0 9 -10 0.97 1.1
0 9 10 0.44 0.58
1 -9 10 1.28 0.73
-1 -9 -10 -0.25 0.62
1 -9 10 1.1 0.76
1 -9 10 0.26 0.86
1 -9 10 1.73 0.75
-1 -9 -10 0.05 0.86
-1 -9 -10 0.21 0.95
-1 -9 -10 -1.06 0.7
1 9 10 0.25 0.83
1 9 10 0.79 0.66
1 9 10 0.68 0.62
-1 9 -10 1.25 0.63
-1 9 -10 -0.62 1.18
-1 9 -10 -0.16 0.6
2 -9 10 8.99 1.18
2 -9 10 5.79 1.12
2 -9 10 6.83 0.9
2 -9 10 5.93 1.43
-2 -9 -10 5.65 1.18
2 9 10 5.93 0.76
-2 9 -10 6.75 0.96
-2 9 -10 7.2 1.61
-2 9 -10 7.23 0.75
2 9 10 9.11 1.22
2 9 10 6.4 1
3 -9 10 0.62 0.83
3 -9 10 1.57 1.19
3 -9 10 -0.17 0.91
-3 -9 -10 -0.84 1.01
-3 -9 -10 0.96 0.92
-3 -9 -10 1.41 1.62
3 -9 10 1.04 1.32
3 9 10 0.65 0.73
-3 9 -10 0.16 0.64
3 9 10 -0.11 0.83
-3 9 -10 -0.58 0.84
3 9 10 1.53 0.93
-3 9 -10 1.7 1.57
4 -9 10 0.81 0.91
-4 -9 -10 0.47 2.9
4 -9 10 -0.05 1.43
4 -9 10 1.53 1.49
4 -9 10 0.97 0.93
-4 -9 -10 0.01 1
-4 -9 -10 1.23 1.17
-4 9 -10 -0.87 0.6
4 9 10 1 0.68
-4 9 -10 -0.64 0.9
-4 9 -10 0.81 1.82
4 9 10 1.19 0.84
4 9 10 -0.11 0.97
4 9 10 1.41 0.95
5 -9 10 1.19 1.05
-5 -9 -10 2.95 1.21
-5 -9 -10 2.17 3.25
5 -9 10 2.33 1.37
5 -9 10 1.89 1.18
5 -9 10 1.46 1.78
5 9 10 2.41 0.85
-5 9 -10 0.33 0.55
-5 9 -10 1.81 2.13
5 9 10 2.2 1.23
-5 9 -10 1.04 1.97
5 9 10 2.58 1.03
5 9 10 2.8 1.06
6 9 10 0.5 1.05
-9 -10 10 -0.6 1.28
9 -10 -10 0.52 1.22
9 -10 -10 0.67 1.19
9 -10 -10 0.54 1.57
9 -10 -10 -0.71 1.58
-9 10 10 0.5 1.34
9 10 -10 -0.5 1.2
8 -10 -10 -0.4 0.96
-8 -10 10 0.74 0.84
-8 -10 10 0.75 1.1
8 -10 -10 -1.8 1.01
8 -10 -10 -1.8 1.25
-8 -10 10 0.54 0.6
8 -10 -10 0.45 1.37
8 10 -10 1.3 0.74
-8 10 10 0.85 1.43
-8 10 10 0.77 1.4
8 10 -10 0.11 0.93
-8 10 10 0.05 1.22
7 -10 -10 0.51 1.14
-7 -10 10 1.08 0.8
-7 -10 10 -0.65 0.58
7 -10 -10 0.69 1.17
-7 -10 10 -0.29 0.94
7 -10 -10 0.37 0.99
7 -10 -10 0.49 0.85
-7 10 10 -0.23 1.03
7 10 -10 1.61 0.96
-7 10 10 0.26 1.29
7 10 -10 -0.51 0.95
-7 10 10 -1.24 0.94
7 10 -10 0.24 0.56
7 10 -10 1.2 1.12
-6 -10 10 0.78 0.55
-6 -10 10 -0.39 0.85
-6 -10 10 0.62 0.83
6 -10 -10 0.72 1.03
6 -10 -10 -0.25 0.47
6 -10 -10 -1.23 1.09
-6 -10 10 -0.13 1.05
6 -10 -10 2.44 0.99
6 -10 -10 0.58 0.82
-6 10 10 0.1 1.08
6 10 -10 1.26 0.93
-6 10 10 0.71 0.89
-6 10 10 0.07 0.3
6 10 -10 -0.44 0.59
6 10 -10 0.49 0.93
6 10 -10 -0.24 0.99
-6 10 10 0.25 0.97
-5 -10 10 -0.06 0.85
-5 -10 10 0.46 1
5 -10 -10 0.25 0.62
-5 -10 10 0.69 0.61
-5 -10 10 -0.09 0.67
5 -10 -10 0.76 0.95
-5 -10 10 0.4 0.44
5 -10 -10 2.61 1.03
5 -10 -10 0.61 0.48
5 -10 -10 0.24 0.87
5 10 -10 -0.15 0.99
5 10 -10 0.23 0.92
-5 10 10 -0.58 0.87
-5 10 10 0.19 0.82
5 10 -10 1.48 0.63
-5 10 10 -0.49 0.96
4 -10 -10 2.82 0.91
-4 -10 10 2.13 0.67
4 -10 -10 1.85 0.52
-4 -10 10 -0.25 0.49
-4 -10 10 0.58 0.59
4 -10 -10 1.91 0.55
-4 -10 10 0.7 0.88
4 -10 -10 1.71 0.86
-4 -10 10 2.43 0.97
4 -10 -10 1.87 1.07
-4 10 10 4.25 1.13
4 10 -10 1.51 1.09
-4 10 10 2.09 0.89
4 10 -10 2.55 0.87
-4 10 10 2.04 0.72
4 10 -10 1.91 0.71
-4 10 10 1.91 0.75
3 -10 -10 1.08 0.8
-3 -10 10 -0.24 0.77
3 -10 -10 0.13 0.42
-3 -10 10 0.67 0.8
-3 -10 10 0.07 0.58
-3 -10 10 0.57 0.6
3 -10 -10 0.82 0.82
3 -10 -10 -0.3 0.91
3 -10 -10 -0.34 0.48
-3 -10 10 0.46 0.55
3 10 -10 -0.05 1.08
-3 10 10 0.53 0.79
-3 10 10 -0.16 0.86
-3 10 10 -0.17 0.7
3 10 -10 -0.43 0.8
3 10 -10 0.3 0.64
-2 -10 10 1.75 0.67
-2 -10 10 0.67 0.56
2 -10 -10 1.26 0.85
2 -10 -10 0.56 0.52
-2 -10 10 -0.29 0.89
2 -10 -10 0.55 1.03
-2 -10 10 0.6 0.64
-2 -10 10 1.31 0.83
2 -10 -10 0.35 0.89
-2 10 10 1.26 0.68
-2 10 10 1.08 1.04
-2 10 10 1.57 0.75
2 10 -10 0.14 0.66
2 10 -10 0.49 1.09
1 -10 -10 2.9 0.86
1 -10 -10 2.3 1.15
-1 -10 10 2.19 1.01
1 -10 -10 1.29 0.79
1 -10 -10 2.49 0.61
-1 -10 10 3.86 0.85
-1 -10 10 2.92 0.77
-1 -10 10 2.78 0.84
-1 10 10 2.83 0.69
-1 10 10 2.85 0.86
1 10 -10 2.95 0.77
-1 10 10 2.98 0.96
1 10 -10 3.18 1.3
0 -10 10 -0.4 0.77
0 -10 10 1.36 0.72
0 -10 -10 0.72 0.63
0 -10 -10 -0.03 0.81
0 -10 10 0.6 0.92
0 -10 -10 -1.03 0.75
0 -10 10 0.04 0.87
0 -10 -10 -1 1.01
0 10 10 1.12 0.66
0 10 10 0.59 0.91
0 10 10 -0.38 0.57
0 10 -10 0.56 1.26
0 10 -10 -0.67 0.7
-1 -10 -10 -0.6 0.72
-1 -10 -10 3.34 1.13
1 -10 10 1.18 1.1
1 -10 10 1.06 0.8
-1 -10 -10 0.34 0.86
-1 -10 -10 2.07 0.92
1 -10 10 0.85 0.82
-1 10 -10 1.71 1.25
-1 10 -10 0.78 0.69
1 10 10 1.5 0.84
1 10 10 0.35 0.67
1 10 10 2.01 1.01
-2 -10 -10 -1.78 1
2 -10 10 0.63 0.9
-2 -10 -10 -0.06 0.83
2 -10 10 -2.18 1.14
-2 -10 -10 -1.25 0.86
2 -10 10 0.51 0.87
2 -10 10 -0.06 1.21
2 10 10 1.18 0.75
-2 10 -10 0.06 0.71
2 10 10 -1.38 0.81
2 10 10 -1.12 0.89
-2 10 -10 0.34 1.41
-3 -10 -10 -1.82 1.07
-3 -10 -10 0.9 1.67
-3 -10 -10 -0.75 1.04
3 -10 10 0.27 0.96
3 -10 10 0.98 1.34
3 -10 10 0.94 1.52
3 -10 10 0.42 0.92
-3 10 -10 -0.35 0.74
3 10 10 0.26 0.79
3 10 10 0.38 1.04
-3 10 -10 1.56 1.77
-3 10 -10 -0.09 0.93
-4 -10 -10 0.4 1.8
4 -10 10 2.94 1.73
-4 -10 -10 1.02 1.28
4 -10 10 0.71 1.65
4 -10 10 -1.46 0.99
4 -10 10 1.51 1.12
-4 10 -10 0.36 1.93
4 10 10 1.53 0.93
4 10 10 1.1 1.1
4 10 10 0.27 0.98
-4 10 -10 0.02 1.06
-4 10 -10 1.03 0.77
5 -10 10 3.68 1.24
-5 -10 -10 -0.68 1.41
5 -10 10 -2.57 1.61
-5 -10 -10 1.25 2.05
5 -10 10 -0.57 1.15
5 10 10 1.34 1.17
5 10 10 0.79 1.35
-5 10 -10 3.88 2.44
5 10 10 2.12 0.96
5 10 10 -0.64 1.05
8 -11 -10 1.45 1.54
8 -11 -10 2.49 1.43
8 -11 -10 2.69 1.6
-8 -11 10 -0.66 0.98
-8 -11 10 0.99 1.32
-8 11 10 -1.05 1.44
-8 11 10 2.46 1.56
8 11 -10 1.27 1.02
7 -11 -10 1.48 1.26
7 -11 -10 -0.02 1.3
7 -11 -10 0.13 0.99
-7 -11 10 0.5 1.13
-7 -11 10 0.55 1.07
-7 -11 10 0.16 0.69
7 -11 -10 2.46 1.1
-7 11 10 0.46 1.2
-7 11 10 0.28 1.41
7 11 -10 3.48 1.13
7 11 -10 -0.46 0.66
-6 -11 10 1.1 0.98
-6 -11 10 1.36 0.67
6 -11 -10 0.41 1.21
6 -11 -10 0.69 1.1
-6 -11 10 -0.51 1.23
6 -11 -10 0.02 1.23
-6 -11 10 -0.1 1.06
6 -11 -10 0.96 0.74
-6 11 10 0.47 1.08
-6 11 10 -0.94 1.09
6 11 -10 1.76 1.08
-6 11 10 2.22 1.36
6 11 -10 -0.43 1.11
6 11 -10 -0.31 0.65
6 11 -10 0.08 1.08
5 -11 -10 2.45 1.1
-5 -11 10 -0.49 0.64
5 -11 -10 2.67 0.63
-5 -11 10 3.59 1.17
-5 -11 10 -0.58 0.4
5 -11 -10 -0.4 1.16
5 -11 -10 3 1.09
-5 -11 10 -1.58 0.97
-5 -11 10 1.24 0.84
-5 11 10 2.47 1.01
5 11 -10 1.56 0.69
-5 11 10 3.09 1.2
5 11 -10 0.7 1.05
5 11 -10 0.95 1.12
-5 11 10 2.27 1.18
4 -11 -10 0.55 1.14
4 -11 -10 0.7 0.6
-4 -11 10 0.45 0.65
4 -11 -10 -1.13 0.96
4 -11 -10 0.49 0.94
-4 -11 10 0.41 0.78
-4 -11 10 -0.2 1.03
-4 -11 10 0.71 1.21
-4 -11 10 0.19 0.51
4 11 -10 0.33 1.22
-4 11 10 0 1.13
4 11 -10 0.17 0.73
4 11 -10 -0.52 0.98
-4 11 10 1.12 0.97
-4 11 10 0.52 0.83
-3 -11 10 0.69 0.78
-3 -11 10 0.63 1.04
3 -11 -10 0.31 0.94
-3 -11 10 1.18 1
-3 -11 10 0.13 0.62
3 -11 -10 -0.68 0.58
-3 -11 10 -0.13 0.67
3 -11 -10 2.53 0.97
-3 11 10 0.13 0.76
3 11 -10 0.1 1.26
-3 11 10 -1.35 1.05
3 11 -10 0.02 0.77
-3 11 10 3.41 1
-2 -11 10 -0.16 0.71
-2 -11 10 0.74 0.94
2 -11 -10 -0.29 1.18
2 -11 -10 -0.88 0.59
2 -11 -10 0.82 0.94
-2 -11 10 0.52 0.65
-2 -11 10 0.34 0.68
2 -11 -10 -0.7 0.96
-2 -11 10 1.75 1.18
-2 11 10 0.36 0.83
2 11 -10 0.55 1.31
-2 11 10 0.26 1.03
2 11 -10 1.02 1.27
-2 11 10 0.01 0.74
-1 -11 10 -1.48 0.81
1 -11 -10 0.63 0.91
1 -11 -10 0.33 1.13
-1 -11 10 0.81 0.83
1 -11 -10 -1.24 0.95
-1 -11 10 2.45 1.35
-1 -11 10 -1.23 0.93
1 11 -10 1.89 1.28
-1 11 10 0.6 0.96
-1 11 10 0.66 0.97
1 11 -10 0.38 0.9
-1 11 10 -0.19 0.73
0 -11 -10 -0.28 1.21
0 -11 -10 0.44 0.76
0 -11 10 0.29 0.83
0 -11 10 0.74 1.37
0 -11 10 -0.11 0.91
0 -11 10 0.42 0.9
0 -11 -10 0.91 0.94
0 -11 -10 0 0.92
0 11 10 -0.02 0.73
0 11 -10 -0.64 0.72
0 11 10 -0.88 0.88
0 11 10 -1.2 0.92
0 11 -10 -0.37 1.34
-1 -11 -10 -0.23 0.83
-1 -11 -10 -0.34 1.28
1 -11 10 0.44 0.97
1 -11 10 4.03 1.46
-1 -11 -10 2.69 1.09
-1 -11 -10 -0.32 1.01
1 -11 10 1.36 0.82
-1 11 -10 1.16 1.57
1 11 10 0.95 0.78
-1 11 -10 0.04 0.97
1 11 10 -0.53 0.81
1 11 10 0.59 1.18
-2 -11 -10 0.57 1.12
-2 -11 -10 0.75 1.14
-2 -11 -10 -0.26 1
2 -11 10 -0.25 1.31
-2 -11 -10 -0.11 1.23
2 -11 10 0.39 1.01
2 -11 10 2.57 1.42
2 -11 10 -0.16 0.96
2 11 10 0.78 0.93
-2 11 -10 -0.11 1.06
-2 11 -10 0.78 1.69
2 11 10 -0.89 1.05
2 11 10 -0.22 0.81
3 -11 10 2.07 1.55
-3 -11 -10 0.45 1.23
-3 -11 -10 -2.38 1.93
3 -11 10 1.96 1.58
3 -11 10 -0.3 0.98
3 -11 10 -0.59 1.04
3 11 10 0.26 1.2
-3 11 -10 2.24 1.85
-3 11 -10 -0.75 1.12
3 11 10 2.15 0.9
3 11 10 0.93 1.05
4 -11 10 2.03 1.18
4 -11 10 -0.04 1.2
-4 -11 -10 -0.59 2
-4 -11 -10 0.45 1.48
4 -11 10 0.09 1.85
4 11 10 -0.5 1.28
-4 11 -10 0.78 2.15
4 11 10 1.06 1
4 11 10 0.44 1.11
-4 11 -10 1.18 1.02
-7 -12 10 1.63 1.35
7 -12 -10 1.43 1.55
7 -12 -10 0.06 0.79
7 -12 -10 -0.67 1.52
-7 -12 10 -2.17 1.24
7 -12 -10 2.7 1.81
7 12 -10 -0.69 1.25
-7 12 10 2.67 1.82
-7 12 10 -0.42 1.63
6 -12 -10 -1.21 1.48
-6 -12 10 1.84 1.2
-6 -12 10 0.27 1.32
-6 -12 10 -1.09 0.84
6 -12 -10 1.59 1.38
6 -12 -10 0 0.76
6 -12 -10 -1.31 1.33
6 12 -10 0.27 1.29
-6 12 10 2.43 1.63
-6 12 10 1.13 1.28
6 12 -10 1.07 0.88
5 -12 -10 0.16 0.72
-5 -12 10 0.6 1.01
-5 -12 10 0.07 0.83
-5 -12 10 0.73 1.31
5 -12 -10 1.32 1.23
5 -12 -10 -2.5 1.12
5 -12 -10 -1.9 1.36
-5 -12 10 -0.81 1.25
-5 12 10 -2.12 1.23
5 12 -10 -0.13 1.35
5 12 -10 0.1 1.25
-5 12 10 0.73 1.41
5 12 -10 0.92 0.81
-5 12 10 0.15 0.55
-5 12 10 -0.06 1.24
4 -12 -10 -3.11 1.29
-4 -12 10 0.06 0.48
4 -12 -10 0.28 0.75
-4 -12 10 0.66 1.17
4 -12 -10 -1.17 1.13
-4 -12 10 -0.71 0.91
4 -12 -10 -0.19 1.12
-4 -12 10 -0.11 0.79
-4 -12 10 -1.17 1.16
-4 12 10 0.04 1.3
4 12 -10 -1.63 0.77
-4 12 10 0.7 1.21
4 12 -10 -0.83 1.29
-3 -12 10 -0.75 0.76
-3 -12 10 0.33 1.32
3 -12 -10 -0.17 0.74
-3 -12 10 -0.89 0.64
3 -12 -10 2.79 1.11
-3 -12 10 -0.45 0.85
-3 -12 10 2.19 1.23
3 -12 -10 -1.87 1.26
3 -12 -10 -0.9 1.1
3 12 -10 1.13 0.9
-3 12 10 -0.06 0.93
-3 12 10 0.27 1.06
-3 12 10 2.03 1.29
3 12 -10 -0.21 1.4
2 -12 -10 0.83 1.09
-2 -12 10 -0.39 0.81
2 -12 -10 0.33 1.11
2 -12 -10 0.71 1.37
-2 -12 10 -2.54 1.2
-2 -12 10 -0.43 1.15
2 -12 -10 0.79 0.74
-2 -12 10 0.05 0.81
2 12 -10 -1.64 1.47
-2 12 10 0.59 1.29
-2 12 10 -1.84 0.84
2 12 -10 1.55 0.82
-2 12 10 -0.28 0.9
-1 -12 10 -0.27 0.96
1 -12 -10 -0.1 0.82
1 -12 -10 -1.93 1.27
1 -12 -10 -1.38 1.05
-1 -12 10 0.23 1.08
-1 -12 10 1.4 0.92
-1 -12 10 0.02 0.74
-1 -12 10 -1.31 1.25
1 -12 -10 -0.2 1.05
-1 12 10 -0.83 0.81
-1 12 10 0.17 1.16
1 12 -10 -0.05 0.96
1 12 -10 -0.72 1.49
-1 12 10 0.81 1.26
0 -12 10 0.28 1.05
0 -12 -10 0.34 1.03
0 -12 10 1.88 1.11
0 -12 -10 0.92 1.07
0 -12 -10 1.11 0.94
0 -12 -10 -0.18 1.41
0 -12 10 -0.65 0.91
0 -12 10 0.71 1.56
0 12 10 1.11 0.95
0 12 10 -0.04 0.85
0 12 10 1.98 1.2
0 12 -10 1.45 0.92
0 12 -10 1.87 1.74
1 -12 10 0.33 1.02
1 -12 10 0.02 1.33
-1 -12 -10 -0.78 2.47
-1 -12 -10 1.04 1.02
1 -12 10 -0.59 1.08
1 -12 10 0.01 2.01
-1 -12 -10 1.55 1.15
1 12 10 -0.12 1.13
-1 12 -10 1.01 1.31
-1 12 -10 -0.76 1.75
1 12 10 -0.69 0.84
1 12 10 2.28 1.45
-2 -12 -10 -0.1 1.3
2 -12 10 1.93 1.55
-2 -12 -10 0.1 1.15
2 -12 10 -0.42 1.22
2 -12 10 -1.31 1.14
-2 -12 -10 -0.65 1.27
-2 12 -10 -5.15 1.91
-2 12 -10 -2.23 1.18
2 12 10 -2.78 1.15
2 12 10 1.15 0.91
2 12 10 1.29 1.26
3 -12 10 -1.68 1.75
3 -12 10 -0.2 1.23
-3 -12 -10 1.38 1.46
3 -12 10 2.37 1.39
3 12 10 0.78 1.31
3 12 10 0.74 0.97
-3 12 -10 -3.99 2.22
5 -13 -10 0.77 1.42
-5 -13 10 -0.41 1.23
-5 -13 10 -0.24 1.05
5 -13 -10 -0.02 1.46
5 -13 -10 2.64 1.72
5 -13 -10 -0.34 0.93
5 13 -10 2.49 1.02
-5 13 10 -0.12 1.73
5 13 -10 0.08 1.69
-5 13 10 0.17 1.82
4 -13 -10 -1.84 1.55
-4 -13 10 2.27 1.13
4 -13 -10 0.78 1.34
-4 -13 10 -2.33 1.4
4 -13 -10 -0.57 0.92
-4 -13 10 1.04 1.05
4 -13 -10 3.47 1.4
-4 13 10 0.05 0.99
4 13 -10 0.74 1.04
4 13 -10 2.57 1.59
-4 13 10 0.87 1.59
3 -13 -10 -0.35 0.89
3 -13 -10 4.49 1.41
3 -13 -10 -1.75 1.32
-3 -13 10 0.74 1.06
-3 -13 10 1.25 1.37
3 13 -10 1.14 1.73
3 13 -10 -1.5 0.97
-3 13 10 -0.47 1.42
-3 13 10 1.76 1.53
2 -13 -10 1.67 1
2 -13 -10 0.94 1.3
-2 -13 10 -0.07 1.28
-2 -13 10 3.15 1.13
2 -13 -10 1.85 1.2
-2 -13 10 -1.02 0.88
2 -13 -10 -2.59 1.66
-2 -13 10 2.7 1.06
2 13 -10 1.93 1.14
2 13 -10 3.44 1.73
-2 13 10 0.11 1.44
-2 13 10 2.76 1.38
1 -13 -10 2.71 1.26
-1 -13 10 -0.34 1.03
-1 -13 10 1.12 1.13
-1 -13 10 1.16 0.94
1 -13 -10 0.78 1
-1 -13 10 2.36 1.31
1 -13 -10 2.08 1.37
1 13 -10 -0.31 1.85
-1 13 10 1.58 1.27
-1 13 10 -0.05 1.45
-1 13 10 -0.35 0.96
1 13 -10 -0.92 1.1
0 -13 -10 -0.57 1.23
0 -13 -10 2.51 1.12
0 -13 10 -0.66 1.3
0 -13 10 -0.79 1.16
0 -13 10 -0.56 1.24
0 -13 -10 -0.93 1.22
0 13 -10 -0.94 1.05
0 13 10 -1.32 0.96
0 13 10 1.66 1.32
0 13 10 1.72 1.41
0 13 -10 2.81 1.94
1 -13 10 0.67 1.51
1 -13 10 0.04 1.22
-1 -13 -10 1.49 1.27
-1 -13 -10 -0.34 1.49
1 -13 10 -1 1.26
1 13 10 1.26 1.77
1 13 10 1.1 0.98
-1 13 -10 2.98 2.36
-1 13 -10 -0.63 1.32
1 13 10 1.65 1.41
12 0 -11 0.97 1.28
12 0 -11 1.59 1.25
12 0 -11 -0.16 0.76
11 0 -11 0.82 1.04
11 0 -11 -0.53 0.57
11 0 -11 -0.22 0.98
11 0 -11 1.1 1.11
11 0 -11 -0.51 1.1
10 0 -11 -0.57 0.94
10 0 -11 0.07 0.62
10 0 -11 0.08 0.56
10 0 -11 0.16 0.86
10 0 -11 -0.2 0.88
-10 0 11 0.49 0.92
10 0 -11 0.25 0.42
9 0 -11 -0.12 0.83
-9 0 11 -0.18 0.37
9 0 -11 0.08 0.64
-9 0 11 -0.11 0.64
9 0 -11 0.8 0.73
-9 0 11 0.2 0.33
9 0 -11 -0.4 0.81
9 0 -11 -0.57 0.31
-9 0 11 0.16 0.79
8 0 -11 -0.04 0.61
8 0 -11 0.52 0.42
-8 0 11 0.19 0.63
-8 0 11 0.56 0.39
8 0 -11 -0.73 0.66
-8 0 11 0.8 0.74
-8 0 11 0.59 0.57
-8 0 11 0.24 0.32
8 0 -11 -0.15 0.24
7 0 -11 0.29 0.15
-7 0 11 0.08 0.53
7 0 -11 -0.41 0.54
-7 0 11 0.42 0.57
7 0 -11 0.61 0.56
7 0 -11 0.15 0.39
-7 0 11 0.38 0.33
-7 0 11 -0.01 0.35
-7 0 11 0.32 0.47
6 0 -11 0.02 0.48
-6 0 11 -0.15 0.32
-6 0 11 -0.03 0.32
-6 0 11 0.59 0.44
-6 0 11 0.65 0.49
6 0 -11 -0.08 0.53
6 0 -11 -0.24 0.36
6 0 -11 0.16 0.58
-6 0 11 -0.59 0.48
-5 0 11 -0.04 0.39
-5 0 11 0.42 0.45
5 0 -11 0.08 0.45
5 0 -11 0.37 0.52
-5 0 11 0.12 0.31
-5 0 11 -0.21 0.33
-5 0 11 -0.23 0.43
5 0 -11 0.07 0.57
5 0 -11 0.21 0.37
4 0 -11 0.33 0.43
-4 0 11 -0.05 0.41
-4 0 11 0.4 0.38
4 0 -11 0.55 0.46
-4 0 11 0.29 0.36
-4 0 11 -0.38 0.38
-4 0 11 0.18 0.38
4 0 -11 0.71 0.6
4 0 -11 -0.46 0.47
3 0 -11 -0.31 0.45
-3 0 11 0.37 0.38
3 0 -11 0.12 0.37
3 0 -11 0.38 0.57
-3 0 11 -0.1 0.33
-3 0 11 -0.01 0.37
3 0 -11 -0.13 0.4
-3 0 11 -0.22 0.39
-2 0 11 -0.06 0.37
2 0 -11 -0.3 0.37
-2 0 11 -0.07 0.35
-2 0 11 0.45 0.44
2 0 -11 -0.25 0.4
2 0 -11 -0.17 0.45
2 0 -11 0.59 0.6
-2 0 11 0.46 0.37
1 0 -11 -0.04 0.4
-1 0 11 -0.02 0.46
1 0 -11 0.27 0.47
-1 0 11 -0.17 0.3
1 0 -11 -0.02 0.64
-1 0 11 0.12 0.16
-1 0 11 0.35 0.4
0 0 11 0.48 0.24
0 0 11 0.07 0.37
0 0 -11 0.53 0.44
0 0 -11 0.17 0.66
0 0 11 0.34 0.51
0 0 11 0.27 0.47
0 0 11 0.32 0.31
1 0 11 -0.42 0.44
-1 0 -11 -0.17 0.73
1 0 11 -0.43 0.49
-1 0 -11 0.58 0.42
1 0 11 0.23 0.29
-1 0 -11 0.44 0.38
1 0 11 -0.44 0.27
-2 0 -11 -0.56 0.48
-2 0 -11 -0.74 0.81
-2 0 -11 -0.09 0.4
2 0 11 0.2 0.39
2 0 11 0.25 0.48
-3 0 -11 -0.35 0.5
-3 0 -11 0.55 0.6
-3 0 -11 -0.4 0.87
3 0 11 0.47 0.49
3 0 11 -0.17 0.56
-4 0 -11 0.66 1.1
4 0 11 -1.1 0.81
4 0 11 0.5 0.65
4 0 11 -0.47 0.6
-4 0 -11 0.31 0.61
-5 0 -11 -0.33 1.18
5 0 11 0.86 0.84
-5 0 -11 -0.34 0.73
5 0 11 -0.75 0.98
5 0 11 -0.72 0.59
-5 0 -11 0.55 0.73
-6 0 -11 -1.69 0.91
6 0 11 -1.19 0.89
-6 0 -11 -0.23 1.46
6 0 11 -0.4 0.72
-6 0 -11 -0.83 0.84
-6 0 -11 -0.33 0.92
6 0 11 0.53 1.26
6 0 11 -1.35 0.98
-7 0 -11 1.59 1.17
-7 0 -11 0.36 1.07
7 0 11 1.6 1.5
7 0 11 -0.65 1.32
7 0 11 2.85 1.26
7 0 11 1.27 0.89
-7 0 -11 -0.61 1.06
-7 0 -11 1.26 2.09
12 -1 -11 1.29 1.32
12 -1 -11 -1.06 0.73
12 1 -11 0.35 1.22
12 1 -11 -0.9 0.73
12 1 -11 0.88 1.23
11 -1 -11 0.91 0.6
11 -1 -11 2.2 1.1
11 -1 -11 1.1 0.99
11 -1 -11 -0.36 1.07
11 1 -11 -0.09 0.59
11 1 -11 -0.4 1.01
11 1 -11 2.64 1.2
11 1 -11 1.55 1.14
11 1 -11 0.56 0.98
-11 1 11 0.19 1.07
10 -1 -11 0.89 1.32
10 -1 -11 0.39 0.93
10 -1 -11 -0.46 0.88
10 -1 -11 0.12 0.43
10 -1 -11 -0.27 0.62
10 -1 -11 -1.22 0.9
10 1 -11 -0.37 0.87
10 1 -11 0.48 0.85
10 1 -11 -0.11 0.76
10 1 -11 0.36 0.42
-10 1 11 -0.59 0.36
-10 1 11 -0.41 0.92
10 1 -11 -0.03 0.96
9 -1 -11 0.33 0.52
9 -1 -11 0.24 0.35
9 -1 -11 -0.59 0.72
9 -1 -11 0.28 0.7
-9 -1 11 0.18 0.3
-9 -1 11 -0.06 0.32
9 -1 -11 0.29 0.82
9 -1 -11 0.48 0.7
-9 1 11 0.25 0.61
9 1 -11 0.93 0.86
9 1 -11 -0.43 0.31
9 1 -11 0.75 0.54
9 1 -11 -0.18 0.55
-9 1 11 1.5 0.77
-9 1 11 0.42 0.47
9 1 -11 -0.37 0.73
9 1 -11 0.3 0.74
8 -1 -11 0.3 0.23
8 -1 -11 0.07 0.62
-8 -1 11 0.56 0.58
8 -1 -11 -0.22 0.43
8 -1 -11 0.1 0.68
8 -1 -11 -0.49 0.6
-8 -1 11 0.86 0.65
-8 -1 11 0.06 0.39
-8 -1 11 0.84 0.66
-8 1 11 -0.42 0.37
-8 1 11 0.32 0.53
8 1 -11 -0.14 0.36
8 1 -11 -1.37 1.3
-8 1 11 -0.15 0.63
8 1 -11 -0.38 0.23
8 1 -11 -0.74 0.56
-7 -1 11 0.62 0.32
7 -1 -11 0.16 0.59
-7 -1 11 0.81 0.4
7 -1 -11 0.33 0.65
7 -1 -11 0.93 0.48
-7 -1 11 0.1 0.52
-7 -1 11 0.5 0.6
7 -1 -11 0.31 0.15
-7 1 11 -0.5 0.56
-7 1 11 0.34 0.48
7 1 -11 1.36 0.58
7 1 -11 -0.85 0.33
-7 1 11 0.69 0.43
-7 1 11 0.27 0.41
7 1 -11 -0.02 0.54
-7 1 11 0.53 0.55
6 -1 -11 1.86 0.7
-6 -1 11 1.36 0.5
-6 -1 11 1.06 0.37
-6 -1 11 0.79 0.4
6 -1 -11 0.73 0.47
6 -1 -11 0.99 0.54
-6 -1 11 1.45 0.55
6 -1 -11 0.57 0.55
-6 -1 11 1.26 0.47
6 -1 -11 0.75 0.44
6 1 -11 0.46 0.57
6 1 -11 0.97 0.52
-6 1 11 1.48 0.61
-6 1 11 0.87 0.51
-6 1 11 1.05 0.42
-6 1 11 0.86 0.4
6 1 -11 0.9 0.53
6 1 -11 0.49 0.38
-6 1 11 1.71 0.45
-5 -1 11 0.3 0.46
5 -1 -11 0.4 0.6
-5 -1 11 -0.22 0.35
5 -1 -11 0.31 0.38
5 -1 -11 0.07 0.49
5 -1 -11 -0.04 0.45
-5 -1 11 0.67 0.43
-5 -1 11 0.4 0.45
-5 -1 11 0.58 0.34
5 1 -11 0.34 0.45
-5 1 11 -0.19 0.37
-5 1 11 0.27 0.33
5 1 -11 -0.34 0.53
-5 1 11 0.37 0.46
-5 1 11 0.17 0.44
5 1 -11 -0.21 0.49
-5 1 11 -0.19 0.33
5 1 -11 0.36 0.35
4 -1 -11 1.13 0.48
4 -1 -11 1.01 0.45
-4 -1 11 1.51 0.47
4 -1 -11 2.15 0.48
4 -1 -11 1.88 0.6
-4 -1 11 1.44 0.41
-4 -1 11 1.45 0.45
-4 -1 11 1.33 0.41
-4 -1 11 1.43 0.41
4 1 -11 1.48 0.46
4 1 -11 1.3 0.48
-4 1 11 1.99 0.48
-4 1 11 1.89 0.46
-4 1 11 1.29 0.44
-4 1 11 1.78 0.49
4 1 -11 1.29 0.61
-4 1 11 1.74 0.43
4 1 -11 1.28 0.43
-3 -1 11 2.28 0.46
-3 -1 11 3.23 0.5
3 -1 -11 2.11 0.49
-3 -1 11 2.21 0.43
-3 -1 11 2.86 0.47
3 -1 -11 2.2 0.52
3 -1 -11 2.18 0.71
-3 -1 11 2.46 0.5
-3 1 11 1.6 0.43
-3 1 11 1.82 0.46
-3 1 11 2.16 0.45
-3 1 11 3.23 0.54
3 1 -11 2.69 0.69
3 1 -11 2.88 0.52
3 1 -11 1.86 0.51
3 1 -11 1.68 0.44
2 -1 -11 0.53 0.52
-2 -1 11 0.2 0.34
2 -1 -11 1.05 0.49
-2 -1 11 0.29 0.44
-2 -1 11 0.97 0.47
-2 -1 11 0.75 0.1
-2 -1 11 0.9 0.4
2 -1 -11 0.75 0.62
-2 1 11 0.41 0.44
2 1 -11 0.11 0.36
2 1 -11 0.44 0.37
-2 1 11 0.43 0.44
-2 1 11 0.44 0.37
-2 1 11 1.26 0.38
2 1 -11 1.28 0.66
2 1 -11 0.32 0.51
1 -1 -11 0.42 0.65
-1 -1 11 0.58 0.34
-1 -1 11 -0.21 0.32
-1 -1 11 0.72 0.46
1 -1 -11 0.71 0.53
1 -1 -11 0.65 0.4
-1 1 11 0.19 0.32
1 1 -11 0.42 0.35
1 1 -11 0.05 0.36
1 1 -11 0.27 0.64
1 1 -11 -0.1 0.47
-1 1 11 0.54 0.13
-1 1 11 0.99 0.46
-1 1 11 1 0.46
-1 1 11 -0.07 0.44
0 -1 -11 1.09 0.73
0 -1 -11 0.78 0.47
0 -1 11 1.1 0.66
0 -1 11 0.49 0.52
0 -1 -11 0.84 0.57
0 -1 11 1.45 0.45
0 1 -11 1.37 0.72
0 1 11 0.74 0.48
0 1 11 0.97 0.32
0 1 11 1.82 0.54
0 1 11 0.76 0.23
0 1 11 1.54 0.49
0 1 -11 1.4 0.47
1 -1 11 1.57 0.59
1 -1 11 1.94 0.53
-1 -1 -11 1.28 0.78
-1 -1 -11 0.26 0.39
1 -1 11 0.53 0.54
-1 -1 -11 1.24 0.5
1 1 11 0.76 0.5
1 1 11 1.48 0.7
-1 1 -11 0.61 0.72
1 1 11 1.2 0.32
-1 1 -11 1.11 0.48
1 1 11 1.07 0.49
-1 1 -11 1.16 0.37
1 1 11 1.02 0.31
2 -1 11 0.66 0.49
-2 -1 -11 1.22 0.58
-2 -1 -11 0.91 0.89
-2 -1 -11 0.42 0.46
2 -1 11 0.3 0.57
-2 1 -11 0.27 0.4
2 1 11 0.12 0.37
2 1 11 -0.36 0.57
-2 1 -11 0.85 0.9
2 1 11 -0.05 0.6
-2 1 -11 0.37 0.47
2 1 11 0.14 0.26
3 -1 11 -0.84 0.49
-3 -1 -11 0.33 0.7
-3 -1 -11 -0.5 0.84
3 -1 11 0.41 0.74
-3 -1 -11 0.4 0.52
3 1 11 -0.57 0.69
-3 1 -11 0.48 0.48
3 1 11 1.26 0.67
-3 1 -11 -0.08 0.52
3 1 11 0.55 0.47
-3 1 -11 -1.14 0.91
3 1 11 0.59 0.53
-4 -1 -11 -0.3 1.05
-4 -1 -11 0.22 0.59
4 -1 11 0.44 0.58
4 -1 11 1.02 1.24
4 -1 11 0.05 0.8
4 1 11 0.27 0.58
4 1 11 -0.09 0.69
4 1 11 -0.29 0.79
-4 1 -11 0.09 1.08
-4 1 -11 0.72 0.65
-4 1 -11 -0.36 0.55
4 1 11 0.26 0.61
5 -1 11 1.34 1.01
-5 -1 -11 0.44 0.77
5 -1 11 -0.94 0.86
5 -1 11 0.68 0.6
-5 -1 -11 -0.53 1.22
-5 1 -11 0.71 0.75
-5 1 -11 -1.03 1.24
5 1 11 -1.18 0.95
-5 1 -11 -0.24 0.74
5 1 11 0 0.64
-6 -1 -11 1.05 0.97
6 -1 11 0.29 0.78
-6 -1 -11 0.92 1.56
6 -1 11 1.28 1.29
-6 -1 -11 -0.15 0.84
-6 -1 -11 -0.57 0.83
6 1 11 2.13 1.09
-6 1 -11 -0.44 0.9
-6 1 -11 0.03 0.87
-6 1 -11 -0.5 0.94
6 1 11 -0.98 1.12
6 1 11 -1.02 0.89
6 1 11 -0.83 0.74
-6 1 -11 -0.56 1.73
7 -1 11 -2.39 1.44
7 -1 11 0.75 1.27
7 -1 11 -0.8 0.88
-7 -1 -11 0.41 2.02
-7 -1 -11 -2.7 1.22
-7 -1 -11 1.07 1.02
-7 -1 -11 -0.14 1.11
7 1 11 -0.1 0.86
-7 1 -11 0.36 1.18
-7 1 -11 1.88 1.79
7 1 11 -1.01 1.33
-7 1 -11 -1.11 1.98
7 1 11 -2.08 1.26
7 1 11 1.66 1.24
-7 1 -11 1.43 1.14
12 -2 -11 0.65 0.83
12 -2 -11 1.54 1.45
-12 2 11 -2.51 1.34
12 2 -11 2.67 0.78
12 2 -11 -0.81 1.17
12 2 -11 1.92 1.22
11 -2 -11 1.15 0.86
11 -2 -11 -0.01 0.62
11 -2 -11 0.12 0.83
11 -2 -11 -1.23 0.97
11 -2 -11 1.38 1.15
11 2 -11 0.36 1.19
-11 2 11 -0.18 1.14
11 2 -11 0.02 0.6
-11 2 11 0.11 0.46
11 2 -11 1.44 0.95
11 2 -11 -0.11 0.98
11 2 -11 1.45 1.06
10 -2 -11 4.48 1.02
10 -2 -11 4.88 0.9
10 -2 -11 5.22 0.57
10 -2 -11 5.04 0.8
10 -2 -11 5.6 1.05
-10 2 11 4.75 1.06
10 2 -11 6.16 1.08
10 2 -11 5.03 0.87
10 2 -11 4.1 0.92
10 2 -11 5.51 0.56
-10 2 11 5.57 0.68
10 2 -11 4.2 0.95
9 -2 -11 2.83 0.42
9 -2 -11 3.28 0.87
9 -2 -11 2.13 0.81
9 -2 -11 3 0.68
-9 -2 11 2.43 0.79
9 -2 -11 2.42 0.77
9 2 -11 2.53 0.4
9 2 -11 2.65 0.81
-9 2 11 2.85 0.61
-9 2 11 2.78 0.64
9 2 -11 3.78 0.64
9 2 -11 3.04 0.58
-9 2 11 1.37 0.88
9 2 -11 2.57 0.76
9 2 -11 3.07 0.85
9 2 -11 3.77 0.68
-8 -2 11 -0.04 0.32
-8 -2 11 -0.34 0.61
-8 -2 11 0.05 0.85
8 -2 -11 0.05 0.25
8 -2 -11 0.15 0.72
8 -2 -11 0.23 0.5
8 -2 -11 -0.82 0.62
-8 -2 11 -0.06 0.29
-8 2 11 0.01 0.43
8 2 -11 -0.35 0.63
8 2 -11 -0.1 0.23
8 2 -11 0.55 0.6
-8 2 11 0.44 0.63
-8 2 11 0.27 0.49
-8 2 11 0.31 0.43
-7 -2 11 1.82 0.4
7 -2 -11 1.97 0.69
-7 -2 11 3.48 0.51
7 -2 -11 1.97 0.57
7 -2 -11 2.91 0.82
7 -2 -11 2.96 0.23
-7 -2 11 2.73 0.62
-7 -2 11 3.15 0.58
7 -2 -11 3.03 0.69
7 2 -11 2.68 0.58
-7 2 11 2.95 0.65
-7 2 11 2.34 0.8
-7 2 11 2.95 0.57
7 2 -11 3.16 0.67
7 2 -11 2.94 0.53
-7 2 11 3.23 0.57
-7 2 11 2.67 0.51
6 -2 -11 3.3 0.66
6 -2 -11 3.61 0.6
6 -2 -11 3.64 0.63
-6 -2 11 2.8 0.52
6 -2 -11 2.69 0.7
-6 -2 11 2.49 0.55
-6 -2 11 2.72 0.53
-6 -2 11 2.84 0.46
-6 2 11 2.06 0.57
6 2 -11 3.13 0.7
-6 2 11 3.31 0.58
6 2 -11 3.64 0.61
6 2 -11 3.68 0.6
6 2 -11 3.51 0.51
-6 2 11 3.14 0.48
-6 2 11 2.8 0.95
-5 -2 11 6.24 0.64
5 -2 -11 6.97 0.69
-5 -2 11 6.13 0.57
5 -2 -11 5.75 0.84
5 -2 -11 6.09 0.8
-5 -2 11 5.68 0.6
-5 -2 11 5.96 0.71
-5 2 11 5.97 0.71
5 2 -11 6.03 0.86
5 2 -11 5.49 0.61
-5 2 11 7.42 0.79
-5 2 11 6.71 0.56
5 2 -11 6.99 0.61
5 2 -11 6.31 0.69
-5 2 11 7.68 0.67
4 -2 -11 0.6 0.63
-4 -2 11 1.31 0.44
-4 -2 11 0.87 0.41
-4 -2 11 0.92 0.44
-4 -2 11 1.46 0.46
4 -2 -11 1.16 0.55
4 -2 -11 0.23 0.42
4 2 -11 0.52 0.34
-4 2 11 1.05 0.47
-4 2 11 0.86 0.45
-4 2 11 0.92 0.46
4 2 -11 0.79 0.45
4 2 -11 1.45 0.5
-4 2 11 1.48 0.46
4 2 -11 0.9 0.6
3 -2 -11 13.99 1
-3 -2 11 13.91 0.88
3 -2 -11 13.67 1.03
-3 -2 11 13.95 0.82
3 -2 -11 15.53 1.25
-3 -2 11 13.41 0.4
-3 -2 11 14.38 0.93
-3 2 11 14.71 0.8
-3 2 11 13.37 0.89
3 2 -11 12.98 1.24
3 2 -11 14.77 0.81
3 2 -11 13.93 0.92
-3 2 11 14.68 1.03
-3 2 11 15.04 1.01
3 2 -11 12.89 0.91
-2 -2 11 10.74 0.81
2 -2 -11 13.18 0.96
-2 -2 11 11.33 0.87
-2 -2 11 13.1 1.11
2 -2 -11 12.45 1.01
-2 -2 11 11.72 0.89
2 -2 -11 13.65 1.24
2 2 -11 12.32 0.93
-2 2 11 12.74 1
2 2 -11 12.14 0.75
2 2 -11 12.42 0.95
-2 2 11 12.91 0.87
-2 2 11 12.4 0.73
-2 2 11 13.14 0.98
2 2 -11 12.1 1.24
1 -2 -11 20.53 1.2
-1 -2 11 20.73 1.11
-1 -2 11 21.18 1.02
1 -2 -11 19.55 1.48
1 -2 -11 20.66 1.08
-1 -2 11 21.24 1.3
1 2 -11 20.05 0.82
-1 2 11 19.91 0.5
1 2 -11 20.92 1.48
-1 2 11 20.31 0.83
-1 2 11 20.61 1.04
1 2 -11 19.05 1.13
-1 2 11 18.91 1.17
-1 2 11 19.3 1.23
0 -2 11 0.89 0.55
0 -2 11 0.79 0.48
0 -2 -11 1.99 0.81
0 -2 -11 -0.1 0.52
0 -2 11 1.29 0.46
0 -2 -11 1.15 0.51
0 2 11 0.65 0.51
0 2 11 0.76 0.51
0 2 -11 1.53 0.72
0 2 11 0.8 0.52
0 2 11 1.42 0.35
0 2 -11 1.11 0.35
0 2 -11 1.52 0.48
0 2 -11 0.65 0.33
0 2 11 1.2 0.22
1 -2 11 4.8 0.69
-1 -2 -11 5.57 1.08
1 -2 11 5.57 0.78
1 -2 11 6.43 0.92
1 2 11 6.72 0.51
1 2 11 6.73 0.89
1 2 11 6.28 0.8
-1 2 -11 5.92 0.74
-1 2 -11 5.05 0.47
-1 2 -11 6.82 1.21
1 2 11 4.29 0.63
1 2 11 5.32 0.43
-2 -2 -11 0.47 0.6
-2 -2 -11 1.43 0.49
2 -2 11 0.66 0.56
-2 -2 -11 1.88 0.93
-2 2 -11 0.46 0.5
2 2 11 2.5 0.4
2 2 11 1.33 0.59
2 2 11 1.05 0.32
2 2 11 1.5 0.7
2 2 11 1.31 0.66
-2 2 -11 1.62 0.44
-2 2 -11 2.28 0.95
-3 -2 -11 1.06 0.99
3 -2 11 0.44 0.48
-3 -2 -11 -0.54 0.54
3 -2 11 0.68 0.65
-3 2 -11 0.23 0.95
3 2 11 0.6 0.69
3 2 11 0.11 0.53
3 2 11 -0.45 0.45
-3 2 -11 -0.54 0.45
3 2 11 0.64 0.62
3 2 11 0 0.26
-3 2 -11 0.48 0.54
4 -2 11 0.02 0.81
-4 -2 -11 -0.14 1.1
-4 -2 -11 1.06 0.68
4 -2 11 1.87 0.72
-4 2 -11 -0.66 1.21
4 2 11 0.12 0.67
-4 2 -11 -0.14 0.61
4 2 11 0.28 0.6
4 2 11 0.06 0.79
4 2 11 0.65 0.68
-4 2 -11 -0.16 0.66
-5 -2 -11 0.36 0.75
5 -2 11 0.47 1.06
-5 -2 -11 -0.14 0.66
5 -2 11 0.11 0.72
-5 -2 -11 -0.7 1.27
-5 -2 -11 -0.56 0.72
5 -2 11 0.34 0.97
5 2 11 -0.07 0.88
-5 2 -11 1.35 0.69
5 2 11 0.23 0.69
-5 2 -11 0.97 0.74
-5 2 -11 0.85 1.51
6 -2 11 -0.78 1.15
6 -2 11 0.71 1.19
-6 -2 -11 -0.3 0.96
-6 -2 -11 -0.16 0.97
-6 -2 -11 1.67 0.82
6 -2 11 0.72 0.77
-6 -2 -11 0.28 1.58
-6 2 -11 -0.47 0.83
6 2 11 -1.57 1.13
6 2 11 1.26 1.11
-6 2 -11 3.28 1.72
-6 2 -11 -1.5 0.92
6 2 11 1.62 0.83
6 2 11 0.76 0.93
-6 2 -11 1.35 0.88
-7 -2 -11 -0.6 1.14
7 -2 11 3.11 0.97
-7 -2 -11 -0.76 0.97
-7 -2 -11 2.47 1.94
7 -2 11 1.58 1.44
-7 2 -11 0.41 1.15
7 2 11 0.26 1.31
7 2 11 1.18 0.93
-7 2 -11 -0.27 1.98
7 2 11 -0.78 1.37
7 2 11 1.72 1.22
-7 2 -11 0.94 1.2
12 -3 -11 -1.22 0.85
12 -3 -11 -0.23 1.41
12 -3 -11 1.52 1.06
12 3 -11 1.95 1.19
12 3 -11 0.11 0.77
-12 3 11 -0.05 1.51
12 3 -11 2.49 1.21
12 3 -11 -2.94 1.22
11 -3 -11 1.94 1.24
11 -3 -11 1.82 0.97
11 -3 -11 1.37 1.28
11 -3 -11 2.54 1.16
11 -3 -11 2.14 0.69
-11 3 11 2.2 1.23
11 3 -11 2.23 1.24
11 3 -11 3.02 1.18
11 3 -11 1.21 1.04
11 3 -11 0.24 0.98
11 3 -11 1.71 0.61
11 3 -11 1.41 1.01
-11 3 11 0.02 0.52
-11 3 11 1.49 0.61
10 -3 -11 2.12 1.05
10 -3 -11 1.73 0.97
10 -3 -11 1.84 0.69
10 -3 -11 -0.26 0.97
10 -3 -11 2.19 0.55
10 3 -11 0.53 1.02
10 3 -11 1.35 0.86
10 3 -11 2.14 0.77
10 3 -11 0.52 0.95
-10 3 11 2.15 0.98
-10 3 11 2.65 0.73
-10 3 11 0.36 0.57
10 3 -11 0.79 0.49
9 -3 -11 2.23 0.82
9 -3 -11 0.57 0.62
-9 -3 11 0.98 0.8
9 -3 -11 1.33 0.85
9 -3 -11 1.72 0.9
9 -3 -11 2.06 0.44
-9 3 11 3.44 0.87
9 3 -11 1.92 0.79
9 3 -11 1.93 0.39
9 3 -11 2.74 0.66
9 3 -11 1.25 0.83
-9 3 11 1.77 0.59
-8 -3 11 13.59 1
-8 -3 11 14.06 1.08
-8 -3 11 11.55 0.72
8 -3 -11 12.16 1.12
8 -3 -11 11.49 0.97
8 -3 -11 13.41 1.18
8 -3 -11 11.72 0.6
8 3 -11 12.44 1.11
8 3 -11 12.2 0.89
8 3 -11 12.8 1.13
-8 3 11 11.94 0.93
-8 3 11 12.69 0.99
-8 3 11 12.5 0.98
8 3 -11 11.45 0.84
-7 -3 11 0.46 0.73
-7 -3 11 1.68 0.55
-7 -3 11 1.68 0.43
7 -3 -11 1.41 0.24
7 -3 -11 1.23 0.7
7 -3 -11 0.43 0.56
-7 3 11 1.42 0.5
-7 3 11 1.4 0.61
7 3 -11 1.44 0.61
-7 3 11 1.38 0.45
7 3 -11 2.21 0.6
-7 3 11 1.98 0.59
7 3 -11 0.56 0.39
-6 -3 11 0.34 0.34
-6 -3 11 0.2 0.49
-6 -3 11 0.27 0.38
6 -3 -11 0.76 0.51
6 -3 -11 -0.12 0.64
6 -3 -11 -0.1 0.51
-6 -3 11 0.56 0.53
6 3 -11 0.43 0.5
-6 3 11 0.37 0.57
-6 3 11 0.36 0.58
6 3 -11 0.14 0.56
-6 3 11 0.08 0.43
6 3 -11 0.37 0.48
-6 3 11 0.44 0.41
6 3 -11 -0.05 0.34
-6 3 11 0.8 0.47
-5 -3 11 1.14 0.46
-5 -3 11 1.36 0.48
5 -3 -11 1.57 0.51
5 -3 -11 1.36 0.48
5 -3 -11 1.18 0.53
-5 -3 11 1.89 0.43
5 -3 -11 1.22 0.74
-5 -3 11 0.9 0.41
-5 3 11 2.1 0.51
5 3 -11 1.97 0.45
5 3 -11 1.2 0.62
-5 3 11 1.53 0.54
-5 3 11 0.94 0.47
-5 3 11 0.94 0.38
5 3 -11 1.29 0.51
-4 -3 11 15.3 0.53
-4 -3 11 15.46 0.92
4 -3 -11 14.45 1.07
-4 -3 11 15.54 0.91
4 -3 -11 14.61 1.03
4 -3 -11 15.03 1.32
-4 -3 11 16.24 0.89
-4 3 11 16.93 0.91
4 3 -11 14.55 0.97
-4 3 11 16.31 1.08
-4 3 11 15.88 1.31
4 3 -11 15.9 0.95
4 3 -11 17.86 0.93
4 3 -11 14.86 1.25
-3 -3 11 7.07 0.89
-3 -3 11 5.71 0.68
-3 -3 11 5.36 0.57
3 -3 -11 4.56 0.83
-3 -3 11 5.18 0.58
3 -3 -11 4.71 0.64
3 -3 -11 4.73 0.71
-3 -3 11 4.78 0.33
-3 3 11 5.55 0.76
3 3 -11 5.43 0.53
-3 3 11 4.14 0.55
-3 3 11 4.94 0.69
-3 3 11 5.48 0.55
3 3 -11 4.89 0.59
3 3 -11 5.19 0.65
3 3 -11 3.96 0.82
2 -3 -11 5.01 0.71
-2 -3 11 5.45 0.76
-2 -3 11 6.84 0.61
2 -3 -11 6.86 0.68
-2 -3 11 5.39 0.54
-2 -3 11 6.07 0.71
2 -3 -11 8.17 1.03
2 3 -11 6.42 0.52
2 3 -11 4.81 0.59
-2 3 11 5.43 0.52
2 3 -11 5.59 0.73
-2 3 11 7.81 0.89
-2 3 11 7.53 0.63
-2 3 11 6.73 0.84
2 3 -11 4.42 0.8
1 -3 -11 3.1 0.62
1 -3 -11 3.42 0.62
-1 -3 11 4.4 0.66
1 -3 -11 3.66 0.92
-1 -3 11 4.1 0.6
-1 -3 11 4.96 0.83
1 3 -11 4.36 0.64
1 3 -11 3.63 0.74
-1 3 11 3.58 0.66
-1 3 11 3.59 0.58
1 3 -11 4.27 0.46
-1 3 11 3.78 0.65
-1 3 11 3.61 0.47
0 -3 11 0.6 0.48
0 -3 -11 0.16 0.62
0 -3 -11 0.86 0.53
0 -3 11 0.81 0.71
0 -3 11 1.17 0.55
0 -3 -11 0.67 0.57
0 3 -11 0.78 0.32
0 3 -11 0.67 0.35
0 3 -11 0.79 0.43
0 3 11 0.78 0.37
0 3 -11 0.26 0.73
0 3 11 0.3 0.57
0 3 11 0.53 0.2
0 3 11 1.41 0.5
0 3 11 0.19 0.54
1 -3 11 3.42 0.7
-1 -3 -11 2.39 0.86
1 -3 11 1.88 0.57
1 -3 11 1.33 0.8
-1 -3 -11 2.78 0.67
1 3 11 2.8 0.33
-1 3 -11 2.27 0.6
1 3 11 3.11 0.64
-1 3 -11 2.11 0.39
-1 3 -11 2.86 0.37
-1 3 -11 2.97 1
1 3 11 2.78 0.42
1 3 11 3.27 0.62
1 3 11 3.29 0.66
-2 -3 -11 0.54 0.53
-2 -3 -11 -0.03 0.54
2 -3 11 -0.11 0.56
-2 -3 -11 -0.95 0.84
2 3 11 -0.06 0.36
2 3 11 0.54 0.62
2 3 11 0.24 0.51
2 3 11 0.14 0.59
2 3 11 0.6 0.35
-2 3 -11 0.05 0.4
-2 3 -11 0.29 0.49
-2 3 -11 -0.12 0.81
-3 -3 -11 6.23 0.74
3 -3 11 7.14 1.18
3 -3 11 7.23 0.96
-3 -3 -11 5.67 1.24
3 -3 11 3.61 0.86
3 3 11 6.25 0.46
3 3 11 6.15 0.97
-3 3 -11 6.7 0.64
3 3 11 5.7 0.79
3 3 11 6.75 0.61
3 3 11 5.88 0.78
-3 3 -11 7.43 0.95
-4 -3 -11 1.75 1.14
-4 -3 -11 0.93 0.7
4 -3 11 0.66 0.84
-4 -3 -11 -0.16 0.88
4 -3 11 0.3 0.64
4 -3 11 -0.38 0.93
4 3 11 1.39 0.78
4 3 11 0.85 0.64
4 3 11 1.23 0.85
-4 3 -11 2.14 1.23
4 3 11 0.83 0.3
-4 3 -11 0.58 0.69
-4 3 -11 1.1 0.73
4 3 11 0.95 1.13
-5 -3 -11 5.34 0.72
5 -3 11 4.37 0.86
-5 -3 -11 5.53 1.06
5 -3 11 2.35 1.14
5 -3 11 5.91 1.2
-5 -3 -11 4.86 0.89
-5 -3 -11 4.57 1.53
5 3 11 4.12 1
-5 3 -11 5.12 0.81
5 3 11 5.09 1.01
-5 3 -11 3.59 1.47
-5 3 -11 4.13 0.94
-6 -3 -11 0.81 0.75
-6 -3 -11 0.59 1.54
6 -3 11 1.41 1.29
6 -3 11 1.24 0.81
-6 -3 -11 -0.17 1.03
-6 -3 -11 0.47 0.9
6 -3 11 1.7 1.07
6 3 11 1.47 1.13
6 3 11 1.96 0.91
-6 3 -11 -0.32 0.92
-6 3 -11 -1.28 1.02
-6 3 -11 -2.49 1.56
6 3 11 1.27 1.17
-6 3 -11 0.08 0.85
6 3 11 0.17 0.83
7 -3 11 0.39 1.41
-7 -3 -11 -2.6 1.79
-7 -3 -11 0.55 0.95
-7 -3 -11 1.45 1.33
7 -3 11 0.64 1.01
-7 3 -11 -1.42 1.25
-7 3 -11 0.7 2.12
-7 3 -11 -0.81 1.12
7 3 11 -1.64 1.16
7 3 11 1.39 1.21
7 3 11 0 1.36
7 3 11 -1.03 0.89
12 -4 -11 2.2 0.95
12 4 -11 0.21 0.82
11 -4 -11 1.84 1.37
11 -4 -11 0.66 1.38
11 -4 -11 0.59 0.95
11 -4 -11 2.66 0.79
11 4 -11 -0.28 1
-11 4 11 0.8 1.21
-11 4 11 0.34 0.72
11 4 -11 -1.44 1.11
11 4 -11 1.12 0.93
11 4 -11 0.61 0.62
11 4 -11 0.38 1.29
-11 4 11 0.68 0.71
11 4 -11 2.28 1.03
10 -4 -11 4.7 0.95
10 -4 -11 6.27 1.13
10 -4 -11 4.76 0.84
10 -4 -11 4.14 0.66
10 -4 -11 5.12 1.11
10 4 -11 2.74 0.77
-10 4 11 4.88 1.02
10 4 -11 4.3 1.03
10 4 -11 5.4 0.98
10 4 -11 3.97 0.89
10 4 -11 5.26 0.68
-10 4 11 4.04 0.82
10 4 -11 6.74 1.19
9 -4 -11 1.59 0.65
9 -4 -11 1.07 0.46
9 -4 -11 1.99 0.83
9 -4 -11 1.64 0.94
-9 -4 11 -0.2 0.84
9 -4 -11 1.03 0.76
-9 4 11 0.01 0.52
9 4 -11 1.05 0.63
-9 4 11 1.31 0.6
-9 4 11 -0.1 0.87
-9 4 11 0.15 0.62
9 4 -11 0.19 0.72
9 4 -11 0.15 0.86
9 4 -11 -0.95 0.75
-8 -4 11 3.76 0.67
-8 -4 11 4.66 0.5
8 -4 -11 4.7 0.45
-8 -4 11 4.87 0.87
8 -4 -11 4.88 0.92
8 -4 -11 5.67 0.74
8 -4 -11 3.96 0.87
8 -4 -11 4.08 0.77
8 4 -11 4.33 0.72
8 4 -11 4.19 0.76
-8 4 11 4 0.55
8 4 -11 4.34 0.59
-8 4 11 4.21 0.8
-8 4 11 4.04 0.78
8 4 -11 4.52 0.61
-7 -4 11 -0.09 0.39
-7 -4 11 0.64 0.67
-7 -4 11 0.03 0.51
7 -4 -11 0.81 0.69
7 -4 -11 -0.74 0.56
-7 -4 11 -0.11 0.3
7 -4 -11 1.29 0.58
-7 4 11 1.02 0.63
7 4 -11 0.13 0.62
-7 4 11 -0.59 0.47
-7 4 11 0.09 0.42
7 4 -11 -0.39 0.34
7 4 -11 0.74 0.56
-6 -4 11 8.35 0.65
6 -4 -11 5.81 0.67
-6 -4 11 6.01 0.69
-6 -4 11 6.39 0.68
6 -4 -11 7.19 0.83
6 -4 -11 7.74 0.92
-6 -4 11 6.79 0.72
6 -4 -11 8.83 1.06
6 4 -11 7.2 0.68
-6 4 11 5.6 0.68
-6 4 11 6.17 0.77
6 4 -11 4.39 1.03
6 4 -11 7.17 0.72
6 4 -11 7.87 0.94
-6 4 11 7.33 0.56
-6 4 11 6.74 0.84
-5 -4 11 7.83 0.54
-5 -4 11 7.61 0.62
-5 -4 11 7.73 0.84
-5 -4 11 8.25 0.73
5 -4 -11 8.5 0.68
5 -4 -11 8.96 1.01
5 4 -11 7.08 0.67
-5 4 11 8.33 0.84
-5 4 11 8.59 0.92
-5 4 11 9.45 0.9
5 4 -11 8.48 0.71
5 4 -11 8.09 1.03
5 4 -11 7.14 0.72
-5 4 11 8.81 0.72
-4 -4 11 1.49 0.53
4 -4 -11 2.17 0.45
-4 -4 11 2.07 0.47
-4 -4 11 2.04 0.3
4 -4 -11 2.51 0.58
-4 -4 11 1.43 0.48
-4 -4 11 2.26 0.66
4 -4 -11 2.16 0.6
-4 4 11 1.54 0.9
4 4 -11 2.53 0.56
-4 4 11 1.34 0.54
4 4 -11 2.73 0.55
4 4 -11 1.47 0.67
4 4 -11 1.82 0.45
-4 4 11 1.87 0.55
3 -4 -11 10.52 1.29
-3 -4 11 12.33 0.94
3 -4 -11 12.23 1.1
-3 -4 11 13.96 0.92
3 -4 -11 12.99 1.02
-3 -4 11 12.03 0.51
-3 -4 11 12.07 0.89
3 4 -11 11.44 0.84
-3 4 11 12.32 1.09
3 4 -11 13.23 1.29
3 4 -11 12.35 0.92
3 4 -11 11.14 0.93
-3 4 11 12.41 0.83
-2 -4 11 0.36 0.42
2 -4 -11 -0.34 0.46
-2 -4 11 -0.1 0.47
2 -4 -11 -0.1 0.72
-2 -4 11 -0.2 0.46
2 -4 -11 0.45 0.59
-2 4 11 -0.14 0.53
-2 4 11 -0.33 0.51
2 4 -11 -0.46 0.36
2 4 -11 -0.02 0.4
-2 4 11 -0.27 0.42
2 4 -11 0.6 0.65
-2 4 11 0.52 0.53
1 -4 -11 1.53 0.79
-1 -4 11 0.88 0.53
-1 -4 11 1.54 0.7
-1 -4 11 1.78 0.5
1 -4 -11 2.09 0.59
-1 -4 11 1.31 0.48
1 -4 -11 1.97 0.63
-1 4 11 1.4 0.61
-1 4 11 1.32 0.44
1 4 -11 1.39 0.41
1 4 -11 0.87 0.47
-1 4 11 1.81 0.6
1 4 -11 1.53 0.29
-1 4 11 1.17 0.51
1 4 -11 0.02 0.61
0 -4 11 0.37 0.58
0 -4 -11 0.16 0.83
0 -4 -11 -0.29 0.68
0 -4 11 0.26 0.41
0 -4 -11 0.47 0.56
0 -4 11 1.09 0.55
0 4 11 -0.89 0.44
0 4 -11 -0.41 0.74
0 4 -11 0.05 0.29
0 4 11 -0.51 0.87
0 4 -11 0.33 0.47
0 4 -11 0.22 0.37
0 4 11 0.47 0.49
0 4 11 0.15 0.39
0 4 11 0.27 0.19
-1 -4 -11 0.01 0.56
1 -4 11 0.49 0.51
1 -4 11 0.74 0.58
1 -4 11 0.79 0.61
-1 -4 -11 -0.16 0.8
1 4 11 0.21 0.27
-1 4 -11 -0.58 0.86
1 4 11 0.71 0.58
-1 4 -11 0.24 0.33
1 4 11 0.48 0.4
1 4 11 0.69 0.56
-1 4 -11 0.21 0.34
-2 -4 -11 0.45 0.94
2 -4 11 1 0.64
-2 -4 -11 1.09 0.57
2 -4 11 0.1 0.51
-2 -4 -11 0.73 0.64
2 4 11 0.05 0.61
-2 4 -11 0.27 0.31
-2 4 -11 0 0.4
2 4 11 0.37 0.41
2 4 11 -0.24 0.34
2 4 11 0.72 0.6
-2 4 -11 0.75 1.11
-2 4 -11 1.15 0.55
2 4 11 -0.3 0.54
3 -4 11 0.9 0.75
3 -4 11 0.21 0.53
-3 -4 -11 0.36 1.05
3 -4 11 0.43 0.83
-3 -4 -11 1.49 0.65
3 4 11 0.49 0.4
3 4 11 0.04 0.71
3 4 11 0.12 0.43
3 4 11 0.43 0.65
-3 4 -11 -0.09 0.57
3 4 11 0.86 0.62
-3 4 -11 -0.06 0.49
-3 4 -11 0.95 1.05
-4 -4 -11 2.69 0.55
4 -4 11 2.52 0.84
4 -4 11 2.27 1.03
-4 -4 -11 1.68 1.24
-4 -4 -11 3.35 0.86
4 -4 11 1.09 0.86
-4 -4 -11 2.23 0.78
4 4 11 2.38 0.42
4 4 11 1.57 0.73
-4 4 -11 1.78 0.63
-4 4 -11 1.25 0.73
4 4 11 1.94 0.58
-4 4 -11 2.23 1.42
4 4 11 2.16 0.89
5 -4 11 -0.8 0.8
-5 -4 -11 -1.47 0.82
5 -4 11 1.15 1.15
-5 -4 -11 -0.9 0.78
-5 -4 -11 0.46 0.59
5 -4 11 -0.77 1.04
-5 -4 -11 2.02 1.38
-5 4 -11 2.65 1.5
5 4 11 0.31 0.84
-5 4 -11 -0.13 0.74
-5 4 -11 0.97 0.86
5 4 11 0.14 0.33
5 4 11 1.32 1.05
5 4 11 0.24 0.73
-6 -4 -11 2.65 1.08
6 -4 11 2.67 1.36
6 -4 11 1.8 1.13
-6 -4 -11 1.6 1.75
-6 -4 -11 1.79 1.1
6 -4 11 1.89 1
-6 -4 -11 -0.74 0.72
-6 4 -11 2.05 0.94
6 4 11 5.63 1.29
6 4 11 2.55 0.94
-6 4 -11 2.15 1.77
-6 4 -11 1.01 1.1
6 4 11 2.62 1.21
6 4 11 1.22 0.99
-6 4 -11 2.94 1.04
-7 -4 -11 1.59 1.37
-7 -4 -11 0.58 0.93
7 -4 11 1.23 1.4
7 -4 11 1.25 1.21
-7 -4 -11 0.26 1.95
-7 4 -11 -0.27 1.4
-7 4 -11 0.05 1.07
7 4 11 -0.53 1.19
7 4 11 0.42 1.19
7 4 11 2.13 1.37
7 4 11 0.49 1.03
-7 4 -11 0.5 2.29
11 -5 -11 1.5 1.13
11 -5 -11 1.24 1.41
11 -5 -11 3.25 0.86
11 -5 -11 0.64 0.81
-11 5 11 2.16 1.31
11 5 -11 2.72 1.31
11 5 -11 2.51 1.05
-11 5 11 0.46 0.96
11 5 -11 0.79 0.67
11 5 -11 1.56 1.14
11 5 -11 1.23 1
-11 5 11 1.52 0.83
10 -5 -11 -0.68 0.89
10 -5 -11 -0.79 1.17
10 -5 -11 -0.2 0.72
10 -5 -11 2 1.07
10 5 -11 0.47 0.93
-10 5 11 -0.77 0.81
10 5 -11 1.59 1.08
-10 5 11 -1.38 1.07
10 5 -11 0.53 1.03
10 5 -11 0.16 0.75
-10 5 11 0.29 0.75
10 5 -11 -0.27 1.06
9 -5 -11 2.21 1.01
-9 -5 11 0.86 1
9 -5 -11 3.34 0.89
9 -5 -11 2.78 0.9
9 -5 -11 2.34 0.71
9 5 -11 3.08 0.87
-9 5 11 1.79 0.97
9 5 -11 2.17 0.78
-9 5 11 2.08 0.69
9 5 -11 1.94 0.72
9 5 -11 2.53 0.96
9 5 -11 2.91 0.88
-8 -5 11 1.64 0.64
8 -5 -11 2.19 0.69
8 -5 -11 1.66 0.88
8 -5 -11 2.53 0.8
-8 -5 11 2.23 0.82
-8 -5 11 1.64 0.41
8 -5 -11 0.4 0.68
-8 5 11 -0.27 0.56
-8 5 11 0.66 0.45
8 5 -11 1.33 0.62
8 5 -11 1.76 0.69
8 5 -11 1.86 0.75
8 5 -11 1.44 0.53
-8 5 11 1.97 0.79
8 5 -11 1.66 0.5
7 -5 -11 10.04 1.09
-7 -5 11 11.02 0.97
7 -5 -11 10.18 1.29
7 -5 -11 10.64 0.95
-7 -5 11 9.66 0.91
-7 -5 11 9.22 0.78
-7 5 11 10.41 0.94
7 5 -11 8.04 0.89
7 5 -11 8.47 1.16
-7 5 11 9.78 1.18
-7 5 11 9.64 1.05
7 5 -11 10.63 0.79
7 5 -11 9.73 0.83
7 5 -11 9.13 0.76
-7 5 11 10.57 0.78
-6 -5 11 3.87 0.73
-6 -5 11 4.27 0.58
6 -5 -11 4.3 0.74
6 -5 -11 3.39 0.72
-6 -5 11 4.99 0.5
6 -5 -11 4.87 0.82
6 -5 -11 5.45 0.67
6 5 -11 4.83 0.85
6 5 -11 4.67 0.61
-6 5 11 4.74 0.79
-6 5 11 3.79 0.72
6 5 -11 5.12 0.64
-6 5 11 4.16 0.49
-5 -5 11 15.29 0.94
5 -5 -11 14.94 0.96
5 -5 -11 15.23 1.21
-5 -5 11 13.83 1.15
5 -5 -11 13.58 0.44
5 -5 -11 13.42 1.24
-5 -5 11 14.36 0.95
5 -5 -11 14.98 1.18
-5 -5 11 14.4 1.07
-5 -5 11 15.02 0.72
5 5 -11 13.88 1.31
5 5 -11 15.87 1.06
5 5 -11 13.69 0.9
-5 5 11 15.79 1.26
-5 5 11 12.98 0.8
5 5 -11 15.26 1.01
-5 5 11 14.68 1.07
4 -5 -11 6.2 1
-4 -5 11 6.15 0.75
4 -5 -11 6.9 0.6
-4 -5 11 5.79 0.58
4 -5 -11 6.1 0.32
4 -5 -11 7.43 0.95
-4 -5 11 4.62 0.77
-4 -5 11 6.1 0.81
-4 -5 11 6.3 0.53
4 5 -11 5.74 1
-4 5 11 4.98 0.63
4 5 -11 7.22 0.67
-4 5 11 5.95 0.68
4 5 -11 6.62 0.77
-4 5 11 7.45 0.91
3 -5 -11 1.43 0.62
-3 -5 11 0.74 0.56
-3 -5 11 0.92 0.5
-3 -5 11 0.79 0.89
3 -5 -11 0.11 0.57
-3 -5 11 0.49 0.39
3 -5 -11 1.32 0.42
3 -5 -11 0.91 0.57
-3 -5 11 1.02 0.28
-3 5 11 1.18 0.57
-3 5 11 0.47 0.53
3 5 -11 0.86 0.7
-3 5 11 0.4 0.48
-3 5 11 1.83 0.52
3 5 -11 1.33 0.52
3 5 -11 0.61 0.43
-2 -5 11 1.26 0.53
2 -5 -11 1.26 0.58
-2 -5 11 0.38 0.43
-2 -5 11 0.23 0.53
2 -5 -11 -0.17 0.58
2 5 -11 0.13 0.43
-2 5 11 0.05 0.48
-2 5 11 0.53 0.5
2 5 -11 0.21 0.41
2 5 -11 0.71 0.24
-2 5 11 0.53 0.59
-2 5 11 1.08 0.5
2 5 -11 0.48 0.87
1 -5 -11 1.66 0.6
1 -5 -11 1.45 0.73
-1 -5 11 1.68 0.53
-1 -5 11 3.2 0.62
1 -5 -11 2.08 0.71
-1 -5 11 2.21 0.57
-1 5 11 3.21 0.78
1 5 -11 2.66 0.3
1 5 -11 3.09 0.63
-1 5 11 1.95 0.6
1 5 -11 2.74 0.47
-1 5 11 2.92 0.51
-1 5 11 1.25 0.52
0 -5 11 1.52 1.2
0 -5 -11 0.17 0.75
0 -5 -11 0.21 0.59
0 -5 -11 0.55 0.64
0 -5 11 0.52 0.49
0 -5 11 0.7 0.65
0 5 11 0.52 0.52
0 5 -11 0.33 0.41
0 5 11 1.06 0.62
0 5 -11 -0.79 0.45
0 5 11 0.57 0.46
0 5 -11 0.82 0.9
0 5 -11 0.14 0.29
-1 -5 -11 -0.35 0.58
1 -5 11 0.2 0.46
-1 -5 -11 -0.01 0.91
1 -5 11 -0.24 0.56
1 -5 11 0.18 0.72
1 -5 11 -0.3 0.7
-1 5 -11 -0.47 0.37
1 5 11 0.32 0.27
-1 5 -11 0.36 0.35
1 5 11 -0.2 0.58
-1 5 -11 0.02 0.53
1 5 11 0.27 0.46
-1 5 -11 -0.38 0.84
1 5 11 -0.64 0.53
-2 -5 -11 4.62 1.17
-2 -5 -11 2.97 0.77
-2 -5 -11 5.23 0.7
2 -5 11 2.83 0.8
2 -5 11 4.36 0.78
-2 5 -11 4.88 0.78
-2 5 -11 3.13 0.4
2 5 11 5.35 0.49
-2 5 -11 4.36 1.25
2 5 11 4.35 0.81
2 5 11 4.66 0.78
-2 5 -11 5.45 0.51
2 5 11 4.91 0.56
-3 -5 -11 0.85 0.73
3 -5 11 0.37 0.86
3 -5 11 0.9 0.92
-3 -5 -11 1.52 1.08
3 -5 11 1.54 0.74
-3 5 -11 0.89 0.5
3 5 11 0.87 0.47
-3 5 -11 1.12 1.12
-3 5 -11 0.81 0.64
-3 5 -11 -0.3 0.28
3 5 11 1.69 0.48
3 5 11 0.84 0.73
3 5 11 1.67 0.68
4 -5 11 3 0.85
4 -5 11 3.05 1.17
-4 -5 -11 4.82 0.88
-4 -5 -11 3.23 0.88
4 -5 11 3.59 1.11
-4 -5 -11 3.34 1.39
4 5 11 3.43 0.64
-4 5 -11 2.47 0.63
4 5 11 4.22 0.91
4 5 11 3.46 0.92
4 5 11 3.27 1.22
-4 5 -11 3.43 1.47
4 5 11 2.88 0.52
-4 5 -11 3.93 0.9
5 -5 11 3.41 1.25
-5 -5 -11 2.61 1.58
5 -5 11 3.65 1.29
5 -5 11 2.97 1.03
-5 -5 -11 3.61 1.02
-5 -5 -11 3.15 1.01
5 5 11 3.59 1.02
5 5 11 3.76 1
-5 5 -11 3.96 0.78
-5 5 -11 3.62 1.02
5 5 11 1.78 1.03
5 5 11 3.09 0.75
5 5 11 3.35 0.51
-5 5 -11 2.47 1.56
6 -5 11 -0.16 1.46
-6 -5 -11 0.85 1.74
6 -5 11 1.52 1.35
-6 -5 -11 -0.33 1.08
-6 -5 -11 0.55 0.7
6 -5 11 1.27 1.1
-6 -5 -11 -0.14 1.13
6 5 11 -1.55 1.12
-6 5 -11 0.39 1.21
6 5 11 0.21 1.12
-6 5 -11 -1.42 0.99
-6 5 -11 0.29 0.89
6 5 11 0.68 0.39
-6 5 -11 -1.51 1.85
6 5 11 0.4 0.89
6 5 11 0.26 0.9
7 -5 11 0.89 1.2
-7 -5 -11 -1.12 0.89
7 -5 11 -2.97 1.52
-7 -5 -11 -0.18 1.63
-7 -5 -11 -0.48 2.18
-7 5 -11 0.13 1.45
7 5 11 -0.54 1.07
-7 5 -11 0.88 2.44
7 5 11 -1.26 1.31
7 5 11 -0.47 1.47
7 5 11 -0.59 1.16
11 -6 -11 0.46 1.54
11 -6 -11 1.99 0.89
11 -6 -11 1.45 1.44
-11 6 11 0.87 0.93
11 6 -11 3.85 1.42
11 6 -11 -2.76 1.88
-11 6 11 1.45 1.39
11 6 -11 1.3 1.7
11 6 -11 1.61 0.98
10 -6 -11 -0.78 1.15
10 -6 -11 0.29 1.13
10 -6 -11 -0.24 1.27
10 -6 -11 -0.91 0.79
-10 6 11 0.39 0.87
10 6 -11 -0.23 0.87
10 6 -11 1.78 1.08
10 6 -11 0.89 1.03
10 6 -11 1.27 1.09
-10 6 11 -0.07 0.96
-10 6 11 0.46 1.17
10 6 -11 1.5 0.78
-9 -6 11 -0.96 1
9 -6 -11 0.96 0.96
9 -6 -11 -1.64 0.71
9 -6 -11 0.19 1.07
9 -6 -11 -0.91 0.88
-9 6 11 -1.31 0.7
9 6 -11 -1.05 0.87
9 6 -11 0.26 0.94
9 6 -11 0.72 0.63
-9 6 11 0.81 1.01
-9 6 11 -0.64 0.84
9 6 -11 0.23 0.75
9 6 -11 -0.95 0.9
-8 -6 11 -0.55 0.37
8 -6 -11 1.55 0.89
-8 -6 11 0.08 0.38
8 -6 -11 1.21 0.65
8 -6 -11 1.19 0.76
8 -6 -11 -0.21 0.81
-8 -6 11 -0.3 0.91
8 6 -11 -0.33 0.6
8 6 -11 0.05 0.85
-8 6 11 -0.3 0.67
8 6 -11 -0.18 0.63
8 6 -11 0.81 0.49
-8 6 11 0.4 0.79
8 6 -11 2.02 0.79
8 6 -11 0.22 0.49
-8 6 11 0.34 0.44
-8 6 11 -0.56 0.87
-7 -6 11 0.77 0.78
-7 -6 11 -1.05 0.53
7 -6 -11 -0.36 0.57
7 -6 -11 0.01 0.72
-7 -6 11 -0.79 0.46
-7 -6 11 -0.16 0.54
-7 -6 11 -0.12 0.39
7 -6 -11 -0.5 0.77
7 6 -11 -0.47 0.38
7 6 -11 0.96 0.42
-7 6 11 1.03 0.62
-7 6 11 0.5 0.42
-7 6 11 -0.25 0.69
-7 6 11 -0.19 0.69
-7 6 11 -0.06 0.7
7 6 -11 -0.73 0.75
7 6 -11 0.88 0.89
7 6 -11 0.41 0.6
6 -6 -11 8.83 0.81
6 -6 -11 8.46 1.13
6 -6 -11 7.64 0.89
6 -6 -11 7.08 1.07
-6 -6 11 7.4 0.63
-6 -6 11 7.51 0.88
-6 -6 11 6.97 0.88
6 -6 -11 6.82 0.43
-6 -6 11 7.33 0.63
6 6 -11 5.47 1.54
-6 6 11 7.34 0.87
-6 6 11 6.81 0.97
-6 6 11 3.96 0.74
6 6 -11 6.83 0.7
6 6 -11 5.66 0.75
6 6 -11 7.18 0.76
-6 6 11 7.38 1.01
-6 6 11 7.28 0.54
6 6 -11 8.87 0.59
5 -6 -11 0.43 0.54
-5 -6 11 -0.13 0.58
-5 -6 11 0.11 0.49
5 -6 -11 -0.1 0.51
5 -6 -11 0.49 0.68
5 -6 -11 0.22 0.22
5 -6 -11 -0.45 0.57
-5 -6 11 0.38 0.46
-5 -6 11 0.06 0.38
-5 -6 11 -0.63 0.58
-5 6 11 -0.67 0.53
-5 6 11 0.27 0.6
-5 6 11 -0.22 0.63
5 6 -11 0.59 0.53
5 6 -11 -0.65 0.76
5 6 -11 0.45 0.29
5 6 -11 0.11 0.42
4 -6 -11 -0.03 0.23
-4 -6 11 -0.21 0.34
-4 -6 11 -0.28 0.4
-4 -6 11 -0.19 0.6
4 -6 -11 0.62 0.47
-4 -6 11 -0.12 0.48
4 -6 -11 0.46 0.56
4 -6 -11 -0.04 0.6
-4 -6 11 -0.64 0.56
4 -6 -11 -0.03 0.63
-4 6 11 -0.2 0.57
4 6 -11 0.93 0.57
-4 6 11 0.21 0.55
-4 6 11 -0.06 0.63
4 6 -11 -0.18 0.38
4 6 -11 -0.62 0.62
-3 -6 11 0.37 0.53
3 -6 -11 -0.13 0.43
-3 -6 11 0.79 0.56
3 -6 -11 0.17 0.58
3 -6 -11 -0.64 1.11
-3 -6 11 0.35 0.45
3 -6 -11 0.2 0.25
-3 -6 11 0.69 0.59
3 -6 -11 0.94 0.67
-3 -6 11 0.65 0.32
3 6 -11 0.17 0.6
-3 6 11 0.03 0.58
-3 6 11 -0.25 0.56
3 6 -11 -0.01 0.74
-3 6 11 0.37 0.52
3 6 -11 0.15 0.19
-3 6 11 0.74 0.56
3 6 -11 0.92 0.46
2 -6 -11 11.89 1.25
-2 -6 11 12.32 1.02
2 -6 -11 11.96 0.76
2 -6 -11 10.49 0.58
2 -6 -11 12.43 1.12
-2 -6 11 12.38 1.03
2 -6 -11 10.04 1.31
-2 -6 11 12.36 1
2 6 -11 11.65 0.43
-2 6 11 11.05 0.97
-2 6 11 12.28 1.27
2 6 -11 11.24 1.56
-2 6 11 11.86 1.07
-2 6 11 13.45 1.03
2 6 -11 10.09 0.91
2 6 -11 10.08 0.98
-1 -6 11 -0.59 0.49
1 -6 -11 -0.21 0.64
1 -6 -11 -0.27 0.34
-1 -6 11 0.37 0.58
-1 -6 11 -0.03 0.57
1 -6 -11 0.78 0.65
-1 6 11 -0.13 0.55
1 6 -11 0.04 0.46
-1 6 11 -0.48 0.54
-1 6 11 -0.34 0.54
1 6 -11 0.51 0.89
1 6 -11 0.57 0.53
1 6 -11 -0.25 0.21
-1 6 11 -0.06 0.51
0 -6 -11 3.49 1.1
0 -6 11 2.02 0.76
0 -6 11 3.32 0.97
0 -6 11 2.67 0.63
0 -6 -11 2.99 0.9
0 -6 11 2.25 0.58
0 -6 -11 2.51 0.77
0 6 11 3.25 0.59
0 6 11 2.55 0.72
0 6 11 3.53 0.81
0 6 11 1.68 0.57
0 6 -11 2.89 0.66
0 6 -11 1.73 0.91
0 6 -11 2.72 0.32
0 6 -11 2.33 0.49
-1 -6 -11 2.86 0.9
1 -6 11 2.45 0.76
1 -6 11 2.52 0.77
-1 -6 -11 3.26 1.09
1 -6 11 3.02 0.64
-1 -6 -11 4.41 0.87
1 6 11 2.69 0.59
-1 6 -11 2.89 0.5
-1 6 -11 2.23 0.68
1 6 11 2.53 0.69
-1 6 -11 3.68 1.21
1 6 11 3.19 0.79
1 6 11 2.99 0.63
1 6 11 3.34 0.38
-1 6 -11 3.11 0.39
2 -6 11 0.91 0.69
2 -6 11 1.4 0.67
2 -6 11 1.61 0.92
-2 -6 -11 1.17 1.04
-2 -6 -11 0.49 0.71
-2 -6 -11 -1.01 0.64
2 6 11 0.56 0.65
-2 6 -11 -0.02 1.03
2 6 11 -0.95 0.62
-2 6 -11 -1.48 0.57
2 6 11 0.44 0.38
2 6 11 0.75 0.55
-2 6 -11 -0.1 0.41
2 6 11 0.09 0.65
-2 6 -11 0.24 0.41
-3 -6 -11 0.77 0.71
3 -6 11 0.21 0.75
3 -6 11 0.63 0.98
-3 -6 -11 0.05 0.36
3 -6 11 1.7 1.03
-3 -6 -11 -1.53 0.78
-3 -6 -11 1.29 1.18
-3 6 -11 1.39 0.51
3 6 11 1.25 0.57
3 6 11 1.64 0.75
3 6 11 1.1 0.79
3 6 11 0.48 0.76
-3 6 -11 0.19 0.36
-3 6 -11 0.43 1.16
3 6 11 0.62 0.92
-3 6 -11 0.34 0.75
4 -6 11 -0.02 0.77
4 -6 11 -1.47 1.1
4 -6 11 -0.37 1.16
-4 -6 -11 -0.02 0.43
-4 -6 -11 0.22 0.85
-4 -6 -11 -0.54 0.97
-4 -6 -11 0.54 1.36
-4 6 -11 0.06 0.6
4 6 11 -1.37 0.73
4 6 11 1.18 0.88
4 6 11 1.46 0.85
-4 6 -11 -0.61 1.38
4 6 11 0.56 0.58
-4 6 -11 -1.02 0.77
-5 -6 -11 0.54 1.02
5 -6 11 0.69 1.35
5 -6 11 1.02 1.04
5 -6 11 0.37 1.27
-5 -6 -11 2.17 1.69
-5 -6 -11 0.09 1.08
-5 -6 -11 0.2 0.51
-5 6 -11 -0.45 1.53
-5 6 -11 -0.91 0.97
5 6 11 -1.84 0.88
5 6 11 -0.66 0.75
5 6 11 0.75 0.88
5 6 11 2.4 1.02
5 6 11 0.28 0.61
-6 -6 -11 -3.1 1.71
-6 -6 -11 -0.29 0.64
6 -6 11 1.12 1.53
-6 -6 -11 -0.2 1.24
6 -6 11 1.67 0.99
6 6 11 -1 0.95
-6 6 -11 3.17 2.09
6 6 11 0.65 0.58
6 6 11 -3.05 1.2
-6 6 -11 -0.23 1.24
6 6 11 0.99 1.07
6 6 11 -0.64 0.98
10 -7 -11 0.12 1.23
10 -7 -11 -0.24 1.09
10 -7 -11 0.91 1.4
10 -7 -11 -2.21 0.82
10 7 -11 0.52 0.85
-10 7 11 4.39 1.35
10 7 -11 0.35 0.75
10 7 -11 0.62 1.16
10 7 -11 -2.65 1.19
-10 7 11 -0.19 1.04
-10 7 11 -2.41 1.08
9 -7 -11 1.13 0.83
9 -7 -11 0.62 0.95
9 -7 -11 -0.73 0.97
9 -7 -11 -0.87 1.13
-9 7 11 -0.15 1.01
9 7 -11 -1.79 0.94
-9 7 11 0.21 0.98
9 7 -11 2.51 1.07
-9 7 11 -0.56 0.84
9 7 -11 0.63 0.79
9 7 -11 0.77 0.94
9 7 -11 -0.76 0.59
8 -7 -11 7.05 1
8 -7 -11 8.95 1.29
-8 -7 11 5.56 0.79
8 -7 -11 7.45 1.18
-8 -7 11 6.49 1.14
8 -7 -11 7.41 1.09
8 7 -11 4.84 0.56
8 7 -11 6.03 0.77
8 7 -11 6.56 0.96
8 7 -11 5.42 0.98
8 7 -11 6.47 0.72
-8 7 11 4.96 0.99
8 7 -11 6.02 1.37
-8 7 11 5.2 0.94
-7 -7 11 1.26 0.91
-7 -7 11 0.49 0.56
7 -7 -11 0.13 1.24
7 -7 -11 1.4 0.89
-7 -7 11 -0.14 0.61
7 -7 -11 -0.35 0.68
-7 -7 11 -0.52 0.44
7 -7 -11 0.08 0.83
7 7 -11 0.95 0.78
7 7 -11 1.33 0.49
7 7 -11 0.44 0.61
-7 7 11 0.08 0.77
7 7 -11 0.82 0.38
-7 7 11 -0.03 0.8
-7 7 11 -0.17 0.61
-7 7 11 2.07 0.89
-7 7 11 0.08 0.4
7 7 -11 0.33 0.85
6 -7 -11 1.07 0.84
6 -7 -11 0.89 0.3
6 -7 -11 0.83 0.73
-6 -7 11 0.83 0.53
-6 -7 11 0.54 0.44
6 -7 -11 1.9 0.71
-6 -7 11 0.51 0.77
6 -7 -11 0.37 0.61
-6 -7 11 1.02 0.51
-6 7 11 1.22 0.8
6 7 -11 0.81 0.83
-6 7 11 1.05 0.62
6 7 -11 0.98 0.3
6 7 -11 1.31 0.59
6 7 -11 0.29 0.48
-6 7 11 1.47 0.79
6 7 -11 0.62 0.69
-6 7 11 -0.06 0.73
-6 7 11 0.57 0.41
5 -7 -11 -1.51 0.56
5 -7 -11 -0.44 0.74
5 -7 -11 0.13 0.76
-5 -7 11 0.39 0.64
-5 -7 11 0.16 0.46
-5 -7 11 0.89 0.53
-5 -7 11 -0.14 0.44
5 -7 -11 0.74 0.56
5 -7 -11 0.03 0.27
5 7 -11 0.48 0.44
-5 7 11 1.91 0.7
-5 7 11 0.86 0.73
5 7 -11 0.37 0.77
5 7 -11 0.15 0.21
-5 7 11 -0.49 0.62
5 7 -11 1.83 0.86
4 -7 -11 0.22 0.29
-4 -7 11 0.43 0.68
-4 -7 11 0.46 0.5
4 -7 -11 0.43 0.5
-4 -7 11 -0.94 0.51
-4 -7 11 0.42 0.4
4 -7 -11 -0.66 0.53
4 -7 -11 0.03 0.72
4 -7 -11 0.28 0.72
-4 7 11 0.86 0.73
4 7 -11 -0.52 0.44
-4 7 11 -0.37 0.66
4 7 -11 0.21 0.75
-4 7 11 -0.03 0.62
-3 -7 11 1.02 0.6
3 -7 -11 0.7 0.32
3 -7 -11 1.26 0.47
3 -7 -11 0.62 0.71
-3 -7 11 0.98 0.38
3 -7 -11 1.63 1.31
-3 -7 11 0.89 0.54
-3 -7 11 1.28 0.62
3 -7 -11 1.32 0.62
-3 7 11 0.9 0.67
-3 7 11 1.25 0.62
-3 7 11 1.84 0.72
3 7 -11 1.01 0.49
3 7 -11 0.68 0.58
3 7 -11 0.14 0.78
-3 7 11 2.13 0.75
-2 -7 11 5.51 0.73
-2 -7 11 6.52 0.71
-2 -7 11 5.92 0.76
2 -7 -11 6.17 0.48
-2 -7 11 5.54 0.49
2 -7 -11 5.7 0.94
2 -7 -11 6.96 0.87
2 -7 -11 5.59 0.51
2 -7 -11 4.87 0.92
2 7 -11 5.8 0.8
2 7 -11 5.48 1.18
-2 7 11 6.18 0.7
-2 7 11 5.48 0.89
-2 7 11 4.84 0.8
-2 7 11 4.18 1.44
2 7 -11 5.3 0.74
1 -7 -11 1.85 0.82
1 -7 -11 1.78 0.81
-1 -7 11 1.12 0.65
1 -7 -11 0.67 0.41
-1 -7 11 1.34 0.67
1 -7 -11 1.6 0.39
-1 -7 11 1.06 0.55
1 -7 -11 0.02 0.67
-1 7 11 0.34 0.42
-1 7 11 0.79 0.62
-1 7 11 1.57 0.79
1 7 -11 2.06 0.57
1 7 -11 1.55 0.64
-1 7 11 1.92 0.63
1 7 -11 1.1 0.93
0 -7 -11 0.9 0.76
0 -7 11 0.89 0.7
0 -7 11 1.04 0.66
0 -7 11 1.58 0.86
0 -7 11 1.53 0.68
0 -7 -11 2.52 0.74
0 -7 -11 -0.13 0.33
0 7 -11 0.7 0.54
0 7 11 1.29 0.7
0 7 11 0.36 0.7
0 7 11 1.74 0.63
0 7 -11 1.44 0.27
0 7 -11 1.44 0.9
0 7 11 1.05 0.62
0 7 -11 -0.27 0.98
1 -7 11 -0.39 0.64
-1 -7 -11 -1.58 0.72
-1 -7 -11 -0.2 0.98
-1 -7 -11 0.32 0.77
1 -7 11 -0.6 0.55
1 -7 11 -0.65 0.84
-1 -7 -11 -0.21 0.3
-1 7 -11 -0.21 0.5
-1 7 -11 -0.88 0.6
1 7 11 0.04 0.61
1 7 11 -0.27 0.61
1 7 11 0.51 0.72
-1 7 -11 0.26 0.31
-1 7 -11 0.44 1.1
2 -7 11 2.58 0.75
2 -7 11 3.91 0.97
-2 -7 -11 2.53 1.5
-2 -7 -11 2.17 0.75
2 -7 11 2.79 0.78
-2 -7 -11 2.5 0.9
2 -7 11 0.97 1.01
2 7 11 2.26 0.46
2 7 11 3.53 0.75
-2 7 -11 4.98 0.88
2 7 11 3.77 0.89
2 7 11 2.46 0.74
-2 7 -11 2.89 1.2
3 -7 11 0 1.04
3 -7 11 -0.64 0.87
-3 -7 -11 0.57 0.89
-3 -7 -11 -0.36 0.28
-3 -7 -11 -0.46 0.79
3 -7 11 -0.47 0.8
-3 -7 -11 0.09 2.4
3 -7 11 0.01 0.75
-3 7 -11 -0.17 0.45
-3 7 -11 -0.31 0.63
3 7 11 -0.49 0.76
3 7 11 -0.07 0.81
3 7 11 -0.36 0.76
-3 7 -11 -0.16 1.3
3 7 11 -0.02 0.48
-4 -7 -11 -0.05 0.3
4 -7 11 2.08 0.88
-4 -7 -11 1.08 1
4 -7 11 3.03 1.34
-4 -7 -11 1.83 1.14
4 -7 11 1.76 1.31
4 -7 11 2.2 0.92
4 7 11 1.22 0.65
4 7 11 -0.76 0.75
4 7 11 0.13 0.93
-4 7 -11 0.2 1.55
4 7 11 1.2 0.96
-4 7 -11 -0.09 0.87
-4 7 -11 0.32 0.32
5 -7 11 1.7 1.11
-5 -7 -11 -0.19 0.35
-5 -7 -11 1.91 1.12
-5 -7 -11 -0.32 1.13
5 -7 11 5.55 1.59
5 -7 11 0.36 1.44
5 7 11 -0.06 0.97
-5 7 -11 -0.74 1.85
5 7 11 -0.39 1.01
-5 7 -11 -0.88 1.03
5 7 11 -1.8 1.06
5 7 11 0.2 0.75
5 7 11 2.13 0.79
-6 -7 -11 -1.95 1.25
6 -7 11 2.44 1.21
-6 -7 -11 2.87 3.61
6 -7 11 0.36 1.69
6 7 11 3.37 1.2
6 7 11 -0.3 1.02
-6 7 -11 -1.69 1.31
6 7 11 1.19 1.22
6 7 11 0.42 0.77
-6 7 -11 -0.41 2.39
6 7 11 -0.54 1.29
10 -8 -11 0.54 1.1
10 -8 -11 2.15 1.47
10 -8 -11 -0.74 1.54
10 -8 -11 0.63 2.2
-10 8 11 0.44 1.28
-10 8 11 -0.02 1.52
10 8 -11 0.47 0.87
10 8 -11 -0.08 1.26
9 -8 -11 0.31 1.11
9 -8 -11 0.02 1.09
9 -8 -11 2.48 1.03
9 -8 -11 0.1 1.34
9 8 -11 2.4 1.22
-9 8 11 -0.11 1.15
-9 8 11 0.03 1.14
-9 8 11 0.87 1.04
9 8 -11 -0.09 0.59
9 8 -11 -0.14 0.75
9 8 -11 -1.53 1.07
9 8 -11 -0.2 1.02
8 -8 -11 0.99 1.02
-8 -8 11 -0.8 0.44
-8 -8 11 -0.6 1.15
8 -8 -11 1.21 1.12
8 -8 -11 0.84 0.8
-8 -8 11 0.33 0.52
-8 -8 11 -0.27 0.82
8 -8 -11 0.83 0.91
8 8 -11 -0.34 0.55
-8 8 11 -0.16 0.86
8 8 -11 0.43 0.69
8 8 -11 -0.12 0.97
8 8 -11 0.53 0.45
-8 8 11 -0.57 0.93
8 8 -11 0.62 0.94
-8 8 11 1.49 1.08
8 8 -11 -0.32 0.78
7 -8 -11 1.53 1.04
-7 -8 11 1.15 1.01
-7 -8 11 1.35 0.74
7 -8 -11 0.15 0.82
-7 -8 11 -0.34 0.56
7 -8 -11 1.15 1
7 -8 -11 1.04 0.81
7 8 -11 -0.51 0.9
-7 8 11 0.77 0.95
-7 8 11 -0.44 0.4
7 8 -11 0.11 0.53
7 8 -11 1.05 0.34
-7 8 11 1.39 0.79
-7 8 11 0.26 0.87
7 8 -11 0.75 0.88
6 -8 -11 1.67 0.39
-6 -8 11 1.26 0.64
-6 -8 11 1.73 0.88
-6 -8 11 1.99 0.82
6 -8 -11 0.59 0.94
-6 -8 11 -0.25 0.52
6 -8 -11 2.64 0.97
6 -8 -11 0.88 0.68
-6 -8 11 0.54 0.54
6 -8 -11 1.45 0.81
-6 8 11 -0.14 0.41
-6 8 11 1.66 0.91
-6 8 11 1.07 0.88
-6 8 11 2.03 0.82
6 8 -11 1.63 0.56
6 8 -11 0.45 0.83
6 8 -11 1.62 0.93
6 8 -11 1.48 0.22
-6 8 11 1.82 0.81
5 -8 -11 0.36 0.34
5 -8 -11 0.01 0.83
5 -8 -11 0.18 0.58
-5 -8 11 0.22 0.72
5 -8 -11 -0.11 0.68
-5 -8 11 -0.21 0.48
5 -8 -11 -0.67 0.8
-5 -8 11 0.27 0.79
-5 -8 11 0.62 0.53
-5 -8 11 -0.52 0.51
5 8 -11 -0.94 0.51
-5 8 11 0.07 0.73
-5 8 11 -0.84 0.75
-5 8 11 -0.38 0.69
5 8 -11 0.02 0.8
-5 8 11 0.18 0.8
5 8 -11 0.84 0.75
-4 -8 11 0.02 0.53
4 -8 -11 0.1 0.34
-4 -8 11 0 0.72
-4 -8 11 -0.38 0.54
4 -8 -11 -1.34 0.83
4 -8 -11 -1.44 0.61
-4 -8 11 0.25 0.46
-4 -8 11 0.32 0.71
4 -8 -11 0.65 0.77
4 -8 -11 0.26 0.51
4 8 -11 0.34 0.71
-4 8 11 -0.13 0.64
-4 8 11 -0.3 0.76
4 8 -11 -0.15 0.89
-4 8 11 0.56 0.6
-4 8 11 -0.24 0.75
4 8 -11 1.05 0.53
-3 -8 11 1.58 0.65
-3 -8 11 0.64 0.61
-3 -8 11 2 0.75
-3 -8 11 0.65 0.74
3 -8 -11 0.27 0.81
3 -8 -11 0.78 0.39
3 -8 -11 0.51 0.79
3 -8 -11 0.45 0.64
3 -8 -11 0.68 0.46
-3 -8 11 0.97 0.46
-3 8 11 0.18 0.5
-3 8 11 0.18 0.67
3 8 -11 0.7 0.58
3 8 -11 1.59 0.93
-3 8 11 1.14 0.72
-3 8 11 1.42 0.83
-2 -8 11 2.02 0.92
2 -8 -11 1.23 0.78
-2 -8 11 3.61 0.74
2 -8 -11 2.7 0.46
2 -8 -11 1.91 0.9
-2 -8 11 2.17 0.68
2 -8 -11 2.1 0.44
2 -8 -11 3.38 0.84
-2 -8 11 2.59 0.67
-2 -8 11 1.98 0.45
-2 8 11 2.16 0.65
-2 8 11 2.64 0.74
-2 8 11 2.68 0.82
2 8 -11 2.64 0.73
-2 8 11 2.69 0.91
2 8 -11 1.89 0.69
2 8 -11 3.05 1.06
1 -8 -11 0.06 0.74
-1 -8 11 0 0.66
-1 -8 11 -0.3 0.72
-1 -8 11 0.34 0.62
1 -8 -11 0.46 0.87
1 -8 -11 -0.11 0.34
1 -8 -11 -0.56 0.44
1 -8 -11 0.64 0.7
1 8 -11 0.35 0.58
-1 8 11 0.27 0.59
-1 8 11 0.37 0.77
-1 8 11 -0.21 0.48
1 8 -11 1.38 1.04
0 -8 -11 0.2 0.75
0 -8 -11 0.36 0.53
0 -8 11 1.63 1.03
0 -8 11 0.18 0.91
0 -8 11 0.23 0.7
0 -8 -11 0.35 0.3
0 -8 -11 -0.09 0.79
0 -8 11 0.74 0.78
0 8 -11 -0.24 0.59
0 8 11 1.1 0.72
0 8 -11 0.68 0.99
0 8 11 0.01 0.64
0 8 -11 0.65 0.62
0 8 11 0.84 0.7
-1 -8 -11 -1.08 0.82
-1 -8 -11 -0.6 1.23
1 -8 11 0.66 0.98
1 -8 11 0.76 0.74
-1 -8 -11 -0.52 0.91
1 -8 11 -0.07 0.72
-1 8 -11 0.19 0.57
1 8 11 -0.5 0.76
-1 8 -11 0.51 1.16
1 8 11 -0.3 0.65
-1 8 -11 -0.88 0.63
1 8 11 -0.15 0.62
2 -8 11 2.37 1.07
2 -8 11 0.83 1.18
-2 -8 -11 -1.4 0.74
2 -8 11 0.26 0.79
2 -8 11 0.32 0.69
-2 -8 -11 2.65 1.05
-2 -8 -11 0.85 1.29
-2 8 -11 -0.22 0.58
-2 8 -11 1.29 1.38
2 8 11 0.91 0.85
2 8 11 1.83 0.76
2 8 11 1.59 0.75
-2 8 -11 -0.28 0.75
3 -8 11 0.95 0.88
3 -8 11 0.35 1.21
-3 -8 -11 1.48 1.07
3 -8 11 -0.27 1.42
-3 -8 -11 0.38 0.93
-3 -8 -11 -0.29 1.32
3 -8 11 -0.22 0.83
-3 8 -11 2.86 1.56
-3 8 -11 -1.04 0.93
-3 8 -11 -0.25 0.57
3 8 11 0.42 0.7
3 8 11 -0.46 0.86
3 8 11 -1.25 0.78
-4 -8 -11 -0.97 1.05
-4 -8 -11 3.1 1.13
-4 -8 -11 0.1 1.55
4 -8 11 0.76 0.94
4 -8 11 2.19 0.96
4 -8 11 3.67 1.42
4 -8 11 -1.44 1.21
4 8 11 0.09 0.98
4 8 11 0.26 0.66
-4 8 -11 3.09 1.08
4 8 11 1.53 0.95
-4 8 -11 0.45 0.49
4 8 11 1.34 1.02
-4 8 -11 -2.41 1.73
-5 -8 -11 -1.64 1.2
5 -8 11 1.64 1.03
5 -8 11 0.24 1.06
-5 -8 -11 -1.91 1.76
5 -8 11 2.11 1.9
5 8 11 -0.97 1.1
-5 8 -11 -3.89 2.06
5 8 11 -0.05 0.87
5 8 11 0.39 0.98
5 8 11 2.41 1.18
9 -9 -11 -2.21 1.13
9 -9 -11 -1 1.43
9 -9 -11 1.36 2.08
9 -9 -11 -1.31 1.02
-9 9 11 1 1.27
-9 9 11 0.76 1.38
9 9 -11 -1.05 1.06
9 9 -11 -0.44 0.57
-8 -9 11 0.91 1.01
8 -9 -11 2.31 1.02
8 -9 -11 4.03 1.38
8 -9 -11 0.41 1.3
-8 -9 11 0 1.28
8 -9 -11 2.47 1.02
-8 9 11 2 1.06
8 9 -11 2.13 1.14
8 9 -11 1.72 0.43
8 9 -11 1.6 1.09
-8 9 11 1.27 1.24
8 9 -11 1.86 0.93
-8 9 11 2.42 1.16
7 -9 -11 1.94 1.15
-7 -9 11 1.77 0.89
-7 -9 11 1.82 1.09
7 -9 -11 3.12 0.86
-7 -9 11 0.78 0.85
7 -9 -11 -0.2 1.13
7 -9 -11 0.68 0.93
7 9 -11 1.92 0.96
-7 9 11 1.46 0.9
7 9 -11 0.84 0.6
7 9 -11 4.04 1.15
7 9 -11 2.8 1.06
-7 9 11 3.29 1.18
-7 9 11 1.94 0.98
-6 -9 11 -0.44 0.72
-6 -9 11 0.95 0.54
6 -9 -11 0.36 1.05
-6 -9 11 0.88 0.82
-6 -9 11 0.16 1.08
-6 -9 11 -0.3 0.52
6 -9 -11 -0.95 0.82
6 -9 -11 0.45 1.06
6 -9 -11 0.31 0.43
6 -9 -11 0.08 0.8
-6 9 11 -1.5 0.71
-6 9 11 0.07 0.44
6 9 -11 1.33 0.98
6 9 -11 0.09 0.64
-6 9 11 -2.28 0.88
-6 9 11 -0.4 0.97
6 9 -11 -1.28 1
-6 9 11 0.69 1.47
5 -9 -11 0.24 0.41
-5 -9 11 -0.97 0.86
-5 -9 11 0 0.55
-5 -9 11 1.16 0.56
5 -9 -11 -0.66 0.89
5 -9 -11 -0.77 0.93
5 -9 -11 0.23 0.62
5 -9 -11 -0.08 0.79
-5 -9 11 -0.46 0.8
-5 9 11 0.64 0.93
-5 9 11 -0.28 0.88
5 9 -11 0.97 1.01
-5 9 11 -0.35 0.81
5 9 -11 0.47 0.89
5 9 -11 -0.17 0.58
-5 9 11 -1.12 0.8
4 -9 -11 0.2 0.42
4 -9 -11 -0.97 0.85
4 -9 -11 -0.56 0.8
-4 -9 11 0.79 0.58
4 -9 -11 0.77 0.86
-4 -9 11 0.71 0.83
-4 -9 11 1.01 0.6
-4 -9 11 0.13 0.88
4 -9 -11 0.36 0.55
-4 -9 11 0.72 0.57
4 9 -11 -0.67 0.82
-4 9 11 -0.32 0.86
-4 9 11 -0.55 0.79
-4 9 11 0.99 0.79
4 9 -11 0.36 0.62
4 9 -11 0.66 1.06
-4 9 11 -1.33 0.8
3 -9 -11 4.29 0.54
3 -9 -11 2.15 1.07
3 -9 -11 2.33 0.89
-3 -9 11 3.07 0.89
-3 -9 11 3.28 0.77
-3 -9 11 4.5 0.61
-3 -9 11 4 0.72
-3 -9 11 5.3 1.09
3 -9 -11 1.96 0.5
3 -9 -11 3.39 0.92
-3 9 11 3.7 0.84
3 9 -11 4.73 0.84
3 9 -11 4.72 1.26
-3 9 11 3.15 0.76
-3 9 11 3.94 0.84
-3 9 11 3.43 0.98
3 9 -11 2.89 0.71
-2 -9 11 1.05 0.8
2 -9 -11 0.8 0.5
-2 -9 11 0.62 0.7
2 -9 -11 2.13 0.8
-2 -9 11 0.56 0.69
2 -9 -11 2.86 1.02
-2 -9 11 0.75 0.61
2 -9 -11 -0.12 0.39
2 -9 -11 0.22 0.85
-2 -9 11 2.03 0.96
-2 9 11 0.08 0.8
-2 9 11 0.38 0.88
-2 9 11 1.26 0.7
2 9 -11 0.82 0.59
-2 9 11 0.96 0.69
2 9 -11 1.62 1.18
1 -9 -11 0.42 0.54
1 -9 -11 0.09 0.32
-1 -9 11 -0.06 0.76
1 -9 -11 -0.33 0.8
1 -9 -11 -1.32 0.83
-1 -9 11 -0.52 0.85
1 -9 -11 1.35 0.75
-1 -9 11 0.76 0.71
-1 9 11 0.49 0.71
1 9 -11 -0.09 0.63
1 9 -11 1.26 1.19
-1 9 11 -0.19 0.73
1 9 -11 -0.33 0.7
-1 9 11 -0.17 0.82
0 -9 11 0.35 0.76
0 -9 -11 -0.62 0.79
0 -9 11 0.54 0.76
0 -9 11 0.29 0.84
0 -9 -11 -0.25 0.91
0 -9 -11 -0.01 0.59
0 -9 11 0.9 1.03
0 -9 -11 0.76 0.86
0 9 -11 2.58 1.36
0 9 -11 0.11 0.62
0 9 11 0.62 0.86
0 9 11 0.2 0.67
0 9 -11 1.16 0.7
0 9 11 0.31 0.89
-1 -9 -11 -0.62 0.89
1 -9 11 0.69 1.17
1 -9 11 0.24 0.79
1 -9 11 0.79 1.11
-1 -9 -11 0.77 1.06
1 -9 11 0.32 0.86
-1 9 -11 -1.06 0.69
1 9 11 1.38 0.73
1 9 11 1.27 0.8
-1 9 -11 2.08 1.42
-1 9 -11 0.37 0.69
1 9 11 1.12 0.92
2 -9 11 1.74 0.97
2 -9 11 1.69 1.18
-2 -9 -11 1.73 1.37
2 -9 11 0.13 1.02
2 -9 11 0.92 0.91
-2 -9 -11 0.32 0.94
-2 9 -11 -0.26 0.7
-2 9 -11 2.55 1.61
2 9 11 0.27 0.81
2 9 11 2.4 1.04
2 9 11 0.35 0.76
-2 9 -11 1.15 1
-3 -9 -11 1.25 1.71
-3 -9 -11 1.7 1.29
-3 -9 -11 0 1.01
3 -9 11 1.29 1.25
3 -9 11 0.64 0.88
3 -9 11 0.43 1
3 -9 11 1.12 1.37
3 9 11 0.78 0.86
3 9 11 2.14 1.04
-3 9 -11 -0.15 0.92
-3 9 -11 0.29 1.75
3 9 11 1.21 0.96
-3 9 -11 -1 0.68
4 -9 11 0.87 1.63
4 -9 11 -2.24 1.68
4 -9 11 0.58 1.01
4 -9 11 0.12 1.08
-4 -9 -11 1.81 1.88
-4 -9 -11 -0.14 1.16
4 9 11 -0.8 1.11
4 9 11 0.82 1.03
-4 9 -11 0.07 1.78
-4 9 -11 0.55 0.66
-4 9 -11 -0.66 1.26
4 9 11 0.24 1.01
4 9 11 1.02 0.75
-5 -9 -11 2.1 1.61
5 -9 11 -0.96 1.86
5 -9 11 1.44 1.39
5 -9 11 -0.68 1.22
-5 -9 -11 -0.11 2.3
5 9 11 0.4 1.19
5 9 11 0.61 1.01
5 9 11 -0.85 1.26
5 9 11 1.05 1.11
-5 9 -11 -0.02 2.38
8 -10 -11 1.78 1.11
8 -10 -11 -1.23 1.43
8 -10 -11 0.45 1.36
-8 -10 11 1.14 1.17
8 -10 -11 -1 1.12
-8 -10 11 2.32 1.02
8 10 -11 1.11 0.71
8 10 -11 3.4 1.06
-8 10 11 -1.25 1.36
-8 10 11 -1.22 1.36
7 -10 -11 -0.04 0.55
-7 -10 11 0.47 1.03
-7 -10 11 0.9 0.95
-7 -10 11 -0.11 1.3
7 -10 -11 0.51 1.28
-7 -10 11 0.79 0.7
7 -10 -11 0.76 0.92
7 -10 -11 2.77 1.12
7 -10 -11 -0.8 1.32
7 10 -11 2.11 1.16
-7 10 11 0.07 1.08
7 10 -11 0.86 1.06
7 10 -11 0.25 1.12
7 10 -11 1.83 0.71
-7 10 11 2.96 1.26
-7 10 11 0.29 1.25
6 -10 -11 0.68 0.55
6 -10 -11 3.25 1.38
-6 -10 11 1.25 1.2
6 -10 -11 1.36 0.93
-6 -10 11 0.63 1
-6 -10 11 2.21 0.9
-6 -10 11 0.72 0.63
6 -10 -11 1.04 1.15
-6 -10 11 -0.49 0.54
6 10 -11 2.87 1.17
-6 10 11 -0.11 0.44
6 10 -11 0.34 1.13
-6 10 11 1.2 1.04
6 10 -11 0.16 0.65
-6 10 11 0.76 0.98
-6 10 11 1.71 1.05
-5 -10 11 1.74 1.06
5 -10 -11 -0.6 1.05
5 -10 -11 2.44 1.05
5 -10 -11 2.05 1.05
-5 -10 11 0.57 0.58
-5 -10 11 -0.1 0.74
-5 -10 11 1.12 1.01
5 -10 -11 0.95 0.52
-5 -10 11 0.42 0.69
5 10 -11 -1.3 0.95
-5 10 11 0.96 0.89
5 10 -11 0.45 1.12
-5 10 11 0.05 1
5 10 -11 0.74 0.73
-5 10 11 0.61 0.92
-5 10 11 -0.31 1.01
4 -10 -11 1.13 0.55
-4 -10 11 2.76 1.12
4 -10 -11 1.14 1
4 -10 -11 -1.14 0.53
-4 -10 11 1.47 0.73
-4 -10 11 0.39 0.97
4 -10 -11 0.38 1.11
-4 -10 11 -0.2 0.61
4 -10 -11 1.3 0.9
-4 -10 11 1.6 0.7
4 10 -11 0.09 1.06
-4 10 11 0.46 0.95
-4 10 11 1.74 0.9
4 10 -11 1.42 0.66
-4 10 11 2.96 1.14
-4 10 11 1.8 0.97
4 10 -11 2.5 0.96
-3 -10 11 0.77 0.63
3 -10 -11 1.01 1.01
3 -10 -11 1.36 0.97
3 -10 -11 -0.5 0.47
3 -10 -11 1.28 0.56
-3 -10 11 1.32 0.93
-3 -10 11 0.96 0.72
-3 -10 11 0.14 0.71
-3 -10 11 -0.13 0.97
3 -10 -11 -1.09 1.1
3 10 -11 0.69 1.29
3 10 -11 -0.79 0.87
-3 10 11 1.83 1.08
-3 10 11 1.89 0.83
3 10 -11 1.69 0.72
-3 10 11 1.68 0.87
-3 10 11 1.07 0.94
-2 -10 11 0.01 0.97
-2 -10 11 -0.15 0.88
2 -10 -11 -0.57 1.15
-2 -10 11 -0.18 0.76
2 -10 -11 0.74 0.95
-2 -10 11 0.61 0.6
-2 -10 11 2.11 0.85
2 -10 -11 -0.21 0.39
2 -10 -11 -1.07 0.54
2 -10 -11 -1.45 0.83
-2 10 11 0.95 0.97
2 10 -11 2.33 1.24
-2 10 11 0.08 1.07
2 10 -11 -0.15 0.87
-2 10 11 -0.78 0.73
2 10 -11 0.79 0.78
1 -10 -11 0.3 0.64
1 -10 -11 -0.7 0.92
-1 -10 11 1.6 1.02
-1 -10 11 0.37 1.02
-1 -10 11 -0.62 1.01
1 -10 -11 -1.02 1.09
1 -10 -11 -0.11 0.82
-1 -10 11 0.17 0.88
1 10 -11 0.02 1.33
-1 10 11 0.79 0.65
-1 10 11 0.36 0.77
1 10 -11 1.29 0.86
-1 10 11 0.29 0.98
1 10 -11 0.3 0.87
0 -10 -11 1.29 0.96
0 -10 -11 0.76 0.91
0 -10 11 0.13 1.01
0 -10 -11 -0.59 0.68
0 -10 -11 1.59 1.15
0 -10 11 0.49 0.82
0 -10 11 -0.08 1.09
0 -10 11 0.32 0.93
0 10 11 -0.49 0.64
0 10 -11 -0.74 1.5
0 10 11 -0.6 0.98
0 10 11 1.22 0.77
0 10 -11 1.33 0.87
1 -10 11 -0.79 0.85
1 -10 11 -1.01 1.13
-1 -10 -11 -0.94 1
1 -10 11 -2.01 1.27
-1 -10 -11 -1.8 1.23
-1 -10 -11 -1.3 0.79
1 -10 11 -1.13 0.91
-1 10 -11 0.81 0.85
1 10 11 -0.29 0.73
-1 10 -11 -0.3 1.38
-1 10 -11 1.87 0.92
1 10 11 -0.52 0.77
1 10 11 0.87 1.07
2 -10 11 1.67 1.34
2 -10 11 0.11 0.95
-2 -10 -11 -2.1 1.72
-2 -10 -11 -1.36 1.25
2 -10 11 1.74 1.02
-2 -10 -11 -0.95 1.03
-2 10 -11 -0.3 1.72
-2 10 -11 -1.58 0.99
2 10 11 -0.38 0.98
2 10 11 0.3 1.18
2 10 11 -0.64 0.86
-3 -10 -11 1.56 1.79
3 -10 11 -0.7 1.4
-3 -10 -11 -1.19 1.18
3 -10 11 -0.65 1.06
3 -10 11 -0.74 1.58
3 -10 11 1.76 1.14
3 10 11 -0.02 1.07
-3 10 -11 -1.34 0.83
3 10 11 0.35 1.04
3 10 11 0 0.93
-3 10 -11 -1.34 1.75
-3 10 -11 1.73 1.15
4 -10 11 4.35 1.88
4 -10 11 1.86 2.12
-4 -10 -11 3.23 2.1
4 -10 11 2.08 1.22
4 -10 11 -0.37 1.31
-4 -10 -11 0.57 1.48
4 10 11 1.23 1.38
-4 10 -11 2.4 2.18
4 10 11 0.52 1.16
4 10 11 -0.31 1.06
7 -11 -11 2.69 1.6
7 -11 -11 1.7 0.74
-7 -11 11 3.79 1.28
-7 -11 11 1.6 1.25
7 -11 -11 2.04 1.25
7 -11 -11 0.04 1.54
7 -11 -11 3.92 1.14
7 11 -11 1.34 1.27
-7 11 11 2.6 1.45
7 11 -11 -0.16 0.81
-7 11 11 0.72 1.37
-6 -11 11 1.48 0.84
6 -11 -11 -0.4 1.45
-6 -11 11 -0.37 1.17
6 -11 -11 2.14 1.32
-6 -11 11 3.03 1.09
6 -11 -11 3.01 1.18
-6 -11 11 0.13 1.31
6 -11 -11 1 0.73
-6 11 11 -0.16 1.26
6 11 -11 -1.88 1.25
6 11 -11 0.2 0.8
-6 11 11 -0.03 0.42
-6 11 11 0.9 0.46
6 11 -11 1.18 1.28
-6 11 11 0.97 1.22
5 -11 -11 1.23 0.91
-5 -11 11 0.59 0.76
5 -11 -11 1.45 1.18
5 -11 -11 3.09 0.71
-5 -11 11 0.62 0.56
-5 -11 11 3.91 1.42
5 -11 -11 3.15 1.22
-5 -11 11 3.03 1.24
-5 -11 11 2.75 0.95
5 -11 -11 4.2 1.56
-5 11 11 -0.08 1.17
-5 11 11 0.98 1.25
5 11 -11 1.88 0.79
5 11 -11 2.46 1.44
5 11 -11 4.53 1.23
-5 11 11 2.19 1.24
-4 -11 11 1.43 1.21
-4 -11 11 0.58 0.83
-4 -11 11 3.05 0.89
-4 -11 11 2.46 1.18
4 -11 -11 3.05 1.43
4 -11 -11 2.51 1.11
4 -11 -11 2.01 1.18
4 -11 -11 2.76 0.7
4 -11 -11 -0.75 0.65
-4 -11 11 -0.03 0.65
4 11 -11 4.97 1
4 11 -11 4.03 1.53
-4 11 11 1.38 1.16
-4 11 11 3.01 1.01
4 11 -11 4.65 1.16
-4 11 11 2.26 1.19
-4 11 11 4.07 1.38
-3 -11 11 0.8 1.03
-3 -11 11 0.09 0.76
3 -11 -11 -0.04 1.09
-3 -11 11 -0.21 0.76
3 -11 -11 1.7 1.16
3 -11 -11 0.97 1.27
3 -11 -11 0.83 0.66
-3 -11 11 -0.01 0.79
-3 11 11 -1.14 0.98
3 11 -11 0.3 0.8
3 11 -11 0.45 1.32
3 11 -11 -1.38 1.01
-3 11 11 -1.36 0.87
-3 11 11 1.46 1.2
-2 -11 11 0.46 1.17
2 -11 -11 -0.31 1.03
-2 -11 11 1.06 1.09
-2 -11 11 3.33 0.98
-2 -11 11 0.93 0.73
-2 -11 11 0.2 0.86
2 -11 -11 1.2 0.7
2 -11 -11 4.06 1.4
2 -11 -11 1.62 1.09
2 11 -11 0.59 1.43
-2 11 11 1.5 1.03
2 11 -11 0.82 1.02
2 11 -11 1.16 0.78
-2 11 11 2.06 0.85
-2 11 11 3.99 1.37
1 -11 -11 -0.71 0.86
-1 -11 11 -0.05 0.93
-1 -11 11 0.23 1.07
1 -11 -11 0.24 1.05
-1 -11 11 0.06 0.7
1 -11 -11 -1.94 1.04
1 -11 -11 -2.38 1.24
-1 -11 11 -0.47 0.88
1 11 -11 -0.24 0.96
1 11 -11 0.95 0.97
-1 11 11 1.19 0.9
-1 11 11 -0.25 1.1
-1 11 11 0.84 1.24
1 11 -11 -0.89 1.52
0 -11 -11 2.14 1.09
0 -11 11 5.07 1.1
0 -11 11 4.64 1.12
0 -11 -11 5.56 1.2
0 -11 -11 2.8 1.43
0 -11 -11 4.02 0.92
0 -11 11 2.62 1.39
0 11 11 5.07 0.94
0 11 -11 3.62 1.75
0 11 11 3.99 1.33
0 11 -11 5.37 1.13
0 11 11 3.84 0.98
0 11 -11 3.79 1.03
-1 -11 -11 -1.32 1.15
-1 -11 -11 1.36 1.52
1 -11 11 0 1.11
1 -11 11 2.62 1.03
-1 -11 -11 -0.28 0.95
1 -11 11 1.63 1.41
1 -11 11 -0.21 1.3
-1 11 -11 -1.09 1.14
-1 11 -11 0.01 0.92
1 11 11 0.35 1.22
1 11 11 -1.39 0.93
-1 11 -11 0.6 1.69
1 11 11 -0.87 0.87
2 -11 11 4.56 1.22
2 -11 11 4.77 1.62
2 -11 11 6.82 1.18
2 -11 11 6.65 2.86
-2 -11 -11 4.12 1.3
2 11 11 3.25 1.13
2 11 11 4.42 1.02
-2 11 -11 3.54 2.16
-2 11 -11 5.7 1.35
2 11 11 3.15 1.32
3 -11 11 0.9 1.26
3 -11 11 0.12 1.84
-3 -11 -11 0.62 2.18
-3 -11 -11 -0.24 1.34
3 -11 11 1.66 1.31
-3 11 -11 0.31 1.07
3 11 11 1.47 1.16
-3 11 -11 0.69 2.19
3 11 11 1.38 1.44
3 11 11 0.59 1.04
6 -12 -11 1.91 1.57
6 -12 -11 0.69 0.81
-6 -12 11 1.37 1.29
6 -12 -11 1.88 1.51
-6 -12 11 2.37 1.41
-6 -12 11 -0.59 1.56
6 -12 -11 0.62 1.69
-6 12 11 1.35 1.62
-6 12 11 -0.59 1.55
6 12 -11 0.79 1.45
6 12 -11 2.15 1.28
5 -12 -11 0.61 0.84
5 -12 -11 -0.17 1.25
5 -12 -11 -1.24 1.64
-5 -12 11 -0.59 1.36
-5 -12 11 -0.09 1.1
-5 -12 11 -0.27 1.43
5 -12 -11 -0.03 1.41
-5 -12 11 -1.26 0.89
-5 12 11 -0.56 1.38
5 12 -11 0.68 1.63
-5 12 11 -0.48 1.39
5 12 -11 -0.29 0.88
-4 -12 11 1.95 1.06
-4 -12 11 1.99 1.42
-4 -12 11 0.81 0.68
-4 -12 11 -0.07 0.93
4 -12 -11 -0.99 1.31
4 -12 -11 3.37 1.27
4 -12 -11 3.28 1.7
-4 -12 11 0.01 1.36
4 -12 -11 1.66 0.84
4 12 -11 0.74 0.95
4 12 -11 1.42 1.51
-4 12 11 1.27 1.58
4 12 -11 2.82 1.42
-4 12 11 0.2 1.42
-4 12 11 0.85 1.31
3 -12 -11 1.53 1.3
3 -12 -11 0.58 1.55
-3 -12 11 1.19 1.51
3 -12 -11 2.37 1.34
3 -12 -11 0.24 0.84
-3 -12 11 0.21 0.82
-3 -12 11 -0.28 0.94
-3 -12 11 -1.59 0.9
-3 -12 11 2.14 1.35
3 12 -11 2.16 1.68
-3 12 11 1.03 1.05
3 12 -11 0.11 1.25
-3 12 11 0.92 1.41
3 12 -11 1.86 0.98
-3 12 11 -2.28 1.14
2 -12 -11 -1.08 1.27
-2 -12 11 0.49 1.27
2 -12 -11 -0.08 0.85
-2 -12 11 -0.01 0.88
2 -12 -11 -3.69 1.45
-2 -12 11 1.38 1.13
2 -12 -11 -0.4 1.23
-2 -12 11 -0.62 0.94
2 12 -11 -0.82 1.2
-2 12 11 -0.83 1.23
-2 12 11 0.66 1.34
2 12 -11 -0.29 1.68
2 12 -11 -1.61 0.91
-2 12 11 1.62 1.01
-1 -12 11 0.42 1.07
1 -12 -11 1.16 0.93
-1 -12 11 -0.43 0.94
-1 -12 11 0.06 0.87
-1 -12 11 3.44 1.24
1 -12 -11 1.01 1.25
1 -12 -11 2.76 1.23
1 -12 -11 0.73 1.52
1 12 -11 -0.37 1.06
-1 12 11 2.01 1
1 12 -11 2.21 1.88
1 12 -11 0.62 1.21
-1 12 11 -0.35 1.11
-1 12 11 1.26 1.47
0 -12 -11 1.07 1.23
0 -12 11 1.93 1.21
0 -12 11 -1.76 1.22
0 -12 -11 1.99 1.03
0 -12 -11 1.16 1.21
0 12 11 0.23 1.46
0 12 11 1.45 1.36
0 12 -11 -0.12 1.11
0 12 11 1.12 0.99
0 12 -11 -1.22 1.82
1 -12 11 0.91 1.12
1 -12 11 -1.9 1.26
1 -12 11 1.68 1.5
-1 -12 -11 1.3 1.14
-1 -12 -11 0.18 1.41
-1 12 -11 0.52 1.08
1 12 11 -0.73 1.33
-1 12 -11 0.44 1.93
-1 12 -11 1.73 1.24
1 12 11 0.9 1
1 12 11 -0.9 1.42
-3 -13 11 0.5 1.2
-3 -13 11 2.3 1.15
3 -13 -11 -0.43 1.57
3 -13 -11 1.75 1.51
3 -13 -11 0.71 1.02
-3 -13 11 0.8 1.56
-3 13 11 2.24 1.57
3 13 -11 0.23 1.74
3 13 -11 1.13 1.24
2 -13 -11 1.89 1.08
2 -13 -11 -0.72 1.42
-2 -13 11 3.82 1.52
-2 -13 11 2.69 1.22
2 -13 -11 -1.56 1.37
-2 -13 11 2.94 1.14
-2 13 11 1.32 1.17
2 13 -11 1.51 2.63
2 13 -11 1.06 1.54
2 13 -11 1.99 1.21
-2 13 11 0.87 1.5
1 -13 -11 0.85 1.37
1 -13 -11 0.76 1.12
-1 -13 11 0.21 1.34
-1 -13 11 -0.42 1.09
-1 -13 11 -1.43 1.19
1 -13 -11 0.3 1.46
-1 -13 11 0.66 1.45
1 13 -11 -1.42 1.17
-1 13 11 3.05 1.76
-1 13 11 0.03 1.13
-1 13 11 1.18 1.71
12 0 -12 -0.38 1.38
12 0 -12 -0.49 0.7
11 0 -12 -1.72 1.17
11 0 -12 -2.09 1
11 0 -12 0.1 0.52
11 0 -12 0 1.2
11 0 -12 1.28 1.15
10 0 -12 0.2 0.97
-10 0 12 -0.05 0.38
-10 0 12 1.11 0.98
10 0 -12 0.47 1.04
10 0 -12 0.28 0.41
-10 0 12 -0.59 0.84
10 0 -12 -0.56 0.69
10 0 -12 0.01 0.85
10 0 -12 -0.37 0.96
9 0 -12 0.62 0.76
9 0 -12 0.89 0.3
9 0 -12 1.72 0.94
-9 0 12 1.14 0.53
-9 0 12 0.99 0.85
9 0 -12 1.06 0.59
-9 0 12 2.12 0.85
9 0 -12 0.09 0.76
9 0 -12 1.53 0.86
-8 0 12 -0.66 0.7
-8 0 12 0.1 0.38
-8 0 12 -0.19 0.64
-8 0 12 -0.33 0.45
8 0 -12 1.73 0.54
8 0 -12 1.08 0.21
8 0 -12 -0.04 0.74
8 0 -12 0.71 0.7
-7 0 12 8.4 0.75
-7 0 12 8.99 0.88
7 0 -12 7.81 0.8
-7 0 12 7.42 0.81
-7 0 12 4.9 0.81
7 0 -12 7.34 1.52
7 0 -12 7 0.79
6 0 -12 3.96 0.67
6 0 -12 5.97 0.8
-6 0 12 4.8 0.6
-6 0 12 5.48 0.7
6 0 -12 5.59 0.91
-6 0 12 4.95 0.63
-6 0 12 5.42 0.68
6 0 -12 5.52 0.9
-6 0 12 7.05 0.78
-5 0 12 1.56 0.53
-5 0 12 2.86 0.58
5 0 -12 1.77 0.6
5 0 -12 1.87 0.51
-5 0 12 1.32 0.49
-5 0 12 1.67 0.47
5 0 -12 2.03 0.63
-5 0 12 1.96 0.56
5 0 -12 2.65 0.81
4 0 -12 -0.01 0.64
-4 0 12 0.65 0.46
-4 0 12 0.41 0.43
-4 0 12 0.12 0.44
-4 0 12 0.89 0.47
4 0 -12 0.23 0.54
4 0 -12 0.14 0.45
4 0 -12 -0.08 0.49
3 0 -12 0.63 0.49
3 0 -12 1.79 0.75
3 0 -12 0.73 0.55
3 0 -12 1.47 0.48
-3 0 12 1.67 0.62
-3 0 12 1.04 0.44
-3 0 12 1.76 0.48
2 0 -12 7.7 1.07
-2 0 12 6.33 0.85
-2 0 12 6.53 0.55
2 0 -12 7.55 0.96
2 0 -12 7.79 0.76
1 0 -12 0.79 0.76
-1 0 12 0.79 0.57
-1 0 12 1.02 0.58
1 0 -12 1.88 0.62
-1 0 12 1.98 0.41
-1 0 12 1.74 0.2
-1 0 12 1.91 0.57
1 0 -12 1.5 0.61
0 0 12 3.26 0.67
0 0 12 2.56 0.66
0 0 -12 2.09 0.61
0 0 12 2.79 0.33
0 0 12 2.88 0.41
0 0 -12 3.91 1.02
1 0 12 3.54 0.43
-1 0 -12 3.83 0.51
-1 0 -12 2.77 0.67
-1 0 -12 1.89 0.85
1 0 12 2.19 0.76
1 0 12 3.11 0.7
2 0 12 2.82 0.86
2 0 12 1.98 0.63
-2 0 -12 2.09 1.15
-2 0 -12 2.72 0.57
2 0 12 3.05 0.51
-2 0 -12 3.06 0.74
3 0 12 9.36 1.21
-3 0 -12 8.79 2.23
-3 0 -12 9.78 0.8
3 0 12 8.3 0.75
3 0 12 6.48 1.01
-3 0 -12 10.2 1.32
3 0 12 10.81 1.47
4 0 12 -0.06 0.98
4 0 12 0.68 0.76
4 0 12 -1.52 0.62
-4 0 -12 -0.03 1.25
-4 0 -12 -0.89 0.72
4 0 12 -0.3 0.68
-4 0 -12 0.35 0.65
5 0 12 1.74 0.9
-5 0 -12 1.26 0.87
5 0 12 1.25 0.79
-5 0 -12 -0.21 0.91
5 0 12 0.69 1.19
-5 0 -12 2.83 1.65
5 0 12 1.39 1.2
-6 0 -12 -1.2 1.72
6 0 12 -1.71 1.42
-6 0 -12 -0.17 1.03
-6 0 -12 0 1.08
-6 0 -12 0.77 1.07
6 0 12 -2.17 1.07
6 0 12 0.33 0.95
6 0 12 1.18 1.12
7 0 12 2.6 1.49
7 0 12 0.63 1.06
7 0 12 -0.65 1.35
-7 0 -12 3.94 1.34
-7 0 -12 1.6 1.31
-7 0 -12 -2.39 2.24
12 -1 -12 -0.47 0.76
12 -1 -12 1.22 1.48
12 1 -12 0.04 1.36
12 1 -12 0.5 1.33
12 1 -12 -1.07 0.74
11 -1 -12 -0.29 1.21
11 -1 -12 0.02 1.22
11 -1 -12 0.61 0.55
11 -1 -12 0.52 0.82
11 -1 -12 0.01 0.82
11 1 -12 1.12 1.22
11 1 -12 -0.46 1.16
11 1 -12 -0.17 0.52
-11 1 12 -0.21 1.2
11 1 -12 0.39 1.33
11 1 -12 2.63 1.09
10 -1 -12 0.34 0.79
10 -1 -12 0.37 0.4
-10 -1 12 -0.43 0.86
10 -1 -12 0.03 0.99
10 -1 -12 1.34 0.99
10 -1 -12 1.47 1.07
-10 1 12 0.49 0.97
10 1 -12 0.54 0.99
-10 1 12 0.08 0.51
10 1 -12 -0.18 0.6
10 1 -12 1.04 0.68
10 1 -12 2.23 0.95
10 1 -12 0.34 0.39
-10 1 12 0.02 0.41
10 1 -12 -0.92 0.98
-9 -1 12 1.54 0.8
-9 -1 12 1.26 0.83
9 -1 -12 2.07 0.83
9 -1 -12 0.87 0.82
-9 -1 12 0.06 0.36
9 -1 -12 0.84 0.89
9 -1 -12 2.7 0.94
9 -1 -12 2.64 0.66
9 -1 -12 1 0.3
9 1 -12 1.76 0.85
-9 1 12 0.09 0.44
-9 1 12 2.01 0.84
9 1 -12 2.07 0.84
-9 1 12 1.69 0.7
9 1 -12 1.38 0.3
-9 1 12 0.87 0.52
9 1 -12 1.03 0.75
9 1 -12 0.49 0.89
-9 1 12 2.18 0.84
-8 -1 12 13.22 1
8 -1 -12 13.76 1.05
-8 -1 12 12.65 0.88
8 -1 -12 12.89 1.08
-8 -1 12 10.41 0.89
8 -1 -12 10.33 1.11
8 -1 -12 13.72 1.03
8 -1 -12 11.23 0.42
-8 1 12 11.8 0.95
-8 1 12 9.26 0.95
-8 1 12 12.36 1.08
8 1 -12 9.8 1.25
8 1 -12 10.96 0.91
-8 1 12 11.96 0.99
8 1 -12 14.71 1.28
-7 -1 12 4.32 0.62
7 -1 -12 4.64 0.71
-7 -1 12 3.83 0.73
7 -1 -12 4.62 0.89
-7 -1 12 4.96 0.7
-7 -1 12 3.83 0.69
7 -1 -12 4.52 0.79
-7 1 12 4.23 0.6
7 1 -12 3.96 0.65
7 1 -12 5.55 0.87
-7 1 12 4.05 0.61
-7 1 12 3.76 0.69
7 1 -12 2.86 1.14
-6 -1 12 0.58 0.45
-6 -1 12 0.92 0.6
6 -1 -12 0.96 0.61
-6 -1 12 1.04 0.56
-6 -1 12 0.36 0.4
6 -1 -12 0.58 0.48
-6 -1 12 0.96 0.54
6 -1 -12 1.13 0.7
-6 1 12 1.56 0.6
-6 1 12 0.59 0.49
6 1 -12 1.59 0.7
6 1 -12 0.73 0.57
-6 1 12 1.67 0.48
6 1 -12 1.35 0.5
6 1 -12 0.81 0.63
-6 1 12 1.35 0.61
-6 1 12 0.34 0.46
-5 -1 12 0.53 0.39
5 -1 -12 0.45 0.62
-5 -1 12 0.79 0.53
5 -1 -12 0.47 0.72
-5 -1 12 0.13 0.45
5 -1 -12 0.29 0.44
5 -1 -12 0.24 0.51
-5 -1 12 0.94 0.53
5 1 -12 0.07 0.6
5 1 -12 0.73 0.47
-5 1 12 0.09 0.46
-5 1 12 0.93 0.55
5 1 -12 -0.06 0.57
5 1 -12 1.41 0.71
-5 1 12 1.12 0.55
-5 1 12 0.46 0.45
-5 1 12 0.42 0.44
-4 -1 12 0.54 0.47
4 -1 -12 0.77 0.6
-4 -1 12 1.62 0.52
-4 -1 12 0.87 0.44
4 -1 -12 0.41 0.71
-4 -1 12 0.41 0.44
4 -1 -12 0.65 0.49
-4 -1 12 0.83 0.5
-4 1 12 0.93 0.5
4 1 -12 0.45 0.55
4 1 -12 1.42 0.66
-4 1 12 0.53 0.53
-4 1 12 0.84 0.46
-4 1 12 1.07 0.48
4 1 -12 0.58 0.49
-4 1 12 1.43 0.48
4 1 -12 1.4 0.48
-3 -1 12 0.55 0.5
-3 -1 12 0 0.4
3 -1 -12 0.33 0.6
3 -1 -12 0.25 0.66
-3 -1 12 0.19 0.55
3 -1 -12 0.85 0.49
-3 -1 12 1.39 0.5
-3 -1 12 0.16 0.41
-3 1 12 -0.03 0.55
3 1 -12 0.48 0.46
3 1 -12 1.09 0.68
3 1 -12 0.11 0.48
-3 1 12 0.21 0.42
3 1 -12 0.12 0.55
-3 1 12 0.8 0.45
-2 -1 12 0.33 0.44
2 -1 -12 -0.16 0.69
-2 -1 12 0.02 0.4
-2 -1 12 -0.24 0.73
2 -1 -12 -0.36 0.54
2 -1 -12 -0.06 0.49
-2 1 12 -0.18 0.38
2 1 -12 0.05 0.68
-2 1 12 -0.01 0.58
2 1 -12 -0.08 0.56
2 1 -12 0.43 0.45
-2 1 12 0.14 0.44
2 1 -12 -0.3 0.4
-2 1 12 0.13 0.53
-1 -1 12 16.26 1.17
1 -1 -12 17.66 1.59
1 -1 -12 17.45 1.23
1 -1 -12 15.83 1.16
-1 -1 12 17.38 1.15
-1 -1 12 16.49 1.1
1 1 -12 16.82 1.15
-1 1 12 17.02 0.79
-1 1 12 16.49 1.13
-1 1 12 15.94 0.44
1 1 -12 17.38 0.85
1 1 -12 16.24 1.53
-1 1 12 18.14 1.39
0 -1 12 0.98 0.55
0 -1 -12 -0.13 0.59
0 -1 12 1.04 0.52
0 -1 -12 1.57 0.89
0 1 12 -0.14 0.5
0 1 -12 0.89 0.76
0 1 12 0.68 0.25
0 1 -12 0.28 0.49
0 1 12 0.6 0.55
0 1 12 0.61 0.38
-1 -1 -12 2.67 0.56
1 -1 12 3.51 0.74
-1 -1 -12 3.96 0.76
-1 -1 -12 4.39 1.1
-1 1 -12 2.85 0.7
-1 1 -12 3.09 0.5
1 1 12 4.2 0.41
-1 1 -12 2.71 1.07
1 1 12 2.99 0.74
1 1 12 3.39 0.42
-2 -1 -12 -0.47 0.93
2 -1 12 0.04 0.83
-2 -1 -12 0.52 0.54
2 -1 12 1.64 0.64
-2 -1 -12 0.13 0.62
-2 1 -12 0.54 0.5
-2 1 -12 1.26 0.61
2 1 12 0.85 0.67
2 1 12 -0.55 0.53
2 1 12 0.19 0.43
2 1 12 1.11 0.71
2 1 12 -0.12 0.3
3 -1 12 -0.95 0.54
-3 -1 -12 -0.63 0.74
-3 -1 -12 -0.53 0.59
3 -1 12 1.19 0.89
-3 1 -12 0 0.64
3 1 12 1.14 0.85
3 1 12 0.5 0.84
-3 1 -12 -0.53 0.96
3 1 12 1.29 0.66
-3 1 -12 0.03 0.56
3 1 12 0.46 0.52
4 -1 12 -0.09 0.65
-4 -1 -12 0.29 0.69
-4 -1 -12 -0.49 0.87
-4 -1 -12 -0.59 1.26
4 -1 12 0.05 0.98
4 1 12 1.43 0.7
4 1 12 0.49 0.69
-4 1 -12 0.99 1.31
4 1 12 -0.08 0.78
4 1 12 -0.47 0.89
-4 1 -12 -1.19 0.73
-4 1 -12 -0.06 0.7
-5 -1 -12 1.41 0.91
-5 -1 -12 -0.54 1.49
5 -1 12 0.12 0.69
5 -1 12 1.18 0.94
5 -1 12 0.22 1.26
-5 -1 -12 -0.36 0.87
-5 1 -12 -2.48 1.44
-5 1 -12 -1.06 0.83
-5 1 -12 0.9 0.9
5 1 12 -0.8 0.99
5 1 12 0.21 1.05
5 1 12 1.02 0.9
5 1 12 -1 0.79
-6 -1 -12 1.84 1.92
-6 -1 -12 3.03 1.17
-6 -1 -12 -0.76 1.04
6 -1 12 -2.37 1.39
-6 -1 -12 0.49 1.03
6 -1 12 1.3 1.13
6 -1 12 0.01 0.92
6 1 12 -3.45 1.36
-6 1 -12 1.83 1.02
-6 1 -12 0.97 1.09
-6 1 -12 0.1 1.05
6 1 12 -1.06 1.23
-6 1 -12 -0.73 1.86
6 1 12 0.74 0.84
6 1 12 0.86 1.07
-7 -1 -12 0.89 1.34
-7 -1 -12 0.91 1.23
-7 -1 -12 -0.2 2.26
7 -1 12 -0.44 1.42
7 -1 12 -1.01 1.44
7 -1 12 1.95 1.19
7 1 12 -1.18 1.03
-7 1 -12 3.09 2.36
-7 1 -12 2.55 1.35
-7 1 -12 0.59 1.32
7 1 12 -0.25 1.43
7 1 12 2.18 1.69
12 -2 -12 1.91 1.59
12 -2 -12 2.18 0.8
12 -2 -12 1.58 1.01
12 2 -12 -0.51 1.4
12 2 -12 1.43 0.75
-12 2 12 -0.22 1.54
12 2 -12 -0.25 1.25
11 -2 -12 0.09 1.59
11 -2 -12 -0.36 0.93
11 -2 -12 -0.22 0.93
11 -2 -12 0.35 1.25
11 -2 -12 -0.51 0.56
11 2 -12 -0.58 1.05
-11 2 12 -0.8 0.49
11 2 -12 -0.55 1.14
-11 2 12 1.74 1.23
11 2 -12 0.4 1.13
11 2 -12 -0.08 0.53
11 2 -12 -0.22 1.26
10 -2 -12 -0.17 0.66
10 -2 -12 1.18 0.99
10 -2 -12 0.7 0.89
-10 -2 12 -0.32 0.93
10 -2 -12 0.48 0.44
10 -2 -12 -0.86 1.06
10 2 -12 -1.21 0.9
-10 2 12 -0.29 0.68
-10 2 12 -0.43 0.76
10 2 -12 0.33 0.97
-10 2 12 -0.21 1.04
10 2 -12 -0.48 0.39
10 2 -12 0.11 0.83
10 2 -12 1.61 1.12
9 -2 -12 0.31 0.76
9 -2 -12 1.01 0.9
9 -2 -12 0.11 0.31
-9 -2 12 0.13 0.36
-9 -2 12 0.08 0.36
9 -2 -12 0.76 0.84
9 -2 -12 -0.24 0.63
-9 -2 12 0.44 0.84
9 2 -12 1.2 0.85
9 2 -12 0.1 0.87
9 2 -12 0.23 0.56
-9 2 12 -0.17 0.55
9 2 -12 -0.35 0.61
9 2 -12 0.78 0.8
-9 2 12 -0.58 0.84
9 2 -12 -0.08 0.27
-9 2 12 0.21 0.65
-8 -2 12 0.07 0.7
8 -2 -12 2.1 0.82
8 -2 -12 1.2 0.21
8 -2 -12 0.86 0.82
8 -2 -12 -0.2 0.62
-8 -2 12 2.14 0.7
8 -2 -12 1.85 0.7
-8 2 12 1.35 0.8
8 2 -12 0.79 0.72
-8 2 12 2.14 0.78
-8 2 12 0.67 0.51
8 2 -12 1 0.48
8 2 -12 1.4 0.68
8 2 -12 0.75 0.73
-8 2 12 1.5 0.6
7 -2 -12 2.08 0.84
-7 -2 12 2.47 0.55
7 -2 -12 2.68 0.68
7 -2 -12 1.55 0.72
-7 -2 12 1.73 0.66
-7 -2 12 2.07 0.66
-7 2 12 2.12 0.57
7 2 -12 1.58 0.74
-7 2 12 1.84 0.53
7 2 -12 2.69 0.71
-7 2 12 2.42 0.66
7 2 -12 2.11 0.73
7 2 -12 2.18 0.53
6 -2 -12 2.92 0.78
6 -2 -12 2.22 0.58
6 -2 -12 2.52 0.68
-6 -2 12 3.08 0.54
-6 -2 12 2.29 0.58
6 -2 -12 3.62 0.64
6 2 -12 3.67 0.62
6 2 -12 4.19 0.66
6 2 -12 3.5 0.81
-6 2 12 3.47 0.63
-6 2 12 2.67 0.53
-6 2 12 3.76 0.65
-6 2 12 3.38 0.64
5 -2 -12 1 0.57
-5 -2 12 2.27 0.6
5 -2 -12 1.07 0.75
-5 -2 12 1 0.55
-5 -2 12 1.81 0.57
-5 -2 12 1.67 0.46
5 2 -12 1.23 0.58
-5 2 12 2.42 0.55
-5 2 12 1.36 0.46
-5 2 12 2.56 0.61
5 2 -12 1.66 0.58
5 2 -12 1.49 0.73
-5 2 12 0.53 0.54
5 2 -12 1.02 0.46
-5 2 12 1.69 0.56
-4 -2 12 0.01 0.47
-4 -2 12 0.57 0.39
4 -2 -12 0.42 0.8
-4 -2 12 0.12 0.46
4 -2 -12 0.74 0.65
4 -2 -12 0.71 0.54
-4 -2 12 0.17 0.51
4 2 -12 -0.1 0.48
4 2 -12 0.69 0.68
-4 2 12 0.52 0.62
-4 2 12 0.56 0.43
4 2 -12 0.1 0.44
-4 2 12 0.14 0.47
4 2 -12 0.89 0.57
-4 2 12 0.83 0.46
-3 -2 12 0.01 0.48
-3 -2 12 -0.56 0.37
3 -2 -12 -0.01 0.57
3 -2 -12 0.1 0.46
3 -2 -12 -0.02 0.62
-3 -2 12 0.62 0.45
-3 -2 12 0.54 0.5
-3 2 12 0.47 0.44
3 2 -12 0.4 0.46
-3 2 12 0.51 0.45
3 2 -12 0.18 0.42
3 2 -12 0.15 0.54
3 2 -12 -0.29 0.66
-2 -2 12 2.46 0.54
2 -2 -12 2.51 0.64
-2 -2 12 2.2 0.58
2 -2 -12 2.76 0.87
-2 -2 12 1.89 0.55
2 -2 -12 2.91 0.65
-2 -2 12 2.4 0.24
2 2 -12 2.5 0.48
-2 2 12 2.71 0.65
-2 2 12 3.11 0.66
2 2 -12 1.81 0.59
2 2 -12 4.3 0.94
2 2 -12 2.97 0.56
-2 2 12 2.5 0.5
1 -2 -12 3.23 0.69
1 -2 -12 3.92 0.72
-1 -2 12 3.22 0.58
-1 -2 12 3.05 0.6
1 -2 -12 3.78 1
-1 -2 12 1.62 0.71
1 2 -12 2 0.57
-1 2 12 2.22 0.58
1 2 -12 1.47 0.72
-1 2 12 2.96 0.68
1 2 -12 3.57 0.49
-1 2 12 2.98 0.49
0 -2 -12 1.07 0.73
0 -2 12 0.78 0.51
0 -2 -12 -0.12 0.82
0 -2 12 0.65 0.65
0 -2 12 -0.09 0.54
0 2 -12 0.74 0.38
0 2 12 0.88 0.53
0 2 -12 0.7 1.22
0 2 -12 0.56 0.52
0 2 12 -0.02 0.64
0 2 -12 0.3 0.4
0 2 12 0.39 0.22
0 2 12 0.77 0.63
0 2 12 0.67 0.39
-1 -2 -12 0.08 0.52
1 -2 12 -0.55 0.73
1 -2 12 0.16 0.53
-1 -2 -12 -0.18 0.85
1 2 12 -0.13 0.61
1 2 12 -0.14 0.3
1 2 12 0.12 0.58
1 2 12 0.18 0.38
-1 2 -12 0.27 0.5
-1 2 -12 0.62 1.51
-1 2 -12 -0.71 0.41
1 2 12 -0.11 0.5
2 -2 12 0.72 0.81
-2 -2 -12 0.59 0.66
-2 -2 -12 0.21 0.54
-2 -2 -12 0.95 1.04
2 -2 12 0.65 0.48
-2 2 -12 0.21 0.47
2 2 12 0.91 0.78
2 2 12 -0.21 0.69
-2 2 -12 -0.19 0.56
2 2 12 0.11 0.4
2 2 12 0.47 0.54
2 2 12 0.16 0.33
-2 2 -12 2.31 1.15
3 -2 12 1.08 1.33
3 -2 12 1.59 0.69
-3 -2 -12 1.73 0.69
3 -2 12 1.22 0.79
-3 -2 -12 1.73 0.78
3 2 12 2.13 0.79
3 2 12 1.74 0.53
3 2 12 1.93 0.32
3 2 12 1.35 0.62
-3 2 -12 2.47 1.2
-3 2 -12 0.96 0.66
3 2 12 1.91 0.78
-4 -2 -12 0.01 0.75
4 -2 12 1.35 0.7
-4 -2 -12 0.21 0.76
4 -2 12 1.76 1.11
4 -2 12 0.58 0.98
-4 -2 -12 0.54 1.46
4 2 12 1.11 0.72
-4 2 -12 0.25 1.31
4 2 12 1.31 0.65
-4 2 -12 2.26 0.86
-4 2 -12 0.51 0.72
4 2 12 0.36 0.97
4 2 12 2.18 0.93
5 -2 12 -0.84 1.18
5 -2 12 0.4 0.8
-5 -2 -12 0.31 0.89
-5 -2 -12 0.09 1.59
-5 -2 -12 1.13 0.81
-5 -2 -12 1.51 0.94
5 -2 12 -1.24 1.13
-5 2 -12 0.41 0.86
-5 2 -12 -0.12 1.5
5 2 12 -1.96 1.07
5 2 12 -0.03 0.86
5 2 12 0.82 1.04
-5 2 -12 0.3 0.85
5 2 12 1.89 0.85
-6 -2 -12 -0.19 1.16
-6 -2 -12 -1.41 0.94
-6 -2 -12 -1.62 1.81
6 -2 12 3.23 1.06
6 -2 12 0.5 1.32
-6 -2 -12 -1.32 1.03
6 -2 12 0 1.61
-6 2 -12 2.81 1.41
6 2 12 -0.67 1.36
-6 2 -12 -0.96 1.14
-6 2 -12 0.93 1.97
6 2 12 -0.37 0.94
-6 2 -12 -0.71 1.03
6 2 12 -0.03 1.03
6 2 12 1.41 1.28
-7 -2 -12 0.57 1.19
-7 -2 -12 0.87 1.43
7 -2 12 0.1 1.85
-7 -2 -12 1.27 2.32
-7 2 -12 1.09 2.38
7 2 12 0.63 1.23
7 2 12 2.14 1.36
-7 2 -12 -0.58 1.4
-7 2 -12 0.06 1.3
7 2 12 -0.96 1.5
11 -3 -12 2.01 0.88
11 -3 -12 0.98 1.03
11 -3 -12 0.4 0.65
11 -3 -12 0.16 1.33
11 3 -12 -2.04 1.38
11 3 -12 0.15 0.65
-11 3 12 0.09 1.29
11 3 -12 -0.24 1.09
-11 3 12 0.14 0.79
-11 3 12 -0.65 0.63
11 3 -12 -0.84 1
-10 -3 12 -0.85 0.99
10 -3 -12 0.08 0.76
10 -3 -12 -0.28 1.02
10 -3 -12 0.1 0.47
10 -3 -12 0.03 1.06
10 -3 -12 -0.7 1.14
-10 3 12 -0.06 0.69
10 3 -12 0.65 1.12
10 3 -12 1.12 0.88
-10 3 12 -0.55 0.6
10 3 -12 1.39 0.91
10 3 -12 1.18 0.43
-10 3 12 0.28 1.06
10 3 -12 0.45 1.06
9 -3 -12 1.1 0.95
9 -3 -12 0.88 0.9
9 -3 -12 0.01 0.97
-9 -3 12 -0.71 0.83
9 -3 -12 0.44 0.35
9 -3 -12 -0.07 0.75
9 3 -12 -0.55 0.64
-9 3 12 0.72 0.59
9 3 -12 -0.55 0.81
-9 3 12 -0.06 0.6
9 3 -12 0.14 0.82
9 3 -12 0.2 0.54
9 3 -12 1.09 0.66
-9 3 12 1.11 0.93
-9 3 12 0.43 0.65
9 3 -12 0.35 0.97
8 -3 -12 0.33 0.73
8 -3 -12 0.11 0.23
-8 -3 12 0.85 0.71
8 -3 -12 2.04 0.86
8 -3 -12 0.15 0.63
8 -3 -12 0.96 0.84
-8 -3 12 1.9 0.74
-8 3 12 0.57 0.76
8 3 -12 0.67 0.46
-8 3 12 -0.32 0.55
-8 3 12 0.7 0.82
8 3 -12 0.44 0.77
-8 3 12 0.67 0.57
-8 3 12 0.7 0.65
8 3 -12 0.19 0.69
7 -3 -12 0.37 0.78
-7 -3 12 0.01 0.68
-7 -3 12 1.2 0.49
7 -3 -12 0.15 0.77
-7 -3 12 0.56 0.41
7 -3 -12 1.9 0.62
-7 -3 12 0.17 0.68
7 3 -12 0.33 0.66
-7 3 12 0.59 0.5
7 3 -12 -0.39 0.43
7 3 -12 0.85 0.64
-7 3 12 0.75 0.72
7 3 -12 0.79 0.66
-7 3 12 0.11 0.7
-7 3 12 0.14 0.53
6 -3 -12 5.1 0.65
6 -3 -12 4.28 0.98
-6 -3 12 4.07 0.71
-6 -3 12 5.41 0.67
-6 -3 12 4.19 0.59
6 -3 -12 4.83 0.78
-6 -3 12 4.71 0.65
6 -3 -12 5.48 0.78
-6 3 12 4.38 0.69
-6 3 12 4 0.73
-6 3 12 3.59 0.54
6 3 -12 4.8 0.67
6 3 -12 4.51 0.88
6 3 -12 5.38 0.72
-5 -3 12 0.87 0.52
5 -3 -12 0.82 0.69
-5 -3 12 1.05 0.48
5 -3 -12 0.27 0.72
-5 -3 12 0.93 0.57
5 -3 -12 1.03 0.6
-5 -3 12 0.31 0.43
-5 3 12 1 0.68
5 3 -12 0.54 0.6
-5 3 12 0.39 0.46
5 3 -12 0.97 0.69
-5 3 12 1.15 0.57
5 3 -12 0.83 0.49
5 3 -12 0.89 0.58
-5 3 12 0.36 0.44
4 -3 -12 0.32 0.65
-4 -3 12 1.02 0.22
4 -3 -12 1.31 0.61
4 -3 -12 1.02 0.92
-4 -3 12 1.32 0.56
-4 -3 12 1.26 0.47
-4 3 12 1.14 0.53
4 3 -12 1.21 0.56
4 3 -12 1.99 0.83
4 3 -12 1.54 0.6
4 3 -12 1.64 0.46
-4 3 12 1.76 0.6
3 -3 -12 -0.21 0.46
-3 -3 12 0.07 0.19
-3 -3 12 0.12 0.34
-3 -3 12 0.15 0.53
-3 -3 12 0.68 0.58
-3 -3 12 0.29 0.57
3 3 -12 0.37 0.6
3 3 -12 -0.71 0.83
-3 3 12 0.09 0.49
-3 3 12 0.71 0.46
3 3 -12 0.41 0.51
3 3 -12 0.49 0.43
2 -3 -12 0.17 0.52
-2 -3 12 0.22 0.43
2 -3 -12 -0.45 0.67
-2 -3 12 -0.25 0.59
2 -3 -12 -0.6 0.69
-2 3 12 0.43 0.46
-2 3 12 0.36 0.5
-2 3 12 0.26 0.55
2 3 -12 -0.71 0.43
2 3 -12 0.17 0.45
1 -3 -12 3.49 0.67
1 -3 -12 4.05 1
-1 -3 12 2.82 0.63
-1 -3 12 2.59 0.55
-1 3 12 3.57 0.67
-1 3 12 3.05 0.65
1 3 -12 3.21 0.67
-1 3 12 3.02 0.52
1 3 -12 2.95 0.49
-1 3 12 2.91 0.63
0 -3 12 1.5 0.49
0 -3 12 0.47 0.67
0 -3 -12 2.28 0.93
0 -3 -12 0.71 0.74
0 -3 -12 2.38 0.67
0 -3 12 1.45 0.74
0 3 -12 1.62 0.42
0 3 12 1.77 0.61
0 3 12 2.01 0.25
0 3 12 1.88 0.66
0 3 12 2.4 0.62
0 3 12 1.65 0.47
0 3 -12 1.82 0.38
0 3 -12 1.42 0.94
0 3 -12 2.08 0.63
1 -3 12 -0.17 0.52
-1 -3 -12 -0.05 0.94
-1 -3 -12 -0.7 0.45
1 -3 12 1 0.7
-1 3 -12 -0.47 0.88
-1 3 -12 -0.06 0.39
1 3 12 -0.04 0.62
1 3 12 0.56 0.42
1 3 12 -0.43 0.56
-1 3 -12 -0.33 0.36
1 3 12 0.03 0.29
-1 3 -12 -1.19 0.49
1 3 12 0.44 0.55
2 -3 12 0.35 0.63
-2 -3 -12 0.89 0.61
2 -3 12 0.08 0.8
2 -3 12 -0.64 0.72
-2 -3 -12 0.25 0.71
-2 -3 -12 1.06 1.15
2 3 12 -0.64 0.38
2 3 12 0.31 0.66
-2 3 -12 -0.28 0.6
2 3 12 -0.98 0.59
2 3 12 -0.03 0.39
-2 3 -12 0.18 0.47
-2 3 -12 -0.13 0.95
2 3 12 0.07 0.56
3 -3 12 0.27 0.93
3 -3 12 2.23 0.91
-3 -3 -12 0.46 0.71
3 -3 12 0.22 0.58
-3 -3 -12 0.21 0.66
3 3 12 0.74 0.5
3 3 12 -0.03 0.78
3 3 12 -0.03 0.37
-3 3 -12 0.69 1.29
3 3 12 -0.08 0.76
3 3 12 -0.02 0.65
-3 3 -12 0.21 0.65
-3 3 -12 -0.39 0.55
4 -3 12 -0.06 0.76
4 -3 12 1.85 1.15
4 -3 12 0.26 1.01
-4 -3 -12 0.21 0.77
-4 -3 -12 0.45 1.53
-4 3 -12 -1.38 0.73
4 3 12 0.52 0.88
4 3 12 -0.49 0.62
-4 3 -12 1.32 1.38
4 3 12 -0.33 0.93
4 3 12 0.49 0.3
-4 3 -12 0.69 0.69
4 3 12 0.52 0.68
-5 -3 -12 -2.11 0.87
-5 -3 -12 0.05 0.75
5 -3 12 1.05 1.14
5 -3 12 -0.81 1.22
-5 -3 -12 -0.18 0.94
-5 -3 -12 0.31 1.68
5 -3 12 -0.13 0.78
-5 3 -12 -0.45 1.65
5 3 12 0.89 0.85
5 3 12 0.35 1.19
-5 3 -12 -0.76 0.82
-5 3 -12 -0.43 0.92
5 3 12 0.36 1.11
5 3 12 0.53 0.81
-6 -3 -12 0.18 2.02
6 -3 12 -0.31 1.29
6 -3 12 1.91 0.95
-6 -3 -12 1.26 1.18
-6 -3 -12 0.85 0.9
-6 3 -12 -0.52 1.02
6 3 12 2.53 1.41
6 3 12 -0.74 0.95
-6 3 -12 -1.8 1.19
6 3 12 -0.86 1.07
-6 3 -12 1.43 2.01
11 -4 -12 0.64 1.41
11 -4 -12 1.17 0.72
11 -4 -12 2.3 1.03
11 -4 -12 1.22 1.23
-11 4 12 -0.53 0.75
11 4 -12 0.89 1.11
11 4 -12 1.39 1
11 4 -12 2.7 0.58
-11 4 12 -0.5 1.31
10 -4 -12 -0.53 1.15
10 -4 -12 1.23 0.53
10 -4 -12 2.53 0.89
10 -4 -12 -0.48 1.12
-10 -4 12 -0.63 1.07
10 -4 -12 0.96 1.1
10 4 -12 -1.03 0.89
-10 4 12 1.33 1.13
10 4 -12 1.73 1.19
10 4 -12 0.42 0.8
10 4 -12 0.58 1.12
-10 4 12 -0.23 0.76
-10 4 12 0.52 0.76
9 -4 -12 1.92 0.94
-9 -4 12 0.27 0.96
9 -4 -12 0.14 0.77
9 -4 -12 -0.28 0.97
9 -4 -12 1.01 0.41
-9 4 12 0.15 0.63
9 4 -12 1.41 0.85
9 4 -12 0.36 0.9
-9 4 12 0.48 0.72
9 4 -12 0.07 0.98
9 4 -12 0.14 0.66
9 4 -12 0.78 0.67
9 4 -12 0.18 0.47
-9 4 12 0.16 0.68
-9 4 12 0.01 0.94
-8 -4 12 -0.14 0.69
8 -4 -12 0.45 0.87
-8 -4 12 0.25 0.85
-8 -4 12 -0.28 0.38
8 -4 -12 0.34 0.29
8 -4 -12 -0.8 0.71
8 -4 -12 -0.68 0.69
8 4 -12 -0.1 0.73
-8 4 12 0.37 0.63
-8 4 12 0.28 0.54
8 4 -12 0.84 0.79
-8 4 12 -0.08 0.81
-8 4 12 1.58 0.62
8 4 -12 0.45 0.49
8 4 -12 0.13 0.55
8 4 -12 0.44 0.76
-8 4 12 -1.11 0.81
-7 -4 12 6.57 0.74
7 -4 -12 5.24 0.83
7 -4 -12 7.24 0.97
-7 -4 12 6.49 0.89
-7 -4 12 6.05 0.83
-7 4 12 5.58 0.8
7 4 -12 5.64 0.79
7 4 -12 5.8 0.73
-7 4 12 6.99 0.63
-7 4 12 7 0.85
7 4 -12 7.18 0.8
-7 4 12 5.33 0.87
-7 4 12 5.44 0.84
6 -4 -12 0.67 0.69
-6 -4 12 0.2 0.38
-6 -4 12 0.17 0.64
-6 -4 12 0.14 0.47
-6 -4 12 0.72 0.59
6 -4 -12 -0.39 0.57
6 -4 -12 0.24 0.58
-6 4 12 0.15 0.6
-6 4 12 0.51 0.69
-6 4 12 -0.05 0.46
6 4 -12 0.89 0.47
6 4 -12 -0.23 0.61
5 -4 -12 0.73 0.57
-5 -4 12 -0.42 0.53
5 -4 -12 0.62 0.84
5 -4 -12 -0.21 0.61
-5 -4 12 0.72 0.59
-5 -4 12 0.11 0.42
-5 -4 12 -0.12 0.3
5 4 -12 0.16 0.43
-5 4 12 0.1 0.46
-5 4 12 -0.13 0.55
-5 4 12 -0.02 0.58
5 4 -12 0.07 0.6
5 4 -12 0.38 0.77
5 4 -12 -0.2 0.57
-4 -4 12 4.67 0.68
-4 -4 12 4.09 0.35
4 -4 -12 5.41 1.04
-4 -4 12 3.89 0.65
4 -4 -12 4.41 0.58
4 -4 -12 3.95 0.78
4 -4 -12 3.91 0.74
-4 -4 12 4.42 0.62
-4 -4 12 3.81 0.71
4 4 -12 3.29 0.71
-4 4 12 4.5 0.78
-4 4 12 5.28 0.83
4 4 -12 4.63 0.65
4 4 -12 4.28 0.99
4 4 -12 3.79 0.68
-3 -4 12 1.86 0.54
3 -4 -12 1.07 0.58
-3 -4 12 1.11 0.55
-3 -4 12 2.23 0.29
3 -4 -12 1.05 0.67
3 -4 -12 2.24 0.89
-3 -4 12 1.76 0.69
-3 -4 12 2.51 0.62
-3 4 12 1.5 0.59
3 4 -12 2.48 0.55
-3 4 12 0.89 0.54
3 4 -12 2.24 0.53
-3 4 12 1.86 0.63
3 4 -12 1.76 0.61
3 4 -12 2.04 0.87
-2 -4 12 4.82 0.73
2 -4 -12 2.11 1.1
2 -4 -12 3.31 0.77
-2 -4 12 2.8 0.57
2 -4 -12 5.77 0.94
-2 -4 12 3.96 0.65
2 4 -12 3.62 0.64
-2 4 12 5.25 0.82
-2 4 12 3.57 0.58
-2 4 12 1.82 0.56
2 4 -12 4.11 1.03
-2 4 12 3.56 0.56
2 4 -12 4.2 0.57
-1 -4 12 0.48 0.55
-1 -4 12 0.71 0.58
-1 -4 12 1.19 0.53
1 -4 -12 1.93 0.69
-1 4 12 0.81 0.56
1 4 -12 0.16 0.81
1 4 -12 0.72 0.32
-1 4 12 0.44 0.58
-1 4 12 1.01 0.49
-1 4 12 1.66 0.67
1 4 -12 0.58 0.52
1 4 -12 1.12 0.47
0 -4 -12 0.77 0.62
0 -4 -12 1.68 0.76
0 -4 12 0.47 0.67
0 -4 12 2.41 0.59
0 -4 12 1.31 0.75
0 4 -12 1.59 0.44
0 4 12 0.99 0.66
0 4 12 0.93 0.66
0 4 12 1.55 0.7
0 4 -12 1.28 0.65
0 4 -12 1.23 0.37
0 4 -12 1.45 0.91
0 4 12 0.83 0.48
0 4 12 0.86 0.22
-1 -4 -12 5.94 0.98
1 -4 12 5.02 0.87
1 -4 12 4.59 0.94
-1 4 -12 5.86 0.51
1 4 12 4.9 0.74
1 4 12 6.63 0.99
-1 4 -12 6.41 0.52
1 4 12 5.91 0.53
1 4 12 6.53 0.59
-1 4 -12 4.8 0.83
-1 4 -12 4.98 1.26
1 4 12 6.26 0.88
-2 -4 -12 0.08 0.59
-2 -4 -12 0.67 0.69
2 -4 12 1.12 0.83
2 -4 12 -1.3 0.54
2 -4 12 -0.43 0.7
-2 4 -12 0.03 0.35
2 4 12 0.48 0.46
2 4 12 -0.53 0.73
2 4 12 0.44 0.38
2 4 12 0.46 0.74
-2 4 -12 -0.98 0.46
-2 4 -12 0.92 1.15
2 4 12 -0.62 0.61
-2 4 -12 -1.14 0.6
-3 -4 -12 -0.38 0.74
3 -4 12 -0.66 0.8
-3 -4 -12 0.32 0.78
3 -4 12 -0.14 0.94
3 -4 12 1.5 0.72
-3 -4 -12 0.23 1.32
-3 4 -12 0.26 0.57
3 4 12 0.78 0.48
3 4 12 -0.15 0.86
-3 4 -12 -0.07 0.72
3 4 12 1.52 0.91
3 4 12 0.15 0.46
3 4 12 0.43 0.71
-3 4 -12 0.5 1.35
4 -4 12 1.36 1.16
-4 -4 -12 0.83 0.89
-4 -4 -12 1.55 0.84
4 -4 12 1.85 0.77
-4 -4 -12 1.1 1.45
4 -4 12 0.7 1
-4 4 -12 0.94 0.7
-4 4 -12 1.51 0.87
4 4 12 2.97 0.89
4 4 12 3.36 1.15
4 4 12 2.17 1
-4 4 -12 2.91 1.54
4 4 12 3.01 0.68
4 4 12 3.2 0.45
-5 -4 -12 5.4 1.07
5 -4 12 5.91 1.42
-5 -4 -12 4.8 1.17
5 -4 12 4.58 0.99
5 -4 12 3.74 1.45
-5 -4 -12 5.26 1.89
5 4 12 6.05 1.22
5 4 12 3.74 1.21
-5 4 -12 4.66 1.1
5 4 12 4.88 1.07
-5 4 -12 5.34 2.03
-5 4 -12 3.87 0.91
5 4 12 5.08 0.88
-6 -4 -12 -3.01 1.93
6 -4 12 4.6 1.2
-6 -4 -12 2.23 1.31
-6 -4 -12 -0.63 0.85
6 -4 12 5.49 1.77
-6 4 -12 2.86 1.36
6 4 12 1.67 1.09
6 4 12 5.84 1.44
6 4 12 2.8 1.08
6 4 12 2.5 1.44
-6 4 -12 1.83 2.08
-6 4 -12 4.22 1.06
11 -5 -12 2.25 1.45
11 -5 -12 2.6 0.81
11 -5 -12 0.63 1.54
-11 5 12 3.14 1.42
-11 5 12 0.92 0.89
11 5 -12 2.92 1.07
11 5 -12 1.11 1.14
10 -5 -12 2.69 1.02
10 -5 -12 0.66 1.25
10 -5 -12 -0.12 0.59
10 -5 -12 1.64 0.83
10 -5 -12 -2.3 1.09
10 5 -12 -1.78 1.24
10 5 -12 -0.15 1.15
10 5 -12 0.87 0.79
10 5 -12 0.31 0.96
-10 5 12 -0.82 0.89
-10 5 12 -0.32 0.82
-10 5 12 2.08 1.16
-9 -5 12 1.29 1.02
9 -5 -12 0.05 0.94
9 -5 -12 0.35 1.07
9 -5 -12 -0.65 0.9
9 -5 -12 0.57 0.47
9 -5 -12 0.35 0.75
-9 5 12 -0.23 1.01
-9 5 12 0.83 0.76
9 5 -12 0.47 0.65
9 5 -12 -0.51 0.85
-9 5 12 -0.87 0.71
9 5 -12 -0.14 0.91
9 5 -12 0.79 0.89
9 5 -12 0.11 0.53
-9 5 12 0.13 0.6
8 -5 -12 0.58 0.78
8 -5 -12 1.85 0.8
8 -5 -12 0.99 0.94
-8 -5 12 1.02 0.83
8 -5 -12 2.3 0.87
-8 -5 12 0.52 0.89
-8 -5 12 0.47 0.43
-8 -5 12 1.65 0.49
-8 5 12 -0.35 0.69
-8 5 12 1.23 0.89
-8 5 12 0.36 0.69
8 5 -12 1.3 0.91
-8 5 12 0.55 0.93
8 5 -12 0.12 1.19
8 5 -12 0.95 0.55
8 5 -12 1.66 0.76
-8 5 12 -0.47 0.52
7 -5 -12 1.55 0.84
-7 -5 12 1.08 0.76
-7 -5 12 0.06 0.64
7 -5 -12 1.32 0.66
-7 -5 12 0.87 0.49
7 -5 -12 -0.12 0.79
-7 -5 12 0.07 0.4
7 -5 -12 1.23 0.8
7 -5 -12 0.69 0.2
-7 5 12 0.93 0.62
7 5 -12 0.71 0.69
-7 5 12 0.98 0.82
-7 5 12 -0.09 0.78
-7 5 12 1.47 0.7
7 5 -12 0.48 0.74
7 5 -12 0 0.46
-7 5 12 0.77 0.5
7 5 -12 -0.15 0.76
7 5 -12 1.3 0.47
-6 -5 12 2.63 0.61
-6 -5 12 1.8 0.72
6 -5 -12 2.77 0.76
6 -5 -12 2.7 0.88
-6 -5 12 2.63 0.47
6 -5 -12 2.08 0.75
6 -5 -12 2.93 0.67
-6 -5 12 3.87 0.69
-6 5 12 3.36 0.78
-6 5 12 3.68 0.82
6 5 -12 2.46 0.67
6 5 -12 3.7 0.92
6 5 -12 3.47 0.62
6 5 -12 2.95 0.75
-6 5 12 2.27 0.51
-6 5 12 1.99 0.56
5 -5 -12 3.11 0.74
-5 -5 12 3.27 0.43
5 -5 -12 3.14 0.77
-5 -5 12 3.2 0.63
-5 -5 12 2.08 0.65
-5 -5 12 3.13 0.63
-5 -5 12 2.39 1.16
5 -5 -12 3.57 0.73
-5 5 12 2.78 0.67
5 5 -12 4.6 0.97
-5 5 12 3.27 0.72
-5 5 12 2.37 0.51
5 5 -12 3.77 0.66
5 5 -12 3.31 0.64
4 -5 -12 2.13 0.74
-4 -5 12 1.41 0.34
-4 -5 12 2.11 0.54
4 -5 -12 1.78 0.71
-4 -5 12 1.73 0.64
-4 -5 12 1.47 0.59
4 -5 -12 2.27 0.55
4 5 -12 1.96 0.66
-4 5 12 1.62 0.69
-4 5 12 1.5 0.64
4 5 -12 1.82 0.65
4 5 -12 2.93 0.61
4 5 -12 1.15 0.8
-4 5 12 1.68 0.65
-3 -5 12 0.65 0.45
-3 -5 12 0 0.62
3 -5 -12 -0.33 0.72
3 -5 -12 0.27 0.48
3 -5 -12 0.26 0.67
-3 -5 12 0.75 0.59
3 -5 -12 0.62 0.91
-3 -5 12 0.26 0.3
3 5 -12 0.9 0.63
3 5 -12 0.25 0.44
-3 5 12 -0.78 0.56
3 5 -12 -0.17 0.72
-3 5 12 0.77 0.61
-3 5 12 0.13 0.6
-2 -5 12 0.97 0.59
2 -5 -12 0.93 0.69
2 -5 -12 0.11 0.88
-2 -5 12 1.39 0.51
-2 -5 12 0.89 0.62
2 5 -12 2.01 0.93
2 5 -12 1.23 0.55
-2 5 12 0.77 0.56
2 5 -12 1.67 0.3
2 5 -12 0.73 0.51
-2 5 12 1.39 0.59
-2 5 12 1.36 0.63
-2 5 12 2.06 0.6
-1 -5 12 3.44 0.7
-1 -5 12 3.26 0.73
1 -5 -12 1.44 0.87
1 -5 -12 3.02 0.77
1 -5 -12 2.17 0.75
-1 -5 12 2.01 0.61
-1 5 12 3.07 1.22
1 5 -12 2.54 0.54
-1 5 12 2.12 0.55
-1 5 12 1.97 0.67
-1 5 12 2.8 0.65
1 5 -12 2.97 0.35
1 5 -12 3.89 0.7
1 5 -12 2.33 0.93
0 -5 12 0.78 0.72
0 -5 -12 0.45 0.74
0 -5 12 -0.05 0.59
0 -5 12 1.06 0.75
0 -5 -12 0.92 1.05
0 -5 12 0.91 0.54
0 -5 -12 0.63 0.64
0 5 12 0.6 0.59
0 5 12 0.49 0.64
0 5 -12 0.39 0.47
0 5 12 0.21 0.53
0 5 -12 1.19 0.73
0 5 12 -0.21 0.56
0 5 -12 0.9 1.04
0 5 -12 0.25 0.33
-1 -5 -12 11.53 1.53
1 -5 12 9.03 0.85
1 -5 12 11.42 1.23
1 -5 12 9.16 1.18
-1 -5 -12 13.05 1.41
-1 5 -12 10.29 0.74
1 5 12 10.01 1.37
1 5 12 10.89 0.94
-1 5 -12 9.98 0.79
-1 5 -12 11.31 1.64
1 5 12 10.94 0.61
-1 5 -12 14.53 1.36
1 5 12 12.76 1.29
1 5 12 8.65 0.85
-2 -5 -12 1.66 0.73
2 -5 12 0.83 0.87
2 -5 12 0.96 0.73
-2 -5 -12 -0.81 1.05
2 -5 12 1.24 0.91
-2 -5 -12 0.99 0.86
2 5 12 0.58 0.72
2 5 12 1.25 0.78
-2 5 -12 0.42 0.47
2 5 12 0.64 0.4
2 5 12 0.23 0.52
-2 5 -12 -0.26 0.4
2 5 12 0.78 0.77
-2 5 -12 0.9 0.68
-2 5 -12 1.02 1.23
-3 -5 -12 1.25 1.29
-3 -5 -12 1.13 0.92
-3 -5 -12 1.21 0.8
3 -5 12 0.59 0.82
3 -5 12 -0.13 1.03
3 -5 12 -0.15 1.02
-3 5 -12 -0.08 1.37
3 5 12 1.29 0.54
3 5 12 0.1 0.53
3 5 12 0.9 0.86
-3 5 -12 -0.68 0.78
3 5 12 1.42 0.74
3 5 12 -0.79 0.77
-3 5 -12 1.29 0.59
-4 -5 -12 0.38 0.94
4 -5 12 -0.64 1.27
-4 -5 -12 0.34 0.58
4 -5 12 -0.13 1.14
4 -5 12 1.2 0.9
-4 -5 -12 -0.88 0.88
-4 -5 -12 1.24 1.54
4 5 12 1.53 0.99
4 5 12 -0.28 0.78
-4 5 -12 -1.36 1.5
4 5 12 1.2 0.93
4 5 12 -0.62 0.51
-5 -5 -12 -0.5 1.79
-5 -5 -12 0.2 0.68
-5 -5 -12 1.42 1.11
-5 -5 -12 1.32 1.14
5 -5 12 -1.33 1.3
5 -5 12 1.27 1.39
5 -5 12 2.7 0.95
5 5 12 -0.35 1.18
5 5 12 0.29 0.92
5 5 12 0.84 1.19
5 5 12 2.37 0.82
-5 5 -12 0.28 1.88
-5 5 -12 0.82 0.83
5 5 12 -0.11 0.49
-6 -5 -12 0.92 1.34
-6 -5 -12 0.11 0.86
6 -5 12 1.29 1.16
-6 -5 -12 -5.52 2.06
6 -5 12 -1.76 1.61
6 5 12 0.2 1.31
6 5 12 0.84 1.14
6 5 12 2.17 1.45
-6 5 -12 0.25 1.04
-6 5 -12 -0.76 1.39
6 5 12 -0.24 1.01
-6 5 -12 -0.76 2.24
10 -6 -12 -0.54 1.36
10 -6 -12 3.16 1.18
10 -6 -12 -0.24 0.87
10 -6 -12 -0.25 1.21
-10 6 12 0.03 1.03
10 6 -12 0.2 0.81
-10 6 12 -0.14 1.28
10 6 -12 -0.44 1.18
-10 6 12 0.71 1.04
9 -6 -12 0.85 0.86
9 -6 -12 -0.11 1
9 -6 -12 -1.87 1.24
9 -6 -12 -0.2 0.91
-9 -6 12 0.35 1.11
-9 6 12 0.55 0.8
9 6 -12 -0.2 1.03
9 6 -12 0.84 0.73
-9 6 12 -0.41 0.56
9 6 -12 0.46 1.01
9 6 -12 0.01 0.65
9 6 -12 0.06 0.56
-9 6 12 0.71 1.08
9 6 -12 -0.78 0.82
-9 6 12 -0.93 0.93
8 -6 -12 -0.93 0.82
8 -6 -12 1.27 0.75
-8 -6 12 -0.47 0.93
-8 -6 12 0.09 0.46
8 -6 -12 0.94 1.05
-8 -6 12 0.62 0.73
8 -6 -12 -0.74 0.86
8 6 -12 0.17 0.5
-8 6 12 0.08 0.97
-8 6 12 0.46 0.78
8 6 -12 0.41 0.74
-8 6 12 -0.15 0.98
8 6 -12 -0.36 0.87
-8 6 12 -0.57 0.68
8 6 -12 0.4 0.79
-8 6 12 -0.15 0.52
-7 -6 12 0.52 0.88
7 -6 -12 1 0.26
-7 -6 12 -0.21 0.56
-7 -6 12 0.11 0.61
-7 -6 12 0.35 0.46
7 -6 -12 -1.63 0.79
7 -6 -12 1.19 0.71
7 -6 -12 0.64 0.97
7 -6 -12 0.55 0.75
-7 6 12 0.33 0.89
-7 6 12 0.43 0.86
7 6 -12 0.53 0.69
-7 6 12 1.76 0.71
7 6 -12 0.88 0.44
7 6 -12 1.06 0.84
-7 6 12 0.77 0.5
7 6 -12 0.96 0.87
-7 6 12 0.91 0.77
7 6 -12 1.11 0.5
6 -6 -12 1.9 0.83
6 -6 -12 2.67 0.71
6 -6 -12 2.4 0.69
-6 -6 12 1.23 0.8
6 -6 -12 1.9 0.26
-6 -6 12 1.72 0.51
6 -6 -12 2.66 0.89
-6 -6 12 1.74 0.64
-6 6 12 2.15 0.79
6 6 -12 1.75 0.68
-6 6 12 2.62 0.69
6 6 -12 0.48 0.83
6 6 -12 2.5 0.58
6 6 -12 1.7 0.39
-6 6 12 1.77 0.85
-6 6 12 0.94 0.79
6 6 -12 2.18 0.79
-6 6 12 1 0.48
5 -6 -12 -0.02 0.22
-5 -6 12 0.19 0.42
-5 -6 12 -0.5 0.45
5 -6 -12 -0.42 0.78
5 -6 -12 1.04 0.75
5 -6 -12 -0.04 0.63
-5 -6 12 -0.02 0.57
-5 -6 12 0.07 0.67
5 6 -12 -0.22 0.47
-5 6 12 -0.29 0.65
5 6 -12 -0.48 0.81
-5 6 12 -0.42 0.67
-5 6 12 0.41 0.68
5 6 -12 0.22 0.81
5 6 -12 0.53 0.64
-4 -6 12 0.21 0.36
-4 -6 12 1.4 0.68
4 -6 -12 -0.23 0.59
4 -6 -12 0.57 0.23
4 -6 -12 0.47 0.54
4 -6 -12 0.98 0.74
-4 -6 12 0.78 0.61
-4 -6 12 0.68 0.51
4 -6 -12 1.27 0.73
-4 6 12 0.37 0.67
4 6 -12 0.69 0.53
-4 6 12 1.51 0.66
4 6 -12 0.66 0.82
-4 6 12 0.15 0.67
3 -6 -12 -0.18 0.72
-3 -6 12 -1.01 0.5
-3 -6 12 -0.39 0.64
3 -6 -12 -0.42 0.46
-3 -6 12 0.12 0.33
-3 -6 12 0.95 0.65
-3 6 12 -0.09 0.56
3 6 -12 1.21 0.58
3 6 -12 0.67 0.81
-3 6 12 0.19 0.62
3 6 -12 0.14 0.61
3 6 -12 0.16 0.23
-3 6 12 0.07 0.61
-3 6 12 0.57 0.6
-2 -6 12 1.49 0.69
2 -6 -12 1.07 0.47
-2 -6 12 2.64 0.64
-2 -6 12 1.17 0.35
2 -6 -12 0.13 0.86
2 -6 -12 1.38 0.74
-2 -6 12 1.98 0.8
2 -6 -12 1.69 0.76
2 6 -12 1.28 1
2 6 -12 2.7 0.62
-2 6 12 0.44 0.5
2 6 -12 1.79 0.6
2 6 -12 1.67 0.26
-2 6 12 2.49 0.61
1 -6 -12 0.06 0.7
1 -6 -12 -0.43 0.71
1 -6 -12 -0.3 0.98
-1 -6 12 0.59 0.57
1 -6 -12 -0.13 0.41
-1 -6 12 0.22 0.63
-1 -6 12 0.37 0.68
-1 6 12 0.56 0.73
-1 6 12 0.13 0.62
-1 6 12 -0.15 0.62
1 6 -12 -0.34 0.54
1 6 -12 0.04 0.28
1 6 -12 0.39 0.56
-1 6 12 0.29 0.59
1 6 -12 1.02 1
0 -6 -12 4.86 0.99
0 -6 12 4.42 1.01
0 -6 -12 1.73 1.09
0 -6 12 3.72 0.76
0 -6 12 5.37 0.92
0 -6 -12 3.51 0.84
0 6 12 5.82 0.99
0 6 -12 5.77 1.42
0 6 -12 4.11 0.61
0 6 -12 3.6 0.77
0 6 12 4.5 0.93
0 6 -12 3.48 0.38
0 6 12 2.77 0.68
0 6 12 4.05 0.68
1 -6 12 0.01 0.87
-1 -6 -12 -0.61 1.04
1 -6 12 -0.51 0.73
1 -6 12 0.32 0.69
-1 -6 -12 0.73 0.7
1 -6 12 0.58 0.67
-1 6 -12 -0.13 0.39
-1 6 -12 0.5 1.12
1 6 12 -0.77 0.59
1 6 12 0.31 0.71
1 6 12 0.42 0.7
1 6 12 -0.31 0.59
-1 6 -12 0.22 0.5
-1 6 -12 -1.44 0.59
-2 -6 -12 4.65 1.4
-2 -6 -12 4.82 0.81
-2 -6 -12 3.78 1.03
2 -6 12 3.16 1.07
2 -6 12 4.95 1.01
2 -6 12 5.47 1.27
2 -6 12 4.53 0.84
2 6 12 6.44 1.04
2 6 12 3.59 0.66
2 6 12 4.93 0.9
-2 6 -12 6.29 1.06
-2 6 -12 4.3 0.55
2 6 12 4.72 1
-2 6 -12 4.44 1.5
2 6 12 4.55 0.52
-3 -6 -12 1.96 1.45
3 -6 12 3.97 1.24
-3 -6 -12 1.74 0.91
-3 -6 -12 -0.31 0.46
3 -6 12 1.45 1.01
3 -6 12 1.56 0.91
-3 -6 -12 -0.54 0.96
-3 6 -12 1.7 0.83
-3 6 -12 2.84 0.6
3 6 12 1.68 1
-3 6 -12 3.37 1.49
3 6 12 -0.45 0.86
3 6 12 3.4 0.94
-3 6 -12 0 0.4
3 6 12 2.83 0.67
3 6 12 2.51 0.58
-4 -6 -12 -0.51 1.13
4 -6 12 -0.01 0.93
-4 -6 -12 -0.44 1.65
-4 -6 -12 0.11 0.51
4 -6 12 0.7 1.33
4 -6 12 1.04 1.16
-4 -6 -12 0.8 0.96
4 6 12 0.02 0.65
4 6 12 -0.48 0.77
4 6 12 1.31 0.97
4 6 12 0.83 1.08
-4 6 -12 0.14 0.7
-4 6 -12 0.36 1.71
4 6 12 -2.27 0.87
-4 6 -12 0.6 0.95
-5 -6 -12 3.85 2.1
-5 -6 -12 -0.23 0.63
5 -6 12 1.73 2.23
5 -6 12 2.85 1.2
5 -6 12 0.16 1.55
-5 -6 -12 2.84 1.2
-5 6 -12 1.34 1.91
5 6 12 2.81 0.67
-5 6 -12 4.16 0.92
5 6 12 3.72 1.28
5 6 12 0.53 1.26
5 6 12 3.4 0.92
-5 6 -12 3.13 2.02
5 6 12 2.49 1.11
-6 -6 -12 3.13 2.37
6 -6 12 -0.93 1.75
-6 6 -12 0.42 1.51
6 6 12 1.52 1.28
6 6 12 2.76 1.46
6 6 12 0.99 1.09
6 6 12 2.76 2.07
-6 6 -12 -1.92 2.29
10 -7 -12 3.63 1.47
10 -7 -12 0.76 1.55
10 -7 -12 0.12 1.04
10 -7 -12 -1.51 1.26
10 7 -12 1.76 1.01
10 7 -12 0.23 0.81
10 7 -12 -0.78 1.22
-10 7 12 -0.46 1.21
-10 7 12 0.34 1.43
-10 7 12 0.73 1.18
9 -7 -12 -1.78 1.29
9 -7 -12 -2.22 1.05
9 -7 -12 1.82 0.93
-9 -7 12 -0.14 1.28
9 -7 -12 0.41 1.1
9 7 -12 0.62 0.6
9 7 -12 -2.11 1.11
9 7 -12 -1.15 0.62
-9 7 12 -0.88 1.25
-9 7 12 1.25 0.95
-9 7 12 1.19 1.1
9 7 -12 -0.51 0.73
9 7 -12 0.06 0.85
9 7 -12 1.11 1.09
8 -7 -12 -0.16 0.78
8 -7 -12 -0.18 1.14
-8 -7 12 -0.09 1.06
8 -7 -12 0.76 0.93
-8 -7 12 0.65 0.74
8 -7 -12 1.99 1.03
-8 -7 12 0.47 0.49
8 7 -12 -0.07 0.64
-8 7 12 -0.56 0.9
-8 7 12 -0.36 0.49
8 7 -12 0.06 0.82
8 7 -12 1.42 0.78
8 7 -12 1.71 1.06
-8 7 12 1.18 0.98
8 7 -12 0.58 0.52
-8 7 12 0.34 0.97
-7 -7 12 -0.47 0.64
7 -7 -12 -0.63 0.83
-7 -7 12 -0.26 0.64
-7 -7 12 -0.4 0.96
7 -7 -12 -0.63 0.7
7 -7 -12 0.49 1.03
7 -7 -12 -1.26 0.93
7 -7 -12 0.16 0.33
-7 7 12 0.46 0.91
-7 7 12 -1.23 0.91
7 7 -12 -0.51 0.5
7 7 -12 -0.19 0.7
7 7 -12 0.13 0.4
-7 7 12 0.77 0.49
7 7 -12 -0.61 0.85
-7 7 12 1.3 0.71
-7 7 12 0.97 0.9
7 7 -12 0.63 0.9
-6 -7 12 -0.46 0.5
6 -7 -12 -0.37 0.8
-6 -7 12 -0.84 0.73
-6 -7 12 0.47 0.63
6 -7 -12 0.04 0.91
-6 -7 12 0.37 0.89
6 -7 -12 0.23 0.77
6 -7 -12 0.35 0.95
6 -7 -12 0.27 0.3
-6 -7 12 0.32 0.57
-6 7 12 -0.54 0.76
-6 7 12 -0.5 0.47
6 7 -12 0.4 0.32
6 7 -12 0.43 0.51
6 7 -12 -0.55 0.89
-6 7 12 0.67 0.72
-6 7 12 -0.26 0.86
6 7 -12 0.42 0.83
-6 7 12 0.36 0.8
-5 -7 12 -0.63 0.7
5 -7 -12 -1.16 0.8
5 -7 -12 -0.37 0.29
-5 -7 12 1.01 0.63
-5 -7 12 -1.03 0.72
5 -7 -12 1.04 0.67
-5 -7 12 1.15 0.59
5 -7 -12 0.28 1.03
-5 -7 12 -0.72 0.46
-5 7 12 0.5 0.53
5 7 -12 -0.02 0.73
5 7 -12 0.97 0.88
-5 7 12 -0.19 0.74
-5 7 12 0.58 0.81
5 7 -12 0.11 0.23
-5 7 12 -1.46 0.75
5 7 -12 -1.05 0.52
-4 -7 12 3.11 0.68
-4 -7 12 4.12 0.83
4 -7 -12 5.13 0.92
-4 -7 12 3.18 0.66
4 -7 -12 3.4 0.98
4 -7 -12 2.85 0.62
-4 -7 12 3.73 0.52
-4 -7 12 3.81 0.9
4 -7 -12 2.67 0.35
4 -7 -12 4.94 0.85
4 7 -12 3.24 0.68
-4 7 12 3.72 0.73
-4 7 12 1.59 0.77
4 7 -12 3.01 0.99
-4 7 12 3.58 0.94
-4 7 12 3.49 0.8
3 -7 -12 1.11 0.75
3 -7 -12 -0.02 0.82
3 -7 -12 1.22 0.35
-3 -7 12 1.26 0.42
-3 -7 12 2.28 0.72
-3 -7 12 0.5 0.56
3 -7 -12 0.89 0.83
-3 -7 12 1.81 0.73
3 -7 -12 1.02 0.52
-3 -7 12 1.21 0.67
-3 7 12 0.54 0.71
3 7 -12 0.78 0.62
3 7 -12 1.27 0.74
-3 7 12 0.81 0.71
-3 7 12 1.56 0.9
-3 7 12 1.65 0.73
3 7 -12 0.93 0.98
2 -7 -12 3.15 0.93
-2 -7 12 0.65 1.04
2 -7 -12 1.61 0.81
2 -7 -12 1.82 0.49
-2 -7 12 1.29 0.63
-2 -7 12 2.46 1.4
2 -7 -12 1.74 0.68
-2 -7 12 1.02 0.41
-2 -7 12 1.44 0.76
2 7 -12 2.01 0.65
-2 7 12 0.42 0.7
-2 7 12 1.38 0.52
-2 7 12 1.35 0.65
-2 7 12 0.96 0.78
2 7 -12 3.16 1.19
2 7 -12 0.91 0.68
-1 -7 12 3.04 0.79
-1 -7 12 3.19 0.8
1 -7 -12 2.55 1.21
1 -7 -12 1.16 0.45
1 -7 -12 3.51 0.95
1 -7 -12 1.98 0.84
-1 -7 12 2.55 0.7
-1 7 12 2.36 0.73
1 7 -12 2.33 0.66
1 7 -12 1.48 1.04
-1 7 12 1.69 0.72
-1 7 12 2.29 0.64
1 7 -12 1.62 0.86
1 7 -12 2.23 0.25
-1 7 12 1.35 0.78
0 -7 12 1.39 0.78
0 -7 -12 1.24 1.22
0 -7 12 1.12 0.79
0 -7 -12 0.05 0.39
0 -7 -12 -0.69 0.84
0 -7 12 0.06 0.97
0 -7 -12 2.09 0.89
0 7 -12 1.82 1.26
0 7 -12 1.08 0.72
0 7 12 1.24 0.79
0 7 12 0.77 0.72
0 7 -12 0.79 0.61
0 7 12 1.26 0.76
0 7 -12 1.36 0.32
1 -7 12 3.58 1.18
-1 -7 -12 2.62 1.36
-1 -7 -12 1.83 0.9
1 -7 12 1.05 0.93
1 -7 12 2.76 0.79
1 -7 12 3.25 0.84
1 7 12 2.21 0.76
-1 7 -12 2.17 0.41
1 7 12 2.35 0.73
-1 7 -12 2.86 0.83
1 7 12 3.66 0.98
-1 7 -12 3.63 1.49
-1 7 -12 2.29 0.63
1 7 12 2.54 0.97
2 -7 12 4.3 1.2
2 -7 12 5.7 1.33
-2 -7 -12 5.4 1.2
2 -7 12 5.03 1.13
-2 -7 -12 4.34 1.49
-2 -7 -12 4.46 0.94
2 -7 12 4.84 0.89
-2 7 -12 7.24 1.81
-2 7 -12 5.98 0.54
2 7 12 5.08 0.8
2 7 12 5.75 1.12
2 7 12 4.46 0.85
2 7 12 3.97 0.8
2 7 12 4.62 0.56
-2 7 -12 3.97 1.01
3 -7 12 1.74 1.21
-3 -7 -12 -0.52 1.51
-3 -7 -12 0.17 0.37
-3 -7 -12 0.23 0.91
3 -7 12 1.09 1.29
3 -7 12 0.5 0.92
-3 -7 -12 1.59 1.05
3 -7 12 0.59 0.9
3 7 12 -0.21 0.9
3 7 12 -0.51 0.73
-3 7 -12 -0.48 0.48
3 7 12 -0.05 0.55
-3 7 -12 1.59 1.07
3 7 12 2.42 0.96
3 7 12 0.9 0.9
-3 7 -12 0.37 1.53
-4 -7 -12 -1.01 1.13
4 -7 12 -0.02 1.31
-4 -7 -12 0.23 0.41
4 -7 12 -0.54 1.39
-4 -7 -12 -0.55 1.03
4 -7 12 0.22 1.04
-4 -7 -12 0.06 1.76
4 -7 12 1.35 1.05
4 7 12 0.22 0.79
4 7 12 0.62 0.97
4 7 12 -0.51 0.71
4 7 12 -1.17 1.04
4 7 12 0.66 1.05
-4 7 -12 0.22 1.06
-4 7 -12 -0.64 1.85
5 -7 12 -1.47 1.1
-5 -7 -12 2.04 1.34
5 -7 12 -2.28 1.16
5 -7 12 1.3 1.57
-5 -7 -12 2.08 2.12
5 7 12 0.54 0.9
5 7 12 -0.36 0.81
-5 7 -12 2.1 2.29
5 7 12 1.49 1.3
5 7 12 -1.01 1.06
5 7 12 2.42 1.24
9 -8 -12 -0.79 1.19
9 -8 -12 0.05 1.42
9 -8 -12 -1.59 1.44
9 -8 -12 -1.03 1.02
9 8 -12 0.01 0.62
9 8 -12 0 0.82
9 8 -12 -0.84 0.59
-9 8 12 0.54 1.64
-9 8 12 0.75 1.27
-9 8 12 -2.03 1.28
9 8 -12 0.53 0.89
8 -8 -12 0.44 1.07
8 -8 -12 -0.13 1.26
8 -8 -12 -0.39 0.93
-8 -8 12 0.09 0.56
-8 -8 12 -0.42 1.17
-8 -8 12 0.86 0.92
8 -8 -12 1.79 1.41
-8 -8 12 0.34 0.63
-8 8 12 0.11 0.45
8 8 -12 -1.04 1.08
-8 8 12 -0.43 1.11
8 8 -12 -0.28 0.46
-8 8 12 1.03 1.16
8 8 -12 0.98 0.94
-8 8 12 0.29 0.96
8 8 -12 0.05 0.6
7 -8 -12 -1.73 1.36
7 -8 -12 0.7 0.89
7 -8 -12 0.14 0.4
-7 -8 12 -1.06 1.06
-7 -8 12 -0.23 0.75
-7 -8 12 -0.28 0.67
7 -8 -12 -0.36 0.88
7 -8 -12 -0.08 1.14
-7 -8 12 0.13 0.87
-7 -8 12 -0.95 0.54
7 8 -12 -0.66 0.31
7 8 -12 -0.11 0.94
7 8 -12 0.43 0.96
7 8 -12 0.2 0.54
-7 8 12 1.02 1.09
-7 8 12 0.2 0.97
-7 8 12 -0.39 0.99
-7 8 12 0.18 0.48
-7 8 12 -0.06 0.75
6 -8 -12 1.06 1.02
6 -8 -12 0.12 0.38
-6 -8 12 0.48 0.67
-6 -8 12 -0.27 0.81
-6 -8 12 0.34 0.92
-6 -8 12 0.1 0.63
6 -8 -12 -0.77 0.8
6 -8 -12 -0.12 1.04
-6 8 12 0.45 0.99
-6 8 12 -0.55 0.68
6 8 -12 -1.45 0.54
-6 8 12 0.64 0.93
-6 8 12 -0.82 0.93
-6 8 12 0.11 0.5
6 8 -12 0.18 1
6 8 -12 0.18 0.91
5 -8 -12 2.93 0.79
-5 -8 12 2 0.9
-5 -8 12 2.11 0.67
-5 -8 12 3.02 0.63
5 -8 -12 2.41 0.41
-5 -8 12 2.96 0.96
5 -8 -12 2.24 0.83
5 -8 -12 1.92 1
5 -8 -12 2.11 0.96
-5 -8 12 0.67 0.61
-5 8 12 3.09 0.87
-5 8 12 1.97 1.3
5 8 -12 2.25 1.08
5 8 -12 3.34 0.69
-5 8 12 3.56 0.85
5 8 -12 1.47 0.88
-5 8 12 3.15 0.93
-4 -8 12 1.5 0.54
4 -8 -12 1.92 0.95
4 -8 -12 1.41 0.92
4 -8 -12 1.13 0.82
-4 -8 12 1.89 0.85
4 -8 -12 1.66 0.41
-4 -8 12 0.23 0.63
4 -8 -12 0.55 0.59
-4 -8 12 0.67 0.67
-4 -8 12 1.88 0.9
-4 8 12 0.94 0.81
-4 8 12 -0.07 0.74
4 8 -12 1.15 0.85
-4 8 12 0.57 0.83
4 8 -12 1.79 1.1
-4 8 12 1.28 0.88
4 8 -12 0.51 0.65
3 -8 -12 8.03 1.35
-3 -8 12 7.14 1.14
3 -8 -12 7.12 0.67
-3 -8 12 6.26 0.93
-3 -8 12 9.86 1.19
-3 -8 12 8.87 0.86
3 -8 -12 7.14 0.71
3 -8 -12 7.63 1.02
-3 -8 12 8.59 0.85
3 -8 -12 9.49 1.24
-3 8 12 7.97 1.19
-3 8 12 8.3 0.92
-3 8 12 8.91 1
3 8 -12 6.88 0.94
-3 8 12 8.96 1.28
3 8 -12 8.17 1.46
3 8 -12 5.69 1.42
-2 -8 12 10.39 1.01
-2 -8 12 7.56 1.14
2 -8 -12 8.22 1.27
2 -8 -12 7.62 0.99
-2 -8 12 9.93 1.29
-2 -8 12 8.72 0.67
2 -8 -12 8.09 0.79
2 -8 -12 9.26 1.25
2 8 -12 8.94 1.2
-2 8 12 9.74 0.99
2 8 -12 8.86 1.35
-2 8 12 10.42 1.33
2 8 -12 7.82 1.01
-2 8 12 6.73 1.11
-2 8 12 8.55 0.94
1 -8 -12 1.14 0.89
-1 -8 12 0.44 0.8
-1 -8 12 -0.02 0.72
-1 -8 12 0.39 0.8
1 -8 -12 0.34 0.43
1 -8 -12 -1.8 0.89
-1 -8 12 -0.24 0.85
1 8 -12 -0.88 0.68
1 8 -12 0.74 1.08
-1 8 12 0.85 0.78
1 8 -12 -0.32 0.66
-1 8 12 0.15 0.68
-1 8 12 1.24 0.93
-1 8 12 -0.92 0.7
0 -8 12 2.19 0.74
0 -8 12 0.19 0.82
0 -8 -12 1.23 0.98
0 -8 -12 1.13 1.22
0 -8 -12 0.44 0.37
0 -8 -12 1.94 0.95
0 -8 12 0.42 0.94
0 8 -12 0.97 0.7
0 8 12 2.75 0.77
0 8 12 1.56 0.79
0 8 12 1.29 0.82
0 8 12 0.44 0.95
0 8 -12 2.12 1.35
0 8 -12 0.77 0.74
1 -8 12 -0.21 1.02
-1 -8 -12 1.61 1.11
1 -8 12 -0.12 0.81
-1 -8 -12 0.37 0.31
1 -8 12 0.16 0.94
-1 -8 -12 1.31 1.27
1 -8 12 0.77 0.85
-1 8 -12 0.5 0.78
1 8 12 0.72 0.89
-1 8 -12 0.99 0.67
1 8 12 -0.41 0.78
1 8 12 -0.31 0.85
-1 8 -12 1.25 1.5
1 8 12 0.18 0.79
2 -8 12 -1.19 0.92
2 -8 12 -0.6 1.2
-2 -8 -12 1.23 1.11
-2 -8 -12 -2.09 1.45
2 -8 12 -0.45 0.91
2 -8 12 -0.95 1.06
-2 -8 -12 0.67 0.98
2 8 12 -0.18 0.82
2 8 12 0.76 1
-2 8 -12 -0.1 0.66
-2 8 -12 -0.91 1.34
2 8 12 0.57 0.78
2 8 12 1.44 0.89
-2 8 -12 0.92 0.96
3 -8 12 3.54 1.44
3 -8 12 -1.31 1.4
-3 -8 -12 -0.14 1.09
-3 -8 -12 1.35 1.72
-3 -8 -12 0.58 1.13
3 -8 12 -0.08 0.92
3 -8 12 -0.71 0.97
3 8 12 -0.09 0.81
-3 8 -12 2.68 1.85
3 8 12 -0.22 1.08
-3 8 -12 0.69 0.62
-3 8 -12 -0.52 1.02
3 8 12 -0.82 1.01
3 8 12 0.2 1
3 8 12 0.85 0.72
-4 -8 -12 -1.32 1.27
4 -8 12 1.84 1.49
-4 -8 -12 -1.59 1.99
4 -8 12 0.37 1.13
4 -8 12 -0.95 1.69
4 -8 12 0.86 1.2
4 8 12 1.56 0.81
-4 8 -12 -3.21 1.58
4 8 12 -0.78 1.15
-4 8 -12 -0.03 0.54
-4 8 -12 1.32 2.05
4 8 12 -0.28 0.95
4 8 12 0.88 1.16
4 8 12 0.23 1.21
9 -9 -12 0.59 1.27
9 -9 -12 -1.7 1.73
9 -9 -12 3.45 1.51
9 -9 -12 -0.02 1.32
-9 9 12 2.21 1.6
-9 9 12 0.03 1.63
9 9 -12 -0.55 0.96
8 -9 -12 0.5 1.09
-8 -9 12 0 0.65
8 -9 -12 -1.38 1.23
-8 -9 12 -0.89 1.36
8 -9 -12 -0.45 1.42
-8 -9 12 0.51 1.02
8 -9 -12 2.19 1.14
8 9 -12 -0.89 0.64
8 9 -12 1 1.02
-8 9 12 0.02 1.19
7 -9 -12 -0.45 0.93
-7 -9 12 -0.64 0.63
-7 -9 12 1.4 1.27
7 -9 -12 0.45 0.49
-7 -9 12 0.68 0.98
7 -9 -12 0.92 1.07
-7 -9 12 -0.55 0.69
7 -9 -12 0.05 1.24
-7 -9 12 -0.45 0.88
7 -9 -12 2.27 1.35
7 9 -12 -0.35 1.13
-7 9 12 1.33 1.25
-7 9 12 -0.17 0.48
7 9 -12 1.04 0.72
7 9 -12 1.1 1.13
-7 9 12 1.37 1.01
-7 9 12 -0.19 1.06
6 -9 -12 -0.85 1.15
6 -9 -12 -0.23 1.11
6 -9 -12 0.41 0.47
-6 -9 12 -1.06 1.17
6 -9 -12 -0.92 0.87
-6 -9 12 -0.39 0.79
-6 -9 12 -0.02 0.65
-6 -9 12 0.57 0.61
-6 -9 12 -0.34 0.89
-6 9 12 -0.37 0.52
-6 9 12 -0.2 1.01
6 9 -12 1.82 0.68
-6 9 12 1.51 0.96
-6 9 12 1.5 0.96
-6 9 12 0.86 1.06
6 9 -12 -0.24 1.14
6 9 -12 -1 1.06
-5 -9 12 0.58 0.68
5 -9 -12 0.19 0.47
5 -9 -12 0.63 1.05
-5 -9 12 -0.24 0.94
5 -9 -12 -0.73 0.85
-5 -9 12 2.22 0.69
5 -9 -12 1.77 0.77
5 -9 -12 -1.45 1.07
-5 -9 12 1.65 1.02
-5 9 12 0.8 0.92
5 9 -12 0.8 0.74
5 9 -12 0.71 1.13
-5 9 12 -1.17 0.92
5 9 -12 0.76 1
-5 9 12 -0.01 1.02
-5 9 12 -0.28 0.94
-4 -9 12 -1 0.69
-4 -9 12 -0.26 0.93
4 -9 -12 0.5 0.63
-4 -9 12 -0.95 0.65
4 -9 -12 0.53 0.47
4 -9 -12 0.52 0.94
4 -9 -12 1.18 1.19
-4 -9 12 0.51 0.71
4 -9 -12 1.09 1.03
-4 -9 12 1.43 1
-4 9 12 1.53 0.76
-4 9 12 2.74 0.94
4 9 -12 1.67 1.21
4 9 -12 1.1 0.91
-4 9 12 1.21 1.06
-4 9 12 0.44 0.89
4 9 -12 -0.08 0.64
-3 -9 12 -0.15 0.93
-3 -9 12 0.82 0.81
-3 -9 12 -0.26 0.85
3 -9 -12 0.85 0.81
3 -9 -12 -1.25 1.14
3 -9 -12 0.44 1.04
3 -9 -12 -0.45 0.52
-3 -9 12 0.88 0.74
3 -9 -12 0.14 0.48
-3 9 12 0.12 0.92
3 9 -12 0.81 1.16
3 9 -12 0.07 0.85
-3 9 12 -0.69 0.8
-3 9 12 -0.56 0.94
-3 9 12 -0.51 0.83
3 9 -12 -0.56 0.72
-2 -9 12 0.07 0.93
2 -9 -12 0.96 0.56
-2 -9 12 0.06 0.87
-2 -9 12 -0.88 0.75
-2 -9 12 0.27 0.65
2 -9 -12 0.17 0.96
2 -9 -12 -0.6 0.46
2 -9 -12 -1.84 1.02
2 -9 -12 1.24 0.93
-2 -9 12 0.56 0.97
-2 9 12 1.59 0.89
2 9 -12 1.53 0.84
-2 9 12 0.39 0.74
-2 9 12 0.61 0.81
-2 9 12 0.48 0.97
2 9 -12 0.27 1.2
-1 -9 12 1.74 0.91
1 -9 -12 0.89 0.63
-1 -9 12 -0.5 0.76
-1 -9 12 0.6 0.91
-1 -9 12 3.95 1.22
1 -9 -12 0.23 1.06
1 -9 -12 0.75 0.96
1 -9 -12 -0.12 0.92
1 -9 -12 0.11 0.39
1 9 -12 -0.81 0.81
-1 9 12 1.03 0.79
-1 9 12 -0.14 0.62
-1 9 12 1.91 1.1
-1 9 12 1.32 0.95
1 9 -12 1.56 1.41
0 -9 -12 -0.46 0.98
0 -9 -12 0.01 1.05
0 -9 12 1.12 0.95
0 -9 12 0.49 1.26
0 -9 -12 -0.09 0.24
0 -9 12 0.95 0.88
0 -9 12 -0.24 1.08
0 9 12 0.63 0.85
0 9 -12 0.54 0.79
0 9 -12 -1.48 0.79
0 9 12 -0.23 0.96
0 9 12 -0.35 0.81
0 9 -12 0 1.41
0 9 12 0.28 0.96
1 -9 12 1.72 1.16
1 -9 12 2.95 0.96
1 -9 12 0.58 1.15
-1 -9 -12 1.84 1.42
1 -9 12 1.03 0.98
-1 -9 -12 -0.86 1.31
-1 9 -12 -0.5 1.04
1 9 12 2.16 0.88
-1 9 -12 2.67 1.67
-1 9 -12 -0.75 0.93
1 9 12 4.1 1.19
1 9 12 0.16 0.84
2 -9 12 1.14 1.07
2 -9 12 1.23 1.04
-2 -9 -12 -1.75 1.72
2 -9 12 -0.52 1.16
-2 -9 -12 0.51 1.07
-2 -9 -12 -1.53 1.33
2 -9 12 0.03 1.4
-2 9 -12 -0.2 0.78
2 9 12 0.49 1.13
2 9 12 1.78 0.86
2 9 12 -1.23 0.91
-2 9 -12 0.43 1.07
-2 9 -12 1.19 1.92
-3 -9 -12 -1.76 1.19
3 -9 12 0.34 1.18
3 -9 12 -0.51 1.62
-3 -9 -12 0.21 1.95
3 -9 12 0.71 1.13
3 9 12 -3.12 1.01
-3 9 -12 0.02 0.77
3 9 12 2.13 1.25
3 9 12 1.97 0.97
-3 9 -12 1.6 1.27
-3 9 -12 1.34 1.93
4 -9 12 2.05 2.98
4 -9 12 -2.32 1.18
-4 -9 -12 -0.91 1.62
4 -9 12 -0.35 1.3
-4 -9 -12 1.31 2.23
4 9 12 3.47 1.51
4 9 12 -2.72 1.19
-4 9 -12 1.75 2.39
4 9 12 0.39 0.84
4 9 12 -0.53 1.24
8 -10 -12 1.42 1.35
-8 -10 12 -1.94 2.38
8 -10 -12 -1.23 1.65
8 -10 -12 3.61 1.6
-8 -10 12 -0.67 1.24
8 -10 -12 -0.3 0.65
8 -10 -12 -1.67 1.14
-8 10 12 1.41 1.74
8 10 -12 -2.95 1.14
-8 10 12 -1.15 1.5
7 -10 -12 1.2 0.61
7 -10 -12 -2.84 1.36
-7 -10 12 0.28 1.1
-7 -10 12 1.39 1.44
-7 -10 12 -0.58 0.72
7 -10 -12 0.93 1.43
-7 -10 12 -0.81 1.09
7 -10 -12 -0.27 1.16
7 -10 -12 0.69 1.03
-7 10 12 0 0.42
-7 10 12 -0.22 1.36
7 10 -12 0.38 1.23
7 10 -12 0.34 0.78
-7 10 12 -0.1 1.33
-6 -10 12 0.46 0.95
-6 -10 12 0.03 1.07
6 -10 -12 0.87 0.6
6 -10 -12 0.07 1.32
-6 -10 12 0.22 0.66
-6 -10 12 0.99 0.81
6 -10 -12 -1.87 0.99
6 -10 -12 2.78 1.4
-6 -10 12 0.25 1.31
-6 10 12 -0.46 0.55
-6 10 12 -0.35 1.31
-6 10 12 2.36 1.23
-6 10 12 -0.77 1.08
-6 10 12 -1.36 1.22
6 10 -12 -0.42 0.74
6 10 -12 0.37 1.27
6 10 -12 0.29 1.29
-5 -10 12 1 0.84
5 -10 -12 0.22 0.71
-5 -10 12 0.26 1.18
5 -10 -12 -0.73 1.17
-5 -10 12 0.22 0.76
-5 -10 12 1.54 1.12
5 -10 -12 0.03 0.56
-5 -10 12 -0.7 0.71
5 -10 -12 2.28 1.39
5 -10 -12 -1.32 1.08
-5 10 12 1.41 1.16
-5 10 12 -0.82 0.97
5 10 -12 0.49 1.17
-5 10 12 -1.03 0.96
5 10 -12 0.75 1.26
5 10 -12 0.09 0.8
-5 10 12 2.35 1.31
-4 -10 12 0.48 0.79
4 -10 -12 -1.8 1.17
4 -10 -12 -1.55 0.87
-4 -10 12 -1.42 1.1
4 -10 -12 -0.05 0.61
-4 -10 12 0.28 0.81
-4 -10 12 1.54 1.13
4 -10 -12 -0.05 0.58
-4 -10 12 1.14 0.74
4 -10 -12 0.28 1.13
-4 10 12 -0.07 1.13
4 10 -12 0.14 0.79
-4 10 12 -0.67 0.97
4 10 -12 -0.97 1.17
-4 10 12 0.22 1.11
-4 10 12 -1.64 0.96
4 10 -12 0.72 1.05
3 -10 -12 -0.38 0.53
-3 -10 12 -0.03 0.71
3 -10 -12 0.7 1.2
-3 -10 12 2.35 0.84
3 -10 -12 1.73 1.33
-3 -10 12 0.25 0.86
-3 -10 12 1.17 1.12
3 -10 -12 0.35 0.62
3 -10 -12 2.35 1.04
-3 -10 12 0.44 1.14
-3 10 12 1.7 1.11
-3 10 12 -0.28 0.9
-3 10 12 0.95 0.91
3 10 -12 1.68 1.02
-3 10 12 2.15 1.05
3 10 -12 0.95 0.83
3 10 -12 0.64 1.42
2 -10 -12 4.12 1.16
2 -10 -12 1.45 1.05
2 -10 -12 0.07 0.45
2 -10 -12 1.81 0.68
2 -10 -12 0.92 1.31
-2 -10 12 1.54 0.71
-2 -10 12 1.24 1.25
-2 -10 12 2.52 1.1
-2 -10 12 1.2 1.05
-2 -10 12 1.8 0.96
-2 10 12 1.57 1.07
-2 10 12 3.31 0.92
2 10 -12 1.42 1.6
2 10 -12 2.04 0.99
-2 10 12 2.31 1.25
2 10 -12 1.43 0.87
-2 10 12 0.64 0.99
1 -10 -12 0.77 1.05
-1 -10 12 -0.83 0.84
1 -10 -12 -0.28 1.24
1 -10 -12 1.36 1.1
-1 -10 12 -1.42 1.04
1 -10 -12 -0.16 0.69
-1 -10 12 0.33 1.18
1 10 -12 -0.04 0.95
-1 10 12 -1.64 1.1
-1 10 12 0.24 0.83
1 10 -12 0.75 1.53
1 10 -12 -0.8 0.83
-1 10 12 0.93 0.87
0 -10 12 -0.83 1.33
0 -10 -12 -0.47 0.82
0 -10 12 0.82 1.03
0 -10 -12 -0.87 1.32
0 -10 12 2.49 1.12
0 -10 12 -0.82 1.13
0 -10 -12 0.56 1.14
0 10 12 1.37 0.94
0 10 -12 1.55 1.04
0 10 12 0.99 1.13
0 10 -12 0.3 1.69
0 10 12 -1.47 1.01
1 -10 12 3.88 1.47
1 -10 12 2.73 1.08
1 -10 12 0.29 1.08
1 -10 12 2.85 1.28
-1 -10 -12 0.86 1.97
-1 10 -12 1.22 1.85
1 10 12 -0.97 1.17
-1 10 -12 0.8 0.98
1 10 12 -0.93 1.12
-1 10 -12 0.76 1.03
1 10 12 0.56 0.91
2 -10 12 2.34 1.2
2 -10 12 -2.01 1.71
-2 -10 -12 0.78 1.97
2 -10 12 -0.66 1.6
-2 -10 -12 1.91 1.23
2 -10 12 -1 1.15
2 10 12 1 1.05
2 10 12 -0.05 1.21
2 10 12 1.4 1.22
-2 10 -12 0.02 1.19
-2 10 -12 1.06 2.02
-2 10 -12 0.91 1.1
3 -10 12 2.98 1.91
-3 -10 -12 -0.45 1.46
3 -10 12 -2.11 1.26
-3 -10 -12 0.1 2.2
3 -10 12 -0.09 1.23
3 10 12 -0.13 1.39
3 10 12 0.14 1.44
3 10 12 -0.98 1.16
-3 10 -12 0.57 2.15
7 -11 -12 -1.25 1.11
7 -11 -12 1.69 1.65
-7 -11 12 -3.02 1.33
-7 -11 12 -0.87 1.32
7 -11 -12 -0.12 0.98
7 -11 -12 -2.81 1.7
7 11 -12 0.03 1.28
-7 11 12 -0.35 1.56
6 -11 -12 0.2 0.92
-6 -11 12 1.41 1.17
6 -11 -12 4.3 1.77
-6 -11 12 0.69 0.85
6 -11 -12 -3.15 1.2
6 -11 -12 1.4 0.75
-6 -11 12 2.35 1.51
6 -11 -12 -0.46 1.51
-6 -11 12 0.84 1.42
6 11 -12 -0.66 0.89
-6 11 12 -1.94 1.39
6 11 -12 0.54 1.44
-6 11 12 0.39 0.62
-6 11 12 0.3 1.49
5 -11 -12 -0.8 0.69
5 -11 -12 0.58 1.34
5 -11 -12 1.55 1.17
-5 -11 12 -0.72 1.31
5 -11 -12 2.23 1.48
-5 -11 12 -1.15 1.35
-5 -11 12 -0.19 0.91
5 -11 -12 0.03 0.8
-5 -11 12 0.37 0.74
-5 -11 12 -0.27 0.97
-5 11 12 0.92 1.41
-5 11 12 0.53 1.22
-5 11 12 0.06 1.17
5 11 -12 0.68 0.91
5 11 -12 -0.6 1.41
5 11 -12 2.09 1.38
4 -11 -12 0.61 0.69
4 -11 -12 0.16 1.14
4 -11 -12 -0.5 1.36
-4 -11 12 1.19 0.94
4 -11 -12 -0.25 0.69
-4 -11 12 -1.16 0.81
-4 -11 12 -2.46 0.78
-4 -11 12 -0.01 1.29
-4 -11 12 -1.21 1.19
4 -11 -12 0.93 1.35
4 11 -12 -0.47 1.56
-4 11 12 0.51 1.13
-4 11 12 1.99 1.23
-4 11 12 -0.94 1.27
4 11 -12 -0.97 0.92
-4 11 12 -0.25 1.21
4 11 -12 -0.41 1.26
-3 -11 12 0.47 0.95
-3 -11 12 1.47 1.25
-3 -11 12 0.67 1.29
3 -11 -12 1.67 1.17
-3 -11 12 -0.83 0.88
3 -11 -12 -0.05 0.73
3 -11 -12 0.76 1.29
-3 -11 12 -0.01 0.86
3 -11 -12 -2.45 1.35
-3 11 12 1.11 1.28
-3 11 12 0.17 1.04
3 11 -12 -1.45 1.14
-3 11 12 0.24 1.09
3 11 -12 0.69 1.45
3 11 -12 -2.09 0.97
-3 11 12 1.28 1.26
-2 -11 12 -0.24 0.82
2 -11 -12 1.23 1.28
2 -11 -12 0.29 0.79
2 -11 -12 -1.4 1.4
-2 -11 12 1.25 0.94
-2 -11 12 0.69 1.03
2 -11 -12 0.94 1.2
-2 -11 12 2.81 1.39
-2 -11 12 -1.19 1.22
2 11 -12 1.05 1.2
-2 11 12 -0.15 1.23
-2 11 12 2.64 1.28
2 11 -12 0.95 1.7
2 11 -12 -0.14 0.93
-2 11 12 1.03 1.01
-2 11 12 2.78 1.15
-1 -11 12 2.07 1.07
-1 -11 12 0.29 1.22
1 -11 -12 0.76 0.89
-1 -11 12 -1.09 2.11
1 -11 -12 3.1 1.84
-1 -11 12 -0.63 0.77
1 -11 -12 0.97 1.2
1 -11 -12 -2.34 1.22
-1 11 12 1.17 0.99
-1 11 12 1.19 0.97
1 11 -12 -0.57 0.98
1 11 -12 0.96 1.7
-1 11 12 0 1.32
1 11 -12 0.1 1.15
0 -11 12 -0.33 1.23
0 -11 12 2.09 1.33
0 -11 -12 0.37 0.97
0 -11 12 3.08 1.21
0 -11 -12 -1.52 1.28
0 -11 -12 -6.55 2.71
0 11 12 2.14 1.39
0 11 -12 0.2 1.74
0 11 -12 2.19 1.2
0 11 -12 0.84 1.14
0 11 12 1.36 1
0 11 12 -1.26 1.17
1 -11 12 1.85 1.49
1 -11 12 0.13 1.28
1 -11 12 3.05 1.29
1 11 12 3.16 1.18
1 11 12 1.45 1.06
-1 11 -12 -0.73 1.15
1 11 12 -1.42 1.34
-1 11 -12 -2 1.11
-1 11 -12 -0.64 2.06
-2 -11 -12 0.31 1.54
2 -11 12 1.51 1.32
2 -11 12 -2.38 1.28
2 -11 12 -0.54 1.78
-2 -11 -12 0.72 2.43
-2 11 -12 0.74 1.44
2 11 12 -0.9 1.13
2 11 12 0.34 1.12
-2 11 -12 -0.13 2.23
5 -12 -12 -0.05 1.79
5 -12 -12 -0.02 0.88
-5 -12 12 0.26 1.2
5 -12 -12 3.37 2.15
-5 -12 12 0 1.64
5 -12 -12 -0.28 1.56
-5 12 12 0.08 1.65
5 12 -12 -1.99 1.11
-5 12 12 1.74 2.76
5 12 -12 2.27 1.74
4 -12 -12 1.04 1.56
-4 -12 12 1.02 1.56
-4 -12 12 1.11 1.1
-4 -12 12 1.54 1.14
4 -12 -12 0.43 1.51
4 -12 -12 -0.03 0.86
4 -12 -12 5.87 1.91
-4 12 12 -0.22 1.6
4 12 -12 -3.95 1.81
4 12 -12 2.19 1.82
-4 12 12 2.27 1.44
-4 12 12 2.39 1.31
-3 -12 12 0.32 1.07
-3 -12 12 -0.59 1.06
3 -12 -12 -4.21 1.66
3 -12 -12 1.1 0.89
-3 -12 12 0.24 1.02
-3 -12 12 -1.2 1.48
3 -12 -12 0.47 1.47
-3 12 12 -1.03 1.46
3 12 -12 -2.36 1.02
-3 12 12 0.4 1.2
3 12 -12 2.35 1.48
3 12 -12 0.4 1.82
-3 12 12 -1.39 1.37
2 -12 -12 0.28 0.94
2 -12 -12 0.14 1.28
-2 -12 12 0.6 1.06
-2 -12 12 0.6 0.98
-2 -12 12 0.26 1.14
2 -12 -12 1.79 1.46
-2 -12 12 1.95 1.38
2 12 -12 -1.58 1.87
-2 12 12 -3.73 1.46
-2 12 12 -0.4 1.58
2 12 -12 3.96 1.34
2 12 -12 1.27 1.4
-2 12 12 -0.32 1.1
-1 -12 12 1.96 1.4
1 -12 -12 0.98 1.27
-1 -12 12 0.71 0.99
-1 -12 12 0.31 1.45
1 -12 -12 -0.61 1.38
1 -12 -12 1.22 1.07
-1 12 12 0.08 1.51
1 12 -12 0.49 1.41
1 12 -12 -0.39 2.04
-1 12 12 1.3 1.43
-1 12 12 -1.26 1.11
1 12 -12 1.43 1.25
0 -12 12 -0.71 1.37
0 -12 12 -1.84 1.48
0 -12 -12 -0.98 1.47
0 -12 12 2.65 1.35
0 -12 -12 -3.01 1.47
0 -12 -12 0.04 1.16
0 12 -12 0.12 1.41
0 12 12 -1.48 1.58
0 12 12 1.88 1.43
0 12 -12 1.73 1.32
0 12 12 -0.33 1.18
11 0 -13 0.11 0.88
11 0 -13 0.17 1.13
11 0 -13 -1.59 1.31
11 0 -13 0.48 0.48
10 0 -13 -0.39 1.09
10 0 -13 -1.47 1.16
10 0 -13 0.09 0.9
-10 0 13 0.31 1.11
10 0 -13 0.07 0.85
10 0 -13 -0.05 0.32
-10 0 13 0.36 0.47
-10 0 13 0.62 0.94
10 0 -13 1.8 1.1
9 0 -13 -0.85 0.87
9 0 -13 -1.1 0.6
-9 0 13 -0.19 0.92
9 0 -13 -0.63 0.92
-9 0 13 -1 0.94
-9 0 13 -0.27 0.78
-9 0 13 -0.35 0.45
9 0 -13 1.16 0.87
9 0 -13 2.47 1
-8 0 13 0.25 0.45
8 0 -13 0.01 0.84
8 0 -13 1.3 0.86
8 0 -13 0.06 0.71
-8 0 13 -0.21 0.82
8 0 -13 1.37 0.6
-8 0 13 -0.3 0.68
-8 0 13 -0.28 0.82
8 0 -13 -0.44 0.79
7 0 -13 -0.21 0.72
-7 0 13 0.06 0.44
-7 0 13 -2.74 0.96
7 0 -13 -0.23 0.75
7 0 -13 0.05 0.79
-7 0 13 -0.01 0.7
-7 0 13 0.46 0.75
7 0 -13 -0.9 0.48
7 0 -13 0.23 0.67
6 0 -13 0.46 0.79
-6 0 13 -0.49 0.61
-6 0 13 0.11 0.46
-6 0 13 -0.31 0.97
6 0 -13 -0.8 0.51
6 0 -13 0.38 0.77
-5 0 13 -0.19 0.55
-5 0 13 0.17 0.55
5 0 -13 0.59 0.77
-5 0 13 0.55 0.99
5 0 -13 -0.28 0.49
5 0 -13 -0.55 0.61
5 0 -13 -0.15 0.64
-5 0 13 0.61 0.46
4 0 -13 0.22 0.78
-4 0 13 0.3 0.61
-4 0 13 0.78 0.52
-4 0 13 0.03 0.47
4 0 -13 0.56 0.71
-4 0 13 0.52 0.81
4 0 -13 -0.38 0.45
-4 0 13 0.16 0.56
4 0 -13 0.28 0.68
3 0 -13 -0.8 0.56
3 0 -13 0.03 0.82
-3 0 13 0.76 0.53
-3 0 13 0.17 0.5
3 0 -13 0.01 0.66
-3 0 13 -0.99 0.54
3 0 -13 -0.01 0.51
-2 0 13 -0.16 0.57
2 0 -13 -0.44 0.81
-2 0 13 -0.05 0.44
-2 0 13 0.16 0.5
2 0 -13 -0.17 0.7
2 0 -13 0.04 0.55
1 0 -13 1.1 0.86
1 0 -13 0.55 0.71
1 0 -13 -0.09 0.55
-1 0 13 0.53 0.49
-1 0 13 -0.03 0.17
-1 0 13 0.25 0.42
-1 0 13 0.41 0.58
0 0 13 -0.26 0.54
0 0 13 0.29 0.64
0 0 -13 -0.35 0.94
0 0 13 0.15 0.3
0 0 13 0.3 0.4
0 0 -13 0.18 0.64
1 0 13 -0.08 0.72
-1 0 -13 -0.99 0.56
1 0 13 -0.03 0.38
-1 0 -13 -0.68 0.93
1 0 13 0.54 0.6
2 0 13 0.67 0.67
-2 0 -13 0.33 0.77
2 0 13 0.5 0.5
2 0 13 0.01 0.78
-2 0 -13 -0.13 1.16
-2 0 -13 -0.19 0.59
2 0 13 -1.23 0.92
-3 0 -13 -1.09 0.79
-3 0 -13 0.47 0.68
3 0 13 2.75 1.03
3 0 13 0.74 0.86
3 0 13 1.51 0.75
-3 0 -13 -0.24 1.37
3 0 13 0.09 0.61
4 0 13 -0.06 1.05
-4 0 -13 0.77 0.95
4 0 13 -1.61 1.08
4 0 13 0.52 0.82
-4 0 -13 -0.37 0.77
-4 0 -13 -0.28 1.51
4 0 13 -0.62 0.83
5 0 13 2.28 1.29
5 0 13 -0.77 0.81
-5 0 -13 -0.93 1.06
5 0 13 -0.2 1.01
-5 0 -13 -1.96 1.76
-5 0 -13 0.58 1.05
6 0 13 1.06 1.3
6 0 13 1.85 1.61
-6 0 -13 -0.54 1.22
6 0 13 1.69 1.07
-6 0 -13 -0.74 1.26
-6 0 -13 -0.9 2.42
11 -1 -13 0.57 0.91
11 -1 -13 0.63 0.51
11 -1 -13 1.17 1.37
11 -1 -13 1.7 1.03
11 1 -13 1.94 1.3
11 1 -13 -0.72 0.46
-11 1 13 0.95 1.27
-11 1 13 -1.17 0.61
11 1 -13 2.49 1.16
10 -1 -13 0.03 0.97
10 -1 -13 0.72 1.19
10 -1 -13 0.4 0.34
-10 -1 13 -0.58 0.48
-10 -1 13 -0.16 1.02
10 -1 -13 -0.2 0.64
10 -1 -13 0.07 1.02
-10 -1 13 -0.06 0.41
10 1 -13 -0.09 1.2
10 1 -13 0.52 0.84
10 1 -13 -1.36 0.97
10 1 -13 -0.38 1.08
10 1 -13 0.51 0.33
-10 1 13 -0.22 0.9
-10 1 13 0.68 0.61
10 1 -13 0.32 0.74
-10 1 13 -1.14 1.06
9 -1 -13 3.72 0.35
-9 -1 13 4.96 1.09
9 -1 -13 3.28 1.01
9 -1 -13 3.37 0.99
9 -1 -13 4.43 1.08
-9 -1 13 4.11 0.92
9 -1 -13 3.64 0.83
9 -1 -13 4.49 0.96
-9 -1 13 1.93 0.93
-9 1 13 3.92 1.02
9 1 -13 3.6 0.93
9 1 -13 5.3 1.06
-9 1 13 4.71 0.73
9 1 -13 4.13 0.96
-9 1 13 3.81 0.83
-9 1 13 2.58 0.95
9 1 -13 3.81 0.74
9 1 -13 4.08 1.03
-8 -1 13 4.4 0.81
-8 -1 13 5.97 0.9
8 -1 -13 5.44 0.9
8 -1 -13 3.77 0.91
8 -1 -13 4.25 1.02
8 -1 -13 3.98 0.94
8 -1 -13 2.55 0.74
-8 1 13 3.33 0.85
-8 1 13 3.3 0.87
8 1 -13 4.72 0.82
-8 1 13 3.19 0.9
8 1 -13 3.45 0.71
-8 1 13 4.69 1.16
8 1 -13 4.34 0.97
8 1 -13 3.5 0.87
8 1 -13 3.3 0.94
7 -1 -13 1.19 0.78
-7 -1 13 2.47 0.72
7 -1 -13 2.19 0.87
-7 -1 13 0.67 0.48
-7 -1 13 1.12 0.66
7 -1 -13 1.27 0.69
7 -1 -13 1.97 0.63
7 -1 -13 1.68 0.78
-7 1 13 1.31 0.55
7 1 -13 1.58 0.59
7 1 -13 2.04 0.86
7 1 -13 1.38 0.8
-7 1 13 1.32 0.62
-7 1 13 1.03 0.73
-7 1 13 0.3 0.73
7 1 -13 0.87 0.78
6 -1 -13 0.63 0.7
-6 -1 13 1.32 0.63
-6 -1 13 1.44 0.65
6 -1 -13 1.5 0.88
-6 -1 13 1.05 0.48
6 -1 -13 0.76 0.61
-6 1 13 1.81 0.57
6 1 -13 0.96 0.59
6 1 -13 0.81 0.82
-6 1 13 0.64 0.66
6 1 -13 0.97 0.71
-6 1 13 1.02 0.57
5 -1 -13 -0.55 0.71
-5 -1 13 0.25 0.45
-5 -1 13 -0.32 0.58
5 -1 -13 -1.3 0.51
-5 -1 13 -0.47 0.54
-5 -1 13 -0.53 0.55
5 -1 -13 -0.06 0.71
-5 1 13 -0.09 0.46
5 1 -13 -0.15 0.71
5 1 -13 0.08 0.61
-5 1 13 0.19 0.52
-5 1 13 0.58 0.6
5 1 -13 -0.59 0.5
5 1 -13 -0.63 0.67
-4 -1 13 2.7 0.61
4 -1 -13 2.69 0.86
-4 -1 13 1.68 0.66
4 -1 -13 2.63 0.7
-4 -1 13 4.31 1.09
4 -1 -13 4.72 0.8
-4 -1 13 2.53 0.57
-4 -1 13 3.46 0.62
-4 1 13 2.5 0.55
4 1 -13 2.51 0.73
4 1 -13 2.33 0.87
4 1 -13 3.89 1.24
4 1 -13 3.3 0.64
-4 1 13 3.29 0.6
-4 1 13 3.52 0.69
3 -1 -13 0.22 0.57
3 -1 -13 0.59 0.66
3 -1 -13 -0.5 0.75
-3 -1 13 0.23 0.61
-3 -1 13 0.06 0.45
-3 -1 13 -0.24 0.46
-3 -1 13 0.74 0.56
-3 1 13 0.74 0.52
3 1 -13 0.69 0.84
-3 1 13 0.34 0.52
-3 1 13 -0.1 0.64
3 1 -13 -0.57 0.48
3 1 -13 0.41 0.56
3 1 -13 0.01 1.14
-2 -1 13 0.79 0.58
-2 -1 13 1.19 0.57
2 -1 -13 0.88 0.86
2 -1 -13 1.04 0.6
-2 -1 13 0.79 0.46
2 -1 -13 1.01 0.75
-2 1 13 1.35 0.48
2 1 -13 0.98 0.79
2 1 -13 1.3 0.64
-2 1 13 1.53 0.6
2 1 -13 0.68 0.65
2 1 -13 0.93 0.51
1 -1 -13 0.8 0.67
-1 -1 13 0.44 0.6
-1 -1 13 1.01 0.25
-1 -1 13 1.28 0.57
1 -1 -13 0.9 0.74
1 -1 -13 1.5 0.92
1 1 -13 0.06 0.61
-1 1 13 2.41 0.75
1 1 -13 2.17 1.01
-1 1 13 1.07 0.45
-1 1 13 1.82 0.61
0 -1 13 -0.03 0.58
0 -1 -13 0.25 0.58
0 -1 13 0.33 0.33
0 -1 13 0.32 0.58
0 -1 -13 1.17 0.99
0 1 13 0.1 0.25
0 1 13 0.54 0.43
0 1 -13 0.53 0.47
0 1 -13 -0.75 0.91
0 1 -13 -0.46 0.64
0 1 13 0.85 0.69
-1 -1 -13 2.96 1.17
-1 -1 -13 1.51 0.59
1 -1 13 1.46 0.63
-1 -1 -13 0.41 0.73
-1 1 -13 1.5 0.63
1 1 13 0.55 0.71
1 1 13 0.12 0.58
-1 1 -13 0.22 0.5
1 1 13 1.4 0.37
1 1 13 0.86 0.4
-1 1 -13 1.36 1.01
2 -1 13 -1.3 1.66
2 -1 13 -0.1 0.63
-2 -1 -13 -0.23 1.12
-2 -1 -13 1.6 0.77
-2 -1 -13 -0.26 0.61
2 1 13 -0.2 0.88
2 1 13 -0.11 0.46
-2 1 -13 -0.39 0.64
2 1 13 1.07 0.77
2 1 13 -0.19 0.59
-2 1 -13 -0.41 0.56
-2 1 -13 0.29 1.19
-3 -1 -13 -0.45 1.34
-3 -1 -13 -0.61 0.7
3 -1 13 1.19 0.7
3 -1 13 -0.16 0.7
3 -1 13 -0.61 1.01
-3 -1 -13 0.8 0.96
3 1 13 -0.43 0.93
3 1 13 0.66 0.73
-3 1 -13 0.23 0.66
-3 1 -13 0.99 0.83
-3 1 -13 0.83 1.26
3 1 13 -0.8 0.98
3 1 13 0.03 0.61
4 -1 13 0.81 1.11
4 -1 13 1.26 0.92
-4 -1 -13 -1.41 0.96
-4 -1 -13 -1.07 1.53
-4 -1 -13 1.04 0.83
4 1 13 0.21 0.97
-4 1 -13 1.92 1
4 1 13 1.41 1.14
-4 1 -13 1.29 1.51
4 1 13 1.14 0.89
-4 1 -13 1 0.82
4 1 13 0.43 0.8
5 -1 13 0.02 1.05
-5 -1 -13 -0.51 1.06
5 -1 13 3.21 1.06
-5 -1 -13 -0.46 1.07
-5 -1 -13 1.24 1.77
5 -1 13 3.06 1.4
5 -1 13 -0.92 1.45
5 1 13 0.26 0.89
5 1 13 4.02 1.52
-5 1 -13 1.25 1.03
-5 1 -13 -0.56 1.93
5 1 13 1.06 1.35
5 1 13 -0.94 0.99
-5 1 -13 1.14 1.01
6 -1 13 -1.91 0.97
-6 -1 -13 -0.23 1.19
-6 -1 -13 -0.74 1.33
6 -1 13 0.7 1.35
6 -1 13 2.18 1.49
-6 -1 -13 1.23 2.32
6 1 13 -1.04 0.99
-6 1 -13 -0.08 1.22
6 1 13 1.79 1.32
-6 1 -13 -1.32 1.29
-6 1 -13 0.62 2.41
6 1 13 3.31 1.66
11 -2 -13 -0.37 1.36
11 -2 -13 -0.36 0.51
11 -2 -13 -0.58 1.11
-11 2 13 0.33 0.71
-11 2 13 -1.38 1.27
11 2 -13 -0.86 1.11
11 2 -13 1.53 0.52
11 2 -13 0.55 1.25
-10 -2 13 1.18 1.05
10 -2 -13 -0.6 1.04
10 -2 -13 -0.04 1.07
10 -2 -13 -1.05 1.22
10 -2 -13 -0.34 0.33
10 -2 -13 2.41 0.84
-10 2 13 0.91 0.64
-10 2 13 2.08 1.18
10 2 -13 1.55 0.73
10 2 -13 2.14 0.95
10 2 -13 0.99 1.06
10 2 -13 -2.2 1.04
10 2 -13 -2.25 1.11
10 2 -13 1.4 1.29
9 -2 -13 -0.55 0.76
9 -2 -13 0.18 0.96
9 -2 -13 1.44 1.01
-9 -2 13 -0.46 0.44
-9 -2 13 -0.52 0.91
9 -2 -13 -0.58 0.9
-9 -2 13 -1.55 0.86
9 -2 -13 0.22 0.21
-9 -2 13 -0.59 0.42
9 2 -13 -1.24 0.89
-9 2 13 1.13 0.75
9 2 -13 -0.38 0.9
9 2 -13 -0.4 1.02
-9 2 13 0.65 0.6
-9 2 13 0.39 0.57
9 2 -13 -0.93 0.72
-9 2 13 0.26 0.99
-9 2 13 -0.56 0.96
-8 -2 13 -0.08 1.21
8 -2 -13 1.15 0.95
-8 -2 13 -0.74 0.77
-8 -2 13 -0.36 0.44
-8 -2 13 0.32 0.56
8 -2 -13 0.26 0.63
8 -2 -13 -0.61 0.84
8 -2 -13 -0.24 0.81
8 2 -13 -0.56 0.77
8 2 -13 -0.09 0.52
-8 2 13 -0.44 0.82
8 2 -13 -1.54 0.85
-8 2 13 -0.42 0.56
-8 2 13 -0.44 0.82
8 2 -13 0.73 0.77
-8 2 13 1.35 0.58
-8 2 13 1.01 0.66
8 2 -13 0.65 0.86
7 -2 -13 0.83 0.83
-7 -2 13 1.07 0.7
7 -2 -13 1.16 0.92
7 -2 -13 1.29 0.72
7 -2 -13 1.47 0.62
7 2 -13 1 0.76
-7 2 13 -0.09 0.74
7 2 -13 -0.28 0.54
7 2 -13 0.97 0.82
-7 2 13 0.64 0.76
-7 2 13 -0.14 0.54
-7 2 13 1.83 0.59
7 2 -13 1.27 0.77
-7 2 13 0.95 0.57
6 -2 -13 0.89 0.83
-6 -2 13 -0.33 0.66
-6 -2 13 -0.44 0.42
6 -2 -13 -0.15 0.73
-6 -2 13 0.44 0.64
6 -2 -13 -0.32 0.61
-6 2 13 0.4 0.67
6 2 -13 0.18 0.51
-6 2 13 -0.19 0.53
-6 2 13 -0.27 0.61
6 2 -13 0.27 0.72
-6 2 13 -0.01 0.53
6 2 -13 0.68 0.8
-5 -2 13 -0.09 0.56
5 -2 -13 0.47 0.79
5 -2 -13 -0.27 0.75
-5 -2 13 -0.14 0.44
-5 -2 13 0.23 0.63
5 -2 -13 0.61 0.57
5 2 -13 0.48 0.74
-5 2 13 0.39 0.55
5 2 -13 -0.15 0.46
-5 2 13 -0.61 0.49
-5 2 13 -0.38 0.59
5 2 -13 0.34 0.62
4 -2 -13 0.66 0.83
4 -2 -13 0.58 0.71
-4 -2 13 1.19 0.46
4 -2 -13 -0.03 0.61
-4 -2 13 -0.08 0.56
-4 -2 13 -0.39 0.53
4 2 -13 1.58 0.56
4 2 -13 0.91 0.85
4 2 -13 -0.17 0.57
-4 2 13 0.21 0.54
4 2 -13 1.02 0.8
-4 2 13 0.47 0.6
-3 -2 13 -0.61 0.51
3 -2 -13 -0.36 0.58
-3 -2 13 -0.24 0.58
3 -2 -13 -0.03 0.79
-3 -2 13 1.13 0.48
3 -2 -13 0.49 0.69
3 2 -13 0.86 0.83
3 2 -13 0.99 0.51
3 2 -13 -0.21 0.54
-3 2 13 -0.13 0.49
-3 2 13 -0.03 0.51
-2 -2 13 2.28 0.7
2 -2 -13 3.42 0.77
-2 -2 13 3.06 0.59
-2 -2 13 2.21 0.6
2 -2 -13 3.65 0.79
-2 -2 13 2.12 0.19
2 -2 -13 2.55 0.93
-2 2 13 1.89 0.72
2 2 -13 3.52 0.59
2 2 -13 3.3 0.93
2 2 -13 3.49 0.72
-2 2 13 2.87 0.64
2 2 -13 2.22 0.72
-2 2 13 2.31 0.54
1 -2 -13 -0.4 0.72
1 -2 -13 0.48 0.91
1 -2 -13 0.22 0.7
-1 -2 13 0.96 0.47
1 2 -13 -0.06 0.84
-1 2 13 0.39 0.58
1 2 -13 0.98 0.51
-1 2 13 -0.1 0.45
1 2 -13 0.42 0.54
-1 2 13 -0.38 0.55
0 -2 13 1.05 0.6
0 -2 -13 0.34 0.61
0 -2 13 0.51 0.77
0 -2 -13 1.5 0.94
0 2 -13 -0.75 0.87
0 2 13 0.68 0.67
0 2 13 0.17 0.23
0 2 13 -0.03 0.61
0 2 -13 0.15 0.43
0 2 -13 0.63 0.62
0 2 13 0.57 0.44
1 -2 13 1.03 0.84
-1 -2 -13 -0.54 0.61
1 -2 13 0.03 0.59
1 -2 13 -0.15 0.77
-1 -2 -13 1.53 1.2
-1 -2 -13 -0.75 0.65
1 2 13 0.67 0.35
1 2 13 1.75 0.76
-1 2 -13 0.68 0.5
-1 2 -13 -0.25 0.97
1 2 13 0.5 0.62
1 2 13 0.34 0.79
1 2 13 0.84 0.42
-1 2 -13 1.18 0.63
-2 -2 -13 0.6 0.86
2 -2 13 0.76 0.84
-2 -2 -13 0.58 1.14
-2 -2 -13 0.29 0.69
2 -2 13 0.43 0.98
2 -2 13 0.62 0.68
2 2 13 0.26 0.4
-2 2 -13 0.02 0.59
2 2 13 0.5 0.81
2 2 13 1.08 0.71
-2 2 -13 0.39 0.7
2 2 13 0.9 0.46
2 2 13 -0.03 0.86
-2 2 -13 -0.05 1.13
3 -2 13 1.86 0.95
-3 -2 -13 0.13 0.78
3 -2 13 1.59 0.7
-3 -2 -13 2.33 1.43
3 -2 13 0.06 0.97
-3 -2 -13 2.07 1.05
3 2 13 0.91 0.85
3 2 13 0.33 1.01
3 2 13 0.67 0.98
-3 2 -13 1.85 0.85
3 2 13 0.92 0.59
-3 2 -13 -0.11 1.32
-3 2 -13 0.84 0.69
-4 -2 -13 1.13 0.88
4 -2 13 0.33 1.3
-4 -2 -13 -0.9 0.92
4 -2 13 3.32 0.92
4 -2 13 0.39 1.1
-4 -2 -13 -0.42 1.63
-4 2 -13 0.78 0.82
4 2 13 1.18 0.74
4 2 13 0.27 1.12
-4 2 -13 0.34 1.62
4 2 13 0.71 0.85
-4 2 -13 1.39 0.93
4 2 13 1.12 1.09
5 -2 13 0.49 0.95
5 -2 13 2.36 1.38
-5 -2 -13 -0.33 0.95
-5 -2 -13 1.46 1.12
5 -2 13 3.27 1.39
-5 -2 -13 -0.75 1.06
-5 -2 -13 -0.06 1.91
5 2 13 1.76 0.95
5 2 13 1.49 0.95
5 2 13 1.72 1.41
5 2 13 1.81 1.19
-5 2 -13 -1.88 1.15
-5 2 -13 -0.12 0.98
-5 2 -13 -0.31 1.87
-6 -2 -13 0.61 1.38
-6 -2 -13 1.2 1.16
-6 -2 -13 -0.55 2.08
6 -2 13 0.57 1.11
6 2 13 -0.49 1.38
-6 2 -13 4.47 2.5
6 2 13 1.56 1.19
-6 2 -13 0.54 1.2
6 2 13 1.34 1.23
-6 2 -13 0.53 1.45
11 -3 -13 -1.08 0.93
11 -3 -13 0.78 1.38
11 -3 -13 0.3 0.58
11 -3 -13 0.61 1.16
-11 3 13 1.34 0.86
11 3 -13 -1.32 1.2
11 3 -13 2.69 1.13
-11 3 13 2.2 1.42
-10 -3 13 -1.08 1.08
10 -3 -13 0.79 0.41
10 -3 -13 1.38 1.3
10 -3 -13 0.8 0.9
10 -3 -13 -0.57 1.1
10 -3 -13 0.64 1.12
-10 3 13 -0.19 0.73
10 3 -13 2.18 1.19
10 3 -13 1.2 1.26
-10 3 13 0.81 0.7
10 3 -13 0.87 0.92
-10 3 13 -1.18 1.21
-10 3 13 -0.1 0.85
10 3 -13 0.39 1.04
-9 -3 13 0.9 0.98
-9 -3 13 1.02 0.49
9 -3 -13 0.92 0.25
9 -3 -13 -0.66 1.08
-9 -3 13 1.08 0.47
9 -3 -13 1.66 0.84
-9 -3 13 1.03 0.92
9 -3 -13 0.82 0.91
9 -3 -13 0.22 1.07
-9 3 13 0.59 1.07
9 3 -13 -0.42 0.98
-9 3 13 2.23 1.01
9 3 -13 1.76 0.96
9 3 -13 0.36 0.97
-9 3 13 1.36 0.74
-9 3 13 0.56 0.7
9 3 -13 1.92 0.85
-9 3 13 2.04 0.75
9 3 -13 0.75 0.62
8 -3 -13 2.46 0.82
8 -3 -13 1.95 0.89
-8 -3 13 2.45 0.65
8 -3 -13 2.65 1.06
-8 -3 13 3.23 0.93
8 -3 -13 2.65 0.96
8 3 -13 3.37 0.88
-8 3 13 2.18 0.64
8 3 -13 2.28 0.93
-8 3 13 2.85 0.69
-8 3 13 1.25 0.93
8 3 -13 1.42 0.98
-8 3 13 2.44 0.86
8 3 -13 2.95 0.64
7 -3 -13 0.71 0.9
-7 -3 13 -0.06 0.41
7 -3 -13 -0.54 0.68
7 -3 -13 -0.51 0.71
7 -3 -13 0.35 0.85
-7 -3 13 0.44 0.74
-7 -3 13 0.78 0.68
7 3 -13 -0.16 0.76
7 3 -13 -0.19 0.8
-7 3 13 0.32 0.79
7 3 -13 -0.05 0.77
-7 3 13 -0.4 0.79
-7 3 13 0.72 0.57
-7 3 13 0.34 0.6
7 3 -13 0.82 0.53
-7 3 13 -0.42 0.53
-6 -3 13 3.16 0.71
6 -3 -13 3.58 0.82
6 -3 -13 2.85 0.86
6 -3 -13 3.25 1
-6 -3 13 2.83 0.71
6 3 -13 2.97 0.62
-6 3 13 3.01 0.74
6 3 -13 1.74 0.76
-6 3 13 2.64 0.59
-6 3 13 3.99 0.76
6 3 -13 2.94 0.9
-6 3 13 2.88 0.59
-6 3 13 4.01 0.75
5 -3 -13 5.73 0.89
-5 -3 13 4.61 0.66
-5 -3 13 4.51 0.7
-5 -3 13 5.2 0.77
5 -3 -13 4.14 0.67
5 -3 -13 4.41 1.04
5 -3 -13 3.08 0.78
-5 3 13 4.72 0.73
-5 3 13 4.17 0.61
5 3 -13 4.9 0.74
5 3 -13 6.1 0.84
5 3 -13 5.88 1.08
-5 3 13 5.51 0.84
-4 -3 13 0.53 0.62
4 -3 -13 0.62 0.8
-4 -3 13 -0.33 0.39
4 -3 -13 -0.26 0.56
4 -3 -13 -0.54 0.71
-4 -3 13 0.04 0.6
4 3 -13 0.36 0.76
4 3 -13 0.07 0.65
4 3 -13 0.35 0.5
4 3 -13 0.41 0.62
-4 3 13 -0.1 0.53
-4 3 13 0.98 0.72
-3 -3 13 2.11 0.62
-3 -3 13 2.85 0.71
3 -3 -13 2.79 0.87
3 -3 -13 3.43 0.77
3 -3 -13 2.33 0.67
-3 -3 13 2.23 0.56
3 3 -13 3.24 0.66
-3 3 13 3.09 0.73
3 3 -13 2.3 0.62
3 3 -13 1.81 0.88
3 3 -13 2.03 0.92
-3 3 13 2.72 0.59
-2 -3 13 0.64 0.22
-2 -3 13 0.53 0.68
2 -3 -13 -0.43 0.61
2 -3 -13 0.3 0.87
-2 -3 13 1.11 0.54
-2 -3 13 0.25 0.49
2 -3 -13 0.17 0.68
2 3 -13 0.85 0.58
-2 3 13 0.22 0.59
-2 3 13 1.9 0.61
2 3 -13 1.37 0.89
-2 3 13 0.67 0.52
2 3 -13 0.9 0.55
1 -3 -13 -0.36 0.81
1 -3 -13 0.93 0.76
-1 -3 13 -0.48 0.5
-1 -3 13 -0.2 0.59
1 -3 -13 -0.87 0.72
1 3 -13 -0.03 0.51
-1 3 13 -0.19 0.49
-1 3 13 -0.19 0.6
1 3 -13 0.33 0.4
-1 3 13 -0.11 0.63
1 3 -13 -0.1 0.55
1 3 -13 -0.42 0.87
-1 3 13 0.34 0.63
0 -3 -13 0.2 0.81
0 -3 13 -0.25 0.7
0 -3 13 0.05 0.75
0 -3 -13 0.67 0.66
0 -3 -13 -0.05 0.95
0 3 13 -0.34 0.72
0 3 13 0.4 0.65
0 3 -13 -0.25 0.46
0 3 13 -0.33 0.6
0 3 -13 0.3 0.92
0 3 13 -0.39 0.46
0 3 -13 0.46 0.43
0 3 -13 0.36 0.65
0 3 13 0.05 0.2
-1 -3 -13 -1.05 1.04
1 -3 13 1.13 0.78
1 -3 13 0.84 0.82
1 -3 13 -0.02 0.62
-1 -3 -13 -0.63 0.75
-1 3 -13 0.34 0.49
1 3 13 0.83 0.68
1 3 13 0.25 0.33
-1 3 -13 0.01 0.72
1 3 13 0.35 0.47
1 3 13 -1.39 0.67
1 3 13 0.26 0.73
-1 3 -13 0.14 1.15
2 -3 13 2.55 0.95
-2 -3 -13 1.72 0.71
-2 -3 -13 0.16 0.72
2 -3 13 0.59 0.89
2 -3 13 2.24 0.74
-2 -3 -13 2.61 1.43
2 3 13 1.22 0.47
2 3 13 1.54 0.94
2 3 13 1.59 0.78
-2 3 -13 -0.07 1.19
2 3 13 0.94 0.45
2 3 13 1.58 0.91
-2 3 -13 1.45 0.6
-2 3 -13 1.63 0.71
-3 -3 -13 -0.57 0.77
-3 -3 -13 1.41 1.39
3 -3 13 0.71 1.03
3 -3 13 -0.14 0.85
3 -3 13 1.32 1.15
3 3 13 0.62 0.92
-3 3 -13 0.43 0.8
-3 3 -13 -2.6 1.38
-3 3 -13 -0.19 0.67
3 3 13 -0.59 0.93
3 3 13 0.17 0.8
3 3 13 1.56 0.43
3 3 13 0.7 0.57
4 -3 13 1.03 1.08
4 -3 13 0.13 0.81
-4 -3 -13 1.23 0.97
4 -3 13 1.86 1.29
-4 -3 -13 -1.25 0.89
-4 -3 -13 2.29 1.71
4 3 13 0.11 1.19
-4 3 -13 -0.63 0.79
-4 3 -13 2.15 0.95
4 3 13 1.79 0.99
4 3 13 0.06 0.84
-4 3 -13 2.7 1.78
4 3 13 1.23 1.16
-5 -3 -13 1.78 0.93
-5 -3 -13 1.36 1.07
5 -3 13 1.51 1.11
-5 -3 -13 1.34 2.05
5 -3 13 1.67 1.52
-5 -3 -13 2.82 2.03
-5 3 -13 1.22 1.01
-5 3 -13 8.19 2.33
5 3 13 3.12 0.98
-5 3 -13 3.69 2.13
5 3 13 -1.1 0.96
5 3 13 -2.36 1.34
5 3 13 0.34 1.26
6 -3 13 2.3 1.79
-6 -3 -13 0.71 2.41
6 -3 13 0.03 1.69
-6 -3 -13 -2.17 1.35
-6 -3 -13 -0.1 1.09
-6 3 -13 -0.67 2.58
-6 3 -13 -2.57 1.4
-6 3 -13 -0.69 1.22
6 3 13 2.05 2.05
6 3 13 -1.23 1.25
6 3 13 -2.59 1.67
11 -4 -13 -1.36 1.58
11 -4 -13 0.08 0.62
11 -4 -13 -1.49 1.36
-11 4 13 -0.86 1.45
11 4 -13 1.56 1.27
11 4 -13 -0.11 1.13
-11 4 13 3.25 0.96
10 -4 -13 -0.81 1.14
10 -4 -13 -0.06 1.24
-10 -4 13 0.45 1.2
10 -4 -13 -1.25 0.98
10 -4 -13 0.85 0.46
10 -4 -13 2.54 1.32
-10 4 13 3.23 0.96
-10 4 13 1.56 0.81
10 4 -13 1.06 1.09
-10 4 13 -0.12 0.81
10 4 -13 3.16 0.93
-10 4 13 2.29 1.19
10 4 -13 0.94 1.22
10 4 -13 -0.65 1.49
-9 -4 13 0.49 0.44
9 -4 -13 -0.49 1.13
-9 -4 13 0.81 0.48
9 -4 -13 -0.48 0.87
9 -4 -13 0.44 1.08
9 -4 -13 0.26 0.3
-9 -4 13 0.76 1.07
9 -4 -13 0.59 1.14
-9 4 13 0.53 0.71
9 4 -13 1.92 0.99
-9 4 13 1.03 0.7
9 4 -13 -0.03 0.6
9 4 -13 0.94 0.93
-9 4 13 -0.74 1.02
9 4 -13 0.44 0.81
9 4 -13 0.73 1.12
-9 4 13 0.17 0.71
9 4 -13 -0.24 0.72
8 -4 -13 0.23 1
-8 -4 13 0.91 0.89
-8 -4 13 0.72 0.5
8 -4 -13 -0.44 0.86
8 -4 -13 -1.05 1.01
8 -4 -13 -0.13 0.76
8 4 -13 0.99 0.85
-8 4 13 -0.79 0.9
-8 4 13 0.06 0.72
-8 4 13 -0.28 0.66
-8 4 13 0.19 0.64
8 4 -13 -0.06 0.56
8 4 -13 0.03 0.85
8 4 -13 1.87 0.97
-8 4 13 -1 0.84
7 -4 -13 -0.11 0.77
7 -4 -13 0.13 0.74
-7 -4 13 0.7 0.7
-7 -4 13 1.09 0.47
7 -4 -13 -0.82 0.91
7 -4 -13 0.62 0.95
-7 -4 13 -0.13 0.82
-7 4 13 -0.54 0.76
7 4 -13 -0.99 0.78
-7 4 13 0.56 0.68
-7 4 13 0.08 0.55
-7 4 13 0.38 0.76
-7 4 13 0.71 0.58
7 4 -13 0.92 0.56
7 4 -13 -0.1 0.85
-6 -4 13 -0.04 0.64
6 -4 -13 -0.85 0.79
6 -4 -13 -0.29 0.89
-6 -4 13 0.61 0.74
6 -4 -13 0.1 0.65
-6 -4 13 -0.69 0.42
-6 4 13 -0.49 0.51
6 4 -13 -0.28 0.81
6 4 -13 -0.13 0.77
6 4 -13 0.4 0.56
6 4 -13 0.2 0.7
-6 4 13 -1.12 0.59
-6 4 13 -0.03 0.48
-6 4 13 0.34 0.72
-5 -4 13 1.24 0.69
5 -4 -13 2.09 0.79
5 -4 -13 -0.13 0.67
5 -4 -13 1.28 0.9
-5 -4 13 0.87 0.66
5 -4 -13 1.24 0.59
-5 -4 13 1.45 0.55
-5 4 13 1.04 0.7
-5 4 13 1.31 0.59
-5 4 13 1.19 0.56
5 4 -13 0.75 0.83
5 4 -13 0.85 0.69
-5 4 13 0.24 0.65
5 4 -13 1.64 0.58
4 -4 -13 1.84 0.81
-4 -4 13 -0.06 0.26
-4 -4 13 2.22 0.62
4 -4 -13 0.82 0.72
-4 -4 13 1.43 0.64
-4 -4 13 2.06 0.71
4 -4 -13 0.85 0.85
4 4 -13 2.1 0.87
4 4 -13 1.17 0.63
4 4 -13 1.3 0.7
4 4 -13 1.29 0.54
-4 4 13 1.1 0.66
-4 4 13 1.71 0.68
-3 -4 13 1.5 0.66
3 -4 -13 0.48 0.95
3 -4 -13 -0.01 0.75
-3 -4 13 1.23 0.51
-3 -4 13 2.41 0.72
-3 -4 13 1.37 0.28
3 -4 -13 1.85 0.82
3 4 -13 1.65 0.62
-3 4 13 1.87 0.69
3 4 -13 1.66 0.9
-3 4 13 0.69 1.07
-2 -4 13 3.92 0.71
2 -4 -13 3.86 0.85
-2 -4 13 3.4 0.33
-2 -4 13 3.9 0.75
2 -4 -13 1.91 1
2 -4 -13 3.08 0.84
-2 -4 13 5.06 0.81
2 4 -13 3.84 0.7
-2 4 13 2.72 0.72
2 4 -13 4.27 1.12
-2 4 13 4.52 0.67
-2 4 13 4.08 0.8
2 4 -13 4.49 0.64
-2 4 13 5.03 0.77
-1 -4 13 1.3 0.62
1 -4 -13 1.04 1.02
1 -4 -13 1.75 0.81
-1 -4 13 0.97 0.65
1 -4 -13 -0.07 0.76
-1 4 13 1.06 0.76
-1 4 13 0.33 0.56
1 4 -13 -0.34 0.89
-1 4 13 0.78 0.6
1 4 -13 0.97 0.54
1 4 -13 0.64 0.39
-1 4 13 0.96 0.65
1 4 -13 0.71 0.6
0 -4 13 3.91 0.95
0 -4 -13 3.77 0.93
0 -4 -13 5.52 1.28
0 -4 13 2.98 1.3
0 -4 13 3.02 1.19
0 -4 13 3.88 0.74
0 -4 -13 3.23 0.86
0 4 -13 4.77 0.58
0 4 13 4.63 0.79
0 4 13 2.66 0.77
0 4 13 4.39 0.63
0 4 13 3.49 0.85
0 4 -13 3.41 1.08
0 4 -13 4.2 0.51
0 4 -13 4.66 0.8
-1 -4 -13 -1.24 0.71
1 -4 13 -0.62 0.78
-1 -4 -13 1.35 1.22
1 -4 13 2.55 0.93
1 -4 13 0.09 0.67
1 4 13 0.9 0.78
-1 4 -13 -0.19 0.48
-1 4 -13 -0.08 1.07
-1 4 -13 0.78 0.47
1 4 13 0.71 0.55
1 4 13 0.36 0.34
1 4 13 -0.54 0.77
-1 4 -13 0.62 0.75
1 4 13 -0.37 0.66
2 -4 13 -0.97 0.97
-2 -4 -13 0.91 1.36
-2 -4 -13 0.76 0.86
-2 -4 -13 0.52 0.78
2 -4 13 -1.69 0.66
2 -4 13 0.13 0.93
-2 4 -13 0.91 1.43
-2 4 -13 0.44 0.56
-2 4 -13 -1.59 0.68
2 4 13 -0.08 0.44
2 4 13 -0.72 0.85
2 4 13 -0.87 0.89
2 4 13 1.02 0.77
2 4 13 -0.49 0.52
-3 -4 -13 1.13 1.55
-3 -4 -13 -0.12 0.88
3 -4 13 -0.7 1.1
3 -4 13 0.06 0.75
-3 -4 -13 0.82 0.92
3 -4 13 -0.76 1.02
3 4 13 -1.09 1.04
3 4 13 -0.19 0.98
3 4 13 0.37 0.5
-3 4 -13 -0.57 0.86
-3 4 -13 -1.09 1.58
3 4 13 0.68 0.59
3 4 13 0.14 0.81
4 -4 13 0.8 1.38
4 -4 13 -0.17 1.3
4 -4 13 -0.12 0.92
-4 -4 -13 1.36 1.05
-4 -4 -13 1.83 1.73
-4 -4 -13 -2.28 1.01
-4 4 -13 -1.22 0.9
4 4 13 0.21 0.43
4 4 13 -0.16 0.88
4 4 13 1.04 1.22
-4 4 -13 -0.38 0.79
4 4 13 0.14 1.1
-4 4 -13 2.64 1.79
-5 -4 -13 -2.04 2.01
5 -4 13 -0.09 1.31
-5 -4 -13 0.68 0.86
-5 -4 -13 1.89 1.18
5 -4 13 -0.66 1
5 4 13 0.66 1.42
-5 4 -13 4.45 2.21
5 4 13 0.65 1.44
5 4 13 0.7 1.07
-5 4 -13 -0.09 0.98
5 4 13 -0.26 0.97
10 -5 -13 -0.94 1.29
10 -5 -13 0.26 0.54
10 -5 -13 0.41 1.39
10 -5 -13 -2.4 1.02
-10 -5 13 -1 1.34
10 5 -13 -0.39 1.43
10 5 -13 0.36 1.13
-10 5 13 1.65 0.97
-10 5 13 0.82 1.23
10 5 -13 0.83 0.88
-10 5 13 -0.57 0.92
9 -5 -13 1.62 1.11
-9 -5 13 -0.16 0.49
-9 -5 13 -0.66 0.43
-9 -5 13 -0.6 1.14
9 -5 -13 0.61 0.37
9 -5 -13 -0.75 0.93
9 -5 -13 1.43 1.27
9 5 -13 0.27 0.93
9 5 -13 0.88 0.72
-9 5 13 0.46 1.06
-9 5 13 0.25 0.7
9 5 -13 1.34 1.09
-9 5 13 -0.14 0.86
-9 5 13 1.06 0.81
9 5 -13 -0.05 0.84
9 5 -13 0.44 1
9 5 -13 0.65 0.66
8 -5 -13 0.61 0.2
8 -5 -13 0.68 0.23
-8 -5 13 0.65 0.84
8 -5 -13 0.62 0.93
8 -5 -13 0.45 0.88
-8 -5 13 0.86 1
8 -5 -13 -0.73 1.04
8 5 -13 0.63 0.6
-8 5 13 0.75 0.64
8 5 -13 1.46 0.95
8 5 -13 0.39 0.54
-8 5 13 -0.05 0.88
8 5 -13 0.37 0.88
-8 5 13 2.05 0.75
-8 5 13 1.25 1.02
-8 5 13 1.3 0.98
8 5 -13 -0.99 0.85
7 -5 -13 0.71 0.79
-7 -5 13 -1.13 0.84
7 -5 -13 0.07 0.97
7 -5 -13 -0.79 0.76
-7 -5 13 -0.57 0.51
-7 -5 13 0.64 0.71
7 5 -13 0.39 0.83
7 5 -13 0.5 0.81
7 5 -13 0.2 0.94
7 5 -13 -0.87 0.52
-7 5 13 -0.42 0.8
-7 5 13 -0.46 0.56
-7 5 13 -0.22 0.92
-7 5 13 0.86 0.62
-7 5 13 0.08 0.79
6 -5 -13 0.24 0.91
-6 -5 13 -0.59 0.42
6 -5 -13 1.05 0.84
-6 -5 13 1.3 0.72
-6 -5 13 0.56 0.54
-6 -5 13 0.44 0.65
-6 -5 13 1.07 0.86
6 5 -13 0.46 0.51
-6 5 13 0.49 0.84
6 5 -13 0.03 0.78
-6 5 13 1 0.77
-6 5 13 0.07 0.53
6 5 -13 0.38 0.72
-6 5 13 0.15 0.53
-6 5 13 -0.22 0.71
6 5 -13 0.02 0.86
-5 -5 13 0.64 0.76
5 -5 -13 0.52 0.74
5 -5 -13 0.49 0.82
-5 -5 13 0.33 0.7
-5 -5 13 0.91 0.57
5 -5 -13 -0.08 0.97
5 -5 -13 -0.43 0.63
-5 -5 13 -0.01 0.38
-5 5 13 0.05 0.52
5 5 -13 0.16 0.72
5 5 -13 -0.39 0.67
5 5 -13 0.01 0.85
-5 5 13 0.98 0.7
-5 5 13 0.78 0.72
5 5 -13 -1 0.48
-5 5 13 1.01 0.74
-4 -5 13 -0.26 0.32
-4 -5 13 0.09 0.49
-4 -5 13 -0.82 0.71
4 -5 -13 -0.38 1
-4 -5 13 -0.95 0.66
-4 -5 13 -0.1 0.66
4 -5 -13 0.07 0.59
4 -5 -13 0.71 0.79
4 -5 -13 -1.63 0.62
-4 5 13 -0.52 0.65
-4 5 13 0.06 0.66
-4 5 13 1.04 0.7
4 5 -13 -0.53 0.53
4 5 -13 -0.7 0.92
-3 -5 13 0.73 0.53
-3 -5 13 1.33 0.74
3 -5 -13 -0.4 0.7
3 -5 -13 0.1 0.84
3 -5 -13 -0.68 0.91
-3 -5 13 0.24 0.72
-3 -5 13 0.36 0.32
-3 -5 13 -0.64 0.68
3 -5 -13 -0.42 0.52
-3 5 13 0.4 0.69
3 5 -13 -0.36 0.51
-3 5 13 0.89 0.67
-3 5 13 -0.37 0.59
3 5 -13 0.35 0.67
-3 5 13 -0.48 0.61
3 5 -13 0.39 0.9
-2 -5 13 0.36 0.56
2 -5 -13 -0.17 0.7
-2 -5 13 -0.15 0.72
-2 -5 13 -0.02 0.29
2 -5 -13 -0.36 0.74
-2 -5 13 0.29 0.68
2 -5 -13 -1.25 0.9
-2 5 13 0.48 0.74
-2 5 13 0.17 0.7
2 5 -13 0.13 0.33
2 5 -13 1.5 1.07
-2 5 13 1.28 0.74
2 5 -13 0.16 0.57
2 5 -13 0.43 0.6
-1 -5 13 1.23 0.62
1 -5 -13 -0.48 0.79
1 -5 -13 1.09 1.16
1 -5 -13 1.61 0.83
-1 -5 13 -0.31 0.66
1 5 -13 -0.2 0.55
-1 5 13 0.42 0.76
-1 5 13 -0.29 0.72
1 5 -13 1.12 1.12
1 5 -13 0.57 0.36
-1 5 13 0.44 0.6
-1 5 13 0.32 0.66
0 -5 13 0.68 0.8
0 -5 13 1.48 0.88
0 -5 -13 0.01 1.14
0 -5 -13 0.43 0.84
0 -5 -13 1.07 0.88
0 -5 13 1.26 0.73
0 -5 13 0.52 0.7
0 5 13 -0.6 0.72
0 5 13 1.06 0.83
0 5 13 0.7 0.62
0 5 -13 -0.06 1.07
0 5 -13 0.4 0.53
0 5 -13 0.15 0.63
0 5 13 0.5 0.76
0 5 -13 0.17 0.39
1 -5 13 2.71 0.82
-1 -5 -13 1.95 1.2
1 -5 13 3.04 1.03
1 -5 13 3.09 1.07
1 -5 13 3.26 0.88
-1 -5 -13 3.63 0.95
-1 5 -13 3.55 0.53
-1 5 -13 0.2 0.51
1 5 13 2.28 0.82
1 5 13 2.95 0.65
1 5 13 3.57 0.95
-1 5 -13 2.32 0.84
-1 5 -13 3.78 1.37
1 5 13 2.77 0.87
-2 -5 -13 0.39 1.37
2 -5 13 0.25 0.76
2 -5 13 0.97 1.1
-2 -5 -13 0.79 0.95
2 -5 13 -1.53 1.08
-2 -5 -13 1.54 0.84
-2 5 -13 0.11 0.56
2 5 13 2.54 0.97
2 5 13 0.13 0.45
-2 5 -13 0.25 0.47
-2 5 -13 1.46 1.51
-2 5 -13 -0.18 0.88
2 5 13 -1.28 0.77
2 5 13 0.9 0.89
2 5 13 0.2 0.6
3 -5 13 0.6 0.97
-3 -5 -13 3.22 1.67
3 -5 13 0.52 1.2
-3 -5 -13 -0.18 0.92
-3 -5 -13 -1.24 0.93
3 -5 13 -2.98 1.14
-3 5 -13 0.42 0.67
3 5 13 1.81 0.89
3 5 13 0.88 0.63
3 5 13 -0.06 0.61
-3 5 -13 1.52 1.59
3 5 13 0.21 1
-3 5 -13 -0.3 0.88
3 5 13 1.02 0.92
-4 -5 -13 -0.24 0.68
-4 -5 -13 2.94 1.24
4 -5 13 -0.22 1.54
4 -5 13 -2.07 1.39
-4 -5 -13 1.49 1.13
-4 -5 -13 1.88 1.89
4 -5 13 3.39 1.11
4 5 13 2.49 1.28
-4 5 -13 1.2 0.85
4 5 13 -0.09 1.18
4 5 13 0.78 0.84
4 5 13 0.37 0.6
4 5 13 2.16 1.01
-4 5 -13 2.18 1.12
-4 5 -13 0.12 1.87
5 -5 13 1.27 1.43
-5 -5 -13 0.13 1.28
-5 -5 -13 -0.17 0.82
-5 -5 -13 1.66 2.32
5 -5 13 1.82 1.17
-5 5 -13 0.86 2.15
5 5 13 1.17 0.95
5 5 13 -1.28 1.49
5 5 13 5.11 1.46
5 5 13 1.56 1.09
-5 5 -13 1.17 0.99
5 5 13 -0.03 0.45
10 -6 -13 -0.54 1
10 -6 -13 3.43 1.62
-10 -6 13 -3 1.37
10 -6 -13 2.47 1.29
10 -6 -13 -0.19 0.63
-10 6 13 -0.49 1.16
10 6 -13 -0.69 0.88
-10 6 13 -2.56 1.4
10 6 -13 -0.9 1.09
-10 6 13 0.15 1.03
9 -6 -13 -1.16 1.07
9 -6 -13 0.97 0.48
-9 -6 13 1.99 1.24
9 -6 -13 -0.72 1.09
9 -6 -13 0.93 0.94
9 -6 -13 -1.07 1.35
-9 6 13 0.73 0.98
9 6 -13 1.53 1.01
-9 6 13 -0.17 1.2
9 6 -13 0.56 0.67
9 6 -13 0.86 1.16
9 6 -13 1.45 0.88
-9 6 13 1.17 1.02
-9 6 13 0.48 0.7
9 6 -13 0.91 0.72
-8 -6 13 0.04 1.11
8 -6 -13 -0.53 0.77
8 -6 -13 -0.46 0.99
-8 -6 13 0.63 0.85
8 -6 -13 -0.64 0.95
-8 -6 13 -0.11 0.69
8 -6 -13 0 0.27
8 -6 -13 -0.29 1.18
-8 6 13 -0.35 1.07
-8 6 13 1.53 0.86
8 6 -13 0.03 0.92
8 6 -13 -0.27 0.88
8 6 -13 0.25 0.56
-8 6 13 -0.47 0.9
8 6 -13 0.18 1.02
-8 6 13 0.98 0.65
-8 6 13 -0.83 1.06
8 6 -13 0.11 0.6
7 -6 -13 5.49 1.04
-7 -6 13 4.87 0.8
-7 -6 13 5.37 0.96
7 -6 -13 5.34 1.15
7 -6 -13 4.48 1
-7 -6 13 6.62 1.11
7 -6 -13 6.18 1.14
-7 6 13 4.6 1.08
7 6 -13 6.01 0.98
-7 6 13 3.58 0.92
-7 6 13 6.78 1.11
7 6 -13 5.27 1.13
-7 6 13 6.95 1.03
7 6 -13 6.16 0.8
7 6 -13 5.63 0.56
7 6 -13 6.33 0.9
6 -6 -13 0.89 0.77
-6 -6 13 0.09 0.53
6 -6 -13 1.69 1.04
-6 -6 13 -0.13 0.5
6 -6 -13 1.49 0.86
-6 -6 13 2.09 0.93
-6 6 13 2.99 0.93
6 6 -13 1.02 0.79
6 6 -13 2.43 1.03
6 6 -13 1.39 0.65
-6 6 13 1.14 0.58
-6 6 13 1.74 0.7
6 6 -13 2.1 0.91
6 6 -13 1.99 0.43
-6 6 13 2.4 0.87
-6 6 13 2.11 0.89
5 -6 -13 0.05 0.86
-5 -6 13 -0.87 0.81
5 -6 -13 -0.39 0.79
-5 -6 13 0.38 0.74
5 -6 -13 -0.57 0.67
-5 -6 13 -1.11 0.53
-5 -6 13 -0.02 0.45
5 6 -13 0.8 0.96
-5 6 13 -0.09 0.74
-5 6 13 0.31 0.76
-5 6 13 -0.37 0.56
5 6 -13 -0.16 0.75
-5 6 13 1.46 0.79
5 6 -13 0 0.55
4 -6 -13 0.81 0.87
-4 -6 13 0.86 0.79
4 -6 -13 1.94 0.94
-4 -6 13 -0.25 0.39
-4 -6 13 0.8 0.77
4 -6 -13 0.22 0.6
-4 -6 13 -0.07 0.54
-4 -6 13 -0.66 0.71
4 6 -13 0.17 0.99
-4 6 13 -0.27 0.73
-4 6 13 0.47 0.72
-4 6 13 -0.32 0.65
-4 6 13 0.95 0.78
4 6 -13 -0.9 0.59
-3 -6 13 0.75 0.66
-3 -6 13 0.42 0.38
3 -6 -13 0.58 0.83
-3 -6 13 1.51 0.78
-3 -6 13 0.92 0.79
-3 -6 13 0.97 0.81
3 -6 -13 0.72 0.8
3 -6 -13 0.63 1.15
3 -6 -13 0.99 0.58
-3 6 13 1.1 0.66
3 6 -13 -0.4 0.64
3 6 -13 0.71 0.29
-3 6 13 0.4 0.69
3 6 -13 1.16 1.02
-3 6 13 0.83 0.86
3 6 -13 -0.16 0.7
-3 6 13 0.65 0.69
2 -6 -13 1.12 0.93
-2 -6 13 0.71 0.37
-2 -6 13 0.41 0.76
2 -6 -13 2.26 0.87
2 -6 -13 0.07 1.01
-2 -6 13 0.84 0.76
-2 -6 13 0.58 0.77
2 -6 -13 0.99 0.54
-2 -6 13 1.29 0.67
2 6 -13 0.47 0.66
-2 6 13 -0.01 0.68
2 6 -13 0.7 0.67
-2 6 13 0.15 0.68
2 6 -13 1.17 1.04
-2 6 13 1.86 0.79
2 6 -13 0.62 0.32
-2 6 13 -1.02 0.63
-1 -6 13 1.88 0.9
-1 -6 13 1.79 0.67
1 -6 -13 0.97 1.25
1 -6 -13 0.7 0.93
1 -6 -13 0.71 0.91
-1 -6 13 2.29 0.81
1 6 -13 0.94 0.65
-1 6 13 0.58 0.79
-1 6 13 1.19 0.76
-1 6 13 2.59 0.88
-1 6 13 1.06 0.8
1 6 -13 0.85 0.7
1 6 -13 1.35 0.35
1 6 -13 0.68 1.12
0 -6 -13 5.26 1.5
0 -6 -13 4 1.03
0 -6 -13 5.6 1.1
0 -6 13 4.04 0.97
0 -6 13 3.83 1.09
0 -6 13 4.66 1
0 -6 13 3.75 0.87
0 6 -13 4.16 1.52
0 6 -13 4.58 0.69
0 6 13 4.1 1.02
0 6 13 6.5 1.11
0 6 13 3.83 0.78
0 6 -13 6.34 1.02
0 6 13 4 0.89
0 6 -13 4.29 0.47
-1 -6 -13 2.23 0.99
-1 -6 -13 1.62 1.4
1 -6 13 1.35 0.79
1 -6 13 1.32 1.11
1 -6 13 0.3 0.81
1 -6 13 0.52 0.96
-1 6 -13 2.3 1.43
-1 6 -13 0.22 0.57
1 6 13 1.39 0.81
1 6 13 1.04 0.92
-1 6 -13 2.4 0.97
1 6 13 1.44 0.93
-1 6 -13 1.06 0.47
1 6 13 0.42 0.68
-2 -6 -13 4.77 1.02
-2 -6 -13 2.38 1.07
2 -6 13 2.09 1.12
2 -6 13 3.09 0.95
-2 -6 -13 1.69 1.53
2 -6 13 4.5 0.97
2 -6 13 0.8 1.13
2 6 13 2.55 1.02
2 6 13 4.93 0.75
-2 6 -13 4.1 1.57
2 6 13 4.86 1.05
-2 6 -13 5.9 1.12
2 6 13 3.57 1.04
-2 6 -13 0.41 0.54
2 6 13 2.54 0.56
-2 6 -13 4.5 0.63
3 -6 13 -2.08 1.44
-3 -6 -13 -0.21 0.56
3 -6 13 0.97 0.9
-3 -6 -13 0.3 1.01
-3 -6 -13 -1.31 1.2
3 -6 13 -1.11 1
3 -6 13 1.05 1.27
-3 -6 -13 -0.4 1.71
3 6 13 -2.01 1.03
3 6 13 1.49 1.05
-3 6 -13 -1.16 1.1
3 6 13 0.21 0.59
3 6 13 0.33 0.72
-3 6 -13 -0.91 0.65
-3 6 -13 -0.56 1.64
3 6 13 -0.7 0.93
4 -6 13 -0.74 1.43
-4 -6 -13 0.71 1.2
-4 -6 -13 1.54 2.02
4 -6 13 1.41 1.64
4 -6 13 -1.22 1.05
-4 -6 -13 0.93 0.63
-4 6 -13 1.28 1.98
-4 6 -13 1.23 1.19
4 6 13 -0.11 0.72
4 6 13 -0.24 0.97
4 6 13 -2.5 1.09
4 6 13 -1.32 1.24
4 6 13 1.13 0.78
-4 6 -13 -0.44 0.82
5 -6 13 -2.17 1.19
5 -6 13 -2.47 1.55
-5 -6 -13 2.08 2.39
-5 -6 -13 -2.27 2.3
5 6 13 0.64 0.7
-5 6 -13 -2.98 2.2
-5 6 -13 0.77 1
5 6 13 1.43 2.13
5 6 13 -3.34 1.01
5 6 13 -0.22 1.23
5 6 13 0.3 1.5
9 -7 -13 -1.43 1.3
-9 -7 13 -1.83 1.39
9 -7 -13 -1.34 1.27
9 -7 -13 1.56 1.01
9 -7 -13 -0.28 1.48
-9 7 13 1.59 1.09
-9 7 13 0.03 1.2
9 7 -13 0.55 0.67
9 7 -13 0.21 0.99
-9 7 13 2.39 1.3
9 7 -13 1.18 0.99
9 7 -13 0.45 0.68
-9 7 13 -0.33 0.63
8 -7 -13 -0.64 0.9
8 -7 -13 -0.95 1.09
8 -7 -13 0.68 1.01
-8 -7 13 0.12 1.19
8 -7 -13 -0.05 0.35
-8 -7 13 0.55 0.69
8 -7 -13 0.55 1.26
8 7 -13 0.55 0.61
8 7 -13 -0.21 0.53
-8 7 13 0.35 0.63
-8 7 13 -0.16 1.19
8 7 -13 -0.22 1.17
8 7 -13 -1.13 0.92
-8 7 13 1.15 0.96
-8 7 13 0.36 1.02
-8 7 13 -0.63 1.13
8 7 -13 -1.01 0.9
-7 -7 13 2.36 0.75
7 -7 -13 0.7 1
-7 -7 13 -0.48 0.78
-7 -7 13 0.6 0.59
7 -7 -13 0.85 1.14
7 -7 -13 0.26 0.9
7 -7 -13 -0.44 0.8
-7 -7 13 0.71 0.68
-7 -7 13 1.5 1.12
7 -7 -13 1.2 0.33
7 7 -13 0.87 0.45
7 7 -13 1.45 1.09
7 7 -13 2.78 0.69
-7 7 13 1.45 0.82
-7 7 13 2.47 1.1
7 7 -13 -0.92 0.83
-7 7 13 -0.29 0.58
-7 7 13 1.44 1.09
7 7 -13 0.42 1.06
-7 7 13 0.46 0.98
6 -7 -13 -0.31 0.99
6 -7 -13 -0.37 0.28
-6 -7 13 0.48 0.62
-6 -7 13 -1.21 0.57
-6 -7 13 0.84 0.93
6 -7 -13 -0.4 1.04
-6 -7 13 0.72 0.77
-6 -7 13 -0.12 0.92
6 -7 -13 0.26 0.84
6 7 -13 2.04 0.98
-6 7 13 1.03 0.84
6 7 -13 0.71 0.64
-6 7 13 -0.17 0.9
6 7 -13 -0.31 0.33
6 7 -13 0.48 1.04
-6 7 13 -1.68 0.86
-6 7 13 -0.43 0.85
-6 7 13 0.31 0.59
-5 -7 13 -0.34 0.6
5 -7 -13 0.93 0.71
5 -7 -13 1.51 0.82
-5 -7 13 0.21 0.54
5 -7 -13 0.27 1
5 -7 -13 -0.38 0.27
-5 -7 13 -0.05 0.86
-5 -7 13 0.36 0.83
-5 -7 13 0.24 0.87
5 7 -13 -0.11 0.61
5 7 -13 0.11 0.27
-5 7 13 0.53 0.89
5 7 -13 -0.25 0.86
-5 7 13 -0.72 0.81
-5 7 13 -0.9 0.79
5 7 -13 -0.12 1.04
-4 -7 13 1.11 0.5
4 -7 -13 2.25 0.68
4 -7 -13 1.52 0.97
-4 -7 13 1.75 0.71
-4 -7 13 0.79 0.82
-4 -7 13 0.29 0.82
4 -7 -13 1.69 0.81
4 -7 -13 2.92 1.04
-4 -7 13 1.88 0.9
-4 7 13 1.01 0.84
4 7 -13 0.46 0.66
-4 7 13 3.03 0.98
-4 7 13 2.63 0.8
4 7 -13 2.46 0.88
4 7 -13 1.81 0.23
4 7 -13 1.63 0.22
-4 7 13 1.43 0.84
4 7 -13 0.54 1.03
3 -7 -13 0.09 0.94
-3 -7 13 -0.6 0.44
3 -7 -13 0.4 0.59
-3 -7 13 -0.64 0.66
3 -7 -13 -0.39 0.91
-3 -7 13 0.51 0.8
-3 -7 13 0.12 0.82
-3 -7 13 1.07 0.81
-3 7 13 0.03 0.76
3 7 -13 -0.08 0.72
3 7 -13 0.77 1.06
-3 7 13 0 0.78
-3 7 13 -0.54 0.78
-3 7 13 0.89 0.57
2 -7 -13 1.28 0.57
-2 -7 13 1.61 0.69
-2 -7 13 2.36 0.99
2 -7 -13 1.74 1
-2 -7 13 0.95 0.82
-2 -7 13 0.98 0.84
-2 -7 13 0.67 0.46
2 -7 -13 0.01 1.26
2 -7 -13 1.83 0.97
2 7 -13 -0.19 0.73
-2 7 13 1 0.61
2 7 -13 0.52 0.22
-2 7 13 -0.31 0.85
2 7 -13 1.27 1.21
-2 7 13 1.06 0.77
-2 7 13 0.66 0.81
2 7 -13 2.32 0.77
1 -7 -13 -0.14 0.96
-1 -7 13 0.9 1.27
-1 -7 13 0.97 0.9
-1 -7 13 0.11 0.85
1 -7 -13 0.13 0.53
1 -7 -13 1.52 1.08
1 -7 -13 -0.27 1.23
1 7 -13 0.22 1.16
-1 7 13 0.14 0.8
-1 7 13 0.46 0.76
1 7 -13 1.37 0.72
1 7 -13 -0.64 0.78
-1 7 13 1.09 0.88
-1 7 13 0.81 0.73
1 7 -13 0.43 0.29
0 -7 -13 0.02 0.49
0 -7 -13 -0.23 0.99
0 -7 13 1.52 0.75
0 -7 13 0.22 1.09
0 -7 -13 -0.16 1.37
0 -7 13 0.61 0.96
0 -7 13 0.78 0.9
0 -7 -13 -0.09 1
0 7 -13 -1.07 1.15
0 7 -13 0.37 0.72
0 7 13 1.09 0.79
0 7 13 0.34 0.84
0 7 13 0.62 0.99
0 7 -13 -0.06 0.36
0 7 13 0.63 0.83
0 7 -13 0.05 0.68
-1 -7 -13 0.14 1.32
1 -7 13 1.39 1.1
1 -7 13 0.75 0.91
1 -7 13 2.76 0.96
-1 -7 -13 4.49 1.18
1 -7 13 2.09 1.26
-1 7 -13 2.15 1.51
-1 7 -13 1.92 0.97
-1 7 -13 2.16 0.48
-1 7 -13 -0.68 0.66
1 7 13 2.87 1.1
1 7 13 1.94 1
1 7 13 1 0.94
1 7 13 1.94 0.92
-2 -7 -13 1.46 1.56
2 -7 13 -1.29 1.26
2 -7 13 0.18 0.95
-2 -7 -13 0.43 0.96
-2 -7 -13 -0.94 1.03
2 -7 13 -1.13 0.96
2 -7 13 0.49 1.21
-2 7 -13 2.67 1.79
-2 7 -13 -0.09 0.56
-2 7 -13 -0.56 0.63
2 7 13 1.98 1.06
2 7 13 0 0.98
2 7 13 0.92 0.81
2 7 13 -0.16 0.93
-2 7 -13 -0.22 1.05
3 -7 13 0.94 1.05
3 -7 13 -0.72 1.53
3 -7 13 2.34 1.01
-3 -7 -13 4.23 1.39
-3 -7 -13 -0.88 1.87
3 -7 13 0.42 1.43
-3 -7 -13 0.94 0.46
-3 -7 -13 0.2 1.05
-3 7 -13 -0.46 0.51
3 7 13 0.63 1.09
3 7 13 1.13 1.12
3 7 13 0.97 0.86
-3 7 -13 1.79 1.96
3 7 13 3.96 1.14
-3 7 -13 0.88 1.15
4 -7 13 1.84 1.69
-4 -7 -13 0.45 1.34
4 -7 13 0.66 1.08
4 -7 13 3.49 1.28
-4 -7 -13 2.34 2.33
4 7 13 -0.53 1.09
4 7 13 0.74 1.31
-4 7 -13 3.28 2.22
4 7 13 0.92 0.84
4 7 13 1.24 0.85
4 7 13 0.38 1.21
9 -8 -13 -1.81 1.29
-9 -8 13 -1.59 1.52
9 -8 -13 -0.83 1.08
9 -8 -13 -2.47 1.71
9 8 -13 -0.46 0.63
-9 8 13 -1.82 1.54
-9 8 13 -1.39 1.44
9 8 -13 -0.79 1.03
9 8 -13 -0.29 1.05
8 -8 -13 2.09 1.18
-8 -8 13 0.58 0.93
8 -8 -13 2.54 0.48
-8 -8 13 1.42 0.75
-8 -8 13 2.33 1.37
-8 -8 13 -0.53 0.89
8 -8 -13 4.24 1.52
8 -8 -13 2.71 1.32
8 -8 -13 2.84 1.1
-8 8 13 2.91 1.41
8 8 -13 1.7 0.71
8 8 -13 1.56 1.17
8 8 -13 2.22 0.51
-8 8 13 1.22 1.26
-8 8 13 -0.46 0.61
-8 8 13 0.21 1.24
7 -8 -13 -1.23 1.27
-7 -8 13 -0.22 0.79
7 -8 -13 -0.89 1.15
-7 -8 13 -0.53 0.8
7 -8 -13 0.9 0.97
7 -8 -13 0.86 0.42
7 -8 -13 -0.33 0.98
-7 -8 13 0.02 0.68
-7 -8 13 1.09 1.21
-7 8 13 1.03 1.1
7 8 -13 0.44 0.34
-7 8 13 0.12 0.61
7 8 -13 -0.73 1.19
7 8 -13 0.73 0.67
-7 8 13 0.39 0.97
7 8 -13 0.9 1.2
-7 8 13 1.32 1.18
6 -8 -13 -0.24 1.17
6 -8 -13 -0.4 0.38
-6 -8 13 -0.86 1.03
6 -8 -13 0.88 0.97
6 -8 -13 0.16 0.92
-6 -8 13 0.22 0.68
-6 -8 13 0.77 0.78
-6 -8 13 0.89 1.11
-6 -8 13 0.04 0.71
6 -8 -13 -2.15 1.07
6 8 -13 1.42 1.12
6 8 -13 -0.96 0.68
-6 8 13 -1.16 1.02
-6 8 13 -0.26 1
-6 8 13 0.21 1.06
6 8 -13 -0.13 1.13
-6 8 13 0.52 0.63
-6 8 13 -1.6 0.81
-5 -8 13 -1.06 0.98
5 -8 -13 -2.25 1.14
-5 -8 13 0.53 0.78
-5 -8 13 0.16 0.63
5 -8 -13 -0.15 0.37
-5 -8 13 1.18 0.73
-5 -8 13 0.13 0.91
5 -8 -13 0.29 0.87
5 -8 -13 -0.14 0.74
5 -8 -13 0.07 1.09
5 8 -13 -1.08 0.69
-5 8 13 0.05 0.98
5 8 -13 -0.43 0.99
5 8 -13 -0.23 1.12
-5 8 13 -0.52 0.72
-5 8 13 0.6 1.01
-5 8 13 -1.16 0.96
4 -8 -13 1.93 0.99
4 -8 -13 0.73 0.41
4 -8 -13 1.95 1.13
-4 -8 13 1.52 0.96
-4 -8 13 1.4 0.68
4 -8 -13 0.6 0.7
-4 -8 13 -0.49 1.54
4 -8 -13 -0.08 1.04
-4 -8 13 1.17 0.59
-4 -8 13 2.59 1.04
4 8 -13 1.19 0.72
-4 8 13 1.17 0.99
4 8 -13 1.11 0.89
-4 8 13 -0.29 0.88
-4 8 13 1.71 0.92
4 8 -13 1.67 1.16
-4 8 13 0.88 0.93
3 -8 -13 0.86 0.65
3 -8 -13 0.3 1.02
3 -8 -13 1.16 1.01
-3 -8 13 1.48 0.88
-3 -8 13 0.24 0.53
-3 -8 13 1.73 0.72
3 -8 -13 -0.6 0.88
-3 -8 13 0.39 0.94
3 -8 -13 0.07 0.45
-3 -8 13 1.82 0.98
3 8 -13 0.61 1.16
-3 8 13 0.81 0.86
3 8 -13 1.15 0.87
-3 8 13 0.88 0.91
3 8 -13 -0.12 0.76
-3 8 13 0.4 0.6
-3 8 13 0.58 0.96
-2 -8 13 4.27 0.96
2 -8 -13 3.51 1.08
-2 -8 13 3.61 0.95
2 -8 -13 3.38 1.21
-2 -8 13 4.23 0.61
-2 -8 13 2.27 1.04
-2 8 13 3.03 0.89
-2 8 13 4.68 0.98
2 8 -13 4.2 0.95
-2 8 13 4.18 1.18
2 8 -13 3.07 1.36
-2 8 13 5.13 1.16
1 -8 -13 0.43 0.5
-1 -8 13 -0.52 1.06
1 -8 -13 -0.07 1.02
-1 -8 13 -0.59 1.01
-1 -8 13 1.18 0.83
1 -8 -13 -0.45 1.03
1 -8 -13 -1.89 1.45
-1 -8 13 -0.17 0.95
1 8 -13 0 0.88
-1 8 13 0.77 0.92
-1 8 13 -0.28 0.82
1 8 -13 2.24 1.29
1 8 -13 0.68 0.8
-1 8 13 1.35 0.74
-1 8 13 -0.84 0.93
0 -8 -13 0.35 1.04
0 -8 13 -0.69 1.14
0 -8 13 0.89 0.87
0 -8 13 -0.81 0.93
0 -8 13 -1.3 1.05
0 -8 -13 -1.3 1.47
0 -8 -13 -0.25 0.45
0 -8 -13 -0.86 1.13
0 8 13 0.8 0.93
0 8 -13 -0.66 0.89
0 8 13 0.95 0.9
0 8 -13 0.41 1.34
0 8 13 -0.09 0.98
0 8 13 0.04 0.7
0 8 -13 -0.06 0.92
-1 -8 -13 0.26 0.39
1 -8 13 0.13 1.04
-1 -8 -13 1.88 1.13
-1 -8 -13 1.1 1.68
1 -8 13 0.23 0.91
1 -8 13 -0.48 1.16
1 -8 13 -2.71 1.31
-1 8 -13 -1.75 0.94
1 8 13 2.38 0.95
-1 8 -13 -0.09 0.77
1 8 13 1.4 0.93
1 8 13 -0.76 0.98
1 8 13 0.04 0.95
-1 8 -13 0.59 1.5
2 -8 13 -0.64 1.11
2 -8 13 -1.1 1.4
-2 -8 -13 1.93 1.12
-2 -8 -13 3.34 1.36
2 -8 13 -0.68 0.92
2 -8 13 0.25 1.6
-2 -8 -13 3.06 1.9
2 8 13 1.7 0.97
2 8 13 1.39 1.15
-2 8 -13 0.59 1.04
2 8 13 1.11 1.06
-2 8 -13 -0.1 1.83
2 8 13 3.38 1.22
-2 8 -13 -0.15 0.76
3 -8 13 0.56 1.56
3 -8 13 -0.49 1.07
-3 -8 -13 -1.74 1.93
-3 -8 -13 0.25 1.26
3 -8 13 -1.63 1.18
3 -8 13 -2.89 1.75
-3 8 -13 2.49 2.14
-3 8 -13 -0.92 1.21
3 8 13 1.68 1.17
3 8 13 0.58 1.01
3 8 13 0.27 1.07
3 8 13 -0.32 1.16
-3 8 -13 -0.25 0.7
8 -9 -13 0.23 1.63
-8 -9 13 0.57 0.88
8 -9 -13 0.81 1.19
8 -9 -13 0.44 0.56
-8 -9 13 -0.08 1.6
8 -9 -13 -0.59 1.2
-8 -9 13 0.93 1.12
8 -9 -13 0.75 1.5
-8 9 13 -0.06 1.48
-8 9 13 1.2 1.51
8 9 -13 -0.18 1.24
7 -9 -13 -0.11 1.04
-7 -9 13 0.73 1.31
-7 -9 13 -0.46 0.85
7 -9 -13 3.1 1.22
7 -9 -13 -1.15 1.38
-7 -9 13 -1.03 0.96
7 -9 -13 -3.17 1.31
7 -9 -13 0.56 0.52
-7 -9 13 -1.68 1.13
-7 -9 13 1.7 0.79
-7 9 13 1.43 1.44
-7 9 13 1.39 1.28
7 9 -13 1.59 1.33
7 9 -13 -1.4 0.72
-7 9 13 0.74 0.63
-7 9 13 -0.35 1.37
6 -9 -13 1.57 1.04
-6 -9 13 1.15 0.87
-6 -9 13 2.47 1.27
-6 -9 13 0.1 0.77
-6 -9 13 0.92 1.14
6 -9 -13 2.01 0.97
6 -9 -13 -1.16 1.36
6 -9 -13 1.19 0.5
6 -9 -13 -0.33 1.28
-6 -9 13 0.47 0.81
-6 9 13 1.67 1.32
6 9 -13 2.23 1.37
-6 9 13 0.12 1.17
-6 9 13 -0.02 0.66
-6 9 13 -0.66 1.14
6 9 -13 -0.1 0.81
-6 9 13 1.05 1.14
6 9 -13 0.92 1.17
5 -9 -13 -1.07 0.8
-5 -9 13 0.28 0.76
5 -9 -13 0.15 1.32
5 -9 -13 -1.14 1.21
-5 -9 13 0.66 0.9
-5 -9 13 -0.21 1.12
-5 -9 13 -0.13 1.16
-5 -9 13 0.53 0.82
5 -9 -13 0.55 1.09
5 -9 -13 0.47 0.5
-5 9 13 -0.88 0.98
5 9 -13 1.03 1.34
5 9 -13 0.19 1.1
-5 9 13 0.09 1.17
-5 9 13 1.77 1.09
5 9 -13 1.93 0.81
-5 9 13 0.05 1.12
4 -9 -13 0.83 0.73
4 -9 -13 1.47 0.52
4 -9 -13 2.06 1.19
-4 -9 13 1.63 1.08
4 -9 -13 -0.77 1.22
4 -9 -13 2.25 1.08
-4 -9 13 0.57 1.04
-4 -9 13 -0.95 0.83
-4 -9 13 -1.01 1.71
-4 9 13 -0.04 1.03
4 9 -13 0.89 0.84
4 9 -13 1.98 1.48
4 9 -13 0.35 1.03
-4 9 13 1.63 1.04
-4 9 13 1.4 0.93
-4 9 13 0.14 1.08
-3 -9 13 0.55 0.84
-3 -9 13 0.73 0.99
3 -9 -13 -0.15 0.62
3 -9 -13 1.2 1.19
-3 -9 13 -0.44 0.73
3 -9 -13 0.22 1.13
-3 -9 13 -2.67 1.01
-3 -9 13 -0.19 1.08
3 -9 -13 0.58 1.09
3 -9 -13 -0.03 0.55
-3 9 13 -1.17 1.07
3 9 -13 -1.77 1.25
-3 9 13 0 0.95
3 9 -13 -0.74 0.96
-3 9 13 0.28 0.93
-3 9 13 0.68 1.07
3 9 -13 -1.37 0.82
2 -9 -13 0.05 1.15
2 -9 -13 0.29 0.55
-2 -9 13 1.31 1.22
2 -9 -13 -0.44 1.06
2 -9 -13 0.05 0.62
-2 -9 13 0.42 0.64
-2 -9 13 0.65 1.05
2 -9 -13 0.52 1.2
2 9 -13 -0.13 1.47
-2 9 13 -0.11 1.12
2 9 -13 0.91 0.95
-2 9 13 0.17 1.04
-2 9 13 1.71 1.01
2 9 -13 -0.72 0.93
-2 9 13 -0.21 0.91
-1 -9 13 -2.6 1.15
1 -9 -13 -0.41 0.47
-1 -9 13 0.21 1.02
1 -9 -13 0.43 1.15
1 -9 -13 1.01 1.25
-1 -9 13 -0.38 1.04
-1 -9 13 0.23 0.86
-1 9 13 -1.65 1.08
-1 9 13 -0.95 0.93
-1 9 13 -1.83 0.97
1 9 -13 -0.67 1.03
-1 9 13 0.98 0.71
1 9 -13 1.1 1.45
1 9 -13 -1.23 0.89
0 -9 -13 -0.08 1.15
0 -9 -13 1.09 1.67
0 -9 13 1.54 1.11
0 -9 -13 -0.25 0.32
0 -9 -13 -3.35 1.28
0 -9 13 1.48 0.98
0 -9 13 -1.18 1.2
0 -9 13 -0.65 1.18
0 9 -13 1.42 1.61
0 9 13 -1.3 1.05
0 9 -13 0.99 1.09
0 9 13 0.4 1.03
0 9 -13 0.35 1.04
0 9 13 -0.46 0.97
0 9 13 -0.31 1.1
-1 -9 -13 1.44 1.89
1 -9 13 -2.16 1.31
1 -9 13 0.5 0.99
1 -9 13 -0.22 1.14
1 -9 13 -2.09 1.23
1 9 13 2.9 1.08
1 9 13 1.71 0.98
-1 9 -13 0.92 1.11
1 9 13 -0.11 1.09
1 9 13 -0.84 1.11
-1 9 -13 0.33 0.96
-1 9 -13 1.63 1.92
-2 -9 -13 1.23 1.28
2 -9 13 -1.1 1.57
-2 -9 -13 1.88 2.11
2 -9 13 0.01 1.3
2 -9 13 2.99 1.21
-2 9 -13 0.04 1.14
2 9 13 0.17 1.08
2 9 13 -0.45 1.11
-2 9 -13 -0.19 0.89
2 9 13 0.28 1.29
2 9 13 -0.67 0.9
-2 9 -13 -1.18 2.08
3 -9 13 0.32 1.34
-3 -9 -13 -4.18 2.23
3 -9 13 0.69 1.33
3 9 13 0.77 2.22
-3 9 -13 1.8 2.48
3 9 13 1.05 1.19
3 9 13 -0.95 1.26
3 9 13 3.11 1.17
-7 -10 13 1.08 1.37
7 -10 -13 -0.16 0.66
7 -10 -13 0.75 1.63
-7 -10 13 1.53 1.18
7 -10 -13 0.53 1.64
-7 -10 13 2.3 1.67
7 -10 -13 -0.7 1.49
7 -10 -13 0.19 1.08
-7 10 13 -1.85 1.51
7 10 -13 1.84 1.52
-7 10 13 0.38 1.61
-6 -10 13 -0.17 0.83
6 -10 -13 0.51 0.97
6 -10 -13 0.05 1.11
6 -10 -13 -0.2 0.59
-6 -10 13 0.74 1.33
6 -10 -13 -3.03 1.44
-6 -10 13 1.43 0.89
6 -10 -13 -0.52 1.39
-6 -10 13 -1.3 1.03
-6 -10 13 4.02 1.52
-6 10 13 -1.84 1.4
6 10 -13 0.55 1.51
-6 10 13 -0.5 1.29
-6 10 13 -0.28 0.7
-6 10 13 0.15 1.25
6 10 -13 1.5 0.95
-5 -10 13 1.08 0.88
5 -10 -13 -0.68 1.34
-5 -10 13 0.87 1.34
5 -10 -13 0.58 0.63
5 -10 -13 -0.24 1.45
-5 -10 13 -0.47 1.29
5 -10 -13 1.67 0.84
-5 -10 13 -0.41 0.9
5 -10 -13 -1.89 1.14
-5 -10 13 1.21 0.88
5 10 -13 -0.88 1.25
-5 10 13 0.5 1.24
-5 10 13 -1.05 1.22
5 10 -13 0.19 1.4
5 10 -13 0.09 0.94
-5 10 13 -1.42 1.37
-4 -10 13 1.36 0.84
-4 -10 13 0.1 0.95
-4 -10 13 1.21 1.38
4 -10 -13 1.35 1.32
4 -10 -13 -0.04 0.61
4 -10 -13 0.35 1.14
4 -10 -13 0.42 0.72
-4 -10 13 -0.24 1.29
-4 10 13 0.3 1.06
4 10 -13 1.48 1.58
4 10 -13 -0.24 1.2
-4 10 13 0.71 1.29
-4 10 13 -1.48 1.16
-4 10 13 0.45 1.13
-3 -10 13 -0.32 1.03
-3 -10 13 -1.23 1.22
-3 -10 13 -0.71 1.05
-3 -10 13 0.72 1.36
3 -10 -13 -1.47 1.44
3 -10 -13 1.3 1.16
3 -10 -13 1.65 1.29
3 -10 -13 -0.38 0.68
3 -10 -13 0.37 0.62
-3 -10 13 0.78 0.8
3 10 -13 1.04 1.14
3 10 -13 -0.53 1.01
-3 10 13 -0.46 1.01
-3 10 13 2.02 1.18
-3 10 13 1.44 0.96
-3 10 13 0.6 1.32
3 10 -13 -0.3 1.63
2 -10 -13 1.29 1.6
-2 -10 13 -1.15 1.29
2 -10 -13 0.47 1.29
-2 -10 13 1.9 1.06
-2 -10 13 1.27 0.76
2 -10 -13 1.38 0.74
2 -10 -13 0.5 1.24
-2 -10 13 1.6 1.18
2 -10 -13 0.05 0.5
-2 10 13 2.5 1.36
-2 10 13 0.63 0.89
-2 10 13 1.56 1.05
-2 10 13 -0.64 1.23
2 10 -13 0.2 0.98
2 10 -13 -0.61 1.58
2 10 -13 -0.57 1.11
-1 -10 13 -1.18 1.08
1 -10 -13 -3.18 1.45
-1 -10 13 -0.8 1.21
-1 -10 13 1.56 1.18
1 -10 -13 0.67 1.27
-1 -10 13 -0.62 1.4
1 10 -13 -0.07 1.1
-1 10 13 1.16 1.23
-1 10 13 0.11 1.23
1 10 -13 -0.44 1.11
-1 10 13 0.34 0.87
1 10 -13 -1.72 1.64
-1 10 13 1.21 1.07
0 -10 13 -1.67 1.32
0 -10 13 -1.25 1.24
0 -10 -13 -3.47 1.67
0 -10 -13 -3.94 1.85
0 -10 -13 0.45 1.33
0 -10 13 -0.11 1.16
0 10 13 -2.09 1.27
0 10 -13 -1.31 1.97
0 10 13 0.36 1.3
0 10 -13 -2.82 1.13
0 10 13 -0.23 1.06
0 10 -13 -0.52 1.09
0 10 13 -0.7 1.18
1 -10 13 -2.66 1.18
1 -10 13 1.31 1.3
-1 -10 -13 2.5 2.16
1 -10 13 -1 1.53
1 10 13 -1.14 1.24
1 10 13 -1.36 1.08
-1 10 -13 0.75 2.13
-1 10 -13 -2.19 1.31
1 10 13 0.37 0.99
1 10 13 0.84 1.3
2 -10 13 1.62 1.35
2 -10 13 0.95 1.41
2 -10 13 1.27 1.79
-2 -10 -13 -3.51 2.33
2 10 13 -1.99 1.31
-2 10 -13 1.2 1.52
-2 10 -13 0.88 2.29
2 10 13 0.02 1.24
2 10 13 -0.02 1.33
-5 -11 13 1.51 1.08
5 -11 -13 0.62 0.9
5 -11 -13 -2.48 1.73
-5 -11 13 -3.87 1.51
5 -11 -13 -0.46 0.75
5 -11 -13 1.19 1.66
5 -11 -13 -0.18 1.34
-5 -11 13 0.86 1.13
-5 11 13 -0.73 1.43
5 11 -13 -0.13 1.06
5 11 -13 -3.1 1.64
-5 11 13 0.34 1.4
-5 11 13 -1.27 1.56
-4 -11 13 1.66 1.08
4 -11 -13 0.37 0.77
4 -11 -13 -0.52 1.65
4 -11 -13 -0.45 0.75
-4 -11 13 1.18 1
-4 -11 13 0.48 1.45
-4 -11 13 -1.24 0.99
4 -11 -13 -0.34 1.54
4 -11 -13 -0.98 1.3
4 11 -13 2.03 1.67
-4 11 13 -1.11 1.18
-4 11 13 -2.42 1.5
-4 11 13 0.75 1.47
4 11 -13 -0.74 1.29
4 11 -13 0.88 1.43
3 -11 -13 0.09 0.69
3 -11 -13 0.41 1.49
-3 -11 13 -0.63 1.01
3 -11 -13 1.6 1.37
3 -11 -13 -0.91 0.83
-3 -11 13 0.36 0.95
3 -11 -13 5.15 1.63
-3 -11 13 0.21 1.12
-3 -11 13 -1.59 1.37
3 11 -13 1.87 1.41
-3 11 13 -0.53 1.38
-3 11 13 0.83 1.44
-3 11 13 1.82 1.2
3 11 -13 -1.04 1.09
3 11 -13 0.18 1.91
2 -11 -13 2.02 1.47
2 -11 -13 -0.68 0.87
-2 -11 13 0.01 0.88
2 -11 -13 3.01 1.46
-2 -11 13 1.17 1.39
2 -11 -13 0.89 1.87
-2 11 13 -0.44 1.41
2 11 -13 2.77 2.01
2 11 -13 -2.71 1.14
2 11 -13 0.42 1.31
-2 11 13 -1.42 1.15
-2 11 13 -0.06 1.53
-2 11 13 -1.64 1.48
1 -11 -13 0.07 1.36
1 -11 -13 2.16 1.44
-1 -11 13 0.38 0.89
-1 -11 13 1.98 1.39
-1 -11 13 3.26 1.27
-1 -11 13 1.41 1.32
1 -11 -13 1.07 1
-1 11 13 2.53 1.44
1 11 -13 -1.35 1.29
-1 11 13 2.02 1.48
-1 11 13 3.74 1.2
1 11 -13 2.75 2.15
1 11 -13 4.44 1.39
-1 11 13 -1.36 1.3
0 -11 13 1.28 1.46
0 -11 -13 1.33 1.53
0 -11 13 -2.72 1.55
0 -11 13 3.2 1.36
0 11 -13 -0.79 1.33
0 11 13 2.17 1.55
0 11 13 0.39 1.5
0 11 -13 0.71 1.29
0 11 13 2.9 1.24
0 11 -13 0.84 2.37
0 11 13 2.03 1.6
11 0 -14 -1.06 1.08
11 0 -14 0.71 0.44
-11 0 14 -2.33 1.25
11 0 -14 -0.47 1.44
10 0 -14 -0.42 0.8
-10 0 14 1.34 0.63
10 0 -14 0.31 1.11
10 0 -14 -0.65 1.27
10 0 -14 0.8 1.24
-10 0 14 0.19 1.09
-10 0 14 1.77 0.6
10 0 -14 0.02 1.29
9 0 -14 0.45 1.07
-9 0 14 -0.56 0.58
-9 0 14 0.41 0.59
9 0 -14 0.49 0.68
9 0 -14 0.13 1.04
9 0 -14 -0.01 1.01
-9 0 14 1.28 0.91
9 0 -14 0.91 1.02
-9 0 14 0.01 1.1
-9 0 14 0.48 1.08
-8 0 14 2.12 0.67
8 0 -14 0.85 0.96
8 0 -14 3.05 1.02
8 0 -14 0.99 0.69
8 0 -14 3.19 1.08
8 0 -14 3.05 0.91
-8 0 14 3.53 0.99
-8 0 14 2.58 0.83
-8 0 14 2.72 0.96
7 0 -14 0.91 0.68
7 0 -14 0.43 0.95
-7 0 14 1.86 0.87
-7 0 14 1.31 0.81
-7 0 14 0.81 0.55
-7 0 14 0.37 0.72
7 0 -14 1.09 0.84
7 0 -14 0.73 0.88
-7 0 14 -0.27 0.55
6 0 -14 0.88 0.63
6 0 -14 -0.16 0.9
-6 0 14 0.76 0.53
-6 0 14 -0.62 0.56
-6 0 14 -0.86 0.71
6 0 -14 -0.72 0.81
-6 0 14 0.1 0.72
-6 0 14 0.94 0.71
6 0 -14 -0.59 0.78
-5 0 14 4.22 0.77
-5 0 14 3.52 0.7
5 0 -14 3.23 1.01
-5 0 14 2.15 0.73
5 0 -14 3.46 0.81
5 0 -14 3.18 0.81
-5 0 14 3.64 0.71
-5 0 14 4.06 0.73
4 0 -14 2.23 1.02
-4 0 14 3.02 0.72
-4 0 14 1.56 0.83
-4 0 14 2.23 0.65
4 0 -14 2.12 0.81
4 0 -14 3.15 0.69
4 0 -14 2.59 0.75
-4 0 14 3.72 0.7
3 0 -14 -0.99 0.85
3 0 -14 0.65 0.63
3 0 -14 0.57 0.77
-3 0 14 -0.11 0.57
-3 0 14 0.53 0.52
-3 0 14 -1.52 0.76
2 0 -14 10.03 1.27
-2 0 14 10.1 1.11
2 0 -14 7.72 0.97
-2 0 14 8.91 0.92
-2 0 14 9.42 0.72
2 0 -14 10.05 1.39
1 0 -14 0.71 0.69
-1 0 14 0.14 0.15
-1 0 14 0.43 0.94
-1 0 14 -0.21 0.66
1 0 -14 0.57 1.05
-1 0 14 0.57 0.51
0 0 -14 3.3 0.88
0 0 14 3.59 0.82
0 0 -14 3.43 0.64
0 0 14 4.92 0.94
0 0 -14 2.37 1.11
-1 0 -14 6.9 0.77
-1 0 -14 4.96 1.02
-1 0 -14 4.21 1.41
1 0 14 4.08 0.91
1 0 14 7.32 1.16
1 0 14 6.25 1.11
-2 0 -14 -0.69 0.79
2 0 14 -0.1 1.02
2 0 14 0.69 0.59
2 0 14 0.51 0.89
2 0 14 1.54 0.84
-2 0 -14 1.73 1.46
-2 0 -14 0.42 0.7
3 0 14 -0.42 1.2
3 0 14 0.72 0.98
-3 0 -14 1.3 0.86
-3 0 -14 0.1 1.51
3 0 14 0.87 0.91
-3 0 -14 0.2 1.02
3 0 14 1.09 0.87
-4 0 -14 1.61 1.04
-4 0 -14 3.76 2.03
4 0 14 0.57 1.38
4 0 14 2.78 1.32
4 0 14 -0.72 0.93
-4 0 -14 1.09 1.3
-5 0 -14 -1.89 2.12
5 0 14 2.91 1.42
5 0 14 -0.29 1.21
-5 0 -14 -1.66 1.21
5 0 14 -1.66 1.02
11 -1 -14 1.38 1.56
11 -1 -14 1.27 1.22
-11 -1 14 -1.65 1.3
-11 1 14 0.43 0.73
-11 1 14 1.69 1.47
11 1 -14 3.26 1.44
-11 1 14 -1.64 1.19
11 1 -14 1.57 1.27
-10 -1 14 -0.25 1.14
-10 -1 14 -1.02 0.67
-10 -1 14 1.24 0.56
10 -1 -14 -0.82 1.13
10 -1 -14 0.26 0.84
10 -1 -14 0.59 1.32
10 -1 -14 -0.19 1.22
-10 1 14 -0.9 0.61
-10 1 14 1.57 1.16
10 1 -14 1.11 1.03
10 1 -14 -2.76 1.32
10 1 -14 -0.67 1.2
10 1 -14 1.11 0.89
-10 1 14 -1.46 0.66
-10 1 14 -0.38 1.03
10 1 -14 0.25 1.55
9 -1 -14 2.32 1.14
9 -1 -14 0.42 0.75
-9 -1 14 2.08 0.68
-9 -1 14 2.17 1.09
-9 -1 14 2.83 0.97
9 -1 -14 3.25 1.14
9 -1 -14 1 1.05
9 1 -14 2.55 0.73
9 1 -14 2.35 1.09
-9 1 14 1.8 1.08
-9 1 14 2.42 0.9
9 1 -14 2.91 1.06
-9 1 14 2.92 1.12
-9 1 14 0.61 0.6
-9 1 14 1.96 0.72
9 1 -14 1.47 1.01
9 1 -14 2.76 1.16
8 -1 -14 -0.73 0.97
-8 -1 14 1.22 0.54
8 -1 -14 0.71 1.02
-8 -1 14 -0.83 0.89
-8 -1 14 0.12 0.63
-8 -1 14 0.26 0.82
8 -1 -14 1.27 0.87
8 -1 -14 0.7 0.75
-8 1 14 -0.04 0.59
-8 1 14 -0.78 0.95
8 1 -14 -0.31 0.69
8 1 -14 -0.58 0.95
-8 1 14 -0.72 0.76
8 1 -14 -0.24 0.95
8 1 -14 -0.24 0.86
8 1 -14 0.33 1.01
-8 1 14 0.82 0.88
-8 1 14 -0.21 0.64
-7 -1 14 0.02 0.78
7 -1 -14 0.17 0.93
-7 -1 14 0.53 0.54
-7 -1 14 -0.64 0.57
7 -1 -14 -0.37 0.61
7 -1 -14 -0.58 0.78
-7 -1 14 0.73 0.83
-7 -1 14 0.18 0.75
7 -1 -14 -1.62 0.87
-7 1 14 0.37 0.69
7 1 -14 -0.06 0.87
-7 1 14 -0.74 0.55
-7 1 14 -0.19 0.78
7 1 -14 0.78 0.87
7 1 -14 -0.49 0.86
7 1 -14 -0.41 0.59
-7 1 14 0.48 0.6
-7 1 14 0.43 0.79
6 -1 -14 0.9 0.67
6 -1 -14 1.53 0.9
-6 -1 14 -0.95 0.51
-6 -1 14 0.91 0.68
6 -1 -14 -0.3 0.95
-6 -1 14 0.05 0.54
-6 -1 14 1.54 0.75
-6 -1 14 1.01 0.68
6 1 -14 0.75 0.8
6 1 -14 0.16 0.79
-6 1 14 0 0.7
-6 1 14 0.93 0.79
6 1 -14 0.33 0.63
-6 1 14 0.35 0.55
-6 1 14 0.41 0.64
-6 1 14 0.16 0.56
6 1 -14 0.54 0.95
5 -1 -14 1.07 0.84
5 -1 -14 -0.63 0.86
-5 -1 14 -1 0.57
5 -1 -14 -0.12 0.65
-5 -1 14 0.71 0.51
-5 -1 14 1.35 0.66
-5 -1 14 0.38 0.68
5 1 -14 0.93 0.66
5 1 -14 -0.44 0.86
-5 1 14 0.68 0.7
-5 1 14 0.25 0.62
-5 1 14 -0.17 0.56
5 1 -14 0.86 0.79
-5 1 14 -0.41 0.67
-5 1 14 0.04 0.62
4 -1 -14 -0.09 0.94
4 -1 -14 0.88 0.82
-4 -1 14 0.13 0.6
-4 -1 14 0.16 0.67
4 -1 -14 1.04 0.64
-4 -1 14 0.5 0.52
-4 -1 14 -0.75 0.61
-4 1 14 -0.71 0.52
-4 1 14 -0.63 0.64
4 1 -14 0.63 0.94
-4 1 14 0.08 0.59
-4 1 14 0.91 0.86
4 1 -14 0.11 0.65
4 1 -14 -0.44 0.6
-4 1 14 -0.2 0.6
4 1 -14 0.17 0.77
3 -1 -14 1.08 0.81
-3 -1 14 1.43 0.65
-3 -1 14 0.85 0.57
3 -1 -14 0.35 0.62
-3 -1 14 0.77 0.59
3 -1 -14 0.04 0.88
-3 1 14 0.6 0.71
-3 1 14 1.02 0.6
3 1 -14 1.98 0.67
3 1 -14 1.09 0.81
-3 1 14 0.2 0.6
3 1 -14 1.38 0.96
2 -1 -14 5.5 1.21
-2 -1 14 4.93 0.83
-2 -1 14 3.19 0.81
2 -1 -14 5.19 0.95
-2 1 14 4.57 0.64
2 1 -14 6.24 0.94
-2 1 14 4.76 0.82
2 1 -14 3.74 1
2 1 -14 5.05 0.94
-1 -1 14 0.55 0.69
-1 -1 14 -0.81 0.65
-1 -1 14 -0.15 0.24
1 -1 -14 1.16 0.73
1 -1 -14 -0.01 0.82
-1 -1 14 0.29 0.79
1 -1 -14 0.93 1.07
1 1 -14 0.05 0.7
1 1 -14 0.83 1.05
-1 1 14 0.42 0.52
-1 1 14 1.39 0.79
-1 1 14 1.07 0.75
0 -1 -14 0.94 0.8
0 -1 -14 2.85 1.22
0 -1 14 1.13 0.68
0 -1 14 0.38 0.36
0 -1 14 0.37 0.8
0 -1 14 0.85 0.79
0 1 -14 1.56 1.05
0 1 14 1.55 0.51
0 1 -14 0.67 0.77
0 1 -14 1.97 0.56
0 1 14 0.29 0.26
0 1 14 2.13 0.72
0 1 14 1.42 0.84
1 -1 14 1.93 0.75
-1 -1 -14 0.89 0.65
-1 -1 -14 -0.33 0.7
1 -1 14 -1.01 0.82
1 -1 14 0.23 0.48
1 -1 14 -0.74 0.87
-1 -1 -14 0.76 1.3
-1 1 -14 1.05 0.85
1 1 14 1.01 0.46
-1 1 -14 -0.04 0.61
-1 1 -14 0.86 1.35
1 1 14 -1.75 0.89
1 1 14 0.16 0.39
1 1 14 1.98 0.99
1 1 14 0.59 0.75
-2 -1 -14 2.01 0.76
-2 -1 -14 1.19 1.51
2 -1 14 1.46 0.86
2 -1 14 0.58 1.06
2 -1 14 3.99 1.05
2 -1 14 2.81 0.67
-2 -1 -14 3.35 1.03
-2 1 -14 1.14 0.68
2 1 14 2.66 0.93
-2 1 -14 2.05 0.87
-2 1 -14 0.72 1.46
2 1 14 2 1.06
2 1 14 2.61 1.04
2 1 14 0.54 0.53
3 -1 14 1.13 0.92
-3 -1 -14 -0.79 1.56
3 -1 14 1.5 0.86
3 -1 14 -0.32 0.97
-3 -1 -14 -1.03 0.85
-3 -1 -14 1.06 1.09
3 -1 14 2.07 1.2
3 1 14 0.34 0.69
3 1 14 1.78 1.06
3 1 14 -1.07 0.81
-3 1 -14 0.57 1.59
3 1 14 1.27 1.12
-3 1 -14 -0.1 0.83
-3 1 -14 1.93 1.13
-4 -1 -14 -1.86 1.27
4 -1 14 1.39 1.2
4 -1 14 0.94 0.94
-4 -1 -14 1.61 1.06
4 -1 14 1.86 1.45
-4 -1 -14 1.28 1.97
4 1 14 1.4 0.99
4 1 14 -1.24 1.33
4 1 14 1.98 1.44
-4 1 -14 0.68 1.01
-4 1 -14 2.2 2.05
-4 1 -14 1.43 1.12
5 -1 14 1.12 1.04
-5 -1 -14 0.71 1.26
5 -1 14 1.21 1.3
-5 -1 -14 1.79 2.29
5 -1 14 -3.97 1.53
5 1 14 3.53 1.6
-5 1 -14 1.79 1.19
5 1 14 2.19 1.18
5 1 14 -0.78 1.11
-5 1 -14 0.69 2.23
-11 -2 14 -2.54 1.37
11 -2 -14 -1.21 1.57
11 -2 -14 0.84 1.29
11 2 -14 -0.96 1.4
-11 2 14 1.48 1.64
11 2 -14 -1.2 1.21
-11 2 14 1.84 0.86
10 -2 -14 -0.64 1.41
10 -2 -14 1.06 1.35
-10 -2 14 -0.7 1.19
10 -2 -14 -0.13 0.88
10 -2 -14 2.08 1.22
-10 -2 14 0.24 0.5
-10 2 14 0.28 0.72
-10 2 14 1.68 1.18
10 2 -14 0.25 0.99
10 2 -14 -0.01 1.19
-10 2 14 -0.51 1.01
10 2 -14 -0.22 0.79
-10 2 14 -0.6 0.68
9 -2 -14 0.03 0.89
-9 -2 14 -0.66 0.57
9 -2 -14 0.66 1.15
9 -2 -14 0.35 0.99
-9 -2 14 0.74 0.97
9 -2 -14 -0.97 1.08
-9 -2 14 -1.36 1.03
9 2 -14 0.15 1.07
-9 2 14 -0.24 0.86
-9 2 14 -0.64 1.1
-9 2 14 0.11 0.7
9 2 -14 -0.75 1.08
9 2 -14 0.07 0.94
9 2 -14 0.72 0.61
-9 2 14 0.76 1.1
9 2 -14 -2.16 1.03
-9 2 14 -0.21 0.71
-8 -2 14 0 0.54
-8 -2 14 1.48 0.92
8 -2 -14 0.76 0.89
8 -2 -14 -0.47 0.88
-8 -2 14 0.07 0.89
-8 -2 14 1.31 0.6
8 -2 -14 -0.09 1.06
8 -2 -14 -0.61 0.96
8 2 -14 -0.48 0.59
8 2 -14 0.36 0.9
-8 2 14 -1.4 0.94
8 2 -14 1.63 0.97
-8 2 14 -0.32 0.69
-8 2 14 1.52 0.68
-8 2 14 0.38 0.99
8 2 -14 0.99 0.98
-8 2 14 -0.2 0.78
7 -2 -14 1.5 0.79
-7 -2 14 1.69 0.85
-7 -2 14 1.95 0.7
-7 -2 14 0.35 0.52
7 -2 -14 1.61 1.06
7 -2 -14 0.44 0.95
7 -2 -14 2.2 0.73
-7 -2 14 1.92 0.83
7 2 -14 1.44 0.99
7 2 -14 0.86 0.89
-7 2 14 1.74 0.7
-7 2 14 2.95 0.92
-7 2 14 1.99 0.92
-7 2 14 2.26 0.74
7 2 -14 1.94 0.7
7 2 -14 0.93 0.88
6 -2 -14 1.41 0.74
6 -2 -14 -1.03 0.71
6 -2 -14 0.9 0.96
-6 -2 14 0.41 0.75
-6 -2 14 -0.4 0.62
6 -2 -14 1.31 0.89
-6 -2 14 -0.63 0.49
6 2 -14 -0.52 0.61
6 2 -14 0.82 0.99
-6 2 14 0.47 0.66
6 2 -14 0.01 0.79
-6 2 14 0.89 0.75
-6 2 14 0.27 0.79
6 2 -14 -0.05 0.76
-6 2 14 -0.76 0.61
-6 2 14 0.88 0.6
5 -2 -14 0.73 0.74
5 -2 -14 0.85 0.91
-5 -2 14 1.88 0.68
-5 -2 14 1 0.56
-5 -2 14 0.55 0.68
5 -2 -14 1.1 0.86
-5 2 14 0.13 0.57
-5 2 14 0.52 0.67
5 2 -14 0.72 0.89
5 2 -14 0.91 0.65
-5 2 14 -0.27 0.57
-5 2 14 1.22 0.69
-5 2 14 1.3 0.72
5 2 -14 1.73 0.83
4 -2 -14 -0.61 0.66
4 -2 -14 -1.02 0.82
-4 -2 14 0.22 0.49
-4 -2 14 -0.59 0.58
4 -2 -14 -0.64 0.91
-4 -2 14 1.23 0.59
4 2 -14 0.34 0.65
-4 2 14 -0.01 0.59
4 2 -14 0.17 0.77
-4 2 14 -0.57 0.89
4 2 -14 0.17 0.6
4 2 -14 1.07 0.96
-4 2 14 -0.92 0.53
3 -2 -14 -0.07 0.63
-3 -2 14 1.18 0.56
3 -2 -14 0.33 0.8
-3 -2 14 1.04 0.63
3 -2 -14 0.62 0.9
3 2 -14 1.03 1.06
-3 2 14 0.37 0.58
3 2 -14 0.77 0.73
3 2 -14 0.28 0.62
3 2 -14 0.27 0.81
-3 2 14 -0.19 0.59
-2 -2 14 -0.14 0.65
-2 -2 14 0.25 0.54
-2 -2 14 -0.17 0.15
-2 -2 14 0.07 0.18
2 -2 -14 -0.16 0.79
-2 -2 14 0.22 0.88
2 -2 -14 -0.09 0.72
2 -2 -14 0.59 1.01
2 2 -14 1.04 0.63
-2 2 14 0.11 0.54
2 2 -14 0.57 0.62
-2 2 14 -0.45 0.67
2 2 -14 0.9 0.96
-2 2 14 1.22 0.68
1 -2 -14 -0.69 0.73
1 -2 -14 0.83 1.04
-1 -2 14 -0.72 0.71
1 -2 -14 -0.07 0.85
-1 -2 14 0.56 0.61
-1 2 14 -0.82 0.61
-1 2 14 -0.32 0.51
1 2 -14 -0.59 0.65
1 2 -14 0.47 1.02
1 2 -14 0.08 0.56
-1 2 14 0.15 0.65
0 -2 -14 1.1 0.85
0 -2 14 -0.94 0.62
0 -2 -14 -0.06 1.2
0 -2 14 0.12 0.78
0 2 14 0.65 0.52
0 2 -14 0.49 0.53
0 2 14 -0.52 0.76
0 2 14 0.09 0.24
0 2 14 0.49 0.68
0 2 -14 0.4 0.7
0 2 14 -0.07 0.82
0 2 -14 1.06 1.13
-1 -2 -14 0.12 0.66
1 -2 14 0.12 0.62
1 -2 14 0.19 0.94
-1 -2 -14 -0.15 0.73
-1 -2 -14 0.63 1.3
1 2 14 1.07 0.84
1 2 14 -0.22 0.71
1 2 14 0.38 0.36
-1 2 -14 1.72 1.16
1 2 14 0.18 0.49
-1 2 -14 0.45 0.68
1 2 14 0.64 0.94
-1 2 -14 0.46 0.8
-2 -2 -14 -0.11 0.83
2 -2 14 1.2 1.03
-2 -2 -14 2.11 1.5
2 -2 14 1.16 0.74
-2 -2 -14 -0.48 0.75
2 2 14 1.13 0.47
2 2 14 0.41 1.06
-2 2 -14 0.2 0.87
2 2 14 1.04 0.84
2 2 14 -0.16 1.17
-2 2 -14 1.47 0.7
2 2 14 -0.59 0.49
-2 2 -14 1.24 1.53
-3 -2 -14 -0.42 0.94
3 -2 14 0.26 1.23
-3 -2 -14 2.25 0.96
-3 -2 -14 1.47 1.6
3 -2 14 2.09 1.01
-3 2 -14 3.09 1.76
3 2 14 1.38 0.69
3 2 14 0.44 1.17
-3 2 -14 2.52 0.83
3 2 14 0.55 0.92
3 2 14 -0.01 1.1
-3 2 -14 -0.83 0.86
-4 -2 -14 1.01 1.1
4 -2 14 2.15 1.44
-4 -2 -14 0.18 1.2
4 -2 14 0.11 1.02
-4 -2 -14 2 2.08
4 2 14 1.13 1.28
4 2 14 1.93 1.62
-4 2 -14 -1.23 1.17
-4 2 -14 2.42 1
-4 2 -14 0.79 1.96
4 2 14 0.7 1.08
-5 -2 -14 1.38 1.29
5 -2 14 1.52 1.36
-5 -2 -14 0.52 2.28
5 -2 14 0.27 1.18
-5 -2 -14 0.71 1.18
5 2 14 2.41 1.61
5 2 14 2.56 1.18
-5 2 -14 2.23 1.22
5 2 14 1.6 1.14
-5 2 -14 3.67 2.46
-10 -3 14 -0.31 1.25
10 -3 -14 -0.77 0.95
10 -3 -14 1.55 1.38
10 -3 -14 0.31 1.25
-10 3 14 -0.88 0.79
-10 3 14 -1.11 1.28
10 3 -14 -0.35 1.2
-10 3 14 0.06 1.18
10 3 -14 0.72 0.98
-10 3 14 -0.8 0.84
10 3 -14 -0.13 0.75
10 3 -14 0.69 0.94
9 -3 -14 1.27 1.23
-9 -3 14 1.67 0.71
-9 -3 14 0.47 1.15
9 -3 -14 1.3 1.27
9 -3 -14 0.21 0.93
9 -3 -14 1.01 1.03
-9 -3 14 0.18 0.52
-9 -3 14 -0.72 1.04
9 3 -14 0.33 0.64
-9 3 14 0.38 1.09
-9 3 14 -0.1 0.78
9 3 -14 1.51 1.09
9 3 -14 1.19 1.01
9 3 -14 1.03 1.16
-9 3 14 0.83 1.13
-9 3 14 0.49 0.84
9 3 -14 2.27 1.04
-8 -3 14 -0.01 0.64
-8 -3 14 -0.95 0.97
-8 -3 14 0.07 0.89
8 -3 -14 -0.44 0.79
8 -3 -14 -0.18 1.04
8 -3 -14 0.37 1.12
8 -3 -14 -1.85 0.94
-8 -3 14 0.88 0.53
-8 3 14 -0.49 0.88
-8 3 14 1.32 0.74
8 3 -14 -1.06 0.91
8 3 -14 -0.58 0.95
-8 3 14 0.18 0.68
8 3 -14 -0.94 0.64
-8 3 14 -0.47 0.99
8 3 -14 0.21 1.03
-8 3 14 1.03 0.97
-7 -3 14 0.58 0.56
-7 -3 14 0.59 0.64
-7 -3 14 -0.31 0.83
7 -3 -14 -0.79 1
-7 -3 14 0.96 0.85
7 -3 -14 0.78 0.8
7 -3 -14 -0.08 0.99
7 -3 -14 -0.48 0.76
7 3 -14 1.66 0.94
-7 3 14 -0.85 0.59
-7 3 14 -0.8 0.84
-7 3 14 0.15 0.78
-7 3 14 0.47 0.68
-7 3 14 -1.3 0.89
7 3 -14 -0.18 0.61
7 3 -14 -0.51 0.87
7 3 -14 -0.11 0.9
-6 -3 14 1.82 0.77
6 -3 -14 2.1 0.94
6 -3 -14 2.32 1.16
6 -3 -14 0.22 0.73
-6 -3 14 3.06 0.86
-6 -3 14 0.51 0.54
6 -3 -14 1.59 0.77
6 3 -14 0.52 0.83
6 3 -14 1.75 0.96
-6 3 14 2.61 0.64
6 3 -14 1.59 0.7
-6 3 14 1.9 0.83
-6 3 14 0.38 0.74
-6 3 14 2.19 0.75
6 3 -14 1.88 0.86
-5 -3 14 1.5 0.7
5 -3 -14 0.2 0.89
5 -3 -14 0.53 0.94
-5 -3 14 0.21 0.77
5 -3 -14 -0.04 0.81
-5 -3 14 0.85 0.61
5 3 -14 -0.08 0.61
-5 3 14 1 0.56
5 3 -14 2.28 0.96
-5 3 14 0.46 0.76
-5 3 14 1.48 0.75
-5 3 14 -0.04 0.68
5 3 -14 1.28 0.79
-5 3 14 1.44 0.72
5 3 -14 0.48 0.81
-4 -3 14 0.2 0.55
4 -3 -14 -1.02 0.69
4 -3 -14 -0.37 0.83
-4 -3 14 -0.23 0.58
4 -3 -14 -0.47 0.95
-4 -3 14 -0.1 0.67
-4 3 14 0.87 0.62
4 3 -14 -0.33 0.6
4 3 -14 0.23 0.76
-4 3 14 0.03 0.7
4 3 -14 2.21 0.93
3 -3 -14 -0.76 1
-3 -3 14 0.08 0.67
-3 -3 14 0.73 0.67
3 -3 -14 -0.38 0.86
-3 -3 14 0.15 0.54
-3 -3 14 -0.15 0.19
3 3 -14 -0.22 0.64
3 3 -14 0.74 0.64
-3 3 14 -0.26 0.62
3 3 -14 1.07 0.81
-3 3 14 -0.86 0.59
3 3 -14 0.31 0.99
-2 -3 14 0.01 0.57
-2 -3 14 1.45 0.68
2 -3 -14 1.08 0.76
2 -3 -14 1.5 1.1
2 -3 -14 0.38 0.9
-2 -3 14 -0.11 0.85
-2 3 14 1.48 0.62
-2 3 14 0.69 0.69
2 3 -14 1.26 0.64
2 3 -14 2.04 0.68
2 3 -14 0.85 1.02
-1 -3 14 0.06 0.86
-1 -3 14 -0.53 0.68
-1 -3 14 0.24 0.71
1 -3 -14 1.99 0.87
-1 -3 14 0.77 0.81
1 -3 -14 1.56 1.16
1 -3 -14 -0.01 0.76
1 3 -14 -0.81 1.05
-1 3 14 0.39 0.58
-1 3 14 0.5 0.8
1 3 -14 0.77 0.47
1 3 -14 0.22 0.68
-1 3 14 0.82 0.68
-1 3 14 0.56 0.73
1 3 -14 0.54 0.6
0 -3 -14 1.34 1.29
0 -3 14 1.34 0.86
0 -3 14 0.69 0.62
0 -3 -14 0.41 0.87
0 -3 14 1.81 0.99
0 3 14 0.61 0.88
0 3 -14 0.24 0.53
0 3 14 1.28 0.85
0 3 -14 1.2 0.56
0 3 14 0.75 0.56
0 3 14 2.52 0.93
0 3 -14 1.75 1.28
0 3 -14 1.24 0.84
-1 -3 -14 1.15 0.95
-1 -3 -14 2.57 1.39
-1 -3 -14 0.82 0.75
1 -3 14 1.26 0.65
1 -3 14 -0.96 1.05
1 -3 14 0.95 0.95
-1 3 -14 1.88 0.6
-1 3 -14 1.32 1.34
-1 3 -14 2.73 0.93
1 3 14 1.5 0.93
1 3 14 0.73 0.94
1 3 14 1.28 0.55
1 3 14 1.23 0.81
2 -3 14 2.2 0.96
-2 -3 -14 0.68 1.51
2 -3 14 0.44 1.05
-2 -3 -14 1.02 0.99
-2 -3 -14 -0.72 0.83
2 -3 14 0.02 1.13
-2 3 -14 0.23 0.67
-2 3 -14 0.92 0.86
2 3 14 0.6 0.51
2 3 14 0.53 0.97
-2 3 -14 2.55 1.54
2 3 14 -0.63 0.46
2 3 14 -1.08 0.97
2 3 14 0.15 0.84
3 -3 14 0.63 1.02
-3 -3 -14 2.46 1.78
-3 -3 -14 0.32 1.15
3 -3 14 -0.9 1.25
-3 -3 -14 0.92 0.95
3 -3 14 0.07 1.24
-3 3 -14 0.63 0.92
3 3 14 0.27 0.96
-3 3 -14 -3.11 1.66
3 3 14 -1.95 1.08
-3 3 -14 -0.15 0.78
3 3 14 0.34 0.45
3 3 14 -0.3 1.08
4 -3 14 0.03 1.09
-4 -3 -14 -1.12 1.06
4 -3 14 -1.54 1.36
-4 -3 -14 -2.16 1.94
-4 3 -14 2.87 1.21
4 3 14 -0.85 1.38
4 3 14 -1.58 1.04
-4 3 -14 -0.8 2.05
4 3 14 -1.6 1.01
-4 3 -14 0.6 0.98
-5 -3 -14 -0.07 2.53
-5 -3 -14 0.99 1.36
5 -3 14 0.49 1.34
5 -3 14 0.42 1.83
-5 -3 -14 -0.39 1.1
5 3 14 -0.02 1.08
-5 3 -14 1.46 2.39
5 3 14 -0.21 1.35
-5 3 -14 0.15 1.16
5 3 14 -1.08 1.39
10 -4 -14 -0.49 1.52
10 -4 -14 1.51 1.46
10 -4 -14 0.01 1.07
-10 -4 14 0.67 1.33
10 4 -14 -0.95 0.99
-10 4 14 -1.41 1.26
10 4 -14 2.81 1.3
-10 4 14 -0.12 0.95
-10 4 14 -1.07 0.91
-10 4 14 -0.05 1.05
10 4 -14 1.1 0.74
-9 -4 14 -0.06 0.7
9 -4 -14 -1.02 0.96
9 -4 -14 2.53 1.35
-9 -4 14 0.1 1.18
9 -4 -14 -0.04 1.17
-9 -4 14 0.26 0.56
9 -4 -14 -0.41 1.25
-9 -4 14 1.28 1.06
9 4 -14 0.48 0.81
9 4 -14 -0.32 1.06
-9 4 14 -0.47 0.9
-9 4 14 1.4 1.14
-9 4 14 -0.17 0.84
9 4 -14 -0.23 0.94
9 4 -14 0.65 1.25
-9 4 14 0.11 1.22
-9 4 14 -0.21 0.85
9 4 -14 0.16 1.05
-8 -4 14 -0.7 0.62
8 -4 -14 -0.15 1.11
8 -4 -14 0.64 0.96
-8 -4 14 0.08 0.52
-8 -4 14 0.78 0.93
8 -4 -14 1.05 0.92
-8 -4 14 0.78 1.07
8 -4 -14 0.02 1.09
-8 4 14 -0.14 0.79
-8 4 14 0.94 0.75
8 4 -14 -1.31 1
8 4 -14 1.28 1.04
8 4 -14 -0.76 0.93
8 4 -14 0.87 0.66
-8 4 14 -0.46 0.99
-8 4 14 0.1 1.09
-8 4 14 -0.32 0.76
7 -4 -14 1.28 0.88
7 -4 -14 0.23 1.12
7 -4 -14 0.69 0.86
-7 -4 14 -0.05 0.9
7 -4 -14 0.3 1.08
-7 -4 14 0.68 0.56
-7 -4 14 1 0.65
7 4 -14 0.15 0.63
-7 4 14 -0.75 0.69
7 4 -14 1.52 0.9
-7 4 14 -0.12 0.66
-7 4 14 0.53 0.93
7 4 -14 0.41 1.04
-7 4 14 1.54 0.79
-7 4 14 -0.37 0.92
7 4 -14 0.74 0.91
6 -4 -14 0.98 1.07
6 -4 -14 0.54 0.76
-6 -4 14 0.08 0.51
-6 -4 14 1.67 0.88
6 -4 -14 2.09 0.83
-6 -4 14 1.91 0.69
6 -4 -14 1.52 0.98
-6 4 14 1.75 0.63
-6 4 14 1.65 0.83
-6 4 14 2.05 0.85
6 4 -14 1.08 0.71
6 4 -14 0.72 0.82
-6 4 14 1.13 0.82
6 4 -14 1.18 0.84
-6 4 14 0.15 0.63
6 4 -14 0.67 0.97
5 -4 -14 0.71 0.95
5 -4 -14 -0.27 0.98
-5 -4 14 -0.6 0.64
5 -4 -14 -0.55 0.72
-5 -4 14 0.31 0.55
-5 -4 14 0.32 0.75
5 4 -14 -1.12 0.79
-5 4 14 -0.35 0.74
5 4 -14 0.14 0.62
-5 4 14 1.33 0.73
5 4 -14 -0.02 0.75
-5 4 14 0.07 0.73
-5 4 14 -0.47 0.63
5 4 -14 0.25 0.93
-4 -4 14 0.06 0.28
4 -4 -14 0.48 0.91
4 -4 -14 1.29 0.88
-4 -4 14 1.17 0.64
-4 -4 14 1.68 0.77
4 -4 -14 0.4 1.06
-4 4 14 0.95 0.69
4 4 -14 1.69 0.86
4 4 -14 2.73 0.78
-4 4 14 1.85 0.79
-4 4 14 0.13 0.7
4 4 -14 1.18 1
3 -4 -14 -0.91 0.78
-3 -4 14 1.4 0.86
3 -4 -14 -0.25 0.96
-3 -4 14 0.95 0.73
-3 -4 14 0.69 0.57
-3 -4 14 0.06 0.26
3 -4 -14 0.93 0.87
3 4 -14 -0.79 0.57
3 4 -14 0.6 0.68
-3 4 14 0.9 0.71
-3 4 14 1.51 0.77
-3 4 14 1.21 0.65
3 4 -14 0.58 1.07
-3 4 14 1.49 0.77
-2 -4 14 0.45 0.72
-2 -4 14 0.88 0.91
2 -4 -14 0.53 0.84
-2 -4 14 -0.42 0.27
2 -4 -14 -0.46 0.86
2 -4 -14 0.42 1.14
-2 -4 14 1.16 0.61
2 4 -14 -0.08 0.42
2 4 -14 -0.57 0.92
-2 4 14 0.81 0.69
2 4 -14 0.84 0.7
-2 4 14 1.35 0.79
2 4 -14 1.87 0.75
-2 4 14 0.23 0.66
1 -4 -14 1.94 0.86
-1 -4 14 1.63 0.78
1 -4 -14 2.31 1.26
-1 -4 14 1.3 0.84
1 -4 -14 1.67 1.02
-1 -4 14 1.12 0.94
-1 4 14 0.87 0.83
-1 4 14 0.94 0.66
-1 4 14 1.02 0.77
1 4 -14 1.05 1.21
-1 4 14 0.26 0.81
1 4 -14 0.2 0.68
1 4 -14 1.32 0.63
1 4 -14 1.54 0.45
0 -4 14 0.77 0.94
0 -4 14 -0.33 0.78
0 -4 -14 -0.85 1.29
0 -4 -14 -0.48 0.78
0 -4 14 -0.38 0.74
0 -4 14 0.4 0.96
0 4 14 -0.32 0.89
0 4 -14 0.52 0.59
0 4 -14 0.1 0.5
0 4 -14 -1.91 1.22
0 4 14 1.3 0.86
0 4 -14 -1.27 0.79
0 4 14 0.62 0.63
0 4 14 0.42 0.88
-1 -4 -14 1.77 1.45
1 -4 14 1.16 0.72
-1 -4 -14 1.3 0.97
1 -4 14 3.7 1.22
-1 -4 -14 -0.03 0.79
1 -4 14 0.11 1.06
-1 4 -14 0.7 0.76
-1 4 -14 1.85 0.58
1 4 14 1.32 0.97
-1 4 -14 0.23 1.51
1 4 14 -0.21 0.34
1 4 14 0.97 0.89
1 4 14 1.08 1
1 4 14 1.22 0.6
2 -4 14 0.16 1.24
-2 -4 -14 -0.36 1.01
-2 -4 -14 1.5 0.92
2 -4 14 1.18 1.18
2 -4 14 -0.51 0.7
-2 -4 -14 0.32 1.54
2 4 14 1.14 0.84
-2 4 -14 1.65 1.61
2 4 14 0.42 1.08
2 4 14 -0.49 0.46
2 4 14 0.37 0.88
2 4 14 1.1 0.6
-2 4 -14 -0.37 0.67
-2 4 -14 0.42 1.01
-3 -4 -14 3.76 1.32
-3 -4 -14 -2.7 1.04
3 -4 14 1.84 1.06
3 -4 14 -0.61 1.35
3 -4 14 -0.74 1.22
-3 -4 -14 -2.02 1.73
3 4 14 -0.23 0.63
3 4 14 -0.84 0.54
3 4 14 -1.77 1.15
-3 4 -14 -0.91 0.99
-3 4 -14 -1.12 0.77
3 4 14 0.34 1.01
-3 4 -14 1.47 1.96
4 -4 14 1.21 0.98
-4 -4 -14 1.02 1.22
4 -4 14 1.01 1.39
-4 -4 -14 1.34 2.15
4 4 14 2.66 1.19
4 4 14 1.39 0.44
-4 4 -14 0.54 2.09
-4 4 -14 0 0.98
4 4 14 0.09 1.51
4 4 14 1.93 0.84
4 4 14 0.94 1.36
10 -5 -14 0.07 1.67
10 -5 -14 -0.18 1.25
10 -5 -14 -1.12 1.56
-10 -5 14 -3.98 1.47
10 5 -14 2.32 1.26
-10 5 14 -1.46 0.92
10 5 -14 -0.75 0.93
-10 5 14 0.73 1.02
-10 5 14 -0.2 1.41
9 -5 -14 0.48 1.3
-9 -5 14 -0.49 0.59
9 -5 -14 -0.91 1.45
9 -5 -14 0.72 1.42
9 -5 -14 1.36 1.2
-9 -5 14 -1.21 1.09
-9 -5 14 0.72 0.65
-9 -5 14 -0.24 1.32
9 5 -14 0.03 1.18
9 5 -14 0.39 1.08
9 5 -14 0.55 0.79
-9 5 14 -0.23 0.98
-9 5 14 0.33 0.82
-9 5 14 0.36 0.96
-9 5 14 1.5 1.24
9 5 -14 0.14 1.07
9 5 -14 -0.04 0.82
8 -5 -14 0.41 1.06
8 -5 -14 1.63 1.25
-8 -5 14 -0.4 0.61
-8 -5 14 2.7 1.12
-8 -5 14 1.55 0.67
8 -5 -14 1.72 1.42
8 -5 -14 2.72 1.19
8 5 -14 -0.53 1.15
8 5 -14 1.74 0.7
8 5 -14 1.69 0.69
8 5 -14 1.84 1.02
8 5 -14 1.17 1.08
-8 5 14 0.69 0.89
-8 5 14 1.42 1.13
-8 5 14 -0.6 0.76
-8 5 14 0.02 1.11
-8 5 14 0.64 0.84
7 -5 -14 3 1.41
-7 -5 14 2.84 1.03
7 -5 -14 1.41 0.93
-7 -5 14 3.75 0.87
7 -5 -14 1.65 0.88
7 -5 -14 0.39 1.09
-7 5 14 2.72 0.74
7 5 -14 2.28 1.07
7 5 -14 1.62 0.91
7 5 -14 2.64 1.18
-7 5 14 1.17 0.81
7 5 -14 3.35 0.78
-7 5 14 3.28 1.02
-7 5 14 4.08 1.08
6 -5 -14 -0.62 1.01
6 -5 -14 0.68 0.81
-6 -5 14 0.2 0.63
-6 -5 14 2.56 0.99
6 -5 -14 -0.41 1.16
-6 -5 14 0.53 0.68
6 -5 -14 1.98 0.95
-6 5 14 -0.64 0.85
6 5 -14 0.27 0.76
6 5 -14 0.71 0.68
6 5 -14 0.29 1.04
6 5 -14 -0.9 0.85
-6 5 14 1.64 0.94
-6 5 14 0.52 0.64
-6 5 14 0.86 0.68
-6 5 14 1.06 0.84
5 -5 -14 2.06 1.06
5 -5 -14 2.5 1.23
-5 -5 14 -0.01 0.4
-5 -5 14 -0.13 0.55
5 -5 -14 3.19 1.11
-5 -5 14 2.56 0.89
-5 5 14 1.15 0.83
-5 5 14 4 0.95
5 5 -14 1.47 0.8
-5 5 14 1.51 0.82
-5 5 14 3.25 0.94
5 5 -14 2.36 0.87
5 5 -14 0.54 0.99
-5 5 14 1.66 0.76
5 5 -14 3.28 0.82
4 -5 -14 2.55 1.19
4 -5 -14 2.42 0.99
4 -5 -14 3.35 1
-4 -5 14 3.31 1.01
-4 -5 14 4.43 0.78
-4 -5 14 3.9 0.9
4 -5 -14 4.1 0.75
4 5 -14 2.26 0.89
4 5 -14 2.84 1.28
-4 5 14 3.01 0.84
4 5 -14 4.05 0.8
-4 5 14 4.09 0.92
-4 5 14 4.22 0.92
-4 5 14 2.3 0.85
-3 -5 14 0 0.34
3 -5 -14 -0.45 1.34
3 -5 -14 1.23 1.27
3 -5 -14 0.49 0.94
-3 -5 14 0.44 0.89
-3 -5 14 0.46 0.83
3 -5 -14 -0.48 0.79
-3 -5 14 0.28 0.63
-3 5 14 0.08 0.77
3 5 -14 0.04 0.66
3 5 -14 -0.07 0.8
-3 5 14 0.2 0.75
-3 5 14 0.62 0.72
3 5 -14 1.75 1.18
-3 5 14 0.55 0.77
-2 -5 14 1.16 0.7
2 -5 -14 0.89 0.88
2 -5 -14 -0.13 0.92
-2 -5 14 -0.15 0.77
2 -5 -14 1.12 1.17
-2 -5 14 1.46 0.86
-2 -5 14 -0.26 0.32
-2 -5 14 0.48 0.85
-2 5 14 -0.34 0.78
-2 5 14 0.03 0.79
2 5 -14 0.89 0.72
-2 5 14 0.71 0.73
2 5 -14 1.56 1.13
2 5 -14 0.53 0.4
-2 5 14 0.36 0.74
-1 -5 14 0.04 0.87
-1 -5 14 1.66 0.88
1 -5 -14 -0.37 0.86
1 -5 -14 -0.5 0.98
-1 -5 14 -0.52 0.8
1 -5 -14 1.47 1.35
-1 -5 14 0.93 0.71
1 5 -14 0.2 0.43
1 5 -14 -0.43 1.19
1 5 -14 -0.03 0.66
-1 5 14 0.86 0.75
-1 5 14 0.24 0.83
-1 5 14 -0.35 0.78
-1 5 14 0.38 1.36
1 5 -14 1.3 0.74
0 -5 14 0.18 1
0 -5 14 -0.06 0.79
0 -5 -14 0.46 1.31
0 -5 14 0.63 0.7
0 -5 14 0.9 1.05
0 -5 -14 -0.61 1.02
0 -5 -14 -0.2 0.91
0 5 14 -0.92 0.92
0 5 14 -0.37 0.68
0 5 -14 -0.26 0.63
0 5 -14 0.68 0.49
0 5 -14 -1.58 1.17
0 5 14 0.6 0.89
0 5 14 0 0.88
0 5 -14 0.23 0.72
1 -5 14 -0.53 1.06
1 -5 14 3.22 1.25
1 -5 14 0.28 0.89
-1 -5 -14 -0.05 1.58
1 -5 14 1.28 0.89
-1 -5 -14 -0.48 1.01
-1 5 -14 0.52 1.51
1 5 14 -0.75 0.92
1 5 14 0.96 0.98
-1 5 -14 -0.16 0.57
1 5 14 0.43 0.97
1 5 14 0.84 0.69
-1 5 -14 1.48 0.99
1 5 14 -0.02 0.36
-1 5 -14 -0.53 0.58
-2 -5 -14 0.06 1.69
-2 -5 -14 1.47 1.17
2 -5 14 -0.22 1.26
2 -5 14 2.28 1.01
-2 -5 -14 0.5 1
2 -5 14 0.83 1.21
2 5 14 -1.44 1.04
2 5 14 -0.3 0.48
-2 5 -14 -0.81 1.66
2 5 14 -0.84 1.01
-2 5 -14 -0.08 0.66
-2 5 -14 -2.13 0.98
2 5 14 0.31 0.71
2 5 14 2.01 0.94
-3 -5 -14 0.58 1.2
-3 -5 -14 2.33 1.98
3 -5 14 1.26 1.08
-3 -5 -14 0.25 1.14
3 -5 14 0.88 1.48
3 -5 14 3.66 1.52
-3 5 -14 0.36 1.96
3 5 14 0.49 0.65
-3 5 -14 0.39 0.8
3 5 14 -0.25 0.66
3 5 14 0.6 1.27
3 5 14 -0.8 0.98
3 5 14 -2.59 1.19
4 -5 14 1.13 1.29
-4 -5 -14 -3.17 1.26
4 -5 14 4 1.73
-4 -5 -14 -3.4 2.11
-4 -5 -14 0.47 0.85
4 5 14 1.03 1.2
4 5 14 0.61 0.89
4 5 14 0.33 1.49
-4 5 -14 0.85 2.17
4 5 14 0.55 1.47
4 5 14 1 0.62
-4 5 -14 -0.74 0.99
-9 -6 14 -0.47 1.4
-9 -6 14 -1.09 0.67
9 -6 -14 1.89 1.27
-9 -6 14 1.06 1.24
9 -6 -14 2.47 1.31
9 -6 -14 0.84 1.53
9 6 -14 0.04 0.82
-9 6 14 0.57 1.3
-9 6 14 0.77 1.07
-9 6 14 0.59 1.22
9 6 -14 1.32 1.16
-9 6 14 0.71 0.82
9 6 -14 1.08 1.11
-8 -6 14 0.81 1.24
-8 -6 14 -0.9 0.63
8 -6 -14 0.79 1.1
8 -6 -14 -0.13 1.31
-8 -6 14 -0.5 0.67
8 -6 -14 0.67 1.14
-8 6 14 0.15 1.23
-8 6 14 0.04 0.97
8 6 -14 2.69 1.17
-8 6 14 2.56 1.17
-8 6 14 -0.54 0.74
8 6 -14 2.21 0.64
8 6 -14 1.76 1.02
-8 6 14 0.29 1.04
8 6 -14 2.31 1.15
8 6 -14 0.16 0.69
7 -6 -14 -1.54 0.96
-7 -6 14 0.43 0.67
7 -6 -14 -1.28 1.13
-7 -6 14 -1.59 1.1
-7 -6 14 0.21 0.71
7 -6 -14 -0.16 1
-7 6 14 -0.44 1.12
-7 6 14 -1.72 0.93
-7 6 14 0.26 0.84
7 6 -14 -0.19 0.92
7 6 -14 0 0.7
7 6 -14 -0.89 1.06
7 6 -14 0.01 1.07
7 6 -14 0.58 0.54
-7 6 14 -0.96 1.02
-7 6 14 -0.21 0.69
-6 -6 14 0.44 0.56
-6 -6 14 3.15 1.06
6 -6 -14 2.51 1.46
6 -6 -14 2.67 1.34
-6 -6 14 2.51 0.83
-6 -6 14 2.29 0.87
6 -6 -14 3.23 0.89
6 -6 -14 1.62 1.11
6 6 -14 2.69 0.94
-6 6 14 2.28 0.71
-6 6 14 1.17 1.02
-6 6 14 2.71 1.02
6 6 -14 2.86 0.82
6 6 -14 3.89 1.21
-6 6 14 4.1 1.03
6 6 -14 3.6 1.1
-5 -6 14 -0.12 0.47
-5 -6 14 0.72 0.95
5 -6 -14 -0.38 1.3
-5 -6 14 0.35 0.6
5 -6 -14 1.1 1.09
-5 -6 14 -1.55 0.91
5 -6 -14 -0.37 1.1
-5 -6 14 2.14 1.12
-5 6 14 -0.15 0.74
-5 6 14 2.25 0.96
5 6 -14 -0.31 0.92
5 6 -14 2.46 0.73
-5 6 14 2.18 0.9
5 6 -14 0.93 1.13
-5 6 14 1.34 1.16
4 -6 -14 2.59 0.98
4 -6 -14 3.04 1.37
-4 -6 14 1.02 0.92
-4 -6 14 2.29 0.92
4 -6 -14 2.01 0.75
-4 -6 14 1.79 0.78
4 -6 -14 0.25 1.1
-4 6 14 3.84 0.92
-4 6 14 2.5 0.88
4 6 -14 2.09 1.2
4 6 -14 0.84 0.73
-4 6 14 2.86 0.95
4 6 -14 2.72 0.92
-4 6 14 2.38 0.9
-3 -6 14 0.09 0.4
-3 -6 14 1.36 0.75
3 -6 -14 0.47 1.29
3 -6 -14 0.74 0.67
3 -6 -14 0.13 0.88
3 -6 -14 0.43 1.05
-3 -6 14 1.82 1.03
-3 -6 14 0.24 0.9
-3 6 14 -0.71 0.74
-3 6 14 0.76 0.82
3 6 -14 0.72 0.34
3 6 -14 1.11 0.68
-3 6 14 1.45 0.62
3 6 -14 -0.32 1.08
-3 6 14 1.76 0.87
-2 -6 14 -1.75 0.88
2 -6 -14 0.29 1.06
-2 -6 14 -0.02 0.9
-2 -6 14 0.67 0.77
2 -6 -14 -0.51 1.17
-2 -6 14 -0.07 0.88
2 -6 -14 -0.54 0.62
2 -6 -14 -0.71 0.91
-2 -6 14 0 0.41
-2 6 14 0.35 0.8
2 6 -14 -0.46 1.26
2 6 -14 -0.01 0.36
-2 6 14 0.07 0.83
2 6 -14 0.3 0.77
-2 6 14 1.22 0.87
2 6 -14 0.96 0.78
-2 6 14 0.28 0.85
1 -6 -14 -1.84 0.95
-1 -6 14 0.27 0.77
1 -6 -14 -0.58 1.01
-1 -6 14 -0.85 0.94
-1 -6 14 -1.18 0.91
1 -6 -14 0.41 1.26
-1 -6 14 0.21 0.86
1 6 -14 0.09 1.14
-1 6 14 0.2 0.62
1 6 -14 0.4 0.41
-1 6 14 -1.13 0.85
-1 6 14 0.34 0.9
-1 6 14 0.16 0.8
1 6 -14 0.72 0.82
0 -6 14 0.16 1.08
0 -6 14 0.56 1.1
0 -6 -14 0.02 1.11
0 -6 14 1.5 0.85
0 -6 14 -0.18 0.91
0 -6 -14 -0.22 1.04
0 -6 -14 0.91 1.45
0 6 14 -0.44 0.92
0 6 -14 0.66 0.5
0 6 -14 0.59 0.7
0 6 14 0.4 0.91
0 6 -14 -0.94 0.73
0 6 14 1.04 1.02
0 6 14 0.82 0.79
0 6 -14 0.46 1.39
1 -6 14 1.22 0.99
1 -6 14 0.35 1.13
-1 -6 -14 -0.51 1.11
-1 -6 -14 -0.01 1.48
1 -6 14 1.6 1.21
1 -6 14 1.11 0.91
-1 6 -14 -0.58 0.55
1 6 14 1.17 1.07
1 6 14 0.95 0.79
-1 6 -14 -0.52 0.66
-1 6 -14 -0.93 1.56
1 6 14 -0.38 1.07
1 6 14 0.79 1.02
-1 6 -14 -0.51 0.86
2 -6 14 -3.21 1.23
2 -6 14 0.81 1.02
-2 -6 -14 -0.96 1.04
2 -6 14 -1.38 0.99
2 -6 14 0.85 1.37
-2 -6 -14 -2.14 1.17
-2 -6 -14 3.12 1.89
2 6 14 1.02 1.11
2 6 14 -0.73 0.51
2 6 14 0.59 1.01
2 6 14 -0.97 0.79
-2 6 -14 0.37 0.61
-2 6 -14 0.02 0.67
-2 6 -14 1.73 1.87
2 6 14 -1.09 0.98
-2 6 -14 -1.49 1.14
3 -6 14 2.25 1.14
3 -6 14 -1.31 1.68
-3 -6 -14 0.92 2.17
3 -6 14 -1.49 1.48
-3 -6 -14 1.25 1.2
-3 -6 -14 -0.28 0.7
3 -6 14 -0.23 1.17
-3 6 -14 -0.68 2.03
-3 6 -14 0.73 1.26
3 6 14 -1.6 1.2
3 6 14 1.41 0.83
3 6 14 -2.31 1.09
3 6 14 1.97 1.24
4 -6 14 1.02 1.83
-4 -6 -14 4.55 2.65
-4 -6 -14 1.05 2.23
4 -6 14 -1.15 1.28
4 6 14 -2.17 1.34
4 6 14 0.66 0.82
4 6 14 0.47 1.53
-4 6 -14 2.1 2.32
4 6 14 1.73 0.88
-4 6 -14 1.15 0.98
9 -7 -14 1.04 1.9
9 -7 -14 1.45 1.41
9 -7 -14 -2.58 1.05
9 -7 -14 0.71 1.39
-9 -7 14 0.58 0.7
-9 -7 14 0.54 1.54
9 -7 -14 0.08 0.58
-9 7 14 2.19 1.34
-9 7 14 0.35 1.29
9 7 -14 -0.25 0.74
9 7 -14 -1.03 1.15
9 7 -14 1.01 1.22
-9 7 14 0.46 1.53
8 -7 -14 -1.68 1.13
8 -7 -14 -2.65 1.49
-8 -7 14 1.7 0.85
8 -7 -14 -2.56 0.99
-8 -7 14 -0.25 1.41
-8 -7 14 1.69 0.66
-8 -7 14 0.1 1.02
-8 7 14 0.72 1.05
-8 7 14 0.76 1.74
8 7 -14 1.11 1.22
-8 7 14 0.02 0.78
8 7 -14 -0.62 0.74
-8 7 14 -1.59 1.32
8 7 -14 0.8 0.6
8 7 -14 0.92 1.07
7 -7 -14 1.79 1.04
-7 -7 14 -1.14 0.71
7 -7 -14 0.09 1.39
-7 -7 14 0.35 0.74
-7 -7 14 0.12 0.9
7 -7 -14 1.78 1.28
-7 -7 14 2.52 0.87
7 -7 -14 -0.66 0.98
-7 -7 14 2.15 1.22
-7 7 14 0.68 1.19
-7 7 14 1.67 1.13
7 7 -14 1.26 0.72
7 7 -14 1.48 0.47
7 7 -14 0.18 1.19
-7 7 14 -0.07 0.68
-7 7 14 0.63 1.24
-7 7 14 -0.84 1
7 7 -14 0.28 1.14
-6 -7 14 -0.34 1.07
6 -7 -14 2.04 1.21
-6 -7 14 -0.56 0.66
6 -7 -14 1.05 1.26
6 -7 -14 0.58 0.93
-6 -7 14 0.35 0.91
-6 -7 14 1.12 1.12
-6 -7 14 1.48 0.73
-6 7 14 0.52 1.09
-6 7 14 0.2 0.79
6 7 -14 0.48 1.07
6 7 -14 0.12 0.72
6 7 -14 0.72 1.24
-6 7 14 1.76 1.03
-6 7 14 -0.37 1.09
-6 7 14 0.65 0.71
6 7 -14 -0.46 0.37
5 -7 -14 0.96 1.15
-5 -7 14 -0.2 0.9
-5 -7 14 3.17 1.15
-5 -7 14 1.52 1.08
-5 -7 14 0.52 0.79
5 -7 -14 0.97 1.2
-5 -7 14 -0.1 0.59
5 7 -14 1.36 0.33
-5 7 14 2.91 1.05
-5 7 14 0.03 1
-5 7 14 1.01 1.02
5 7 -14 0.58 0.8
5 7 -14 2.3 1.07
-5 7 14 1.13 0.78
5 7 -14 -0.7 1.13
-4 -7 14 -0.39 1
4 -7 -14 1.12 0.76
-4 -7 14 -1.53 0.48
4 -7 -14 0.82 1.44
-4 -7 14 -0.2 0.91
-4 -7 14 -0.6 0.7
4 -7 -14 -1.32 1.05
4 -7 -14 0.46 1.13
4 7 -14 -0.17 0.74
-4 7 14 1.97 0.94
-4 7 14 0.17 0.99
-4 7 14 -0.38 0.99
-4 7 14 0.5 0.89
4 7 -14 0.68 1.18
4 7 -14 0.02 0.25
4 7 -14 -0.01 0.92
-3 -7 14 -0.04 0.5
3 -7 -14 -1.24 1.09
-3 -7 14 -1.39 0.91
3 -7 -14 -0.15 1.05
-3 -7 14 1.41 0.91
-3 -7 14 -0.75 0.74
3 -7 -14 0.35 0.71
3 -7 -14 0.73 1.42
3 7 -14 -0.26 0.82
3 7 -14 -2.37 1.13
3 7 -14 -0.31 0.89
3 7 -14 0.18 0.25
-3 7 14 1.33 0.89
-3 7 14 -0.67 0.65
-3 7 14 1.44 0.89
-3 7 14 -0.77 0.91
2 -7 -14 -0.53 0.65
-2 -7 14 -1.48 0.95
-2 -7 14 -0.45 0.48
2 -7 -14 2.02 1.16
-2 -7 14 -0.14 0.98
2 -7 -14 0.45 1.42
-2 -7 14 -2.12 0.95
2 -7 -14 1.47 1.19
-2 -7 14 -0.86 0.95
2 7 -14 -0.42 0.75
2 7 -14 -1.01 1.28
-2 7 14 -0.8 0.9
-2 7 14 -0.28 0.99
-2 7 14 0.39 0.91
-2 7 14 0.2 0.79
2 7 -14 -0.07 0.29
1 -7 -14 -0.21 1.06
-1 -7 14 1.11 1.12
-1 -7 14 0.85 1.02
-1 -7 14 -0.21 0.85
1 -7 -14 0.43 0.62
1 -7 -14 -0.74 1.31
1 -7 -14 -0.5 1.17
-1 -7 14 0.02 1.04
-1 7 14 1.04 1.05
1 7 -14 0.92 0.84
-1 7 14 0.07 0.91
1 7 -14 0.96 0.94
-1 7 14 1.16 0.89
-1 7 14 0.33 0.94
1 7 -14 -0.12 0.35
1 7 -14 1.13 1.43
0 -7 14 0.92 0.96
0 -7 14 1.18 1.18
0 -7 -14 0.33 1.09
0 -7 14 2.17 1.08
0 -7 -14 0.03 0.6
0 -7 14 -0.31 1.24
0 -7 -14 1.67 1.7
0 -7 -14 0.69 1.2
0 7 14 0.65 0.89
0 7 14 3.92 1.15
0 7 -14 1.75 1.02
0 7 14 0.95 0.86
0 7 14 1.29 0.96
0 7 -14 1.72 0.47
0 7 -14 0.75 1.52
0 7 -14 0.5 0.82
1 -7 14 1.32 1.29
-1 -7 -14 -0.17 0.58
-1 -7 -14 0.4 1.22
1 -7 14 0.47 1.37
-1 -7 -14 -0.62 1.58
1 -7 14 3.15 1.12
1 -7 14 -0.9 0.98
-1 7 -14 -0.95 1
1 7 14 1.39 1.18
-1 7 -14 1.14 0.55
-1 7 -14 2.19 1.82
1 7 14 1.27 0.89
1 7 14 -0.42 0.94
1 7 14 0.81 1.04
-1 7 -14 0.53 0.77
2 -7 14 1.18 1.21
-2 -7 -14 4.41 1.25
-2 -7 -14 1.49 2.01
2 -7 14 1.38 1.19
2 -7 14 1.82 1.5
-2 -7 -14 0.64 1.52
2 -7 14 0.44 1.47
-2 7 -14 1.2 1.22
-2 7 -14 4.02 1.94
-2 7 -14 -0.1 0.71
2 7 14 2.31 0.96
2 7 14 0.4 1.2
2 7 14 -0.55 1.14
-2 7 -14 1.88 0.68
2 7 14 3.21 1.47
-3 -7 -14 -0.26 2.32
-3 -7 -14 2.17 1.37
3 -7 14 -3.75 1.98
3 -7 14 -0.36 1.27
3 -7 14 -0.63 1.29
3 7 14 0.73 1.29
3 7 14 1.84 1.37
3 7 14 -0.19 0.72
3 7 14 -0.56 0.95
-3 7 -14 -1.22 2.17
3 7 14 1.02 1.39
8 -8 -14 0.87 1.42
-8 -8 14 -0.68 0.86
-8 -8 14 4.27 1.62
8 -8 -14 -0.51 1.32
8 -8 -14 2.81 1.24
-8 -8 14 -1.09 1.07
8 -8 -14 1.63 0.43
8 -8 -14 -1.25 1.62
-8 8 14 1.12 0.76
-8 8 14 0.96 1.38
8 8 -14 0.73 1.26
8 8 -14 0.8 0.56
-8 8 14 -1.69 1.31
7 -8 -14 -0.27 0.35
7 -8 -14 -1.78 1.44
-7 -8 14 -0.06 0.85
7 -8 -14 -0.17 1.09
7 -8 -14 1.47 1.15
-7 -8 14 0.6 0.96
-7 -8 14 2.43 0.8
-7 -8 14 0.14 1.3
7 -8 -14 1.48 1.53
7 8 -14 -0.21 0.33
7 8 -14 0.77 1.44
-7 8 14 -0.22 1.29
-7 8 14 0.23 0.75
7 8 -14 0.33 0.76
7 8 -14 2.74 1.49
-7 8 14 1.51 1.27
6 -8 -14 0.19 1.38
6 -8 -14 -0.11 1.16
-6 -8 14 1.15 1.2
6 -8 -14 0.75 0.32
6 -8 -14 0.44 0.97
-6 -8 14 -1 0.76
6 -8 -14 1.71 1.35
-6 -8 14 0.43 0.79
-6 -8 14 1.45 0.96
-6 -8 14 1.26 1.3
-6 8 14 -1.36 1.11
6 8 -14 -1.04 0.78
-6 8 14 0.72 1.16
-6 8 14 0.57 0.74
-6 8 14 1.46 1.14
6 8 -14 0.89 1.39
6 8 -14 -0.02 1.22
-6 8 14 -0.28 0.95
-5 -8 14 -0.43 0.68
5 -8 -14 -0.34 1.36
5 -8 -14 1 1.05
-5 -8 14 -0.75 0.8
-5 -8 14 -0.63 1.12
-5 -8 14 -1.42 1.14
-5 -8 14 0.12 0.95
-5 8 14 -0.99 1.02
5 8 -14 -1.29 0.78
-5 8 14 -1.68 1
5 8 -14 2.03 1.11
5 8 -14 0.9 1.36
-5 8 14 -0.87 0.69
-5 8 14 -0.45 1.14
-4 -8 14 -0.58 1.02
4 -8 -14 1.83 1.35
4 -8 -14 0.57 1.2
-4 -8 14 -0.66 0.6
-4 -8 14 1.6 0.88
4 -8 -14 1.89 0.83
-4 -8 14 3.12 1.18
4 8 -14 1.38 1.42
4 8 -14 1.1 1.08
-4 8 14 0.9 0.75
-4 8 14 0.35 1.05
-4 8 14 2.88 1
4 8 -14 -1.56 0.84
-4 8 14 0.52 1.1
3 -8 -14 5.85 1.43
3 -8 -14 0.76 0.72
-3 -8 14 2.68 0.99
-3 -8 14 2.39 1.06
3 -8 -14 0.26 1.56
-3 -8 14 0.28 1.05
-3 -8 14 1.88 0.65
3 -8 -14 1.69 1.27
3 8 -14 2.6 1.85
-3 8 14 2.58 0.83
3 8 -14 0.78 1.04
-3 8 14 2.71 1.01
-3 8 14 2.29 1.04
-3 8 14 2.37 1.26
3 8 -14 3.27 1.52
-2 -8 14 -0.51 1.05
-2 -8 14 0.9 0.97
2 -8 -14 -0.82 0.64
2 -8 -14 -1.53 1.24
-2 -8 14 1.35 1.2
2 -8 -14 -0.6 1.18
2 -8 -14 0.96 1.73
-2 -8 14 -0.73 0.56
-2 -8 14 1.07 1.05
-2 8 14 1.26 0.87
2 8 -14 -0.94 0.96
-2 8 14 -0.92 0.99
-2 8 14 2.08 1.18
2 8 -14 -0.28 0.89
-2 8 14 0.75 1.01
2 8 -14 -2.05 1.35
-1 -8 14 -0.03 1.15
1 -8 -14 1.32 1.72
1 -8 -14 0.54 1.22
-1 -8 14 0.64 1.13
-1 -8 14 1.95 1.2
1 -8 -14 -0.27 0.59
1 -8 -14 2.57 1.35
-1 -8 14 1.87 1.03
-1 8 14 0.55 0.99
1 8 -14 1.06 1.08
-1 8 14 1 1.15
-1 8 14 -0.26 1.01
-1 8 14 2.82 1.12
1 8 -14 2.1 1.63
0 -8 -14 -0.19 0.55
0 -8 14 1.08 1.07
0 -8 14 0.06 1.18
0 -8 -14 -1.41 1.32
0 -8 14 -1.54 1.3
0 -8 -14 2.25 1.81
0 -8 -14 1.88 1.3
0 -8 14 -0.46 1.29
0 8 14 -0.04 0.99
0 8 -14 0.15 0.9
0 8 -14 -1.31 1.51
0 8 14 1.04 1.29
0 8 14 -0.94 0.87
0 8 -14 1.03 1.01
0 8 14 0.62 1.07
1 -8 14 1.32 1.12
1 -8 14 1.85 1.48
-1 -8 -14 0.19 0.5
-1 -8 -14 2.14 1.54
-1 -8 -14 0.39 1.92
1 -8 14 1.07 1.21
1 -8 14 0.34 1.66
1 8 14 2.06 1.14
-1 8 -14 1.38 0.92
1 8 14 0.55 1.05
1 8 14 1.34 1.25
-1 8 -14 0.58 1.82
-1 8 -14 0.11 1.17
1 8 14 1.14 1.15
-2 -8 -14 1.82 2.2
2 -8 14 -1.92 1.28
2 -8 14 2.2 1.31
-2 -8 -14 1.72 1.33
2 -8 14 0.05 1.68
-2 8 -14 -0.08 0.87
-2 8 -14 -3.1 1.9
2 8 14 0.1 1.24
2 8 14 -1.16 1.06
-2 8 -14 -1.74 1.35
2 8 14 -0.74 1
2 8 14 3.05 1.33
7 -9 -14 -1.81 1.63
7 -9 -14 -0.14 0.51
-7 -9 14 0.06 1.06
7 -9 -14 -0.55 1.53
7 -9 -14 0.79 1.29
-7 -9 14 2.43 1.38
7 -9 -14 0.25 1.23
-7 -9 14 0.54 1.6
-7 9 14 2.33 1.48
-7 9 14 -0.23 0.79
-7 9 14 -0.21 1.39
7 9 -14 -2.22 1.37
7 9 -14 -1.78 1.45
6 -9 -14 -1.53 1.05
6 -9 -14 -0.28 0.47
-6 -9 14 2.09 0.89
6 -9 -14 1.06 1.14
6 -9 -14 -0.34 1.46
6 -9 -14 -0.14 1.53
-6 -9 14 0.09 0.92
-6 -9 14 0.41 1.36
-6 -9 14 0.33 1.01
-6 -9 14 1.24 1.33
-6 9 14 0.53 1.31
6 9 -14 -0.6 1.45
-6 9 14 -0.05 1.39
-6 9 14 -0.17 0.79
6 9 -14 0.58 0.95
6 9 -14 1.01 1.46
-5 -9 14 0.11 1.28
5 -9 -14 -0.3 1.17
5 -9 -14 0.42 1.43
-5 -9 14 -1.53 1
-5 -9 14 0.73 1
-5 -9 14 0.16 0.95
5 -9 -14 -0.47 1.5
5 -9 -14 -0.07 0.48
-5 -9 14 -0.11 1.3
-5 9 14 0.87 1.2
-5 9 14 -1.07 1.18
5 9 -14 2.03 1.36
5 9 -14 -1.08 1.47
5 9 -14 -0.95 0.93
-5 9 14 0.41 1.28
4 -9 -14 -1.19 1.38
4 -9 -14 -1 1.1
4 -9 -14 1.04 1.62
-4 -9 14 0.61 1.16
-4 -9 14 -0.53 1.24
4 -9 -14 -0.17 0.52
-4 -9 14 -0.08 0.91
-4 -9 14 0.11 0.97
4 9 -14 -0.12 1.21
4 9 -14 1.45 1.64
-4 9 14 1.56 1.31
4 9 -14 2.84 1.01
-4 9 14 2.28 1.16
-4 9 14 -0.59 1.17
-4 9 14 1.16 1.08
-3 -9 14 -1.03 1.06
-3 -9 14 2.96 1.29
3 -9 -14 0.43 1.36
-3 -9 14 1.21 1.32
3 -9 -14 0.14 1.4
-3 -9 14 -0.02 0.73
3 -9 -14 0.69 0.71
-3 9 14 0.75 1.2
3 9 -14 2.87 1.05
-3 9 14 -0.23 1.18
-3 9 14 0.28 1.2
-3 9 14 1.57 1.11
3 9 -14 -0.31 1.15
3 9 -14 1.28 1.68
2 -9 -14 1.89 1.38
-2 -9 14 1.25 0.73
2 -9 -14 0.69 0.65
-2 -9 14 1.45 1.42
-2 -9 14 2.5 1.21
2 -9 -14 1.75 1.51
2 -9 -14 0.56 1.94
-2 -9 14 1.28 1.02
-2 -9 14 1.77 1.17
2 9 -14 -0.54 1.67
-2 9 14 0.61 1.28
-2 9 14 0.26 1.11
-2 9 14 1.57 1.18
2 9 -14 1.7 1.12
2 9 -14 0.59 1.12
-2 9 14 1.5 1.15
-1 -9 14 2.92 1.12
1 -9 -14 2.85 1.33
1 -9 -14 1.21 1.94
-1 -9 14 -1.76 1.27
1 -9 -14 0.3 0.56
1 -9 -14 3.29 1.58
-1 -9 14 -0.23 1.13
-1 9 14 -1.02 1.1
1 9 -14 -1.31 1.13
1 9 -14 0.44 1.1
1 9 -14 -2.19 1.78
-1 9 14 0.04 1.22
-1 9 14 1.28 1.31
-1 9 14 -0.65 1.17
0 -9 14 2.03 1.42
0 -9 -14 0.14 1.47
0 -9 -14 -3.05 2.03
0 -9 -14 -0.23 0.49
0 -9 14 3.98 1.18
0 -9 14 3.24 1.36
0 -9 -14 -0.26 2.08
0 9 14 0.73 1.17
0 9 -14 0.3 1.11
0 9 -14 -2.66 2.06
0 9 14 0.03 1.14
0 9 14 0.32 1.15
0 9 14 2.88 1.41
1 -9 14 0.97 1.25
-1 -9 -14 2.67 2.26
1 -9 14 1.01 1.37
1 -9 14 1.07 1.67
1 9 14 1.41 1.18
-1 9 -14 -0.24 1.48
1 9 14 -0.14 1.21
1 9 14 1.32 1.25
1 9 14 -1.2 1.36
-1 9 -14 2.57 2.2
-1 9 -14 0.53 1.07
6 -10 -14 -0.43 1.75
-6 -10 14 -0.82 1.13
6 -10 -14 -2.15 1.62
6 -10 -14 1.22 1.14
6 -10 -14 -0.55 0.64
-6 10 14 -0.28 0.85
-6 10 14 -2.38 2.16
-6 10 14 -0.12 1.58
6 10 -14 -0.93 1.59
5 -10 -14 0.06 1.68
-5 -10 14 -0.38 0.98
5 -10 -14 1.56 1.68
5 -10 -14 0.16 0.65
5 -10 -14 1 1.42
-5 -10 14 0.61 1.09
-5 -10 14 1.59 1.06
-5 -10 14 0.71 1.44
5 10 -14 -0.88 1.74
5 10 -14 2.57 2.5
-5 10 14 1.89 1.66
5 10 -14 3.06 1.14
-5 10 14 -0.68 1.41
4 -10 -14 2.05 1.79
4 -10 -14 1.3 1.61
4 -10 -14 -0.97 1.02
4 -10 -14 1.65 0.69
-4 -10 14 2.4 0.97
-4 -10 14 2.46 1.19
-4 -10 14 -0.05 1.29
-4 -10 14 0.88 1.42
4 -10 -14 -0.13 1.35
4 10 -14 4.01 1.47
-4 10 14 1.26 1.55
-4 10 14 2.15 1.42
4 10 -14 1.95 1.83
-4 10 14 4.62 1.39
-3 -10 14 -1.59 1.4
3 -10 -14 2.31 0.76
3 -10 -14 0.15 1.36
-3 -10 14 -1.19 1.09
-3 -10 14 1.87 0.93
-3 -10 14 2.98 1.49
3 -10 -14 3.61 1.58
3 -10 -14 -0.22 0.73
3 -10 -14 -2.99 1.58
-3 10 14 0.34 1.43
-3 10 14 1.25 1.32
-3 10 14 0.6 1.26
3 10 -14 2.79 1.33
3 10 -14 1.88 1.18
3 10 -14 2.24 1.87
-2 -10 14 -0.51 1.19
2 -10 -14 2.16 1.48
-2 -10 14 -0.01 0.85
-2 -10 14 -1.15 1.25
2 -10 -14 0.78 1.77
-2 -10 14 1.15 1.43
2 -10 -14 0.15 0.82
-2 10 14 2.85 1.19
2 10 -14 0.69 1.98
-2 10 14 0.37 1.43
-2 10 14 0.89 1.93
2 10 -14 -1.04 1.29
2 10 -14 -1.55 1.19
-2 10 14 1.17 1.31
1 -10 -14 -2.1 2.24
-1 -10 14 0.71 0.85
-1 -10 14 3.08 1.4
-1 -10 14 0.64 1.23
1 -10 -14 1.4 1.51
-1 -10 14 2.43 1.44
1 10 -14 0.71 1.29
-1 10 14 -1.37 1.4
1 10 -14 2.26 2.03
-1 10 14 -0.75 1.25
-1 10 14 1.22 1.38
1 10 -14 -2.36 1.26
-1 10 14 3.28 1.29
0 -10 14 -0.41 1.27
0 -10 14 -0.52 1.45
0 -10 14 2.15 1.65
0 -10 -14 0.21 1.56
0 -10 -14 3.28 2.43
0 10 14 2.29 1.53
0 10 -14 3.15 1.29
0 10 -14 3.07 2.77
0 10 14 -1.32 1.27
0 10 14 1.81 1.36
0 10 -14 -1.49 1.51
-10 0 15 1.18 0.8
-10 0 15 -0.22 1.24
-10 0 15 0.27 1.42
10 0 -15 -0.08 1.25
10 0 -15 -0.62 0.85
10 0 -15 -0.18 1.42
9 0 -15 1.06 1.13
9 0 -15 -0.03 1.21
-9 0 15 -0.85 0.69
-9 0 15 2.18 1.19
-9 0 15 0.98 0.7
-9 0 15 -1.05 1.03
-9 0 15 -1.74 1.23
9 0 -15 3.2 1.28
9 0 -15 1.07 1.27
-8 0 15 -1.14 1.02
8 0 -15 1.75 1.2
-8 0 15 0.31 0.91
-8 0 15 -0.45 0.62
8 0 -15 0.34 0.98
8 0 -15 1.17 1.14
8 0 -15 -0.26 1.14
8 0 -15 -0.12 0.75
-8 0 15 0.78 0.68
-8 0 15 -0.25 1.05
-7 0 15 -0.06 0.83
-7 0 15 0.46 0.87
7 0 -15 0.44 1.06
-7 0 15 -0.08 0.97
-7 0 15 0.09 0.68
7 0 -15 0.12 0.75
-7 0 15 0.06 0.7
7 0 -15 -0.31 1.04
7 0 -15 0.59 0.99
-6 0 15 0.84 0.9
-6 0 15 0.35 0.62
6 0 -15 -1.02 0.92
6 0 -15 -0.26 0.86
6 0 -15 -1.11 0.71
-6 0 15 -0.81 0.64
6 0 -15 -0.83 1.02
-6 0 15 0.35 0.75
-6 0 15 -0.08 0.85
-5 0 15 1.29 0.85
5 0 -15 1.43 1.07
-5 0 15 0.16 0.7
-5 0 15 0.47 0.66
-5 0 15 0.29 0.64
5 0 -15 0.91 1
5 0 -15 -0.24 0.73
-5 0 15 0.33 0.78
-4 0 15 0.51 0.72
-4 0 15 0.17 0.83
4 0 -15 -0.4 0.91
-4 0 15 0.5 0.68
4 0 -15 1.39 1.08
4 0 -15 0.26 0.74
-4 0 15 -0.47 0.66
-4 0 15 -0.59 0.69
-3 0 15 -0.63 0.7
3 0 -15 -1.24 0.92
-3 0 15 -0.69 0.64
-3 0 15 -0.58 0.75
3 0 -15 1.12 1.1
-3 0 15 -0.48 0.73
3 0 -15 -2.08 1.09
-3 0 15 -1.58 0.8
-2 0 15 0 0.84
-2 0 15 1.17 1.3
2 0 -15 -1.7 0.95
-2 0 15 2.65 0.83
2 0 -15 -0.96 1.07
-2 0 15 -0.49 0.61
2 0 -15 -0.61 0.7
-1 0 15 0.93 0.88
-1 0 15 -0.43 0.7
-1 0 15 1.07 0.84
1 0 -15 0.68 0.87
1 0 -15 0.41 1.26
0 0 15 -0.68 0.73
0 0 -15 -0.6 0.89
0 0 15 -0.08 0.34
0 0 15 -1.81 0.91
0 0 -15 -0.11 0.69
0 0 15 -1.54 0.84
0 0 -15 -0.45 1.37
-1 0 -15 0.9 1.37
1 0 15 0.18 0.49
1 0 15 1.93 1.12
-1 0 -15 -0.11 0.73
-1 0 -15 0.34 0.9
1 0 15 -0.01 0.96
1 0 15 0.57 1.03
2 0 15 -0.16 1.22
2 0 15 -0.34 1.2
2 0 15 -0.31 0.86
-2 0 -15 1.1 0.86
-2 0 -15 -0.52 1.13
2 0 15 0.66 0.66
-2 0 -15 -0.32 1.61
3 0 15 0.25 0.87
3 0 15 -1.17 1.03
3 0 15 -0.04 1.4
3 0 15 -2.1 1.41
-3 0 -15 -1.64 0.96
-3 0 -15 -3.01 1.92
-3 0 -15 -1.82 1.09
4 0 15 0.6 1.1
4 0 15 -2.75 1.57
-4 0 -15 1.33 2.32
4 0 15 1.77 1.14
-4 0 -15 -0.24 1.23
-10 -1 15 -0.39 1.43
-10 -1 15 1.58 0.76
10 -1 -15 0.2 1.27
10 -1 -15 0.49 0.99
10 -1 -15 -0.53 1.43
-10 -1 15 0.06 1.28
-10 1 15 0.03 1.18
10 1 -15 0.26 0.81
10 1 -15 -0.29 1.42
-10 1 15 -1.2 0.81
-10 1 15 -0.1 1.38
-10 1 15 -1.86 1.62
10 1 -15 0.95 1.22
9 -1 -15 -1.04 1.16
-9 -1 15 1.24 1.1
9 -1 -15 0.45 1.3
-9 -1 15 1.25 1.22
-9 -1 15 -0.52 0.69
9 -1 -15 0.35 0.85
-9 -1 15 0.51 0.66
9 -1 -15 -0.19 1.33
9 1 -15 0.92 0.79
-9 1 15 0.42 0.74
9 1 -15 -0.71 1.14
-9 1 15 -0.76 1.03
9 1 -15 -1.35 1.16
-9 1 15 -2.93 1.2
9 1 -15 -1.27 1.32
-9 1 15 -0.02 1.17
-9 1 15 -0.21 0.82
9 1 -15 -0.02 1.24
-8 -1 15 0.79 0.76
-8 -1 15 1.34 0.96
8 -1 -15 0.63 1.04
-8 -1 15 0.97 1.09
8 -1 -15 0.9 1.19
8 -1 -15 1.49 1.2
-8 -1 15 0.65 0.63
8 -1 -15 0.46 0.81
-8 1 15 0.68 0.69
8 1 -15 0.42 1.11
-8 1 15 0.42 1.08
-8 1 15 -0.25 1.04
8 1 -15 -1.38 1
-8 1 15 -1.29 0.9
-8 1 15 1.27 0.75
8 1 -15 0.27 1.13
8 1 -15 0.98 1.16
8 1 -15 0.2 0.73
7 -1 -15 1.17 1.09
-7 -1 15 -1.29 0.68
7 -1 -15 1.39 0.86
-7 -1 15 -0.82 0.92
7 -1 -15 0.06 1.01
7 -1 -15 -0.97 0.91
-7 -1 15 1.02 0.9
-7 -1 15 1.16 0.65
-7 1 15 0.97 0.75
-7 1 15 0.72 1
7 1 -15 -0.56 0.99
7 1 -15 -0.67 1.05
-7 1 15 0.14 0.81
-7 1 15 -0.83 0.61
-7 1 15 -0.14 0.93
7 1 -15 -0.01 0.78
7 1 -15 0.85 0.99
-6 -1 15 0.81 0.64
-6 -1 15 0.15 0.81
6 -1 -15 0.95 1.02
6 -1 -15 -0.72 0.8
6 -1 -15 1.48 1.11
-6 -1 15 -0.93 0.7
-6 -1 15 1.99 0.88
-6 1 15 0.79 0.87
6 1 -15 2.28 0.98
-6 1 15 -0.25 0.68
-6 1 15 1.35 0.74
6 1 -15 0.16 0.78
-6 1 15 0.83 0.78
6 1 -15 1.58 0.96
-6 1 15 1.16 0.89
6 1 -15 0.2 1.04
5 -1 -15 1.46 1.05
5 -1 -15 0.31 0.96
-5 -1 15 -0.49 0.72
5 -1 -15 -0.07 0.78
-5 -1 15 0.44 0.66
-5 -1 15 0.98 0.86
-5 -1 15 0.61 0.78
5 1 -15 -0.1 1.04
-5 1 15 0.21 0.81
5 1 -15 -1.44 0.97
-5 1 15 0.02 0.71
5 1 -15 0.76 0.66
-5 1 15 0.2 0.75
-5 1 15 -0.65 0.65
-5 1 15 0.41 0.69
5 1 -15 -0.83 0.82
4 -1 -15 -0.72 0.98
-4 -1 15 1 0.84
-4 -1 15 0.08 0.65
4 -1 -15 0.77 1.13
4 -1 -15 0.06 0.75
-4 -1 15 -0.33 0.69
-4 -1 15 0.07 0.77
-4 1 15 1.31 0.75
-4 1 15 0.41 0.71
-4 1 15 -0.97 0.72
4 1 -15 1.3 0.93
4 1 -15 1.32 1.16
-4 1 15 0.1 0.68
4 1 -15 -0.72 0.72
-4 1 15 0.6 0.72
3 -1 -15 2.19 1.01
-3 -1 15 0 0.72
3 -1 -15 0.23 1.1
3 -1 -15 -0.76 0.75
-3 -1 15 1.15 0.84
-3 -1 15 0 0.83
-3 -1 15 1.07 0.75
3 1 -15 0.78 0.74
-3 1 15 0.06 0.67
-3 1 15 0 0.77
3 1 -15 0.38 1.07
3 1 -15 -0.57 0.75
-3 1 15 0.95 0.8
-3 1 15 0.63 0.69
3 1 -15 2.03 0.98
-2 -1 15 -0.75 0.74
2 -1 -15 -0.53 0.95
2 -1 -15 -0.77 0.73
2 -1 -15 -0.26 1.16
-2 -1 15 -0.57 0.83
2 1 -15 -0.21 0.75
-2 1 15 -0.86 0.79
-2 1 15 1.05 0.81
-2 1 15 -0.1 0.62
2 1 -15 -0.05 1.06
-2 1 15 1.14 0.66
1 -1 -15 2.81 1.24
1 -1 -15 -0.03 0.83
-1 -1 15 0.3 0.89
-1 -1 15 0.15 0.23
-1 -1 15 0.88 0.91
-1 -1 15 0.14 0.74
1 1 -15 0.44 0.86
-1 1 15 0.7 0.59
-1 1 15 0.08 0.89
1 1 -15 0.42 1.12
-1 1 15 0.54 0.78
-1 1 15 1.56 0.88
0 -1 -15 0.76 0.96
0 -1 15 -0.6 0.9
0 -1 -15 0.45 1.4
0 -1 -15 -0.27 0.68
0 -1 15 1.04 0.42
0 -1 15 0.71 0.74
0 -1 15 0.95 0.99
0 1 15 -0.21 1.01
0 1 15 -1.41 0.97
0 1 15 0.45 0.56
0 1 -15 -0.47 0.61
0 1 15 -0.02 0.28
0 1 15 0.86 0.75
0 1 -15 0.03 0.93
0 1 -15 -0.13 1.34
1 -1 15 1.08 1.08
-1 -1 -15 0.24 0.94
-1 -1 -15 0.89 0.79
1 -1 15 -0.26 0.85
1 -1 15 0.18 0.54
1 -1 15 0.49 1.1
-1 -1 -15 -0.29 1.5
-1 1 -15 0.43 1.52
1 1 15 -0.25 1.12
-1 1 -15 -0.06 0.74
-1 1 -15 0.5 1.03
1 1 15 0.38 0.44
1 1 15 -0.71 0.84
1 1 15 1.19 1.02
-2 -1 -15 -0.42 1.09
2 -1 15 0.59 1.2
-2 -1 -15 -1.16 0.88
2 -1 15 0.59 1.18
-2 -1 -15 -1.2 1.84
2 -1 15 -0.17 0.84
2 -1 15 0.38 0.71
-2 1 -15 0.15 0.87
2 1 15 1.16 1.07
2 1 15 -0.01 0.61
2 1 15 1.08 1.22
2 1 15 -0.77 1.17
-2 1 -15 -1.19 0.97
-2 1 -15 2.21 1.73
3 -1 15 0.95 0.96
3 -1 15 1.28 0.92
-3 -1 -15 -0.72 1.31
-3 -1 -15 2.59 2.08
3 -1 15 -2.89 1.24
3 -1 15 -2.49 1.48
-3 -1 -15 1.57 1.04
3 1 15 -0.29 1.46
-3 1 -15 1.52 2.03
3 1 15 0.76 0.81
-3 1 -15 -0.49 0.99
3 1 15 -1.03 0.97
-3 1 -15 -2.34 1.29
3 1 15 2.97 1.26
-4 -1 -15 -1.76 2.21
-4 -1 -15 0.36 1.24
4 -1 15 2.37 1.16
4 -1 15 0.33 1.15
4 1 15 -2.24 1.1
-4 1 -15 4.29 2.44
-4 1 -15 -0.81 1.15
4 1 15 3.26 1.06
4 1 15 0.63 1.74
10 -2 -15 1.96 1.39
10 -2 -15 -0.25 1.5
-10 -2 15 0.13 1.38
-10 -2 15 -0.28 1.37
-10 -2 15 1.02 0.7
10 -2 -15 -2.3 1.01
10 2 -15 -1.39 1.12
-10 2 15 2.97 0.97
10 2 -15 -1.32 1.36
-10 2 15 -3.79 1.31
-10 2 15 -0.88 1.15
-9 -2 15 0.08 1.16
-9 -2 15 1.11 1.25
-9 -2 15 -0.15 0.68
-9 -2 15 1.35 0.74
9 -2 -15 0.92 1.21
9 -2 -15 1.09 1.37
9 -2 -15 -0.42 1.36
9 -2 -15 1.05 0.98
-9 2 15 0.92 0.99
9 2 -15 0.61 1.16
9 2 -15 -1.19 1.16
-9 2 15 -1.12 0.79
-9 2 15 0.78 1.24
9 2 -15 0.23 1.25
9 2 -15 0.71 0.75
-9 2 15 0.02 1.32
-9 2 15 0.4 0.79
9 2 -15 0.38 1.34
8 -2 -15 -0.11 1.03
8 -2 -15 0.66 1.18
-8 -2 15 0.36 0.66
-8 -2 15 0.97 0.77
8 -2 -15 0.9 1.19
8 -2 -15 -0.14 0.89
-8 -2 15 0.75 1.01
-8 -2 15 0.13 1.02
8 2 -15 -0.7 1.13
8 2 -15 1.93 1.15
8 2 -15 1.55 0.81
-8 2 15 1.03 1.07
-8 2 15 -0.52 0.75
-8 2 15 -0.57 0.76
8 2 -15 0.47 1.11
-8 2 15 2.89 1.2
-8 2 15 0.35 0.9
7 -2 -15 1.07 1.21
7 -2 -15 -0.65 0.83
7 -2 -15 -0.22 0.96
-7 -2 15 0.36 0.77
-7 -2 15 -0.44 0.55
7 -2 -15 2.42 1.19
-7 -2 15 1.44 0.99
-7 -2 15 1.73 0.96
-7 2 15 0.1 0.99
7 2 -15 1.55 1.06
7 2 -15 0.22 1.13
-7 2 15 0.81 0.79
-7 2 15 2.16 1.02
-7 2 15 2.64 0.82
-7 2 15 2.66 0.8
7 2 -15 0.65 1.06
7 2 -15 0.95 0.8
6 -2 -15 0.7 0.86
-6 -2 15 -0.2 0.61
-6 -2 15 -0.89 0.71
6 -2 -15 -1.36 1.04
-6 -2 15 1.24 0.91
6 -2 -15 1.35 1.22
6 -2 -15 0.01 0.82
-6 -2 15 1.23 0.86
-6 2 15 1.1 0.89
-6 2 15 -1.27 0.67
-6 2 15 0.49 0.73
6 2 -15 0.98 1.2
6 2 -15 -0.02 0.89
-6 2 15 -0.28 0.76
6 2 -15 0.84 0.71
-6 2 15 0.39 0.86
6 2 -15 -0.4 0.99
-5 -2 15 0.79 0.82
5 -2 -15 0 1.02
-5 -2 15 -0.36 0.58
5 -2 -15 0.17 0.81
-5 -2 15 0.52 0.81
-5 -2 15 0.55 0.88
5 -2 -15 -0.85 1
-5 2 15 0.01 0.74
-5 2 15 0.38 0.79
5 2 -15 0.29 0.99
-5 2 15 0.8 0.79
-5 2 15 -0.49 0.69
5 2 -15 0.56 0.93
-5 2 15 0.9 0.88
5 2 -15 0.32 0.86
5 2 -15 0.04 0.79
4 -2 -15 0.68 1.17
4 -2 -15 1.97 0.84
-4 -2 15 1.98 0.73
4 -2 -15 1.48 0.99
-4 -2 15 0.65 0.84
-4 -2 15 1.1 0.79
-4 -2 15 2.62 0.77
4 2 -15 0.36 0.96
4 2 -15 2.27 0.87
-4 2 15 3.14 0.85
4 2 -15 1.74 1.12
-4 2 15 0.99 0.69
-4 2 15 1.38 0.74
-4 2 15 1.59 0.84
-4 2 15 2.76 0.79
3 -2 -15 0.02 0.97
3 -2 -15 2.16 1.27
-3 -2 15 0.82 0.76
-3 -2 15 1.38 0.9
3 -2 -15 -0.73 0.71
-3 -2 15 1.64 0.77
-3 -2 15 1.06 0.68
-3 2 15 1.7 0.81
3 2 -15 2.24 0.79
3 2 -15 0.15 1.08
-3 2 15 1.13 0.75
-3 2 15 1.75 0.8
3 2 -15 2.56 0.78
-3 2 15 2.17 0.73
3 2 -15 1.91 0.98
-2 -2 15 0.44 0.83
-2 -2 15 1.18 0.87
-2 -2 15 1.84 0.89
2 -2 -15 1.72 0.94
2 -2 -15 2.09 1.26
2 -2 -15 1.55 0.97
-2 -2 15 0.27 0.79
2 2 -15 1.26 1.29
-2 2 15 0.34 0.88
-2 2 15 1.96 0.77
2 2 -15 1.17 0.85
-2 2 15 0.16 0.84
-2 2 15 2.38 0.72
1 -2 -15 2.62 1.01
-1 -2 15 3.21 0.78
-1 -2 15 3.82 1.06
1 -2 -15 4.29 1.14
1 -2 -15 4.15 1.42
-1 -2 15 3.42 0.97
-1 2 15 4.78 1.01
1 2 -15 5.21 0.68
1 2 -15 6.97 1.08
-1 2 15 4 0.69
1 2 -15 2.9 1.27
-1 2 15 5.14 1.07
-1 2 15 5.43 1.01
0 -2 15 0.98 0.9
0 -2 15 -0.23 0.8
0 -2 -15 -0.62 0.84
0 -2 -15 -0.19 1.44
0 -2 15 1.4 1.07
0 -2 15 0.39 0.48
0 2 -15 0.83 1.26
0 2 -15 1.44 0.95
0 2 15 0.24 0.92
0 2 15 0.45 0.62
0 2 15 0.67 0.97
0 2 -15 0.11 0.7
0 2 15 1.77 0.9
0 2 15 -0.5 0.23
1 -2 15 0.83 1.08
-1 -2 -15 -0.28 0.97
-1 -2 -15 1.3 0.86
1 -2 15 3.57 1.09
-1 -2 -15 -0.4 1.45
1 -2 15 1.93 0.77
1 2 15 -0.03 1.11
1 2 15 -0.21 1.11
1 2 15 0.7 0.84
-1 2 -15 0.36 0.71
1 2 15 -0.29 0.56
1 2 15 -0.16 0.41
-1 2 -15 1.64 1.48
-1 2 -15 2.24 0.97
2 -2 15 0.58 0.82
2 -2 15 -0.41 0.78
-2 -2 -15 0.94 1.24
-2 -2 -15 -0.93 1.79
-2 -2 -15 -0.07 0.92
2 -2 15 0.77 1.23
-2 2 -15 0.83 1.08
2 2 15 2.23 1.3
2 2 15 -1.15 1.03
-2 2 -15 1.9 1.86
2 2 15 -0.07 0.54
2 2 15 -0.68 1.05
-2 2 -15 0.16 0.82
-3 -2 -15 -0.29 2.07
-3 -2 -15 0.01 1.23
3 -2 15 -0.06 1.01
-3 -2 -15 -1.05 1.05
3 -2 15 2.01 1.14
3 2 15 0.74 1.32
-3 2 -15 -0.27 1.91
-3 2 -15 -1.32 0.95
3 2 15 -2.04 1.21
3 2 15 0.62 0.76
-3 2 -15 2.3 1.32
3 2 15 -0.44 1.06
4 -2 15 -0.9 1.23
-4 -2 -15 1.48 1.32
-4 -2 -15 -0.34 2.4
4 -2 15 3.08 1.86
4 -2 15 0.7 1.24
4 2 15 -0.72 1.79
4 2 15 0.39 0.99
4 2 15 -1.13 1.16
-4 2 -15 -4.1 2.35
-4 2 -15 1.04 1.19
10 -3 -15 4.88 1.71
10 -3 -15 0.26 1.51
-10 -3 15 4.47 1.43
-10 -3 15 2.86 1.47
10 3 -15 3.58 1.13
10 3 -15 5.15 1.47
-10 3 15 4.21 1.02
10 3 -15 2.93 1.21
-10 3 15 -0.56 1.13
-10 3 15 -0.13 1.5
9 -3 -15 3.06 1.23
9 -3 -15 2.61 1.47
-9 -3 15 1.88 0.79
-9 -3 15 1.18 0.83
-9 -3 15 2.08 1.21
-9 -3 15 1.28 1.22
9 -3 -15 1.41 1.38
9 -3 -15 0.7 1.15
-9 3 15 2.94 1.41
9 3 -15 2.76 0.86
9 3 -15 2.24 1.28
-9 3 15 3.63 1.03
-9 3 15 -0.92 0.9
-9 3 15 1.94 0.96
-9 3 15 0.79 1.26
9 3 -15 2.56 1.26
-8 -3 15 -0.51 1.04
8 -3 -15 -1.42 1.28
8 -3 -15 1.06 0.9
8 -3 -15 1.34 1.3
-8 -3 15 -0.18 0.63
-8 -3 15 -0.22 0.74
-8 -3 15 -0.28 1.1
8 -3 -15 -1.54 1.09
-8 3 15 0.47 0.86
-8 3 15 1.95 1.16
-8 3 15 -1.51 1.12
-8 3 15 0.9 0.76
8 3 -15 -0.25 1.13
-8 3 15 0.87 0.87
8 3 -15 -1.03 1.14
8 3 -15 0.36 1.1
8 3 -15 -0.74 0.7
7 -3 -15 0.86 0.95
-7 -3 15 0.29 0.62
7 -3 -15 0.6 1.15
7 -3 -15 -0.67 1.19
-7 -3 15 -1.1 0.93
-7 -3 15 1.01 0.78
-7 -3 15 1.88 1.03
7 -3 -15 0.7 0.94
7 3 -15 -0.18 1.09
7 3 -15 0.86 1.01
-7 3 15 0.13 0.8
-7 3 15 0.1 0.86
7 3 -15 1.95 1.04
7 3 -15 -0.15 0.73
-7 3 15 0.48 0.96
-7 3 15 1.65 0.92
-7 3 15 0.25 0.72
-6 -3 15 -0.48 0.6
-6 -3 15 1.45 0.94
-6 -3 15 0.31 0.89
6 -3 -15 0.16 1.14
6 -3 -15 -0.27 0.85
6 -3 -15 0.27 1.12
6 -3 -15 0.41 0.84
-6 -3 15 -0.67 0.71
-6 3 15 -0.43 0.84
6 3 -15 1.58 0.78
6 3 -15 -0.15 1.08
-6 3 15 1.59 0.76
6 3 -15 1.69 0.99
-6 3 15 0.36 0.86
6 3 -15 -1.04 0.9
-6 3 15 0.32 0.74
-6 3 15 1.75 0.94
-5 -3 15 0.57 0.84
5 -3 -15 -1.87 1.06
-5 -3 15 -0.54 0.65
-5 -3 15 0.89 0.78
5 -3 -15 1.34 1.06
-5 -3 15 -1.08 0.81
5 -3 -15 -0.35 0.86
-5 3 15 0.42 0.8
5 3 -15 -0.16 0.75
-5 3 15 -0.12 0.89
5 3 -15 1.1 1.13
5 3 -15 1.39 0.87
-5 3 15 0.74 0.7
-5 3 15 0.54 0.82
5 3 -15 0.37 0.94
-5 3 15 0.84 0.65
4 -3 -15 3.06 1.33
-4 -3 15 2.25 0.85
-4 -3 15 1.85 0.9
-4 -3 15 2.6 0.73
4 -3 -15 4.36 1.07
4 -3 -15 4.3 1.05
-4 -3 15 2.79 0.88
-4 3 15 4.39 0.95
4 3 -15 2.68 0.97
-4 3 15 3.4 0.86
-4 3 15 1.77 0.84
4 3 -15 4.18 0.92
4 3 -15 2.29 1.16
4 3 -15 2.12 0.95
-4 3 15 1.12 0.7
3 -3 -15 3.19 1
-3 -3 15 1.64 0.9
3 -3 -15 2.6 1.09
-3 -3 15 0.92 0.89
-3 -3 15 1.1 0.79
-3 -3 15 1.24 0.75
3 -3 -15 0.66 1.26
3 3 -15 2.24 1.14
-3 3 15 1.47 0.76
3 3 -15 3.07 0.89
3 3 -15 2.66 0.81
-3 3 15 3.22 0.85
-3 3 15 2.3 0.89
-3 3 15 1.33 0.83
2 -3 -15 1.59 0.93
-2 -3 15 1.98 0.76
2 -3 -15 0.77 1
-2 -3 15 -0.47 0.92
-2 -3 15 2.4 1.36
2 -3 -15 2.59 1.35
-2 3 15 0.65 0.86
2 3 -15 1.33 1.17
-2 3 15 0.95 0.88
2 3 -15 2.27 0.81
-2 3 15 1.23 0.73
-2 3 15 1.03 0.82
2 3 -15 1.45 0.77
1 -3 -15 0.28 1.11
1 -3 -15 2.74 1.49
-1 -3 15 1.91 0.79
-1 -3 15 0.63 1.02
1 -3 -15 -0.23 0.91
-1 -3 15 -0.21 0.87
1 3 -15 1.16 0.72
-1 3 15 2.62 0.93
1 3 -15 0.85 0.55
1 3 -15 1.17 1.42
-1 3 15 1.58 0.86
1 3 -15 3.51 0.93
-1 3 15 0.95 0.65
-1 3 15 0.81 0.91
0 -3 15 0.31 1.11
0 -3 -15 1.77 1.51
0 -3 15 1.32 0.92
0 -3 15 -0.56 1
0 -3 -15 0.47 1.03
0 3 15 0.34 0.97
0 3 15 -1.23 0.83
0 3 15 0.72 0.64
0 3 -15 -0.43 1.33
0 3 -15 0.33 0.91
0 3 15 -2.03 0.94
0 3 -15 0.42 0.59
-1 -3 -15 0.3 1.63
1 -3 15 0.09 1.22
1 -3 15 1.69 0.93
1 -3 15 -0.67 1.2
-1 -3 -15 0.91 1.04
-1 -3 -15 0.74 0.91
1 3 15 1.03 1.02
-1 3 -15 -2.53 1.48
-1 3 -15 1.92 1.07
1 3 15 -0.12 0.37
-1 3 -15 -0.37 0.67
1 3 15 0.45 0.64
1 3 15 1.41 1.11
1 3 15 -0.91 1.08
-2 -3 -15 2.91 1.23
2 -3 15 2.04 0.91
-2 -3 -15 1.56 1.85
-2 -3 -15 -1.22 0.97
2 -3 15 -0.04 1.35
2 -3 15 -0.54 1.27
2 3 15 -0.48 0.59
2 3 15 2.4 1.32
-2 3 -15 1.54 0.81
-2 3 -15 0.07 1.01
2 3 15 0.5 0.54
-2 3 -15 0.2 1.77
2 3 15 -1.82 1.24
2 3 15 0.7 0.97
-3 -3 -15 1.19 1.16
-3 -3 -15 0.81 2.19
3 -3 15 -0.93 1.02
3 -3 15 0.25 1.49
-3 3 -15 0.72 0.96
-3 3 -15 3.86 2.19
-3 3 -15 -0.7 1.22
3 3 15 1.02 0.72
3 3 15 1.47 1.31
3 3 15 1.21 1.14
3 3 15 0.2 1.37
4 -3 15 2.17 1.3
-4 -3 -15 -5.46 2.46
-4 -3 -15 1.5 1.3
4 3 15 -0.65 1.7
4 3 15 1.1 0.94
4 3 15 -1.79 1.63
-4 3 -15 1.77 1.17
10 -4 -15 -0.02 1.96
-10 -4 15 -0.27 1.54
10 -4 -15 2.73 1.73
10 4 -15 -0.21 1.17
-10 4 15 0.8 1.17
-10 4 15 3.11 1.09
10 4 -15 0.34 1.43
-9 -4 15 -0.63 1.33
9 -4 -15 -0.14 1.22
-9 -4 15 0.69 1.25
-9 -4 15 -0.82 0.74
9 -4 -15 -0.2 1.45
9 -4 -15 0.53 1.27
9 -4 -15 1.23 1.45
-9 4 15 0.85 0.96
-9 4 15 0.12 1.36
9 4 -15 -0.87 1.19
-9 4 15 0.84 0.99
9 4 -15 1.51 1.17
9 4 -15 1.01 0.88
9 4 -15 -1.92 0.76
-9 4 15 0.85 1.01
-8 -4 15 -2.78 1.17
8 -4 -15 -1.84 0.97
8 -4 -15 0.4 1.17
8 -4 -15 -0.15 1.33
-8 -4 15 -0.23 1.01
8 -4 -15 1.43 1.3
-8 -4 15 -0.12 0.68
-8 -4 15 0.75 0.79
-8 4 15 0.89 0.9
8 4 -15 -0.13 1.24
8 4 -15 -0.01 1.21
-8 4 15 0.68 0.88
8 4 -15 0.94 0.84
8 4 -15 -1.18 1.12
-8 4 15 -0.32 1.21
-8 4 15 0.8 0.94
-8 4 15 -1.21 1.05
-7 -4 15 1.03 1.08
-7 -4 15 0.2 0.77
7 -4 -15 -0.68 1.22
7 -4 -15 0.39 1.02
7 -4 -15 1.11 1.03
-7 -4 15 -0.68 0.65
-7 -4 15 0.15 0.98
7 -4 -15 1.03 1.29
7 4 -15 -0.18 1.07
-7 4 15 -1.07 0.81
7 4 -15 0.3 1.07
-7 4 15 -0.15 1.08
7 4 -15 0.98 1.25
7 4 -15 0.49 0.77
-7 4 15 -1.55 0.96
-7 4 15 0.18 0.92
-7 4 15 1 0.79
-6 -4 15 1.34 1
-6 -4 15 -0.82 0.91
6 -4 -15 -0.84 1.16
6 -4 -15 -0.33 1.13
-6 -4 15 0.81 0.8
6 -4 -15 2.2 0.97
6 -4 -15 0.75 0.92
-6 4 15 0.54 0.98
-6 4 15 0.54 0.94
6 4 -15 -0.3 0.78
-6 4 15 0.05 0.64
6 4 -15 0.39 1.03
-6 4 15 -0.63 0.71
6 4 -15 -1.12 1.1
6 4 -15 0.38 0.99
-6 4 15 0.35 0.92
5 -4 -15 0.36 1.09
-5 -4 15 0.46 0.94
5 -4 -15 0.02 1.1
-5 -4 15 -1.03 0.6
5 -4 -15 0.74 1.3
-5 -4 15 -0.83 0.87
5 -4 -15 -0.72 0.84
-5 -4 15 1.53 0.81
5 4 -15 -1.68 0.95
5 4 -15 0.18 0.88
5 4 -15 1.35 1.18
-5 4 15 0.83 0.88
-5 4 15 0.98 0.92
-5 4 15 1.19 0.68
5 4 -15 0.55 0.74
-5 4 15 0.65 0.72
-5 4 15 -0.16 0.94
-4 -4 15 1.35 0.71
-4 -4 15 0.7 0.71
4 -4 -15 0.9 1.16
4 -4 -15 1.29 1.07
-4 -4 15 0.65 0.92
-4 -4 15 0.24 0.89
4 -4 -15 0.44 0.95
4 4 -15 0.3 0.72
-4 4 15 0.71 0.89
-4 4 15 1.12 0.82
-4 4 15 1.18 1.52
4 4 -15 0.39 0.88
-4 4 15 1.06 0.7
4 4 -15 0.15 1.13
-3 -4 15 -0.15 0.87
3 -4 -15 0.36 1.04
3 -4 -15 1.8 0.99
-3 -4 15 0.28 0.29
3 -4 -15 0.08 1.27
-3 -4 15 -0.52 0.91
-3 -4 15 0.98 0.67
-3 4 15 -0.19 0.78
3 4 -15 1.09 0.83
-3 4 15 0.8 0.86
3 4 -15 1.77 1.22
-3 4 15 -0.32 0.9
-3 4 15 0.47 0.81
2 -4 -15 1.6 1.14
2 -4 -15 -0.42 1.26
2 -4 -15 -0.78 0.96
-2 -4 15 -0.09 0.95
-2 -4 15 0.4 0.87
-2 -4 15 -0.28 0.3
-2 -4 15 -0.14 0.95
2 4 -15 -0.63 0.75
2 4 -15 -0.71 1.09
-2 4 15 -0.43 0.87
-2 4 15 1.86 0.74
2 4 -15 0.51 0.78
-2 4 15 1.22 0.88
2 4 -15 0.44 0.49
-2 4 15 0.77 0.88
-1 -4 15 1.52 1.16
1 -4 -15 1.5 1.05
-1 -4 15 2.86 0.93
1 -4 -15 3.41 1.52
1 -4 -15 3.58 1.19
-1 -4 15 3.33 0.86
-1 -4 15 2 1.07
1 4 -15 2.5 0.78
1 4 -15 2.42 0.96
-1 4 15 2.78 0.98
-1 4 15 3.6 1.02
-1 4 15 2.43 1.03
1 4 -15 2.45 1.43
1 4 -15 3.18 0.58
0 -4 15 0.38 0.88
0 -4 -15 2 1.59
0 -4 15 -0.03 1
0 -4 15 1.49 1.13
0 -4 15 -0.6 0.89
0 -4 -15 2.74 1.14
0 4 -15 1.79 0.62
0 4 -15 1.11 1.6
0 4 -15 0.34 0.7
0 4 15 0.65 0.69
0 4 15 -0.07 1.08
0 4 15 1.73 1.07
0 4 15 1.23 1.04
0 4 -15 1.79 0.91
1 -4 15 0.84 1.27
-1 -4 -15 -0.16 1.7
-1 -4 -15 1.35 0.96
1 -4 15 1.01 0.93
-1 -4 -15 -0.94 1
1 -4 15 1.28 1.15
-1 4 -15 1.24 0.69
1 4 15 0.24 0.98
-1 4 -15 -1.46 1.58
1 4 15 0.46 0.41
1 4 15 0.31 0.7
1 4 15 0 0.97
-1 4 -15 0.61 1
1 4 15 0.39 1.12
-2 -4 -15 0.32 1.09
-2 -4 -15 -0.28 1.16
-2 -4 -15 2.36 1.92
2 -4 15 0.37 1.31
2 -4 15 1.17 1.4
2 -4 15 -0.54 0.86
2 4 15 1.62 1.09
2 4 15 -2.32 1.27
-2 4 -15 -1.17 1.12
2 4 15 0.53 0.52
2 4 15 -1.25 0.65
-2 4 -15 2.09 1.92
2 4 15 -0.56 1.24
-2 4 -15 -0.44 0.81
-3 -4 -15 1.51 2.17
3 -4 15 -0.28 1.65
3 -4 15 1.72 1.24
-3 -4 -15 0.25 1.15
-3 4 -15 0.97 2.22
-3 4 -15 0.86 0.96
3 4 15 0.89 1.09
3 4 15 -1.24 1.22
3 4 15 -1.26 0.61
-3 4 -15 -0.3 1.74
3 4 15 -0.45 0.75
3 4 15 1 1.95
-9 -5 15 0.67 1.5
9 -5 -15 -1.58 1.59
9 -5 -15 1.07 1.52
-9 -5 15 -1.87 1.25
9 -5 -15 -0.74 1.27
9 -5 -15 1.01 1.6
-9 -5 15 1.15 0.83
9 5 -15 1.08 1.31
-9 5 15 -1.39 1.4
9 5 -15 0.93 0.89
9 5 -15 1.22 1.22
-9 5 15 0.98 1.14
-9 5 15 0.42 1.1
9 5 -15 0.56 0.96
-8 -5 15 0.75 0.8
8 -5 -15 0.73 1.36
-8 -5 15 1.48 1.29
8 -5 -15 -0.35 1.08
8 -5 -15 -0.58 1.15
-8 -5 15 0.76 1.09
8 -5 -15 -1.3 1.48
8 5 -15 0.02 1.26
8 5 -15 -1.61 1.11
-8 5 15 0.35 0.91
-8 5 15 -1.84 1.17
8 5 -15 1.21 0.81
-8 5 15 0.48 1.04
8 5 -15 0.15 1.3
8 5 -15 -0.35 0.8
-7 -5 15 -1.23 1.07
-7 -5 15 -0.33 0.83
-7 -5 15 -0.4 0.68
7 -5 -15 -0.77 1.28
7 -5 -15 -2.49 1.34
7 -5 -15 -1.44 1.07
7 -5 -15 -1.91 0.99
-7 -5 15 -0.04 0.99
-7 5 15 -0.53 0.97
-7 5 15 -0.49 1.12
-7 5 15 -0.64 0.81
7 5 -15 -0.45 1.04
7 5 -15 -0.55 0.79
7 5 -15 -0.86 1.2
-7 5 15 -0.23 0.84
7 5 -15 0.53 1.29
-7 5 15 0.03 1.1
-6 -5 15 -0.57 1.06
6 -5 -15 0.84 0.91
6 -5 -15 -1.55 0.99
-6 -5 15 0.04 0.69
-6 -5 15 -0.46 0.8
6 -5 -15 0.3 1.36
-6 -5 15 1.37 0.96
6 -5 -15 0.38 1.26
-6 5 15 -1.59 0.99
6 5 -15 1.33 0.87
-6 5 15 1.28 1.02
6 5 -15 2.05 1.1
6 5 -15 -0.34 1.13
6 5 -15 -1.01 1.01
-6 5 15 3 0.96
-6 5 15 -0.43 1
-6 5 15 -0.31 0.77
5 -5 -15 0.61 0.97
5 -5 -15 0.49 1.3
-5 -5 15 0.33 0.65
-5 -5 15 0.25 0.81
-5 -5 15 -0.13 0.39
-5 -5 15 -1.29 0.89
5 -5 -15 0.25 0.89
-5 -5 15 1.12 0.95
5 -5 -15 1 1.23
5 5 -15 0.45 0.71
-5 5 15 -0.45 0.76
-5 5 15 0.15 0.95
5 5 -15 1.57 1
5 5 -15 0.41 1.24
-5 5 15 -0.08 0.72
-5 5 15 3.11 1.02
4 -5 -15 2.47 1.35
-4 -5 15 0.93 0.94
-4 -5 15 -0.23 0.37
4 -5 -15 0.59 0.98
4 -5 -15 0.6 1.15
-4 -5 15 -1.07 0.91
-4 -5 15 0.17 0.68
-4 5 15 -0.45 0.74
-4 5 15 0.13 0.94
4 5 -15 0.94 0.93
-4 5 15 0.45 0.93
4 5 -15 0.3 0.8
-4 5 15 0.66 0.88
4 5 -15 -1.1 1.24
3 -5 -15 -0.17 1.11
3 -5 -15 -1.65 0.95
-3 -5 15 -1.27 1.04
3 -5 -15 -0.78 1.29
-3 -5 15 0.99 0.77
-3 -5 15 0.23 0.38
-3 -5 15 0.77 1
-3 -5 15 0.73 0.91
-3 5 15 0.31 0.66
3 5 -15 0.72 0.45
-3 5 15 0.87 0.98
-3 5 15 0.51 0.89
3 5 -15 -1.05 1.38
3 5 -15 1.71 1.38
-3 5 15 0.16 0.96
-2 -5 15 1.96 1.02
-2 -5 15 1.95 0.87
-2 -5 15 2.61 1.17
2 -5 -15 1.05 1.38
2 -5 -15 4.15 1.22
-2 -5 15 1.33 0.93
2 -5 -15 1 0.99
-2 5 15 2.52 1.02
-2 5 15 2.53 1
2 5 -15 1.04 0.5
2 5 -15 2.06 1.44
-2 5 15 1.25 1
2 5 -15 1.28 0.83
2 5 -15 1.63 0.9
-2 5 15 2.52 0.89
1 -5 -15 -1.98 0.98
-1 -5 15 -1.66 0.88
-1 -5 15 1.57 0.83
-1 -5 15 -0.18 1.07
-1 -5 15 2.44 1.15
1 -5 -15 -0.36 1.51
1 -5 -15 0.35 1.18
1 5 -15 0.44 0.52
-1 5 15 1.06 0.96
-1 5 15 -0.89 0.9
-1 5 15 0.26 0.81
1 5 -15 0.98 1.56
-1 5 15 -1.96 0.9
0 -5 15 0.33 1.19
0 -5 15 -0.21 0.92
0 -5 15 1.48 1.16
0 -5 15 0.42 0.9
0 -5 -15 0.13 1.24
0 -5 -15 -1.97 1.51
0 5 15 -0.34 0.98
0 5 -15 -1.31 1.51
0 5 15 -0.04 1.02
0 5 -15 -1.86 0.91
0 5 15 -0.93 1
0 5 -15 -0.33 0.6
0 5 15 -0.04 0.93
0 5 -15 0.56 0.75
-1 -5 -15 0.94 1.84
1 -5 15 0.82 1.35
1 -5 15 1.67 1.39
1 -5 15 0.7 0.99
1 -5 15 -0.85 1.09
-1 -5 -15 -0.16 1.07
-1 -5 -15 1.81 1.31
1 5 15 1.41 1.13
1 5 15 -0.21 0.81
1 5 15 0.86 1.13
-1 5 -15 1.24 0.7
-1 5 -15 1.11 1.61
-1 5 -15 0.01 0.7
1 5 15 -2.21 1.09
-1 5 -15 -1.43 1.05
-2 -5 -15 -2.72 1.14
-2 -5 -15 2.71 1.52
2 -5 15 2.59 1.61
2 -5 15 2.12 1.05
-2 -5 -15 0.06 2
2 -5 15 0.9 1.55
2 5 15 0.51 0.57
2 5 15 -0.44 1.2
2 5 15 -0.35 1.1
-2 5 -15 0.92 0.88
2 5 15 0.38 0.78
2 5 15 -1.48 1.26
-2 5 -15 0.15 1.91
3 -5 15 -0.02 1.19
3 -5 15 1.61 1.99
-3 -5 -15 -2.18 1.29
-3 -5 -15 0.54 2.37
3 5 15 -1.27 1.52
3 5 15 0.04 0.85
-3 5 -15 0.42 2.35
3 5 15 1.95 1.28
-3 5 -15 0.17 0.97
3 5 15 -0.24 0.74
-9 -6 15 2.33 0.83
9 -6 -15 0.82 1.51
-9 -6 15 2 1.31
-9 -6 15 0.63 1.61
9 -6 -15 -1.33 1.72
-9 6 15 -1.26 0.97
-9 6 15 0.65 1.38
9 6 -15 -0.37 1.31
9 6 -15 -0.35 1.31
9 6 -15 0.56 0.98
8 -6 -15 1.62 1.67
8 -6 -15 1.45 1.48
8 -6 -15 0.85 1.67
-8 -6 15 1.16 0.92
-8 -6 15 0.01 1.17
-8 -6 15 2.34 1.41
8 -6 -15 4.61 1.36
-8 -6 15 -0.05 0.85
-8 6 15 0.77 0.91
8 6 -15 1.46 0.73
-8 6 15 -0.19 1.21
8 6 -15 0.71 1.22
8 6 -15 0.65 1.28
8 6 -15 1.43 0.92
-8 6 15 2.26 1.31
7 -6 -15 0.6 1.4
-7 -6 15 2.22 1.09
7 -6 -15 -1.1 1.09
-7 -6 15 1.21 0.79
7 -6 -15 0.89 1.68
-7 -6 15 2.37 1.29
7 -6 -15 2.3 1.27
-7 -6 15 3.15 0.92
7 6 -15 2.89 1.4
-7 6 15 3.32 1.23
-7 6 15 1.32 1.24
-7 6 15 2.08 0.96
-7 6 15 0.37 1.03
7 6 -15 3.69 0.93
7 6 -15 2.92 0.63
7 6 -15 0.05 1.3
7 6 -15 1.4 1.13
-6 -6 15 -0.16 0.74
6 -6 -15 1.69 1.39
6 -6 -15 1.69 1.02
6 -6 -15 0.75 1.6
-6 -6 15 0.66 0.92
-6 -6 15 3.15 1.04
-6 -6 15 1.82 1.23
6 -6 -15 1.04 1.15
-6 -6 15 -0.04 0.56
-6 6 15 1.48 1.15
6 6 -15 1.03 0.81
-6 6 15 -0.04 1.14
6 6 -15 0.64 1.29
-6 6 15 -1.12 1.13
6 6 -15 0.11 1.04
-6 6 15 1.78 0.98
-6 6 15 1.9 0.84
-5 -6 15 1.24 1.13
5 -6 -15 -0.16 1.3
5 -6 -15 -0.11 1.16
5 -6 -15 0.28 0.9
-5 -6 15 -0.03 0.53
5 -6 -15 0.42 1.49
-5 -6 15 -0.55 0.99
-5 -6 15 0.34 0.73
-5 6 15 0.92 1.09
5 6 -15 1.03 0.85
-5 6 15 0.55 1.03
5 6 -15 1.06 1.34
-5 6 15 1.26 1.05
-5 6 15 2.57 0.99
5 6 -15 -0.57 0.94
-4 -6 15 0.68 1
4 -6 -15 2.86 1.24
4 -6 -15 2.06 1.21
4 -6 -15 -2.4 1.42
-4 -6 15 -0.07 0.82
-4 -6 15 0.29 0.47
-4 -6 15 -0.44 1.15
-4 -6 15 0.71 1.01
4 6 -15 2.62 0.92
-4 6 15 0.25 1
4 6 -15 -1.56 0.9
-4 6 15 0.31 1
4 6 -15 0.58 0.42
4 6 -15 2.18 1.34
-4 6 15 0.94 0.76
-4 6 15 0.13 1.04
-3 -6 15 0.41 0.82
-3 -6 15 -0.3 1.06
-3 -6 15 -1.1 1.04
-3 -6 15 0.26 0.47
3 -6 -15 0.59 0.82
-3 -6 15 0.04 1.1
3 -6 -15 0.13 1.22
3 -6 -15 1.66 1.44
3 -6 -15 -1.44 1.05
-3 6 15 2.24 1.06
-3 6 15 2.15 0.97
3 6 -15 -0.49 1.35
3 6 -15 -0.04 0.42
3 6 -15 -0.94 0.8
-3 6 15 -0.74 0.69
-3 6 15 0.16 0.97
3 6 -15 -0.39 0.97
-2 -6 15 0.82 1.06
2 -6 -15 2.72 1.66
-2 -6 15 -0.55 0.46
-2 -6 15 0.33 0.98
2 -6 -15 -1.94 1.16
-2 -6 15 -0.21 0.81
-2 -6 15 1.8 1.17
2 -6 -15 1.71 1.16
-2 6 15 -0.49 0.72
-2 6 15 0.51 0.95
-2 6 15 0.14 1
2 6 -15 0.35 1.4
2 6 -15 0.37 0.44
2 6 -15 -0.74 0.83
-2 6 15 -1.2 1.04
1 -6 -15 -0.27 1.57
-1 -6 15 1.59 1.27
1 -6 -15 1.55 1.23
-1 -6 15 0.59 0.98
-1 -6 15 1.34 1.21
1 -6 -15 -1.68 1.22
-1 -6 15 -0.18 1
1 6 -15 -1.81 1.39
1 6 -15 -0.38 0.92
-1 6 15 0.49 0.96
1 6 -15 0.98 0.52
1 6 -15 0.05 0.86
-1 6 15 -0.9 0.97
-1 6 15 0.98 0.96
-1 6 15 1.02 1.05
0 -6 -15 1.37 1.32
0 -6 15 2.49 1.39
0 -6 15 0.57 1.09
0 -6 15 0.74 0.99
0 -6 -15 1.71 1.87
0 -6 15 -1.07 1.24
0 6 -15 -0.66 0.81
0 6 -15 -0.41 1.62
0 6 -15 -1.04 0.57
0 6 15 1.03 1.18
0 6 15 -1.46 1.1
0 6 15 -1.23 1.1
0 6 -15 0.6 0.93
0 6 15 -1.56 0.88
1 -6 15 3.36 1.12
-1 -6 -15 -0.17 1.84
1 -6 15 -0.58 1.46
1 -6 15 0 1.1
1 -6 15 -0.55 1.3
-1 -6 -15 -3.27 1.12
-1 -6 -15 3.17 1.37
1 6 15 -1.4 1.22
-1 6 -15 0.01 0.66
1 6 15 1.7 1.26
1 6 15 0.35 0.93
1 6 15 0.6 1.07
-1 6 -15 1.51 2.06
-1 6 -15 1.03 1.07
-1 6 -15 -0.03 0.78
2 -6 15 2.9 2.6
2 -6 15 0.28 1.13
-2 -6 -15 2.16 1.28
2 -6 15 0.61 1.29
-2 -6 -15 5.2 2.32
-2 6 -15 4.69 2.08
2 6 15 -0.53 0.94
2 6 15 1.29 1.32
2 6 15 -0.41 1.37
2 6 15 3.36 1.64
-2 6 -15 0.41 1.32
-2 6 -15 1.53 0.83
8 -7 -15 -0.23 1.38
8 -7 -15 -0.56 1.72
-8 -7 15 1.62 1.67
-8 -7 15 1.27 1.01
8 -7 -15 0.33 1.46
-8 -7 15 -0.81 1.2
8 -7 -15 -1.55 1.98
-8 7 15 -0.45 1.49
-8 7 15 0.12 0.94
8 7 -15 0.98 0.66
8 7 -15 1.42 1.31
8 7 -15 -0.46 1.44
7 -7 -15 0.42 1.54
7 -7 -15 2.26 1.34
-7 -7 15 -1.12 0.9
-7 -7 15 -0.23 1.44
7 -7 -15 0.09 1.73
-7 -7 15 -0.99 1.06
-7 -7 15 0.47 0.89
7 -7 -15 -1.04 1.23
7 7 -15 0.07 0.9
7 7 -15 1.06 1.6
-7 7 15 0.66 1.21
7 7 -15 0.47 1.49
7 7 -15 0.3 0.52
-7 7 15 -1.63 1.37
-7 7 15 -0.34 0.9
-6 -7 15 0.56 1.3
-6 -7 15 -0.46 0.8
-6 -7 15 0.49 1.12
6 -7 -15 1.56 1.81
6 -7 -15 0.97 1.46
6 -7 -15 -0.04 1.43
6 -7 -15 4.39 1.15
-6 -7 15 -0.43 0.7
6 7 -15 0.67 1.4
6 7 -15 -0.16 1.27
-6 7 15 -0.32 1.22
6 7 -15 1.39 0.44
-6 7 15 0.82 0.87
-6 7 15 0.4 1.13
-6 7 15 2.08 1.21
6 7 -15 0.76 0.95
-6 7 15 -1.61 1.23
-5 -7 15 0.06 0.63
-5 -7 15 1.14 1.07
5 -7 -15 0.14 1.33
5 -7 -15 1.75 0.98
-5 -7 15 -0.53 0.85
5 -7 -15 1.01 1.47
-5 -7 15 3 1.25
5 -7 -15 -0.28 1.63
-5 -7 15 0.33 1.22
5 7 -15 2.26 0.91
-5 7 15 0.85 1.17
-5 7 15 1.64 1.18
-5 7 15 0.56 1
-5 7 15 0.63 1.17
5 7 -15 0.62 1.17
5 7 -15 1.07 0.37
5 7 -15 0.65 1.4
5 7 -15 1.35 0.36
4 -7 -15 1.53 1.79
4 -7 -15 1.55 1.06
-4 -7 15 0.22 0.58
-4 -7 15 1.98 1.18
-4 -7 15 -0.16 1.05
4 -7 -15 -1.86 1.3
-4 -7 15 2.89 1.26
-4 -7 15 -0.06 0.85
4 -7 -15 0.36 1.39
4 7 -15 -0.83 0.92
-4 7 15 2.82 1.17
4 7 -15 1.48 0.33
4 7 -15 2.06 1.56
-4 7 15 -0.26 0.93
-4 7 15 -0.48 1.15
-4 7 15 0.32 1.11
4 7 -15 0.9 1.13
-3 -7 15 2.13 1.1
3 -7 -15 0.85 0.84
3 -7 -15 -0.42 1.47
-3 -7 15 0.87 0.56
-3 -7 15 -1.53 1.13
-3 -7 15 1.6 1.18
-3 -7 15 2.73 1.04
3 -7 -15 0.36 1.28
3 -7 -15 2.31 1.27
3 7 -15 0.61 0.34
3 7 -15 -1.67 1.44
-3 7 15 0.82 1.15
3 7 -15 -1.33 1.08
-3 7 15 0.96 0.78
-3 7 15 2.58 1.12
-3 7 15 0.35 1.03
3 7 -15 1.44 0.96
2 -7 -15 5.01 1.36
-2 -7 15 1.31 1.15
2 -7 -15 3.64 1.37
-2 -7 15 4.02 1.25
2 -7 -15 4.07 1.9
2 -7 -15 -0.48 0.78
-2 -7 15 -0.26 1.14
-2 -7 15 3.68 1.02
2 7 -15 2.04 1.17
-2 7 15 2.78 1.15
2 7 -15 3.27 1.05
2 7 -15 3.1 0.4
-2 7 15 3.9 1.13
2 7 -15 3.43 1.57
-2 7 15 3.13 0.88
-2 7 15 5.47 1.32
1 -7 -15 -0.38 1.31
-1 -7 15 1.71 1.27
-1 -7 15 -1.24 0.97
-1 -7 15 -0.91 1.18
-1 -7 15 -2.83 1.22
1 -7 -15 0.47 1.72
1 -7 -15 0.44 0.74
1 -7 -15 -3.17 1.23
1 7 -15 0.13 0.44
-1 7 15 1.71 1.17
1 7 -15 -1.02 1.52
1 7 -15 1.53 1.16
-1 7 15 1.3 1.16
-1 7 15 0.01 1.03
-1 7 15 -0.15 0.93
0 -7 -15 -0.07 0.73
0 -7 -15 3.01 1.33
0 -7 15 0.28 1.09
0 -7 -15 1.6 2.04
0 -7 15 -0.42 1.38
0 -7 15 -1.57 1.42
0 -7 15 -0.3 1.18
0 7 -15 -0.04 1.01
0 7 15 1.79 1.3
0 7 -15 -2.68 1.08
0 7 15 -0.73 1.16
0 7 -15 -0.28 1.72
0 7 -15 0.13 0.54
0 7 15 -0.25 1.05
0 7 15 -2.43 1.1
-1 -7 -15 -2.79 2.09
-1 -7 -15 -0.76 1.16
1 -7 15 0.42 1.24
1 -7 15 -0.48 1.6
1 -7 15 -0.57 1.17
-1 -7 -15 0.04 0.74
-1 7 -15 1.45 2.11
1 7 15 -0.46 1.23
-1 7 -15 0.27 0.88
-1 7 -15 -1.4 1.14
1 7 15 -1.69 1.27
-1 7 -15 0.41 0.65
1 7 15 -1.09 1.19
1 7 15 0.03 1.08
2 -7 15 -0.01 1.24
-2 -7 -15 1.32 2.32
-2 -7 -15 -1.93 2.2
2 -7 15 -1.89 1.39
2 7 15 -0.9 1.42
2 7 15 2.24 1.41
-2 7 -15 0.03 2.26
-2 7 -15 -0.34 0.78
2 7 15 0.48 1.48
2 7 15 2.83 1.12
7 -8 -15 -0.37 1.56
-7 -8 15 1.25 1.04
-7 -8 15 -0.93 0.94
-7 -8 15 0.44 1.57
7 -8 -15 0.56 1.27
7 -8 -15 1.04 1.73
-7 8 15 2.5 1.45
-7 8 15 1.12 1.43
-7 8 15 -0.29 0.92
7 8 -15 -1.79 1.54
6 -8 -15 -0.25 1.15
6 -8 -15 -0.78 1.66
-6 -8 15 -0.74 1.25
-6 -8 15 2.53 1.5
-6 -8 15 0.35 1.34
6 -8 -15 -1.58 1.62
-6 -8 15 -0.18 0.94
-6 -8 15 0.46 0.89
-6 8 15 -0.54 0.9
-6 8 15 1.04 1.39
-6 8 15 -0.75 1.33
6 8 -15 -3.34 1.35
6 8 -15 -1.81 0.9
6 8 -15 1.35 1.65
-5 -8 15 1.19 1.17
-5 -8 15 -1.42 1.26
-5 -8 15 3.64 1.34
-5 -8 15 -0.21 0.76
-5 -8 15 2.02 0.98
5 -8 -15 -0.68 1.04
5 -8 -15 -1.37 1.54
5 -8 -15 -2.66 1.76
5 -8 -15 1.46 1.61
5 8 -15 -0.32 1.01
-5 8 15 -1.81 1.25
-5 8 15 -1.41 1.24
5 8 -15 -0.64 1.29
5 8 -15 0.05 1.54
-5 8 15 2.77 1.32
-4 -8 15 -1.09 1.3
-4 -8 15 -0.19 1.34
4 -8 -15 -0.48 1.75
4 -8 -15 0.55 0.96
-4 -8 15 -1.13 1
-4 -8 15 -1.72 1.15
4 -8 -15 -1.02 1.47
-4 -8 15 0.58 0.69
4 -8 -15 -0.22 1.46
-4 8 15 -0.81 1.25
-4 8 15 1.35 1.27
-4 8 15 -0.62 1.24
4 8 -15 2.17 1.29
-4 8 15 -1.43 1.05
4 8 -15 -1.26 1.44
-3 -8 15 2.17 1.3
-3 -8 15 1.84 1.3
3 -8 -15 1.42 1.84
3 -8 -15 -2.11 1.42
-3 -8 15 1.25 0.69
-3 -8 15 1.52 1.4
3 -8 -15 1.07 1.46
-3 -8 15 2.56 1.18
-3 8 15 -0.39 1.23
-3 8 15 0.18 1.23
3 8 -15 2.97 1.72
-3 8 15 2.98 1.18
3 8 -15 0.51 1.1
-3 8 15 2.22 1.25
3 8 -15 2.14 1.22
-2 -8 15 0.99 1.22
-2 -8 15 0.5 1.29
2 -8 -15 -0.55 1.36
-2 -8 15 -0.32 0.64
2 -8 -15 1.09 1.81
-2 -8 15 1.62 1.08
2 -8 -15 -0.36 1.4
2 -8 -15 -0.18 0.76
2 8 -15 0.05 1.63
-2 8 15 -0.44 1.23
-2 8 15 0.29 1.16
2 8 -15 2.01 1.26
2 8 -15 0.61 1.17
-2 8 15 0.45 1.19
-2 8 15 0.12 1.14
1 -8 -15 0.31 1.83
-1 -8 15 -0.1 1.16
1 -8 -15 2.23 1.61
1 -8 -15 0.39 0.72
1 -8 -15 0.49 1.47
-1 -8 15 1.6 1.39
-1 -8 15 -1.39 1.24
1 8 -15 -1.36 1.74
-1 8 15 0.21 1.15
-1 8 15 0.7 1.34
1 8 -15 -1.46 1.05
-1 8 15 -1.66 1.13
1 8 -15 -0.65 1.13
-1 8 15 -1.01 1.07
0 -8 15 0.13 1.37
0 -8 15 -1.08 1.53
0 -8 -15 0.86 0.87
0 -8 -15 -0.08 1.99
0 -8 15 2.18 1.3
0 8 15 -0.82 1.16
0 8 15 2.18 1.22
0 8 15 -0.03 1.45
0 8 -15 -0.74 1.07
0 8 15 0.36 1.25
0 8 -15 -2.71 1.92
1 -8 15 0.47 1.48
-1 -8 -15 3.88 2.47
1 -8 15 -2.24 1.77
1 -8 15 1.86 1.51
1 8 15 0.01 1.21
1 8 15 0.99 1.46
-1 8 -15 2.26 2.4
-1 8 -15 -0.16 1.35
-1 8 -15 1.58 1.61
1 8 15 1.98 1.34
1 8 15 -1.49 1.38
-6 -9 15 -0.36 1.05
6 -9 -15 -0.4 1.76
6 -9 -15 -0.22 1.23
6 -9 -15 -0.12 1.76
6 9 -15 -1.26 1.78
-6 9 15 1.65 1.62
-6 9 15 0.37 1.13
-6 9 15 -2.16 1.49
5 -9 -15 1.74 1.8
5 -9 -15 -0.45 1.76
-5 -9 15 -0.65 1.12
-5 -9 15 -1.62 1.06
-5 -9 15 0.1 1.5
5 -9 -15 -0.5 1.04
-5 -9 15 -0.1 1.24
-5 9 15 -1.03 1.46
-5 9 15 0.64 1.47
5 9 -15 -1.28 1.68
5 9 -15 -1.52 1.49
5 9 -15 1.1 1.13
4 -9 -15 1.49 0.94
-4 -9 15 -0.51 1.09
-4 -9 15 0.32 1.29
-4 -9 15 -0.42 0.84
4 -9 -15 -0.31 1.63
-4 -9 15 -0.73 1.38
4 -9 -15 -4.04 1.5
4 9 -15 -1.19 1.38
4 9 -15 0.51 1.9
-4 9 15 -1.23 1.3
-4 9 15 0.94 1.46
4 9 -15 -3.01 1.14
-3 -9 15 0.19 1.36
3 -9 -15 1 1.59
3 -9 -15 -0.02 0.84
3 -9 -15 2 1.66
-3 -9 15 -2.14 1.02
3 -9 -15 -1.53 2.12
-3 -9 15 -0.63 1.35
-3 -9 15 2.47 0.86
3 9 -15 -0.67 1.24
-3 9 15 0.71 1.41
-3 9 15 -1.66 1.32
-3 9 15 2.97 1.39
3 9 -15 1.41 1.36
3 9 -15 2.27 1.84
-2 -9 15 -0.96 0.78
-2 -9 15 0.92 1.35
2 -9 -15 0.69 0.79
-2 -9 15 0.67 1.45
2 -9 -15 -1.7 1.49
2 -9 -15 2.1 2.3
2 -9 -15 5.94 1.73
-2 -9 15 1.69 1.23
2 9 -15 0.21 1.34
2 9 -15 1.81 1.4
-2 9 15 -1.35 1.33
2 9 -15 -0.07 1.84
-2 9 15 2.99 1.41
-2 9 15 -0.35 1.32
-1 -9 15 1.22 1.52
-1 -9 15 0.45 0.78
1 -9 -15 -3.72 2.18
-1 -9 15 2.77 1.31
-1 -9 15 0.57 1.36
1 -9 -15 1.24 1.58
-1 9 15 0.23 1.55
1 9 -15 3.26 1.39
1 9 -15 -0.71 1.28
-1 9 15 0.1 1.34
-1 9 15 -0.92 1.27
1 9 -15 0.81 2.19
-9 0 16 0.55 0.85
9 0 -16 0.9 1.56
9 0 -16 0.05 0.95
-9 0 16 0.96 0.88
9 0 -16 0.34 1.45
-9 0 16 0.52 1.22
-9 0 16 0.2 1.45
8 0 -16 9 1.29
-8 0 16 11.32 1.33
-8 0 16 10.37 1.42
8 0 -16 9.58 1.31
-8 0 16 10.76 1.26
8 0 -16 10.34 1.73
-8 0 16 12.48 1.38
8 0 -16 10.63 1.57
-7 0 16 4.78 1.19
-7 0 16 5.55 1.05
7 0 -16 4.78 1.13
7 0 -16 4.52 1.24
-7 0 16 5.07 1.04
7 0 -16 5.68 1.49
-7 0 16 4.85 1.17
6 0 -16 1.29 1.24
-6 0 16 -0.12 0.79
-6 0 16 -1.24 0.75
-6 0 16 0.97 0.91
6 0 -16 -0.26 0.91
6 0 -16 0.72 1.25
-6 0 16 1.5 1.03
-6 0 16 0.74 0.99
-5 0 16 0.57 0.85
-5 0 16 0.62 0.96
5 0 -16 1.58 1.26
-5 0 16 0.16 0.87
-5 0 16 0.34 0.8
-5 0 16 1.33 0.82
5 0 -16 -0.15 1.14
5 0 -16 1.91 0.98
-4 0 16 2.07 0.92
-4 0 16 0.57 0.76
4 0 -16 -1.02 1.07
4 0 -16 -0.05 1.24
4 0 -16 0.97 1.14
-4 0 16 0.38 0.83
-4 0 16 -0.3 0.9
-4 0 16 0.89 0.87
-3 0 16 0.09 0.77
-3 0 16 -1.09 0.93
3 0 -16 0.45 1.12
-3 0 16 -1.71 0.8
-3 0 16 -0.71 0.8
3 0 -16 1.22 1.31
-3 0 16 1.36 0.89
3 0 -16 -0.11 0.94
2 0 -16 -0.35 1.38
-2 0 16 -1.52 0.95
-2 0 16 -0.16 1.02
2 0 -16 0.23 0.92
-2 0 16 0.28 0.82
-1 0 16 -0.15 0.87
1 0 -16 1.07 1.51
-1 0 16 1.91 1.13
1 0 -16 2.32 1.08
-1 0 16 5.3 1.22
0 0 16 1.84 1.02
0 0 -16 0.53 0.84
0 0 -16 0.02 1.67
0 0 16 0.64 0.33
0 0 16 -1.04 1.16
0 0 16 3.54 1.13
0 0 -16 1.61 1.17
1 0 16 3.05 1.04
-1 0 -16 -0.28 0.9
1 0 16 -0.68 0.53
-1 0 -16 0.53 1.31
-1 0 -16 0.39 1.74
1 0 16 -1 1.19
1 0 16 -2.72 1.1
-2 0 -16 0.43 1.92
-2 0 -16 1.97 1.36
-2 0 -16 -2.19 1.02
2 0 16 1.88 1.22
2 0 16 1.49 0.73
2 0 16 0.58 1.37
-3 0 -16 2.38 2.47
-3 0 -16 1.77 1.19
3 0 16 1.03 1.3
3 0 16 0.93 0.97
3 0 16 -0.19 1.67
-9 -1 16 1.11 0.87
9 -1 -16 -0.62 1.05
9 -1 -16 1.2 1.53
9 -1 -16 0.6 1.45
-9 -1 16 0.84 1.45
-9 -1 16 0.23 1.29
-9 1 16 -0.02 0.93
-9 1 16 0.13 1.93
9 1 -16 0.13 0.86
9 1 -16 -1.54 1.28
-9 1 16 1.46 0.91
-9 1 16 -0.62 1.28
9 1 -16 0.33 1.45
-9 1 16 -1.77 1.18
-8 -1 16 1.19 1.16
8 -1 -16 0.96 1.47
8 -1 -16 2.55 1.42
-8 -1 16 2.09 0.88
8 -1 -16 1.72 1.18
-8 -1 16 -0.61 1.24
8 -1 -16 2.56 1.01
-8 -1 16 -1.29 0.75
8 1 -16 2.91 1.49
-8 1 16 0.2 1.08
8 1 -16 -0.58 1.31
-8 1 16 3.04 1.21
8 1 -16 1.29 1.2
-8 1 16 -0.34 1.12
8 1 -16 -2.06 1.33
-8 1 16 1.95 0.9
8 1 -16 0.52 0.92
-8 1 16 0.32 0.8
-7 -1 16 0.81 0.87
7 -1 -16 1.47 1.13
7 -1 -16 1.98 1.1
-7 -1 16 1.67 1.07
7 -1 -16 2.08 1.36
-7 -1 16 0.76 1.08
-7 -1 16 2.68 0.77
7 -1 -16 -0.2 1.23
-7 1 16 2.06 1.15
-7 1 16 2.62 1.15
-7 1 16 2.7 1.01
7 1 -16 1.62 0.96
7 1 -16 -0.63 1.24
7 1 -16 1.28 1.32
7 1 -16 2.44 1.25
-7 1 16 0.22 0.83
-7 1 16 3.24 0.9
-6 -1 16 1.08 0.85
-6 -1 16 1.19 0.97
6 -1 -16 1.76 1.36
6 -1 -16 1.76 1.03
-6 -1 16 1.1 1.01
6 -1 -16 2.01 1.21
-6 -1 16 1.41 0.81
6 1 -16 2.44 1.21
-6 1 16 -0.01 0.79
-6 1 16 3.15 1.01
-6 1 16 1.76 0.91
6 1 -16 2.14 1.08
-6 1 16 2.52 1.12
6 1 -16 4.03 0.99
-6 1 16 1.74 0.83
6 1 -16 2.97 1.36
-5 -1 16 -0.17 0.78
5 -1 -16 -1.47 1.18
5 -1 -16 -0.56 1.15
-5 -1 16 -0.42 0.89
5 -1 -16 0.09 0.92
-5 -1 16 0.04 1.04
-5 -1 16 1.68 0.98
-5 1 16 0.17 0.87
5 1 -16 1.36 0.85
5 1 -16 -1.9 1.15
-5 1 16 -0.28 0.75
5 1 -16 0.92 1
5 1 -16 -0.95 1.13
-5 1 16 -0.03 0.88
-5 1 16 0.2 0.81
-5 1 16 0.09 0.96
4 -1 -16 -1.13 1.11
4 -1 -16 0.59 1.4
-4 -1 16 2.28 1.02
-4 -1 16 -0.01 0.88
-4 -1 16 0.56 0.84
4 -1 -16 -0.16 0.92
-4 -1 16 0.53 0.83
4 1 -16 -1.1 1.38
-4 1 16 -0.21 0.91
-4 1 16 0.35 0.81
-4 1 16 0.3 0.81
4 1 -16 -0.11 1.07
-4 1 16 2.14 0.93
4 1 -16 -2.37 1.3
-4 1 16 0.86 0.79
-3 -1 16 1.73 1.02
3 -1 -16 2.24 1.44
3 -1 -16 1.47 1.02
3 -1 -16 1.14 1.19
-3 -1 16 4.15 1.04
-3 -1 16 1.78 0.91
3 1 -16 -0.49 1.24
-3 1 16 2.02 0.94
3 1 -16 1.64 0.96
-3 1 16 1.22 0.95
3 1 -16 1.7 1.19
-3 1 16 0.94 0.79
-3 1 16 1.97 0.88
-2 -1 16 0.56 0.99
2 -1 -16 -0.64 0.96
-2 -1 16 1.27 0.92
-2 -1 16 1.11 0.76
2 -1 -16 -0.8 1.21
2 -1 -16 3.2 1.49
2 1 -16 0.6 0.93
-2 1 16 1.49 0.98
2 1 -16 -0.08 1.31
-2 1 16 0.39 0.78
-2 1 16 -0.31 0.97
-2 1 16 0.45 0.74
1 -1 -16 0.81 1.49
-1 -1 16 -0.57 0.96
-1 -1 16 -0.19 1.02
1 -1 -16 -1.87 1.06
-1 -1 16 1.04 0.78
-1 1 16 -1.69 0.93
-1 1 16 1.64 1.12
1 1 -16 -0.53 1.39
-1 1 16 0.47 0.69
1 1 -16 -1.04 0.7
-1 1 16 -1.76 0.8
1 1 -16 -0.1 0.92
0 -1 16 0.8 0.42
0 -1 16 0.13 1.2
0 -1 16 1.67 1.21
0 -1 16 0.79 0.97
0 -1 -16 -1.41 1.16
0 -1 -16 1.59 1.69
0 -1 -16 0.68 0.83
0 1 -16 1.25 1.75
0 1 16 -1.04 1.02
0 1 16 0.53 0.28
0 1 -16 -1.5 1.01
0 1 16 0.98 0.97
0 1 16 0.42 1.19
0 1 -16 0.48 0.76
-1 -1 -16 0.14 1.07
1 -1 16 0.66 0.62
1 -1 16 -0.98 1.34
1 -1 16 -0.06 1.03
1 -1 16 1.85 1.29
-1 -1 -16 0.37 1.81
-1 -1 -16 0.34 0.96
1 1 16 0.77 0.46
1 1 16 2.6 1.46
1 1 16 1.24 1.05
-1 1 -16 2.62 1.28
1 1 16 -1.37 1.28
-1 1 -16 1.13 1.97
-1 1 -16 1.27 0.86
-2 -1 -16 2.35 1.08
2 -1 16 0.47 1.06
-2 -1 -16 -0.24 2.01
2 -1 16 0.85 0.82
2 -1 16 0.2 1.37
-2 -1 -16 -0.95 1.6
2 1 16 3.39 1.66
2 1 16 -0.1 0.68
-2 1 -16 -0.44 0.95
-2 1 -16 -0.34 2.01
-2 1 -16 0.13 1.21
2 1 16 -0.9 1.14
-3 -1 -16 1.86 2.63
3 -1 16 0.81 1.8
-3 -1 -16 2.34 1.31
3 -1 16 1.98 1.33
-3 1 -16 1.93 1.18
-3 1 -16 4.31 2.49
3 1 16 0.14 2.06
3 1 16 3.02 1.37
3 1 16 -0.56 0.89
-9 -2 16 -1.46 1.44
9 -2 -16 3.63 1.6
-9 -2 16 2.15 0.89
9 -2 -16 2.04 1.55
-9 -2 16 1.99 1.37
9 -2 -16 -1.09 1.07
9 2 -16 0.15 1.45
9 2 -16 1 1.32
9 2 -16 1.4 0.97
-9 2 16 2.93 1.33
-9 2 16 -0.42 1
-9 2 16 -0.17 1.17
-9 2 16 1.92 1
8 -2 -16 0.58 1.23
-8 -2 16 -1.17 0.8
-8 -2 16 -0.44 0.85
-8 -2 16 -0.16 1.23
8 -2 -16 -1.5 1.45
8 -2 -16 -0.12 1.11
8 -2 -16 1.09 1.46
-8 -2 16 0.41 1.2
8 2 -16 -1.06 1.26
-8 2 16 -0.72 0.9
8 2 -16 1.53 1.32
-8 2 16 -0.38 1
8 2 -16 1.94 0.97
-8 2 16 1.48 1.23
8 2 -16 0.14 1.37
-8 2 16 0.29 1.29
-8 2 16 2.36 1.1
7 -2 -16 -0.38 1.35
-7 -2 16 -0.39 0.84
7 -2 -16 -1.65 1.09
-7 -2 16 -0.15 0.69
7 -2 -16 1.27 0.98
7 -2 -16 0.22 1.44
-7 -2 16 1.5 1.12
-7 -2 16 0.47 1.13
7 2 -16 1.1 1.21
7 2 -16 0.87 0.9
7 2 -16 -1.49 1.16
-7 2 16 -1 0.84
-7 2 16 -0.48 0.95
-7 2 16 1.13 0.82
7 2 -16 0.76 1.37
-7 2 16 -0.73 1.08
-7 2 16 0.35 1.17
6 -2 -16 -0.2 1.36
-6 -2 16 2.4 1.06
6 -2 -16 0.53 1.18
-6 -2 16 0.38 1.07
-6 -2 16 -0.43 0.69
6 -2 -16 0.92 1
-6 -2 16 1.86 0.9
-6 2 16 -0.49 1.06
6 2 -16 1.36 1.19
-6 2 16 2.27 0.93
6 2 -16 -0.25 1.06
6 2 -16 1 0.89
-6 2 16 2.14 1.14
-6 2 16 2.06 0.93
6 2 -16 0.29 1.34
-6 2 16 -0.22 0.82
-5 -2 16 -1.09 0.73
-5 -2 16 2.09 1.07
-5 -2 16 1.58 0.98
5 -2 -16 3.11 1.19
5 -2 -16 0.11 1.35
-5 -2 16 0.95 0.85
-5 2 16 0.29 0.93
-5 2 16 0.31 0.86
5 2 -16 1.69 1.06
-5 2 16 0.99 0.88
-5 2 16 0.25 0.88
5 2 -16 1.17 1.41
5 2 -16 1.49 1.1
-5 2 16 2.12 0.96
5 2 -16 1.45 0.9
-4 -2 16 4.08 1
4 -2 -16 1.56 1.18
-4 -2 16 -0.8 0.73
-4 -2 16 0.89 0.91
4 -2 -16 1.37 1.04
4 -2 -16 2.08 1.36
-4 -2 16 0.78 0.96
-4 2 16 1.22 0.88
4 2 -16 1.33 0.96
4 2 -16 2.9 1.43
4 2 -16 0.48 1.16
-4 2 16 2.08 0.92
-4 2 16 0.26 0.82
4 2 -16 2.17 1.02
-4 2 16 1.39 0.99
-3 -2 16 3.53 0.9
3 -2 -16 1.64 1.08
3 -2 -16 4.91 1.57
-3 -2 16 2.55 1
-3 -2 16 3.05 1.02
3 -2 -16 3.2 1.2
3 2 -16 2.12 1.08
-3 2 16 2.26 0.88
-3 2 16 2.07 0.95
-3 2 16 3.02 1
-3 2 16 3.48 0.88
3 2 -16 2.79 1.42
-2 -2 16 1.81 0.94
2 -2 -16 1.68 1.03
-2 -2 16 0.72 1.1
2 -2 -16 1.07 1.52
2 -2 -16 0.93 1.17
-2 -2 16 0.2 0.85
-2 -2 16 -0.44 0.84
2 2 -16 -0.09 1.29
-2 2 16 -0.13 0.99
-2 2 16 0 0.98
-2 2 16 2.3 0.97
2 2 -16 3.14 1.08
-2 2 16 0.36 0.77
1 -2 -16 3.62 1.17
-1 -2 16 4.6 1.04
-1 -2 16 0.74 1.17
1 -2 -16 4.3 1.74
-1 -2 16 4.68 1.17
1 2 -16 4.11 0.73
1 2 -16 3.34 1.17
-1 2 16 4.7 1.12
-1 2 16 2.9 1.12
-1 2 16 1.56 0.79
1 2 -16 4.97 1.76
-1 2 16 2.46 1.14
0 -2 -16 0.96 1.13
0 -2 -16 0.29 0.95
0 -2 -16 2.39 1.66
0 -2 16 0.37 1.19
0 -2 16 1.1 1.25
0 -2 16 0.54 0.79
0 -2 16 -0.07 0.52
0 2 16 0.16 1.17
0 2 -16 1.85 1.72
0 2 16 0.38 0.7
0 2 -16 1.35 0.74
0 2 -16 1.2 1.01
0 2 16 1.28 0.94
0 2 16 0.97 1.18
1 -2 16 0.87 0.71
-1 -2 -16 -0.54 1.86
-1 -2 -16 -0.5 0.98
1 -2 16 -2.14 1.23
1 -2 16 -0.34 1.35
1 -2 16 -1.44 0.93
-1 -2 -16 -0.56 1.19
1 2 16 0.96 1.06
1 2 16 -0.43 0.42
-1 2 -16 1.76 1.19
-1 2 -16 -0.37 1.9
1 2 16 0.12 0.66
1 2 16 1.41 1.11
1 2 16 -0.48 1.25
-1 2 -16 -0.53 0.83
2 -2 16 1.38 0.94
2 -2 16 0.48 0.93
2 -2 16 1.56 1.57
-2 -2 -16 0.22 1.13
-2 -2 -16 -1.88 2.09
-2 -2 -16 2.72 1.88
2 2 16 0.15 1.15
-2 2 -16 -0.34 2.14
-2 2 -16 -2.18 1.28
2 2 16 1.08 0.65
2 2 16 -0.5 1.18
-2 2 -16 0.9 0.96
-3 -2 -16 -0.37 1.33
3 -2 16 0.95 1.78
3 -2 16 3.98 1.42
-3 -2 -16 -0.51 2.53
-3 2 -16 -2.16 2.32
-3 2 -16 1.28 1.19
3 2 16 0.81 1.4
3 2 16 5.23 1.76
3 2 16 -1.17 0.83
9 -3 -16 -0.23 1.66
-9 -3 16 0.71 1.4
9 -3 -16 -0.69 1.62
-9 -3 16 -1.29 0.83
-9 -3 16 -1 1.44
9 -3 -16 0.82 1.18
-9 3 16 2.65 1.3
9 3 -16 0.85 1.43
-9 3 16 1.42 1.48
-9 3 16 2.92 1.13
-9 3 16 -2.07 1.14
9 3 -16 -2.18 1.37
8 -3 -16 0.63 1.2
8 -3 -16 -3.05 1.51
-8 -3 16 -2.4 1.22
-8 -3 16 -1.17 0.74
-8 -3 16 1.37 1.23
-8 -3 16 0.92 0.88
8 -3 -16 -2.86 1.34
8 -3 -16 1.2 1.19
8 3 -16 0.21 0.94
-8 3 16 0.66 0.89
8 3 -16 0.72 1.43
-8 3 16 -0.57 1.27
8 3 -16 0.04 1.32
-8 3 16 1.47 1.05
8 3 -16 0.83 1.38
-8 3 16 0.43 1.03
-7 -3 16 -0.41 1.2
-7 -3 16 0.26 0.77
-7 -3 16 1.63 1.13
7 -3 -16 1.39 1.1
7 -3 -16 0.8 1.1
-7 -3 16 0.45 0.88
7 -3 -16 2.23 1.35
7 -3 -16 0.65 1.46
-7 3 16 0.72 0.94
-7 3 16 -0.51 1.13
-7 3 16 0.3 1.19
-7 3 16 1.51 0.94
7 3 -16 1.83 1.24
7 3 -16 -0.18 0.85
-7 3 16 0.95 0.84
7 3 -16 0.29 1.19
7 3 -16 1.85 1.34
6 -3 -16 -0.76 1.35
-6 -3 16 1.91 0.92
-6 -3 16 0.27 1.04
-6 -3 16 0.48 1.08
-6 -3 16 -0.68 0.7
6 -3 -16 -1.02 1.01
6 -3 -16 -0.87 1.28
6 -3 -16 -0.81 1
-6 3 16 0.48 0.95
6 3 -16 -2.19 1.12
6 3 -16 0.68 1.24
-6 3 16 1.58 1.08
-6 3 16 1.24 0.79
6 3 -16 1.61 1.15
6 3 -16 0.43 0.9
-6 3 16 0.17 0.87
-6 3 16 0.39 0.99
5 -3 -16 -1.12 0.96
-5 -3 16 -0.6 0.69
-5 -3 16 2.03 1.06
5 -3 -16 0.57 1.35
5 -3 -16 1.31 1.27
-5 -3 16 2.88 1
-5 -3 16 -0.5 1.02
-5 3 16 1.54 0.91
-5 3 16 0.59 1.11
5 3 -16 0.21 1.04
5 3 -16 0.58 1.3
-5 3 16 1.19 0.88
5 3 -16 1.63 0.94
5 3 -16 1.05 1.12
-5 3 16 0.56 0.92
-5 3 16 1.04 0.89
-4 -3 16 2.39 0.87
4 -3 -16 0.4 1.05
-4 -3 16 0.17 0.99
4 -3 -16 2.23 1.32
4 -3 -16 -0.43 1.16
-4 -3 16 0.95 0.99
-4 -3 16 0.67 0.86
4 3 -16 2.69 1.03
4 3 -16 0.03 1.34
-4 3 16 0.92 0.97
-4 3 16 -0.16 0.82
4 3 -16 1.14 1
-4 3 16 -0.01 0.88
4 3 -16 2.18 1.22
-4 3 16 0.71 1.04
3 -3 -16 0.05 1.17
-3 -3 16 0.12 1.03
-3 -3 16 1.02 1.08
3 -3 -16 0.59 1.43
3 -3 -16 0.81 0.95
-3 -3 16 -1.12 0.91
3 3 -16 0.48 0.87
-3 3 16 1.44 0.87
-3 3 16 -0.1 0.84
3 3 -16 0.77 1.38
-3 3 16 1.37 0.85
-3 3 16 -2.02 0.94
-2 -3 16 2.19 1.09
-2 -3 16 -1.59 0.81
2 -3 -16 -1.49 1.5
-2 -3 16 0.33 0.88
2 -3 -16 0.13 1.18
2 -3 -16 -1.74 0.92
-2 -3 16 1.45 0.89
-2 3 16 -1.23 1.02
2 3 -16 2.42 1.4
2 3 -16 -0.15 0.87
2 3 -16 -0.27 0.61
-2 3 16 0.4 0.86
-2 3 16 0.12 0.76
2 3 -16 0.6 1.08
-2 3 16 0.01 1
-1 -3 16 0.74 0.82
-1 -3 16 0.25 0.99
-1 -3 16 -0.76 1.16
1 -3 -16 0.47 1.16
-1 -3 16 -0.6 0.94
1 -3 -16 -1.34 1.6
1 3 -16 0.17 1.41
-1 3 16 -0.78 0.95
-1 3 16 -0.94 1.04
-1 3 16 1.07 0.81
1 3 -16 -0.2 0.93
-1 3 16 -0.25 1.04
1 3 -16 -0.26 0.75
0 -3 16 -0.39 0.98
0 -3 -16 -1.39 1.12
0 -3 16 -0.03 1.25
0 -3 -16 3.2 1.91
0 3 16 1.35 1.28
0 3 -16 1.59 0.75
0 3 16 0.69 1.23
0 3 -16 -1.01 1
0 3 -16 1.29 1.68
0 3 16 0.29 0.76
0 3 16 1.37 1
-1 -3 -16 1.38 1.88
-1 -3 -16 2.78 1.07
1 -3 16 2.68 1.37
-1 -3 -16 0.9 1.32
1 -3 16 3.09 1.04
1 3 16 -1.79 1.31
1 3 16 0.74 1.41
-1 3 -16 -0.47 1.69
-1 3 -16 3.4 1.26
1 3 16 -0.07 0.42
1 3 16 1.94 1.17
-1 3 -16 2.96 0.85
1 3 16 0.15 0.73
2 -3 16 -0.52 1.25
-2 -3 -16 -0.24 1.18
-2 -3 -16 -1.69 2.12
-2 3 -16 0.15 1.37
2 3 16 0.44 1.61
-2 3 -16 1.83 2.24
2 3 16 0.59 0.67
2 3 16 1.06 1.21
-2 3 -16 0.06 0.95
2 3 16 0.04 0.6
-9 -4 16 -0.4 1.46
-9 -4 16 0.54 1.54
-9 -4 16 0.46 0.95
9 -4 -16 0.25 1.41
9 -4 -16 -2.94 1.9
9 -4 -16 0.86 1.86
9 4 -16 1.37 1.43
-9 4 16 -0.93 1.15
9 4 -16 0.2 1.44
8 -4 -16 0.28 1.58
-8 -4 16 1.14 0.91
-8 -4 16 0.62 0.84
8 -4 -16 0.09 1.3
8 -4 -16 0.6 1.25
-8 -4 16 -1.08 1.25
-8 -4 16 -1.1 1.32
8 -4 -16 1.03 1.63
-8 4 16 0.02 1.05
8 4 -16 0.62 1.32
8 4 -16 -0.45 0.96
-8 4 16 1.09 1.33
-8 4 16 -0.18 1.13
8 4 -16 0.44 1.4
-8 4 16 -0.43 1.11
7 -4 -16 -0.08 1.16
-7 -4 16 0.06 1.27
-7 -4 16 0.75 0.81
7 -4 -16 -0.96 1.41
-7 -4 16 1.36 1.18
7 -4 -16 -2.11 1.51
-7 4 16 0.67 0.92
7 4 -16 1.03 1.45
-7 4 16 0.32 1.16
7 4 -16 1.51 1.3
-7 4 16 -2.02 0.94
-7 4 16 0.11 1.02
-7 4 16 -0.3 1.29
7 4 -16 0.72 1.22
7 4 -16 0.13 0.98
6 -4 -16 0.31 1.35
-6 -4 16 0.35 1.11
6 -4 -16 1.13 1.11
-6 -4 16 -1.36 0.72
6 -4 -16 1.24 1.08
-6 -4 16 1.7 0.98
6 -4 -16 2.31 1.48
-6 -4 16 -0.1 1.06
-6 4 16 -1.24 0.85
-6 4 16 -0.01 1.06
6 4 -16 0.66 0.94
6 4 -16 -0.78 1.19
-6 4 16 0.76 1.16
-6 4 16 0.94 1.01
-6 4 16 1.19 0.91
6 4 -16 0.77 1.15
6 4 -16 -0.85 1.35
-5 -4 16 -1.77 1.01
5 -4 -16 -0.18 1.08
-5 -4 16 1 1.11
5 -4 -16 -0.09 1.01
5 -4 -16 -0.92 1.41
-5 -4 16 -0.27 0.8
-5 -4 16 0.07 0.84
5 -4 -16 -2.58 1.22
5 4 -16 0.06 1
5 4 -16 0.91 1.07
-5 4 16 0.03 0.84
5 4 -16 1.56 1.36
-5 4 16 0.04 0.72
-5 4 16 -0.04 1.02
5 4 -16 -0.55 1.16
-5 4 16 2.26 1.21
-5 4 16 -0.86 1
-4 -4 16 1.81 1.03
-4 -4 16 0.83 0.84
4 -4 -16 -0.87 1.05
4 -4 -16 0.42 1.32
4 -4 -16 -0.38 1.3
-4 -4 16 -0.25 0.86
-4 -4 16 -0.26 1.09
4 4 -16 0.86 1.03
-4 4 16 -0.09 0.96
4 4 -16 0.26 1.37
-4 4 16 0.34 0.98
-4 4 16 0.91 0.78
-4 4 16 0 1.03
4 4 -16 2.04 0.92
-3 -4 16 -0.15 1.45
3 -4 -16 0.56 1.13
3 -4 -16 -0.05 1.43
-3 -4 16 0.38 1.01
-3 -4 16 3.56 1.13
3 -4 -16 0.34 1.22
-3 -4 16 2.24 1.13
-3 4 16 -0.27 0.9
-3 4 16 1.09 1.04
3 4 -16 1.29 1.54
-3 4 16 0.69 0.94
3 4 -16 -0.41 0.94
3 4 -16 1.42 0.99
-3 4 16 0.61 0.89
2 -4 -16 1.25 1.59
-2 -4 16 -1.16 0.98
-2 -4 16 -2.13 1.1
-2 -4 16 -0.34 0.33
2 -4 -16 0.25 1.13
-2 -4 16 0.47 0.79
2 -4 -16 -0.67 1.31
-2 4 16 -0.3 0.82
2 4 -16 -0.2 0.59
-2 4 16 0.42 0.87
2 4 -16 2.01 0.98
-2 4 16 1.62 0.97
-2 4 16 0.59 1.01
2 4 -16 -0.38 1.37
1 -4 -16 0.98 1.36
-1 -4 16 0.51 1.16
1 -4 -16 0.56 1.19
-1 -4 16 0.05 1.24
-1 -4 16 -1.39 1.03
-1 -4 16 0.27 0.9
1 -4 -16 2.82 1.75
1 4 -16 0.07 0.96
-1 4 16 2.62 1.12
-1 4 16 -0.08 0.82
-1 4 16 -2.45 1.08
1 4 -16 0.03 0.64
1 4 -16 -1.3 1.6
1 4 -16 1.2 1.07
-1 4 16 -2.13 1.01
0 -4 -16 0.36 1.25
0 -4 16 -0.04 1.15
0 -4 16 1.18 0.99
0 -4 16 2.95 1.43
0 -4 -16 1.62 1.75
0 -4 16 0.19 1.3
0 4 -16 1.52 1.12
0 4 16 1.06 1.13
0 4 -16 -1.41 1.62
0 4 -16 0.56 0.84
0 4 16 1.06 1.27
0 4 16 1.33 1.24
1 -4 16 -1.24 1.59
-1 -4 -16 0.63 2
1 -4 16 0.37 1.76
-1 -4 -16 -0.3 1.49
1 -4 16 -1.13 1.04
-1 -4 -16 2.12 1.19
-1 4 -16 0.92 1.22
1 4 16 0.38 0.78
-1 4 -16 0.25 0.83
1 4 16 2.19 1.22
1 4 16 0.66 1.35
-1 4 -16 0.36 1.91
1 4 16 1.35 1.45
-2 -4 -16 -1.01 2.3
2 -4 16 1.08 1.27
-2 -4 -16 -1.47 1.28
-2 4 -16 1.49 1.01
2 4 16 -0.74 1.25
-2 4 -16 0.12 2.51
2 4 16 0.89 1.63
2 4 16 -0.79 0.61
2 4 16 -1.28 0.79
8 -5 -16 2.76 1.79
8 -5 -16 1.01 1.69
-8 -5 16 -0.23 1.49
-8 -5 16 2.45 1.02
8 -5 -16 0.82 1.34
8 -5 -16 -1.28 1.51
-8 -5 16 -0.65 1.31
8 5 -16 -0.31 1.01
-8 5 16 -1.02 1.42
8 5 -16 -1.67 1.43
8 5 -16 0.98 1.34
-8 5 16 -0.12 1.06
8 5 -16 0.06 0.84
-8 5 16 -1.27 1.22
-7 -5 16 0.5 1.05
7 -5 -16 -0.29 1.15
-7 -5 16 -0.39 0.83
-7 -5 16 -0.39 1.22
7 -5 -16 -0.25 1.68
7 -5 -16 -1.44 1.57
-7 -5 16 1.83 1.28
7 -5 -16 1.6 1.2
-7 5 16 0.97 1.31
7 5 -16 0.46 1.29
7 5 -16 1.28 0.95
-7 5 16 0.08 0.97
7 5 -16 -0.86 1.42
-7 5 16 -0.41 1.16
7 5 -16 -2.67 1.33
-6 -5 16 -1.51 0.91
6 -5 -16 -0.55 1.62
6 -5 -16 -1.05 1.11
-6 -5 16 0.42 0.84
6 -5 -16 -0.8 1.49
-6 -5 16 1.07 1.14
6 -5 -16 0.94 1.3
-6 -5 16 -0.72 1.19
-6 5 16 -1.23 1.15
-6 5 16 2.17 0.98
6 5 -16 0.4 1.24
-6 5 16 -0.48 1.26
6 5 -16 -0.67 1.31
-6 5 16 -1.18 0.93
6 5 -16 1.45 0.97
-6 5 16 -0.98 1.13
6 5 -16 -2.47 1.3
5 -5 -16 1.95 1.24
5 -5 -16 -0.05 1.35
5 -5 -16 -0.27 1.01
-5 -5 16 0.15 1.11
-5 -5 16 0.63 0.95
-5 -5 16 1.03 0.79
-5 -5 16 1.03 1.11
5 -5 -16 -0.58 1.43
-5 5 16 -0.54 0.88
-5 5 16 1.33 1.18
-5 5 16 1.23 1
5 5 -16 2.01 1.57
5 5 -16 0.42 0.95
-5 5 16 1.33 1.07
5 5 -16 -0.62 1.17
-5 5 16 0.76 1.12
4 -5 -16 -0.48 1.11
-4 -5 16 -2.33 1.08
-4 -5 16 0.9 1.02
4 -5 -16 -0.1 0.94
-4 -5 16 0.55 1.16
4 -5 -16 1.45 1.58
-4 -5 16 -0.17 0.86
-4 -5 16 0.05 0.39
4 -5 -16 -0.36 1.34
-4 5 16 1.06 1.05
-4 5 16 1.1 0.98
4 5 -16 0.76 1.11
-4 5 16 0.49 1.17
4 5 -16 -1.01 1.37
-4 5 16 -2.16 0.81
4 5 -16 1.39 1.76
3 -5 -16 1.48 1.64
-3 -5 16 0.18 0.96
3 -5 -16 0.32 1.29
-3 -5 16 0.92 1.11
3 -5 -16 -0.39 1.2
-3 -5 16 0.92 1.2
-3 -5 16 -0.48 0.4
-3 5 16 -0.63 1.16
3 5 -16 0.72 0.55
-3 5 16 -0.08 0.94
3 5 -16 1.04 1.03
-3 5 16 1.52 0.97
3 5 -16 0.87 0.99
-3 5 16 0.81 1.1
3 5 -16 1.64 1.47
-2 -5 16 -0.99 1.34
2 -5 -16 -1.41 1.19
-2 -5 16 2.12 0.98
-2 -5 16 -0.19 0.42
-2 -5 16 0.53 1.14
2 -5 -16 -0.23 1.33
-2 -5 16 -1.21 1.22
2 -5 -16 1.65 1.65
-2 5 16 -2.26 0.98
2 5 -16 0.95 0.58
2 5 -16 -1.87 1.03
-2 5 16 1.27 0.96
-2 5 16 -0.88 1.03
-2 5 16 -0.11 0.93
2 5 -16 0.52 1.64
-1 -5 16 -1.14 1.34
1 -5 -16 -1.72 1.86
1 -5 -16 0.71 1.4
-1 -5 16 -0.96 1.04
-1 -5 16 -1.18 1.38
1 -5 -16 -0.64 1.39
-1 -5 16 1.46 1.02
1 5 -16 -1.18 1.88
-1 5 16 1.32 1.14
-1 5 16 1.05 0.89
-1 5 16 -1.67 1.02
1 5 -16 -0.41 0.93
1 5 -16 -1.3 1.06
1 5 -16 0.05 0.62
-1 5 16 -0.56 1.2
0 -5 16 2.15 1.5
0 -5 -16 1.44 1.46
0 -5 16 1.79 1.22
0 -5 -16 0 2.02
0 -5 16 2.44 1.64
0 -5 16 0.81 1.09
0 5 16 2.36 0.94
0 5 -16 -0.22 1.99
0 5 16 2.53 1.26
0 5 -16 0.08 0.91
0 5 16 0.97 1.22
0 5 -16 1.26 0.74
0 5 -16 3.86 1.26
1 -5 16 -0.26 1.08
1 -5 16 0.97 1.32
-1 -5 -16 1.25 1.2
-1 -5 -16 1 2.12
1 5 16 1.49 1.29
-1 5 -16 3.44 2.03
-1 5 -16 1.93 1.32
2 -5 16 2.23 1.23
-2 -5 -16 1.58 2.59
-2 -5 -16 0.7 1.48
2 -5 16 -1.14 1.39
-2 5 -16 1.3 2.4
2 5 16 -0.5 0.89
-2 5 -16 -1.11 0.95
2 5 16 1.09 1.64
2 5 16 0.89 1.43
-8 -6 16 1.39 1.65
8 -6 -16 0.31 1.9
8 -6 -16 0.11 1.65
8 -6 -16 1.31 1.48
-8 -6 16 1.11 1.33
8 6 -16 1.86 1.43
-8 6 16 0.83 1.1
7 -6 -16 0.09 1.68
-7 -6 16 0.32 1.26
-7 -6 16 4.01 1.21
-7 -6 16 -2.33 0.93
7 -6 -16 0.7 1.39
7 -6 -16 0.52 1.95
7 -6 -16 -1.09 1.26
-7 -6 16 1.27 1.49
-7 6 16 0.48 1.32
7 6 -16 1.22 0.69
7 6 -16 -1.87 1
-7 6 16 -1.36 0.98
-7 6 16 1.26 1.34
7 6 -16 2.21 1.59
7 6 -16 1.68 1.39
6 -6 -16 -2.53 1.56
6 -6 -16 2.24 1.52
-6 -6 16 2.21 1.24
-6 -6 16 0.43 0.95
6 -6 -16 1.4 1.89
6 -6 -16 -0.5 1.12
-6 -6 16 -1.21 1.04
-6 -6 16 3.93 1.4
6 6 -16 2.24 1.58
6 6 -16 1.89 1.45
6 6 -16 -0.62 0.96
-6 6 16 -0.24 0.95
-6 6 16 0.59 1.29
-6 6 16 0.61 1.27
5 -6 -16 -1.25 1.68
5 -6 -16 0.29 1.07
-5 -6 16 1.15 1.06
-5 -6 16 0.05 0.88
-5 -6 16 -0.32 0.53
5 -6 -16 0.04 1.47
-5 -6 16 1.61 1.28
5 -6 -16 -0.64 1.35
-5 -6 16 0.05 1.19
5 6 -16 0.67 1.29
-5 6 16 0.75 1.33
-5 6 16 1.41 1
-5 6 16 1.48 1.19
-5 6 16 2.1 1.24
5 6 -16 -0.3 1.54
5 6 -16 -0.17 0.96
-4 -6 16 0.87 1.23
-4 -6 16 0.05 0.94
4 -6 -16 2.73 1.05
-4 -6 16 -1.72 1.19
4 -6 -16 -0.05 1.34
4 -6 -16 0.48 1.63
-4 -6 16 2.02 1.46
-4 -6 16 -0.16 0.53
4 -6 -16 1.55 1.5
-4 6 16 -0.45 1.26
-4 6 16 0.95 1.13
-4 6 16 0.49 0.97
4 6 -16 -0.3 1.07
4 6 -16 -1.17 1.15
4 6 -16 0.28 0.51
4 6 -16 2.2 1.56
-4 6 16 0.93 1.2
-3 -6 16 -0.08 0.96
-3 -6 16 -0.95 1.15
3 -6 -16 0.56 1.78
3 -6 -16 -2.77 1.26
-3 -6 16 -1.94 1.36
-3 -6 16 0.78 1.29
-3 -6 16 0.85 0.53
3 -6 -16 1.35 1.47
3 6 -16 0.28 0.51
3 6 -16 0.04 1.13
3 6 -16 -1.11 1.56
-3 6 16 1.45 1.12
-3 6 16 2.43 1.19
-3 6 16 1.25 1.15
3 6 -16 0.44 1.03
-3 6 16 -0.4 1.16
-2 -6 16 0.13 0.53
2 -6 -16 0.38 1.96
-2 -6 16 2.33 1.13
2 -6 -16 2.14 1.37
-2 -6 16 1.52 1.43
-2 -6 16 0.16 1.25
2 -6 -16 -1.85 1.48
2 -6 -16 -1.06 0.93
-2 -6 16 1.35 1.17
2 6 -16 2.19 1.2
-2 6 16 0.1 1.07
-2 6 16 -1.92 0.97
2 6 -16 1.84 1.83
2 6 -16 0.46 0.56
-2 6 16 2.56 1.26
-2 6 16 2.54 1.17
2 6 -16 1.6 1.11
-1 -6 16 0.15 1.23
-1 -6 16 0.55 1.45
1 -6 -16 -0.34 1.79
-1 -6 16 0.37 1.09
1 -6 -16 -1.56 1.53
1 6 -16 0.52 1.23
-1 6 16 -2.36 1.25
-1 6 16 0.24 1.23
1 6 -16 -2.8 1.69
1 6 -16 0.21 0.62
-1 6 16 0.16 1.05
-1 6 16 -1.26 0.87
0 -6 16 -0.93 1.57
0 -6 16 1.95 1.25
0 -6 -16 5.84 1.78
0 -6 -16 0.94 2.17
0 -6 16 -1.27 1.24
0 6 16 -0.14 1.01
0 6 16 0.04 1.36
0 6 -16 0.55 0.7
0 6 -16 -1.07 1.96
0 6 16 -0.1 1.09
0 6 16 -0.28 1.46
0 6 -16 0.79 1.39
1 -6 16 0.47 1.3
-1 -6 -16 0.86 1.31
-1 -6 -16 0.21 2.4
1 -6 16 -1.49 1.42
1 6 16 -0.84 1.4
1 6 16 -0.43 1.31
1 6 16 -0.38 1.08
-1 6 -16 -4.31 2.18
-1 6 -16 -0.27 0.82
-1 6 -16 -2.37 1.44
-7 -7 16 3.25 1.37
7 -7 -16 -0.47 1.82
7 -7 -16 2.57 1.47
-7 -7 16 -1.98 1.11
-7 7 16 -0.34 1.06
-7 7 16 -0.63 1.46
7 7 -16 -0.32 1.66
-7 7 16 -0.55 1.51
-6 -7 16 5.09 1.49
6 -7 -16 -2.66 1.58
6 -7 -16 1.01 1.29
-6 -7 16 1.58 1.45
-6 -7 16 -0.29 0.74
-6 -7 16 1.17 1.33
6 -7 -16 0.32 1.81
-6 -7 16 1.42 1.06
6 -7 -16 1.5 2.03
-6 7 16 2.32 1.44
6 7 -16 2.29 0.52
-6 7 16 2.28 1.5
6 7 -16 2.57 1.08
6 7 -16 0.52 1.4
-6 7 16 1.51 1.02
6 7 -16 -2.53 1.47
-5 -7 16 -0.64 1.24
-5 -7 16 -0.31 0.71
5 -7 -16 1.91 1.62
5 -7 -16 -0.54 1.63
-5 -7 16 -0.61 0.96
5 -7 -16 1.42 1.12
-5 -7 16 -1.16 1.29
5 -7 -16 -1.04 1.87
-5 7 16 0.58 1.3
5 7 -16 -0.05 0.4
5 7 -16 -1.11 1.62
5 7 -16 -1.37 1.02
-5 7 16 -2.22 1.32
5 7 -16 0.47 0.43
5 7 -16 -3.38 1.26
4 -7 -16 -1.04 1.82
-4 -7 16 -1.42 1.02
4 -7 -16 -2.66 1.4
-4 -7 16 -1 1.29
4 -7 -16 2.73 1.65
4 -7 -16 0.74 1.06
-4 -7 16 0.26 0.66
-4 -7 16 1.36 1.35
4 7 -16 0.91 0.38
4 7 -16 0.69 1.32
-4 7 16 1.94 1.24
4 7 -16 0.49 1.68
-4 7 16 0.02 1.25
4 7 -16 -0.31 1.04
3 -7 -16 0.3 1.52
3 -7 -16 0.14 1.58
-3 -7 16 -0.09 0.63
-3 -7 16 0.17 1.11
3 -7 -16 -0.44 1.98
-3 -7 16 0.76 1.31
3 -7 -16 2.01 1.57
-3 -7 16 1.28 1.36
3 7 -16 -1.73 1.64
-3 7 16 2.28 1.28
-3 7 16 0.75 1.27
3 7 -16 0.36 1.29
3 7 -16 0.13 0.4
-3 7 16 0.28 1.44
3 7 -16 -0.69 1.11
2 -7 -16 -1.25 0.98
-2 -7 16 -1.19 1.35
-2 -7 16 0.18 0.64
-2 -7 16 0.08 1.12
-2 -7 16 2.57 1.41
2 -7 -16 -0.32 2.06
2 -7 -16 -0.5 1.54
-2 7 16 1.49 1.25
-2 7 16 -0.7 1.41
-2 7 16 0.57 1.42
2 7 -16 -0.08 1.2
2 7 -16 0.87 1.83
2 7 -16 0.55 0.46
1 -7 -16 -0.32 2.16
1 -7 -16 0.26 0.93
-1 -7 16 -0.53 1.4
1 -7 -16 -0.39 1.58
-1 -7 16 1.39 1.24
-1 -7 16 -0.1 1.51
-1 7 16 2.01 1.3
1 7 -16 0.82 1.93
1 7 -16 0.12 1.33
1 7 -16 1.67 0.56
-1 7 16 1.68 1.45
-1 7 16 1.93 1.25
1 7 -16 -0.93 1.37
0 -7 16 1.99 1.47
0 -7 16 -0.88 1.74
0 -7 -16 -5 2.19
0 -7 16 -0.21 1.25
0 7 -16 0.62 1.11
0 7 16 -1.17 1.42
0 7 -16 2.45 2.16
0 7 16 0.8 1.23
0 7 -16 -0.74 0.66
0 7 -16 1.56 1.42
5 -8 -16 -3.97 1.67
5 -8 -16 2.58 1.26
-5 -8 16 -0.44 1.4
-5 -8 16 2.92 1.2
-5 -8 16 0.07 0.86
5 -8 -16 -0.11 2.27
5 -8 -16 0.67 1.78
-5 -8 16 1.08 2.33
-5 8 16 -0.44 1.51
5 8 -16 0.13 1.2
5 8 -16 1.16 1.75
-5 8 16 2.01 1.46
5 8 -16 0.32 1.65
-4 -8 16 0.57 1.45
-4 -8 16 -1.16 2.26
4 -8 -16 2.04 1.73
-4 -8 16 -0.74 0.79
4 -8 -16 2.06 1.8
-4 -8 16 -2.44 1.53
4 -8 -16 0.66 2.04
-4 8 16 1.4 1.39
4 8 -16 3.26 2.05
4 8 -16 2.16 1.21
4 8 -16 -1.4 1.46
-4 8 16 -1.05 1.44
-3 -8 16 4.06 1.33
-3 -8 16 0.13 0.79
-3 -8 16 1.59 1.52
3 -8 -16 0.57 1.74
3 -8 -16 1.55 1.92
3 -8 -16 -1.47 2.3
3 -8 -16 -0.41 0.98
-3 -8 16 -0.52 1.46
3 8 -16 -1.48 1.95
-3 8 16 0.74 1.4
3 8 -16 1.6 1.44
-3 8 16 0.1 1.48
3 8 -16 -0.36 1.25
2 -8 -16 1.83 1.99
2 -8 -16 1.5 2.32
2 -8 -16 1.45 0.99
-2 -8 16 -0.58 1.57
-2 -8 16 2.78 1.35
-2 -8 16 2.65 1.59
2 -8 -16 -0.16 1.68
2 8 -16 0.33 1.5
2 8 -16 -1.39 2.18
-2 8 16 -0.68 1.33
-2 8 16 5.5 1.59
2 8 -16 -1.1 1.37
-1 -8 16 -1.8 1.53
-1 -8 16 0.9 1.3
1 -8 -16 1.07 2.39
1 -8 -16 2.35 1.81
-1 -8 16 1 1.71
-1 -8 16 -1.1 0.76
-1 8 16 -1.02 1.55
1 8 -16 0.82 1.35
-1 8 16 1.57 1.42
1 8 -16 -0.88 1.49
-8 0 17 -2.16 2.01
8 0 -17 -0.68 1.52
-8 0 17 -1.11 0.97
8 0 -17 -0.03 1.64
-8 0 17 -2.14 1.29
-8 0 17 -0.47 0.95
-7 0 17 -0.09 1
-7 0 17 0.72 0.97
7 0 -17 2.02 1.21
-7 0 17 0.25 1.15
-7 0 17 2.35 1.23
7 0 -17 -0.05 1.48
7 0 -17 0.99 1.51
-7 0 17 -2.42 1.34
6 0 -17 1.28 1.09
-6 0 17 2.89 1.3
-6 0 17 0.7 0.98
6 0 -17 0.12 1.53
-6 0 17 0.43 1.1
-6 0 17 1.04 1.1
6 0 -17 -0.67 1.36
-6 0 17 -0.72 0.85
-5 0 17 0.57 1.03
-5 0 17 -1.29 1.12
-5 0 17 0.94 0.98
5 0 -17 -1.1 1.39
-5 0 17 0.94 0.88
5 0 -17 -1.96 1.45
5 0 -17 1.54 1.11
-5 0 17 0.28 1.01
-4 0 17 -0.88 0.99
4 0 -17 1.59 1.52
4 0 -17 -0.86 1.31
-4 0 17 1.73 0.97
-4 0 17 0.01 1
-4 0 17 -1.13 1.12
4 0 -17 -1.41 1.08
-4 0 17 0.49 0.93
-3 0 17 -0.4 0.94
3 0 -17 0.5 1.58
3 0 -17 2.15 1.1
3 0 -17 -0.59 1.4
-3 0 17 1.87 0.98
-3 0 17 1.01 0.97
-3 0 17 -0.37 1.13
2 0 -17 -3.24 1.19
2 0 -17 0.17 1.69
-2 0 17 3.47 1.27
-2 0 17 2.13 1.06
1 0 -17 0.7 1.19
-1 0 17 1.72 1.41
1 0 -17 -1.1 1.88
1 0 -17 -1.68 0.85
-1 0 17 -0.14 1.32
-1 0 17 0.86 1.08
0 0 -17 -1.1 1.88
0 0 -17 -0.77 0.95
0 0 17 2.9 1.46
0 0 -17 -0.45 1.19
0 0 17 1.57 1.16
0 0 17 0.47 0.31
1 0 17 -0.1 2.06
-1 0 -17 -1.88 1.06
-1 0 -17 0.77 2.27
1 0 17 3.47 1.3
-8 -1 17 -0.96 1.47
8 -1 -17 1.76 1.68
8 -1 -17 1.88 1.6
-8 -1 17 -0.1 0.94
8 -1 -17 1.74 1.19
-8 -1 17 0.3 1.38
-8 -1 17 4.38 1.09
-8 1 17 0.14 1.38
-8 1 17 -2.18 1
-8 1 17 1.7 1.24
8 1 -17 -1.16 1.55
-8 1 17 3.31 1.09
8 1 -17 1.23 1.12
8 1 -17 1.04 1.56
7 -1 -17 -0.7 1.53
7 -1 -17 0.48 1.21
-7 -1 17 0.56 0.98
7 -1 -17 -0.08 1.5
-7 -1 17 2.73 1.38
7 -1 -17 -0.7 1.15
-7 -1 17 -0.04 1.22
-7 -1 17 -1.23 0.93
-7 1 17 0.87 0.94
7 1 -17 0.94 1.51
7 1 -17 1.05 1.41
-7 1 17 0.23 1
7 1 -17 1.23 1.36
-7 1 17 2.33 1.47
7 1 -17 -1.81 1.07
-7 1 17 1.64 1.15
-7 1 17 -0.5 1.2
-6 -1 17 1.45 1.33
-6 -1 17 2.5 0.87
6 -1 -17 -0.26 1.46
6 -1 -17 -0.92 1.13
-6 -1 17 0.57 1.17
6 -1 -17 0.06 1.38
-6 -1 17 -1.24 0.98
6 1 -17 1.65 1.02
6 1 -17 0.02 1.26
-6 1 17 0.54 0.91
-6 1 17 -1.52 0.95
-6 1 17 0.09 1.06
6 1 -17 0.35 1.43
-6 1 17 -1.3 1.22
-6 1 17 0.41 1.16
6 1 -17 -1.45 1.33
-5 -1 17 -1.63 0.98
5 -1 -17 0.73 1.45
5 -1 -17 0.55 1.14
5 -1 -17 0.7 1.45
-5 -1 17 1.98 1.13
-5 -1 17 2.04 1.25
-5 -1 17 1.04 0.87
-5 1 17 -0.28 0.95
-5 1 17 0.87 1.01
-5 1 17 -1.12 0.96
5 1 -17 -0.28 1.58
5 1 -17 -1.47 1.21
-5 1 17 0.93 1.02
-5 1 17 1.62 1.21
-4 -1 17 1.62 1.05
4 -1 -17 1.08 1.63
4 -1 -17 -2.05 1.06
-4 -1 17 0.53 1.14
-4 -1 17 0.56 0.96
4 -1 -17 0.76 1.31
-4 -1 17 -0.77 1.03
-4 1 17 0.12 0.98
4 1 -17 -1.25 1.32
-4 1 17 -0.35 0.97
4 1 -17 -1.15 1.04
-4 1 17 0.95 0.94
-4 1 17 -1.64 1.05
4 1 -17 -0.7 1.44
-4 1 17 0.48 0.98
3 -1 -17 1.94 1.65
-3 -1 17 -0.8 1.14
3 -1 -17 -0.13 1.14
-3 -1 17 -0.79 1.22
-3 -1 17 1.08 0.98
-3 -1 17 1.56 0.95
3 -1 -17 0.87 1.37
-3 1 17 -2.24 0.97
-3 1 17 -0.62 0.89
-3 1 17 1.18 1.16
3 1 -17 0.1 1.48
3 1 -17 -1.55 1.06
-3 1 17 0.08 0.9
-2 -1 17 0.39 1.28
2 -1 -17 2.04 1.81
-2 -1 17 0.93 1.01
2 -1 -17 -0.31 1.11
-2 -1 17 -0.6 1.07
-2 -1 17 1.61 1.17
-2 1 17 0.15 1.21
-2 1 17 1.07 1.11
2 1 -17 0.56 1.72
-2 1 17 -0.01 1.16
2 1 -17 1.5 1.3
-2 1 17 0.99 0.84
-1 -1 17 0.9 1.05
-1 -1 17 1.86 1.3
1 -1 -17 -2.11 1.22
-1 -1 17 3.91 1.32
1 -1 -17 -0.69 1.72
-1 1 17 -1.57 1.27
1 1 -17 0.21 0.84
-1 1 17 0.06 0.99
-1 1 17 0 1.27
1 1 -17 0.06 1.7
1 1 -17 1.2 1.29
0 -1 17 0.92 0.43
0 -1 17 -0.32 1.14
0 -1 17 -1.42 1.27
0 -1 -17 -0.2 1.34
0 -1 -17 0.07 1.94
0 -1 -17 1.44 1.04
0 1 -17 0.42 0.92
0 1 17 1.17 1.38
0 1 -17 2.68 2.2
0 1 17 -2.04 1.06
0 1 -17 3.6 1.34
1 -1 17 0.87 1.01
-1 -1 -17 1.72 1.17
1 -1 17 -0.62 1.14
-1 -1 -17 -0.28 2.36
1 1 17 -0.3 1.83
-1 1 -17 0.61 1.1
-1 1 -17 2.16 2.17
-1 1 -17 2.41 1.5
1 1 17 0.22 1.35
-8 -2 17 2.14 1.51
8 -2 -17 0.5 1.73
-8 -2 17 -2.48 1.04
8 -2 -17 0.33 1.22
-8 -2 17 2.81 1.41
8 -2 -17 3.5 1.8
-8 2 17 2.74 1.45
8 2 -17 -0.05 1.53
8 2 -17 0.08 1.56
8 2 -17 -0.21 1.12
-8 2 17 2.13 1.24
-8 2 17 -1.38 1.02
7 -2 -17 -2.84 1.28
-7 -2 17 1.4 1.39
7 -2 -17 1.85 1.73
-7 -2 17 0.32 1.1
7 -2 -17 -1.61 1.12
-7 -2 17 1.89 1.27
7 -2 -17 0.01 1.57
-7 -2 17 -0.88 0.9
7 2 -17 -0.21 1.55
7 2 -17 -0.33 1.44
7 2 -17 -0.44 1.43
-7 2 17 3 1.12
7 2 -17 0.07 1.03
-7 2 17 -0.94 1.1
-7 2 17 1.5 0.97
-7 2 17 1.29 1.28
-6 -2 17 3.45 1.07
6 -2 -17 1.49 1.55
6 -2 -17 3.11 1.66
-6 -2 17 1.08 1.24
-6 -2 17 1.24 1.16
-6 -2 17 -0.7 0.83
6 -2 -17 1.35 1.22
-6 2 17 0.89 0.97
-6 2 17 -0.56 0.88
-6 2 17 0.17 1.07
-6 2 17 -0.96 1.18
6 2 -17 1.27 1.32
6 2 -17 0.44 1.56
6 2 -17 -0.02 1.41
-6 2 17 0.95 1.28
-5 -2 17 -0.18 1.13
5 -2 -17 -0.28 1.4
5 -2 -17 -1.85 1.15
-5 -2 17 -0.28 0.94
-5 -2 17 -0.14 1.24
5 -2 -17 0.43 1.56
-5 -2 17 0.17 1.05
5 2 -17 -0.47 1.33
-5 2 17 -1.13 1.1
5 2 -17 0.52 1.24
-5 2 17 1.05 1
5 2 -17 -1.1 1.47
-5 2 17 0.94 1.15
-5 2 17 0.87 0.99
-5 2 17 1.29 0.91
4 -2 -17 1.55 1.56
4 -2 -17 -0.7 1.13
-4 -2 17 -0.87 1.12
-4 -2 17 -0.02 1.08
-4 -2 17 0.53 1.07
4 -2 -17 2.63 1.47
4 2 -17 1.09 1.11
-4 2 17 -0.1 0.97
-4 2 17 -1.3 1.12
-4 2 17 1.88 1.03
4 2 -17 -0.2 1.01
4 2 -17 -0.73 1.37
-4 2 17 0.15 0.96
-4 2 17 0.25 1.03
4 2 -17 0.6 1.55
3 -2 -17 -0.73 1.18
3 -2 -17 0.3 1.65
-3 -2 17 -0.51 1.19
3 -2 -17 0.95 1.46
-3 -2 17 -0.93 0.98
-3 -2 17 -1.06 0.79
-3 -2 17 -0.08 1.03
-3 2 17 0.89 1.13
-3 2 17 0.55 1.03
-3 2 17 -0.63 0.92
-3 2 17 -0.18 1.06
3 2 -17 1.34 1.15
3 2 -17 2.31 1.59
2 -2 -17 -0.67 1.2
-2 -2 17 -0.76 1.1
-2 -2 17 0.32 0.86
2 -2 -17 1.19 1.77
-2 -2 17 -0.12 1.28
-2 -2 17 0.1 1.1
2 -2 -17 0.35 1.44
-2 2 17 0.52 1.28
2 2 -17 1.46 1.26
-2 2 17 -0.13 1.04
2 2 -17 1.84 1.84
2 2 -17 0.28 0.76
-2 2 17 0.92 1.16
-2 2 17 0.04 0.88
1 -2 -17 3.45 1.92
-1 -2 17 1.38 1.41
-1 -2 17 1.07 0.98
-1 -2 17 3.8 1.28
1 -2 -17 2.83 1.33
-1 -2 17 -0.32 1.15
-1 2 17 0.99 0.98
1 2 -17 3.62 1.42
1 2 -17 1.34 1.59
-1 2 17 -0.07 1.31
-1 2 17 2.87 1.31
1 2 -17 1.44 0.84
-1 2 17 0.08 0.88
0 -2 -17 2.08 1.14
0 -2 17 2.71 1.63
0 -2 17 0.8 1.17
0 -2 -17 0.99 1.46
0 -2 -17 -0.44 1.97
0 -2 17 -0.19 0.55
0 2 17 -0.13 1.22
0 2 -17 -0.83 0.91
0 2 17 0.2 1.5
0 2 -17 1.59 1.42
0 2 17 0.72 0.83
0 2 -17 -0.62 1.89
1 -2 17 2.19 1.31
-1 -2 -17 -0.85 1.22
-1 -2 -17 0.63 2.23
1 -2 17 3.57 1.36
1 2 17 -1.03 2.46
-1 2 -17 0.01 1.01
-1 2 -17 0.98 1.67
1 2 17 1.51 1.3
-1 2 -17 0.73 2.35
8 -3 -17 1.14 1.86
-8 -3 17 1.46 1.5
-8 -3 17 0.58 1.45
-8 -3 17 -0.37 1.06
8 -3 -17 2.31 1.76
8 -3 -17 -0.64 1.41
-8 3 17 2.99 1.27
-8 3 17 0.47 1.23
8 3 -17 1.17 1.59
8 3 -17 -0.55 1.64
-8 3 17 0.53 1.43
-7 -3 17 0.51 1.32
7 -3 -17 0.86 1.7
-7 -3 17 1.57 1.38
-7 -3 17 -2.73 1.08
-7 -3 17 -1.48 0.89
7 -3 -17 -3.55 1.56
7 -3 -17 1.95 1.27
-7 3 17 1.27 1.14
7 3 -17 -0.38 1.44
-7 3 17 -0.15 1.34
-7 3 17 -0.73 1.13
7 3 -17 -0.17 1.13
7 3 -17 -0.28 1.54
7 3 -17 1.25 1.44
6 -3 -17 -1.37 1.23
-6 -3 17 -0.04 1.28
-6 -3 17 0.51 0.9
-6 -3 17 -0.07 1.02
6 -3 -17 -0.02 1.29
6 -3 -17 -0.16 1.72
6 -3 -17 -0.9 1.48
-6 -3 17 -0.04 1.23
6 3 -17 -1.4 1.04
-6 3 17 -0.5 1.2
6 3 -17 0.92 1.64
-6 3 17 0.91 1.08
6 3 -17 -2.28 1.36
6 3 -17 0.43 1.34
-6 3 17 -0.59 1.17
5 -3 -17 -1.07 1.29
-5 -3 17 -1.54 0.88
-5 -3 17 -1.09 1.25
5 -3 -17 1.58 1.76
-5 -3 17 0.77 1.16
-5 -3 17 -0.24 1.19
5 -3 -17 -0.97 1.5
-5 3 17 0.6 1.15
-5 3 17 0.38 1.23
-5 3 17 0.78 1.01
-5 3 17 2.61 1.21
5 3 -17 -0.54 1.16
5 3 -17 -0.74 1.24
5 3 -17 -0.09 1.51
-5 3 17 2.54 1.19
5 3 -17 -0.7 1.33
-4 -3 17 0.23 1.19
-4 -3 17 -0.28 1.25
4 -3 -17 -0.89 1.71
-4 -3 17 1.09 0.98
4 -3 -17 0.89 1.3
4 -3 -17 -0.98 1.4
-4 3 17 -1.05 1
4 3 -17 1.4 1.19
4 3 -17 -0.4 1.62
-4 3 17 1.47 1.07
-4 3 17 1.12 1.05
4 3 -17 -1.65 1.08
-4 3 17 -0.68 1.12
3 -3 -17 1.26 1.28
3 -3 -17 -1.11 1.43
3 -3 -17 -0.36 1.66
-3 -3 17 -0.15 1.25
-3 -3 17 0.23 1.12
-3 -3 17 0.07 0.9
-3 3 17 0.78 1
-3 3 17 0.45 1.06
-3 3 17 -1.48 1.09
3 3 -17 2.27 1.71
3 3 -17 -0.67 1.12
3 3 -17 -1.14 1.1
-3 3 17 -1.15 1.05
-2 -3 17 1.53 1.41
-2 -3 17 -0.78 1.11
2 -3 -17 0.27 1.33
-2 -3 17 -0.13 1.02
2 -3 -17 0 1.8
-2 -3 17 -2.22 1.19
2 -3 -17 -3.54 1.42
2 3 -17 0.64 0.73
2 3 -17 -2.17 1.2
2 3 -17 1.35 1.63
-2 3 17 0.69 0.94
-2 3 17 -0.43 1.27
-2 3 17 -0.28 1.02
-2 3 17 2.42 1.26
1 -3 -17 1.14 2.02
1 -3 -17 -1.92 1.34
-1 -3 17 0.67 1.02
-1 -3 17 -0.15 0.34
-1 -3 17 0.49 1.12
-1 -3 17 0.06 1.72
-1 -3 17 0.72 0.47
-1 -3 17 -0.02 1.44
-1 3 17 -0.55 0.92
1 3 -17 -0.51 0.77
1 3 -17 -0.06 1.67
-1 3 17 -1.51 1.16
1 3 -17 1.19 1.34
-1 3 17 -2.51 1.17
0 -3 -17 1.32 1.48
0 -3 17 0.74 0.72
0 -3 17 0.12 1.34
0 -3 17 -0.23 1.1
0 -3 -17 -1.27 2.04
0 -3 -17 -0.2 1.15
0 3 -17 -2.7 1.24
0 3 -17 -0.38 2.01
0 3 -17 -0.23 0.88
0 3 17 -0.2 1.38
0 3 17 0.5 1.31
1 -3 17 1.83 1.27
-1 -3 -17 1.4 1.31
-1 -3 -17 2.91 2.47
-1 3 -17 0.72 1.02
1 3 17 -0.68 0.84
-1 3 -17 -0.43 2.05
1 3 17 0.33 1.31
-1 3 -17 3.35 2.29
7 -4 -17 -3.22 1.77
-7 -4 17 2.89 1.19
7 -4 -17 -0.19 1.84
-7 -4 17 1.11 1
7 -4 -17 -1.38 1.35
-7 -4 17 1.33 1.41
7 -4 -17 -0.98 1.46
-7 -4 17 0.94 1.45
-7 4 17 -0.32 1.15
-7 4 17 0.67 1.51
7 4 -17 1.5 1.11
-7 4 17 1.16 1.4
7 4 -17 1.55 1.71
7 4 -17 2.14 1.45
-6 -4 17 1.34 1.16
6 -4 -17 0.38 1.66
-6 -4 17 3.49 1.35
-6 -4 17 1.51 1.32
6 -4 -17 2.78 1.3
-6 -4 17 0.23 0.93
6 -4 -17 -0.07 1.67
6 -4 -17 2.44 1.33
-6 4 17 1.35 1.23
6 4 -17 1.22 1.4
6 4 -17 0.02 1.43
-6 4 17 0.17 1.22
6 4 -17 -1.41 1.06
-6 4 17 -1.3 1.1
6 4 -17 -1.19 1.56
-5 -4 17 -0.1 0.97
-5 -4 17 0.1 1.24
-5 -4 17 0.09 1.03
5 -4 -17 0.57 1.18
5 -4 -17 1.55 1.35
5 -4 -17 0.59 1.51
5 -4 -17 -0.6 1.8
-5 -4 17 -1.46 1.28
-5 4 17 0.72 1.16
-5 4 17 -0.49 1.16
5 4 -17 0.58 1.3
5 4 -17 1.03 1.67
5 4 -17 1.62 1.36
-5 4 17 1.13 1.06
4 -4 -17 0.63 1.72
-4 -4 17 0.05 1.28
4 -4 -17 -0.47 1.39
4 -4 -17 2.62 1.59
-4 -4 17 -1.52 1.04
-4 -4 17 1.43 1.23
-4 4 17 0.1 1.31
-4 4 17 1.03 1.11
4 4 -17 1.22 1.59
-4 4 17 2.19 1.11
-4 4 17 2.26 1.21
4 4 -17 2.45 1.22
4 4 -17 0.74 1.18
-3 -4 17 -0.64 1.36
-3 -4 17 -0.04 1.29
-3 -4 17 -0.05 1.16
3 -4 -17 -0.99 1.88
3 -4 -17 -1.66 1.39
-3 -4 17 -0.93 1
3 -4 -17 1.12 1.5
3 4 -17 -0.59 1.16
3 4 -17 0.96 0.71
-3 4 17 0.88 1.3
3 4 -17 0.32 1.68
-3 4 17 0.59 1.04
-3 4 17 -0.11 1.42
-3 4 17 1.66 1.42
3 4 -17 -0.25 1.17
-2 -4 17 -0.54 1.12
-2 -4 17 1.64 1.4
2 -4 -17 1.49 1.97
2 -4 -17 3.24 1.47
2 -4 -17 0.96 1.58
-2 -4 17 0.03 0.34
-2 -4 17 -0.72 1.15
-2 4 17 2.38 0.99
2 4 -17 2.14 1.32
-2 4 17 1.42 1.13
2 4 -17 -0.59 1.14
-2 4 17 2.7 1.29
2 4 -17 0.91 1.87
2 4 -17 1.39 0.72
-1 -4 17 -0.42 1.1
-1 -4 17 -0.65 0.41
-1 -4 17 -1.23 1.18
1 -4 -17 1.85 1.33
-1 -4 17 -1.18 1.52
1 -4 -17 1.04 2.12
1 4 -17 1.05 1.23
1 4 -17 -0.15 0.9
-1 4 17 0.25 1.71
-1 4 17 -0.33 0.94
1 4 -17 -2.88 1.94
-1 4 17 -0.56 1.22
0 -4 17 -0.25 1.25
0 -4 -17 3.9 2.35
0 -4 17 -0.93 1.32
0 -4 -17 -1.73 1.17
0 -4 -17 1.97 2.54
0 4 -17 1.2 0.88
0 4 17 1.35 0.99
0 4 17 3.16 1.48
0 4 -17 1.19 1.42
0 4 -17 0.22 2.22
7 -5 -17 0.25 1.42
7 -5 -17 3.34 1.58
-7 -5 17 0.74 1.6
-7 -5 17 0.92 1.48
7 -5 -17 -0.83 2.04
7 5 -17 0.37 1.74
-7 5 17 1.23 1.37
7 5 -17 1.22 1.55
-7 5 17 1.52 1.52
-7 5 17 -0.01 1.19
7 5 -17 -2.43 1.51
-6 -5 17 2.75 1.12
6 -5 -17 0.88 1.32
-6 -5 17 0.52 1.38
6 -5 -17 0.36 1.94
6 -5 -17 -0.75 1.38
-6 -5 17 -0.09 1.47
6 -5 -17 0.48 1.69
6 5 -17 0.25 1.58
6 5 -17 0.93 1.56
6 5 -17 -0.08 1.19
-6 5 17 -0.69 1.21
-6 5 17 0.34 1.11
-6 5 17 -0.49 1.32
5 -5 -17 2 1.46
5 -5 -17 0.41 1.25
5 -5 -17 1.45 1.88
-5 -5 17 0.92 0.97
5 -5 -17 3.31 1.72
-5 -5 17 -2.47 1.27
-5 -5 17 0.28 1.31
-5 5 17 0.6 1.22
5 5 -17 -2.37 2.35
-5 5 17 -2.61 1.27
5 5 -17 -1.01 1.38
5 5 -17 1.35 1.72
-5 5 17 0.65 1.09
-4 -5 17 -2.04 1.33
4 -5 -17 1.39 1.86
-4 -5 17 0.62 1.33
4 -5 -17 -0.72 1.14
4 -5 -17 2.83 1.63
-4 -5 17 -0.42 1.08
4 -5 -17 1.97 1.47
4 5 -17 -0.63 0.65
4 5 -17 -0.18 1.29
-4 5 17 1.01 1.21
4 5 -17 -0.98 1.83
-4 5 17 -1.47 1.21
4 5 -17 2.33 1.17
3 -5 -17 2.72 1.65
-3 -5 17 0.83 1.24
-3 -5 17 -0.65 1.24
3 -5 -17 0.15 1.82
-3 -5 17 4.55 1.48
-3 -5 17 0.07 0.41
3 -5 -17 -1.24 1.45
3 -5 -17 1.98 1.14
-3 5 17 1.28 1.14
3 5 -17 2.42 1.28
3 5 -17 0.43 1.74
3 5 -17 1 0.67
-3 5 17 0.9 1.34
3 5 -17 1.08 1.25
-2 -5 17 1.3 1.5
2 -5 -17 -0.19 2.13
-2 -5 17 -1.95 1.11
-2 -5 17 0.74 0.48
-2 -5 17 1.42 1.34
2 -5 -17 1.8 1.46
2 -5 -17 -1.76 1.55
2 5 -17 0.12 1.18
2 5 -17 -2.01 1.96
2 5 -17 0.25 1.37
2 5 -17 -0.99 0.7
-2 5 17 1.01 1.31
-2 5 17 -2.81 1.06
-1 -5 17 1.1 1.34
1 -5 -17 0.49 2.26
-1 -5 17 -2.37 2.69
-1 -5 17 0.93 1.14
1 -5 -17 0.44 1.63
-1 -5 17 -0.08 0.51
1 5 -17 0.42 0.78
-1 5 17 2.19 1.39
-1 5 17 -0.34 1.08
1 5 -17 3.12 1.47
1 5 -17 -1.04 2.08
0 -5 17 2.9 1.48
0 -5 17 -0.66 1.33
0 -5 -17 4.1 2.48
0 5 17 2.99 1.49
0 5 17 0.41 1.06
0 5 -17 -0.52 1.49
0 5 -17 2.73 2.36
-6 -6 17 1.27 1.26
6 -6 -17 -0.14 1.39
-6 -6 17 3.41 1.53
-6 -6 17 3.02 2.45
6 -6 -17 0.99 1.72
6 6 -17 2.97 1.97
6 6 -17 2.03 1.22
-6 6 17 1.4 1.18
-6 6 17 -0.81 1.42
-6 6 17 -1.02 1.39
5 -6 -17 1.08 1.98
5 -6 -17 -0.06 1.31
-5 -6 17 0.44 1.52
5 -6 -17 0.94 1.81
5 -6 -17 -0.13 1.55
-5 -6 17 -0.64 1.45
-5 -6 17 0.53 1.14
5 6 -17 -0.24 0.61
5 6 -17 -1.01 1.86
5 6 -17 -1.31 1.49
-5 6 17 1.38 1.45
-5 6 17 0.13 1.43
5 6 -17 0.34 1.41
-5 6 17 -0.77 1.13
-4 -6 17 1.07 1.19
4 -6 -17 1.05 1.83
4 -6 -17 0.43 1.25
-4 -6 17 1.01 1.37
4 -6 -17 1.89 2.19
-4 -6 17 -4.45 1.4
4 -6 -17 2.33 1.59
4 6 -17 2.89 1.42
4 6 -17 0.31 1.24
-4 6 17 2.1 1.37
4 6 -17 0.03 0.6
-4 6 17 2.29 1.38
4 6 -17 2.45 1.9
-3 -6 17 0.18 0.63
-3 -6 17 2.76 1.51
-3 -6 17 -0.81 1.16
-3 -6 17 -0.82 1.38
3 -6 -17 -2.61 1.55
3 -6 -17 1.07 2.14
3 -6 -17 -0.21 1.17
3 -6 -17 -0.56 1.72
-3 6 17 3.81 1.37
3 6 -17 0.97 0.62
3 6 -17 0.65 1.39
3 6 -17 2.11 1.31
-3 6 17 0.47 1.26
3 6 -17 -0.33 1.94
-2 -6 17 -3.48 1.57
2 -6 -17 4.49 1.76
-2 -6 17 0.59 1.33
2 -6 -17 2.31 1.84
-2 -6 17 -0.47 0.6
-2 -6 17 1.59 1.51
2 -6 -17 0.08 2.24
2 -6 -17 -0.05 1.31
2 6 -17 -1.14 1.96
2 6 -17 0.38 0.67
-2 6 17 -0.01 1.54
2 6 -17 -0.04 1.3
-2 6 17 -0.36 1.18
-1 -6 17 0.66 1.4
-1 -6 17 0.59 1.81
-1 -6 17 -0.37 0.63
1 -6 -17 0.8 2.41
1 6 -17 -0.01 1.44
-1 6 17 1.09 1.19
-1 6 17 -2.37 1.41
1 6 -17 1.06 0.76
4 -7 -17 1.55 1.27
3 -7 -17 -1.12 1.18
-7 0 18 -1.13 1.15
7 0 -18 -0.32 1.37
-7 0 18 2.53 1.42
7 0 -18 -1.41 1.79
7 0 -18 -0.11 1.74
-6 0 18 1.62 1.16
6 0 -18 2.34 1.64
-6 0 18 -0.3 1.28
6 0 -18 0.63 1.87
6 0 -18 -2.91 1.31
5 0 -18 -0.43 1.56
-5 0 18 2.71 1.25
-5 0 18 -0.91 1.17
5 0 -18 1.2 1.23
5 0 -18 1.07 1.81
4 0 -18 1.26 1.87
4 0 -18 -2.5 1.36
-4 0 18 -1.89 1.13
-4 0 18 1.68 1.26
4 0 -18 2.14 1.56
-3 0 18 0.68 1.17
3 0 -18 -1.71 2.03
-3 0 18 1.53 1.25
3 0 -18 3.72 1.42
-2 0 18 4.68 1.41
2 0 -18 1.3 2
2 0 -18 4.45 1.58
-1 0 18 5.37 1.47
1 0 -18 1.4 1.57
1 0 -18 4.6 1.15
1 0 -18 3.43 2.13
7 -1 -18 -0.06 1.72
-7 -1 18 0.54 1.42
7 -1 -18 2.87 1.81
-7 -1 18 -0.39 1.15
-7 1 18 0.63 1.35
7 1 -18 -0.71 1.25
-7 1 18 -1.12 1.16
-7 1 18 -0.91 1.41
7 1 -18 -0.2 1.72
7 1 -18 1.69 1.77
6 -1 -18 -1.32 1.35
-6 -1 18 -0.26 1.15
6 -1 -18 4.76 1.91
6 -1 -18 0.31 1.67
-6 -1 18 0.04 1.39
-6 1 18 -0.19 1.22
-6 1 18 0.24 1.3
6 1 -18 -1.1 1.58
-6 1 18 0.75 2.13
6 1 -18 1.54 1.77
6 1 -18 1.89 1.45
5 -1 -18 3.95 1.93
5 -1 -18 1.25 1.39
-5 -1 18 2.01 1.28
-5 -1 18 4.79 1.11
5 -1 -18 2.01 1.65
5 1 -18 2.05 1.97
5 1 -18 1.95 1.67
-5 1 18 2.33 1.19
5 1 -18 -0.34 1.26
-5 1 18 2.49 1.2
-5 1 18 1.24 1.24
4 -1 -18 -1.53 1.81
-4 -1 18 -2.86 1.21
-4 -1 18 2.96 1.3
4 -1 -18 3.01 1.68
4 -1 -18 -2.46 1.32
4 1 -18 0.69 1.3
4 1 -18 0.39 1.81
-4 1 18 0.37 1.18
-4 1 18 -0.22 1.1
4 1 -18 -0.6 1.64
-4 1 18 -0.59 1.14
3 -1 -18 1.89 1.89
3 -1 -18 -2.65 1.63
-3 -1 18 1.07 1.25
-3 -1 18 1.89 1.27
3 -1 -18 0.82 1.5
3 1 -18 1.84 2.03
3 1 -18 -0.19 1.51
-3 1 18 0.91 1.17
-3 1 18 0.63 1.07
-3 1 18 -2.83 1.24
-2 -1 18 -1.19 1.18
2 -1 -18 -2.18 1.45
2 -1 -18 -0.71 2.01
-2 -1 18 -1.22 1.28
-2 1 18 0.43 1.24
2 1 -18 -0.03 1.39
2 1 -18 0 0.95
2 1 -18 2.56 2.17
-1 -1 18 -0.62 1.19
1 -1 -18 -0.51 1.15
1 -1 -18 -1.34 2.17
1 -1 -18 -0.12 1.49
1 1 -18 -2.76 1.59
1 1 -18 2.43 2.21
1 1 -18 -0.11 1.01
-1 1 18 -1.33 1.26
7 -2 -18 2.38 2.22
-7 -2 18 2.16 1.54
7 -2 -18 2.84 1.48
7 -2 -18 1.73 2.14
-7 2 18 -2.15 1.39
7 2 -18 2.01 1.88
7 2 -18 0.51 1.34
-7 2 18 -1.28 1.34
7 2 -18 0.15 1.67
-7 2 18 0.96 1.26
6 -2 -18 -0.06 1.78
6 -2 -18 -1.03 1.42
-6 -2 18 1.55 1.43
6 -2 -18 1.33 2.02
-6 -2 18 1.17 1.09
6 2 -18 -2.01 1.59
-6 2 18 -0.32 1.26
6 2 -18 1.23 1.62
-6 2 18 1.85 1.23
-6 2 18 -1.5 1.34
6 2 -18 2.9 1.9
-5 -2 18 2.32 1.44
-5 -2 18 -0.07 1.05
5 -2 -18 -2.25 1.64
5 -2 -18 0.56 1.87
-5 -2 18 -0.84 1.89
5 -2 -18 -0.02 1.41
5 2 -18 -1.55 1.62
-5 2 18 0.85 1.24
5 2 -18 2.78 1.96
5 2 -18 -0.37 1.38
-5 2 18 0.18 1.11
-5 2 18 0.67 1.22
5 2 -18 -0.36 1.21
-4 -2 18 -0.49 1.26
4 -2 -18 2.07 2.01
-4 -2 18 -0.27 1.08
4 -2 -18 -1.26 1.61
4 -2 -18 -0.82 1.42
-4 2 18 0.55 1.15
-4 2 18 1.78 1.2
-4 2 18 -0.22 1.14
4 2 -18 -0.17 1.88
4 2 -18 0.89 1.34
-3 -2 18 1.31 1.09
3 -2 -18 0.6 1.76
3 -2 -18 -0.52 1.99
3 -2 -18 -3.53 1.4
-3 -2 18 2.04 1.31
3 2 -18 0.17 1.77
-3 2 18 0.04 1.07
3 2 -18 -1.45 1.42
-3 2 18 0.61 1.13
2 -2 -18 4.74 2.2
-2 -2 18 -1.19 1.07
-2 -2 18 0.94 1.33
2 -2 -18 -2.09 1.37
2 2 -18 -0.02 1.52
2 2 -18 3.42 0.99
-2 2 18 1.31 1.34
2 2 -18 0.47 2.06
-2 2 18 0.1 1.06
-1 -2 18 0.6 1.26
-1 -2 18 -2.44 1.6
1 -2 -18 -1.03 1.66
1 -2 -18 2.47 2.41
1 2 -18 -2.04 2.32
1 2 -18 0.62 1.02
1 2 -18 0.72 1.51
-1 2 18 1.47 1.56
-1 2 18 1.23 1.02
6 -3 -18 -0.77 1.54
6 -3 -18 0.15 1.92
-6 -3 18 -0.16 1.45
6 -3 -18 -0.78 1.51
-6 -3 18 1.75 1.16
-6 -3 18 0.27 1.79
6 -3 -18 0.21 2.09
6 3 -18 0.75 1.79
-6 3 18 -2.31 1.24
6 3 -18 -0.8 1.69
6 3 -18 1.96 1.87
-6 3 18 0.26 1.23
-6 3 18 -0.26 1.44
-5 -3 18 0.69 1.41
5 -3 -18 1.12 1.58
-5 -3 18 0.78 1.55
5 -3 -18 0.23 1.89
5 -3 -18 0.84 1.96
-5 -3 18 1.96 1.58
5 3 -18 2.04 1.83
5 3 -18 -1.11 1.5
5 3 -18 1.3 1.37
-5 3 18 -0.13 1.24
-5 3 18 -0.03 1.19
-5 3 18 -0.2 1.38
4 -3 -18 0.36 1.96
-4 -3 18 0.75 1.34
-4 -3 18 -0.97 1.12
4 -3 -18 0.8 1.59
-4 -3 18 1.2 2.59
4 -3 -18 -1.79 1.74
4 3 -18 -0.42 1.35
4 3 -18 3.37 1.48
-4 3 18 0.14 1.24
-4 3 18 -1.25 1.12
4 3 -18 1.71 2.14
-4 3 18 -2.42 1.14
3 -3 -18 1.07 1.72
-3 -3 18 -1.47 1.19
-3 -3 18 1.22 1.38
3 -3 -18 1.29 2.08
3 -3 -18 -0.92 1.46
3 3 -18 -0.09 1.85
3 3 -18 -0.32 1.51
-3 3 18 0.82 1.27
3 3 -18 -1.66 0.82
-3 3 18 1.16 1.18
-2 -3 18 1.21 1.15
2 -3 -18 2.1 2.26
2 -3 -18 0.96 1.68
-2 -3 18 -0.29 1.32
2 3 -18 0.87 2.18
-2 3 18 1.04 1.32
2 3 -18 0.22 0.93
2 3 -18 -1.34 1.41
-2 3 18 -0.51 1.14
-1 -3 18 2.2 1.34
1 -3 -18 -2.48 2.18
1 -3 -18 0.05 2.24
-1 3 18 -0.11 1.07
-1 3 18 -1.33 1.25
1 3 -18 0.94 1.64
-5 -4 18 -0.66 2.02
-5 -4 18 -0.96 1.57
5 -4 -18 -0.86 1.64
-5 -4 18 0.02 1.6
5 -4 -18 0.36 1.49
5 4 -18 1.57 1.63
5 4 -18 -0.36 1.37
-5 4 18 -0.33 1.3
-5 4 18 3.06 1.45
-5 4 18 -0.31 1.21
5 4 -18 0.4 2.1
-4 -4 18 2.95 1.54
-4 -4 18 -4.15 2.07
4 -4 -18 0.72 2.17
-4 -4 18 0.27 1.27
4 -4 -18 0.76 1.61
4 -4 -18 0.1 1.91
4 4 -18 1.05 2.13
4 4 -18 -0.12 1.45
4 4 -18 -1.68 1.48
-4 4 18 2.3 1.49
-4 4 18 0.18 1.29
3 -4 -18 3.07 2.16
3 -4 -18 0.36 2.2
-3 -4 18 -0.48 1.16
3 -4 -18 1.79 1.76
-3 -4 18 1.14 1.6
3 4 -18 0.16 0.87
3 4 -18 0.94 2.38
-3 4 18 2.5 1.25
3 4 -18 2.73 1.5
-3 4 18 -1.72 1.28
3 4 -18 0.37 1.45
-2 -4 18 1.21 1.36
2 -4 -18 0.91 2.42
-2 4 18 1.9 1.27
2 4 -18 0.3 1.57
2 4 -18 -1.6 0.89
-2 4 18 1.42 1.41
