#------------------------------------------------------------------------------
#$Date: 2017-09-12 05:47:26 +0300 (Tue, 12 Sep 2017) $
#$Revision: 200514 $
#$URL: file:///home/coder/svn-repositories/cod/cif/1/54/70/1547005.cif $
#------------------------------------------------------------------------------
#
# This file is available in the Crystallography Open Database (COD),
# http://www.crystallography.net/
#
# All data on this site have been placed in the public domain by the
# contributors.
#
data_1547005
loop_
_publ_author_name
'Yue, Deng-Feng'
'Zhao, Jian-Qiang'
'Chen, Xiao-Zhen'
'Zhou, Yan'
'Zhang, Xiao-Mei'
'Xu, Xiao-Ying'
'Yuan, Wei-Cheng'
_publ_section_title
;
 Multiple Hydrogen-Bonding Bifunctional Thiourea-Catalyzed Asymmetric
 Dearomative [4 + 2] Annulation of 3-Nitroindoles: Highly Enantioselective
 Access to Hydrocarbazole Skeletons.
;
_journal_issue                   17
_journal_name_full               'Organic letters'
_journal_page_first              4508
_journal_page_last               4511
_journal_paper_doi               10.1021/acs.orglett.7b02068
_journal_volume                  19
_journal_year                    2017
_chemical_absolute_configuration ad
_chemical_formula_moiety         'C30 H28 N2 O8 S'
_chemical_formula_sum            'C30 H28 N2 O8 S'
_chemical_formula_weight         576.60
_space_group_crystal_system      monoclinic
_space_group_IT_number           4
_space_group_name_Hall           'P 2yb'
_space_group_name_H-M_alt        'P 1 21 1'
_symmetry_space_group_name_Hall  'P 2yb'
_symmetry_space_group_name_H-M   'P 1 21 1'
_atom_sites_solution_hydrogens   geom
_atom_sites_solution_primary     direct
_atom_sites_solution_secondary   difmap
_audit_creation_method           SHELXL-2014/7
_cell_angle_alpha                90
_cell_angle_beta                 97.0830(10)
_cell_angle_gamma                90
_cell_formula_units_Z            4
_cell_length_a                   10.9714(9)
_cell_length_b                   16.4516(14)
_cell_length_c                   15.5080(13)
_cell_measurement_reflns_used    9985
_cell_measurement_temperature    100(2)
_cell_measurement_theta_max      30.78
_cell_measurement_theta_min      2.24
_cell_volume                     2777.8(4)
_computing_cell_refinement       'Bruker SAINT'
_computing_data_collection       'Bruker APEX2'
_computing_data_reduction        'Bruker SAINT'
_computing_molecular_graphics    'Bruker SHELXTL'
_computing_publication_material  'Bruker SHELXTL'
_computing_structure_refinement  'SHELXL-2014 (Sheldrick 2014)'
_computing_structure_solution    'SHELXS-97 (Sheldrick 2008)'
_diffrn_ambient_temperature      100(2)
_diffrn_measured_fraction_theta_full 0.998
_diffrn_measured_fraction_theta_max 0.921
_diffrn_measurement_device_type  'Bruker APEX-II CCD'
_diffrn_measurement_method       '\f and \w scans'
_diffrn_radiation_type           MoK\a
_diffrn_radiation_wavelength     0.71073
_diffrn_reflns_av_R_equivalents  0.0188
_diffrn_reflns_av_unetI/netI     0.0295
_diffrn_reflns_Laue_measured_fraction_full 0.998
_diffrn_reflns_Laue_measured_fraction_max 0.921
_diffrn_reflns_limit_h_max       15
_diffrn_reflns_limit_h_min       -13
_diffrn_reflns_limit_k_max       23
_diffrn_reflns_limit_k_min       -23
_diffrn_reflns_limit_l_max       22
_diffrn_reflns_limit_l_min       -22
_diffrn_reflns_number            31091
_diffrn_reflns_point_group_measured_fraction_full 0.990
_diffrn_reflns_point_group_measured_fraction_max 0.889
_diffrn_reflns_theta_full        25.242
_diffrn_reflns_theta_max         31.062
_diffrn_reflns_theta_min         1.323
_diffrn_source                   'fine-focus sealed tube'
_exptl_absorpt_coefficient_mu    0.172
_exptl_absorpt_correction_type   multi-scan
_exptl_absorpt_process_details   sadabs
_exptl_crystal_colour            colourless
_exptl_crystal_density_diffrn    1.379
_exptl_crystal_description       block
_exptl_crystal_F_000             1208
_exptl_crystal_size_max          0.460
_exptl_crystal_size_mid          0.440
_exptl_crystal_size_min          0.400
_exptl_transmission_factor_max   0.7462
_exptl_transmission_factor_min   0.7058
_refine_diff_density_max         0.351
_refine_diff_density_min         -0.268
_refine_diff_density_rms         0.052
_refine_ls_abs_structure_details
;
 Flack x determined using 6782 quotients [(I+)-(I-)]/[(I+)+(I-)]
 (Parsons, Flack and Wagner, Acta Cryst. B69 (2013) 249-259).
;
_refine_ls_abs_structure_Flack   0.010(12)
_refine_ls_extinction_method     none
_refine_ls_goodness_of_fit_ref   1.049
_refine_ls_hydrogen_treatment    constr
_refine_ls_matrix_type           full
_refine_ls_number_parameters     745
_refine_ls_number_reflns         15831
_refine_ls_number_restraints     1
_refine_ls_restrained_S_all      1.049
_refine_ls_R_factor_all          0.0320
_refine_ls_R_factor_gt           0.0295
_refine_ls_shift/su_max          0.054
_refine_ls_shift/su_mean         0.000
_refine_ls_structure_factor_coef Fsqd
_refine_ls_weighting_details
'w=1/[\s^2^(Fo^2^)+(0.0492P)^2^+0.3772P] where P=(Fo^2^+2Fc^2^)/3'
_refine_ls_weighting_scheme      calc
_refine_ls_wR_factor_gt          0.0804
_refine_ls_wR_factor_ref         0.0824
_reflns_Friedel_coverage         0.873
_reflns_Friedel_fraction_full    0.982
_reflns_Friedel_fraction_max     0.856
_reflns_number_gt                15108
_reflns_number_total             15831
_reflns_threshold_expression     'I > 2\s(I)'
_cod_data_source_file            ol7b02068_si_002.cif
_cod_data_source_block           mo_wlx_ydf2_0m
_cod_database_code               1547005
_shelx_shelxl_version_number     2014/7
_shelx_space_group_comment
;
The symmetry employed for this shelxl refinement is uniquely defined
by the following loop, which should always be used as a source of
symmetry information in preference to the above space-group names.
They are only intended as comments.
;
_shelx_estimated_absorpt_t_min   0.925
_shelx_estimated_absorpt_t_max   0.934
_shelx_res_file
;

    mo_wlx_ydf2_0m.res created by SHELXL-2014/7

TITL mo_wlx_ydf2_0m in P2(1)
CELL 0.71073 10.9714 16.4516 15.5080 90.000 97.083 90.000
ZERR 4.00 0.0009 0.0014 0.0013 0.000 0.001 0.000
LATT -1
SYMM -x, y+1/2, -z
SFAC C  H  N  O  S
UNIT 120  112  8  32  4
L.S. 10
ACTA
BOND $H
FMAP 2
PLAN -5
HTAB C58 O16
HTAB C49 O8
HTAB C48 O4_$3
HTAB C48 O2_$3
HTAB C28 O8
HTAB C23 O6_$2
HTAB C17 O9_$1
HTAB C58 O16
HTAB C49 O8
HTAB C48 O4_$3
HTAB C48 O2_$3
HTAB C28 O8
HTAB C23 O6_$2
HTAB C17 O9_$1
HTAB C58 O16
HTAB C49 O8
HTAB C48 O4_$3
HTAB C48 O2_$3
HTAB C28 O8
HTAB C23 O6_$2
HTAB C17 O9_$1
HTAB C58 O16
HTAB C49 O8
HTAB C48 O4_$3
HTAB C48 O2_$3
EQIV $3 -x+1, y+1/2, -z+1
HTAB C28 O8
HTAB C23 O6_$2
EQIV $2 x-1, y, z
HTAB C17 O9_$1
EQIV $1 -x, y-1/2, -z+1
SIZE 0.400 0.440 0.460
HTAB
CONF
HTAB C17 O9_$1
HTAB C23 O6_$2
HTAB C28 O8
HTAB C48 O2_$3
HTAB C48 O4_$3
HTAB C49 O8
HTAB C58 O16
HTAB C17 O9_$1
HTAB C23 O6_$2
HTAB C28 O8
HTAB C48 O2_$3
HTAB C48 O4_$3
HTAB C49 O8
HTAB C58 O16
HTAB C17 O9_$1
HTAB C23 O6_$2
HTAB C28 O8
HTAB C48 O2_$3
HTAB C48 O4_$3
HTAB C49 O8
HTAB C58 O16
TEMP -173.000
WGHT    0.049200    0.377200
FVAR       0.17840
S1    5    0.455642    0.315562    0.244088    11.00000    0.01496    0.01429 =
         0.02373    0.00686    0.00422    0.00267
S2    5   -0.085969    0.687148    0.086747    11.00000    0.01706    0.01335 =
         0.01761   -0.00098   -0.00398    0.00268
O1    4    0.331086    0.291039    0.220254    11.00000    0.01296    0.03143 =
         0.04204    0.01821    0.00174    0.00254
O2    4    0.438170    0.071929    0.525943    11.00000    0.01729    0.01866 =
         0.01112    0.00129    0.00214   -0.00122
O3    4    0.267119    0.010025    0.461659    11.00000    0.02868    0.02549 =
         0.01935   -0.00095    0.00420   -0.01168
O4    4    0.268181    0.194926    0.450173    11.00000    0.01994    0.02588 =
         0.01749   -0.00329    0.00175    0.00599
O5    4    0.240231    0.155287    0.310044    11.00000    0.01123    0.02175 =
         0.01409   -0.00097    0.00014    0.00126
O6    4    0.782443    0.114150    0.220946    11.00000    0.01978    0.03204 =
         0.02938   -0.00775    0.01237   -0.00346
O7    4    0.592625    0.104339    0.162429    11.00000    0.02715    0.02096 =
         0.01297   -0.00027    0.00025    0.00352
O8    4    0.481988    0.394964    0.279715    11.00000    0.03398    0.01463 =
         0.03156    0.00390    0.01127    0.00650
O9    4   -0.138689    0.485680    0.232796    11.00000    0.01440    0.02389 =
         0.03240   -0.00132    0.00575   -0.00107
O10   4   -0.021002    0.380440    0.231477    11.00000    0.02359    0.01449 =
         0.02984    0.00064    0.00329   -0.00344
O11   4    0.322891    0.670037    0.358815    11.00000    0.01407    0.01792 =
         0.01435   -0.00266   -0.00065   -0.00105
O12   4    0.468988    0.670092    0.268789    11.00000    0.02654    0.02511 =
         0.03137   -0.00568    0.01154   -0.00960
O13   4    0.167083    0.791255    0.283006    11.00000    0.02072    0.01305 =
         0.02313   -0.00419    0.00437    0.00024
O14   4    0.005491    0.738078    0.341695    11.00000    0.01917    0.02257 =
         0.02213   -0.00404    0.00590    0.00295
O15   4   -0.098963    0.743214    0.155815    11.00000    0.02548    0.01614 =
         0.02539   -0.00555   -0.00446    0.00654
O16   4   -0.058806    0.715951    0.004038    11.00000    0.02447    0.01970 =
         0.02159    0.00544   -0.00479    0.00090
N1    3    0.513177    0.251155    0.321846    11.00000    0.01600    0.01071 =
         0.01710    0.00260    0.00111   -0.00011
C24   1    0.745540    0.256893   -0.056256    11.00000    0.05789    0.09463 =
         0.02116    0.00864    0.01028    0.04851
AFIX 137
H24A  2    0.701908    0.217705   -0.096486    11.00000   -1.50000
H24B  2    0.826189    0.234888   -0.033650    11.00000   -1.50000
H24C  2    0.756266    0.307971   -0.086953    11.00000   -1.50000
AFIX   0
N3    3    0.030502    0.627139    0.124743    11.00000    0.01316    0.01467 =
         0.01271   -0.00015   -0.00137    0.00201
N4    3   -0.038972    0.453580    0.228353    11.00000    0.01452    0.01695 =
         0.01397   -0.00081    0.00142   -0.00214
C1    1    0.524442   -0.155052    0.187911    11.00000    0.03761    0.01817 =
         0.01761   -0.00552    0.00248   -0.00439
AFIX  43
H1    2    0.497449   -0.198666    0.150161    11.00000   -1.20000
AFIX   0
C2    1    0.439316   -0.108744    0.225849    11.00000    0.02689    0.02268 =
         0.02160   -0.00515    0.00273   -0.00806
AFIX  43
H10   2    0.354197   -0.120481    0.213279    11.00000   -1.20000
AFIX   0
C3    1    0.478017   -0.045141    0.282264    11.00000    0.01930    0.01612 =
         0.01861   -0.00257    0.00208   -0.00259
AFIX  43
H7    2    0.419357   -0.014190    0.308428    11.00000   -1.20000
AFIX   0
C4    1    0.602999   -0.026973    0.300273    11.00000    0.01815    0.01009 =
         0.01294    0.00053    0.00050    0.00073
C5    1    0.653169    0.042852    0.358487    11.00000    0.01320    0.01185 =
         0.01291   -0.00121   -0.00031    0.00156
AFIX  13
H11   2    0.744256    0.035312    0.368563    11.00000   -1.20000
AFIX   0
C6    1    0.630886    0.127277    0.315483    11.00000    0.01286    0.01206 =
         0.01179   -0.00178    0.00229   -0.00049
C7    1    0.498029    0.160383    0.309435    11.00000    0.01345    0.01034 =
         0.01227    0.00100    0.00211   -0.00020
AFIX  13
H19   2    0.449573    0.146921    0.252324    11.00000   -1.20000
AFIX   0
C8    1    0.538077    0.301202    0.155361    11.00000    0.01862    0.01382 =
         0.01682    0.00413    0.00025    0.00042
C9    1    0.486109    0.255223    0.085463    11.00000    0.03405    0.01886 =
         0.02032    0.00607   -0.00571   -0.00837
AFIX  43
H26   2    0.405458    0.233859    0.084152    11.00000   -1.20000
AFIX   0
C10   1    0.554590    0.241049    0.017303    11.00000    0.05687    0.01872 =
         0.01586    0.00286   -0.00426    0.00435
AFIX  43
H27   2    0.520299    0.209228   -0.030783    11.00000   -1.20000
AFIX   0
C11   1    0.672015    0.272473    0.018160    11.00000    0.04147    0.04152 =
         0.01844    0.00772    0.00518    0.02451
C12   1    0.635198    0.264009    0.364233    11.00000    0.01614    0.01459 =
         0.01468   -0.00081    0.00321   -0.00153
C13   1    0.705563    0.194088    0.362812    11.00000    0.01426    0.01431 =
         0.01473   -0.00238    0.00216   -0.00348
C14   1    0.433244    0.132608    0.384983    11.00000    0.01253    0.01252 =
         0.01253   -0.00078    0.00230   -0.00119
C15   1    0.487961    0.085518    0.448608    11.00000    0.01365    0.01308 =
         0.01132   -0.00098    0.00184   -0.00206
C16   1    0.322039    0.040230    0.524860    11.00000    0.02063    0.01603 =
         0.01848    0.00310    0.00542   -0.00268
C17   1    0.280657    0.049635    0.612624    11.00000    0.03132    0.03345 =
         0.01991   -0.00207    0.01186   -0.00810
AFIX 137
H6    2    0.252315    0.105470    0.619580    11.00000   -1.50000
H5    2    0.349317    0.037876    0.657525    11.00000   -1.50000
H4    2    0.213210    0.011722    0.618298    11.00000   -1.50000
AFIX   0
C18   1    0.609143    0.044500    0.448670    11.00000    0.01649    0.01545 =
         0.01243    0.00064   -0.00003    0.00328
AFIX  23
H12   2    0.602763   -0.011989    0.469658    11.00000   -1.20000
H13   2    0.671000    0.073104    0.489682    11.00000   -1.20000
AFIX   0
C19   1    0.648991   -0.137541    0.205208    11.00000    0.03372    0.01832 =
         0.01974   -0.00484    0.00638    0.00329
AFIX  43
H8    2    0.707501   -0.168829    0.179271    11.00000   -1.20000
AFIX   0
C20   1    0.687087   -0.073574    0.261025    11.00000    0.02203    0.01822 =
         0.01879   -0.00309    0.00118    0.00379
AFIX  43
H9    2    0.772181   -0.061421    0.272615    11.00000   -1.20000
AFIX   0
C21   1    0.306222    0.165001    0.387464    11.00000    0.01300    0.01297 =
         0.01432    0.00155    0.00208   -0.00108
C22   1    0.115727    0.188688    0.301350    11.00000    0.01094    0.02997 =
         0.02100   -0.00127    0.00129    0.00270
AFIX  23
H14   2    0.117875    0.246752    0.318233    11.00000   -1.20000
H18   2    0.064938    0.158842    0.339363    11.00000   -1.20000
AFIX   0
C23   1    0.063052    0.179509    0.208107    11.00000    0.01823    0.02876 =
         0.02317    0.00045   -0.00495   -0.00012
AFIX 137
H16   2    0.113284    0.210071    0.171276    11.00000   -1.50000
H17   2   -0.021151    0.200547    0.200031    11.00000   -1.50000
H15   2    0.062545    0.121902    0.191983    11.00000   -1.50000
AFIX   0
N2    3    0.671094    0.116145    0.223852    11.00000    0.01997    0.01197 =
         0.01523   -0.00098    0.00577    0.00004
C25   1    0.825913    0.192037    0.403745    11.00000    0.01513    0.02001 =
         0.02363   -0.00216    0.00123   -0.00197
AFIX  43
H23   2    0.873585    0.143826    0.403812    11.00000   -1.20000
AFIX   0
C26   1    0.874670    0.262190    0.444510    11.00000    0.02026    0.02500 =
         0.02591   -0.00478   -0.00248   -0.00692
AFIX  43
H20   2    0.957019    0.262407    0.471942    11.00000   -1.20000
AFIX   0
C27   1    0.803256    0.332139    0.445283    11.00000    0.03052    0.02021 =
         0.02477   -0.00673    0.00067   -0.00854
AFIX  43
H22   2    0.838146    0.379644    0.473084    11.00000   -1.20000
AFIX   0
C28   1    0.681778    0.334115    0.406232    11.00000    0.02769    0.01483 =
         0.02377   -0.00405    0.00293   -0.00199
AFIX  43
H21   2    0.632758    0.381516    0.408247    11.00000   -1.20000
AFIX   0
C29   1    0.655322    0.333813    0.158358    11.00000    0.01818    0.03229 =
         0.01888    0.00144   -0.00073   -0.00289
AFIX  43
H25   2    0.689339    0.365649    0.206510    11.00000   -1.20000
AFIX   0
C30   1    0.721769    0.318766    0.089202    11.00000    0.01947    0.06242 =
         0.02285    0.00763    0.00238    0.00575
AFIX  43
H24   2    0.802265    0.340365    0.090411    11.00000   -1.20000
AFIX   0
C31   1   -0.544716    0.481119    0.024569    11.00000    0.02385    0.02993 =
         0.03570    0.00765   -0.00362   -0.00664
AFIX 137
H55   2   -0.576179    0.469454    0.079723    11.00000   -1.50000
H30   2   -0.527119    0.429939   -0.003777    11.00000   -1.50000
H28   2   -0.606364    0.511828   -0.013349    11.00000   -1.50000
AFIX   0
C32   1   -0.428819    0.530441    0.041619    11.00000    0.01714    0.02025 =
         0.02809    0.00362   -0.00317    0.00224
C33   1   -0.400459    0.572448    0.119436    11.00000    0.01796    0.03100 =
         0.02342    0.00206    0.00218    0.00377
AFIX  43
H31   2   -0.453126    0.567695    0.163422    11.00000   -1.20000
AFIX   0
C34   1   -0.296440    0.621240    0.133961    11.00000    0.01950    0.02711 =
         0.01845   -0.00291   -0.00079    0.00536
AFIX  43
H32   2   -0.278708    0.650265    0.186981    11.00000   -1.20000
AFIX   0
C35   1   -0.218620    0.626981    0.069742    11.00000    0.01445    0.01691 =
         0.01894   -0.00176   -0.00386    0.00323
C36   1    0.040556    0.599169    0.217555    11.00000    0.01276    0.01339 =
         0.01239   -0.00027    0.00042    0.00123
AFIX  13
H48   2   -0.040829    0.605415    0.239599    11.00000   -1.20000
AFIX   0
C37   1    0.073940    0.507100    0.214503    11.00000    0.01173    0.01242 =
         0.01421   -0.00129    0.00233   -0.00122
C38   1    0.181357    0.477762    0.281299    11.00000    0.01284    0.01318 =
         0.01363    0.00000    0.00140   -0.00006
AFIX  13
H40   2    0.209732    0.424761    0.259281    11.00000   -1.20000
AFIX   0
C39   1    0.150026    0.462192    0.372586    11.00000    0.01442    0.01603 =
         0.01341   -0.00130   -0.00035   -0.00409
C40   1    0.069758    0.510547    0.414312    11.00000    0.01737    0.02109 =
         0.01601   -0.00268    0.00074   -0.00249
AFIX  43
H36   2    0.032396    0.556968    0.385764    11.00000   -1.20000
AFIX   0
C41   1    0.044791    0.490402    0.497871    11.00000    0.01718    0.03188 =
         0.01846   -0.00528    0.00441   -0.00727
AFIX  43
H39   2   -0.010153    0.523068    0.525695    11.00000   -1.20000
AFIX   0
C42   1    0.099447    0.423162    0.540620    11.00000    0.02394    0.03334 =
         0.01451    0.00014    0.00112   -0.01416
AFIX  43
H29   2    0.081867    0.409928    0.597423    11.00000   -1.20000
AFIX   0
C43   1    0.070427    0.563413    0.072810    11.00000    0.01265    0.01445 =
         0.01438   -0.00158   -0.00085   -0.00121
C44   1    0.096432    0.493254    0.121628    11.00000    0.01301    0.01438 =
         0.01226   -0.00066    0.00071   -0.00076
C45   1    0.135484    0.650278    0.272243    11.00000    0.01478    0.01165 =
         0.01224   -0.00178    0.00184    0.00009
C46   1    0.247555    0.622261    0.299835    11.00000    0.01438    0.01376 =
         0.01146   -0.00140    0.00149   -0.00175
C47   1    0.433500    0.693896    0.334178    11.00000    0.01626    0.01428 =
         0.02041    0.00163   -0.00055   -0.00211
C48   1    0.497029    0.752527    0.398784    11.00000    0.02425    0.01896 =
         0.02447   -0.00175   -0.00554   -0.00639
AFIX 137
H35   2    0.537892    0.722461    0.448750    11.00000   -1.50000
H33   2    0.436500    0.789889    0.418334    11.00000   -1.50000
H34   2    0.558221    0.783554    0.371498    11.00000   -1.50000
AFIX   0
C49   1    0.289564    0.537999    0.281167    11.00000    0.01212    0.01242 =
         0.01725   -0.00062    0.00174    0.00097
AFIX  23
H42   2    0.357487    0.521724    0.325863    11.00000   -1.20000
H41   2    0.320461    0.536906    0.223834    11.00000   -1.20000
AFIX   0
C50   1    0.179971    0.375175    0.500232    11.00000    0.02721    0.02345 =
         0.01795    0.00457   -0.00266   -0.00883
AFIX  43
H37   2    0.218094    0.329311    0.529422    11.00000   -1.20000
AFIX   0
C51   1    0.204373    0.394766    0.416747    11.00000    0.01941    0.01762 =
         0.01626    0.00121   -0.00154   -0.00319
AFIX  43
H38   2    0.259070    0.361645    0.389216    11.00000   -1.20000
AFIX   0
C52   1    0.093616    0.730777    0.302664    11.00000    0.01603    0.01513 =
         0.01323   -0.00261   -0.00163    0.00220
C53   1    0.141197    0.871758    0.315793    11.00000    0.02699    0.01436 =
         0.02970   -0.00709    0.00432    0.00151
AFIX  23
H47   2    0.219062    0.901671    0.331522    11.00000   -1.20000
H46   2    0.099507    0.866452    0.368609    11.00000   -1.20000
AFIX   0
C54   1    0.060117    0.918183    0.246893    11.00000    0.04293    0.02269 =
         0.03768    0.00377    0.00650    0.01067
AFIX 137
H45   2    0.102139    0.923851    0.194999    11.00000   -1.50000
H44   2    0.042750    0.972200    0.269064    11.00000   -1.50000
H43   2   -0.017137    0.888617    0.231917    11.00000   -1.50000
AFIX   0
C55   1    0.136026    0.422703    0.084032    11.00000    0.01969    0.01529 =
         0.01789   -0.00163    0.00255    0.00023
AFIX  43
H52   2    0.153042    0.374790    0.117553    11.00000   -1.20000
AFIX   0
C56   1    0.150068    0.424197   -0.004170    11.00000    0.02267    0.01975 =
         0.01835   -0.00554    0.00378   -0.00063
AFIX  43
H51   2    0.174768    0.376430   -0.031750    11.00000   -1.20000
AFIX   0
C57   1    0.127954    0.495548   -0.051857    11.00000    0.02277    0.02500 =
         0.01374   -0.00274    0.00241   -0.00233
AFIX  43
H50   2    0.139977    0.495953   -0.111481    11.00000   -1.20000
AFIX   0
C58   1    0.088683    0.566322   -0.014453    11.00000    0.01905    0.02044 =
         0.01363    0.00069    0.00009   -0.00013
AFIX  43
H49   2    0.074822    0.614905   -0.047311    11.00000   -1.20000
AFIX   0
C59   1   -0.244342    0.584694   -0.008722    11.00000    0.01896    0.02534 =
         0.01904   -0.00419    0.00122    0.00043
AFIX  43
H53   2   -0.190791    0.588668   -0.052231    11.00000   -1.20000
AFIX   0
C60   1   -0.349273    0.536845   -0.022052    11.00000    0.02197    0.02549 =
         0.02163   -0.00496   -0.00283   -0.00281
AFIX  43
H54   2   -0.367344    0.508026   -0.075175    11.00000   -1.20000
AFIX   0
HKLF 4 1 1 0 0 0 1 0 0 0 1

REM  mo_wlx_ydf2_0m in P2(1)
REM R1 =  0.0295 for   15108 Fo > 4sig(Fo)  and  0.0320 for all   15831 data
REM    745 parameters refined using      1 restraints

END

WGHT      0.0502      0.3573

REM Instructions for potential hydrogen bonds
HTAB C17 O9_$1
HTAB C23 O6_$2
HTAB C28 O8
HTAB C48 O2_$3
HTAB C48 O4_$3
HTAB C49 O8
HTAB C58 O16

REM Highest difference peak  0.351,  deepest hole -0.268,  1-sigma level  0.052
Q1    1   0.1191  0.6899  0.2884  11.00000  0.05    0.35
Q2    1   0.0881  0.1521  0.5293  11.00000  0.05    0.31
Q3    1   0.1038  0.4614  0.0991  11.00000  0.05    0.30
Q4    1   0.0620  0.4946  0.4560  11.00000  0.05    0.29
Q5    1   0.0654  0.5216  0.0921  11.00000  0.05    0.28
;
_shelx_res_checksum              24581
_shelx_hkl_file
;
   1   0   0   51.18    1.18
   1   0   0   50.58    1.18
  -1   0   0   48.49    1.19
  -1   0   0   44.46    1.18
   2   0   0  206.91    5.02
  -2   0   0  208.10    5.03
   3   0   0   44.40    1.10
  -3   0   0   44.78    1.09
  -4   0   0    5.55    0.17
   4   0   0    5.41    0.18
  -5   0   0  358.99    8.50
   5   0   0  349.32    8.53
  -6   0   0    1.27    0.09
   6   0   0    1.15    0.10
   6   0   0    1.72    0.16
  -7   0   0    4.84    0.18
   7   0   0    4.82    0.25
   7   0   0    4.97    0.20
   8   0   0   16.59    0.50
  -8   0   0   17.08    0.47
   9   0   0    6.41    0.34
   9   0   0    6.02    0.26
  -9   0   0    6.14    0.23
  10   0   0    5.77    0.33
  11   0   0    0.30    0.16
  12   0   0    1.73    0.23
  13   0   0    2.21    0.26
  14   0   0   -0.25    0.19
   0  -1   0   -0.51    0.00
  -1  -1   0   82.72    1.99
  -1  -1   0   82.33    2.01
   1  -1   0   82.13    2.00
   1   1   0   84.79    2.01
   2  -1   0  125.10    2.99
  -2  -1   0  122.51    2.98
   2  -1   0  123.01    2.99
  -2   1   0  124.48    3.00
   2   1   0  126.17    2.99
   3  -1   0  154.73    3.77
  -3  -1   0  156.11    3.76
   3   1   0  157.14    3.75
  -3   1   0  156.55    3.77
   4  -1   0    1.51    0.09
  -4  -1   0    1.62    0.08
   4   1   0    2.07    0.09
  -4   1   0    1.89    0.07
   5  -1   0  109.41    2.66
  -5  -1   0  110.26    2.64
  -5   1   0  107.45    2.62
   5   1   0  107.55    2.64
   6  -1   0   26.29    0.70
  -6  -1   0   26.73    0.68
   6  -1   0   26.38    0.74
  -6   1   0   26.26    0.67
   6   1   0   24.77    0.73
   6   1   0   25.70    0.68
   7  -1   0   30.61    0.84
  -7  -1   0   30.38    0.81
   7  -1   0   32.07    0.89
   7   1   0   31.37    0.89
  -7   1   0   31.77    0.80
   7   1   0   31.25    0.82
   8  -1   0   39.30    1.05
  -8  -1   0   39.43    1.02
   8   1   0   39.45    1.03
  -8   1   0   39.83    1.00
   9  -1   0   11.59    0.40
  -9  -1   0   11.50    0.37
   9  -1   0   11.88    0.48
   9   1   0   12.70    0.49
   9   1   0   11.73    0.38
  10  -1   0   11.79    0.42
  10  -1   0   11.91    0.50
  10   1   0   13.14    0.52
  11  -1   0    3.43    0.29
  11   1   0    3.40    0.30
  12  -1   0    3.33    0.31
  12   1   0    2.95    0.30
  13  -1   0    0.23    0.17
  13   1   0    0.02    0.19
  14  -1   0    0.43    0.23
  14   1   0    0.65    0.23
   0  -2   0  350.58    8.45
   1  -2   0   58.43    1.64
   1  -2   0   71.10    1.63
  -1   2   0   69.33    1.63
   1   2   0   70.45    1.63
  -2  -2   0   38.88    0.98
   2  -2   0   39.81    0.95
   2  -2   0   38.53    0.99
  -2   2   0   39.56    0.95
   2   2   0   40.98    0.96
   3  -2   0  207.85    4.99
  -3  -2   0  209.47    5.00
   3  -2   0  201.36    4.99
   3   2   0  210.78    5.01
   5  -2   0   80.72    1.94
   5  -2   0   65.24    1.94
  -5  -2   0   82.14    1.92
   5   2   0   80.22    1.90
  -5   2   0   81.40    1.89
   6  -2   0  228.89    5.51
  -6  -2   0  228.68    5.46
   6  -2   0  231.10    5.49
   6   2   0  215.18    5.51
   6   2   0  227.69    5.45
  -6   2   0  226.42    5.42
   7  -2   0   17.49    0.52
   7  -2   0   17.08    0.55
  -7  -2   0   17.23    0.49
   7   2   0   17.47    0.48
   7   2   0   16.77    0.55
  -7   2   0   17.70    0.46
   8  -2   0    0.13    0.08
   8  -2   0   -0.09    0.04
  -8  -2   0    0.11    0.06
   8   2   0    0.04    0.04
  -8   2   0    0.16    0.05
   8   2   0    0.08    0.06
   9  -2   0   17.31    0.59
   9  -2   0   16.43    0.53
  -9  -2   0   16.82    0.50
   9   2   0   17.28    0.61
   9   2   0   16.61    0.53
 -10  -2   0   11.47    0.38
  10  -2   0   11.23    0.41
  10  -2   0   11.27    0.49
  10   2   0   11.34    0.48
  11  -2   0   22.24    0.76
  11   2   0   22.48    0.78
  12  -2   0   11.76    0.53
  12   2   0   12.22    0.56
  13  -2   0    0.68    0.19
  13   2   0    0.34    0.21
  14  -2   0    3.41    0.35
  14   2   0    3.03    0.34
   0  -3   0   -0.02    0.01
   0  -3   0    0.07    0.02
   1  -3   0  246.46    6.10
   1   3   0  257.83    6.13
   2  -3   0  390.45    9.45
  -2  -3   0  396.82    9.59
   2  -3   0  384.04    9.50
   2   3   0  401.91    9.51
  -3  -3   0  121.95    3.00
   3  -3   0  122.29    3.02
   3  -3   0  125.12    2.98
   3   3   0  126.39    2.98
   4  -3   0  389.36    9.64
  -4  -3   0  406.53    9.81
   4  -3   0  410.67    9.65
   4   3   0  400.11    9.72
   5  -3   0   29.59    0.68
   5  -3   0   24.87    0.75
   5  -3   0   28.60    0.75
  -5  -3   0   27.84    0.73
   5   3   0   27.21    0.70
   6  -3   0   87.31    2.20
  -6  -3   0   88.37    2.16
   6  -3   0   90.25    2.10
   6  -3   0   86.83    2.18
   6   3   0   81.17    2.19
   6   3   0   88.11    2.12
  -7  -3   0   64.98    1.57
   7  -3   0   64.63    1.60
   7  -3   0   57.38    1.61
   7  -3   0   66.73    1.52
   7   3   0   53.60    1.61
   7   3   0   64.70    1.54
  -8  -3   0    0.83    0.10
   8  -3   0    1.05    0.12
   8   3   0    1.18    0.10
  -9  -3   0   37.61    1.03
   9  -3   0   39.02    1.11
   9  -3   0   38.27    1.06
   9   3   0   39.39    1.12
  10  -3   0   10.12    0.40
  10  -3   0   10.49    0.46
 -10  -3   0   10.69    0.37
  10   3   0   10.49    0.46
  11  -3   0    1.65    0.21
  11  -3   0    1.91    0.21
  11   3   0    1.29    0.21
  12  -3   0    0.10    0.18
  12   3   0    0.51    0.20
  13  -3   0   -0.31    0.16
  13   3   0   -0.03    0.18
  14  -3   0    2.13    0.28
  14   3   0    1.90    0.30
   0  -4   0   18.65    0.48
   0   4   0   18.59    0.49
   1  -4   0  587.53   13.62
  -1  -4   0  504.27   13.63
   1   4   0  600.19   13.63
  -2  -4   0  142.77    3.48
   2  -4   0  142.38    3.50
   2  -4   0  145.63    3.49
   2   4   0  145.57    3.47
   3  -4   0   74.30    1.88
  -3  -4   0   75.55    1.87
   3  -4   0   76.88    1.83
   3   4   0   76.68    1.84
   4  -4   0   69.83    1.64
   4  -4   0   66.97    1.72
  -4  -4   0   67.38    1.70
   4   4   0   68.70    1.66
  -5  -4   0  131.06    3.15
   5  -4   0  117.91    3.16
   5  -4   0  134.05    3.08
   5  -4   0  131.29    3.17
   5   4   0  129.01    3.11
  -6  -4   0    9.94    0.32
   6  -4   0    9.75    0.35
   6  -4   0    9.11    0.34
   6  -4   0    9.94    0.25
   6   4   0    8.68    0.35
   6   4   0    9.29    0.27
  -7  -4   0    2.13    0.15
   7  -4   0    2.52    0.10
   7  -4   0    2.36    0.16
   7   4   0    1.91    0.11
   8  -4   0    6.02    0.28
  -8  -4   0    6.15    0.25
   8   4   0    5.71    0.21
  -9  -4   0   15.78    0.50
   9  -4   0   15.88    0.54
   9  -4   0   16.43    0.58
   9   4   0   16.58    0.60
  10  -4   0   10.74    0.43
 -10  -4   0   11.31    0.39
  10  -4   0   11.72    0.48
  10   4   0   11.35    0.50
 -11  -4   0   15.77    0.54
  11  -4   0   16.33    0.62
  11  -4   0   15.93    0.56
  11   4   0   15.86    0.62
  12  -4   0    4.39    0.34
  12   4   0    4.37    0.35
  13  -4   0    0.28    0.20
  13   4   0    0.26    0.18
  14  -4   0    0.68    0.23
  14   4   0    0.77    0.25
   0  -5   0   -0.01    0.03
  -1  -5   0  140.88    3.32
   1  -5   0  143.71    3.31
   1  -5   0  119.48    3.33
   1   5   0  144.81    3.32
  -2  -5   0   47.68    1.20
   3  -5   0   29.49    0.71
  -3  -5   0   28.53    0.75
   3  -5   0   27.87    0.77
   3   5   0   27.96    0.72
  -4  -5   0   64.67    1.62
   4  -5   0   65.97    1.56
   4  -5   0   63.66    1.64
   4   5   0   63.44    1.58
   5  -5   0   78.23    2.03
  -5  -5   0   81.66    2.02
   5  -5   0   79.26    2.04
   5  -5   0   83.43    1.94
   5   5   0   81.49    1.97
   6  -5   0   18.14    0.54
  -6  -5   0   17.82    0.51
   6  -5   0   18.08    0.54
   6   5   0   14.32    0.52
   6   5   0   16.91    0.45
   7  -5   0   29.69    0.84
  -7  -5   0   30.33    0.81
   7   5   0   27.74    0.75
  -8  -5   0   12.30    0.41
   8  -5   0   12.01    0.43
   8  -5   0   10.90    0.44
  -9  -5   0   -0.06    0.09
   9  -5   0   -0.04    0.10
   9  -5   0   -0.06    0.13
   9   5   0    0.27    0.16
  10  -5   0   20.80    0.68
  10  -5   0   22.04    0.73
 -10  -5   0   20.66    0.64
  10   5   0   21.39    0.74
  11  -5   0    0.47    0.18
  11  -5   0    0.70    0.15
 -11  -5   0    0.74    0.14
  11   5   0    0.71    0.19
  12  -5   0    0.04    0.17
  12   5   0    0.00    0.18
  13  -5   0    1.97    0.28
  13   5   0    2.02    0.27
  14  -5   0    5.26    0.44
  14   5   0    6.35    0.47
   0  -6   0   23.39    0.62
   0   6   0   24.06    0.64
   1  -6   0   33.09    0.83
   1   6   0   32.61    0.85
  -2  -6   0   37.18    0.96
  -3  -6   0   53.29    1.34
   3  -6   0   53.56    1.37
   3  -6   0   53.64    1.30
   3   6   0   51.39    1.31
   4  -6   0    6.74    0.28
   4  -6   0    8.39    0.30
  -4  -6   0    8.32    0.28
   4  -6   0    8.76    0.23
   4   6   0    8.30    0.25
   5  -6   0   49.93    1.32
   5  -6   0   50.83    1.21
   5  -6   0   48.67    1.30
  -5  -6   0   50.36    1.29
   5   6   0   49.48    1.24
  -6  -6   0   25.49    0.71
   6  -6   0   24.17    0.73
   6  -6   0   25.04    0.74
   6   6   0   25.51    0.65
   7  -6   0    3.23    0.21
  -7  -6   0    3.35    0.20
   7   6   0    3.49    0.14
   8  -6   0   25.41    0.77
  -8  -6   0   24.17    0.72
   8  -6   0   23.88    0.75
   8   6   0   24.96    0.78
   9  -6   0    3.33    0.26
   9  -6   0    3.29    0.24
  -9  -6   0    2.89    0.21
   9   6   0    3.64    0.30
  10  -6   0   24.95    0.81
  10  -6   0   26.28    0.84
 -10  -6   0   25.17    0.76
  10   6   0   26.71    0.86
  11  -6   0   31.02    0.99
 -11  -6   0   30.18    0.89
  11  -6   0   30.96    0.95
  11   6   0   31.57    1.00
  12  -6   0   13.34    0.61
  12  -6   0   13.87    0.60
  12   6   0   14.12    0.62
  13  -6   0    6.11    0.44
  13   6   0    6.57    0.46
  14  -6   0   11.20    0.59
  14   6   0   11.20    0.60
   0  -7   0   -0.11    0.01
   0  -7   0   -0.10    0.02
   0   7   0   -0.11    0.05
   1  -7   0   32.41    0.79
  -1  -7   0   27.15    0.80
   1   7   0   32.75    0.81
  -2  -7   0    9.65    0.31
   2  -7   0    7.92    0.31
   2  -7   0   10.25    0.28
   2   7   0   10.35    0.30
   3  -7   0  127.03    2.82
   3  -7   0  119.22    2.90
  -3  -7   0   98.17    2.86
   3   7   0  122.04    2.85
   4  -7   0    0.97    0.11
   4  -7   0    1.07    0.07
   4  -7   0    0.80    0.11
  -4  -7   0    1.07    0.10
   4   7   0    1.36    0.09
   5  -7   0   53.05    1.29
   5  -7   0   52.69    1.39
  -5  -7   0   52.73    1.38
   5  -7   0   54.32    1.41
   5   7   0   53.08    1.32
  -6  -7   0   13.15    0.43
   6  -7   0   12.98    0.45
   6   7   0   12.42    0.36
  -7  -7   0    7.50    0.31
   7  -7   0    7.78    0.34
   8  -7   0    1.74    0.19
  -8  -7   0    1.72    0.16
   8  -7   0    1.47    0.18
   8   7   0    2.38    0.23
   9  -7   0    7.90    0.37
   9  -7   0    6.98    0.35
  -9  -7   0    6.74    0.31
   9   7   0    7.57    0.39
  10  -7   0   13.49    0.53
  10  -7   0   13.36    0.54
 -10  -7   0   13.35    0.48
  10   7   0   13.93    0.56
  11  -7   0    3.84    0.34
  11  -7   0    4.30    0.31
 -11  -7   0    3.88    0.26
  11   7   0    3.82    0.36
  12  -7   0    3.33    0.30
  12  -7   0    3.40    0.32
 -12  -7   0    3.02    0.29
  12   7   0    3.67    0.34
  13  -7   0    1.23    0.25
  13   7   0    1.47    0.25
  14  -7   0    7.38    0.49
  14   7   0    7.67    0.52
   0  -8   0   22.50    0.60
   0   8   0   21.22    0.62
  -1  -8   0   51.89    1.33
   1   8   0   51.58    1.34
  -1   8   0   53.80    1.36
  -2  -8   0   37.09    0.96
   2  -8   0   38.07    0.98
   2  -8   0   31.40    0.91
   2   8   0   38.38    0.95
   3  -8   0    4.18    0.15
  -3  -8   0    2.76    0.17
   3  -8   0    2.97    0.16
   3   8   0    4.12    0.16
   4  -8   0    5.57    0.25
  -4  -8   0    5.28    0.23
   4  -8   0    5.73    0.18
   4  -8   0    4.83    0.23
   4   8   0    5.65    0.20
  -5  -8   0   75.28    1.85
   5  -8   0   75.86    1.76
   5  -8   0   62.44    1.84
   5  -8   0   74.90    1.89
   5   8   0   73.17    1.79
   6  -8   0   24.21    0.75
  -6  -8   0   24.57    0.72
   6   8   0   25.47    0.66
   7  -8   0    3.27    0.24
   7  -8   0    3.17    0.24
  -7  -8   0    3.27    0.21
   7   8   0    2.08    0.21
  -8  -8   0   64.54    1.71
   8  -8   0   67.28    1.75
   8  -8   0   65.38    1.76
   8   8   0   63.57    1.75
   9  -8   0    1.81    0.21
   9  -8   0    2.09    0.22
  -9  -8   0    1.97    0.19
   9   8   0    2.39    0.25
 -10  -8   0    1.27    0.17
  10  -8   0    1.23    0.19
  10  -8   0    1.25    0.19
  10   8   0    1.46    0.21
  11  -8   0   14.20    0.58
 -11  -8   0   14.95    0.53
  11  -8   0   14.76    0.61
  11   8   0   15.15    0.63
  12  -8   0    1.04    0.20
 -12  -8   0    1.17    0.18
  12  -8   0    1.16    0.23
  12   8   0    1.07    0.24
  13  -8   0   10.62    0.55
  13   8   0   10.26    0.54
   0  -9   0    0.07    0.05
   0  -9   0   -0.01    0.01
   0   9   0    0.00    0.06
  -1  -9   0   20.80    0.59
   1  -9   0   21.15    0.58
  -1   9   0   21.28    0.62
   1   9   0   20.73    0.60
   2  -9   0    6.81    0.22
   2  -9   0    5.41    0.23
  -3  -9   0   19.15    0.53
   3  -9   0   15.64    0.47
   3  -9   0   17.30    0.54
   4  -9   0   33.72    0.92
   4  -9   0   28.18    0.87
   4  -9   0   33.15    0.81
  -4  -9   0   31.91    0.88
   4   9   0   32.16    0.84
  -5  -9   0   11.17    0.39
   5  -9   0   11.18    0.31
   5  -9   0   11.47    0.43
   5   9   0   10.35    0.34
   6  -9   0   37.56    1.08
  -6  -9   0   37.68    1.04
   6   9   0   37.84    0.97
  -7  -9   0    4.12    0.24
   7  -9   0    4.98    0.30
   7  -9   0    4.91    0.30
   7   9   0    5.20    0.31
  -8  -9   0   14.80    0.52
   8  -9   0   14.45    0.56
   8  -9   0   15.94    0.57
   8   9   0   15.48    0.57
   9  -9   0   31.86    0.99
   9  -9   0   33.35    0.99
  -9  -9   0   31.33    0.94
   9   9   0   31.51    0.99
 -10  -9   0    1.13    0.16
  10  -9   0    0.63    0.16
  10  -9   0    1.02    0.19
  10   9   0    1.06    0.21
  11  -9   0    1.31    0.21
 -11  -9   0    1.80    0.20
  11  -9   0    1.37    0.21
  11   9   0    1.74    0.24
 -12  -9   0    2.42    0.24
  12  -9   0    2.33    0.28
  12   9   0    2.02    0.28
  13  -9   0    5.33    0.40
  13   9   0    4.90    0.41
   0 -10   0   15.41    0.46
   0  10   0   14.79    0.48
  -1 -10   0   35.91    0.97
   1 -10   0   35.28    0.95
   1  10   0   36.47    0.98
  -1  10   0   37.42    1.00
  -2 -10   0   10.75    0.37
   2 -10   0   11.55    0.35
   2  10   0   11.28    0.37
  -2  10   0   11.12    0.41
   3 -10   0   36.51    1.00
  -3 -10   0   41.62    1.06
   3  10   0   39.86    1.04
  -5 -10   0    2.68    0.19
   5 -10   0    2.75    0.22
   5  10   0    2.38    0.15
  -6 -10   0   34.15    0.97
   6 -10   0   34.42    1.01
   6 -10   0   34.77    0.99
   6  10   0   32.58    0.98
   7 -10   0    3.48    0.27
   7 -10   0    3.80    0.26
  -7 -10   0    3.72    0.25
   7  10   0    3.45    0.28
   8 -10   0   31.75    0.99
  -8 -10   0   32.14    0.95
   8 -10   0   32.62    0.97
   8  10   0   32.33    0.99
   9 -10   0    7.19    0.39
  -9 -10   0    7.41    0.36
   9 -10   0    7.67    0.40
   9  10   0    7.92    0.42
  10 -10   0    4.80    0.33
 -10 -10   0    4.64    0.30
  10 -10   0    4.24    0.33
  10  10   0    4.06    0.35
 -11 -10   0    6.73    0.36
  11 -10   0    6.60    0.42
  11  10   0    6.53    0.42
  12 -10   0    8.36    0.46
 -12 -10   0    8.11    0.41
  12  10   0    8.48    0.49
  13 -10   0    0.98    0.24
  13  10   0    1.00    0.27
   0 -11   0    0.00    0.07
   0 -11   0    0.01    0.02
   0  11   0   -0.12    0.07
   1 -11   0    0.05    0.03
   1 -11   0    0.11    0.07
  -1 -11   0    0.14    0.08
   1  11   0    0.10    0.08
  -1  11   0    0.19    0.10
  -2 -11   0    1.53    0.14
   2 -11   0    1.38    0.12
  -2  11   0    1.37    0.16
   2  11   0    1.10    0.12
   3 -11   0   14.74    0.43
  -3 -11   0   14.00    0.47
  -3  11   0   14.18    0.51
   3  11   0   13.83    0.45
   4 -11   0   22.11    0.61
   4  11   0   22.68    0.64
  -5 -11   0    5.10    0.27
   5 -11   0    4.94    0.28
   5 -11   0    5.67    0.31
   5  11   0    4.27    0.26
   5  11   0    5.49    0.23
  -6 -11   0    6.27    0.31
   6 -11   0    6.91    0.36
   6 -11   0    6.38    0.32
   6  11   0    7.59    0.36
  -7 -11   0   32.13    0.97
   7 -11   0   35.29    1.01
   7 -11   0   34.07    1.03
   7  11   0   32.44    1.00
   8 -11   0   13.21    0.53
   8 -11   0   13.44    0.55
  -8 -11   0   13.42    0.51
   8  11   0   14.33    0.56
   9 -11   0    3.85    0.32
  -9 -11   0    3.28    0.27
   9 -11   0    3.89    0.32
   9  11   0    3.98    0.31
  10 -11   0   12.84    0.56
 -10 -11   0   12.82    0.51
  10  11   0   13.00    0.56
 -11 -11   0    0.39    0.15
  11 -11   0    0.54    0.18
  11  11   0    0.80    0.22
  12 -11   0    1.78    0.25
 -12 -11   0    2.27    0.25
  12  11   0    2.06    0.30
 -12  11   0    2.38    0.29
  13 -11   0    3.66    0.43
 -13 -11   0    3.40    0.31
 -13  11   0    3.81    0.38
  13  11   0    3.88    0.56
   0 -12   0    4.30    0.22
   0  12   0    4.79    0.25
  -1 -12   0    8.76    0.33
   1 -12   0    8.42    0.31
  -1  12   0    8.37    0.36
   1  12   0    7.94    0.33
  -2 -12   0   63.35    1.67
   2 -12   0   64.49    1.64
   2  12   0   64.05    1.67
  -2  12   0   66.46    1.72
  -3 -12   0   70.86    1.83
   3 -12   0   71.76    1.78
  -3  12   0   70.20    1.87
   3  12   0   69.63    1.81
  -4 -12   0    7.83    0.34
   4 -12   0    8.31    0.28
   4 -12   0    7.00    0.34
   4  12   0    8.41    0.32
  -4  12   0    8.39    0.39
   5 -12   0   73.73    1.89
  -5 -12   0   72.01    1.88
   5  12   0   72.43    1.91
   5  12   0   68.98    1.82
   6 -12   0    3.14    0.26
  -6 -12   0    3.77    0.26
   6  12   0    3.15    0.27
   7 -12   0   16.65    0.60
  -7 -12   0   15.33    0.56
   7  12   0   16.02    0.59
  -8 -12   0    6.80    0.36
   8 -12   0    6.88    0.39
   8  12   0    7.64    0.41
   9 -12   0    2.98    0.28
  -9 -12   0    3.33    0.25
   9  12   0    3.27    0.30
  10 -12   0    7.51    0.43
 -10 -12   0    7.38    0.38
  10  12   0    6.76    0.41
 -10  12   0    6.57    0.42
 -11 -12   0    3.37    0.31
  11 -12   0    3.12    0.32
  11  12   0    3.14    0.33
 -11  12   0    3.60    0.34
  12 -12   0    8.84    0.50
 -12 -12   0   10.16    0.47
  12  12   0    9.96    0.57
 -12  12   0    9.04    0.51
 -13 -12   0    2.22    0.25
 -13  12   0    2.33    0.30
   0 -13   0   -0.03    0.03
   0 -13   0    0.04    0.08
   0  13   0   -0.11    0.09
   1 -13   0    7.38    0.29
  -1 -13   0    7.23    0.31
  -1  13   0    7.02    0.33
   1  13   0    7.44    0.33
   2 -13   0   92.17    2.29
  -2 -13   0   91.79    2.33
  -2  13   0   90.66    2.37
   2  13   0   90.75    2.32
  -3 -13   0   32.18    0.94
   3 -13   0   32.11    0.87
  -3 -13   0   32.40    0.93
   3 -13   0   32.46    0.94
   3  13   0   32.13    0.91
  -3  13   0   32.82    0.97
   4 -13   0   48.39    1.28
   4 -13   0   47.51    1.31
  -4 -13   0   48.61    1.31
  -4  13   0   47.28    1.35
   4  13   0   46.48    1.27
  -5 -13   0    3.27    0.23
   5 -13   0    3.61    0.27
  -5  13   0    3.72    0.29
   5  13   0    3.75    0.26
  -6 -13   0    7.51    0.37
   6 -13   0    7.33    0.38
  -6  13   0    7.85    0.41
   6  13   0    7.87    0.40
   7 -13   0    3.92    0.30
  -7 -13   0    3.48    0.27
  -7  13   0    4.11    0.32
   7  13   0    3.47    0.30
  -8 -13   0    3.30    0.27
   8 -13   0    2.85    0.26
   8  13   0    3.48    0.32
  -8  13   0    3.42    0.32
  -9 -13   0    4.62    0.32
   9 -13   0    5.37    0.37
   9  13   0    6.09    0.38
  -9  13   0    5.40    0.38
  10 -13   0    8.25    0.46
 -10 -13   0    7.50    0.40
 -10  13   0    7.63    0.46
  10  13   0    7.99    0.47
 -11 -13   0    2.29    0.25
  11 -13   0    2.40    0.29
 -11  13   0    2.39    0.30
  11  13   0    2.14    0.28
 -12 -13   0    0.33    0.16
  12 -13   0    0.06    0.17
 -12  13   0    0.33    0.20
  12  13   0    0.11    0.19
 -13 -13   0    4.00    0.34
 -13  13   0    3.09    0.44
   0 -14   0   81.51    2.08
   0 -14   0   78.38    2.04
   0  14   0   79.89    2.09
  -1 -14   0   46.89    1.27
  -1 -14   0   44.77    1.24
   1 -14   0   44.88    1.22
   1 -14   0   46.53    1.26
   1  14   0   47.05    1.27
  -1  14   0   44.06    1.28
   2 -14   0   31.11    0.86
   2 -14   0   32.22    0.92
  -2 -14   0   30.03    0.90
  -2 -14   0   30.70    0.89
  -2  14   0   31.15    0.94
   2  14   0   29.29    0.89
   3 -14   0    4.08    0.26
  -3 -14   0    4.16    0.28
   3 -14   0    4.16    0.22
  -3 -14   0    4.75    0.27
  -3  14   0    3.71    0.29
   3  14   0    3.81    0.25
  -4 -14   0   38.66    1.12
   4 -14   0   39.23    1.12
  -4 -14   0   38.62    1.10
   4  14   0   38.93    1.07
  -4  14   0   38.56    1.16
  -5 -14   0    1.00    0.17
   5 -14   0    1.07    0.18
   5  14   0    1.21    0.19
  -5  14   0    0.82    0.17
  -6 -14   0    8.18    0.40
   6 -14   0    8.56    0.42
  -6  14   0    8.62    0.45
   6  14   0    8.11    0.42
   7 -14   0    2.90    0.27
  -7 -14   0    3.15    0.27
   7  14   0    2.66    0.26
  -7  14   0    3.37    0.32
   8 -14   0    0.63    0.18
  -8 -14   0    0.90    0.18
   8  14   0    0.95    0.20
  -8  14   0    0.94    0.21
  -9 -14   0    1.53    0.22
   9 -14   0    1.49    0.23
  -9  14   0    1.20    0.23
   9  14   0    1.59    0.23
  10 -14   0    4.89    0.38
 -10 -14   0    4.85    0.34
  10  14   0    4.62    0.40
 -10  14   0    4.59    0.39
  11 -14   0    2.16    0.29
 -11 -14   0    2.74    0.29
  11  14   0    2.68    0.32
 -11  14   0    2.74    0.33
 -12 -14   0    1.47    0.23
 -12  14   0    1.19    0.26
   0 -15   0    0.03    0.10
   0 -15   0    0.43    0.13
   0  15   0    0.32    0.14
  -1 -15   0   13.38    0.48
   1 -15   0   14.06    0.51
   1 -15   0   13.01    0.46
  -1 -15   0   13.88    0.51
  -1  15   0   12.98    0.52
   1  15   0   13.62    0.51
  -2 -15   0   26.36    0.82
   2 -15   0   26.79    0.82
  -2 -15   0   26.83    0.81
   2 -15   0   26.56    0.76
   2  15   0   26.37    0.81
  -2  15   0   25.69    0.84
  -3 -15   0    3.20    0.24
   3 -15   0    3.20    0.20
   3 -15   0    3.59    0.25
  -3 -15   0    3.13    0.23
  -3  15   0    3.02    0.29
   3  15   0    3.19    0.24
  -4 -15   0   25.12    0.80
   4 -15   0   25.51    0.80
  -4 -15   0   24.62    0.79
  -4  15   0   24.41    0.83
   4  15   0   24.96    0.76
  -5 -15   0    7.79    0.37
   5 -15   0    7.61    0.38
   5  15   0    8.20    0.41
  -5  15   0    7.59    0.43
  -6 -15   0    8.39    0.40
   6 -15   0    8.21    0.42
   6  15   0    8.63    0.44
  -6  15   0    8.76    0.45
   7 -15   0    0.89    0.19
  -7 -15   0    0.78    0.17
   7  15   0    0.98    0.20
  -7  15   0    1.00    0.21
   8 -15   0   10.83    0.50
  -8 -15   0   10.52    0.48
   8  15   0    9.85    0.51
  -8  15   0    9.54    0.52
   9 -15   0   12.13    0.55
  -9 -15   0   10.84    0.51
  -9  15   0   11.65    0.58
   9  15   0   11.42    0.55
  10 -15   0    7.05    0.45
 -10 -15   0    7.53    0.42
 -10  15   0    7.35    0.48
  10  15   0    7.22    0.47
 -11 -15   0    4.36    0.36
  11 -15   0    4.13    0.38
  11  15   0    3.54    0.41
 -11  15   0    3.90    0.39
   0 -16   0   72.25    1.91
   0 -16   0   71.17    1.88
   0  16   0   71.82    1.93
   1 -16   0   12.48    0.50
  -1 -16   0   13.17    0.50
  -1 -16   0   12.20    0.47
   1 -16   0   12.89    0.46
  -1  16   0   12.54    0.52
   1  16   0   12.67    0.51
   2 -16   0   18.70    0.60
   2 -16   0   19.21    0.66
  -2 -16   0   18.56    0.63
  -2 -16   0   19.07    0.66
   2  16   0   18.82    0.64
  -2  16   0   18.86    0.69
   3 -16   0    8.13    0.40
  -3 -16   0    8.21    0.40
  -3 -16   0    8.38    0.39
   3  16   0    8.22    0.38
  -3  16   0    8.54    0.42
  -4 -16   0   17.19    0.62
   4 -16   0   17.40    0.62
  -4 -16   0   17.85    0.64
  -4  16   0   17.22    0.67
  -5 -16   0   12.88    0.53
   5 -16   0   13.73    0.54
  -5  16   0   12.79    0.57
   5  16   0   13.19    0.56
   6 -16   0   24.36    0.82
  -6 -16   0   24.55    0.81
   6  16   0   24.20    0.84
  -6  16   0   23.90    0.86
   7 -16   0    0.54    0.16
  -7 -16   0    0.46    0.16
   7  16   0    0.92    0.21
  -7  16   0    0.89    0.22
  -8 -16   0    0.98    0.19
   8 -16   0    1.42    0.23
  -8  16   0    0.72    0.22
   8  16   0    1.07    0.21
   9 -16   0    4.37    0.38
  -9 -16   0    4.43    0.35
   9  16   0    5.33    0.41
  -9  16   0    4.14    0.37
 -10 -16   0    1.70    0.23
  10 -16   0    1.49    0.25
  10  16   0    1.97    0.28
 -10  16   0    1.69    0.27
   0 -17   0    0.19    0.12
   0 -17   0    0.12    0.12
   0  17   0    0.20    0.14
  -1 -17   0   15.62    0.56
   1 -17   0   15.09    0.57
  -1 -17   0   15.51    0.58
   1 -17   0   15.68    0.54
   1  17   0   15.86    0.59
  -1  17   0   15.31    0.61
   2 -17   0    1.17    0.19
  -2 -17   0    1.32    0.18
  -2 -17   0    0.97    0.18
   2 -17   0    1.15    0.15
   2  17   0    1.09    0.18
  -2  17   0    0.76    0.19
  -3 -17   0   14.58    0.56
  -3 -17   0   14.36    0.57
   3 -17   0   15.09    0.58
  -3  17   0   15.28    0.62
   3  17   0   14.77    0.55
   4 -17   0    3.24    0.30
  -4 -17   0    3.26    0.30
  -4 -17   0    3.00    0.27
  -4  17   0    2.69    0.29
   5 -17   0   16.72    0.65
  -5 -17   0   17.60    0.64
  -5  17   0   17.31    0.70
   5  17   0   17.08    0.66
  -6 -17   0    1.66    0.22
   6 -17   0    1.98    0.22
   6  17   0    1.86    0.24
  -6  17   0    1.94    0.26
  -7 -17   0    2.72    0.27
   7 -17   0    3.01    0.30
  -7  17   0    2.66    0.31
   7  17   0    2.56    0.28
  -8 -17   0   11.69    0.54
   8 -17   0   11.68    0.56
  -8  17   0   13.00    0.61
   8  17   0   12.16    0.57
   9 -17   0    2.21    0.28
  -9 -17   0    2.41    0.26
  -9  17   0    2.50    0.32
   9  17   0    2.53    0.29
 -10 -17   0    1.88    0.41
   0 -18   0    7.22    0.39
   0 -18   0    6.65    0.34
   0  18   0    6.70    0.41
  -1 -18   0    9.43    0.42
   1 -18   0    9.78    0.44
  -1 -18   0    8.91    0.44
   1 -18   0    9.14    0.39
  -1  18   0    8.31    0.45
   1  18   0    8.39    0.43
  -2 -18   0    7.00    0.39
   2 -18   0    7.15    0.39
  -2 -18   0    6.45    0.36
   2 -18   0    6.84    0.39
  -2  18   0    5.92    0.40
   2  18   0    6.63    0.37
  -3 -18   0   14.03    0.57
   3 -18   0   14.00    0.56
  -3 -18   0   14.11    0.56
  -3  18   0   14.40    0.61
  -4 -18   0    2.42    0.25
   4 -18   0    1.94    0.23
  -4  18   0    2.27    0.27
  -5 -18   0    0.45    0.17
   5 -18   0    0.06    0.15
  -5  18   0    0.41    0.20
   5  18   0    0.10    0.14
  -6 -18   0   12.68    0.55
   6 -18   0   12.83    0.57
  -6  18   0   12.63    0.61
   6  18   0   13.12    0.59
  -7 -18   0   10.26    0.50
   7 -18   0   10.96    0.53
  -7  18   0   10.21    0.56
   7  18   0   10.02    0.54
  -8 -18   0    4.13    0.35
   8 -18   0    4.49    0.38
  -8  18   0    4.19    0.42
   8  18   0    4.68    0.40
  -9 -18   0    0.30    0.21
  -9  18   0    0.24    0.26
   0 -19   0   -0.13    0.12
   0 -19   0    0.07    0.14
   0  19   0   -0.10    0.15
  -1 -19   0    2.05    0.23
  -1 -19   0    2.00    0.24
   1 -19   0    1.94    0.21
   1 -19   0    1.97    0.23
  -1  19   0    1.70    0.24
   1  19   0    1.80    0.24
  -2 -19   0    6.14    0.37
  -2 -19   0    6.18    0.37
   2 -19   0    6.66    0.38
  -2  19   0    6.38    0.43
   2  19   0    6.56    0.39
  -3 -19   0    6.83    0.41
   3 -19   0    6.93    0.39
  -3 -19   0    6.41    0.38
  -3  19   0    7.25    0.45
   4 -19   0   13.97    0.59
  -4 -19   0   13.52    0.57
  -4  19   0   14.18    0.64
   5 -19   0    1.40    0.22
  -5 -19   0    1.33    0.21
   5  19   0    1.59    0.25
  -5  19   0    1.50    0.26
  -6 -19   0    2.48    0.26
   6 -19   0    2.44    0.27
   6  19   0    2.66    0.30
  -6  19   0    2.57    0.32
   7 -19   0   17.03    0.69
  -7 -19   0   15.86    0.66
   7  19   0   15.89    0.70
  -7  19   0   15.88    0.73
   8 -19   0   15.07    0.93
  -8 -19   0   13.79    0.86
  -8  19   0   14.37    1.00
   8  19   0   14.79    0.94
   0 -20   0    6.29    0.37
   0 -20   0    5.82    0.37
   0  20   0    5.43    0.39
  -1 -20   0    5.44    0.35
  -1 -20   0    5.76    0.38
   1 -20   0    5.82    0.38
   1 -20   0    5.60    0.38
   1  20   0    4.99    0.37
  -1  20   0    5.58    0.40
   2 -20   0    4.06    0.34
  -2 -20   0    3.83    0.31
  -2 -20   0    3.94    0.34
  -2  20   0    3.75    0.37
  -3 -20   0    2.46    0.27
  -3 -20   0    2.04    0.25
   3 -20   0    1.94    0.24
  -3  20   0    1.96    0.28
  -4 -20   0    6.62    0.40
   4 -20   0    6.15    0.39
  -4  20   0    5.98    0.45
  -5 -20   0    3.05    0.30
   5 -20   0    4.21    0.37
  -5  20   0    4.33    0.40
   5  20   0    3.68    0.34
  -6 -20   0   -0.16    0.15
   6 -20   0    0.02    0.18
   6  20   0    0.22    0.18
  -6  20   0   -0.04    0.19
   0 -21   0   -0.14    0.13
   0 -21   0    0.14    0.16
   0  21   0    0.03    0.17
   1 -21   0    2.16    0.26
  -1 -21   0    1.85    0.24
  -1 -21   0    1.67    0.22
   1  21   0    2.15    0.28
  -1  21   0    2.11    0.29
  -2 -21   0    3.47    0.32
   2 -21   0    3.55    0.32
  -2 -21   0    3.65    0.32
  -2  21   0    2.75    0.32
  -3 -21   0   11.82    0.56
   3 -21   0   11.80    0.56
  -3 -21   0   11.12    0.52
  -3  21   0   10.60    0.58
  -4 -21   0    9.79    0.49
   4 -21   0    9.77    0.52
  -4  21   0   10.08    0.58
  -5 -21   0    1.12    0.23
   5 -21   0    1.02    0.22
   5  21   0    0.78    0.21
  -5  21   0    1.02    0.25
   0 -22   0    0.03    0.18
   0  22   0    0.38    0.20
  -1 -22   0   32.47    1.04
   1 -22   0   32.95    1.09
  -1 -22   0   32.13    1.08
  -1  22   0   32.87    1.11
  -2 -22   0    2.09    0.26
   2 -22   0    2.04    0.27
  -2 -22   0    1.74    0.27
  -2  22   0    2.33    0.31
  -3 -22   0    2.50    0.28
   3 -22   0    2.28    0.33
  -3 -22   0    2.33    0.32
  -3  22   0    2.72    0.34
  -4 -22   0    7.77    0.52
  -4  22   0    8.21    0.63
   0  23   0    0.09    0.20
  -1 -23   0    0.82    0.20
  -1  23   0    0.90    0.25
  -2 -23   0    0.19    0.17
  -2  23   0    0.30    0.23
  15   0  -1    3.29    0.55
  14   0  -1    0.90    0.24
  13   0  -1    4.52    0.36
  12   0  -1   -0.22    0.16
  11   0  -1    8.24    0.43
  10   0  -1   12.48    0.51
  10   0  -1   12.57    0.43
   9   0  -1   32.99    0.97
   9   0  -1   32.11    0.89
  -9   0   1   32.40    0.85
   8   0  -1   12.39    0.44
  -8   0   1   11.71    0.34
   8   0  -1   10.97    0.38
  -7   0   1    4.62    0.17
   7   0  -1    4.76    0.25
   7   0  -1    4.82    0.20
   6   0  -1  287.52    7.03
   6   0  -1  292.02    7.07
  -6   0   1  296.36    7.05
   5   0  -1   84.19    2.10
   5   0  -1   86.01    2.13
  -5   0   1   86.23    2.08
  -4   0   1  188.11    4.42
   4   0  -1  179.03    4.42
  -3   0   1   34.84    0.83
   3   0  -1   33.52    0.85
   3   0  -1   33.33    0.86
   2   0  -1  750.12   17.88
   2   0  -1  738.67   17.89
  -2   0   1  737.60   17.78
   1   0  -1  126.65    3.13
  -1   0   1  127.98    3.11
   1   0  -1  126.39    3.10
   1   0  -1  130.96    3.11
   0   0  -1    5.09    0.14
  -1   0  -1   44.58    1.10
  -1   0  -1   45.45    1.09
   1   0   1   45.83    1.10
   1   0   1   45.22    1.09
   2   0   1   18.98    0.50
  -2   0  -1   19.02    0.48
   2   0   1   19.04    0.48
  -3   0  -1   23.10    0.60
   3   0   1   22.92    0.60
   3   0   1   23.92    0.63
   4   0   1   -0.03    0.06
  -4   0  -1    0.09    0.03
   4   0   1    0.12    0.03
   5   0   1  203.72    4.88
   5   0   1  198.68    4.92
  -5   0  -1  205.76    4.88
   6   0   1    0.11    0.09
  -6   0  -1    0.09    0.05
   6   0   1    0.33    0.06
  -7   0  -1   98.13    2.40
   7   0   1   97.82    2.41
  -8   0  -1    0.77    0.09
   8   0   1    0.86    0.09
  -9   0  -1    0.33    0.08
   9   0   1    0.50    0.17
   9   0   1    0.23    0.08
  10   0   1   -0.03    0.15
  11   0   1   15.35    0.61
  12   0   1    1.63    0.25
  13   0   1    6.46    0.45
  14   0   1   -0.06    0.22
  15  -1  -1    1.12    0.43
  15   1  -1    0.22    0.37
  14  -1  -1    2.53    0.32
  14   1  -1    2.90    0.33
  13  -1  -1    1.18    0.22
  13   1  -1    1.29    0.23
  12  -1  -1    3.87    0.35
  12   1  -1    3.86    0.35
  11  -1  -1    1.53    0.21
  11   1  -1    1.69    0.23
  10  -1  -1    5.63    0.27
  10  -1  -1    5.27    0.34
  10   1  -1    5.78    0.33
  -9  -1   1   10.21    0.33
   9  -1  -1   10.51    0.44
   9  -1  -1   10.18    0.37
   9   1  -1   10.58    0.44
   9   1  -1    9.70    0.35
   8  -1  -1   19.26    0.58
   8  -1  -1   19.74    0.63
  -8  -1   1   19.51    0.54
   8   1  -1   19.49    0.56
  -8   1   1   19.50    0.52
   8   1  -1   20.42    0.64
  -7  -1   1   13.55    0.40
   7  -1  -1   14.36    0.48
   7  -1  -1   13.65    0.44
   7   1  -1   13.85    0.42
  -7   1   1   14.80    0.39
   7   1  -1   14.97    0.48
   6  -1  -1  112.88    2.77
   6  -1  -1  109.28    2.74
  -6  -1   1  112.18    2.71
  -6   1   1  113.20    2.69
   6   1  -1  111.21    2.77
   6   1  -1  108.97    2.72
   5  -1  -1   71.98    1.83
  -5  -1   1   73.52    1.80
   5  -1  -1   73.90    1.85
   5   1  -1   73.06    1.85
   5   1  -1   73.14    1.81
  -5   1   1   75.47    1.78
  -4  -1   1   27.73    0.70
   4  -1  -1   26.42    0.72
  -4   1   1   28.34    0.68
   4   1  -1   27.33    0.70
   3  -1  -1   94.17    2.31
   3  -1  -1   93.70    2.32
  -3  -1   1   95.65    2.29
  -3   1   1   97.38    2.28
   3   1  -1   93.43    2.32
   3   1  -1   95.28    2.30
   2  -1  -1  160.86    3.91
  -2  -1   1  166.78    3.96
   2  -1  -1  161.91    3.91
   2  -1  -1  156.52    3.91
   2   1  -1  166.29    3.97
   2   1  -1  160.40    3.91
  -2   1   1  165.62    3.91
  -1  -1   1  603.19   13.98
   1  -1  -1  611.34   13.97
   1   1  -1  595.69   13.98
   1   1  -1  588.76   14.01
  -1   1   1  502.65   14.18
   0  -1  -1  117.00    3.06
   0  -1   1  135.47    3.08
   0  -1  -1  110.68    3.06
   0   1  -1  127.49    3.08
   0   1   1  132.39    3.08
   0   1   1  136.07    3.08
  -1  -1  -1  300.42    7.28
   1  -1   1  304.93    7.26
   1  -1   1  298.17    7.28
   1   1   1  301.51    7.29
  -1   1  -1  297.73    7.27
  -2  -1  -1   83.96    2.03
   2  -1   1   83.27    2.04
   2  -1   1   85.29    2.05
   2  -1   1   84.08    2.06
  -2  -1  -1   85.09    2.05
   2   1   1   84.77    2.06
   2   1   1   85.80    2.03
   3  -1   1   83.37    2.07
   3  -1   1   84.90    2.09
  -3  -1  -1   85.04    2.07
  -3   1  -1   86.33    2.05
   3   1   1   84.57    2.09
   3   1   1   86.02    2.05
   4  -1   1   51.74    1.34
   4  -1   1   52.84    1.32
  -4  -1  -1   53.55    1.31
   4   1   1   53.97    1.30
   4   1   1   52.68    1.35
  -4   1  -1   52.99    1.30
   5  -1   1   23.88    0.63
   5  -1   1   23.00    0.66
  -5  -1  -1   24.50    0.62
   5   1   1   23.60    0.61
   5   1   1   22.72    0.66
  -5   1  -1   24.32    0.61
  -6  -1  -1   72.93    1.74
   6  -1   1   71.10    1.75
   6   1   1   61.80    1.78
  -6   1  -1   71.90    1.72
   6   1   1   72.22    1.73
   7  -1   1   20.95    0.59
  -7  -1  -1   21.13    0.58
  -7   1  -1   21.02    0.56
   7   1   1   21.30    0.57
  -8  -1  -1   10.21    0.33
   8  -1   1    9.71    0.34
   8   1   1   10.55    0.33
  -8   1  -1   10.43    0.32
  -9  -1  -1    0.82    0.10
   9  -1   1    0.88    0.11
   9  -1   1    0.78    0.16
  -9   1  -1    1.02    0.10
   9   1   1    0.97    0.18
 -10  -1  -1   12.21    0.46
  10  -1   1   12.94    0.51
  10   1   1   12.48    0.51
  11  -1   1    2.60    0.26
  11   1   1    2.37    0.26
  12  -1   1   21.26    0.78
  12   1   1   21.34    0.78
  13  -1   1   -0.20    0.18
  13   1   1   -0.17    0.18
  14  -1   1    0.16    0.20
  14   1   1   -0.39    0.20
  15  -2  -1    1.58    0.45
  14  -2  -1    2.04    0.29
  14   2  -1    1.98    0.30
  13  -2  -1    5.30    0.38
  13   2  -1    5.10    0.41
  12  -2  -1    1.18    0.20
  12   2  -1    1.04    0.22
  11  -2  -1    0.32    0.15
  11  -2  -1    0.27    0.11
  11   2  -1    0.22    0.15
 -10  -2   1   53.47    1.41
  10  -2  -1   56.72    1.52
  10  -2  -1   55.05    1.46
  10   2  -1   54.47    1.52
   9  -2  -1    9.15    0.41
  -9  -2   1    9.44    0.31
   9  -2  -1    8.81    0.35
   9   2  -1    9.12    0.40
   9   2  -1    8.62    0.31
  -8  -2   1    1.59    0.13
   8  -2  -1    1.37    0.13
   8  -2  -1    1.56    0.18
   8   2  -1    1.24    0.16
  -8   2   1    1.39    0.09
   8   2  -1    1.23    0.12
   7  -2  -1   40.22    1.09
   7  -2  -1   38.70    1.06
  -7  -2   1   39.67    1.03
  -7   2   1   40.17    0.98
   7   2  -1   39.24    1.03
   7   2  -1   41.22    1.10
   6  -2  -1   50.57    1.27
  -6  -2   1   47.83    1.22
   6  -2  -1   48.76    1.25
   6   2  -1   47.28    1.22
   6   2  -1   48.15    1.27
  -6   2   1   47.60    1.18
   5  -2  -1   84.68    2.14
  -5  -2   1   84.91    2.12
   5  -2  -1   86.58    2.16
   5   2  -1   87.08    2.16
  -5   2   1   89.53    2.08
   5   2  -1   86.23    2.12
  -4  -2   1   63.59    1.62
   4  -2  -1   63.68    1.64
   4  -2  -1   69.25    1.59
  -4   2   1   66.88    1.58
   4   2  -1   66.64    1.62
   3  -2  -1   75.84    1.87
  -3  -2   1   75.95    1.85
   3  -2  -1   76.53    1.87
   3   2  -1   76.00    1.87
   3   2  -1   76.19    1.85
  -2  -2   1   54.94    1.34
   2  -2  -1   53.05    1.34
   2  -2  -1   54.60    1.35
   2   2  -1   53.98    1.34
   2   2  -1   56.01    1.33
   1  -2  -1  258.54    6.34
   1  -2  -1  265.45    6.31
  -1  -2   1  258.87    6.38
  -1  -2   1  257.33    6.37
  -1   2   1  264.14    6.34
   1   2  -1  266.65    6.38
   0  -2  -1    9.49    0.26
   0  -2  -1    9.82    0.26
   0  -2   1    9.23    0.26
   0  -2   1    9.33    0.26
   0  -2  -1    9.08    0.26
   0   2  -1    8.73    0.27
  -1  -2  -1  365.83    8.55
   1  -2   1  361.16    8.61
   1  -2   1  361.67    8.59
   1   2   1  365.66    8.67
  -1   2  -1  317.97    8.61
   1   2   1  360.26    8.54
  -2  -2  -1   61.98    1.53
   2  -2   1   63.92    1.52
   2  -2   1   61.62    1.54
   2  -2   1   62.58    1.54
   2   2   1   63.11    1.54
   3  -2   1   30.51    0.81
   3  -2   1   31.68    0.78
   3  -2   1   30.62    0.82
  -3  -2  -1   30.75    0.80
  -3  -2  -1   32.63    0.77
   3   2   1   32.72    0.77
   3   2   1   32.67    0.82
   4  -2   1  254.86    6.40
  -4  -2  -1  267.69    6.38
   4  -2   1  258.94    6.39
   4  -2   1  275.80    6.42
   4   2   1  266.32    6.41
   4   2   1  268.95    6.39
   5  -2   1    2.34    0.13
   5  -2   1    2.31    0.15
  -5  -2  -1    2.40    0.12
   5   2   1    2.59    0.10
   5   2   1    2.19    0.16
   6  -2   1   41.98    1.06
  -6  -2  -1   41.82    1.05
   6   2   1   37.41    1.09
   6   2   1   41.66    1.02
   7  -2   1   75.66    1.90
  -7  -2  -1   75.77    1.88
   7   2   1   74.64    1.85
  -9  -2  -1   33.22    0.93
   9  -2   1   35.85    1.03
   9  -2   1   34.22    0.95
   9   2   1   35.82    1.03
  10  -2   1   31.60    0.96
 -10  -2  -1   30.28    0.85
  10  -2   1   30.69    0.88
  10   2   1   31.78    0.97
  11  -2   1    1.70    0.23
  11   2   1    1.73    0.22
  12  -2   1    0.70    0.19
  12   2   1    0.85    0.21
  13  -2   1    0.05    0.19
  13   2   1    0.28    0.21
  14  -2   1    0.83    0.25
  14   2   1    0.63    0.24
  14  -3  -1    3.16    0.33
  14   3  -1    3.13    0.35
  13  -3  -1    2.58    0.29
  13   3  -1    2.87    0.29
  12  -3  -1   15.93    0.64
  12   3  -1   16.97    0.67
  11  -3  -1    8.59    0.38
  11  -3  -1    8.69    0.44
  11   3  -1    9.11    0.46
  10  -3  -1   12.01    0.45
  10  -3  -1   12.45    0.50
 -10  -3   1   10.99    0.39
  10   3  -1   12.16    0.51
   9  -3  -1   10.73    0.44
  -9  -3   1   10.68    0.37
   9  -3  -1   11.32    0.41
   9   3  -1   11.13    0.37
   9   3  -1   11.23    0.47
   8  -3  -1   22.15    0.65
  -8  -3   1   21.39    0.61
   8  -3  -1   21.44    0.68
   8   3  -1   20.91    0.59
   8   3  -1   21.56    0.69
   7  -3  -1    2.19    0.08
   7  -3  -1    2.08    0.20
  -7  -3   1    1.77    0.13
   7  -3  -1    1.90    0.15
   7   3  -1    1.96    0.18
   7   3  -1    1.92    0.12
  -6  -3   1   11.85    0.37
   6  -3  -1   12.27    0.40
   6  -3  -1   12.43    0.39
   6  -3  -1   12.69    0.30
   6   3  -1   11.40    0.40
   6   3  -1   11.49    0.35
   5  -3  -1  128.94    3.15
   5  -3  -1  130.22    3.16
  -5  -3   1  127.55    3.13
   5   3  -1  126.67    3.16
   5   3  -1  128.61    3.11
  -4  -3   1   75.24    1.84
   4  -3  -1   74.26    1.86
   4   3  -1   74.39    1.82
  -3  -3   1   73.50    1.68
   3  -3  -1   71.27    1.69
   3  -3  -1   64.14    1.68
   3   3  -1   58.77    1.68
   3   3  -1   72.44    1.66
   2  -3  -1  346.20    8.58
   2  -3  -1  344.25    8.50
   2  -3  -1  357.30    8.43
  -2  -3   1  345.23    8.58
   2   3  -1  348.31    8.55
   2   3  -1  355.80    8.57
  -2   3   1  363.39    8.46
   1  -3  -1  113.53    2.77
   1  -3  -1  117.16    2.75
  -1  -3   1  112.14    2.77
   1   3  -1  115.82    2.77
   0  -3   1   14.10    0.38
   0  -3   1   14.63    0.38
   0  -3  -1   14.21    0.38
   0  -3  -1   13.98    0.38
   0  -3  -1   13.85    0.38
   0   3  -1   12.89    0.39
   1  -3   1  345.33    8.38
  -1  -3  -1  336.61    8.37
  -1  -3  -1  349.42    8.32
   1  -3   1  344.57    8.33
  -2  -3  -1   98.65    2.38
   2  -3   1   96.65    2.39
   2  -3   1   96.48    2.39
   2  -3   1   99.11    2.36
   2   3   1   98.62    2.39
   2   3   1   98.17    2.35
   3  -3   1  289.29    7.17
   3  -3   1  307.43    7.22
  -3  -3  -1  296.49    7.16
  -3  -3  -1  306.92    7.17
   3  -3   1  287.61    7.17
   3   3   1  298.64    7.23
   3   3   1  302.80    7.17
   4  -3   1   36.51    0.96
  -4  -3  -1   36.32    0.95
   4  -3   1   35.13    0.97
   4  -3   1   38.23    0.92
   4   3   1   38.29    0.98
   4   3   1   38.75    0.91
   5  -3   1   12.75    0.44
   5  -3   1   15.08    0.38
   5  -3   1   14.46    0.43
  -5  -3  -1   14.73    0.42
   5   3   1   14.59    0.37
   5   3   1   14.45    0.46
   6  -3   1   36.43    0.97
  -6  -3  -1   37.64    0.96
   6  -3   1   37.90    0.92
   6   3   1   36.93    0.91
   6   3   1   33.83    1.00
   7  -3   1   14.26    0.44
   7  -3   1   14.81    0.38
  -7  -3  -1   13.59    0.42
   7   3   1   12.99    0.38
   8  -3   1   29.68    0.83
  -8  -3  -1   30.10    0.81
   8   3   1   29.43    0.81
   9  -3   1   92.72    2.41
  -9  -3  -1   90.60    2.33
   9  -3   1   90.92    2.35
   9   3   1   97.59    2.43
  10  -3   1   15.76    0.53
 -10  -3  -1   16.52    0.51
  10  -3   1   16.22    0.60
  10   3   1   15.20    0.59
  11  -3   1    6.94    0.41
  11   3   1    7.23    0.42
  12  -3   1    7.11    0.43
  12   3   1    6.34    0.42
  13  -3   1    2.64    0.30
  13   3   1    1.84    0.27
  14  -3   1   18.01    0.75
  14   3   1   17.69    0.76
  14  -4  -1    4.49    0.38
  14   4  -1    4.55    0.43
  13  -4  -1    1.81    0.27
  13   4  -1    1.76    0.27
  12  -4  -1    5.47    0.39
  12   4  -1    6.10    0.41
  11  -4  -1    1.35    0.21
  11  -4  -1    1.18    0.17
  11   4  -1    1.47    0.23
  10  -4  -1    4.72    0.28
 -10  -4   1    4.59    0.23
  10  -4  -1    4.22    0.32
  10   4  -1    4.16    0.31
  -9  -4   1    3.53    0.20
   9  -4  -1    3.68    0.28
   9  -4  -1    3.66    0.24
   9   4  -1    3.54    0.27
   8  -4  -1   21.75    0.66
   8  -4  -1   21.87    0.68
  -8  -4   1   22.38    0.63
   8   4  -1   21.23    0.69
   8   4  -1   20.66    0.59
   7  -4  -1   11.28    0.39
   7  -4  -1   11.32    0.41
  -7  -4   1   10.90    0.36
   7   4  -1   11.66    0.42
   7   4  -1   10.62    0.33
   6  -4  -1   14.72    0.47
  -6  -4   1   14.24    0.44
   6  -4  -1   15.27    0.47
   6   4  -1   14.40    0.41
   6   4  -1   15.23    0.49
  -5  -4   1   33.57    0.91
   5  -4  -1   34.57    0.94
   5  -4  -1   33.99    0.94
   5   4  -1   39.06    0.96
   5   4  -1   34.89    0.89
   4  -4  -1   50.56    1.28
   4  -4  -1   47.21    1.27
  -4  -4   1   50.59    1.26
   4   4  -1   50.12    1.28
   4   4  -1   50.30    1.24
   3  -4  -1  154.00    3.85
   3  -4  -1  160.51    3.80
  -3  -4   1  153.44    3.83
   3   4  -1  155.49    3.82
  -3   4   1  167.80    3.81
  -2  -4   1   17.56    0.47
  -2  -4   1   16.83    0.47
   2  -4  -1   18.08    0.44
   2  -4  -1   16.91    0.47
   2   4  -1   17.11    0.46
   1  -4  -1  141.41    3.44
  -1  -4   1  139.99    3.43
   1  -4  -1  138.80    3.43
   1  -4  -1  144.34    3.41
   1   4  -1  146.18    3.43
   0  -4  -1   17.11    0.46
   0  -4  -1   17.23    0.45
   0  -4  -1   17.25    0.45
   0  -4   1   17.07    0.45
   0  -4   1   17.49    0.45
   0   4  -1   17.39    0.46
  -1  -4  -1   99.53    2.42
  -1  -4  -1   96.99    2.42
   1  -4   1  101.72    2.43
   1  -4   1  100.75    2.41
   2  -4   1  164.87    4.05
   2  -4   1  164.59    4.04
   2  -4   1  165.11    4.03
   2   4   1  172.32    4.02
   2   4   1  168.15    4.04
   3  -4   1   25.60    0.62
   3  -4   1   24.11    0.67
  -3  -4  -1   25.35    0.66
   3  -4   1   24.09    0.66
   3   4   1   24.54    0.67
   3   4   1   24.87    0.61
  -4  -4  -1   80.84    2.03
   4  -4   1   81.33    2.04
   4  -4   1   76.99    2.04
   4  -4   1   84.20    1.98
   4   4   1   83.67    1.97
   4   4   1   85.06    2.05
   5  -4   1    0.32    0.09
   5  -4   1    0.41    0.05
   5  -4   1    0.25    0.07
  -5  -4  -1    0.23    0.06
   5   4   1    0.39    0.04
   5   4   1    0.32    0.08
   6  -4   1   28.10    0.79
   6  -4   1   29.10    0.72
  -6  -4  -1   27.95    0.77
   6   4   1   29.93    0.71
   6   4   1   26.99    0.81
  -7  -4  -1    5.17    0.23
   7  -4   1    5.68    0.25
   7  -4   1    5.94    0.18
   7   4   1    5.41    0.18
   8  -4   1    3.36    0.21
  -8  -4  -1    3.07    0.19
   9  -4   1   65.67    1.74
  -9  -4  -1   62.78    1.66
   9  -4   1   63.80    1.70
   9   4   1   66.76    1.76
  10  -4   1    4.64    0.26
 -10  -4  -1    4.27    0.24
  10  -4   1    4.86    0.31
  10   4   1    4.61    0.34
 -11  -4  -1    1.26    0.15
  11  -4   1    1.57    0.26
  11  -4   1    1.41    0.22
  11   4   1    1.34    0.22
  12  -4   1    1.27    0.22
  12   4   1    0.82    0.20
  13  -4   1    2.65    0.30
  13   4   1    2.31    0.30
  14  -4   1   16.87    0.70
  14   4   1   15.90    0.72
  14  -5  -1    3.56    0.35
  14   5  -1    3.49    0.35
  13  -5  -1    8.03    0.48
  13   5  -1    8.77    0.50
  12  -5  -1    2.16    0.25
  12  -5  -1    2.46    0.24
  12   5  -1    2.51    0.29
  11  -5  -1    7.52    0.42
  11  -5  -1    8.13    0.39
 -11  -5   1    7.70    0.33
  11   5  -1    8.74    0.45
 -10  -5   1   22.24    0.66
  10  -5  -1   21.87    0.71
  10  -5  -1   21.71    0.74
  10   5  -1   22.06    0.76
   9  -5  -1   37.58    1.09
  -9  -5   1   38.81    1.05
   9  -5  -1   39.84    1.12
   9   5  -1   38.10    1.12
  -8  -5   1   26.58    0.75
   8  -5  -1   27.64    0.81
   8  -5  -1   26.15    0.79
   8   5  -1   26.00    0.71
   8   5  -1   27.37    0.83
  -7  -5   1    2.36    0.16
   7  -5  -1    2.48    0.21
   7  -5  -1    2.54    0.19
   7   5  -1    2.67    0.21
   7   5  -1    2.58    0.13
  -6  -5   1    8.49    0.30
   6  -5  -1    8.42    0.32
   6  -5  -1    8.28    0.33
   6   5  -1    8.69    0.27
   6   5  -1    8.53    0.34
  -5  -5   1    9.40    0.31
   5  -5  -1    9.81    0.34
   5  -5  -1    9.18    0.33
   5   5  -1    9.57    0.29
   5   5  -1    9.58    0.34
   4  -5  -1   18.52    0.54
  -4  -5   1   18.62    0.52
   4  -5  -1   18.20    0.53
   4   5  -1   18.47    0.50
   4   5  -1   18.26    0.54
   3  -5  -1  263.11    6.33
  -3  -5   1  256.81    6.31
   3  -5  -1  270.48    6.31
   3   5  -1  257.52    6.47
  -2  -5   1   13.93    0.39
  -1  -5   1   66.67    1.76
   1  -5  -1   75.51    1.75
  -1  -5   1   71.70    1.77
   1  -5  -1   73.25    1.78
   1  -5  -1   69.25    1.77
   1   5  -1   74.71    1.77
   0  -5   1  281.48    6.83
   0  -5  -1  283.65    6.80
   0  -5  -1  275.85    6.83
   0  -5   1  291.50    6.89
   0  -5  -1  282.34    6.80
   0   5  -1  285.70    6.81
   1  -5   1   50.91    1.27
   1  -5   1   51.30    1.25
  -1  -5  -1   50.50    1.26
  -1   5  -1   50.21    1.28
   1   5   1   50.52    1.26
   2  -5   1    8.40    0.23
   2  -5   1    7.97    0.26
   2   5   1    8.03    0.23
   3  -5   1  186.44    4.44
   3  -5   1  184.55    4.50
  -3  -5  -1  185.76    4.48
   3  -5   1  180.60    4.49
   3   5   1  185.92    4.49
   3   5   1  187.46    4.44
  -4  -5  -1  192.57    4.65
   4  -5   1  193.56    4.60
   4  -5   1  185.56    4.66
   4  -5   1  191.57    4.67
   4   5   1  192.60    4.60
   4   5   1  195.32    4.67
  -5  -5  -1   40.48    1.03
   5  -5   1   39.17    1.05
   5  -5   1   41.02    0.97
   5  -5   1   32.87    1.03
   5   5   1   40.39    1.05
   5   5   1   40.20    0.96
   6  -5   1   65.46    1.67
   6  -5   1   65.63    1.57
  -6  -5  -1   66.01    1.64
   6   5   1   64.42    1.57
   6   5   1   61.32    1.67
   8  -5   1   24.71    0.76
   8   5   1   24.35    0.77
  -9  -5  -1   81.42    2.10
   9  -5   1   83.02    2.14
   9  -5   1   83.87    2.17
   9   5   1   82.67    2.18
  10  -5   1    7.48    0.35
 -10  -5  -1    7.32    0.32
  10  -5   1    7.65    0.40
  10   5   1    7.88    0.42
  11  -5   1   34.50    1.07
 -11  -5  -1   34.42    0.98
  11  -5   1   35.49    1.03
  11   5   1   34.40    1.08
  12  -5   1    3.16    0.30
  12   5   1    3.97    0.37
  13  -5   1    9.68    0.52
  13   5   1    9.77    0.54
  14  -5   1    0.84    0.25
  14   5   1    0.71    0.25
  14  -6  -1    6.57    0.47
  14   6  -1    7.58    0.51
  13  -6  -1    6.83    0.43
  13   6  -1    7.58    0.45
  12  -6  -1    1.21    0.19
  12  -6  -1    1.18    0.23
  12   6  -1    1.40    0.24
  11  -6  -1   17.27    0.62
 -11  -6   1   17.53    0.57
  11  -6  -1   17.16    0.64
  11   6  -1   17.55    0.68
 -10  -6   1    5.78    0.28
  10  -6  -1    5.32    0.31
  10  -6  -1    5.45    0.33
  10   6  -1    5.16    0.36
   9  -6  -1   11.47    0.47
  -9  -6   1   11.12    0.41
   9  -6  -1   11.56    0.45
   9   6  -1   11.28    0.49
   8  -6  -1    0.10    0.12
   8  -6  -1    0.28    0.11
  -8  -6   1    0.40    0.10
   8   6  -1    0.26    0.14
   7  -6  -1   66.80    1.76
   7  -6  -1   68.24    1.76
  -7  -6   1   68.34    1.73
   7   6  -1   68.66    1.77
   7   6  -1   65.40    1.67
   6  -6  -1   17.89    0.55
  -6  -6   1   17.04    0.52
   6  -6  -1   16.69    0.55
   6   6  -1   17.25    0.55
   6   6  -1   17.85    0.48
   5  -6  -1    7.88    0.30
   5  -6  -1    7.90    0.31
  -5  -6   1    7.65    0.28
   5   6  -1    8.02    0.25
   5   6  -1    7.87    0.30
  -4  -6   1   32.87    0.88
   4  -6  -1   32.28    0.90
   4  -6  -1   34.06    0.81
   4  -6  -1   32.28    0.88
   4   6  -1   33.41    0.85
   4   6  -1   32.87    0.89
   3  -6  -1    4.34    0.18
   3  -6  -1    3.69    0.18
   3  -6  -1    4.41    0.13
  -3  -6   1    4.26    0.17
   3   6  -1    3.88    0.18
   3   6  -1    4.12    0.16
   2  -6  -1   99.40    2.37
  -2  -6   1   98.64    2.41
   2   6  -1   95.71    2.40
  -1  -6   1   37.72    0.98
   1  -6  -1   37.86    0.96
   1   6  -1   39.23    0.98
   0  -6  -1  104.86    2.56
   0  -6   1  104.09    2.55
   0  -6   1   99.10    2.54
   0  -6  -1  106.77    2.54
   0   6  -1  107.24    2.57
   1  -6   1   71.41    1.78
   1  -6   1   71.60    1.80
  -1   6  -1   73.05    1.82
   1   6   1   74.78    1.79
   2  -6   1  327.31    7.90
   2  -6   1  321.68    7.83
   2   6   1  328.43    7.81
   3  -6   1   54.88    1.43
   3  -6   1   54.84    1.41
  -3  -6  -1   56.53    1.41
   3  -6   1   56.11    1.37
   3   6   1   55.69    1.37
   3   6   1   55.82    1.42
   4  -6   1   56.40    1.50
  -4  -6  -1   59.37    1.49
   4  -6   1   60.29    1.44
   4  -6   1   59.73    1.52
   4   6   1   58.06    1.51
   4   6   1   58.53    1.44
  -5  -6  -1   27.01    0.75
   5  -6   1   27.32    0.69
   5  -6   1   27.66    0.78
   5   6   1   28.53    0.79
   5   6   1   27.14    0.69
  -6  -6  -1   29.79    0.83
   6  -6   1   30.22    0.86
   6  -6   1   30.26    0.76
   6   6   1   31.04    0.75
  -8  -6  -1   19.66    0.61
   8  -6   1   20.29    0.64
   8  -6   1   20.10    0.66
   8   6   1   20.39    0.67
   9  -6   1   12.03    0.46
  -9  -6  -1   11.96    0.43
   9  -6   1   11.52    0.48
   9   6   1   11.85    0.50
 -10  -6  -1    5.90    0.29
  10  -6   1    6.10    0.32
  10  -6   1    5.34    0.35
  10   6   1    6.04    0.38
  11  -6   1   11.40    0.51
  11  -6   1   10.38    0.46
 -11  -6  -1   10.84    0.42
  11   6   1   10.42    0.52
  12  -6   1   14.27    0.62
  12   6   1   15.47    0.65
  13  -6   1   14.03    0.63
  13   6   1   13.61    0.64
  14  -6   1    7.15    0.49
  14   6   1    6.59    0.50
  14  -7  -1    7.73    0.50
  14   7  -1    7.51    0.51
  13  -7  -1    3.89    0.37
  13   7  -1    4.21    0.38
  12  -7  -1   10.35    0.51
  12  -7  -1    9.63    0.47
  12   7  -1   10.04    0.53
  11  -7  -1    8.74    0.43
 -11  -7   1    8.29    0.36
  11  -7  -1    7.69    0.42
  11   7  -1    8.70    0.47
  10  -7  -1   18.83    0.66
  10  -7  -1   19.12    0.68
 -10  -7   1   19.31    0.61
  10   7  -1   18.39    0.69
   9  -7  -1   30.30    0.93
   9  -7  -1   32.01    0.95
  -9  -7   1   30.86    0.89
   9   7  -1   30.36    0.94
  -8  -7   1    2.97    0.21
   8  -7  -1    2.91    0.23
   8  -7  -1    3.40    0.24
   8   7  -1    2.71    0.24
   7  -7  -1    9.44    0.39
  -7  -7   1    9.49    0.36
   7  -7  -1    9.59    0.38
   7   7  -1    9.42    0.30
   7   7  -1   10.16    0.40
   6  -7  -1    9.48    0.37
  -6  -7   1    9.14    0.34
   6  -7  -1    9.86    0.38
   6   7  -1    9.46    0.30
   6   7  -1    9.25    0.37
   5  -7  -1   10.91    0.27
   5  -7  -1    9.89    0.36
   5  -7  -1   10.70    0.39
  -5  -7   1   10.72    0.36
   5   7  -1   10.90    0.33
   5   7  -1   10.45    0.37
   4  -7  -1   25.15    0.72
   4  -7  -1   24.64    0.70
   4  -7  -1   24.71    0.62
  -4  -7   1   25.15    0.69
   4   7  -1   24.00    0.66
   4   7  -1   25.20    0.71
  -3  -7   1   41.50    1.09
   3  -7  -1   40.78    1.09
   3  -7  -1   42.69    1.04
  -3  -7   1   42.93    1.10
   3   7  -1   41.69    1.07
   2  -7  -1   16.48    0.48
  -2  -7   1   14.17    0.47
   2  -7  -1   17.40    0.44
  -2  -7   1   16.98    0.48
   2  -7  -1   16.66    0.49
   2   7  -1   17.21    0.47
  -1  -7   1  116.33    2.99
  -1  -7   1  125.49    3.00
   1  -7  -1  113.95    2.99
   1  -7  -1  128.84    2.97
   1   7  -1  126.57    3.00
   0  -7   1   17.91    0.51
   0   7  -1   18.45    0.53
  -1  -7  -1  191.81    5.53
  -1  -7  -1  215.31    5.53
   1  -7   1  245.71    5.54
   1   7   1  246.20    5.54
  -1   7  -1  247.13    5.56
  -2  -7  -1   34.63    0.94
   2  -7   1   37.41    0.91
   2  -7   1   37.10    0.95
  -2  -7  -1   37.14    0.94
   2   7   1   36.43    0.92
  -2   7  -1   33.22    0.96
   3  -7   1   68.31    1.72
   3  -7   1   69.41    1.67
   3   7   1   66.40    1.68
   3   7   1   68.64    1.73
   4  -7   1   11.95    0.41
  -4  -7  -1   13.07    0.41
   4  -7   1   13.23    0.44
   4  -7   1   12.93    0.36
   4   7   1   14.12    0.43
   4   7   1   13.24    0.36
   5  -7   1    1.29    0.08
   5  -7   1    1.20    0.13
  -5  -7  -1    1.22    0.12
   5  -7   1    0.84    0.11
   5   7   1    1.19    0.13
   5   7   1    1.54    0.08
   6  -7   1    7.08    0.31
   6  -7   1    7.31    0.21
  -6  -7  -1    6.90    0.29
   6   7   1    6.81    0.21
  -7  -7  -1   37.48    1.05
   7  -7   1   39.21    1.08
  -8  -7  -1   16.24    0.54
   8  -7   1   16.79    0.57
   8  -7   1   16.41    0.59
   8   7   1   17.16    0.60
   9  -7   1   17.08    0.62
  -9  -7  -1   17.16    0.57
   9  -7   1   17.71    0.60
   9   7   1   17.22    0.62
  10  -7   1   21.55    0.73
 -10  -7  -1   21.73    0.69
  10  -7   1   22.75    0.76
  10   7   1   21.53    0.77
  11  -7   1    0.19    0.17
 -11  -7  -1    0.31    0.12
  11   7   1   -0.12    0.16
  12  -7   1    1.10    0.22
 -12  -7  -1    0.72    0.15
  12   7   1    0.83    0.20
  13  -7   1    3.46    0.34
  13   7   1    3.49    0.35
  14  -7   1    2.01    0.35
  14   7   1    2.43    0.40
  14  -8  -1    0.88    0.30
  14   8  -1    1.49    0.33
  13  -8  -1    1.08    0.24
  13   8  -1    1.34    0.27
 -12  -8   1    6.05    0.34
  12  -8  -1    5.94    0.39
  12  -8  -1    6.47    0.42
  12   8  -1    6.34    0.41
  11  -8  -1    6.77    0.39
  11  -8  -1    6.98    0.40
 -11  -8   1    7.09    0.35
  11   8  -1    7.37    0.45
  10  -8  -1    1.37    0.21
 -10  -8   1    1.75    0.19
  10  -8  -1    1.77    0.21
  10   8  -1    1.79    0.24
  -9  -8   1    0.92    0.14
   9  -8  -1    0.82    0.17
   9  -8  -1    0.68    0.15
   9   8  -1    0.91    0.19
  -8  -8   1    2.84    0.22
   8  -8  -1    3.16    0.26
   8  -8  -1    2.55    0.24
   8   8  -1    3.18    0.26
   7  -8  -1   12.55    0.47
  -7  -8   1   12.44    0.44
   7  -8  -1   13.12    0.47
   7   8  -1   12.35    0.39
   7   8  -1   12.28    0.47
   6  -8  -1   26.34    0.76
   6  -8  -1   26.00    0.78
  -6  -8   1   25.21    0.74
   6   8  -1   24.76    0.76
   6   8  -1   25.76    0.69
   5  -8  -1   12.74    0.43
   5  -8  -1   13.29    0.46
   5  -8  -1   12.87    0.33
  -5  -8   1   12.46    0.42
   5   8  -1   12.09    0.43
   5   8  -1   12.42    0.38
   4  -8  -1   28.64    0.82
   4  -8  -1   28.83    0.72
   4  -8  -1   28.32    0.80
  -4  -8   1   29.92    0.80
   4   8  -1   27.85    0.80
   4   8  -1   27.84    0.76
   3  -8  -1    4.08    0.15
  -3  -8   1    4.06    0.19
   3  -8  -1    3.95    0.19
   3   8  -1    3.99    0.18
  -2  -8   1    2.75    0.16
   2  -8  -1    2.87    0.13
  -2  -8   1    2.93    0.16
   2  -8  -1    2.64    0.15
   2   8  -1    2.71    0.15
   1  -8  -1  187.95    4.60
  -1  -8   1  191.98    4.59
   1  -8  -1  186.76    4.58
  -1  -8   1  188.30    4.58
   1   8  -1  188.38    4.59
   0  -8   1   38.99    1.02
   0  -8   1   39.94    1.03
   0  -8  -1   38.46    1.03
   0  -8  -1   39.36    1.02
   0   8  -1   40.73    1.05
  -1  -8  -1  128.29    3.20
  -1  -8  -1  129.45    3.19
   1  -8   1  130.79    3.20
  -1   8  -1  135.74    3.22
   1   8   1  128.07    3.19
  -2  -8  -1   76.62    1.93
  -2  -8  -1   76.08    1.93
   2  -8   1   78.83    1.94
   2   8   1   75.07    1.91
  -2   8  -1   78.61    1.96
   3  -8   1   24.04    0.62
   3  -8   1   23.43    0.67
  -3  -8  -1   22.74    0.67
   3   8   1   24.03    0.63
  -4  -8  -1    2.24    0.15
   4  -8   1    1.75    0.16
   4  -8   1    2.13    0.11
   4   8   1    2.28    0.17
   4   8   1    2.31    0.12
  -5  -8  -1    3.85    0.22
   5  -8   1    4.07    0.15
   5  -8   1    4.25    0.24
   5   8   1    4.45    0.16
   5   8   1    3.81    0.22
   7  -8   1   33.32    1.06
  -7  -8  -1   41.50    1.06
   7  -8   1   40.91    1.09
   7   8   1   35.63    1.08
   8  -8   1   13.10    0.49
   8  -8   1   12.81    0.49
  -8  -8  -1   12.72    0.46
   8   8   1   12.92    0.52
   9  -8   1   31.72    0.95
   9  -8   1   31.75    0.96
  -9  -8  -1   31.01    0.91
   9   8   1   30.26    0.97
 -10  -8  -1    5.41    0.30
  10  -8   1    4.88    0.33
  10   8   1    5.85    0.39
 -11  -8  -1    0.71    0.15
  11  -8   1    0.45    0.18
  11   8   1    0.61    0.20
  12  -8   1   19.31    0.75
 -12  -8  -1   19.34    0.67
 -12   8  -1   20.33    0.79
  12   8   1   19.88    0.78
  13  -8   1   10.40    0.55
  13   8   1   10.33    0.58
  13  -9  -1    1.56    0.24
  13  -9  -1    1.16    0.25
  13   9  -1    1.20    0.27
 -12  -9   1    2.07    0.22
  12  -9  -1    2.36    0.26
  12  -9  -1    1.98    0.27
  12   9  -1    2.23    0.27
  11  -9  -1   16.10    0.63
 -11  -9   1   16.02    0.58
  11  -9  -1   16.45    0.65
  11   9  -1   16.32    0.67
  10  -9  -1    4.40    0.33
 -10  -9   1    4.55    0.29
  10  -9  -1    4.49    0.32
  10   9  -1    4.51    0.33
  -9  -9   1   19.15    0.63
   9  -9  -1   19.71    0.69
   9  -9  -1   18.93    0.67
   9   9  -1   20.14    0.69
  -8  -9   1   11.20    0.43
   8  -9  -1   10.73    0.46
   8  -9  -1   12.32    0.47
   8   9  -1   10.70    0.46
  -7  -9   1    1.78    0.17
   7  -9  -1    2.02    0.20
   7  -9  -1    1.71    0.18
   7   9  -1    2.17    0.21
   6  -9  -1    7.17    0.34
  -6  -9   1    6.81    0.29
   6  -9  -1    6.97    0.31
   6   9  -1    6.73    0.25
   6   9  -1    6.63    0.32
   5  -9  -1    4.81    0.15
   5  -9  -1    4.49    0.25
   5  -9  -1    4.44    0.24
  -5  -9   1    4.89    0.24
   5   9  -1    4.44    0.20
   5   9  -1    4.04    0.24
   4  -9  -1   27.13    0.68
  -4  -9   1   26.56    0.76
   4  -9  -1   26.95    0.76
   4   9  -1   26.43    0.77
   4   9  -1   26.05    0.73
  -3  -9   1    6.59    0.26
   3  -9  -1    5.78    0.20
   3  -9  -1    6.24    0.25
   3  -9  -1    6.57    0.28
   3   9  -1    5.91    0.24
   2  -9  -1   55.15    1.43
  -2  -9   1   57.24    1.44
  -2  -9   1   55.06    1.43
   2  -9  -1   54.85    1.46
   2   9  -1   56.30    1.43
   1  -9  -1   53.48    1.39
   1  -9  -1   53.32    1.35
  -1  -9   1   54.55    1.38
  -1  -9   1   53.13    1.37
   1  -9  -1   53.05    1.38
   1   9  -1   53.81    1.39
   0  -9  -1    8.22    0.29
   0  -9   1    7.36    0.27
   0  -9  -1    7.80    0.27
   0  -9   1    7.74    0.28
   0   9   1    7.38    0.28
   0   9  -1    7.67    0.29
  -1  -9  -1   26.22    0.74
   1  -9   1   28.04    0.75
   1  -9   1   26.55    0.73
  -1  -9  -1   27.13    0.75
  -1   9  -1   27.93    0.78
   1   9   1   27.41    0.75
   2  -9   1   19.13    0.54
  -2  -9  -1   18.68    0.57
  -2  -9  -1   19.38    0.57
   2  -9   1   20.11    0.57
  -2   9  -1   19.99    0.60
   2   9   1   18.97    0.55
  -3  -9  -1   18.38    0.55
  -3  -9  -1   18.29    0.54
   3  -9   1   18.23    0.55
   3   9   1   17.82    0.51
  -4  -9  -1   15.22    0.50
   4  -9   1   13.52    0.43
   4   9   1   18.19    0.53
   4   9   1   17.61    0.46
  -5  -9  -1   43.27    1.14
   5  -9   1   42.60    1.06
   5   9   1   40.75    1.07
   6  -9   1    4.21    0.26
  -6  -9  -1    3.88    0.23
  -7  -9  -1   50.19    1.40
   7  -9   1   51.44    1.44
   7  -9   1   53.64    1.43
   7   9   1   53.36    1.44
  -8  -9  -1   29.88    0.88
   8  -9   1   29.36    0.92
   8  -9   1   30.37    0.92
   8   9   1   29.79    0.93
   9  -9   1    1.09    0.18
  -9  -9  -1    1.04    0.16
   9   9   1    0.99    0.18
 -10  -9  -1    4.24    0.29
  10  -9   1    4.05    0.31
  10   9   1    4.38    0.33
  11  -9   1    1.96    0.25
 -11  -9  -1    2.44    0.23
 -11   9  -1    2.70    0.26
  11   9   1    2.23    0.26
  12  -9   1   20.98    0.80
 -12  -9  -1   20.64    0.72
  12   9   1   21.82    0.83
 -12   9  -1   21.48    0.78
  13  -9   1    4.62    0.42
  13   9   1    4.72    0.41
  13 -10  -1    8.21    0.49
  13  10  -1    7.17    0.48
  12 -10  -1    8.73    0.49
  12 -10  -1    8.40    0.49
 -12 -10   1    8.59    0.42
  12  10  -1   10.03    0.54
 -11 -10   1   11.10    0.48
  11 -10  -1   11.93    0.54
  11 -10  -1   11.79    0.54
  11  10  -1   12.20    0.57
  10 -10  -1    8.92    0.43
  10 -10  -1    8.59    0.44
 -10 -10   1    8.81    0.41
  10  10  -1    8.78    0.47
   9 -10  -1    5.84    0.36
   9 -10  -1    5.95    0.37
  -9 -10   1    6.22    0.32
   9  10  -1    6.41    0.39
   8 -10  -1    5.15    0.32
   8 -10  -1    5.82    0.32
  -8 -10   1    5.21    0.30
   8  10  -1    5.53    0.33
   7 -10  -1    6.03    0.32
   7 -10  -1    6.28    0.33
  -7 -10   1    5.56    0.30
   7  10  -1    5.54    0.31
  -6 -10   1   25.25    0.76
   6 -10  -1   26.93    0.78
   6 -10  -1   25.02    0.80
   6  10  -1   25.48    0.79
   6  10  -1   25.11    0.71
  -5 -10   1   39.33    1.05
   5 -10  -1   40.00    1.06
   5  10  -1   32.48    1.05
   5  10  -1   39.78    1.01
   4 -10  -1    5.81    0.26
   4 -10  -1    4.87    0.18
   4  10  -1    6.05    0.24
   4  10  -1    4.31    0.24
   3 -10  -1   37.01    1.02
  -3 -10   1   37.44    1.00
  -3 -10   1   37.08    0.99
   3 -10  -1   35.78    0.99
   3  10  -1   34.15    0.97
   2 -10  -1    3.90    0.20
   2 -10  -1    3.78    0.17
   2 -10  -1    3.84    0.22
  -2 -10   1    3.86    0.20
  -2 -10   1    3.42    0.19
   2  10  -1    3.95    0.20
   1 -10  -1   55.92    1.42
  -1 -10   1   57.66    1.45
  -1 -10   1   53.38    1.44
   1 -10  -1   57.12    1.45
   1  10  -1   56.41    1.46
   0 -10   1   30.28    0.83
   0 -10   1   29.43    0.81
   0 -10  -1   28.98    0.81
   0 -10  -1   30.54    0.83
   0  10  -1   30.49    0.85
   0  10   1   30.87    0.84
   1 -10   1    5.70    0.23
   1 -10   1    5.85    0.25
  -1 -10  -1    5.72    0.25
  -1 -10  -1    5.70    0.24
   1  10   1    6.29    0.25
  -1  10  -1    6.29    0.27
   2 -10   1   21.28    0.60
  -2 -10  -1   21.36    0.63
   2 -10   1   22.29    0.64
  -2 -10  -1   21.49    0.63
   2  10   1   21.18    0.62
  -2  10  -1   22.17    0.66
  -3 -10  -1   65.00    1.75
   3 -10   1   72.72    1.71
  -3 -10  -1   72.20    1.76
   3  10   1   71.14    1.73
  -3  10  -1   60.65    1.77
   5 -10   1    7.49    0.24
   6 -10   1    9.65    0.41
  -6 -10  -1   10.69    0.40
   6  10   1   10.91    0.44
  -7 -10  -1   43.72    1.22
   7 -10   1   45.79    1.25
   7  10   1   43.17    1.25
  -8 -10  -1   13.93    0.50
   8 -10   1   12.92    0.51
   8  10   1   13.37    0.54
   9 -10   1   10.80    0.47
  -9 -10  -1   11.49    0.46
   9  10   1   10.80    0.49
  10 -10   1    5.53    0.37
 -10 -10  -1    5.58    0.32
  10  10   1    4.99    0.36
 -10  10  -1    5.41    0.35
  11 -10   1    6.78    0.43
 -11 -10  -1    7.00    0.37
  11  10   1    7.32    0.46
 -11  10  -1    7.03    0.42
 -12 -10  -1   22.05    0.75
  12 -10   1   23.26    0.83
  12  10   1   20.26    0.82
 -12  10  -1   22.99    0.82
  13 -10   1    5.99    0.45
  13  10   1    6.34    0.49
  13 -11  -1    9.10    0.54
 -13 -11   1    8.72    0.56
  13  11  -1    8.42    0.56
  12 -11  -1    3.35    0.33
 -12 -11   1    4.15    0.32
  12  11  -1    3.49    0.34
  11 -11  -1   15.90    0.65
  11 -11  -1   16.39    0.65
 -11 -11   1   15.44    0.59
  11  11  -1   14.83    0.66
  10 -11  -1   17.85    0.69
 -10 -11   1   17.75    0.63
  10 -11  -1   18.48    0.69
  10  11  -1   18.23    0.70
   9 -11  -1   27.38    0.91
  -9 -11   1   27.37    0.85
   9 -11  -1   28.50    0.90
   9  11  -1   27.48    0.90
  -8 -11   1   13.61    0.51
   8 -11  -1   13.79    0.55
   8 -11  -1   13.90    0.53
   8  11  -1   14.15    0.56
   7 -11  -1    6.27    0.35
  -7 -11   1    5.82    0.31
   7 -11  -1    6.20    0.32
   7  11  -1    5.91    0.34
  -6 -11   1    9.13    0.38
   6 -11  -1    9.22    0.40
   6 -11  -1    8.81    0.42
   6  11  -1    9.40    0.40
   6  11  -1    9.82    0.38
   5 -11  -1   14.21    0.49
  -5 -11   1   13.19    0.47
   5  11  -1   12.97    0.44
   5  11  -1   14.54    0.51
   4 -11  -1    4.82    0.18
  -3 -11   1   14.46    0.48
   3 -11  -1   15.71    0.44
   3 -11  -1   15.95    0.53
   3 -11  -1   15.60    0.50
  -3 -11   1   13.51    0.48
   3  11  -1   14.82    0.48
  -2 -11   1   28.97    0.80
   2 -11  -1   28.11    0.80
   2 -11  -1   28.75    0.76
  -2 -11   1   27.60    0.80
   2  11  -1   27.82    0.80
  -1 -11   1   71.14    1.85
  -1 -11   1   72.05    1.86
   1 -11  -1   71.05    1.83
   1 -11  -1   73.60    1.86
  -1  11   1   75.16    1.89
   1  11  -1   73.46    1.87
   0 -11   1   37.95    1.04
   0 -11  -1   39.30    1.05
   0 -11   1   38.92    1.03
   0 -11  -1   38.29    1.02
   0  11  -1   38.14    1.06
   0  11   1   38.79    1.05
   1 -11   1   43.17    1.10
  -1 -11  -1   41.51    1.13
   1 -11   1   35.55    1.11
  -1 -11  -1   43.03    1.12
  -1  11  -1   45.44    1.17
   1  11   1   43.25    1.13
  -2 -11  -1    6.75    0.28
   2 -11   1    6.44    0.25
  -2  11  -1    6.89    0.32
   2  11   1    6.26    0.26
  -3 -11  -1   53.49    1.41
   3 -11   1   53.79    1.36
   3  11   1   53.21    1.38
   5 -11   1   10.72    0.45
  -5 -11  -1   12.07    0.44
   5  11   1   12.62    0.40
  -5  11  -1   13.97    0.50
   5  11   1   13.06    0.47
  -6 -11  -1    4.15    0.26
   6 -11   1    4.58    0.27
   6  11   1    4.46    0.30
  -6  11  -1    4.33    0.30
  -7 -11  -1   11.89    0.46
   7 -11   1   11.84    0.47
   7  11   1   11.08    0.48
  -7  11  -1   12.00    0.50
  -8 -11  -1    5.76    0.31
   8 -11   1    6.64    0.37
  -8  11  -1    6.14    0.35
   8  11   1    6.30    0.36
   9 -11   1   16.17    0.61
  -9 -11  -1   15.59    0.57
   9  11   1   15.34    0.62
  -9  11  -1   15.52    0.61
  10 -11   1    4.12    0.35
 -10 -11  -1    4.45    0.31
 -10  11  -1    4.68    0.35
  10  11   1    4.58    0.37
 -11 -11  -1   13.20    0.53
  11 -11   1   12.50    0.58
 -11  11  -1   12.41    0.57
  11  11   1   12.79    0.60
  12 -11   1    0.00    0.18
 -12 -11  -1    0.14    0.14
 -12  11  -1    0.08    0.17
  12  11   1    0.01    0.20
 -13 -11  -1    2.09    0.24
 -13 -12   1    0.34    0.16
 -13  12   1    0.00    0.18
 -12 -12   1    0.74    0.18
  12 -12  -1    0.48    0.21
  12  12  -1    0.66    0.21
 -11 -12   1    7.30    0.39
  11 -12  -1    7.31    0.43
  11  12  -1    7.30    0.47
 -10 -12   1    6.12    0.35
  10 -12  -1    5.34    0.39
  10 -12  -1    6.09    0.37
  10  12  -1    5.86    0.39
  -9 -12   1    4.75    0.29
   9 -12  -1    5.00    0.33
   9 -12  -1    5.14    0.34
   9  12  -1    4.56    0.34
  -8 -12   1   11.51    0.47
   8 -12  -1   12.94    0.54
   8 -12  -1   11.79    0.50
   8  12  -1   12.03    0.51
  -7 -12   1   27.21    0.85
   7 -12  -1   27.58    0.86
   7 -12  -1   27.46    0.89
   7  12  -1   27.85    0.88
   6 -12  -1    6.36    0.34
  -6 -12   1    6.27    0.32
   6 -12  -1    6.36    0.36
   6  12  -1    6.47    0.35
   5 -12  -1   17.90    0.64
   5 -12  -1   18.42    0.61
  -5 -12   1   17.67    0.59
   5  12  -1   18.60    0.62
   5  12  -1   18.64    0.56
   4 -12  -1    2.97    0.22
   4 -12  -1    3.47    0.16
   4 -12  -1    3.68    0.25
  -4 -12   1    2.65    0.20
  -4 -12   1    3.41    0.23
   4  12  -1    3.25    0.21
   3 -12  -1    6.44    0.25
  -3 -12   1    6.32    0.30
   3 -12  -1    7.03    0.31
  -3 -12   1    6.36    0.30
   3  12  -1    6.23    0.28
   2 -12  -1   23.29    0.74
  -2 -12   1   26.85    0.76
   2 -12  -1   25.86    0.71
   2  12  -1   26.12    0.76
  -2  12   1   26.35    0.79
   1 -12  -1   15.51    0.47
  -1 -12   1   15.46    0.49
   1 -12  -1   12.70    0.48
  -1  12   1   15.98    0.52
   1  12  -1   15.90    0.51
   0 -12  -1    1.09    0.12
   0 -12   1    1.40    0.13
   0 -12  -1    0.62    0.11
   0  12  -1    1.31    0.15
   0  12   1    1.07    0.14
  -1 -12  -1   12.46    0.42
   1 -12   1   12.26    0.41
  -1  12  -1   12.41    0.46
   1  12   1   12.98    0.44
   2 -12   1    1.82    0.15
  -2 -12  -1    1.89    0.18
   2  12   1    2.03    0.17
  -2  12  -1    1.81    0.19
   3 -12   1   13.46    0.43
  -3 -12  -1   13.76    0.48
  -3  12  -1   14.30    0.52
   3  12   1   14.26    0.45
   4 -12   1   69.41    1.91
   4 -12   1   76.97    1.84
  -4 -12  -1   76.79    1.92
   4  12   1   73.66    1.86
   4  12   1   76.73    1.94
  -4  12  -1   67.39    1.94
  -5 -12  -1   17.83    0.60
   5 -12   1   17.77    0.60
  -5  12  -1   18.27    0.64
   5  12   1   17.86    0.62
   6 -12   1   20.62    0.66
  -6 -12  -1   19.01    0.63
   6  12   1   18.43    0.66
  -6  12  -1   18.58    0.68
   7 -12   1    5.34    0.33
  -7 -12  -1    5.09    0.31
   7  12   1    5.20    0.34
  -7  12  -1    4.99    0.33
   8 -12   1   29.98    0.94
  -8 -12  -1   30.58    0.92
  -8  12  -1   29.69    0.96
   8  12   1   30.17    0.97
  -9 -12  -1    0.66    0.15
   9 -12   1    1.06    0.20
   9  12   1    0.99    0.20
  -9  12  -1    0.82    0.19
 -10 -12  -1    0.90    0.18
  10 -12   1    1.13    0.21
  10  12   1    0.79    0.20
 -10  12  -1    0.93    0.21
 -11 -12  -1    1.07    0.20
  11 -12   1    1.01    0.21
  11  12   1    1.55    0.26
 -11  12  -1    1.07    0.22
 -12 -12  -1    8.09    0.43
  12 -12   1    8.11    0.49
  12  12   1    8.07    0.53
 -12  12  -1    8.43    0.50
 -13 -12  -1    3.00    0.28
 -13  12  -1    1.94    0.37
 -13 -13   1    1.69    0.23
 -13  13   1    1.01    0.35
  12 -13  -1    2.90    0.32
 -12 -13   1    3.69    0.33
  12  13  -1    2.63    0.33
 -12  13   1    2.94    0.32
 -11 -13   1    0.22    0.15
  11 -13  -1    0.13    0.17
  11  13  -1    0.24    0.18
  10 -13  -1   11.36    0.54
 -10 -13   1   11.83    0.51
  10  13  -1   12.27    0.58
   9 -13  -1    0.91    0.20
  -9 -13   1    1.19    0.19
   9 -13  -1    1.03    0.22
   9  13  -1    1.00    0.20
   8 -13  -1   20.35    0.77
   8 -13  -1   22.26    0.75
  -8 -13   1   21.22    0.72
   8  13  -1   22.21    0.77
  -7 -13   1    0.89    0.16
   7 -13  -1    1.16    0.20
   7 -13  -1    0.86    0.18
   7  13  -1    0.83    0.17
   6 -13  -1   25.60    0.85
   6 -13  -1   26.04    0.82
  -6 -13   1   24.92    0.80
   6  13  -1   26.45    0.83
  -5 -13   1    7.47    0.34
   5 -13  -1    7.01    0.34
   5 -13  -1    6.68    0.36
   5  13  -1    7.00    0.36
   5  13  -1    7.00    0.31
  -4 -13   1   21.85    0.69
   4 -13  -1   21.76    0.69
  -4 -13   1   21.68    0.68
   4  13  -1   21.47    0.66
   3 -13  -1   79.07    2.02
   3 -13  -1   78.23    1.95
  -3 -13   1   77.79    2.02
  -3 -13   1   76.60    2.01
   3  13  -1   76.84    2.00
  -3  13   1   77.39    2.05
  -2 -13   1   26.89    0.79
   2 -13  -1   26.90    0.79
  -2 -13   1   26.27    0.77
   2 -13  -1   26.60    0.74
  -2  13   1   24.37    0.80
   2  13  -1   25.79    0.78
   1 -13  -1   13.56    0.47
  -1 -13   1   10.99    0.45
  -1 -13   1   13.29    0.46
   1 -13  -1   13.70    0.44
  -1  13   1   14.25    0.50
   1  13  -1   14.42    0.49
   0 -13  -1   15.85    0.50
   0 -13   1   15.04    0.50
   0 -13  -1   14.01    0.51
   0  13   1   15.51    0.53
   0  13  -1   16.99    0.55
  -1 -13  -1   50.31    1.29
   1 -13   1   49.71    1.28
  -1 -13  -1   43.52    1.29
  -1  13  -1   47.53    1.33
   1  13   1   50.07    1.31
   2 -13   1    1.33    0.16
  -2 -13  -1    1.27    0.16
  -2 -13  -1    1.25    0.15
   2 -13   1    1.44    0.14
  -2  13  -1    1.12    0.17
   2  13   1    1.12    0.15
  -3 -13  -1   30.29    0.89
   3 -13   1   29.92    0.82
   3 -13   1   29.94    0.88
  -3 -13  -1   29.10    0.87
   3  13   1   31.18    0.86
  -3  13  -1   29.52    0.92
  -4 -13  -1   91.86    2.31
   4 -13   1   90.19    2.32
   4 -13   1   91.06    2.23
  -4  13  -1   86.61    2.35
   4  13   1   88.10    2.26
   5 -13   1    1.60    0.19
  -5 -13  -1    2.15    0.21
   5  13   1    1.81    0.20
  -5  13  -1    2.02    0.23
   6 -13   1    2.45    0.23
  -6 -13  -1    2.44    0.23
   6  13   1    2.99    0.25
  -6  13  -1    2.55    0.25
  -7 -13  -1    1.58    0.19
   7 -13   1    2.08    0.22
   7  13   1    1.79    0.21
  -7  13  -1    2.08    0.23
  -8 -13  -1    2.61    0.24
   8 -13   1    2.75    0.27
   8  13   1    2.99    0.28
  -8  13  -1    3.12    0.31
   9 -13   1    9.23    0.47
  -9 -13  -1    9.69    0.44
   9  13   1    9.01    0.48
  -9  13  -1    8.47    0.47
  10 -13   1    0.45    0.17
 -10 -13  -1    0.59    0.17
 -10  13  -1    0.60    0.19
  10  13   1    0.37    0.20
 -11 -13  -1    0.67    0.18
  11 -13   1    0.93    0.20
  11  13   1    0.53    0.20
 -11  13  -1    0.37    0.18
 -12 -13  -1    1.59    0.23
  12 -13   1    1.35    0.30
 -12  13  -1    1.65    0.27
  12  13   1    1.74    0.32
 -13 -13  -1    5.41    0.50
 -13  13  -1    5.70    0.64
 -12 -14   1   20.66    0.76
 -12  14   1   19.81    0.82
 -11 -14   1   16.35    0.64
  11 -14  -1   17.01    0.68
 -11  14   1   14.69    0.68
  11  14  -1   16.06    0.70
  10 -14  -1    6.71    0.43
 -10 -14   1    7.00    0.40
 -10  14   1    7.27    0.46
  10  14  -1    6.92    0.43
  -9 -14   1   11.71    0.49
   9 -14  -1   10.80    0.52
   9  14  -1   12.13    0.56
  -8 -14   1   10.13    0.47
   8 -14  -1   10.93    0.50
   8  14  -1   11.16    0.52
  -7 -14   1   26.06    0.84
   7 -14  -1   25.75    0.85
   7  14  -1   26.38    0.86
   6 -14  -1   64.27    1.75
  -6 -14   1   63.01    1.73
   6  14  -1   65.01    1.77
  -5 -14   1    5.96    0.34
   5 -14  -1    6.94    0.34
   5  14  -1    6.60    0.35
  -5  14   1    6.98    0.39
  -4 -14   1    5.92    0.32
   4 -14  -1    6.24    0.33
  -4 -14   1    6.16    0.33
   4  14  -1    6.49    0.31
  -4  14   1    6.28    0.36
  -3 -14   1    2.78    0.23
   3 -14  -1    2.36    0.21
  -3 -14   1    2.56    0.22
   3 -14  -1    2.71    0.18
  -3  14   1    2.78    0.26
   3  14  -1    2.58    0.21
   2 -14  -1   11.84    0.41
  -2 -14   1   12.10    0.45
  -2 -14   1   11.66    0.46
   2 -14  -1   12.15    0.46
   2  14  -1   12.07    0.46
  -2  14   1   11.57    0.48
   1 -14  -1   16.99    0.54
  -1 -14   1   17.33    0.56
   1 -14  -1   17.68    0.58
  -1 -14   1   17.26    0.58
   1  14  -1   16.96    0.59
  -1  14   1   16.25    0.58
   0 -14   1    4.61    0.26
   0 -14  -1    4.79    0.27
   0 -14  -1    5.01    0.26
   0 -14   1    4.48    0.28
   0  14  -1    5.31    0.30
   0  14   1    4.71    0.29
  -1 -14  -1   79.59    1.99
   1 -14   1   76.79    1.98
  -1 -14  -1   72.91    1.94
   1 -14   1   73.91    1.93
  -1  14  -1   75.11    2.00
   1  14   1   74.83    1.97
   2 -14   1   30.74    0.90
  -2 -14  -1   30.74    0.90
   2 -14   1   30.60    0.85
  -2 -14  -1   29.91    0.88
   2  14   1   30.19    0.89
  -2  14  -1   30.03    0.93
  -3 -14  -1    0.84    0.15
   3 -14   1    0.99    0.12
   3 -14   1    0.80    0.15
  -3 -14  -1    0.94    0.16
   3  14   1    0.87    0.14
  -3  14  -1    0.86    0.16
   4 -14   1   20.03    0.67
  -4 -14  -1   20.19    0.67
   4  14   1   20.18    0.65
  -4  14  -1   20.64    0.72
   5 -14   1   30.77    0.95
  -5 -14  -1   31.52    0.94
   5  14   1   31.73    0.97
  -5  14  -1   31.11    0.99
  -6 -14  -1    2.03    0.21
   6 -14   1    1.83    0.22
   6  14   1    2.14    0.23
  -6  14  -1    1.76    0.23
  -7 -14  -1   11.15    0.48
   7 -14   1   11.54    0.51
  -7  14  -1   12.84    0.55
   7  14   1   11.61    0.51
  -8 -14  -1    7.68    0.39
   8 -14   1    7.96    0.43
  -8  14  -1    7.64    0.45
   8  14   1    8.28    0.45
  -9 -14  -1    2.14    0.23
   9 -14   1    2.00    0.24
   9  14   1    2.30    0.27
  -9  14  -1    2.69    0.29
  10 -14   1    0.42    0.17
 -10 -14  -1    0.32    0.16
 -10  14  -1    0.13    0.17
  10  14   1    0.28    0.18
  11 -14   1    0.79    0.22
 -11 -14  -1    1.03    0.21
  11  14   1    0.77    0.24
 -11  14  -1    0.69    0.23
 -12 -14  -1    1.40    0.23
 -12  14  -1    1.17    0.25
 -11 -15   1    2.13    0.25
  11 -15  -1    2.06    0.28
  11  15  -1    1.93    0.30
 -11  15   1    2.21    0.30
  10 -15  -1    1.27    0.24
 -10 -15   1    1.45    0.22
  10  15  -1    1.43    0.25
 -10  15   1    1.48    0.26
  -9 -15   1    1.40    0.21
   9 -15  -1    1.79    0.26
   9  15  -1    1.90    0.26
  -9  15   1    1.54    0.25
  -8 -15   1    1.84    0.23
   8 -15  -1    1.52    0.23
  -8  15   1    1.80    0.26
   8  15  -1    1.50    0.24
   7 -15  -1    0.49    0.17
  -7 -15   1    0.58    0.16
   7  15  -1    0.83    0.20
  -7  15   1    0.66    0.19
   6 -15  -1   11.67    0.50
  -6 -15   1   11.49    0.48
  -6  15   1   12.03    0.54
   6  15  -1   11.57    0.51
  -5 -15   1    6.30    0.34
   5 -15  -1    6.29    0.35
   5  15  -1    5.62    0.36
  -5  15   1    5.73    0.38
  -4 -15   1    3.16    0.25
  -4 -15   1    3.15    0.26
   4 -15  -1    3.21    0.27
   4  15  -1    3.16    0.25
  -4  15   1    3.89    0.32
  -3 -15   1    4.08    0.29
   3 -15  -1    4.77    0.30
  -3 -15   1    4.23    0.26
   3 -15  -1    4.06    0.22
   3  15  -1    4.57    0.28
  -3  15   1    3.85    0.31
   2 -15  -1   14.15    0.47
  -2 -15   1   14.00    0.53
   2 -15  -1   14.38    0.53
  -2 -15   1   13.72    0.51
   2  15  -1   13.74    0.52
  -2  15   1   14.59    0.56
  -1 -15   1   11.52    0.43
   1 -15  -1   11.48    0.41
   1 -15  -1   11.56    0.45
  -1 -15   1   10.80    0.45
  -1  15   1   10.56    0.46
   1  15  -1   10.49    0.45
   0 -15   1   16.42    0.58
   0 -15   1   17.44    0.57
   0 -15  -1   16.44    0.56
   0 -15  -1   17.32    0.59
   0  15   1   17.47    0.61
   0  15  -1   17.47    0.61
  -1 -15  -1    2.21    0.21
   1 -15   1    2.06    0.19
  -1 -15  -1    2.48    0.21
   1 -15   1    2.46    0.22
  -1  15  -1    2.50    0.24
   1  15   1    2.59    0.23
   2 -15   1   15.89    0.51
   2 -15   1   15.45    0.55
  -2 -15  -1   15.48    0.54
  -2 -15  -1   16.03    0.55
  -2  15  -1   14.24    0.58
   2  15   1   14.54    0.53
   3 -15   1    3.30    0.26
  -3 -15  -1    3.38    0.26
   3 -15   1    2.93    0.20
  -3 -15  -1    3.18    0.25
  -3  15  -1    3.38    0.29
   3  15   1    3.03    0.23
  -4 -15  -1    2.85    0.26
   4 -15   1    3.12    0.27
  -4  15  -1    3.39    0.31
   5 -15   1    3.96    0.28
  -5 -15  -1    4.20    0.29
  -5  15  -1    3.98    0.31
   5  15   1    3.59    0.30
   6 -15   1   25.56    0.84
  -6 -15  -1   25.60    0.83
   6  15   1   25.18    0.85
  -6  15  -1   26.78    0.90
   7 -15   1    8.08    0.43
  -7 -15  -1    7.63    0.40
  -7  15  -1    7.74    0.46
   7  15   1    7.67    0.43
   8 -15   1   12.62    0.55
  -8 -15  -1   11.39    0.52
   8  15   1   11.73    0.54
  -8  15  -1   12.52    0.58
  -9 -15  -1    4.46    0.34
   9 -15   1    3.69    0.34
  -9  15  -1    3.81    0.37
   9  15   1    4.46    0.38
  10 -15   1   10.59    0.53
 -10 -15  -1   10.06    0.49
  10  15   1    9.94    0.53
 -10  15  -1    9.36    0.54
  11 -15   1   10.67    0.82
 -11 -15  -1   10.72    0.52
  11  15   1    9.49    0.79
 -11  15  -1   10.31    0.58
 -11 -16   1    3.17    0.48
  10 -16  -1    9.56    0.51
 -10 -16   1   10.12    0.50
 -10  16   1    9.56    0.56
  10  16  -1   10.63    0.57
   9 -16  -1    2.54    0.28
  -9 -16   1    2.41    0.25
   9  16  -1    2.69    0.30
  -9  16   1    2.57    0.32
   8 -16  -1    4.62    0.37
  -8 -16   1    3.95    0.31
   8  16  -1    4.72    0.36
  -8  16   1    4.92    0.39
   7 -16  -1   12.16    0.54
  -7 -16   1   11.93    0.52
   7  16  -1   13.08    0.57
  -7  16   1   11.86    0.56
   6 -16  -1   10.24    0.46
  -6 -16   1    9.16    0.45
   6  16  -1   10.06    0.48
  -6  16   1    9.16    0.50
  -5 -16   1    1.27    0.19
   5 -16  -1    1.44    0.20
  -5  16   1    1.25    0.22
   5  16  -1    1.45    0.20
  -4 -16   1   25.69    0.82
  -4 -16   1   24.54    0.80
   4 -16  -1   25.83    0.83
   4  16  -1   25.40    0.79
  -4  16   1   25.07    0.86
   3 -16  -1   29.52    0.91
  -3 -16   1   30.75    0.90
  -3 -16   1   28.27    0.90
  -3  16   1   30.46    0.96
   3  16  -1   28.18    0.89
  -2 -16   1    6.53    0.34
  -2 -16   1    7.02    0.36
   2 -16  -1    6.81    0.36
   2 -16  -1    6.95    0.31
  -2  16   1    7.20    0.39
   2  16  -1    7.25    0.37
  -1 -16   1    1.34    0.19
   1 -16  -1    1.34    0.18
  -1 -16   1    1.05    0.16
   1 -16  -1    1.29    0.16
  -1  16   1    1.19    0.19
   1  16  -1    1.35    0.19
   0 -16  -1   13.31    0.50
   0 -16  -1   12.68    0.47
   0 -16   1   12.99    0.48
   0 -16   1   13.32    0.51
   0  16  -1   12.76    0.52
   0  16   1   12.71    0.51
   1 -16   1   29.22    0.90
  -1 -16  -1   28.81    0.89
  -1 -16  -1   29.92    0.88
   1 -16   1   28.84    0.85
   1  16   1   28.66    0.89
  -1  16  -1   29.01    0.93
   2 -16   1    9.07    0.36
  -2 -16  -1    8.99    0.40
  -2 -16  -1    8.25    0.38
   2 -16   1    8.52    0.41
   2  16   1    8.60    0.39
  -2  16  -1    8.57    0.44
  -3 -16  -1   18.00    0.62
   3 -16   1   18.05    0.61
   3 -16   1   18.24    0.63
  -3 -16  -1   17.64    0.64
   3  16   1   17.23    0.60
  -3  16  -1   18.07    0.68
  -4 -16  -1   12.79    0.52
   4 -16   1   13.99    0.55
  -4  16  -1   14.35    0.58
   5 -16   1   30.05    0.95
  -5 -16  -1   30.44    0.93
  -5  16  -1   30.51    1.00
   5  16   1   28.82    0.96
   6 -16   1    6.10    0.38
  -6 -16  -1    6.06    0.36
  -6  16  -1    5.90    0.41
   6  16   1    5.93    0.37
  -7 -16  -1    4.51    0.33
   7 -16   1    4.49    0.34
   7  16   1    4.20    0.33
  -7  16  -1    4.66    0.38
   8 -16   1    3.33    0.32
  -8 -16  -1    3.93    0.33
  -8  16  -1    3.42    0.35
   8  16   1    3.54    0.34
   9 -16   1    1.30    0.24
  -9 -16  -1    0.72    0.19
  -9  16  -1    1.61    0.27
   9  16   1    1.43    0.25
 -10 -16  -1    4.42    0.36
  10 -16   1    5.15    0.42
 -10  16  -1    4.42    0.42
  10  16   1    4.87    0.42
 -10 -17   1    2.07    0.31
 -10  17   1    1.86    0.45
   9 -17  -1    1.45    0.24
  -9 -17   1    1.04    0.22
   9  17  -1    1.28    0.23
  -9  17   1    0.83    0.22
   8 -17  -1    0.43    0.18
  -8 -17   1    0.84    0.19
   8  17  -1    0.44    0.18
  -8  17   1    0.66    0.23
  -7 -17   1   15.28    0.60
   7 -17  -1   15.22    0.63
  -7  17   1   15.89    0.68
   7  17  -1   14.75    0.64
   6 -17  -1    5.96    0.38
  -6 -17   1    5.94    0.37
  -6  17   1    6.02    0.42
   6  17  -1    6.07    0.40
   5 -17  -1    1.37    0.20
  -5 -17   1    1.16    0.19
  -5  17   1    1.21    0.22
   5  17  -1    1.44    0.22
  -4 -17   1    7.24    0.39
   4 -17  -1    7.71    0.41
  -4 -17   1    8.32    0.42
  -4  17   1    7.92    0.45
  -3 -17   1   14.38    0.56
  -3 -17   1   13.99    0.55
   3 -17  -1   14.51    0.57
   3  17  -1   14.45    0.55
  -3  17   1   14.19    0.60
  -2 -17   1   11.02    0.46
   2 -17  -1   12.14    0.44
   2 -17  -1   11.29    0.48
  -2 -17   1   11.20    0.48
   2  17  -1   11.25    0.48
  -2  17   1   11.47    0.50
   1 -17  -1   14.12    0.51
  -1 -17   1   13.92    0.55
   1 -17  -1   13.69    0.54
  -1 -17   1   14.31    0.52
   1  17  -1   14.22    0.56
  -1  17   1   14.08    0.57
   0 -17   1   23.70    0.80
   0 -17  -1   23.89    0.77
   0 -17  -1   24.70    0.81
   0 -17   1   24.68    0.77
   0  17   1   26.13    0.83
   0  17  -1   25.14    0.83
  -1 -17  -1    1.77    0.20
  -1 -17  -1    1.70    0.20
   1 -17   1    1.92    0.22
   1 -17   1    1.77    0.18
  -1  17  -1    1.70    0.23
   1  17   1    1.51    0.20
   2 -17   1   19.74    0.69
  -2 -17  -1   19.66    0.67
  -2 -17  -1   20.47    0.70
   2 -17   1   20.29    0.64
  -2  17  -1   20.69    0.74
   2  17   1   19.15    0.67
  -3 -17  -1    9.66    0.43
  -3 -17  -1    8.56    0.41
   3 -17   1    9.30    0.44
  -3  17  -1    9.12    0.48
   4 -17   1    3.36    0.30
  -4 -17  -1    3.88    0.30
  -4  17  -1    3.37    0.33
  -5 -17  -1    3.68    0.31
   5 -17   1    4.18    0.33
   5  17   1    3.96    0.34
  -5  17  -1    3.56    0.35
   6 -17   1    3.35    0.29
  -6 -17  -1    3.30    0.30
  -6  17  -1    3.06    0.32
   6  17   1    3.52    0.32
   7 -17   1    8.80    0.47
  -7 -17  -1    8.39    0.45
   7  17   1    8.74    0.47
  -7  17  -1    9.02    0.51
  -8 -17  -1    3.11    0.30
   8 -17   1    2.59    0.27
   8  17   1    2.10    0.28
  -8  17  -1    2.54    0.33
   9 -17   1    0.51    0.21
  -9 -17  -1    0.66    0.20
   9  17   1    0.72    0.22
  -9  17  -1    0.73    0.24
  -9 -18   1    4.68    0.38
   9 -18  -1    5.09    0.48
  -9  18   1    4.95    0.51
   9  18  -1    4.19    0.48
  -8 -18   1    2.17    0.26
   8 -18  -1    2.15    0.27
   8  18  -1    2.98    0.31
  -8  18   1    2.77    0.33
   7 -18  -1    6.49    0.41
  -7 -18   1    6.33    0.40
   7  18  -1    6.20    0.41
  -7  18   1    5.54    0.44
  -6 -18   1    0.35    0.16
   6 -18  -1    0.50    0.19
  -6  18   1    0.73    0.22
   6  18  -1    0.83    0.21
  -5 -18   1   10.97    0.50
   5 -18  -1   11.25    0.51
  -5  18   1   10.77    0.54
   5  18  -1   10.50    0.50
  -4 -18   1    1.72    0.21
   4 -18  -1    1.67    0.23
  -4 -18   1    1.70    0.21
  -4  18   1    1.67    0.26
  -3 -18   1    0.77    0.17
  -3 -18   1    0.50    0.16
   3 -18  -1    0.65    0.18
   3  18  -1    0.80    0.17
  -3  18   1    0.63    0.20
   2 -18  -1    1.05    0.18
  -2 -18   1    1.05    0.18
  -2 -18   1    0.94    0.17
   2  18  -1    0.90    0.18
  -2  18   1    0.77    0.19
  -1 -18   1    1.61    0.20
  -1 -18   1    1.36    0.19
   1 -18  -1    1.66    0.18
   1 -18  -1    1.52    0.20
  -1  18   1    1.43    0.22
   1  18  -1    1.52    0.22
   0 -18  -1    3.38    0.27
   0 -18   1    4.47    0.32
   0 -18  -1    3.89    0.31
   0 -18   1    4.09    0.28
   0  18   1    3.73    0.31
   0  18  -1    3.86    0.33
   1 -18   1    0.52    0.14
   1 -18   1    0.99    0.16
  -1 -18  -1    0.79    0.16
  -1 -18  -1    0.85    0.17
   1  18   1    0.77    0.18
  -1  18  -1    0.87    0.20
   2 -18   1    1.11    0.16
  -2 -18  -1    1.09    0.19
   2 -18   1    0.82    0.16
  -2 -18  -1    0.79    0.17
   2  18   1    0.86    0.17
  -2  18  -1    0.83    0.20
  -3 -18  -1    3.91    0.32
  -3 -18  -1    3.74    0.30
   3 -18   1    3.74    0.31
  -3  18  -1    3.55    0.35
   4 -18   1    7.41    0.41
  -4 -18  -1    7.18    0.39
  -4  18  -1    7.08    0.45
   5 -18   1    0.17    0.16
  -5 -18  -1    0.34    0.16
   5  18   1    0.45    0.18
  -5  18  -1    0.44    0.19
  -6 -18  -1    6.09    0.38
   6 -18   1    5.30    0.38
  -6  18  -1    6.00    0.44
   6  18   1    5.37    0.40
   7 -18   1    7.51    0.43
  -7 -18  -1    7.75    0.43
  -7  18  -1    6.87    0.46
   7  18   1    6.76    0.46
  -8 -18  -1    9.95    0.51
   8 -18   1   10.49    0.54
   8  18   1   11.30    0.57
  -8  18  -1    9.91    0.58
  -9  18  -1   -0.35    0.32
   8 -19  -1    0.50    0.24
  -8 -19   1    0.38    0.21
   8  19  -1    0.57    0.24
  -8  19   1    0.52    0.26
   7 -19  -1    0.50    0.18
  -7 -19   1    0.34    0.18
  -7  19   1    0.85    0.24
   7  19  -1    0.64    0.21
   6 -19  -1    2.50    0.28
  -6 -19   1    2.92    0.29
  -6  19   1    2.50    0.31
   6  19  -1    2.50    0.29
  -5 -19   1    2.34    0.26
   5 -19  -1    1.74    0.24
  -5  19   1    1.53    0.27
   5  19  -1    1.93    0.26
  -4 -19   1   12.76    0.57
  -4 -19   1   12.52    0.54
   4 -19  -1   12.87    0.55
  -4  19   1   12.08    0.59
  -3 -19   1   15.44    0.63
   3 -19  -1   15.86    0.63
  -3 -19   1   16.07    0.61
  -3  19   1   15.68    0.67
   2 -19  -1    6.62    0.39
  -2 -19   1    6.15    0.37
  -2 -19   1    6.27    0.39
   2  19  -1    5.99    0.39
  -2  19   1    5.52    0.40
  -1 -19   1    2.78    0.25
   1 -19  -1    2.43    0.24
  -1 -19   1    2.16    0.24
   1 -19  -1    2.76    0.26
   1  19  -1    2.82    0.29
  -1  19   1    2.83    0.29
   0 -19   1    8.53    0.42
   0 -19  -1    8.54    0.44
   0 -19   1    8.10    0.40
   0 -19  -1    8.09    0.39
   0  19  -1    7.93    0.44
   0  19   1    8.07    0.45
   1 -19   1   11.85    0.52
   1 -19   1   12.41    0.49
  -1 -19  -1   12.35    0.52
  -1 -19  -1   13.09    0.52
   1  19   1   12.14    0.53
  -1  19  -1   12.01    0.56
  -2 -19  -1    0.18    0.16
   2 -19   1   -0.12    0.14
  -2 -19  -1   -0.13    0.12
  -2  19  -1    0.19    0.18
  -3 -19  -1    5.42    0.35
  -3 -19  -1    4.59    0.34
   3 -19   1    5.03    0.36
  -3  19  -1    5.17    0.40
   4 -19   1    2.75    0.28
  -4 -19  -1    2.62    0.27
  -4  19  -1    2.59    0.32
   5 -19   1   -0.21    0.12
  -5 -19  -1    0.00    0.15
  -5  19  -1   -0.08    0.17
   5  19   1    0.05    0.14
   6 -19   1    0.32    0.18
  -6 -19  -1    0.53    0.18
   6  19   1    0.61    0.21
  -6  19  -1    0.33    0.21
   7 -19   1    8.92    0.49
  -7 -19  -1    9.52    0.50
   7  19   1    9.70    0.54
  -7  19  -1    9.43    0.56
   7 -20  -1    1.80    0.43
  -7 -20   1    1.55    0.36
   7  20  -1    2.20    0.45
  -7  20   1    2.00    0.48
   6 -20  -1    0.47    0.18
  -6 -20   1    0.57    0.20
   6  20  -1    0.63    0.20
  -6  20   1    0.62    0.23
  -5 -20   1   10.04    0.50
   5 -20  -1    9.84    0.51
   5  20  -1    9.63    0.51
  -5  20   1    9.81    0.56
   4 -20  -1    2.23    0.27
  -4 -20   1    2.93    0.29
  -4  20   1    1.70    0.26
  -3 -20   1    6.08    0.38
  -3 -20   1    6.11    0.40
   3 -20  -1    5.68    0.39
  -3  20   1    5.59    0.43
   2 -20  -1    0.76    0.18
  -2 -20   1    0.94    0.19
  -2 -20   1    0.86    0.20
  -2  20   1    0.84    0.23
   2  20  -1    0.76    0.20
  -1 -20   1    0.09    0.16
  -1 -20   1    0.09    0.14
   1 -20  -1    0.07    0.14
  -1  20   1    0.29    0.18
   1  20  -1    0.08    0.17
   0 -20  -1    2.41    0.27
   0 -20   1    2.05    0.22
   0 -20  -1    2.37    0.24
   0 -20   1    1.95    0.25
   0  20  -1    1.74    0.25
   0  20   1    2.09    0.26
   1 -20   1    2.23    0.23
   1 -20   1    1.98    0.25
  -1 -20  -1    2.28    0.25
  -1 -20  -1    2.42    0.25
  -1  20  -1    2.24    0.28
   1  20   1    1.97    0.25
  -2 -20  -1    4.53    0.33
   2 -20   1    4.96    0.36
  -2 -20  -1    4.74    0.36
  -2  20  -1    5.04    0.40
  -3 -20  -1    0.24    0.17
  -3 -20  -1    0.39    0.16
   3 -20   1    0.34    0.17
  -3  20  -1    0.08    0.19
  -4 -20  -1    2.74    0.28
   4 -20   1    2.68    0.27
  -4  20  -1    2.72    0.32
  -5 -20  -1    1.70    0.24
   5 -20   1    1.55    0.25
  -5  20  -1    1.75    0.30
   5  20   1    1.92    0.28
   6 -20   1   11.57    0.56
  -6 -20  -1   12.05    0.56
   6  20   1   13.20    0.62
  -6  20  -1   12.15    0.64
  -5 -21   1    1.96    0.26
   5 -21  -1    1.99    0.28
  -5  21   1    2.34    0.33
   5  21  -1    2.26    0.29
  -4 -21   1    3.18    0.31
   4 -21  -1    3.03    0.31
  -4  21   1    2.87    0.33
  -3 -21   1    0.12    0.16
   3 -21  -1    0.00    0.15
  -3 -21   1    0.17    0.18
  -3  21   1    0.24    0.20
  -2 -21   1   16.50    0.67
  -2 -21   1   16.65    0.65
   2 -21  -1   16.12    0.66
  -2  21   1   16.12    0.71
  -1 -21   1    3.93    0.33
  -1 -21   1    3.86    0.32
   1 -21  -1    4.40    0.34
   1  21  -1    3.82    0.37
  -1  21   1    4.44    0.40
   0 -21  -1    7.45    0.39
   0 -21   1    7.19    0.44
   0 -21  -1    7.11    0.43
   0 -21   1    7.43    0.40
   0  21  -1    7.34    0.47
   0  21   1    7.28    0.46
  -1 -21  -1    4.74    0.37
  -1 -21  -1    3.52    0.31
   1 -21   1    4.14    0.36
  -1  21  -1    3.99    0.38
  -2 -21  -1    3.68    0.32
  -2 -21  -1    3.35    0.31
   2 -21   1    2.86    0.28
  -2  21  -1    3.58    0.36
  -3 -21  -1    3.19    0.30
   3 -21   1    2.79    0.30
  -3 -21  -1    3.27    0.32
  -3  21  -1    3.05    0.35
  -4 -21  -1    1.33    0.22
   4 -21   1    1.17    0.23
   4  21   1    1.82    0.27
  -4  21  -1    1.72    0.30
  -5 -21  -1    5.03    0.39
   5 -21   1    4.72    0.42
   5  21   1    4.65    0.42
  -5  21  -1    4.62    0.45
  -4 -22   1    1.79    0.30
  -4  22   1    2.47    0.35
  -3 -22   1    4.54    0.37
   3 -22  -1    4.48    0.41
  -3 -22   1    4.62    0.42
  -3  22   1    4.67    0.43
  -2 -22   1   11.86    0.55
   2 -22  -1   13.11    0.59
  -2 -22   1   11.60    0.58
  -2  22   1   10.37    0.59
  -1 -22   1    2.38    0.27
   1 -22  -1    1.77    0.26
  -1 -22   1    1.80    0.27
   1  22  -1    1.66    0.27
  -1  22   1    1.83    0.28
   0 -22  -1    0.44    0.18
   0 -22   1    0.67    0.20
   0 -22   1    0.14    0.19
   0  22  -1    0.40    0.21
   0  22   1    0.19    0.20
   1 -22   1    1.51    0.25
  -1 -22  -1    1.38    0.24
  -1 -22  -1    1.28    0.22
  -1  22  -1    1.21    0.26
  -2 -22  -1    0.41    0.18
  -2 -22  -1    0.37    0.18
   2 -22   1    0.46    0.20
  -2  22  -1    0.09    0.21
  -3 -22  -1    4.96    0.39
  -3 -22  -1    4.70    0.56
   3 -22   1    5.43    0.59
  -3  22  -1    5.48    0.47
  -4 -22  -1    3.16    0.37
  -2 -23   1    7.08    0.45
  -2  23   1    6.23    0.48
  -1 -23   1    2.17    0.26
  -1  23   1    2.23    0.30
   0  23  -1    1.06    0.25
  -1 -23  -1    4.99    0.37
  -1  23  -1    5.05    0.45
  -2 -23  -1    1.24    0.23
  -2  23  -1    1.00    0.36
  15   0  -2    5.03    0.46
  14   0  -2    1.55    0.28
  13   0  -2   12.89    0.59
  12   0  -2   11.97    0.52
  11   0  -2    4.46    0.31
  10   0  -2    1.02    0.13
  10   0  -2    0.86    0.17
  -9   0   2   -0.01    0.06
   9   0  -2    0.05    0.12
   9   0  -2    0.12    0.08
  -8   0   2    0.12    0.05
   8   0  -2    0.05    0.07
   8   0  -2    0.05    0.12
   7   0  -2    6.15    0.29
   7   0  -2    6.01    0.25
  -7   0   2    6.47    0.21
   6   0  -2   13.80    0.42
   6   0  -2   14.11    0.45
  -6   0   2   13.69    0.38
   5   0  -2   33.29    0.88
   5   0  -2   33.15    0.87
  -5   0   2   33.35    0.83
  -4   0   2    0.73    0.05
   4   0  -2    0.87    0.08
   3   0  -2    3.83    0.15
   3   0  -2    3.86    0.15
  -3   0   2    4.25    0.12
  -2   0   2  318.65    7.57
   2   0  -2  309.99    7.56
   2   0  -2  310.59    7.56
   1   0  -2   52.67    1.29
  -1   0   2   52.95    1.30
  -1   0   2   54.47    1.29
   0   0  -2  251.25    5.47
   0   0   2  195.97    5.44
  -1   0  -2  411.97    9.95
   1   0   2  412.52    9.96
  -2   0  -2   84.74    2.06
  -2   0  -2   85.13    2.05
   2   0   2   84.88    2.07
  -3   0  -2    2.75    0.10
  -3   0  -2    2.83    0.11
   3   0   2    3.13    0.15
   4   0   2   53.86    1.34
   4   0   2   52.39    1.30
  -4   0  -2   51.93    1.30
   5   0   2   54.51    1.38
  -5   0  -2   52.76    1.33
   5   0   2   52.25    1.32
   6   0   2  249.22    6.08
  -6   0  -2  246.36    6.08
   6   0   2  262.58    6.15
   7   0   2    2.10    0.20
   7   0   2    2.27    0.13
  -7   0  -2    2.20    0.13
  -8   0  -2    9.69    0.32
   8   0   2    9.72    0.32
   9   0   2   29.55    0.91
  -9   0  -2   29.27    0.80
  10   0   2   11.08    0.49
  11   0   2    0.04    0.15
  12   0   2    2.07    0.25
  13   0   2   -0.36    0.17
  14   0   2    5.29    0.45
  15  -1  -2    1.27    0.28
  15   1  -2    0.93    0.28
  14  -1  -2    0.34    0.19
  14   1  -2    0.20    0.21
  13  -1  -2    0.88    0.22
  13   1  -2    0.73    0.21
  12  -1  -2    1.51    0.24
  12   1  -2    1.61    0.24
  11  -1  -2    0.60    0.12
  11  -1  -2    0.33    0.17
  11   1  -2    0.30    0.16
  10  -1  -2    3.14    0.26
  10  -1  -2    3.32    0.22
  10   1  -2    3.17    0.29
  10   1  -2    3.48    0.21
   9  -1  -2   13.04    0.48
   9  -1  -2   12.53    0.43
  -9  -1   2   12.36    0.38
   9   1  -2   12.64    0.42
   9   1  -2   12.26    0.49
  -8  -1   2   19.47    0.52
   8  -1  -2   18.71    0.61
   8  -1  -2   18.51    0.57
   8   1  -2   18.65    0.55
   8   1  -2   18.55    0.61
  -8   1   2   18.41    0.50
  -7  -1   2   19.73    0.54
   7  -1  -2   19.44    0.60
   7  -1  -2   19.78    0.58
   7   1  -2   20.06    0.61
  -7   1   2   19.95    0.52
   7   1  -2   19.92    0.57
   6  -1  -2   28.61    0.78
  -6  -1   2   28.45    0.74
   6  -1  -2   28.75    0.80
  -6   1   2   29.64    0.73
   6   1  -2   29.01    0.80
   6   1  -2   28.84    0.77
   5  -1  -2    3.58    0.17
   5  -1  -2    4.12    0.19
  -5  -1   2    4.29    0.15
  -5   1   2    3.86    0.12
   5   1  -2    3.60    0.16
   5   1  -2    3.83    0.18
  -4  -1   2    9.77    0.29
   4  -1  -2   10.26    0.31
  -4   1   2   10.54    0.27
   4   1  -2   10.35    0.30
   3  -1  -2  109.35    2.64
  -3  -1   2  110.04    2.62
   3  -1  -2  107.15    2.64
  -3   1   2  110.29    2.61
   3   1  -2  106.14    2.63
   3   1  -2  107.80    2.64
   2  -1  -2  283.46    7.04
  -2  -1   2  285.33    6.99
   2  -1  -2  288.65    6.98
  -2   1   2  299.45    6.97
   2   1  -2  286.13    6.97
   2   1  -2  289.06    7.01
   1  -1  -2  281.02    6.86
  -1  -1   2  285.04    6.91
   1   1  -2  283.04    6.96
   1   1  -2  286.46    6.86
  -1   1   2  282.62    6.86
   0  -1  -2  273.44    6.53
   0  -1   2  269.77    6.47
   0  -1  -2  257.56    6.52
   0  -1  -2  266.78    6.47
   0   1   2  267.01    6.47
   0   1  -2  273.46    6.51
   1  -1   2  110.23    2.62
  -1  -1  -2  102.39    2.63
  -1  -1  -2  108.13    2.64
   1  -1   2  108.47    2.63
  -1   1  -2  110.28    2.63
   1   1   2  110.48    2.62
   1   1   2  112.81    2.65
   2  -1   2  973.93   23.28
   2  -1   2  970.28   23.22
  -2  -1  -2  954.57   23.25
  -2   1  -2  962.54   23.24
   2   1   2  968.61   23.29
   3  -1   2  214.32    5.18
  -3  -1  -2  218.51    5.19
  -3  -1  -2  213.62    5.16
  -3   1  -2  213.79    5.16
   3   1   2  214.41    5.18
  -4  -1  -2    1.24    0.09
   4  -1   2    1.23    0.08
   4  -1   2    1.61    0.13
  -4   1  -2    1.35    0.08
   4   1   2    1.28    0.11
   5  -1   2   61.80    1.58
   5  -1   2   66.78    1.63
  -5  -1  -2   62.29    1.58
   5   1   2   66.52    1.63
  -5   1  -2   62.76    1.57
   5   1   2   62.85    1.56
   6  -1   2   69.62    1.78
  -6  -1  -2   69.92    1.78
   6  -1   2   75.25    1.84
   6   1   2   69.95    1.76
  -6   1  -2   69.61    1.76
   6   1   2   75.58    1.84
   7  -1   2   17.34    0.55
   7  -1   2   15.83    0.48
  -7  -1  -2   16.08    0.47
   7   1   2   16.13    0.45
   7   1   2   17.47    0.55
  -7   1  -2   16.04    0.46
   8  -1   2   34.96    0.94
  -8  -1  -2   35.29    0.93
  -8   1  -2   34.90    0.91
   8   1   2   35.51    0.91
  -9  -1  -2    5.53    0.24
   9  -1   2    5.32    0.23
   9  -1   2    5.25    0.33
   9   1   2    5.68    0.34
  -9   1  -2    5.40    0.22
  10  -1   2    9.04    0.44
 -10  -1  -2    9.44    0.34
  10   1   2    9.43    0.43
  11  -1   2    6.00    0.36
  11   1   2    5.71    0.38
  12  -1   2    0.95    0.22
  12   1   2    0.73    0.20
  13  -1   2    0.00    0.17
  13   1   2    0.30    0.21
  14  -1   2   -0.36    0.19
  14   1   2   -0.17    0.19
  15  -2  -2    0.18    0.27
  15   2  -2    0.26    0.29
  14  -2  -2    3.10    0.33
  14   2  -2    3.74    0.37
  13  -2  -2    5.66    0.41
  13   2  -2    5.14    0.41
  12  -2  -2   12.17    0.55
  12   2  -2   12.09    0.55
  11  -2  -2   13.96    0.50
  11  -2  -2   13.35    0.55
  11   2  -2   13.46    0.56
  10  -2  -2   31.31    0.91
 -10  -2   2   31.02    0.88
  10  -2  -2   30.44    0.94
  10   2  -2   31.79    0.96
  10   2  -2   31.91    1.02
   9  -2  -2   38.41    1.05
   9  -2  -2   37.80    1.08
  -9  -2   2   38.04    0.99
   9   2  -2   37.59    1.09
   9   2  -2   37.24    1.01
  -8  -2   2   14.67    0.43
   8  -2  -2   14.97    0.51
   8  -2  -2   14.69    0.48
   8   2  -2   14.72    0.51
  -8   2   2   14.73    0.39
   8   2  -2   14.16    0.45
   7  -2  -2   33.93    0.94
   7  -2  -2   32.74    0.91
  -7  -2   2   33.83    0.88
  -7   2   2   33.59    0.83
   7   2  -2   32.93    0.89
   7   2  -2   34.20    0.94
   6  -2  -2   20.74    0.60
  -6  -2   2   20.69    0.57
   6  -2  -2   21.02    0.61
   6   2  -2   20.48    0.58
  -6   2   2   21.35    0.52
   6   2  -2   21.42    0.62
  -5  -2   2   34.99    0.89
   5  -2  -2   34.80    0.92
   5  -2  -2   34.01    0.92
   5   2  -2   34.88    0.93
   5   2  -2   33.62    0.90
  -5   2   2   36.39    0.85
   4  -2  -2   40.79    0.95
  -4  -2   2   37.79    0.99
   4  -2  -2   38.85    1.02
  -4   2   2   40.81    0.95
   4   2  -2   38.41    1.00
   3  -2  -2   13.39    0.40
   3  -2  -2   13.80    0.39
  -3  -2   2   13.91    0.38
   3  -2  -2   14.12    0.34
   3   2  -2   14.19    0.39
  -3   2   2   14.61    0.34
   3   2  -2   14.21    0.39
   2  -2  -2  358.48    8.98
   2  -2  -2  375.50    9.11
  -2  -2   2  362.64    9.05
  -2   2   2  389.34    8.99
   2   2  -2  380.82    9.13
   2   2  -2  380.14    9.16
  -1  -2   2  265.63    6.24
   1  -2  -2  261.31    6.18
   1  -2  -2  219.47    6.17
  -1  -2   2  260.41    6.17
   1  -2  -2  262.99    6.18
   1   2  -2  263.80    7.75
   0  -2  -2  178.31    4.19
   0  -2  -2  177.96    4.20
   0  -2   2  176.00    4.22
   0  -2   2  159.61    4.23
   0  -2  -2  174.56    4.20
  -1  -2  -2  137.96    3.35
   1  -2   2  138.59    3.33
   1  -2   2  137.82    3.33
  -1   2  -2  135.56    3.34
   1   2   2  141.90    3.33
   2  -2   2  147.51    3.50
   2  -2   2  145.52    3.51
  -2  -2  -2  145.76    3.51
  -2   2  -2  143.12    3.51
   2   2   2  145.82    3.52
  -3  -2  -2  114.49    2.82
   3  -2   2  117.84    2.84
   3  -2   2  118.29    2.81
   3   2   2  116.06    2.84
  -3   2  -2  114.78    2.83
   4  -2   2   97.50    2.40
  -4  -2  -2  102.07    2.34
   4  -2   2   98.70    2.36
  -4  -2  -2   93.92    2.38
   4  -2   2   93.25    2.38
  -4  -2  -2   97.99    2.33
   4   2   2   96.57    2.40
   5  -2   2   18.24    0.54
   5  -2   2   17.47    0.50
   5  -2   2   18.34    0.48
  -5  -2  -2   17.64    0.50
   5   2   2   17.87    0.46
   5   2   2   18.24    0.54
   6  -2   2   21.49    0.57
  -6  -2  -2   21.32    0.60
   6  -2   2   22.61    0.65
   6  -2   2   21.03    0.60
   6   2   2   22.15    0.65
   6   2   2   21.43    0.56
  -7  -2  -2   36.79    0.99
   7  -2   2   37.16    1.00
   7  -2   2   40.30    1.05
   7   2   2   35.78    0.94
   7   2   2   38.35    1.05
   8  -2   2   44.73    1.20
  -8  -2  -2   51.60    1.24
   8  -2   2   51.32    1.25
   8   2   2   41.30    1.28
  -9  -2  -2   72.93    1.85
   9  -2   2   74.37    1.94
   9  -2   2   73.17    1.87
   9   2   2   71.82    1.94
 -10  -2  -2    4.51    0.23
  10  -2   2    4.64    0.33
  10   2   2    3.89    0.30
  11  -2   2   13.08    0.53
  11   2   2   11.83    0.52
  12  -2   2    4.02    0.35
  12   2   2    3.89    0.34
  13  -2   2   10.08    0.53
  13   2   2    9.66    0.51
  14  -2   2    7.23    0.49
  14   2   2    7.57    0.48
  15  -3  -2    6.70    0.71
  15   3  -2    7.69    0.76
  14  -3  -2    1.28    0.26
  14   3  -2    1.29    0.27
  13  -3  -2    2.48    0.29
  13   3  -2    2.09    0.26
  12  -3  -2    8.72    0.44
  12   3  -2    9.36    0.48
  11  -3  -2   13.19    0.54
  11  -3  -2   13.74    0.51
  11   3  -2   13.96    0.57
 -10  -3   2   28.38    0.79
  10  -3  -2   27.65    0.87
  10  -3  -2   28.35    0.85
  10   3  -2   29.23    0.90
   9  -3  -2   15.60    0.54
   9  -3  -2   14.85    0.51
  -9  -3   2   15.14    0.46
   9   3  -2   14.25    0.46
   9   3  -2   14.53    0.55
   8  -3  -2   32.34    0.91
   8  -3  -2   33.05    0.93
  -8  -3   2   32.50    0.86
   8   3  -2   32.51    0.94
   8   3  -2   30.95    0.86
  -7  -3   2   29.71    0.81
   7  -3  -2   30.68    0.86
   7  -3  -2   30.55    0.85
   7   3  -2   30.57    0.81
   7   3  -2   30.47    0.87
   6  -3  -2   29.62    0.83
  -6  -3   2   29.92    0.80
   6  -3  -2   30.47    0.84
   6   3  -2   31.39    0.81
   6   3  -2   30.87    0.85
  -5  -3   2   60.32    1.49
   5  -3  -2   59.26    1.51
   5  -3  -2   59.75    1.52
   5   3  -2   58.46    1.52
   5   3  -2   60.04    1.49
  -4  -3   2    9.14    0.28
   4  -3  -2    9.31    0.31
   4   3  -2    9.48    0.28
   3  -3  -2   91.69    2.25
   3  -3  -2   91.55    2.26
  -3  -3   2   92.14    2.24
   3   3  -2   92.82    2.24
   3   3  -2   91.31    2.25
   2  -3  -2   94.28    2.35
   2  -3  -2   98.23    2.33
  -2  -3   2   98.65    2.36
   2   3  -2   97.66    2.36
   2   3  -2   95.57    2.36
   1  -3  -2  307.19    7.69
   1  -3  -2  317.68    7.76
  -1  -3   2  321.92    7.75
   1  -3  -2  319.03    7.68
   1   3  -2  323.72    7.77
   0  -3  -2  100.26    2.36
   0  -3   2   97.68    2.36
   0  -3  -2  100.00    2.36
   0  -3   2   98.41    2.36
   0  -3  -2   99.03    2.36
   0   3  -2   90.58    2.37
  -1  -3  -2  661.82   15.42
   1  -3   2  644.89   15.49
   1  -3   2  663.52   15.49
  -1  -3  -2  638.23   15.53
  -1   3  -2  595.22   15.51
   2  -3   2  116.09    2.78
   2  -3   2  114.87    2.76
  -2  -3  -2  113.74    2.78
  -2   3  -2  111.61    2.78
   2   3   2  112.67    2.78
   2   3   2  116.80    2.74
   3  -3   2  147.30    3.55
   3  -3   2  147.73    3.52
  -3  -3  -2  147.43    3.54
  -3   3  -2  143.24    3.55
   3   3   2  145.61    3.56
  -4  -3  -2   93.40    2.33
   4  -3   2   94.82    2.35
   4  -3   2   97.46    2.31
   4   3   2   94.25    2.36
   5  -3   2  112.84    2.73
  -5  -3  -2  107.90    2.70
   5  -3   2  113.07    2.67
   5  -3   2  104.70    2.71
   5   3   2  112.16    2.74
   6  -3   2   75.17    1.93
  -6  -3  -2   75.12    1.92
   6  -3   2   78.33    1.89
   6  -3   2   78.89    1.96
   6   3   2   78.27    1.97
   6   3   2   75.48    1.85
   7  -3   2   18.79    0.56
   7  -3   2   19.44    0.61
  -7  -3  -2   19.23    0.55
   7  -3   2   17.21    0.50
   7   3   2   18.42    0.48
   7   3   2   19.46    0.61
   8  -3   2   18.91    0.68
   8  -3   2   23.04    0.65
  -8  -3  -2   23.71    0.64
   8   3   2   20.60    0.70
   9  -3   2   41.25    1.14
   9  -3   2   42.56    1.20
  -9  -3  -2   42.46    1.12
   9   3   2   41.91    1.21
  10  -3   2   31.54    0.98
 -10  -3  -2   31.91    0.90
  10   3   2   32.83    0.99
  11  -3   2    0.09    0.14
  11   3   2    0.17    0.16
  12  -3   2    2.60    0.27
  12   3   2    3.19    0.31
  13  -3   2    6.35    0.44
  13   3   2    6.67    0.46
  14  -3   2    3.16    0.34
  14   3   2    2.75    0.32
  14  -4  -2    3.76    0.36
  14   4  -2    4.08    0.38
  13  -4  -2    1.52    0.24
  13   4  -2    1.85    0.27
  12  -4  -2   14.10    0.58
  12  -4  -2   14.55    0.55
  12   4  -2   14.06    0.61
  11  -4  -2   34.85    1.06
  11  -4  -2   34.57    1.02
  11   4  -2   34.40    1.07
 -10  -4   2   27.41    0.78
  10  -4  -2   26.76    0.85
  10  -4  -2   27.48    0.84
  10   4  -2   27.87    0.88
  -9  -4   2    2.99    0.19
   9  -4  -2    3.48    0.27
   9  -4  -2    3.09    0.23
   9   4  -2    3.42    0.29
   9   4  -2    3.45    0.18
  -8  -4   2    7.50    0.28
   8  -4  -2    7.89    0.34
   8  -4  -2    7.51    0.32
   8   4  -2    7.35    0.27
   8   4  -2    7.49    0.34
  -7  -4   2    3.79    0.18
   7  -4  -2    4.00    0.21
   7  -4  -2    3.99    0.24
   7   4  -2    3.56    0.22
   7   4  -2    3.44    0.17
   6  -4  -2    4.16    0.21
  -6  -4   2    4.22    0.19
   6  -4  -2    4.64    0.22
   6   4  -2    4.42    0.22
   6   4  -2    4.41    0.18
  -5  -4   2    4.15    0.17
   5  -4  -2    3.47    0.19
   5  -4  -2    3.56    0.19
   5   4  -2    3.79    0.20
   5   4  -2    4.07    0.16
   4  -4  -2   89.14    2.17
   4  -4  -2   79.03    2.14
  -4  -4   2   90.40    2.14
   4   4  -2   88.39    2.13
   4   4  -2   86.77    2.15
   3  -4  -2   15.08    0.36
   3  -4  -2   14.91    0.43
  -3  -4   2   14.71    0.41
   3   4  -2   14.16    0.41
  -2  -4   2   57.83    1.42
   2  -4  -2   57.62    1.42
  -2  -4   2   55.19    1.42
   2  -4  -2   59.15    1.39
   2   4  -2   56.53    1.42
  -1  -4   2   31.62    0.83
   1  -4  -2   32.38    0.83
   1  -4  -2   33.98    0.85
   1  -4  -2   34.16    0.82
   1   4  -2   33.53    0.85
   0  -4   2  515.55   12.60
   0  -4   2  516.27   12.56
   0  -4  -2  510.16   12.58
   0  -4  -2  529.29   12.57
   0  -4  -2  514.35   12.51
   0   4  -2  522.62   12.64
  -1  -4  -2  473.13   11.46
   1  -4   2  474.57   11.42
  -1  -4  -2  471.15   11.36
  -1  -4  -2  461.91   11.45
   1  -4   2  470.08   11.45
   2  -4   2  322.08    7.92
   2  -4   2  322.68    7.91
   2   4   2  337.92    7.86
   2   4   2  321.74    7.84
   3  -4   2  135.49    3.33
   3  -4   2  139.51    3.30
  -3  -4  -2  134.47    3.32
   3   4   2  137.16    3.33
   4  -4   2   93.26    2.33
   4  -4   2   94.99    2.28
  -4  -4  -2   92.21    2.31
   4   4   2   95.19    2.34
  -5  -4  -2    5.30    0.22
   5  -4   2    5.87    0.19
   5  -4   2    5.73    0.23
   5  -4   2    5.91    0.25
   5   4   2    5.89    0.25
   6  -4   2    2.59    0.19
   6  -4   2    2.66    0.13
  -6  -4  -2    2.58    0.16
   6  -4   2    2.55    0.16
   6   4   2    2.58    0.21
   7  -4   2    2.22    0.21
  -7  -4  -2    3.27    0.18
   7  -4   2    2.79    0.18
   7  -4   2    2.99    0.14
   7   4   2    2.94    0.24
   8  -4   2   56.89    1.46
   8  -4   2   52.40    1.48
  -8  -4  -2   55.91    1.43
   8   4   2   54.89    1.50
   9  -4   2    3.39    0.23
  -9  -4  -2    3.78    0.22
   9  -4   2    3.98    0.30
   9   4   2    3.51    0.28
 -10  -4  -2   24.73    0.73
  10  -4   2   25.09    0.82
  10   4   2   25.39    0.84
 -11  -4  -2   13.27    0.46
  11  -4   2   12.91    0.53
  11   4   2   11.81    0.53
  12  -4   2    1.04    0.22
  12   4   2    0.62    0.19
  13  -4   2    7.05    0.43
  13   4   2    6.98    0.47
  14  -4   2    0.71    0.24
  14   4   2    0.83    0.27
  14  -5  -2    0.25    0.21
  14   5  -2    0.30    0.22
  13  -5  -2    2.22    0.28
  13   5  -2    2.18    0.30
  12  -5  -2   23.04    0.81
  12  -5  -2   23.55    0.78
  12   5  -2   22.93    0.82
  11  -5  -2    5.91    0.38
  11  -5  -2    5.86    0.33
 -11  -5   2    6.41    0.29
  11   5  -2    6.71    0.40
 -10  -5   2   18.41    0.58
  10  -5  -2   18.32    0.65
  10  -5  -2   18.99    0.64
  10   5  -2   18.96    0.68
   9  -5  -2   17.72    0.61
   9  -5  -2   18.20    0.62
  -9  -5   2   17.74    0.55
   9   5  -2   18.59    0.64
   8  -5  -2    4.78    0.28
  -8  -5   2    4.55    0.23
   8  -5  -2    4.60    0.26
   8   5  -2    4.35    0.20
   8   5  -2    4.31    0.29
  -7  -5   2    8.82    0.31
   7  -5  -2    8.86    0.35
   7  -5  -2    8.75    0.35
   7   5  -2    8.58    0.29
   7   5  -2    8.43    0.36
   6  -5  -2   78.29    1.99
   6  -5  -2   79.11    1.98
  -6  -5   2   77.51    1.95
   6   5  -2   77.20    1.99
   6   5  -2   76.99    1.93
   5  -5  -2   53.64    1.38
  -5  -5   2   52.88    1.35
   5  -5  -2   52.49    1.37
   5   5  -2   52.33    1.33
   5   5  -2   52.90    1.37
   4  -5  -2  116.54    2.85
   4  -5  -2  113.05    2.83
  -4  -5   2  116.85    2.83
   4   5  -2  114.86    2.84
   4   5  -2  114.90    2.82
  -3  -5   2    3.98    0.17
   3  -5  -2    4.38    0.13
   3   5  -2    4.27    0.17
   2  -5  -2   47.27    1.11
  -2  -5   2   44.52    1.14
   2   5  -2   43.97    1.14
   1  -5  -2    2.86    0.11
  -1  -5   2    2.81    0.12
   1  -5  -2    2.75    0.12
   1  -5  -2    2.84    0.13
   1   5  -2    3.01    0.14
   0  -5   2  115.86    2.83
   0  -5  -2  118.82    2.82
   0  -5   2  115.88    2.83
   0  -5  -2  117.05    2.83
   0  -5  -2  113.39    2.83
   0   5  -2  117.33    2.85
   1  -5   2   72.53    1.72
  -1  -5  -2   66.90    1.73
  -1  -5  -2   70.57    1.71
   1  -5   2   70.23    1.73
   3  -5   2   49.12    1.26
   3  -5   2   50.15    1.22
  -3  -5  -2   48.67    1.25
   3   5   2   53.47    1.27
  -3   5  -2   44.76    1.26
   3   5   2   49.85    1.20
   4  -5   2   98.20    2.41
   4  -5   2   97.44    2.35
  -4  -5  -2   97.26    2.40
   4   5   2   97.15    2.41
  -4   5  -2   94.51    2.41
   5  -5   2   76.85    1.94
  -5  -5  -2   75.51    1.92
   5  -5   2   76.40    1.87
   5   5   2   77.24    1.95
   6  -5   2    4.60    0.17
   6  -5   2    4.67    0.24
   6  -5   2    4.58    0.22
  -6  -5  -2    4.59    0.21
   6   5   2    4.62    0.26
   7  -5   2   26.23    0.66
   7  -5   2   25.91    0.75
  -7  -5  -2   25.28    0.72
   7   5   2   24.38    0.77
   8  -5   2    1.21    0.18
  -8  -5  -2    1.10    0.13
   8  -5   2    1.12    0.14
   8   5   2    0.97    0.18
  -9  -5  -2   17.04    0.55
   9  -5   2   17.54    0.61
   9   5   2   17.58    0.63
 -10  -5  -2   25.22    0.75
  10  -5   2   24.69    0.82
  10   5   2   25.73    0.85
  11  -5   2   19.78    0.72
 -11  -5  -2   19.10    0.62
  11   5   2   20.15    0.74
  12  -5   2    0.31    0.18
  12   5   2    0.53    0.20
  13  -5   2   -0.12    0.16
  13   5   2    0.13    0.20
  14  -5   2    3.79    0.36
  14   5   2    3.92    0.37
  14  -6  -2    6.77    0.46
  14   6  -2    7.01    0.49
  13  -6  -2    0.59    0.21
  13   6  -2    0.63    0.22
  12  -6  -2    0.79    0.17
  12  -6  -2    1.01    0.22
  12   6  -2    0.91    0.20
  11  -6  -2    3.52    0.31
  11  -6  -2    3.49    0.28
 -11  -6   2    3.15    0.23
  11   6  -2    3.11    0.30
  10  -6  -2   22.42    0.73
  10  -6  -2   22.24    0.74
 -10  -6   2   21.48    0.67
  10   6  -2   22.39    0.77
   9  -6  -2   24.11    0.77
  -9  -6   2   23.41    0.72
   9  -6  -2   24.85    0.78
   9   6  -2   25.14    0.80
   8  -6  -2    2.20    0.20
   8  -6  -2    2.07    0.19
  -8  -6   2    1.96    0.17
   8   6  -2    2.01    0.20
   8   6  -2    2.29    0.15
   7  -6  -2    1.44    0.16
  -7  -6   2    1.06    0.12
   7  -6  -2    1.03    0.14
   7   6  -2    1.38    0.12
   7   6  -2    1.26    0.15
   6  -6  -2   23.34    0.67
  -6  -6   2   21.91    0.63
   6  -6  -2   21.74    0.67
   6   6  -2   22.45    0.67
   6   6  -2   21.61    0.61
   5  -6  -2    5.31    0.24
   5  -6  -2    5.34    0.23
  -5  -6   2    5.05    0.22
   5   6  -2    5.04    0.24
   5   6  -2    5.40    0.20
   4  -6  -2   35.38    0.84
   4  -6  -2   32.92    0.92
   4  -6  -2   34.27    0.94
  -4  -6   2   35.42    0.92
   4   6  -2   35.13    0.93
   4   6  -2   34.69    0.90
   3  -6  -2  181.02    4.22
   3  -6  -2  170.28    4.27
  -3  -6   2  179.28    4.28
   3   6  -2  173.41    4.27
  -2  -6   2   77.68    1.98
   2  -6  -2   82.68    1.95
   2   6  -2   79.92    1.98
   0  -6  -2  418.10   10.05
   0  -6  -2  392.65   10.09
   0  -6   2  422.21   10.04
   0   6  -2  426.96    9.97
  -1  -6  -2  259.95    6.12
   1  -6   2  257.76    6.14
   1  -6   2  249.96    6.13
  -1   6  -2  251.44    6.16
   2  -6   2   19.82    0.55
   2  -6   2   20.13    0.52
  -2  -6  -2   17.55    0.54
   2   6   2   20.62    0.52
   3  -6   2  145.22    3.56
  -3  -6  -2  144.64    3.56
   3  -6   2  147.60    3.52
   3   6   2  146.62    3.51
   3   6   2  147.48    3.57
  -3   6  -2  143.32    3.58
   4  -6   2   46.43    1.13
   4  -6   2   46.43    1.18
  -4  -6  -2   44.82    1.17
  -4   6  -2   42.58    1.19
   4   6   2   44.98    1.19
   4   6   2   45.44    1.10
   5  -6   2   24.78    0.71
   5  -6   2   24.13    0.63
  -5  -6  -2   23.82    0.68
   5   6   2   23.99    0.71
   6  -6   2   27.29    0.78
  -6  -6  -2   26.17    0.75
   6  -6   2   26.70    0.69
   6   6   2   26.22    0.78
  -7  -6  -2   25.31    0.73
   7   6   2   25.35    0.78
   8  -6   2   37.49    1.06
  -8  -6  -2   35.90    1.01
   8   6   2   36.11    1.06
  -9  -6  -2    2.30    0.20
   9  -6   2    2.95    0.25
   9   6   2    3.12    0.29
 -10  -6  -2   14.61    0.51
  10  -6   2   14.87    0.58
  10   6   2   14.85    0.59
 -10   6  -2   14.73    0.54
 -11  -6  -2    7.38    0.35
  11  -6   2    7.18    0.42
  11   6   2    7.23    0.42
 -11   6  -2    7.94    0.43
  12  -6   2    9.20    0.50
  12   6   2   10.23    0.53
  13  -6   2   12.49    0.58
  13   6   2   12.97    0.62
  14  -6   2    3.97    0.38
  14   6   2    3.75    0.40
  14  -7  -2    1.37    0.26
  14   7  -2    1.92    0.28
  13  -7  -2    1.70    0.26
  13  -7  -2    1.55    0.27
  13   7  -2    1.81    0.28
  12  -7  -2   19.07    0.69
  12  -7  -2   18.75    0.71
  12   7  -2   19.28    0.74
  11  -7  -2    2.51    0.25
  11  -7  -2    2.32    0.24
 -11  -7   2    2.58    0.22
  11   7  -2    2.54    0.27
 -10  -7   2   14.93    0.52
  10  -7  -2   15.05    0.57
  10  -7  -2   15.24    0.58
  10   7  -2   14.86    0.58
   9  -7  -2    1.44    0.19
  -9  -7   2    1.58    0.17
   9  -7  -2    1.18    0.17
   9   7  -2    1.65    0.20
   8  -7  -2    4.86    0.29
   8  -7  -2    4.40    0.28
  -8  -7   2    4.53    0.25
   8   7  -2    4.52    0.28
  -7  -7   2    0.13    0.09
   7  -7  -2    0.20    0.10
   7  -7  -2    0.30    0.12
   7   7  -2    0.62    0.14
   7   7  -2    0.45    0.08
   6  -7  -2   44.19    1.19
  -6  -7   2   41.61    1.14
   6  -7  -2   44.95    1.17
   6   7  -2   42.58    1.11
   6   7  -2   41.91    1.17
   5  -7  -2    2.81    0.19
   5  -7  -2    2.84    0.18
  -5  -7   2    2.52    0.17
   5   7  -2    2.33    0.18
   5   7  -2    2.77    0.15
  -4  -7   2   33.88    0.90
   4  -7  -2   34.21    0.93
   4  -7  -2   33.00    0.90
   4  -7  -2   34.19    0.83
   4   7  -2   33.42    0.91
   4   7  -2   32.42    0.88
   3  -7  -2   10.63    0.35
  -3  -7   2   11.04    0.35
  -3  -7   2   11.17    0.35
   3  -7  -2   11.08    0.30
   3   7  -2   10.57    0.34
   2  -7  -2   34.15    0.92
   2  -7  -2   33.41    0.90
  -2  -7   2   33.42    0.90
   2  -7  -2   36.12    0.87
   2   7  -2   33.46    0.90
  -1  -7   2    3.76    0.16
   1  -7  -2    3.46    0.14
  -1  -7   2    3.46    0.15
   1  -7  -2    3.43    0.15
   1  -7  -2    3.06    0.16
   1   7  -2    3.63    0.17
   0  -7   2    3.88    0.17
   0  -7  -2    3.78    0.17
   0   7  -2    4.13    0.19
  -1  -7  -2   53.34    1.36
  -1  -7  -2   54.06    1.35
  -1  -7  -2   54.73    1.37
   1  -7   2   53.24    1.36
  -1   7  -2   53.61    1.39
  -2  -7  -2   10.41    0.34
  -2  -7  -2   10.66    0.34
   2  -7   2   10.71    0.34
   2   7   2   10.47    0.31
   3  -7   2   15.07    0.45
   3  -7   2   14.84    0.40
   3   7   2   14.17    0.39
   3   7   2   14.24    0.45
  -3   7  -2   14.16    0.46
  -4  -7  -2   72.49    1.83
   4  -7   2   72.17    1.78
   4  -7   2   72.81    1.84
   4   7   2   73.97    1.85
   4   7   2   72.48    1.76
  -4   7  -2   70.89    1.86
   5  -7   2   60.30    1.55
   5  -7   2   60.03    1.47
  -5  -7  -2   59.34    1.53
   5   7   2   58.96    1.44
   5   7   2   59.45    1.55
  -5   7  -2   57.93    1.55
  -6  -7  -2   28.35    0.78
   6  -7   2   23.70    0.78
   6  -7   2   28.20    0.70
  -6   7  -2   26.48    0.79
   6   7   2   28.34    0.81
   7  -7   2   17.70    0.60
  -7  -7  -2   18.30    0.57
   7   7   2   18.25    0.61
   8  -7   2    3.61    0.28
  -8  -7  -2    3.30    0.22
   8   7   2    3.93    0.30
  -9  -7  -2    3.48    0.24
   9  -7   2    3.64    0.29
   9   7   2    3.43    0.31
  -9   7  -2    3.43    0.25
  10  -7   2   13.29    0.55
 -10  -7  -2   13.25    0.49
 -10   7  -2   13.23    0.51
  10   7   2   12.91    0.57
  11  -7   2    1.95    0.25
 -11  -7  -2    1.86    0.19
 -11   7  -2    2.00    0.22
  11   7   2    1.52    0.23
  12  -7   2   11.91    0.55
 -12  -7  -2   12.00    0.48
  12   7   2   12.37    0.59
  13  -7   2    3.30    0.32
  13   7   2    4.80    0.40
  14  -8  -2    8.46    0.49
  14   8  -2    8.55    0.53
  13  -8  -2    2.84    0.30
  13  -8  -2    2.94    0.30
  13   8  -2    2.70    0.30
  12  -8  -2   12.62    0.57
 -12  -8   2   12.24    0.49
  12  -8  -2   12.60    0.55
  12   8  -2   12.85    0.60
  11  -8  -2    0.89    0.19
  11  -8  -2    1.31    0.20
 -11  -8   2    1.27    0.17
  11   8  -2    1.17    0.21
 -10  -8   2   25.31    0.77
  10  -8  -2   25.53    0.83
  10  -8  -2   23.84    0.81
  10   8  -2   24.84    0.83
  -9  -8   2   18.96    0.61
   9  -8  -2   18.81    0.66
   9  -8  -2   19.12    0.66
   9   8  -2   18.84    0.66
   8  -8  -2   25.62    0.81
   8  -8  -2   25.93    0.79
  -8  -8   2   25.02    0.76
   8   8  -2   25.78    0.81
   7  -8  -2    2.18    0.19
  -7  -8   2    2.07    0.17
   7  -8  -2    2.24    0.21
   7   8  -2    1.90    0.14
   7   8  -2    1.69    0.19
   6  -8  -2    3.63    0.24
   6  -8  -2    3.31    0.23
  -6  -8   2    3.95    0.22
   6   8  -2    3.72    0.18
   6   8  -2    3.49    0.24
   5  -8  -2    0.77    0.05
   5  -8  -2    0.82    0.11
  -5  -8   2    0.98    0.12
   5  -8  -2    0.74    0.12
   5   8  -2    0.71    0.11
   5   8  -2    0.89    0.10
   4  -8  -2   59.08    1.56
   4  -8  -2   61.97    1.48
  -4  -8   2   64.25    1.56
   4   8  -2   59.65    1.57
   4   8  -2   58.75    1.54
   3  -8  -2   68.94    1.64
   3  -8  -2   65.79    1.72
   3  -8  -2   65.40    1.70
  -3  -8   2   68.13    1.70
   3   8  -2   66.15    1.69
  -2  -8   2    3.47    0.17
   2  -8  -2    3.23    0.17
   2  -8  -2    3.04    0.13
   2  -8  -2    3.04    0.17
  -2  -8   2    3.14    0.16
   2   8  -2    2.69    0.16
  -1  -8   2  116.73    2.91
   1  -8  -2  118.38    2.93
  -1  -8   2  121.36    2.92
   1  -8  -2  118.68    2.91
   1   8  -2  117.52    2.93
   0  -8  -2   21.61    0.60
   0  -8   2   22.37    0.61
   0  -8  -2   20.88    0.61
   0  -8  -2   21.35    0.61
   0  -8   2   22.37    0.60
   0   8  -2   22.68    0.63
   1  -8   2    7.78    0.27
   1  -8   2    7.37    0.25
  -1  -8  -2    7.05    0.26
  -1  -8  -2    7.56    0.26
  -1   8  -2    7.56    0.29
   2  -8   2   18.18    0.51
  -2  -8  -2   17.51    0.51
  -2  -8  -2   17.74    0.50
   2   8   2   16.81    0.48
  -2   8  -2   15.22    0.52
   3  -8   2   59.81    1.52
  -3   8  -2   57.91    1.54
   3   8   2   59.43    1.47
  -4  -8  -2   52.10    1.36
   4  -8   2   53.82    1.38
   4   8   2   53.94    1.38
   4   8   2   50.26    1.30
  -4   8  -2   52.03    1.40
  -5  -8  -2   43.62    1.14
   5  -8   2   41.45    1.07
   5  -8   2   42.84    1.15
   5   8   2   41.49    1.05
   5   8   2   42.60    1.16
  -5   8  -2   42.57    1.17
   6  -8   2    2.49    0.22
   6  -8   2    3.75    0.18
  -6  -8  -2    3.78    0.21
  -6   8  -2    3.65    0.24
   6   8   2    3.39    0.25
   7  -8   2   18.14    0.61
  -7  -8  -2   17.28    0.57
   7   8   2   18.33    0.62
  -7   8  -2   17.86    0.60
   8  -8   2    4.77    0.29
  -8  -8  -2    4.56    0.27
  -8   8  -2    4.77    0.29
   8   8   2    5.11    0.33
  -9  -8  -2    0.98    0.15
   9  -8   2    1.00    0.18
  -9   8  -2    0.94    0.17
   9   8   2    0.97    0.20
 -10  -8  -2    3.66    0.25
  10  -8   2    3.40    0.29
 -10   8  -2    3.21    0.27
  10   8   2    2.79    0.28
  11  -8   2    0.74    0.20
 -11  -8  -2    1.06    0.17
  11   8   2    1.13    0.23
 -11   8  -2    1.15    0.19
  12  -8   2   24.77    0.87
 -12  -8  -2   24.22    0.78
  12   8   2   23.26    0.86
  13  -8   2    8.30    0.48
  13   8   2    8.35    0.50
  13  -9  -2   10.29    0.52
  13  -9  -2   11.33    0.56
  13   9  -2   10.81    0.58
  12  -9  -2   15.38    0.63
 -12  -9   2   15.44    0.58
  12  -9  -2   15.01    0.64
  12   9  -2   15.87    0.68
  11  -9  -2    2.83    0.28
 -11  -9   2    2.91    0.26
  11  -9  -2    2.91    0.28
  11   9  -2    2.34    0.28
  10  -9  -2    5.31    0.35
 -10  -9   2    6.83    0.33
  10  -9  -2    6.42    0.36
  10   9  -2    6.82    0.40
  -9  -9   2   17.00    0.57
   9  -9  -2   16.11    0.62
   9  -9  -2   17.40    0.61
   9   9  -2   15.96    0.62
   8  -9  -2   17.81    0.63
  -8  -9   2   18.46    0.60
   8  -9  -2   18.43    0.63
   8   9  -2   18.24    0.64
   7  -9  -2   41.00    1.14
  -7  -9   2   40.21    1.11
   7  -9  -2   39.54    1.16
   7   9  -2   40.65    1.07
   7   9  -2   40.51    1.15
   6  -9  -2   81.98    2.14
   6  -9  -2   82.66    2.11
  -6  -9   2   81.89    2.09
   6   9  -2   81.54    2.05
   6   9  -2   81.32    2.12
   5  -9  -2    2.92    0.21
  -5  -9   2    3.01    0.19
   5   9  -2    3.46    0.18
   5   9  -2    3.12    0.21
   4  -9  -2   66.38    1.59
  -4  -9   2   65.32    1.66
   4  -9  -2   63.25    1.66
   4   9  -2   63.63    1.67
   4   9  -2   64.73    1.65
   3  -9  -2    2.30    0.17
   3  -9  -2    1.89    0.11
  -3  -9   2    2.46    0.16
   3  -9  -2    2.08    0.15
   3   9  -2    2.06    0.15
  -2  -9   2   20.18    0.58
  -2  -9   2   19.46    0.57
   2  -9  -2   19.42    0.57
   2  -9  -2   19.91    0.60
   2   9  -2   19.46    0.58
   1  -9  -2   13.82    0.41
  -1  -9   2   14.02    0.43
   1  -9  -2   13.45    0.44
  -1  -9   2   13.57    0.43
   1  -9  -2   13.41    0.43
   1   9  -2   14.31    0.44
   0  -9  -2   11.66    0.38
   0  -9  -2   11.77    0.36
   0  -9   2   11.36    0.37
   0  -9   2   11.97    0.38
   0  -9  -2   11.89    0.38
   0   9  -2   11.25    0.39
   1  -9   2   27.44    0.74
  -1  -9  -2   25.89    0.73
   1  -9   2   26.09    0.72
  -1  -9  -2   26.53    0.74
   1   9   2   26.06    0.72
  -1   9  -2   26.95    0.76
  -2  -9  -2    9.35    0.32
   2  -9   2    8.89    0.29
   2  -9   2    8.83    0.32
  -2  -9  -2    8.85    0.31
   2   9   2    9.06    0.30
  -2   9  -2    9.26    0.35
  -3  -9  -2    4.80    0.23
   3  -9   2    4.75    0.23
   3  -9   2    4.51    0.18
  -3  -9  -2    4.57    0.21
   3   9   2    4.59    0.18
   4  -9   2   37.61    1.04
  -4   9  -2   38.11    1.07
   4   9   2   39.52    1.05
   4   9   2   37.21    0.97
  -5  -9  -2   27.04    0.75
   5  -9   2   22.26    0.74
   5   9   2   26.32    0.76
  -5   9  -2   26.18    0.78
   5   9   2   25.05    0.65
  -6  -9  -2   15.63    0.53
   6  -9   2   15.32    0.54
  -6   9  -2   16.45    0.57
   6   9   2   16.84    0.57
  -7  -9  -2   49.49    1.35
   7  -9   2   51.44    1.38
   7   9   2   49.40    1.39
  -7   9  -2   49.91    1.39
   8  -9   2    4.01    0.29
  -8  -9  -2    4.01    0.26
  -8   9  -2    3.57    0.28
   8   9   2    4.20    0.31
   9  -9   2    0.55    0.16
  -9  -9  -2    0.46    0.13
  -9   9  -2    0.58    0.16
   9   9   2    0.61    0.16
 -10  -9  -2   24.93    0.79
  10  -9   2   23.71    0.83
  10   9   2   25.73    0.87
 -10   9  -2   25.89    0.84
  11  -9   2    4.75    0.35
 -11  -9  -2    4.61    0.30
 -11   9  -2    5.10    0.36
  11   9   2    4.97    0.40
  12  -9   2    2.26    0.29
 -12  -9  -2    2.42    0.24
  12   9   2    2.59    0.30
  13  -9   2    2.98    0.32
  13   9   2    2.75    0.33
  13 -10  -2    0.36    0.19
  13 -10  -2    0.57    0.21
  13  10  -2    0.81    0.25
  12 -10  -2    0.60    0.20
  12 -10  -2    0.90    0.22
 -12 -10   2    0.46    0.16
  12  10  -2    0.47    0.19
  11 -10  -2    2.79    0.28
 -11 -10   2    3.03    0.26
  11 -10  -2    3.27    0.30
  11  10  -2    2.39    0.28
 -10 -10   2   10.10    0.42
  10 -10  -2    9.68    0.47
  10 -10  -2    9.45    0.45
  10  10  -2    9.37    0.48
   9 -10  -2   10.29    0.48
   9 -10  -2   11.75    0.49
  -9 -10   2   11.32    0.45
   9  10  -2   10.36    0.48
   8 -10  -2   26.33    0.86
  -8 -10   2   27.03    0.81
   8 -10  -2   27.05    0.84
   8  10  -2   27.05    0.85
  -7 -10   2   12.05    0.45
   7 -10  -2   12.47    0.48
   7 -10  -2   12.53    0.50
   7  10  -2   12.05    0.48
   6 -10  -2   11.11    0.45
   6 -10  -2   11.72    0.43
  -6 -10   2   11.43    0.42
   6  10  -2   11.31    0.39
   6  10  -2   11.69    0.45
  -5 -10   2   15.69    0.51
   5 -10  -2   15.37    0.52
   5  10  -2   15.70    0.53
   5  10  -2   15.03    0.48
   4 -10  -2   14.36    0.48
   4 -10  -2   14.21    0.40
   4  10  -2   14.41    0.46
   3 -10  -2    1.85    0.16
  -3 -10   2    2.08    0.16
  -3 -10   2    1.87    0.15
   3 -10  -2    2.27    0.19
   3  10  -2    1.98    0.16
  -2 -10   2   10.50    0.37
   2 -10  -2   10.40    0.36
  -2 -10   2   10.89    0.37
   2 -10  -2   10.82    0.39
   2 -10  -2   10.64    0.33
   2  10  -2   10.08    0.37
   1 -10  -2   17.30    0.53
   1 -10  -2   17.00    0.55
  -1 -10   2   18.56    0.54
   1 -10  -2   17.66    0.51
  -1 -10   2   17.94    0.53
   1  10  -2   18.34    0.55
   0 -10  -2    4.28    0.19
   0 -10  -2    4.13    0.20
   0 -10   2    4.48    0.21
   0 -10   2    4.21    0.20
   0  10  -2    4.02    0.22
  -1 -10  -2   37.22    1.01
   1 -10   2   38.62    1.02
   1 -10   2   37.04    1.00
  -1 -10  -2   37.57    1.02
   1  10   2   37.45    1.01
  -1  10  -2   39.65    1.05
   2 -10   2   19.78    0.55
  -2 -10  -2   19.62    0.58
   2 -10   2   20.10    0.59
  -2 -10  -2   18.90    0.58
   2  10   2   18.16    0.55
  -2  10  -2   19.54    0.61
   3 -10   2   10.03    0.37
  -3 -10  -2    9.81    0.36
   3 -10   2    9.43    0.31
  -3 -10  -2    9.92    0.36
   3  10   2    9.34    0.32
   4 -10   2   21.53    0.66
   4 -10   2   22.07    0.60
   4  10   2   22.26    0.68
   4  10   2   21.43    0.60
   5 -10   2   37.93    1.04
   5 -10   2   32.51    0.94
  -5  10  -2   38.44    1.07
   5  10   2   38.81    1.05
   6 -10   2   13.30    0.48
  -6 -10  -2   12.89    0.47
   6  10   2   12.30    0.48
  -6  10  -2   13.04    0.50
  -7 -10  -2    6.74    0.32
   7 -10   2    5.88    0.34
   7  10   2    6.12    0.33
  -7  10  -2    6.22    0.35
   8 -10   2   13.93    0.52
  -8 -10  -2   13.24    0.50
  -8  10  -2   12.74    0.53
   8  10   2   12.76    0.53
   9 -10   2   18.09    0.66
  -9 -10  -2   17.61    0.61
   9  10   2   17.31    0.67
  -9  10  -2   18.29    0.66
  10 -10   2    0.72    0.19
 -10 -10  -2    0.68    0.16
 -10  10  -2    0.78    0.18
  10  10   2    0.38    0.19
  11 -10   2   12.50    0.58
 -11 -10  -2   12.96    0.53
 -11  10  -2   13.36    0.58
  11  10   2   14.64    0.63
 -12 -10  -2    1.56    0.21
  12 -10   2    1.45    0.25
 -12  10  -2    1.23    0.23
  12  10   2    1.96    0.29
  13 -10   2   14.26    0.68
 -13 -10  -2   14.85    0.75
  13  10   2   14.46    0.71
  13 -11  -2   11.90    0.59
  13 -11  -2   11.48    0.58
  13  11  -2   12.26    0.63
  12 -11  -2    2.33    0.29
 -12 -11   2    1.67    0.21
  12 -11  -2    1.58    0.26
  12  11  -2    1.88    0.29
  11 -11  -2   23.32    0.84
 -11 -11   2   23.08    0.77
  11 -11  -2   23.03    0.82
  11  11  -2   22.38    0.84
  10 -11  -2    4.77    0.36
  10 -11  -2    5.26    0.36
 -10 -11   2    4.70    0.31
  10  11  -2    5.15    0.38
   9 -11  -2    0.29    0.16
   9 -11  -2    0.05    0.15
  -9 -11   2    0.50    0.15
   9  11  -2    0.48    0.17
   8 -11  -2    0.67    0.16
  -8 -11   2    0.66    0.14
   8 -11  -2    0.88    0.18
   8  11  -2    0.87    0.18
  -7 -11   2    7.18    0.35
   7 -11  -2    8.20    0.38
   7 -11  -2    7.28    0.37
   7  11  -2    8.14    0.39
   6 -11  -2   28.68    0.89
  -6 -11   2   28.29    0.84
   6 -11  -2   30.33    0.87
   6  11  -2   27.59    0.86
   6  11  -2   27.75    0.80
  -5 -11   2   15.63    0.53
   5 -11  -2   15.81    0.54
   5  11  -2   16.72    0.56
   5  11  -2   15.96    0.51
   4 -11  -2   19.41    0.63
   3 -11  -2    0.07    0.06
  -3 -11   2    0.18    0.09
   3 -11  -2    0.22    0.09
   3 -11  -2    0.37    0.11
  -3 -11   2    0.23    0.08
   3  11  -2    0.20    0.09
   2 -11  -2   10.12    0.34
  -2 -11   2   10.45    0.38
  -2 -11   2   10.81    0.39
   2 -11  -2   10.58    0.40
   2 -11  -2   10.18    0.37
   2  11  -2   11.02    0.39
   1 -11  -2  108.63    2.69
  -1 -11   2  107.56    2.71
   1 -11  -2  107.53    2.73
  -1 -11   2  110.82    2.72
   1 -11  -2  106.94    2.72
   1  11  -2  110.79    2.74
   0 -11  -2    4.62    0.21
   0 -11   2    4.48    0.21
   0 -11  -2    4.82    0.22
   0 -11   2    4.18    0.23
   0  11   2    4.60    0.23
   0  11  -2    4.01    0.24
  -1 -11  -2   46.89    1.25
  -1 -11  -2   48.07    1.27
   1 -11   2   48.15    1.27
   1 -11   2   47.85    1.24
  -1  11  -2   47.47    1.29
   1  11   2   46.91    1.25
  -2 -11  -2    5.82    0.26
   2 -11   2    5.98    0.24
   2 -11   2    5.33    0.26
  -2 -11  -2    5.66    0.27
  -2  11  -2    5.67    0.28
   2  11   2    5.64    0.24
  -3 -11  -2    4.07    0.24
   3 -11   2    4.00    0.22
   3 -11   2    3.96    0.19
  -3 -11  -2    3.95    0.23
   3  11   2    3.71    0.19
   4 -11   2   17.31    0.51
   4 -11   2   17.49    0.58
   4  11   2   17.44    0.51
   4  11   2   18.20    0.59
   5 -11   2  149.25    3.71
  -5 -11  -2  143.17    3.69
   5 -11   2  152.33    3.71
  -5  11  -2  149.67    3.74
   5  11   2  148.12    3.72
  -6 -11  -2    1.14    0.16
   6 -11   2    0.91    0.16
   6  11   2    1.32    0.19
  -6  11  -2    1.32    0.19
  -7 -11  -2    5.73    0.30
   7 -11   2    5.24    0.33
   7  11   2    5.63    0.34
  -7  11  -2    5.47    0.34
  -8 -11  -2    7.36    0.36
   8 -11   2    7.53    0.38
   8  11   2    7.45    0.41
  -8  11  -2    7.46    0.40
  -9 -11  -2    2.82    0.25
   9 -11   2    2.68    0.27
   9  11   2    2.46    0.25
  -9  11  -2    2.58    0.27
 -10 -11  -2   24.38    0.80
  10 -11   2   25.31    0.85
 -10  11  -2   23.83    0.84
  10  11   2   23.54    0.85
 -11 -11  -2   10.31    0.48
  11 -11   2   10.22    0.52
 -11  11  -2   10.13    0.52
  11  11   2   10.88    0.56
  12 -11   2    1.49    0.26
 -12 -11  -2    1.66    0.22
 -12  11  -2    1.96    0.27
  12  11   2    1.60    0.27
 -13 -11  -2    0.68    0.18
 -13 -12   2    6.77    0.40
  12 -12  -2    1.15    0.24
 -12 -12   2    1.32    0.20
  12 -12  -2    0.86    0.23
  12  12  -2    1.34    0.27
  11 -12  -2   14.57    0.65
 -11 -12   2   13.85    0.56
  11 -12  -2   14.23    0.60
  11  12  -2   14.67    0.64
  10 -12  -2    0.39    0.19
  10 -12  -2    0.58    0.18
 -10 -12   2    0.56    0.16
  10  12  -2    0.62    0.20
  -9 -12   2   10.63    0.46
   9 -12  -2   11.23    0.50
   9 -12  -2   11.57    0.53
   9  12  -2   10.80    0.51
   8 -12  -2   17.07    0.63
  -8 -12   2   17.50    0.61
   8 -12  -2   17.94    0.67
   8  12  -2   16.55    0.64
   7 -12  -2   21.35    0.73
  -7 -12   2   19.45    0.67
   7 -12  -2   20.09    0.68
   7  12  -2   20.06    0.70
   6 -12  -2    1.26    0.16
  -6 -12   2    1.36    0.17
   6 -12  -2    1.61    0.21
   6  12  -2    1.65    0.16
   6  12  -2    1.29    0.18
   5 -12  -2   18.79    0.64
   5 -12  -2   17.81    0.59
  -5 -12   2   17.63    0.59
   5  12  -2   17.63    0.56
   5  12  -2   16.77    0.59
   4 -12  -2   18.29    0.51
   4 -12  -2   18.65    0.62
  -4 -12   2   17.90    0.58
  -4 -12   2   15.78    0.57
   4 -12  -2   18.07    0.59
   4  12  -2   17.28    0.56
  -3 -12   2   58.03    1.53
   3 -12  -2   57.80    1.53
   3 -12  -2   57.88    1.57
   3 -12  -2   58.63    1.47
  -3 -12   2   57.94    1.54
   3  12  -2   57.97    1.53
   2 -12  -2    6.74    0.30
   2 -12  -2    6.34    0.25
   2 -12  -2    6.05    0.31
  -2 -12   2    6.42    0.30
  -2 -12   2    6.21    0.28
   2  12  -2    6.39    0.30
   1 -12  -2    1.79    0.16
  -1 -12   2    1.89    0.17
   1 -12  -2    1.88    0.15
  -1 -12   2    1.70    0.16
   1  12  -2    1.51    0.16
   0 -12  -2   35.65    0.94
   0 -12  -2   34.45    0.96
   0 -12   2   34.80    0.96
   0 -12   2   34.27    0.94
   0  12   2   34.04    0.97
   0  12  -2   32.77    0.97
  -1 -12  -2    1.66    0.15
   1 -12   2    1.70    0.16
   1 -12   2    1.70    0.16
  -1 -12  -2    1.61    0.16
   1  12   2    1.72    0.16
  -1  12  -2    1.55    0.17
  -2 -12  -2   28.00    0.80
  -2 -12  -2   27.09    0.80
   2 -12   2   27.38    0.81
   2 -12   2   26.45    0.76
  -2  12  -2   28.70    0.85
   2  12   2   28.00    0.78
   3 -12   2    1.00    0.13
  -3 -12  -2    0.97    0.14
   3 -12   2    1.19    0.12
  -3 -12  -2    1.11    0.14
  -3  12  -2    0.82    0.14
   3  12   2    1.28    0.13
  -4 -12  -2   22.17    0.67
   4 -12   2   21.06    0.60
   4 -12   2   21.39    0.67
  -4  12  -2   20.39    0.70
   4  12   2   21.53    0.69
   4  12   2   20.23    0.60
  -5 -12  -2    1.87    0.19
   5 -12   2    1.85    0.20
  -5  12  -2    1.89    0.21
   5  12   2    1.91    0.19
   6 -12   2    5.68    0.32
  -6 -12  -2    6.13    0.32
   6  12   2    6.28    0.35
  -6  12  -2    6.61    0.37
  -7 -12  -2    5.87    0.32
   7 -12   2    5.32    0.33
   7  12   2    5.57    0.35
  -7  12  -2    5.47    0.35
   8 -12   2    3.28    0.30
  -8 -12  -2    4.06    0.28
   8  12   2    3.38    0.31
  -8  12  -2    3.60    0.31
   9 -12   2    1.14    0.20
  -9 -12  -2    1.10    0.18
  -9  12  -2    1.16    0.19
   9  12   2    1.45    0.22
 -10 -12  -2    2.98    0.27
  10 -12   2    2.68    0.29
  10  12   2    3.12    0.31
 -10  12  -2    2.81    0.29
  11 -12   2    0.97    0.22
 -11 -12  -2    0.89    0.19
  11  12   2    1.00    0.22
 -11  12  -2    1.00    0.22
 -12 -12  -2    2.48    0.26
  12 -12   2    2.10    0.29
  12  12   2    1.88    0.28
 -12  12  -2    2.48    0.30
 -13 -12  -2    2.99    0.29
 -13 -13   2    0.40    0.17
  12 -13  -2    0.62    0.22
 -12 -13   2    1.01    0.19
  12  13  -2    0.77    0.24
  11 -13  -2    1.03    0.22
  11 -13  -2    1.29    0.25
 -11 -13   2    1.55    0.22
  11  13  -2    1.25    0.25
 -10 -13   2    4.52    0.33
  10 -13  -2    4.79    0.38
  10 -13  -2    4.79    0.37
  10  13  -2    4.96    0.40
  -9 -13   2    0.14    0.13
   9 -13  -2    0.15    0.15
   9 -13  -2    0.27    0.17
   9  13  -2    0.12    0.16
  -8 -13   2    7.38    0.38
   8 -13  -2    8.10    0.41
   8 -13  -2    7.83    0.44
   8  13  -2    7.91    0.43
   7 -13  -2    2.55    0.24
  -7 -13   2    1.89    0.20
   7 -13  -2    2.68    0.26
   7  13  -2    3.01    0.28
   6 -13  -2    1.86    0.21
   6 -13  -2    2.35    0.22
  -6 -13   2    1.95    0.20
   6  13  -2    1.91    0.21
   5 -13  -2    9.12    0.43
  -5 -13   2   10.28    0.40
   5 -13  -2    9.84    0.41
   5  13  -2   10.10    0.39
   5  13  -2    9.79    0.43
   4 -13  -2   13.06    0.48
  -4 -13   2   13.83    0.50
   4 -13  -2   12.91    0.51
  -4 -13   2   13.21    0.49
   4  13  -2   14.00    0.48
   3 -13  -2   18.02    0.52
  -3 -13   2   16.96    0.57
   3 -13  -2   17.58    0.61
  -3 -13   2   17.14    0.59
   3 -13  -2   17.60    0.58
   3  13  -2   17.96    0.58
  -2 -13   2   10.61    0.41
  -2 -13   2   11.08    0.42
   2 -13  -2   10.51    0.40
   2 -13  -2   10.86    0.37
   2  13  -2   10.71    0.42
  -1 -13   2   31.89    0.91
   1 -13  -2   31.75    0.91
  -1 -13   2   30.50    0.89
   1 -13  -2   31.53    0.87
  -1  13   2   33.04    0.93
   1  13  -2   30.96    0.92
   0 -13   2   10.24    0.40
   0 -13  -2   10.80    0.41
   0 -13  -2   10.62    0.38
   0 -13   2   10.15    0.38
   0  13  -2   10.46    0.42
   0  13   2   10.49    0.40
  -1 -13  -2    8.94    0.36
   1 -13   2    9.39    0.38
  -1 -13  -2    9.33    0.37
   1 -13   2    9.20    0.34
   1  13   2    9.41    0.37
  -1  13  -2    9.02    0.40
  -2 -13  -2   12.88    0.45
  -2 -13  -2   12.98    0.47
   2 -13   2   13.41    0.47
   2 -13   2   12.45    0.43
  -2  13  -2   12.40    0.50
   2  13   2   12.86    0.45
   3 -13   2   11.89    0.45
   3 -13   2   11.92    0.40
  -3 -13  -2   12.72    0.46
  -3 -13  -2   12.21    0.45
   3  13   2   11.14    0.41
  -3  13  -2   11.98    0.49
   4 -13   2    8.27    0.31
  -4 -13  -2    8.53    0.37
   4 -13   2    8.49    0.37
  -4  13  -2    8.34    0.41
   4  13   2    8.64    0.43
   4  13   2    8.66    0.38
  -5 -13  -2    7.00    0.34
   5 -13   2    6.95    0.35
   5  13   2    6.09    0.34
  -5  13  -2    6.96    0.37
   6 -13   2    2.45    0.23
  -6 -13  -2    1.91    0.20
  -6  13  -2    2.17    0.24
   6  13   2    2.06    0.22
  -7 -13  -2    2.43    0.23
   7 -13   2    2.20    0.22
   7  13   2    2.13    0.24
  -7  13  -2    2.77    0.27
  -8 -13  -2    3.45    0.28
   8 -13   2    3.33    0.30
  -8  13  -2    3.15    0.31
   8  13   2    4.10    0.33
   9 -13   2    0.39    0.18
  -9 -13  -2    0.62    0.17
  -9  13  -2    0.43    0.19
   9  13   2    0.26    0.16
  10 -13   2    0.86    0.21
 -10 -13  -2    0.86    0.19
  10  13   2    0.65    0.19
 -10  13  -2    0.68    0.20
  11 -13   2   20.24    0.79
 -11 -13  -2   20.68    0.75
  11  13   2   21.15    0.83
 -11  13  -2   21.26    0.81
 -12 -13  -2    2.67    0.28
 -12  13  -2    2.24    0.30
 -12 -14   2    7.25    0.42
  11 -14  -2    6.83    0.44
 -11 -14   2    6.28    0.41
  11  14  -2    6.29    0.43
  10 -14  -2    1.30    0.23
 -10 -14   2    1.50    0.22
  10 -14  -2    1.64    0.24
  10  14  -2    1.85    0.26
   9 -14  -2   15.36    0.66
   9 -14  -2   15.64    0.62
  -9 -14   2   14.75    0.59
   9  14  -2   14.46    0.62
   8 -14  -2    6.61    0.42
  -8 -14   2    6.47    0.35
   8 -14  -2    6.22    0.36
   8  14  -2    6.43    0.40
   7 -14  -2    1.56    0.22
   7 -14  -2    1.67    0.21
  -7 -14   2    1.47    0.20
   7  14  -2    1.63    0.22
   6 -14  -2    7.29    0.38
   6 -14  -2    7.60    0.42
  -6 -14   2    7.82    0.38
   6  14  -2    7.17    0.40
  -5 -14   2   11.86    0.47
   5 -14  -2   11.24    0.51
   5 -14  -2   11.53    0.46
   5  14  -2   11.71    0.44
   5  14  -2   11.70    0.48
   4 -14  -2   39.30    1.12
   4 -14  -2   39.57    1.16
  -4 -14   2   38.60    1.12
  -4 -14   2   39.57    1.11
   4  14  -2   37.48    1.09
   3 -14  -2    0.45    0.10
  -3 -14   2    0.59    0.14
   3 -14  -2    0.29    0.12
  -3 -14   2    0.60    0.13
   3  14  -2    0.64    0.14
  -2 -14   2   83.47    2.18
  -2 -14   2   84.77    2.17
   2 -14  -2   85.01    2.18
   2 -14  -2   85.69    2.13
   2  14  -2   83.54    2.19
  -2  14   2   82.95    2.21
  -1 -14   2   27.14    0.82
   1 -14  -2   27.03    0.78
  -1 -14   2   26.49    0.80
   1 -14  -2   27.74    0.82
  -1  14   2   27.95    0.84
   1  14  -2   26.47    0.83
   0 -14  -2   57.76    1.52
   0 -14   2   57.87    1.55
   0 -14  -2   58.73    1.55
   0 -14   2   57.10    1.52
   0  14   2   58.33    1.56
   0  14  -2   56.88    1.57
   1 -14   2    8.40    0.37
   1 -14   2    8.68    0.35
  -1 -14  -2    9.25    0.38
  -1 -14  -2    9.02    0.36
  -1  14  -2    8.14    0.39
   1  14   2    9.23    0.37
  -2 -14  -2   29.38    0.88
  -2 -14  -2   28.59    0.85
   2 -14   2   29.15    0.82
   2 -14   2   28.28    0.87
   2  14   2   29.91    0.85
  -2  14  -2   29.34    0.90
  -3 -14  -2   14.59    0.51
   3 -14   2   13.73    0.52
   3 -14   2   14.04    0.46
  -3 -14  -2   13.85    0.50
  -3  14  -2   14.12    0.55
   3  14   2   13.52    0.47
   4 -14   2    2.64    0.25
  -4 -14  -2    2.55    0.22
  -4  14  -2    2.75    0.27
   4  14   2    2.56    0.23
  -5 -14  -2    2.15    0.21
   5 -14   2    1.93    0.21
   5  14   2    2.43    0.24
  -5  14  -2    2.06    0.23
  -6 -14  -2    0.25    0.14
   6 -14   2    0.44    0.15
   6  14   2    0.52    0.16
  -6  14  -2    0.40    0.15
  -7 -14  -2    6.74    0.36
   7 -14   2    6.03    0.36
   7  14   2    6.55    0.39
  -7  14  -2    6.50    0.39
  -8 -14  -2    1.81    0.22
   8 -14   2    1.79    0.23
   8  14   2    2.01    0.26
  -8  14  -2    1.68    0.24
  -9 -14  -2    6.57    0.39
   9 -14   2    6.58    0.42
  -9  14  -2    7.17    0.44
   9  14   2    6.31    0.43
  10 -14   2    3.24    0.32
 -10 -14  -2    3.80    0.32
  10  14   2    3.48    0.34
 -10  14  -2    3.62    0.36
 -11 -14  -2    2.22    0.27
  11 -14   2    1.74    0.27
  11  14   2    2.11    0.28
 -11  14  -2    2.03    0.28
 -12 -14  -2    9.52    0.58
 -12  14  -2    9.10    0.55
  11 -15  -2    8.03    0.48
 -11 -15   2    8.35    0.46
 -11  15   2    7.85    0.51
  11  15  -2    7.66    0.50
 -10 -15   2    6.36    0.39
  10 -15  -2    5.59    0.41
  10  15  -2    5.76    0.43
  -9 -15   2    0.99    0.20
   9 -15  -2    0.91    0.20
   9  15  -2    0.90    0.21
  -8 -15   2    7.22    0.40
   8 -15  -2    6.87    0.39
   8  15  -2    7.39    0.44
   7 -15  -2    0.34    0.15
  -7 -15   2    0.51    0.16
   7  15  -2    0.62    0.18
   6 -15  -2    3.22    0.29
  -6 -15   2    3.24    0.28
   6  15  -2    4.10    0.32
   5 -15  -2   14.90    0.55
  -5 -15   2   14.53    0.54
   5  15  -2   13.13    0.66
   5  15  -2   13.36    0.55
  -4 -15   2    6.32    0.33
   4 -15  -2    6.20    0.34
  -4 -15   2    6.15    0.33
  -4  15   2    5.89    0.37
   4  15  -2    5.65    0.31
   3 -15  -2   23.11    0.74
  -3 -15   2   22.47    0.73
   3 -15  -2   23.65    0.73
  -3 -15   2   23.02    0.73
   3  15  -2   22.84    0.73
  -3  15   2   22.72    0.78
  -2 -15   2   21.72    0.70
  -2 -15   2   21.47    0.69
   2 -15  -2   22.16    0.65
   2 -15  -2   20.80    0.70
  -2  15   2   21.38    0.73
   2  15  -2   21.26    0.70
  -1 -15   2   20.52    0.66
   1 -15  -2   20.63    0.63
   1 -15  -2   20.43    0.67
  -1 -15   2   20.27    0.68
  -1  15   2   20.84    0.69
   1  15  -2   19.53    0.68
   0 -15  -2   56.41    1.50
   0 -15   2   56.22    1.51
   0 -15   2   54.45    1.53
   0 -15  -2   56.25    1.53
   0  15  -2   57.72    1.57
   0  15   2   57.87    1.55
  -1 -15  -2   24.78    0.75
   1 -15   2   23.76    0.77
  -1 -15  -2   24.99    0.78
   1 -15   2   24.01    0.73
   1  15   2   24.98    0.77
  -1  15  -2   24.55    0.81
  -2 -15  -2   15.25    0.54
   2 -15   2   15.83    0.51
  -2 -15  -2   16.51    0.57
   2 -15   2   15.03    0.56
  -2  15  -2   14.90    0.59
   2  15   2   15.39    0.54
  -3 -15  -2   20.41    0.68
  -3 -15  -2   21.38    0.69
   3 -15   2   20.82    0.63
   3 -15   2   20.86    0.70
   3  15   2   20.83    0.65
  -3  15  -2   20.63    0.73
   4 -15   2   53.55    1.50
  -4 -15  -2   53.84    1.49
  -4  15  -2   55.53    1.56
  -5 -15  -2    6.08    0.33
   5 -15   2    5.49    0.35
  -5  15  -2    6.58    0.40
   5  15   2    6.62    0.38
   6 -15   2   28.58    0.91
  -6 -15  -2   28.87    0.90
  -6  15  -2   28.55    0.95
   6  15   2   27.83    0.92
  -7 -15  -2    6.68    0.38
   7 -15   2    7.18    0.39
   7  15   2    7.75    0.41
  -7  15  -2    7.35    0.45
  -8 -15  -2    0.34    0.16
   8 -15   2    0.02    0.16
  -8  15  -2    0.47    0.20
   8  15   2    0.34    0.18
   9 -15   2    7.24    0.44
  -9 -15  -2    7.13    0.41
  -9  15  -2    7.43    0.47
   9  15   2    6.85    0.45
  10 -15   2    0.74    0.22
 -10 -15  -2    1.14    0.22
  10  15   2    1.35    0.26
 -10  15  -2    0.98    0.24
 -11 -15  -2    5.97    0.41
 -11  15  -2    7.12    0.48
 -11 -16   2    0.82    0.25
  10 -16  -2    1.81    0.26
 -10 -16   2    1.44    0.24
 -10  16   2    1.86    0.30
  10  16  -2    1.55    0.28
   9 -16  -2    2.73    0.30
  -9 -16   2    3.40    0.32
   9  16  -2    2.84    0.31
  -9  16   2    2.78    0.31
   8 -16  -2    5.62    0.38
  -8 -16   2    5.38    0.34
  -8  16   2    5.51    0.41
   8  16  -2    5.14    0.40
   7 -16  -2    3.66    0.32
  -7 -16   2    3.36    0.28
   7  16  -2    3.77    0.34
  -7  16   2    3.20    0.33
   6 -16  -2    0.74    0.17
  -6 -16   2    0.41    0.16
  -6  16   2    0.72    0.18
   6  16  -2    0.52    0.18
  -5 -16   2    3.26    0.26
   5 -16  -2    3.09    0.29
   5  16  -2    4.12    0.30
  -5  16   2    3.33    0.32
   4 -16  -2    4.44    0.31
  -4 -16   2    4.43    0.29
  -4 -16   2    3.79    0.27
  -4  16   2    3.99    0.33
   4  16  -2    3.97    0.28
  -3 -16   2    8.12    0.39
  -3 -16   2    8.39    0.39
   3 -16  -2    8.34    0.39
  -3  16   2    8.69    0.44
   3  16  -2    8.48    0.40
  -2 -16   2   19.69    0.67
   2 -16  -2   19.35    0.66
   2 -16  -2   19.73    0.61
  -2 -16   2   18.05    0.63
  -2  16   2   19.65    0.69
   2  16  -2   20.04    0.67
  -1 -16   2    5.78    0.32
  -1 -16   2    5.72    0.33
   1 -16  -2    5.50    0.32
   1 -16  -2    6.04    0.30
   1  16  -2    5.84    0.35
  -1  16   2    5.98    0.35
   0 -16   2   14.56    0.55
   0 -16  -2   15.02    0.52
   0 -16   2   14.47    0.53
   0 -16  -2   15.07    0.55
   0  16   2   15.51    0.56
   0  16  -2   13.97    0.56
  -1 -16  -2   10.53    0.45
   1 -16   2   11.44    0.43
  -1 -16  -2   10.26    0.42
   1 -16   2   10.92    0.45
   1  16   2   10.61    0.44
  -1  16  -2   11.12    0.49
  -2 -16  -2   12.37    0.50
  -2 -16  -2   12.76    0.48
   2 -16   2   12.72    0.50
   2 -16   2   12.42    0.45
   2  16   2   11.84    0.48
  -2  16  -2   12.70    0.54
  -3 -16  -2    0.85    0.15
   3 -16   2    0.58    0.16
   3 -16   2    0.88    0.14
  -3 -16  -2    0.76    0.16
  -3  16  -2    1.10    0.21
  -4 -16  -2    0.62    0.16
   4 -16   2    0.41    0.14
  -4  16  -2    0.63    0.19
  -5 -16  -2    0.28    0.13
   5 -16   2    0.47    0.16
   5  16   2    0.54    0.17
  -5  16  -2    0.42    0.19
   6 -16   2    2.38    0.24
  -6 -16  -2    2.72    0.26
  -6  16  -2    1.97    0.27
   6  16   2    2.07    0.24
   7 -16   2   12.97    0.57
  -7 -16  -2   12.86    0.54
  -7  16  -2   13.31    0.61
   7  16   2   13.59    0.59
  -8 -16  -2    0.43    0.18
   8 -16   2    0.18    0.15
   8  16   2    0.23    0.18
  -8  16  -2    0.43    0.21
   9 -16   2   23.25    0.84
  -9 -16  -2   23.02    0.80
   9  16   2   21.94    0.85
  -9  16  -2   22.88    0.88
 -10 -16  -2    9.32    0.49
  10 -16   2    9.64    0.54
  10  16   2    9.68    0.56
 -10  16  -2   10.11    0.57
 -10 -17   2    0.80    0.20
  10 -17  -2    0.60    0.36
 -10  17   2    0.48    0.35
  -9 -17   2    0.10    0.16
   9 -17  -2    0.21    0.17
  -9  17   2   -0.15    0.18
   9  17  -2    0.34    0.20
   8 -17  -2    8.70    0.47
  -8 -17   2    8.42    0.45
  -8  17   2    7.94    0.50
   8  17  -2    8.67    0.49
   7 -17  -2   12.40    0.55
  -7 -17   2   12.59    0.53
   7  17  -2   11.67    0.56
  -7  17   2   11.86    0.59
   6 -17  -2   11.14    0.49
  -6 -17   2   10.67    0.49
  -6  17   2   11.30    0.55
   6  17  -2   10.78    0.51
   5 -17  -2    1.67    0.22
  -5 -17   2    1.54    0.22
   5  17  -2    1.44    0.22
  -5  17   2    1.26    0.24
  -4 -17   2   10.43    0.48
   4 -17  -2   10.62    0.47
  -4 -17   2   10.32    0.46
  -4  17   2   11.06    0.52
   4  17  -2   10.35    0.46
   3 -17  -2    3.89    0.30
  -3 -17   2    3.31    0.28
  -3 -17   2    3.81    0.30
  -3  17   2    3.24    0.29
   3  17  -2    4.15    0.31
   2 -17  -2    1.30    0.18
  -2 -17   2    1.48    0.19
   2 -17  -2    1.29    0.16
  -2 -17   2    1.36    0.19
  -2  17   2    1.28    0.21
   2  17  -2    1.40    0.20
  -1 -17   2    8.61    0.42
   1 -17  -2    8.52    0.36
   1 -17  -2    8.23    0.41
  -1 -17   2    8.63    0.40
   1  17  -2    8.26    0.42
  -1  17   2    8.37    0.43
   0 -17  -2    3.02    0.27
   0 -17   2    3.01    0.27
   0 -17  -2    2.79    0.24
   0 -17   2    2.36    0.22
   0  17   2    2.59    0.25
   0  17  -2    2.97    0.29
  -1 -17  -2    4.62    0.29
  -1 -17  -2    4.49    0.29
   1 -17   2    4.34    0.31
   1 -17   2    3.98    0.27
  -1  17  -2    3.92    0.33
   1  17   2    4.37    0.30
   2 -17   2    6.50    0.36
  -2 -17  -2    6.14    0.34
   2 -17   2    6.18    0.32
  -2 -17  -2    6.35    0.36
   2  17   2    5.96    0.34
  -2  17  -2    5.74    0.38
  -3 -17  -2   11.75    0.48
  -3 -17  -2   11.76    0.49
   3 -17   2   11.13    0.49
  -3  17  -2   10.66    0.53
  -4 -17  -2    0.39    0.15
   4 -17   2    0.72    0.17
  -4  17  -2    0.71    0.19
  -5 -17  -2    5.22    0.34
   5 -17   2    5.33    0.36
   5  17   2    4.94    0.36
  -5  17  -2    4.41    0.38
  -6 -17  -2    3.71    0.32
   6 -17   2    4.51    0.35
   6  17   2    4.08    0.35
  -6  17  -2    4.38    0.38
   7 -17   2    6.15    0.39
  -7 -17  -2    5.62    0.38
  -7  17  -2    5.79    0.44
   7  17   2    5.79    0.41
  -8 -17  -2    5.17    0.37
   8 -17   2    4.30    0.38
  -8  17  -2    4.49    0.41
   8  17   2    4.75    0.38
   9 -17   2    2.71    0.31
  -9 -17  -2    2.77    0.30
   9  17   2    2.60    0.32
  -9  17  -2    3.64    0.38
  -9 -18   2    5.31    0.40
   9 -18  -2    5.43    0.43
   9  18  -2    4.69    0.46
  -9  18   2    5.07    0.53
   8 -18  -2    8.79    0.49
  -8 -18   2    8.68    0.48
   8  18  -2    8.75    0.51
  -8  18   2    9.05    0.54
  -7 -18   2    7.22    0.43
   7 -18  -2    7.76    0.45
  -7  18   2    7.83    0.50
   7  18  -2    8.41    0.48
   6 -18  -2    0.62    0.17
  -6 -18   2    0.54    0.17
   6  18  -2    0.61    0.20
  -6  18   2    0.30    0.19
  -5 -18   2    5.63    0.36
   5 -18  -2    5.65    0.38
  -5  18   2    6.29    0.43
   5  18  -2    6.14    0.38
  -4 -18   2    4.14    0.32
  -4 -18   2    3.86    0.31
   4 -18  -2    4.57    0.34
  -4  18   2    3.88    0.35
  -3 -18   2   21.21    0.74
   3 -18  -2   21.72    0.75
  -3 -18   2   21.12    0.73
  -3  18   2   21.38    0.79
   3  18  -2   21.64    0.74
  -2 -18   2    0.33    0.14
  -2 -18   2    0.25    0.14
   2 -18  -2    0.25    0.14
   2  18  -2    0.13    0.15
  -2  18   2    0.48    0.18
  -1 -18   2   11.62    0.48
   1 -18  -2   11.77    0.51
   1 -18  -2   12.43    0.47
  -1 -18   2   11.60    0.50
   1  18  -2   12.24    0.53
  -1  18   2   12.27    0.53
   0 -18  -2    2.21    0.21
   0 -18  -2    1.96    0.22
   0 -18   2    1.96    0.22
   0 -18   2    1.89    0.20
   0  18  -2    2.18    0.25
   0  18   2    1.91    0.23
   1 -18   2    9.41    0.41
  -1 -18  -2    9.77    0.42
   1 -18   2    8.86    0.43
  -1 -18  -2    9.47    0.44
  -1  18  -2    9.36    0.48
   1  18   2    9.81    0.45
   2 -18   2    8.41    0.38
   2 -18   2    7.94    0.40
  -2 -18  -2    8.14    0.41
  -2 -18  -2    8.39    0.41
   2  18   2    8.64    0.56
  -2  18  -2    8.55    0.47
   3 -18   2    2.87    0.27
  -3 -18  -2    2.94    0.27
  -3 -18  -2    2.56    0.26
  -3  18  -2    2.36    0.29
  -4 -18  -2    6.45    0.38
   4 -18   2    6.42    0.39
  -4  18  -2    6.59    0.42
   5 -18   2    0.11    0.16
  -5 -18  -2    0.28    0.16
   5  18   2    0.01    0.16
  -5  18  -2    0.25    0.19
  -6 -18  -2    8.95    0.46
   6 -18   2    9.05    0.47
  -6  18  -2    8.20    0.51
   6  18   2    8.14    0.46
  -7 -18  -2    5.57    0.37
   7 -18   2    6.24    0.42
   7  18   2    6.60    0.45
  -7  18  -2    6.27    0.46
   8 -18   2   11.39    0.55
  -8 -18  -2   11.17    0.54
   8  18   2   10.39    0.57
  -8  18  -2   11.10    0.60
   8 -19  -2    3.32    0.34
  -8 -19   2    3.50    0.38
  -8  19   2    2.75    0.39
   8  19  -2    2.92    0.32
   7 -19  -2    0.29    0.19
  -7 -19   2   -0.17    0.17
   7  19  -2    0.35    0.18
  -7  19   2    0.13    0.20
  -6 -19   2    4.21    0.36
   6 -19  -2    4.54    0.37
  -6  19   2    4.71    0.41
   6  19  -2    4.59    0.39
   5 -19  -2    1.52    0.22
  -5 -19   2    1.56    0.23
  -5  19   2    1.58    0.26
   5  19  -2    2.22    0.27
  -4 -19   2   10.46    0.49
   4 -19  -2   10.71    0.51
  -4 -19   2   11.11    0.52
  -4  19   2   10.85    0.55
  -3 -19   2    1.71    0.22
  -3 -19   2    1.14    0.21
   3 -19  -2    1.15    0.20
   3  19  -2    1.27    0.21
  -3  19   2    1.42    0.25
   2 -19  -2    1.88    0.23
  -2 -19   2    2.22    0.24
  -2 -19   2    2.14    0.25
  -2  19   2    2.32    0.28
   2  19  -2    1.69    0.24
  -1 -19   2    4.63    0.32
   1 -19  -2    4.61    0.34
   1 -19  -2    5.07    0.30
  -1 -19   2    4.20    0.33
  -1  19   2    4.88    0.36
   1  19  -2    4.60    0.35
   0 -19  -2   12.03    0.49
   0 -19   2   12.05    0.52
   0 -19   2   12.42    0.51
   0 -19  -2   12.89    0.55
   0  19  -2   12.93    0.57
   0  19   2   12.59    0.55
  -1 -19  -2    5.62    0.35
   1 -19   2    5.93    0.38
   1 -19   2    5.85    0.33
  -1 -19  -2    5.71    0.35
  -1  19  -2    6.20    0.41
   1  19   2    5.85    0.37
   2 -19   2    8.81    0.44
  -2 -19  -2    8.80    0.46
  -2 -19  -2    8.78    0.43
  -2  19  -2    9.32    0.51
  -3 -19  -2    5.77    0.36
   3 -19   2    6.02    0.37
  -3 -19  -2    5.90    0.39
  -3  19  -2    5.76    0.43
   4 -19   2   11.21    0.52
  -4 -19  -2   12.28    0.52
   4  19   2   12.07    0.56
  -4  19  -2   11.10    0.56
   5 -19   2    8.94    0.48
  -5 -19  -2    8.95    0.47
  -5  19  -2    9.05    0.53
   5  19   2    8.72    0.49
  -6 -19  -2    2.03    0.25
   6 -19   2    1.94    0.26
   6  19   2    1.54    0.25
  -6  19  -2    1.79    0.30
  -7 -19  -2    4.05    0.37
   7 -19   2    3.88    0.37
   7  19   2    4.63    0.40
  -7  19  -2    4.14    0.41
   7 -20  -2    0.13    0.22
   6 -20  -2    0.84    0.22
  -6 -20   2    0.61    0.19
   6  20  -2    0.94    0.23
  -6  20   2    0.79    0.24
   5 -20  -2    1.92    0.26
  -5 -20   2    2.14    0.27
   5  20  -2    1.54    0.25
  -5  20   2    1.95    0.29
  -4 -20   2    5.14    0.37
  -4 -20   2    5.70    0.38
   4 -20  -2    5.53    0.37
  -4  20   2    4.85    0.42
  -3 -20   2   13.41    0.57
  -3 -20   2   12.98    0.59
   3 -20  -2   13.90    0.58
  -3  20   2   13.96    0.64
   2 -20  -2    5.68    0.39
  -2 -20   2    5.10    0.38
  -2 -20   2    5.46    0.36
  -2  20   2    6.01    0.42
   2  20  -2    5.88    0.39
  -1 -20   2    5.82    0.36
  -1 -20   2    5.68    0.38
   1 -20  -2    5.86    0.39
  -1  20   2    5.17    0.39
   1  20  -2    5.34    0.39
   0 -20  -2    6.08    0.40
   0 -20   2    6.40    0.39
   0 -20  -2    6.50    0.37
   0 -20   2    6.56    0.38
   0  20  -2    6.45    0.45
   0  20   2    6.61    0.41
  -1 -20  -2   16.59    0.61
   1 -20   2   16.34    0.59
   1 -20   2   15.60    0.64
  -1 -20  -2   16.59    0.64
   1  20   2   15.72    0.84
  -1  20  -2   15.82    0.68
  -2 -20  -2   11.17    0.50
   2 -20   2   10.85    0.52
  -2 -20  -2   11.47    0.52
  -2  20  -2   11.60    0.58
  -3 -20  -2   15.70    0.65
   3 -20   2   16.30    0.64
  -3 -20  -2   15.78    0.63
  -3  20  -2   16.73    0.71
  -4 -20  -2    3.09    0.29
   4 -20   2    3.15    0.31
  -4  20  -2    2.37    0.30
   4  20   2    2.89    0.31
   5 -20   2    4.81    0.36
  -5 -20  -2    4.70    0.36
   5  20   2    4.13    0.39
  -5  20  -2    4.36    0.43
  -6 -20  -2    0.33    0.18
   6 -20   2    0.56    0.22
   6  20   2    0.30    0.19
  -6  20  -2    0.31    0.23
   5 -21  -2    4.51    0.38
  -5 -21   2    4.74    0.38
  -5  21   2    3.81    0.38
   5  21  -2    4.08    0.36
  -4 -21   2    0.73    0.21
   4 -21  -2    0.86    0.20
  -4  21   2    0.66    0.24
  -3 -21   2    0.65    0.19
   3 -21  -2    0.73    0.19
  -3 -21   2    0.69    0.21
  -3  21   2    0.84    0.24
  -2 -21   2    7.43    0.45
   2 -21  -2    8.33    0.44
  -2 -21   2    8.16    0.44
   2  21  -2    7.60    0.48
  -2  21   2    8.03    0.49
  -1 -21   2    0.53    0.17
  -1 -21   2    0.54    0.17
   1 -21  -2    0.61    0.19
  -1  21   2    0.56    0.21
   1  21  -2    0.42    0.20
   0 -21   2    1.17    0.22
   0 -21  -2    0.84    0.18
   0 -21   2    1.08    0.20
   0 -21  -2    0.86    0.19
   0  21  -2    0.64    0.22
   0  21   2    1.21    0.23
  -1 -21  -2    2.17    0.25
  -1 -21  -2    1.85    0.25
   1 -21   2    1.78    0.25
  -1  21  -2    2.14    0.28
  -2 -21  -2    5.24    0.39
  -2 -21  -2    5.17    0.36
   2 -21   2    4.96    0.38
  -2  21  -2    5.74    0.44
  -3 -21  -2    4.71    0.39
  -3 -21  -2    4.22    0.35
   3 -21   2    4.94    0.36
  -3  21  -2    4.59    0.42
   4 -21   2    8.73    0.49
  -4 -21  -2    8.10    0.46
   4  21   2    8.49    0.50
  -4  21  -2    8.84    0.55
   5 -21   2    6.45    0.65
  -5 -21  -2    6.80    0.44
  -5  21  -2    7.35    0.60
   5  21   2    7.04    0.51
  -4 -22   2    0.48    0.23
  -4  22   2    0.44    0.24
   3 -22  -2   19.60    0.86
  -3 -22   2   19.45    0.87
  -3 -22   2   20.42    0.76
  -3  22   2   20.45    0.83
   2 -22  -2   18.23    0.72
  -2 -22   2   16.46    0.71
  -2 -22   2   17.24    0.68
  -2  22   2   16.84    0.74
   1 -22  -2    2.44    0.29
  -1 -22   2    2.48    0.30
  -1 -22   2    2.65    0.29
  -1  22   2    2.76    0.33
   1  22  -2    2.61    0.31
   0 -22  -2    0.44    0.20
   0 -22   2    0.63    0.18
   0 -22   2    0.51    0.21
   0  22  -2    0.31    0.21
  -1 -22  -2    4.16    0.35
  -1 -22  -2    4.30    0.38
   1 -22   2    4.23    0.35
  -1  22  -2    4.08    0.41
   2 -22   2    1.18    0.23
  -2 -22  -2    0.94    0.21
  -2 -22  -2    1.25    0.24
  -2  22  -2    1.41    0.27
  -3 -22  -2    3.73    0.34
  -3  22  -2    4.04    0.40
  -4 -22  -2    1.57    0.38
  -2 -23   2    2.09    0.31
  -2  23   2    2.31    0.33
  -1 -23   2    0.56    0.20
   1  23  -2    0.73    0.35
  -1  23   2    0.62    0.23
   0  23  -2    1.45    0.27
  -1 -23  -2    3.92    0.36
  -1  23  -2    4.71    0.43
  -2 -23  -2    5.93    0.43
  15   0  -3   -0.14    0.21
  14   0  -3    0.34    0.21
  13   0  -3    3.33    0.32
  12   0  -3    0.85    0.21
  11   0  -3    0.10    0.10
  11   0  -3   -0.10    0.15
  10   0  -3   12.27    0.48
  10   0  -3   10.56    0.41
   9   0  -3   12.92    0.48
   9   0  -3   13.06    0.45
  -9   0   3   12.58    0.45
   8   0  -3  109.01    2.72
  -8   0   3  106.25    2.62
   8   0  -3  107.06    2.68
  -7   0   3    0.61    0.06
   7   0  -3    0.52    0.09
   7   0  -3    0.50    0.12
   6   0  -3  157.68    3.88
   6   0  -3  158.17    3.88
  -6   0   3  159.87    3.82
   5   0  -3   27.78    0.75
   5   0  -3   27.74    0.76
  -5   0   3   28.61    0.71
   4   0  -3   47.54    1.25
  -4   0   3   51.29    1.23
   4   0  -3   50.88    1.26
   3   0  -3  422.23   10.38
  -3   0   3  430.82   10.30
   3   0  -3  424.23   10.29
   2   0  -3   49.24    1.26
   2   0  -3   50.53    1.23
  -2   0   3   51.87    1.24
  -1   0   3  476.52   11.43
   1   0  -3  469.34   11.33
  -1   0   3  473.57   11.33
   0   0   3  207.66    4.82
   0   0  -3  198.44    4.82
   0   0  -3  203.44    4.89
   0   0   3  192.69    4.82
   1   0   3   45.75    1.07
  -1   0  -3   44.52    1.08
   1   0   3   41.14    1.08
  -2   0  -3    4.16    0.13
   2   0   3    4.18    0.16
  -2   0  -3    3.91    0.14
  -3   0  -3   35.63    0.90
   3   0   3   35.51    0.92
  -3   0  -3   36.21    0.89
  -4   0  -3   18.30    0.51
  -4   0  -3   19.41    0.49
   4   0   3   18.56    0.53
  -5   0  -3    0.77    0.08
  -5   0  -3    0.76    0.07
   5   0   3    0.65    0.10
  -6   0  -3    9.94    0.32
   6   0   3    9.83    0.36
  -6   0  -3    9.64    0.30
  -7   0  -3    0.60    0.09
  -7   0  -3    0.62    0.07
   7   0   3    0.44    0.13
  -8   0  -3    2.27    0.15
   8   0   3    2.12    0.20
  -9   0  -3    9.32    0.33
   9   0   3    9.29    0.43
  10   0   3   33.13    1.02
  11   0   3    0.34    0.19
  12   0   3   10.14    0.52
  13   0   3    4.08    0.36
  14   0   3   17.44    0.75
  15  -1  -3   -0.24    0.21
  15   1  -3   -0.21    0.20
  14  -1  -3    4.49    0.38
  14   1  -3    3.60    0.35
  13  -1  -3    6.23    0.42
  13   1  -3    5.47    0.41
  12  -1  -3    2.28    0.26
  12   1  -3    1.53    0.23
  11  -1  -3    1.70    0.18
  11  -1  -3    1.16    0.19
  11   1  -3    1.88    0.23
  10  -1  -3   21.84    0.69
  10  -1  -3   22.50    0.74
  10   1  -3   23.47    0.74
  10   1  -3   22.17    0.68
  -9  -1   3   34.13    0.88
   9  -1  -3   33.24    0.95
   9  -1  -3   33.69    0.98
   9   1  -3   33.70    0.99
   9   1  -3   33.75    0.94
   8  -1  -3   33.58    0.95
  -8  -1   3   33.81    0.87
   8  -1  -3   33.29    0.93
   8   1  -3   33.13    0.95
  -8   1   3   33.50    0.84
   8   1  -3   32.38    0.91
   7  -1  -3   82.15    2.10
  -7  -1   3   82.11    2.03
   7  -1  -3   83.32    2.09
  -7   1   3   83.06    2.01
   7   1  -3   82.73    2.10
   7   1  -3   81.73    2.07
   6  -1  -3   10.38    0.36
   6  -1  -3   10.70    0.35
  -6  -1   3   10.59    0.31
  -6   1   3   10.70    0.29
   6   1  -3   10.76    0.37
   6   1  -3   10.76    0.35
   5  -1  -3   12.69    0.39
   5  -1  -3   12.22    0.38
  -5  -1   3   12.05    0.35
   5   1  -3   12.46    0.39
   5   1  -3   12.13    0.38
  -5   1   3   12.85    0.33
   4  -1  -3    4.69    0.18
  -4  -1   3    4.20    0.15
   4  -1  -3    3.78    0.17
  -4   1   3    4.84    0.13
   4   1  -3    4.96    0.18
   4   1  -3    3.42    0.16
   3  -1  -3    3.71    0.14
  -3  -1   3    3.37    0.13
   3  -1  -3    3.41    0.15
   3   1  -3    4.18    0.15
   3   1  -3    3.32    0.14
  -3   1   3    3.66    0.12
  -2  -1   3  227.00    5.46
   2  -1  -3  231.14    5.54
   2  -1  -3  213.28    5.47
  -2   1   3  236.96    5.53
   2   1  -3  228.39    5.50
   2   1  -3  227.72    5.55
   1  -1  -3   71.84    1.71
  -1  -1   3   72.17    1.74
   1  -1  -3   64.64    1.74
  -1   1   3   74.55    1.73
   1   1  -3   73.03    1.72
   0  -1   3   48.46    1.14
   0  -1  -3   48.82    1.16
   0   1   3   47.87    1.14
   0   1   3   47.29    1.14
   0   1  -3   44.48    1.16
   0   1   3   45.26    1.16
   1  -1   3  190.45    4.69
   1  -1   3  199.70    4.73
  -1  -1  -3  193.95    4.75
   1   1   3  202.72    4.71
  -1   1  -3  187.41    4.82
   2  -1   3   83.57    2.04
  -2  -1  -3   84.66    2.02
  -2  -1  -3   81.43    2.04
   2  -1   3   81.57    2.04
  -2   1  -3   84.65    2.04
   2   1   3   85.78    2.04
  -3  -1  -3   53.46    1.24
  -3  -1  -3   49.01    1.27
   3  -1   3   51.04    1.28
   3  -1   3   50.37    1.27
  -3   1  -3   50.92    1.27
   3   1   3   51.58    1.29
   4  -1   3   57.61    1.46
  -4  -1  -3   57.10    1.44
  -4  -1  -3   59.49    1.41
   4   1   3   58.16    1.47
  -4   1  -3   57.10    1.44
  -5  -1  -3   23.18    0.60
   5  -1   3   24.36    0.67
  -5  -1  -3   23.68    0.64
   5   1   3   23.77    0.68
  -5   1  -3   24.03    0.63
  -6  -1  -3  186.12    4.43
   6  -1   3  188.06    4.51
  -6  -1  -3  180.47    4.46
  -6   1  -3  178.81    4.45
   6   1   3  186.32    4.51
   7  -1   3   17.32    0.56
  -7  -1  -3   16.94    0.50
  -7  -1  -3   16.87    0.46
   7   1   3   17.82    0.57
  -7   1  -3   16.49    0.48
  -8  -1  -3   22.36    0.64
   8  -1   3   22.82    0.71
   8   1   3   22.63    0.72
  -8   1  -3   22.78    0.64
   9  -1   3   12.24    0.48
  -9  -1  -3   12.37    0.40
   9   1   3   11.63    0.49
  10  -1   3    4.99    0.34
 -10  -1  -3    4.83    0.24
  10   1   3    4.77    0.35
  11  -1   3    1.48    0.22
  11   1   3    1.91    0.25
  12  -1   3    8.62    0.48
  12   1   3    9.35    0.49
  13  -1   3    9.86    0.51
  13   1   3    9.52    0.53
  14  -1   3    3.69    0.37
  14   1   3    3.23    0.35
  15  -2  -3    9.28    0.56
  15   2  -3    9.57    0.58
  14  -2  -3    3.02    0.33
  14   2  -3    3.20    0.33
  13  -2  -3    1.24    0.23
  13   2  -3    1.38    0.24
  12  -2  -3    3.28    0.30
  12   2  -3    3.59    0.34
  11  -2  -3    2.39    0.25
  11  -2  -3    2.18    0.22
  11   2  -3    2.23    0.25
  10  -2  -3    9.08    0.41
  10  -2  -3    9.65    0.39
  10   2  -3    9.46    0.36
  10   2  -3    9.78    0.44
   9  -2  -3   18.28    0.61
  -9  -2   3   18.41    0.53
   9  -2  -3   18.09    0.58
   9   2  -3   17.99    0.56
   9   2  -3   18.14    0.62
   8  -2  -3   12.27    0.46
   8  -2  -3   12.35    0.43
  -8  -2   3   12.22    0.38
   8   2  -3   12.84    0.41
   8   2  -3   13.40    0.48
   7  -2  -3    6.20    0.26
  -7  -2   3    6.06    0.22
   7  -2  -3    5.93    0.27
   7   2  -3    6.00    0.24
  -7   2   3    6.00    0.18
   7   2  -3    6.23    0.28
  -6  -2   3   10.53    0.32
   6  -2  -3   10.40    0.37
   6  -2  -3   10.29    0.36
   6   2  -3   11.03    0.38
   6   2  -3   10.55    0.34
  -6   2   3   11.28    0.28
   5  -2  -3   12.90    0.41
  -5  -2   3   13.35    0.38
   5  -2  -3   12.82    0.40
   5   2  -3   13.48    0.40
   5   2  -3   13.01    0.41
  -5   2   3   13.50    0.34
   4  -2  -3    9.66    0.31
  -4  -2   3    9.40    0.28
  -4   2   3    9.26    0.24
   4   2  -3    9.34    0.29
  -3  -2   3   26.91    0.71
   3  -2  -3   27.36    0.71
   3  -2  -3   26.62    0.73
   3   2  -3   28.11    0.72
  -3   2   3   28.56    0.68
   3   2  -3   28.03    0.72
   2  -2  -3  180.91    4.34
  -2  -2   3  175.89    4.31
  -2   2   3  182.99    4.35
   2   2  -3  179.80    4.33
   2   2  -3  176.81    4.31
  -1  -2   3   61.05    1.45
   1  -2  -3   59.28    1.45
   1  -2  -3   59.07    1.47
  -1  -2   3   60.76    1.47
   1   2  -3   59.05    1.48
   0  -2  -3  220.10    5.31
   0  -2  -3  217.34    5.30
   0  -2  -3  216.79    5.31
   0  -2   3  219.85    5.31
  -1  -2  -3  158.04    3.88
   1  -2   3  163.91    3.87
   1  -2   3  160.63    3.87
   1   2   3  162.24    3.87
  -1   2  -3  159.49    3.88
   2  -2   3  333.37    8.09
   2  -2   3  334.12    8.09
  -2  -2  -3  327.21    8.09
  -2  -2  -3  340.62    8.03
  -2   2  -3  332.00    8.09
   2   2   3  333.41    8.05
   3  -2   3  187.30    4.50
  -3  -2  -3  181.34    4.51
   3  -2   3  186.42    4.52
  -3  -2  -3  191.26    4.49
   3   2   3  189.84    4.52
  -3   2  -3  184.82    4.51
   4  -2   3   58.18    1.50
  -4  -2  -3   60.01    1.43
   4  -2   3   58.97    1.47
  -4  -2  -3   58.80    1.48
  -4  -2  -3   60.51    1.43
   4   2   3   59.04    1.50
  -4   2  -3   59.49    1.48
   5  -2   3   13.40    0.43
  -5  -2  -3   13.74    0.34
  -5  -2  -3   12.71    0.40
   5   2   3   13.91    0.43
  -6  -2  -3   11.18    0.36
   6  -2   3   12.07    0.41
  -6  -2  -3   11.33    0.31
   6   2   3   11.69    0.42
   7  -2   3   92.03    2.32
  -7  -2  -3   92.96    2.22
  -7  -2  -3   91.69    2.27
   7  -2   3   89.70    2.25
   7   2   3   90.50    2.33
  -7   2  -3   90.32    2.27
  -8  -2  -3   26.90    0.76
   8  -2   3   26.59    0.82
   8  -2   3   27.13    0.73
   8   2   3   27.36    0.83
  -8   2  -3   27.49    0.76
   9  -2   3    7.93    0.38
  -9  -2  -3    8.27    0.31
   9   2   3    8.15    0.39
  -9   2  -3    8.46    0.33
 -10  -2  -3    1.89    0.16
  10  -2   3    1.73    0.22
  10   2   3    1.52    0.22
  11  -2   3   20.21    0.74
  11   2   3   21.52    0.76
  12  -2   3    0.14    0.18
  12   2   3    0.39    0.20
  13  -2   3    0.15    0.20
  13   2   3   -0.07    0.20
  14  -2   3    2.85    0.31
  14   2   3    2.60    0.32
  15  -3  -3    1.22    0.31
  15   3  -3    1.28    0.31
  14  -3  -3    3.00    0.32
  14   3  -3    3.51    0.35
  13  -3  -3    1.75    0.26
  13   3  -3    1.26    0.25
  12  -3  -3    0.22    0.13
  12  -3  -3   -0.02    0.14
  12   3  -3    0.44    0.19
  11  -3  -3    1.98    0.20
  11  -3  -3    1.34    0.21
  11   3  -3    2.06    0.23
  10  -3  -3   28.13    0.86
  10  -3  -3   27.21    0.83
 -10  -3   3   27.44    0.76
  10   3  -3   26.57    0.85
  10   3  -3   27.22    0.83
   9  -3  -3    0.29    0.11
   9  -3  -3    0.21    0.12
  -9  -3   3    0.17    0.08
   9   3  -3    0.33    0.15
   9   3  -3    0.50    0.10
  -8  -3   3   10.21    0.34
   8  -3  -3   10.43    0.41
   8  -3  -3   10.46    0.39
   8   3  -3   10.65    0.36
   8   3  -3   10.50    0.42
   7  -3  -3   32.14    0.90
  -7  -3   3   31.47    0.84
   7  -3  -3   31.73    0.89
   7   3  -3   32.09    0.86
   7   3  -3   31.91    0.90
   6  -3  -3    3.53    0.20
   6  -3  -3    3.53    0.19
  -6  -3   3    3.73    0.16
   6   3  -3    4.04    0.18
   6   3  -3    4.06    0.21
   5  -3  -3   26.60    0.73
  -5  -3   3   26.07    0.69
   5  -3  -3   26.20    0.72
   5   3  -3   25.92    0.72
   5   3  -3   25.66    0.70
   4  -3  -3  102.26    2.52
  -4  -3   3   98.91    2.49
   4   3  -3   99.92    2.50
  -4   3   3  104.42    2.45
  -4   3   3  103.26    2.43
  -3  -3   3    5.88    0.20
   3  -3  -3    5.79    0.20
   3  -3  -3    5.66    0.22
  -3   3   3    6.02    0.17
   3   3  -3    5.78    0.21
   3   3  -3    6.02    0.21
   2  -3  -3   89.12    2.18
  -2  -3   3   90.02    2.19
   2   3  -3   88.74    2.20
   2   3  -3   91.03    2.19
   1  -3  -3  459.25   11.14
  -1  -3   3  452.83   11.11
   1  -3  -3  460.31   11.10
   1  -3  -3  461.79   11.11
   1   3  -3  464.03   11.23
   0  -3   3   64.98    1.61
   0  -3  -3   64.85    1.59
   0  -3   3   66.15    1.60
   0  -3  -3   65.65    1.60
   0  -3  -3   65.87    1.61
   1  -3   3   78.99    1.94
   1  -3   3   78.70    1.93
  -1  -3  -3   79.74    1.92
  -1   3  -3   80.14    1.96
  -2  -3  -3  215.45    5.38
  -2  -3  -3  230.72    5.39
   2  -3   3  223.63    5.38
   2  -3   3  224.16    5.41
   2   3   3  222.24    5.38
  -2   3  -3  225.69    5.39
   3  -3   3   34.19    0.84
  -3  -3  -3   32.66    0.85
   3  -3   3   33.29    0.86
   3   3   3   33.44    0.86
  -3   3  -3   30.99    0.85
  -4  -3  -3   14.47    0.43
   4  -3   3   15.03    0.44
   4  -3   3   14.40    0.41
   4   3   3   14.88    0.44
   5  -3   3    7.96    0.25
  -5  -3  -3    8.31    0.28
   5  -3   3    8.53    0.31
   5   3   3    8.60    0.31
  -5   3  -3    7.40    0.28
   6  -3   3    0.38    0.11
   6  -3   3    0.07    0.03
  -6  -3  -3    0.32    0.08
   6   3   3    0.18    0.10
  -6   3  -3    0.17    0.07
   7  -3   3   23.61    0.71
  -7  -3  -3   23.00    0.66
   7   3   3   23.34    0.72
  -7   3  -3   23.30    0.67
   8  -3   3    1.31    0.12
  -8  -3  -3    1.21    0.13
   8  -3   3    1.75    0.20
  -8   3  -3    1.42    0.14
   8   3   3    1.14    0.18
   9  -3   3   10.40    0.45
  -9  -3  -3   10.53    0.38
  -9   3  -3   10.29    0.38
   9   3   3   10.40    0.46
 -10  -3  -3    1.52    0.16
  10  -3   3    1.87    0.22
  10   3   3    1.86    0.23
 -11  -3  -3    0.93    0.16
  11  -3   3    0.97    0.20
  11   3   3    1.49    0.23
  12  -3   3    7.13    0.42
  12   3   3    7.67    0.46
  13  -3   3    7.68    0.48
  13   3   3    7.57    0.46
  14  -3   3    4.27    0.39
  14   3   3    4.10    0.39
  14  -4  -3    0.46    0.21
  14   4  -3    0.77    0.25
  13  -4  -3    2.95    0.30
  13   4  -3    2.70    0.30
  12  -4  -3    3.96    0.34
  12  -4  -3    4.83    0.32
  12   4  -3    4.13    0.36
  11  -4  -3    2.82    0.26
  11  -4  -3    2.97    0.26
  11   4  -3    3.45    0.32
 -10  -4   3   20.97    0.62
  10  -4  -3   21.45    0.71
  10  -4  -3   21.02    0.69
  10   4  -3   20.43    0.70
  -9  -4   3   15.96    0.50
   9  -4  -3   15.95    0.55
   9  -4  -3   16.29    0.56
   9   4  -3   16.25    0.50
   9   4  -3   15.41    0.56
  -8  -4   3   23.58    0.66
   8  -4  -3   23.19    0.71
   8  -4  -3   23.38    0.71
   8   4  -3   23.31    0.72
   8   4  -3   22.65    0.66
   7  -4  -3   58.25    1.50
  -7  -4   3   57.94    1.46
   7  -4  -3   56.94    1.51
   7   4  -3   56.52    1.46
   7   4  -3   56.13    1.51
   6  -4  -3    4.22    0.21
  -6  -4   3    3.99    0.18
   6  -4  -3    4.42    0.22
   6   4  -3    3.82    0.18
   6   4  -3    3.78    0.20
  -5  -4   3  161.48    3.93
   5  -4  -3  159.86    3.94
   5  -4  -3  165.53    3.96
   5   4  -3  161.48    3.95
   5   4  -3  159.00    3.93
  -4  -4   3    4.28    0.17
   4  -4  -3    4.12    0.19
   4  -4  -3    3.55    0.17
   4   4  -3    4.58    0.19
   4   4  -3    4.61    0.18
   3  -4  -3  106.98    2.95
  -3  -4   3  123.57    2.96
  -3   4   3  128.82    2.92
   3   4  -3  126.78    2.97
   2  -4  -3  195.32    4.53
   2  -4  -3  185.72    4.51
  -2  -4   3  180.36    4.51
  -2  -4   3  187.50    4.52
   2   4  -3  187.97    4.53
  -1  -4   3   81.10    2.02
   1  -4  -3   82.32    2.02
   1  -4  -3   83.47    2.01
   1  -4  -3   84.49    2.04
   1   4  -3   83.09    2.05
   0  -4  -3  472.18   11.34
   0  -4   3  477.59   11.43
   0  -4  -3  459.45   11.40
   0  -4  -3  475.29   11.34
   0  -4   3  460.01   11.32
  -1  -4  -3  565.41   13.76
   1  -4   3  563.22   13.77
  -1  -4  -3  564.79   13.69
   1  -4   3  574.43   13.77
   2  -4   3  453.15   11.18
  -2  -4  -3  469.13   11.09
   2  -4   3  460.05   11.18
   2   4   3  461.17   11.26
  -3  -4  -3   13.36    0.40
   3  -4   3   14.06    0.39
   3  -4   3   14.31    0.41
   3   4   3   13.71    0.41
   4  -4   3   23.06    0.64
  -4  -4  -3   21.99    0.62
   4  -4   3   22.36    0.60
   4   4   3   23.48    0.64
  -4   4  -3   21.99    0.63
   5  -4   3    5.65    0.20
  -5  -4  -3    5.96    0.23
   5  -4   3    5.95    0.25
  -5   4  -3    5.54    0.23
   5   4   3    6.26    0.26
  -6  -4  -3  116.85    2.94
   6  -4   3  121.59    2.98
   6   4   3  122.07    2.99
  -6   4  -3  116.47    2.95
   7  -4   3   23.22    0.71
  -7  -4  -3   23.14    0.66
  -7   4  -3   22.99    0.67
   7   4   3   22.40    0.71
  -8  -4  -3   64.50    1.65
   8  -4   3   63.16    1.70
  -8   4  -3   62.06    1.66
   8   4   3   65.00    1.71
  -9  -4  -3    6.88    0.31
   9  -4   3    7.47    0.38
   9   4   3    7.39    0.39
  -9   4  -3    7.61    0.32
  10  -4   3   23.82    0.81
 -10  -4  -3   24.37    0.73
  10   4   3   25.99    0.84
  11  -4   3   16.01    0.63
 -11  -4  -3   16.56    0.55
  11   4   3   16.37    0.65
  12  -4   3    4.37    0.37
  12   4   3    4.71    0.39
  13  -4   3   10.21    0.54
  13   4   3    9.94    0.52
  14  -4   3    2.17    0.31
  14   4   3    2.52    0.35
  14  -5  -3    0.02    0.19
  14   5  -3    0.71    0.23
  13  -5  -3   19.95    0.75
  13   5  -3   19.64    0.77
  12  -5  -3   11.51    0.50
  12  -5  -3   10.84    0.52
  12   5  -3   11.39    0.54
 -11  -5   3    1.96    0.19
  11  -5  -3    2.05    0.22
  11  -5  -3    1.60    0.22
  11   5  -3    2.36    0.26
 -10  -5   3    8.84    0.35
  10  -5  -3    9.31    0.41
  10  -5  -3    9.48    0.43
  10   5  -3    8.68    0.44
   9  -5  -3    5.96    0.33
   9  -5  -3    5.99    0.31
  -9  -5   3    5.97    0.26
   9   5  -3    5.84    0.34
   9   5  -3    5.75    0.25
   8  -5  -3    6.91    0.32
   8  -5  -3    6.62    0.32
  -8  -5   3    6.81    0.28
   8   5  -3    6.45    0.26
   8   5  -3    6.82    0.34
  -7  -5   3   23.60    0.66
   7  -5  -3   23.66    0.71
   7  -5  -3   23.68    0.70
   7   5  -3   22.92    0.65
   7   5  -3   22.60    0.71
   6  -5  -3    0.45    0.10
   6  -5  -3    0.36    0.09
  -6  -5   3    0.27    0.08
   6   5  -3    0.53    0.08
   6   5  -3    0.38    0.10
  -5  -5   3   27.03    0.75
   5  -5  -3   27.93    0.77
   5  -5  -3   28.47    0.79
   5   5  -3   28.60    0.76
   5   5  -3   27.79    0.77
   4  -5  -3   10.52    0.36
  -4  -5   3   10.60    0.33
   4  -5  -3    9.89    0.33
   4   5  -3   10.30    0.34
   4   5  -3    9.94    0.33
  -4   5   3   11.46    0.27
   3  -5  -3   23.46    0.57
  -3  -5   3   23.29    0.62
   3   5  -3   22.18    0.63
   2  -5  -3  133.40    3.60
  -2  -5   3  150.14    3.61
  -2  -5   3  146.68    3.61
   2  -5  -3  158.11    3.58
   2   5  -3  155.60    3.63
   1  -5  -3    4.82    0.15
   1  -5  -3    3.58    0.16
  -1  -5   3    4.34    0.16
   1  -5  -3    4.39    0.16
   1   5  -3    4.07    0.18
   0  -5  -3   60.01    1.52
   0  -5   3   61.14    1.52
   0  -5  -3   61.88    1.52
   0  -5  -3   62.93    1.53
   0   5  -3   61.49    1.55
  -1  -5  -3  168.53    4.00
  -1  -5  -3  162.07    4.01
   1  -5   3  166.43    4.01
   1  -5   3  166.08    4.01
   2  -5   3   88.20    2.21
   2  -5   3   90.34    2.19
  -2  -5  -3   89.38    2.17
   2   5   3   90.69    2.21
  -3  -5  -3    7.46    0.26
   3  -5   3    7.77    0.27
   3  -5   3    7.95    0.25
   3   5   3    8.04    0.21
  -3   5  -3    7.66    0.28
   3   5   3    7.80    0.27
   4  -5   3   28.09    0.77
   4  -5   3   28.49    0.73
  -4  -5  -3   28.15    0.76
   4   5   3   27.84    0.77
  -4   5  -3   26.69    0.77
   5  -5   3   33.02    0.88
   5  -5   3   30.19    0.81
  -5  -5  -3   31.35    0.85
   5   5   3   31.90    0.88
  -5   5  -3   31.20    0.87
   6  -5   3   18.24    0.57
  -6  -5  -3   17.70    0.54
   6   5   3   18.16    0.58
  -6   5  -3   17.81    0.55
  -7  -5  -3   25.73    0.74
   7  -5   3   26.86    0.78
  -7   5  -3   25.70    0.76
   7   5   3   25.04    0.78
   8  -5   3   47.41    1.29
  -8  -5  -3   46.36    1.23
  -8   5  -3   45.65    1.25
   8   5   3   44.51    1.29
   9  -5   3   13.14    0.52
  -9  -5  -3   12.73    0.45
  -9   5  -3   13.21    0.47
   9   5   3   13.01    0.53
  10  -5   3   18.32    0.67
 -10  -5  -3   18.66    0.60
  10   5   3   18.21    0.68
 -10   5  -3   18.67    0.62
 -11  -5  -3    1.00    0.15
  11  -5   3    1.21    0.22
  11   5   3    1.05    0.21
  12  -5   3   29.20    0.98
  12   5   3   29.24    0.98
  13  -5   3    0.05    0.19
  13   5   3   -0.03    0.20
  14  -5   3    1.51    0.28
  14   5   3    1.58    0.28
  14  -6  -3    1.62    0.26
  14   6  -3    2.07    0.30
  13  -6  -3    2.62    0.27
  13  -6  -3    2.78    0.30
  13   6  -3    1.92    0.27
  12  -6  -3    1.30    0.20
  12  -6  -3    1.25    0.22
  12   6  -3    1.34    0.23
  11  -6  -3   13.58    0.55
 -11  -6   3   14.46    0.50
  11  -6  -3   14.65    0.56
  11   6  -3   13.59    0.57
  10  -6  -3   13.31    0.51
  10  -6  -3   12.78    0.52
 -10  -6   3   12.70    0.45
  10   6  -3   12.59    0.54
  -9  -6   3   27.66    0.80
   9  -6  -3   27.93    0.86
   9  -6  -3   27.72    0.86
   9   6  -3   28.65    0.88
   8  -6  -3   14.28    0.51
   8  -6  -3   15.23    0.51
  -8  -6   3   14.27    0.47
   8   6  -3   13.41    0.51
   8   6  -3   13.82    0.44
   7  -6  -3    7.00    0.32
  -7  -6   3    6.49    0.27
   7  -6  -3    6.83    0.32
   7   6  -3    7.35    0.33
   7   6  -3    6.65    0.26
   6  -6  -3    0.20    0.09
  -6  -6   3    0.26    0.08
   6  -6  -3    0.23    0.10
   6   6  -3    0.21    0.09
   6   6  -3    0.28    0.07
  -5  -6   3   15.62    0.47
   5  -6  -3   14.56    0.47
   5  -6  -3   15.95    0.50
   5   6  -3   15.66    0.46
   5   6  -3   15.70    0.49
   4  -6  -3    2.58    0.08
  -4  -6   3    2.36    0.14
   4  -6  -3    2.43    0.15
   4  -6  -3    2.39    0.16
   4   6  -3    2.13    0.14
   4   6  -3    2.29    0.15
   3  -6  -3    2.77    0.14
  -3  -6   3    2.86    0.15
   3  -6  -3    2.89    0.11
   3   6  -3    3.40    0.16
  -2  -6   3   60.28    1.52
   2  -6  -3   62.36    1.49
   2  -6  -3   59.04    1.54
   2   6  -3   60.77    1.53
   1  -6  -3  100.88    2.42
  -1  -6   3   98.56    2.44
   1   6  -3   98.86    2.46
   0  -6   3   13.86    0.40
   0  -6  -3   14.39    0.41
   0   6  -3   13.99    0.43
  -1  -6  -3   24.70    0.65
   1  -6   3   24.41    0.66
   2  -6   3   28.50    0.73
  -2  -6  -3   25.70    0.72
  -2  -6  -3   25.55    0.72
  -2  -6  -3   28.65    0.69
  -2   6  -3   27.13    0.75
  -3  -6  -3  126.42    3.55
   3  -6   3  150.49    3.57
   3   6   3  152.98    3.58
   3   6   3  152.52    3.51
  -3   6  -3  146.88    3.59
   4  -6   3   77.32    1.88
   4  -6   3   62.85    1.82
  -4  -6  -3   78.26    1.88
  -4   6  -3   76.08    1.90
   4   6   3   77.51    1.89
  -5  -6  -3   27.12    0.74
   5  -6   3   27.50    0.76
  -5   6  -3   24.65    0.75
   5   6   3   25.56    0.75
  -6  -6  -3   12.05    0.41
   6  -6   3   11.94    0.44
   6   6   3   12.22    0.45
  -6   6  -3   12.47    0.43
  -7  -6  -3   50.50    1.36
   7  -6   3   51.91    1.40
  -7   6  -3   51.99    1.39
   7   6   3   52.08    1.41
   8  -6   3   30.88    0.92
  -8  -6  -3   29.93    0.87
   8   6   3   30.41    0.93
  -8   6  -3   31.05    0.90
  -9  -6  -3    6.31    0.31
   9  -6   3    6.51    0.36
  -9   6  -3    7.24    0.34
   9   6   3    6.20    0.36
  10  -6   3    1.06    0.18
 -10  -6  -3    1.58    0.17
 -10   6  -3    1.25    0.17
  10   6   3    1.12    0.22
  11  -6   3    5.01    0.37
 -11  -6  -3    5.19    0.29
  11   6   3    5.11    0.39
  12  -6   3    7.74    0.46
 -12  -6  -3    8.06    0.48
  12   6   3    7.12    0.47
  13  -6   3    1.04    0.25
  13   6   3    1.18    0.26
  14  -7  -3    0.06    0.18
  14   7  -3    0.14    0.20
  13  -7  -3    0.82    0.22
  13  -7  -3    0.72    0.19
  13   7  -3    1.25    0.25
  12  -7  -3    1.00    0.20
  12  -7  -3    1.17    0.20
  12   7  -3    1.50    0.24
 -11  -7   3    5.34    0.29
  11  -7  -3    5.35    0.34
  11  -7  -3    5.22    0.36
  11   7  -3    5.06    0.37
 -10  -7   3   26.01    0.78
  10  -7  -3   26.88    0.85
  10  -7  -3   25.83    0.85
  10   7  -3   26.50    0.86
  -9  -7   3   20.17    0.64
   9  -7  -3   21.44    0.71
   9  -7  -3   20.98    0.70
   9   7  -3   21.32    0.71
  -8  -7   3   25.39    0.75
   8  -7  -3   26.57    0.79
   8  -7  -3   25.86    0.80
   8   7  -3   25.48    0.80
   8   7  -3   25.04    0.72
   7  -7  -3   31.57    0.94
   7  -7  -3   33.70    0.93
  -7  -7   3   33.02    0.90
   7   7  -3   31.80    0.88
   7   7  -3   31.77    0.93
   6  -7  -3   29.49    0.84
  -6  -7   3   29.76    0.83
   6  -7  -3   31.70    0.88
   6   7  -3   28.93    0.81
   6   7  -3   28.25    0.84
   5  -7  -3   60.78    1.57
   5  -7  -3   58.30    1.54
  -5  -7   3   60.52    1.53
   5   7  -3   58.57    1.54
   5   7  -3   59.42    1.52
   4  -7  -3   67.59    1.76
  -4  -7   3   71.27    1.76
   4  -7  -3   71.26    1.69
   4   7  -3   68.89    1.75
   4   7  -3   68.62    1.77
  -3  -7   3   83.36    2.04
   3  -7  -3   78.35    2.02
   3  -7  -3   80.42    2.06
   3  -7  -3   83.81    1.98
  -3  -7   3   81.74    2.03
   3   7  -3   80.33    2.03
   2  -7  -3  124.65    3.09
  -2  -7   3  126.63    3.07
   2  -7  -3  129.62    3.04
   2  -7  -3  121.81    3.07
   2   7  -3  123.93    3.08
   1  -7  -3   65.78    1.69
   1  -7  -3   67.29    1.67
  -1  -7   3   68.98    1.68
  -1  -7   3   66.38    1.68
   1   7  -3   66.35    1.70
   0  -7   3    5.67    0.21
   0  -7  -3    4.81    0.20
   0  -7   3    5.28    0.21
   0   7  -3    6.39    0.24
  -1  -7  -3   49.49    1.26
  -1  -7  -3   49.50    1.26
   1  -7   3   46.07    1.25
   1  -7   3   50.99    1.27
  -1  -7  -3   51.75    1.26
  -1   7  -3   50.02    1.29
  -2  -7  -3   42.88    1.13
  -2  -7  -3   43.88    1.13
   2  -7   3   44.60    1.14
   3  -7   3   32.35    0.87
   3   7   3   33.00    0.88
   3   7   3   31.76    0.81
  -3   7  -3   31.41    0.89
   4  -7   3   58.71    1.50
  -4  -7  -3   58.50    1.49
  -4   7  -3   57.59    1.51
   4   7   3   57.25    1.40
   4   7   3   57.08    1.50
   5  -7   3   12.84    0.44
  -5  -7  -3   12.38    0.41
   5   7   3   12.29    0.43
  -5   7  -3   12.35    0.44
  -6  -7  -3   35.76    0.97
   6  -7   3   35.12    0.98
  -6   7  -3   33.54    0.98
   6   7   3   35.09    0.99
  -7  -7  -3   25.87    0.78
   7  -7   3   27.34    0.82
  -7   7  -3   26.43    0.80
   7   7   3   27.06    0.83
  -8  -7  -3    5.77    0.29
   8  -7   3    5.84    0.32
   8   7   3    5.68    0.33
  -8   7  -3    5.79    0.31
   9  -7   3   10.71    0.47
  -9  -7  -3   11.06    0.42
   9   7   3   10.36    0.48
  -9   7  -3   10.35    0.43
  10  -7   3    0.96    0.19
 -10  -7  -3    1.39    0.17
  10   7   3    0.72    0.21
 -10   7  -3    0.93    0.16
 -11  -7  -3    1.01    0.16
  11  -7   3    0.75    0.18
  11   7   3    0.72    0.21
 -12  -7  -3    1.05    0.17
  12  -7   3    0.61    0.21
  12   7   3    0.90    0.23
  13  -7   3    1.81    0.28
  13   7   3    1.52    0.28
  14  -8  -3    6.94    0.48
  14   8  -3    7.44    0.51
  13  -8  -3    8.44    0.46
  13  -8  -3    8.16    0.46
  13   8  -3    8.75    0.49
  12  -8  -3    6.18    0.40
 -12  -8   3    6.09    0.38
  12  -8  -3    6.29    0.41
  12   8  -3    5.63    0.42
  11  -8  -3    2.45    0.26
 -11  -8   3    3.04    0.25
  11  -8  -3    2.87    0.29
  11   8  -3    3.37    0.31
  10  -8  -3   19.38    0.69
  10  -8  -3   19.56    0.70
 -10  -8   3   19.71    0.64
  10   8  -3   20.08    0.72
   9  -8  -3    6.70    0.37
   9  -8  -3    7.07    0.37
  -9  -8   3    7.02    0.32
   9   8  -3    6.83    0.38
   8  -8  -3    1.23    0.18
  -8  -8   3    1.84    0.17
   8  -8  -3    1.02    0.16
   8   8  -3    1.18    0.17
   8   8  -3    1.30    0.14
   7  -8  -3    6.25    0.33
   7  -8  -3    7.12    0.32
  -7  -8   3    6.47    0.29
   7   8  -3    6.48    0.26
   7   8  -3    6.42    0.33
   6  -8  -3   31.42    0.91
   6  -8  -3   31.99    0.88
  -6  -8   3   31.36    0.87
   6   8  -3   30.05    0.89
   6   8  -3   30.29    0.84
   5  -8  -3   61.36    1.59
  -5  -8   3   64.11    1.59
   5  -8  -3   64.82    1.49
   5  -8  -3   54.88    1.61
   5   8  -3   62.59    1.58
   5   8  -3   61.16    1.60
  -4  -8   3    2.94    0.18
   4  -8  -3    2.76    0.17
   4  -8  -3    2.80    0.11
   4   8  -3    2.71    0.16
   4   8  -3    2.74    0.18
   3  -8  -3   27.24    0.68
   3  -8  -3   25.98    0.73
   3  -8  -3   27.69    0.76
  -3  -8   3   25.96    0.73
   3   8  -3   25.09    0.73
  -2  -8   3   14.09    0.42
   2  -8  -3   13.61    0.42
  -2  -8   3   14.13    0.43
   2  -8  -3   13.82    0.45
   2   8  -3   13.52    0.44
   1  -8  -3  118.24    2.95
  -1  -8   3  116.64    2.93
   1  -8  -3  118.39    2.93
  -1  -8   3  122.46    2.94
   1   8  -3  121.32    2.96
   0  -8   3   54.09    1.38
   0  -8  -3   53.35    1.37
   0  -8  -3   54.47    1.37
   0  -8   3   53.45    1.37
   0  -8  -3   52.35    1.37
   0   8  -3   55.48    1.40
  -1  -8  -3  221.11    5.53
   1  -8   3  227.15    5.52
   1  -8   3  230.03    5.54
  -1  -8  -3  226.00    5.53
  -1   8  -3  238.39    5.57
  -2  -8  -3   41.53    1.10
  -2  -8  -3   41.11    1.10
   2  -8   3   42.11    1.08
   2  -8   3   43.24    1.11
   2   8   3   42.51    1.07
  -3  -8  -3   86.73    2.39
   3  -8   3   99.08    2.41
   3  -8   3   99.25    2.37
  -3   8  -3   96.76    2.43
   3   8   3   99.02    2.41
   3   8   3   96.00    2.35
   4  -8   3    9.46    0.34
  -4  -8  -3    9.52    0.34
   4   8   3    9.11    0.35
  -4   8  -3    8.75    0.36
   4   8   3    9.21    0.26
   5  -8   3    6.01    0.29
  -5  -8  -3    6.41    0.27
   5   8   3    6.08    0.28
  -5   8  -3    6.06    0.30
  -6  -8  -3    4.67    0.24
   6  -8   3    4.88    0.28
  -6   8  -3    5.21    0.28
   6   8   3    5.09    0.28
   7  -8   3   19.98    0.65
  -7  -8  -3   19.45    0.62
   7   8   3   19.79    0.66
  -7   8  -3   19.27    0.65
  -8  -8  -3   34.61    1.00
   8  -8   3   35.03    1.04
   8   8   3   35.99    1.06
  -8   8  -3   36.20    1.05
  -9  -8  -3    9.80    0.40
   9  -8   3    8.99    0.44
  -9   8  -3    9.13    0.41
   9   8   3    9.60    0.46
 -10  -8  -3    2.84    0.24
  10  -8   3    2.40    0.26
  10   8   3    2.56    0.28
 -10   8  -3    3.04    0.27
 -11  -8  -3    5.86    0.34
  11  -8   3    5.38    0.39
 -11   8  -3    5.85    0.36
  11   8   3    6.09    0.42
 -12  -8  -3    5.07    0.33
  12  -8   3    4.61    0.39
  12   8   3    5.73    0.44
  13  -8   3    7.48    0.49
  13   8   3    7.72    0.52
  13  -9  -3   10.04    0.53
  13  -9  -3    9.34    0.52
  13   9  -3    9.66    0.55
  12  -9  -3   17.88    0.70
  12  -9  -3   17.22    0.69
 -12  -9   3   17.48    0.62
  12   9  -3   17.46    0.72
 -11  -9   3   22.21    0.72
  11  -9  -3   21.68    0.76
  11  -9  -3   21.61    0.78
  11   9  -3   21.06    0.79
 -10  -9   3    5.04    0.29
  10  -9  -3    5.05    0.34
  10  -9  -3    4.78    0.34
  10   9  -3    4.48    0.35
  -9  -9   3   44.66    1.25
   9  -9  -3   45.78    1.32
   9  -9  -3   45.32    1.28
   9   9  -3   45.23    1.30
  -8  -9   3    6.13    0.30
   8  -9  -3    6.24    0.33
   8  -9  -3    6.15    0.34
   8   9  -3    6.00    0.33
   7  -9  -3   18.75    0.64
  -7  -9   3   17.38    0.58
   7  -9  -3   19.10    0.61
   7   9  -3   18.56    0.56
   7   9  -3   18.57    0.62
   6  -9  -3   53.96    1.43
   6  -9  -3   54.41    1.47
  -6  -9   3   53.99    1.42
   6   9  -3   53.46    1.44
   6   9  -3   52.33    1.39
   5  -9  -3   26.18    0.75
  -5  -9   3   25.92    0.75
   5   9  -3   25.70    0.76
   5   9  -3   25.32    0.73
   4  -9  -3   13.54    0.37
   4  -9  -3   12.78    0.44
  -4  -9   3   13.54    0.44
   4   9  -3   13.49    0.45
   4   9  -3   13.18    0.43
   3  -9  -3    8.66    0.31
   3  -9  -3    7.42    0.26
   3  -9  -3    9.25    0.35
  -3  -9   3    9.14    0.32
   3   9  -3    8.85    0.32
   2  -9  -3   52.89    1.40
  -2  -9   3   54.19    1.40
   2  -9  -3   53.99    1.42
  -2  -9   3   55.44    1.40
   2   9  -3   54.97    1.42
   1  -9  -3   20.37    0.61
  -1  -9   3   21.72    0.60
   1  -9  -3   20.85    0.58
  -1  -9   3   20.57    0.60
   1  -9  -3   20.44    0.60
   1   9  -3   20.78    0.62
   0  -9  -3    8.20    0.30
   0  -9  -3    8.53    0.29
   0  -9   3    8.58    0.30
   0  -9  -3    8.63    0.31
   0  -9   3    8.52    0.31
   0   9  -3    9.69    0.34
  -1  -9  -3   76.69    1.97
   1  -9   3   80.20    1.97
   1  -9   3   77.03    1.95
  -1  -9  -3   77.10    1.96
  -1  -9  -3   77.65    1.96
  -1   9  -3   80.96    2.01
  -2  -9  -3   18.75    0.56
   2  -9   3   19.59    0.54
   2  -9   3   19.23    0.56
  -2  -9  -3   18.84    0.56
   2   9   3   18.40    0.53
   3  -9   3   23.44    0.69
  -3  -9  -3   24.26    0.69
   3  -9   3   23.70    0.65
  -3   9  -3   24.39    0.72
   3   9   3   24.29    0.64
   4  -9   3   79.57    2.01
   4  -9   3   77.83    1.95
   4   9   3   76.20    1.92
   4   9   3   79.90    2.02
  -4   9  -3   78.89    2.04
   5  -9   3   37.17    1.00
   5  -9   3   36.26    0.92
  -5  -9  -3   34.44    0.98
   5   9   3   34.90    1.00
  -5   9  -3   34.17    1.01
   6  -9   3   30.90    0.91
  -6  -9  -3   30.90    0.89
  -6   9  -3   31.03    0.92
   6   9   3   30.85    0.91
  -7  -9  -3   17.75    0.58
   7  -9   3   17.35    0.61
   7   9   3   17.41    0.61
  -7   9  -3   17.57    0.61
  -8  -9  -3    3.95    0.27
   8  -9   3    4.41    0.31
   8   9   3    4.74    0.32
  -8   9  -3    4.48    0.29
   9  -9   3   14.98    0.57
  -9  -9  -3   14.91    0.54
   9   9   3   15.30    0.61
  -9   9  -3   15.82    0.58
  10  -9   3    6.23    0.39
 -10  -9  -3    6.57    0.34
 -10   9  -3    6.36    0.38
  10   9   3    6.15    0.41
  11  -9   3   16.02    0.66
 -11  -9  -3   16.49    0.60
 -11   9  -3   16.94    0.65
  11   9   3   16.12    0.67
  12  -9   3    6.62    0.43
 -12  -9  -3    7.03    0.38
  12   9   3    7.44    0.49
  13  -9   3    3.05    0.34
  13   9   3    3.77    0.38
  14 -10  -3   11.17    0.59
  13 -10  -3    0.29    0.20
  13 -10  -3    0.22    0.19
  13  10  -3    0.42    0.23
  12 -10  -3    2.45    0.28
 -12 -10   3    2.52    0.24
  12 -10  -3    2.53    0.29
  12  10  -3    2.69    0.31
  11 -10  -3    3.26    0.30
  11 -10  -3    3.54    0.33
 -11 -10   3    3.69    0.28
  11  10  -3    3.81    0.36
  10 -10  -3    8.39    0.43
  10 -10  -3    7.66    0.43
 -10 -10   3    7.89    0.38
  10  10  -3    7.68    0.42
  -9 -10   3    2.66    0.25
   9 -10  -3    2.51    0.26
   9 -10  -3    2.61    0.25
   9  10  -3    3.15    0.30
   8 -10  -3    1.02    0.18
   8 -10  -3    0.82    0.16
  -8 -10   3    0.73    0.15
   8  10  -3    0.73    0.17
  -7 -10   3   11.20    0.43
   7 -10  -3   11.42    0.47
   7 -10  -3   11.57    0.45
   7  10  -3   11.37    0.39
   7  10  -3   11.16    0.46
   6 -10  -3   -0.02    0.10
   6 -10  -3    0.04    0.11
  -6 -10   3   -0.15    0.09
   6  10  -3    0.03    0.08
   6  10  -3    0.02    0.11
   5 -10  -3    1.21    0.14
  -5 -10   3    0.95    0.14
   5  10  -3    1.36    0.14
   5  10  -3    1.33    0.16
   4 -10  -3   12.89    0.38
   4 -10  -3   13.07    0.45
   4  10  -3   14.29    0.45
   3 -10  -3   65.08    1.68
   3 -10  -3   64.26    1.65
  -3 -10   3   62.88    1.64
   3  10  -3   62.60    1.65
  -2 -10   3   38.10    1.02
   2 -10  -3   36.99    1.02
  -2 -10   3   37.66    1.02
   2 -10  -3   37.56    0.98
   2 -10  -3   37.90    1.04
   2  10  -3   38.61    1.04
  -1 -10   3   12.27    0.39
   1 -10  -3   11.20    0.36
  -1 -10   3   11.36    0.39
   1 -10  -3   11.16    0.40
   1 -10  -3   11.22    0.38
   1  10  -3   11.39    0.41
   0 -10  -3   74.42    1.91
   0 -10   3   75.85    1.91
   0 -10  -3   74.39    1.92
   0 -10  -3   75.38    1.90
   0 -10   3   77.26    1.92
   0  10  -3   76.17    1.94
   1 -10   3    7.49    0.29
   1 -10   3    7.12    0.27
  -1 -10  -3    7.21    0.29
  -1 -10  -3    7.13    0.28
  -1  10  -3    7.70    0.32
  -2 -10  -3    3.91    0.21
   2 -10   3    4.46    0.21
   2 -10   3    3.90    0.19
  -2 -10  -3    3.97    0.21
   2  10   3    4.02    0.19
  -2  10  -3    3.56    0.23
   3 -10   3   21.42    0.59
  -3 -10  -3   20.99    0.63
  -3 -10  -3   20.29    0.63
   3 -10   3   20.86    0.63
   3  10   3   20.76    0.58
   4 -10   3    4.59    0.24
   4 -10   3    4.60    0.20
   4  10   3    4.08    0.18
  -4  10  -3    4.00    0.27
   4  10   3    4.40    0.26
   5 -10   3   42.63    1.18
   5 -10   3   42.78    1.10
   5  10   3   43.27    1.20
  -5  10  -3   42.84    1.21
   6 -10   3    5.92    0.31
  -6 -10  -3    6.17    0.31
  -6  10  -3    6.61    0.33
   6  10   3    6.01    0.33
   7 -10   3   18.87    0.64
  -7 -10  -3   18.84    0.62
   7  10   3   18.35    0.65
  -7  10  -3   18.14    0.65
  -8 -10  -3    5.27    0.30
   8 -10   3    4.81    0.31
  -8  10  -3    4.92    0.32
   8  10   3    5.63    0.35
   9 -10   3    0.51    0.15
  -9 -10  -3    0.28    0.14
  -9  10  -3    0.34    0.16
   9  10   3    0.23    0.16
 -10 -10  -3    3.20    0.28
  10 -10   3    3.09    0.29
  10  10   3    3.64    0.35
 -10  10  -3    3.17    0.30
 -11 -10  -3    8.38    0.42
  11 -10   3    8.73    0.48
  11  10   3    8.46    0.50
 -11  10  -3    8.01    0.44
 -12 -10  -3    0.98    0.19
  12 -10   3    1.08    0.22
  12  10   3    1.31    0.26
 -13 -10  -3    3.21    0.31
  14 -11  -3    4.63    0.46
  13 -11  -3    4.00    0.38
  13 -11  -3    3.59    0.35
  13  11  -3    3.64    0.36
  12 -11  -3   12.81    0.60
  12 -11  -3   13.78    0.63
 -12 -11   3   13.71    0.55
  12  11  -3   13.24    0.63
 -11 -11   3    1.04    0.18
  11 -11  -3    1.13    0.22
  11 -11  -3    0.96    0.20
  11  11  -3    0.83    0.21
 -10 -11   3   14.57    0.56
  10 -11  -3   15.53    0.63
  10 -11  -3   15.21    0.60
  10  11  -3   15.51    0.63
  -9 -11   3    9.38    0.41
   9 -11  -3    9.40    0.44
   9 -11  -3    9.19    0.46
   9  11  -3    8.89    0.44
  -8 -11   3   13.86    0.52
   8 -11  -3   14.41    0.58
   8 -11  -3   15.38    0.56
   8  11  -3   13.26    0.54
   7 -11  -3   25.41    0.83
  -7 -11   3   27.01    0.80
   7 -11  -3   26.27    0.81
   7  11  -3   24.97    0.81
   6 -11  -3   26.11    0.80
   6 -11  -3   26.72    0.84
  -6 -11   3   26.98    0.80
   6  11  -3   25.42    0.76
   6  11  -3   25.95    0.81
   5 -11  -3    0.47    0.11
  -5 -11   3    0.47    0.11
   5 -11  -3    0.33    0.11
   5  11  -3    0.42    0.13
   5  11  -3    0.48    0.11
  -4 -11   3   15.70    0.53
   4 -11  -3   16.25    0.56
   4 -11  -3   15.36    0.52
   4  11  -3   16.46    0.52
   3 -11  -3  123.85    3.11
   3 -11  -3  124.00    3.01
   3 -11  -3  121.25    3.07
  -3 -11   3  122.37    3.07
   3  11  -3  123.74    3.07
   2 -11  -3    5.04    0.22
  -2 -11   3    5.06    0.25
  -2 -11   3    5.55    0.26
   2 -11  -3    5.45    0.26
   2 -11  -3    5.31    0.27
   2  11  -3    5.83    0.27
   1 -11  -3   18.27    0.54
   1 -11  -3   17.81    0.58
  -1 -11   3   19.13    0.57
  -1 -11   3   18.67    0.57
   1 -11  -3   18.26    0.57
   1  11  -3   18.96    0.59
   0 -11  -3   24.41    0.69
   0 -11  -3   23.69    0.71
   0 -11   3   25.22    0.72
   0 -11  -3   24.12    0.71
   0 -11   3   24.42    0.70
   0  11  -3   25.03    0.74
  -1 -11  -3   71.05    1.82
   1 -11   3   69.92    1.81
  -1 -11  -3   72.11    1.84
   1 -11   3   72.41    1.84
  -1  11  -3   71.67    1.87
   1  11   3   71.33    1.82
   2 -11   3   18.72    0.57
   2 -11   3   18.07    0.53
  -2 -11  -3   18.60    0.56
  -2 -11  -3   18.36    0.56
  -2  11  -3   15.52    0.58
   2  11   3   18.35    0.54
  -3 -11  -3   89.79    2.28
   3 -11   3   89.25    2.27
   3 -11   3   87.88    2.22
  -3 -11  -3   90.99    2.27
   3  11   3   88.51    2.22
   4 -11   3   33.88    0.94
   4 -11   3   33.89    0.87
   4  11   3   33.83    0.95
   4  11   3   33.22    0.86
  -4  11  -3   27.68    0.94
  -5 -11  -3   29.79    0.89
   5 -11   3   31.50    0.91
   5 -11   3   29.49    0.82
  -5  11  -3   31.14    0.94
   5  11   3   30.98    0.92
   6 -11   3   37.92    1.08
  -6 -11  -3   38.64    1.07
   6  11   3   36.33    1.09
  -6  11  -3   37.23    1.11
   7 -11   3    4.00    0.30
  -7 -11  -3    4.71    0.28
  -7  11  -3    4.95    0.31
   7  11   3    5.25    0.32
   8 -11   3    5.21    0.33
  -8 -11  -3    5.27    0.32
  -8  11  -3    6.07    0.36
   8  11   3    6.17    0.37
  -9 -11  -3   12.31    0.50
   9 -11   3   12.46    0.54
  -9  11  -3   12.67    0.55
   9  11   3   12.81    0.55
  10 -11   3    3.96    0.35
 -10 -11  -3    4.14    0.31
  10  11   3    4.66    0.38
 -10  11  -3    4.19    0.34
 -11 -11  -3   11.09    0.49
  11 -11   3   10.65    0.54
  11  11   3   11.99    0.59
 -11  11  -3   11.11    0.54
 -12 -11  -3    6.03    0.39
  12 -11   3    5.64    0.40
 -12  11  -3    5.94    0.47
  12  11   3    5.02    0.46
 -13 -11  -3    1.71    0.23
  13 -12  -3    3.27    0.35
 -13 -12   3    3.78    0.36
 -12 -12   3    3.91    0.31
  12 -12  -3    2.73    0.30
  12 -12  -3    3.95    0.38
  12  12  -3    3.57    0.35
  11 -12  -3    3.35    0.32
 -11 -12   3    3.21    0.29
  11 -12  -3    3.09    0.32
  11  12  -3    3.76    0.34
  10 -12  -3    0.49    0.18
  10 -12  -3    0.81    0.21
 -10 -12   3    0.93    0.18
  10  12  -3    1.24    0.22
  -9 -12   3   23.42    0.78
   9 -12  -3   25.30    0.86
   9 -12  -3   24.25    0.81
   9  12  -3   23.75    0.83
   8 -12  -3    3.92    0.30
   8 -12  -3    3.59    0.29
  -8 -12   3    3.83    0.28
   8  12  -3    4.36    0.32
  -7 -12   3   23.71    0.76
   7 -12  -3   23.14    0.80
   7 -12  -3   24.32    0.77
   7  12  -3   24.38    0.78
   6 -12  -3    5.30    0.32
   6 -12  -3    5.20    0.30
  -6 -12   3    4.76    0.29
   6  12  -3    5.24    0.31
   6  12  -3    4.97    0.26
  -5 -12   3    9.28    0.40
   5 -12  -3    9.80    0.40
   5 -12  -3   10.15    0.44
   5  12  -3    9.71    0.38
   5  12  -3   10.03    0.42
   4 -12  -3   61.00    1.65
   4 -12  -3   60.41    1.61
  -4 -12   3   60.26    1.61
  -4 -12   3   59.60    1.61
   4  12  -3   62.52    1.61
  -3 -12   3   19.36    0.61
   3 -12  -3   20.00    0.62
  -3 -12   3   18.87    0.61
   3 -12  -3   19.32    0.56
   3 -12  -3   20.24    0.66
   3  12  -3   19.81    0.62
   2 -12  -3   50.93    1.31
   2 -12  -3   50.57    1.38
  -2 -12   3   50.70    1.36
  -2 -12   3   52.11    1.36
   2 -12  -3   50.80    1.35
   2  12  -3   48.96    1.36
   1 -12  -3    0.94    0.13
  -1 -12   3    0.79    0.12
   1 -12  -3    1.37    0.13
   1 -12  -3    0.91    0.13
  -1 -12   3    1.11    0.13
   1  12  -3    0.97    0.14
   0 -12  -3   11.31    0.39
   0 -12  -3   11.29    0.41
   0 -12   3   11.76    0.40
   0 -12   3   11.42    0.41
   0  12  -3   11.07    0.43
   1 -12   3   20.03    0.63
   1 -12   3   19.88    0.60
  -1 -12  -3   20.14    0.62
  -1 -12  -3   20.60    0.62
  -1  12  -3   19.65    0.66
   1  12   3   21.05    0.62
   2 -12   3   20.48    0.64
  -2 -12  -3   20.80    0.63
   2 -12   3   20.55    0.61
  -2 -12  -3   20.28    0.64
  -2  12  -3   21.00    0.68
   2  12   3   20.14    0.61
  -3 -12  -3   33.07    0.92
   3 -12   3   33.01    0.87
  -3 -12  -3   32.64    0.91
   3 -12   3   33.04    0.92
  -3  12  -3   26.33    0.93
   3  12   3   32.23    0.87
   4 -12   3   21.75    0.71
  -4 -12  -3   23.35    0.70
   4 -12   3   22.05    0.64
  -4  12  -3   22.62    0.74
   4  12   3   22.40    0.72
   5 -12   3    8.47    0.37
  -5 -12  -3    8.47    0.36
   5  12   3    8.36    0.39
  -5  12  -3    8.43    0.41
   6 -12   3   64.04    1.70
  -6 -12  -3   62.58    1.68
  -6  12  -3   63.16    1.74
   6  12   3   61.01    1.70
   7 -12   3    0.33    0.14
  -7 -12  -3    0.31    0.14
   7  12   3    0.52    0.16
  -7  12  -3    0.36    0.16
   8 -12   3    0.56    0.17
  -8 -12  -3    0.66    0.16
   8  12   3    0.64    0.18
  -8  12  -3    0.57    0.16
   9 -12   3    8.74    0.46
  -9 -12  -3    8.97    0.43
   9  12   3    8.99    0.48
  -9  12  -3    9.51    0.48
  10 -12   3   10.03    0.50
 -10 -12  -3    9.39    0.45
 -10  12  -3    9.40    0.50
  10  12   3    9.40    0.51
  11 -12   3    3.46    0.33
 -11 -12  -3    3.95    0.32
  11  12   3    2.84    0.33
 -11  12  -3    4.15    0.36
 -12 -12  -3    8.71    0.45
  12 -12   3    7.85    0.47
  12  12   3    8.45    0.54
 -12  12  -3    8.51    0.49
 -13 -12  -3    0.46    0.18
 -13 -13   3    0.67    0.19
 -12 -13   3    8.04    0.43
  12 -13  -3    7.88    0.50
  12 -13  -3    7.90    0.48
  12  13  -3    7.25    0.50
  11 -13  -3    0.36    0.19
 -11 -13   3    0.29    0.16
  11 -13  -3    0.32    0.19
  11  13  -3    0.31    0.19
  10 -13  -3   14.23    0.59
 -10 -13   3   14.56    0.58
  10 -13  -3   14.88    0.64
  10  13  -3   14.08    0.63
   9 -13  -3    0.13    0.17
  -9 -13   3    0.23    0.14
   9 -13  -3    0.14    0.15
   9  13  -3    0.08    0.14
  -8 -13   3    2.65    0.24
   8 -13  -3    2.59    0.25
   8 -13  -3    2.54    0.28
   8  13  -3    1.92    0.23
  -7 -13   3    5.46    0.32
   7 -13  -3    5.71    0.34
   7 -13  -3    6.53    0.38
   7  13  -3    5.64    0.36
   6 -13  -3    7.09    0.39
  -6 -13   3    6.23    0.33
   6 -13  -3    6.74    0.35
   6  13  -3    7.10    0.37
   6  13  -3    7.14    0.33
   5 -13  -3   40.73    1.15
   5 -13  -3   40.53    1.20
  -5 -13   3   40.42    1.15
   5  13  -3   40.06    1.12
   5  13  -3   40.20    1.16
  -4 -13   3   57.47    1.53
  -4 -13   3   56.10    1.53
   4 -13  -3   55.10    1.52
   4 -13  -3   57.34    1.57
   4  13  -3   57.09    1.52
   3 -13  -3   21.79    0.68
  -3 -13   3   22.37    0.69
  -3 -13   3   21.44    0.68
   3 -13  -3   20.91    0.70
   3 -13  -3   21.55    0.62
   3  13  -3   22.64    0.69
  -2 -13   3    0.08    0.10
   2 -13  -3    0.14    0.08
   2 -13  -3    0.08    0.09
  -2 -13   3    0.22    0.11
   2 -13  -3    0.05    0.09
   2  13  -3    0.12    0.11
  -1 -13   3   10.27    0.40
   1 -13  -3   10.26    0.37
  -1 -13   3   10.31    0.39
   1 -13  -3   10.59    0.40
   1  13  -3    9.72    0.41
   0 -13   3    1.61    0.17
   0 -13  -3    2.01    0.18
   0 -13   3    2.03    0.18
   0 -13  -3    1.56    0.15
   0  13  -3    1.43    0.17
   0  13   3    1.71    0.17
  -1 -13  -3   32.23    0.92
   1 -13   3   32.51    0.91
   1 -13   3   32.28    0.94
  -1 -13  -3   32.93    0.94
  -1  13  -3   33.28    0.98
   1  13   3   33.04    0.93
  -2 -13  -3   17.06    0.56
   2 -13   3   17.35    0.57
   2 -13   3   17.19    0.54
  -2 -13  -3   17.50    0.58
   2  13   3   17.03    0.54
  -2  13  -3   16.97    0.61
  -3 -13  -3   41.59    1.14
   3 -13   3   39.18    1.14
  -3 -13  -3   41.21    1.15
   3 -13   3   39.97    1.09
  -3  13  -3   41.64    1.19
   3  13   3   41.64    1.10
   4 -13   3    0.15    0.12
  -4 -13  -3    0.23    0.11
   4 -13   3   -0.02    0.08
   4  13   3    0.13    0.12
  -4  13  -3   -0.08    0.13
   5 -13   3    2.89    0.26
  -5 -13  -3    2.87    0.23
   5  13   3    2.81    0.26
  -5  13  -3    3.04    0.28
  -6 -13  -3    1.28    0.18
   6 -13   3    1.24    0.19
  -6  13  -3    1.20    0.21
   6  13   3    1.19    0.19
   7 -13   3    2.05    0.23
  -7 -13  -3    1.90    0.20
  -7  13  -3    2.62    0.27
   7  13   3    1.88    0.22
  -8 -13  -3    0.20    0.13
   8 -13   3    0.07    0.13
  -8  13  -3    0.09    0.15
   8  13   3   -0.17    0.14
  -9 -13  -3    2.87    0.27
   9 -13   3    3.04    0.29
  -9  13  -3    2.87    0.30
   9  13   3    2.39    0.26
  10 -13   3    1.27    0.23
 -10 -13  -3    2.33    0.25
 -10  13  -3    2.03    0.27
  10  13   3    1.48    0.25
 -11 -13  -3    6.51    0.40
  11 -13   3    7.03    0.43
 -11  13  -3    7.20    0.46
  11  13   3    6.45    0.45
 -12 -13  -3    1.98    0.26
 -12  13  -3    1.64    0.28
 -12 -14   3    2.43    0.27
  12 -14  -3    2.54    0.49
  12 -14  -3    2.30    0.33
  11 -14  -3    2.34    0.29
 -11 -14   3    2.54    0.27
  11 -14  -3    2.13    0.30
  11  14  -3    2.67    0.32
 -10 -14   3    9.60    0.47
  10 -14  -3   10.55    0.54
  10 -14  -3    9.62    0.50
  10  14  -3    9.71    0.52
   9 -14  -3    6.41    0.40
  -9 -14   3    7.42    0.40
   9 -14  -3    6.73    0.44
   9  14  -3    7.16    0.44
   8 -14  -3   13.70    0.55
  -8 -14   3   13.42    0.54
   8 -14  -3   12.61    0.58
   8  14  -3   12.79    0.55
   7 -14  -3    1.60    0.20
   7 -14  -3    1.45    0.22
  -7 -14   3    1.73    0.21
   7  14  -3    1.65    0.22
  -6 -14   3   50.68    1.42
   6 -14  -3   50.49    1.43
   6 -14  -3   52.01    1.49
   6  14  -3   51.50    1.45
   5 -14  -3   32.81    1.02
  -5 -14   3   32.00    0.96
   5 -14  -3   32.71    0.97
   5  14  -3   32.07    0.94
   5  14  -3   31.99    0.98
   4 -14  -3   37.87    1.08
   4 -14  -3   38.73    1.13
  -4 -14   3   36.81    1.08
  -4 -14   3   37.48    1.09
   4  14  -3   36.97    1.07
   3 -14  -3   18.16    0.64
   3 -14  -3   18.44    0.54
   3 -14  -3   17.83    0.60
  -3 -14   3   18.52    0.61
  -3 -14   3   17.95    0.60
   3  14  -3   17.07    0.61
  -2 -14   3   10.19    0.42
  -2 -14   3   11.06    0.42
   2 -14  -3   10.38    0.42
   2 -14  -3   10.87    0.38
   2  14  -3   10.90    0.44
  -1 -14   3   62.29    1.66
   1 -14  -3   63.22    1.63
   1 -14  -3   63.36    1.67
  -1 -14   3   60.82    1.65
   1  14  -3   62.51    1.69
  -1  14   3   63.42    1.68
   0 -14  -3    1.99    0.19
   0 -14   3    2.09    0.20
   0 -14  -3    2.06    0.19
   0 -14   3    1.69    0.18
   0  14  -3    2.59    0.25
   0  14   3    2.03    0.19
   1 -14   3    8.49    0.37
  -1 -14  -3    8.06    0.35
  -1 -14  -3    8.49    0.36
   1 -14   3    8.15    0.34
  -1  14  -3    9.11    0.41
   1  14   3    8.16    0.36
  -2 -14  -3    3.21    0.24
   2 -14   3    3.54    0.21
  -2 -14  -3    3.37    0.25
   2 -14   3    3.35    0.25
   2  14   3    3.69    0.23
  -2  14  -3    3.96    0.29
  -3 -14  -3   21.77    0.69
   3 -14   3   20.56    0.67
  -3 -14  -3   20.26    0.67
   3 -14   3   21.12    0.63
  -3  14  -3   20.22    0.72
   3  14   3   20.50    0.63
   4 -14   3   11.47    0.41
  -4 -14  -3   11.73    0.46
   4 -14   3   11.00    0.45
  -4  14  -3   11.59    0.50
   4  14   3   10.72    0.47
   5 -14   3    6.68    0.36
  -5 -14  -3    6.99    0.34
   5  14   3    7.08    0.37
  -5  14  -3    6.72    0.38
  -6 -14  -3    5.66    0.34
   6 -14   3    5.81    0.35
  -6  14  -3    6.01    0.37
   6  14   3    5.95    0.37
  -7 -14  -3    1.70    0.21
   7 -14   3    1.56    0.20
   7  14   3    1.90    0.22
  -7  14  -3    1.47    0.22
   8 -14   3    0.95    0.20
  -8 -14  -3    1.22    0.20
  -8  14  -3    0.97    0.22
   8  14   3    1.46    0.24
  -9 -14  -3   10.94    0.48
   9 -14   3   10.07    0.51
   9  14   3    9.85    0.53
  -9  14  -3   10.88    0.54
 -10 -14  -3    7.22    0.42
  10 -14   3    6.76    0.44
 -10  14  -3    7.19    0.46
  10  14   3    7.79    0.49
  11 -14   3    9.37    0.53
 -11 -14  -3    9.36    0.49
 -11  14  -3    9.79    0.54
  11  14   3    9.68    0.56
 -12  14  -3    2.52    0.38
  11 -15  -3    4.80    0.43
 -11 -15   3    4.22    0.36
  11 -15  -3    4.47    0.39
  11  15  -3    5.44    0.44
 -10 -15   3    2.20    0.25
  10 -15  -3    2.33    0.30
  10 -15  -3    2.26    0.26
  10  15  -3    2.05    0.27
  -9 -15   3    5.54    0.35
   9 -15  -3    5.53    0.39
   9 -15  -3    5.58    0.39
   9  15  -3    5.09    0.40
   8 -15  -3    2.27    0.25
   8 -15  -3    2.20    0.26
  -8 -15   3    2.59    0.25
   8  15  -3    2.35    0.26
   7 -15  -3    2.66    0.29
   7 -15  -3    2.68    0.26
  -7 -15   3    2.60    0.25
   7  15  -3    2.99    0.28
   6 -15  -3    0.30    0.15
   6 -15  -3    0.20    0.14
  -6 -15   3    0.04    0.13
   6  15  -3    0.30    0.16
  -5 -15   3   28.75    0.90
   5 -15  -3   29.56    0.96
   5 -15  -3   29.28    0.91
   5  15  -3   28.97    0.88
   5  15  -3   29.67    0.93
  -4 -15   3    2.78    0.24
   4 -15  -3    3.09    0.24
   4 -15  -3    2.67    0.26
  -4 -15   3    2.92    0.24
   4  15  -3    2.53    0.25
  -3 -15   3    3.38    0.26
   3 -15  -3    3.08    0.25
  -3 -15   3    2.84    0.25
   3  15  -3    2.30    0.22
  -2 -15   3   42.93    1.20
  -2 -15   3   42.97    1.21
   2 -15  -3   41.49    1.20
   2 -15  -3   42.47    1.15
  -2  15   3   43.17    1.24
   2  15  -3   43.68    1.23
   1 -15  -3    2.02    0.18
   1 -15  -3    1.94    0.20
  -1 -15   3    1.89    0.19
  -1 -15   3    2.10    0.20
   1  15  -3    1.97    0.21
  -1  15   3    2.27    0.23
   0 -15   3   37.65    1.09
   0 -15  -3   38.17    1.06
   0 -15   3   38.78    1.07
   0 -15  -3   37.43    1.09
   0  15   3   37.71    1.09
   0  15  -3   37.79    1.12
   1 -15   3   17.85    0.58
  -1 -15  -3   17.40    0.58
   1 -15   3   17.27    0.59
  -1 -15  -3   17.41    0.60
  -1  15  -3   16.92    0.63
   1  15   3   16.94    0.58
   2 -15   3   16.03    0.58
   2 -15   3   16.91    0.55
  -2 -15  -3   16.64    0.57
  -2 -15  -3   16.80    0.58
   2  15   3   16.61    0.56
  -2  15  -3   17.01    0.63
   3 -15   3    0.04    0.11
  -3 -15  -3    0.19    0.11
  -3 -15  -3    0.04    0.12
   3 -15   3    0.01    0.09
  -3  15  -3    0.04    0.14
   4 -15   3    3.03    0.27
  -4 -15  -3    3.03    0.25
   4  15   3    3.24    0.26
  -4  15  -3    3.64    0.30
  -5 -15  -3    4.04    0.30
   5 -15   3    4.31    0.31
   5  15   3    3.94    0.31
  -5  15  -3    4.42    0.35
   6 -15   3    3.04    0.29
  -6 -15  -3    3.00    0.27
  -6  15  -3    2.85    0.31
   6  15   3    2.62    0.27
  -7 -15  -3   13.24    0.53
   7 -15   3   13.72    0.57
   7  15   3   12.95    0.57
  -7  15  -3   13.05    0.60
   8 -15   3    4.53    0.36
  -8 -15  -3    5.03    0.35
   8  15   3    4.72    0.38
  -8  15  -3    4.66    0.36
   9 -15   3    3.30    0.32
  -9 -15  -3    3.66    0.32
  -9  15  -3    3.41    0.34
   9  15   3    3.46    0.34
 -10 -15  -3    2.30    0.27
  10 -15   3    2.14    0.29
 -10  15  -3    2.60    0.31
  10  15   3    1.92    0.29
 -11 -15  -3    0.38    0.21
 -11  15  -3    0.27    0.23
 -11 -16   3    1.40    0.29
  10 -16  -3    7.24    0.45
 -10 -16   3    7.15    0.43
  10  16  -3    7.32    0.49
   9 -16  -3    2.55    0.30
  -9 -16   3    3.33    0.30
   9 -16  -3    2.92    0.30
   9  16  -3    3.00    0.31
   8 -16  -3   21.62    0.78
   8 -16  -3   21.90    0.83
  -8 -16   3   21.23    0.76
   8  16  -3   21.78    0.80
  -7 -16   3    7.77    0.40
   7 -16  -3    8.17    0.46
   7 -16  -3    7.93    0.43
   7  16  -3    7.59    0.42
   6 -16  -3   11.22    0.49
  -6 -16   3   10.58    0.46
   6 -16  -3   10.96    0.54
   6  16  -3   10.17    0.50
  -5 -16   3    5.27    0.34
   5 -16  -3    5.68    0.34
   5  16  -3    4.82    0.46
   5  16  -3    5.04    0.35
  -4 -16   3    1.03    0.18
  -4 -16   3    1.33    0.19
   4 -16  -3    1.49    0.20
   4  16  -3    1.39    0.19
  -3 -16   3   10.21    0.44
   3 -16  -3   10.97    0.46
  -3 -16   3   10.86    0.45
  -3  16   3   10.44    0.48
   3  16  -3   10.11    0.45
   2 -16  -3    5.37    0.27
   2 -16  -3    5.54    0.31
  -2 -16   3    5.39    0.32
  -2 -16   3    5.78    0.32
  -2  16   3    5.68    0.35
   2  16  -3    5.58    0.33
  -1 -16   3    5.90    0.32
  -1 -16   3    6.25    0.34
   1 -16  -3    6.68    0.31
   1 -16  -3    6.39    0.34
   1  16  -3    5.93    0.36
  -1  16   3    6.43    0.36
   0 -16  -3    8.45    0.38
   0 -16  -3    7.99    0.36
   0 -16   3    8.39    0.38
   0 -16   3    8.46    0.38
   0  16   3    8.55    0.41
   0  16  -3    8.30    0.42
   1 -16   3    1.41    0.19
   1 -16   3    0.90    0.14
  -1 -16  -3    1.12    0.16
  -1 -16  -3    1.05    0.16
   1  16   3    1.11    0.17
  -1  16  -3    0.87    0.17
  -2 -16  -3    4.93    0.30
  -2 -16  -3    5.10    0.30
   2 -16   3    4.80    0.31
   2 -16   3    4.67    0.26
  -2  16  -3    4.61    0.35
   2  16   3    4.87    0.29
  -3 -16  -3    3.71    0.28
   3 -16   3    3.23    0.23
  -3 -16  -3    3.33    0.25
   3 -16   3    3.10    0.28
  -3  16  -3    3.28    0.29
   4 -16   3    9.93    0.46
  -4 -16  -3   10.00    0.44
  -4  16  -3   10.67    0.51
   4  16   3   10.04    0.47
   5 -16   3   11.08    0.48
  -5 -16  -3   10.83    0.47
  -5  16  -3   10.09    0.50
   5  16   3   10.30    0.48
  -6 -16  -3   16.88    0.63
   6 -16   3   16.43    0.64
   6  16   3   16.59    0.66
  -6  16  -3   16.84    0.68
   7 -16   3    3.29    0.30
  -7 -16  -3    3.43    0.31
   7  16   3    2.53    0.28
  -7  16  -3    2.98    0.31
   8 -16   3    3.82    0.33
  -8 -16  -3    3.66    0.32
   8  16   3    3.95    0.35
  -8  16  -3    4.10    0.38
   9 -16   3    0.54    0.20
  -9 -16  -3    0.64    0.19
   9  16   3    0.45    0.19
  -9  16  -3    0.34    0.21
  10 -16   3    5.64    0.61
 -10 -16  -3    6.07    0.41
 -10  16  -3    5.94    0.47
  10  16   3    6.38    0.54
 -10 -17   3    4.73    0.44
  10 -17  -3    4.22    0.44
  10  17  -3    5.29    0.62
   9 -17  -3    2.06    0.27
  -9 -17   3    2.03    0.26
   9  17  -3    1.96    0.27
  -9  17   3    1.67    0.27
   8 -17  -3    6.20    0.39
  -8 -17   3    6.00    0.40
   8  17  -3    6.98    0.45
   7 -17  -3    1.49    0.21
  -7 -17   3    1.40    0.22
   7  17  -3    1.37    0.23
  -6 -17   3    4.42    0.33
   6 -17  -3    3.98    0.33
  -6  17   3    4.24    0.35
   6  17  -3    4.27    0.35
  -5 -17   3   16.85    0.63
   5 -17  -3   17.30    0.64
  -5  17   3   16.33    0.68
   5  17  -3   16.65    0.65
   4 -17  -3    8.00    0.40
  -4 -17   3    7.23    0.40
  -4 -17   3    7.01    0.38
   4  17  -3    7.29    0.39
  -4  17   3    7.53    0.44
  -3 -17   3   12.96    0.52
  -3 -17   3   12.59    0.52
   3 -17  -3   13.07    0.53
   3  17  -3   12.86    0.53
  -3  17   3   13.15    0.57
  -2 -17   3   18.16    0.66
   2 -17  -3   18.00    0.65
   2 -17  -3   19.12    0.61
  -2 -17   3   18.90    0.65
   2  17  -3   18.43    0.67
  -2  17   3   19.02    0.69
  -1 -17   3    4.05    0.28
   1 -17  -3    3.48    0.28
  -1 -17   3    3.71    0.28
   1 -17  -3    3.94    0.26
  -1  17   3    3.66    0.30
   1  17  -3    3.44    0.30
   0 -17  -3   24.19    0.79
   0 -17  -3   24.39    0.75
   0 -17   3   24.53    0.76
   0 -17   3   23.80    0.79
   0  17   3   24.20    0.79
   0  17  -3   22.89    0.82
  -1 -17  -3   18.62    0.66
   1 -17   3   18.73    0.63
   1 -17   3   18.47    0.66
  -1 -17  -3   19.10    0.64
  -1  17  -3   19.08    0.70
   1  17   3   19.10    0.66
   2 -17   3    7.86    0.35
  -2 -17  -3    7.70    0.38
  -2 -17  -3    7.03    0.37
   2 -17   3    7.37    0.39
   2  17   3    7.75    0.47
  -2  17  -3    7.92    0.44
   3 -17   3    4.15    0.29
  -3 -17  -3    4.16    0.30
  -3 -17  -3    4.10    0.31
  -3  17  -3    3.90    0.35
   4 -17   3    2.19    0.24
  -4 -17  -3    2.19    0.22
  -4  17  -3    2.54    0.29
   4  17   3    2.53    0.26
  -5 -17  -3    4.97    0.35
   5 -17   3    5.80    0.37
  -5  17  -3    5.79    0.41
   5  17   3    5.21    0.38
   6 -17   3    0.05    0.15
  -6 -17  -3   -0.15    0.14
   6  17   3    0.20    0.17
  -6  17  -3    0.15    0.19
  -7 -17  -3   13.73    0.59
   7 -17   3   14.10    0.60
  -7  17  -3   14.37    0.66
   7  17   3   13.74    0.62
  -8 -17  -3    2.26    0.27
   8 -17   3    1.70    0.26
  -8  17  -3    1.70    0.27
   8  17   3    1.74    0.26
  -9 -17  -3    0.97    0.22
   9 -17   3    0.53    0.21
   9  17   3    0.81    0.24
  -9  17  -3    0.66    0.23
  -9 -18   3    8.52    0.54
   9 -18  -3    8.99    0.49
  -9  18   3    9.72    0.82
   9  18  -3    8.59    0.52
  -8 -18   3    2.00    0.26
   8 -18  -3    2.45    0.29
   8  18  -3    2.04    0.26
  -8  18   3    2.83    0.34
   7 -18  -3    4.51    0.37
  -7 -18   3    4.56    0.36
  -7  18   3    4.84    0.41
   7  18  -3    5.47    0.40
   6 -18  -3    1.32    0.21
  -6 -18   3    1.30    0.22
   6  18  -3    1.72    0.24
  -6  18   3    1.40    0.25
  -5 -18   3    5.81    0.37
   5 -18  -3    5.74    0.38
  -5  18   3    5.37    0.41
   5  18  -3    5.65    0.39
   4 -18  -3    5.70    0.37
  -4 -18   3    6.59    0.38
  -4 -18   3    6.31    0.39
   4  18  -3    6.50    0.39
  -4  18   3    6.76    0.41
  -3 -18   3    1.96    0.23
   3 -18  -3    2.13    0.24
  -3 -18   3    1.87    0.22
   3  18  -3    1.76    0.23
  -3  18   3    2.10    0.25
  -2 -18   3    8.26    0.42
  -2 -18   3    8.03    0.40
   2 -18  -3    8.53    0.41
  -2  18   3    8.16    0.44
   2  18  -3    8.13    0.43
  -1 -18   3    5.43    0.33
   1 -18  -3    5.59    0.30
   1 -18  -3    5.47    0.33
  -1 -18   3    5.47    0.35
  -1  18   3    5.32    0.36
   1  18  -3    5.21    0.37
   0 -18  -3    3.96    0.32
   0 -18   3    3.95    0.29
   0 -18   3    3.89    0.31
   0 -18  -3    3.78    0.28
   0  18   3    3.86    0.32
   0  18  -3    3.76    0.34
   1 -18   3    1.00    0.17
  -1 -18  -3    1.19    0.19
  -1 -18  -3    0.77    0.16
   1 -18   3    0.70    0.17
   1  18   3    0.89    0.18
  -1  18  -3    0.95    0.21
  -2 -18  -3   10.17    0.45
  -2 -18  -3    9.76    0.47
   2 -18   3    9.74    0.42
   2 -18   3   10.10    0.47
  -2  18  -3   10.08    0.51
  -3 -18  -3    0.83    0.18
   3 -18   3    0.50    0.17
  -3 -18  -3    0.76    0.17
  -3  18  -3    0.94    0.21
  -4 -18  -3    0.69    0.18
   4 -18   3    0.50    0.16
   4  18   3    0.54    0.16
  -4  18  -3    0.56    0.21
  -5 -18  -3   11.07    0.51
   5 -18   3   11.71    0.53
  -5  18  -3   11.54    0.58
   5  18   3   11.24    0.54
  -6 -18  -3    0.37    0.17
   6 -18   3    0.31    0.18
  -6  18  -3    0.33    0.21
   6  18   3    0.37    0.16
  -7 -18  -3    5.74    0.39
   7 -18   3    5.34    0.40
   7  18   3    5.04    0.41
  -7  18  -3    5.33    0.45
   8 -18   3    3.37    0.33
  -8 -18  -3    3.74    0.34
   8  18   3    3.89    0.37
  -8  18  -3    3.66    0.39
   8 -19  -3    0.47    0.22
  -8 -19   3    0.42    0.31
  -8  19   3    0.59    0.36
   8  19  -3    0.64    0.23
  -7 -19   3    4.57    0.36
   7 -19  -3    5.33    0.40
   7  19  -3    5.61    0.42
  -7  19   3    5.36    0.45
   6 -19  -3    1.76    0.25
  -6 -19   3    1.80    0.24
  -6  19   3    1.96    0.30
   6  19  -3    2.00    0.27
   5 -19  -3    9.63    0.48
  -5 -19   3    9.22    0.47
  -5  19   3    8.10    0.50
   5  19  -3    9.09    0.49
  -4 -19   3   12.45    0.55
   4 -19  -3   11.59    0.53
  -4 -19   3   11.81    0.52
  -4  19   3   10.36    0.56
   3 -19  -3    3.60    0.32
  -3 -19   3    3.45    0.32
  -3 -19   3    3.57    0.31
   3  19  -3    3.02    0.29
  -3  19   3    3.17    0.33
  -2 -19   3    0.34    0.15
  -2 -19   3    0.16    0.14
   2 -19  -3    0.33    0.16
   2  19  -3    0.35    0.17
  -2  19   3    0.33    0.18
   1 -19  -3    2.28    0.24
  -1 -19   3    2.58    0.27
   1 -19  -3    2.83    0.25
  -1 -19   3    2.71    0.25
   1  19  -3    2.79    0.29
  -1  19   3    2.81    0.28
   0 -19   3    6.88    0.37
   0 -19   3    6.16    0.39
   0 -19  -3    6.83    0.36
   0 -19  -3    6.49    0.38
   0  19  -3    7.91    0.45
   0  19   3    7.47    0.42
  -1 -19  -3   26.08    0.88
   1 -19   3   25.86    0.87
   1 -19   3   26.62    0.84
  -1 -19  -3   25.95    0.84
   1  19   3   26.80    0.93
  -1  19  -3   25.78    0.92
   2 -19   3    1.35    0.21
  -2 -19  -3    1.63    0.22
  -2 -19  -3    1.68    0.23
  -2  19  -3    1.29    0.24
   3 -19   3   20.21    0.74
  -3 -19  -3   20.80    0.75
  -3 -19  -3   20.34    0.72
  -3  19  -3   20.17    0.80
  -4 -19  -3    9.21    0.45
   4 -19   3    8.97    0.47
  -4  19  -3    8.58    0.52
   4  19   3    8.70    0.48
  -5 -19  -3    2.70    0.27
   5 -19   3    2.64    0.27
   5  19   3    3.20    0.32
  -5  19  -3    3.04    0.32
   6 -19   3    6.00    0.42
  -6 -19  -3    6.60    0.42
   6  19   3    6.22    0.44
  -6  19  -3    6.36    0.47
   7 -19   3    3.17    0.32
  -7 -19  -3    2.38    0.29
  -7  19  -3    2.51    0.33
   7  19   3    3.09    0.33
   7 -20  -3    5.24    0.46
  -7  20   3    5.29    0.65
   7  20  -3    5.26    0.62
   6 -20  -3    5.40    0.41
  -6 -20   3    5.78    0.41
  -6  20   3    4.98    0.44
   6  20  -3    5.29    0.43
  -5 -20   3   14.42    0.60
   5 -20  -3   13.62    0.61
   5  20  -3   14.09    0.64
  -5  20   3   13.96    0.66
  -4 -20   3   10.00    0.52
  -4 -20   3   10.56    0.51
   4 -20  -3   10.73    0.52
  -4  20   3   10.61    0.56
  -3 -20   3    2.23    0.26
   3 -20  -3    2.37    0.25
  -3 -20   3    2.58    0.26
   3  20  -3    2.67    0.31
  -3  20   3    2.46    0.30
  -2 -20   3    4.34    0.34
   2 -20  -3    4.79    0.36
  -2 -20   3    4.68    0.34
  -2  20   3    5.04    0.38
   2  20  -3    4.52    0.39
  -1 -20   3   15.86    0.61
   1 -20  -3   14.86    0.61
  -1 -20   3   15.40    0.62
  -1  20   3   15.60    0.66
   1  20  -3   16.03    0.66
   0 -20  -3    2.44    0.24
   0 -20   3    2.27    0.24
   0 -20  -3    2.07    0.25
   0 -20   3    2.06    0.26
   0  20  -3    1.80    0.26
   0  20   3    1.99    0.26
  -1 -20  -3    3.99    0.34
   1 -20   3    3.57    0.29
  -1 -20  -3    4.51    0.33
   1 -20   3    3.56    0.31
  -1  20  -3    3.66    0.35
  -2 -20  -3    0.85    0.19
  -2 -20  -3    0.54    0.18
   2 -20   3    0.93    0.19
  -2  20  -3    0.67    0.23
   3 -20   3    0.34    0.18
  -3 -20  -3    0.27    0.16
  -3 -20  -3    0.06    0.16
  -3  20  -3    0.00    0.19
  -4 -20  -3   18.36    0.71
   4 -20   3   19.09    0.74
   4  20   3   20.07    0.77
  -4  20  -3   19.58    0.81
   5 -20   3    4.02    0.37
  -5 -20  -3    4.02    0.36
  -5  20  -3    4.15    0.40
   5  20   3    4.41    0.39
  -6 -20  -3    1.26    0.24
   6 -20   3    1.69    0.26
   6  20   3    1.57    0.25
  -6  20  -3    1.62    0.30
  -5 -21   3    4.11    0.36
   5 -21  -3    4.36    0.38
   5  21  -3    4.59    0.41
  -5  21   3    4.63    0.44
   4 -21  -3    1.61    0.24
  -4 -21   3    1.57    0.24
  -4  21   3    1.26    0.26
  -3 -21   3    0.41    0.19
  -3 -21   3    0.85    0.21
   3 -21  -3    0.57    0.20
  -3  21   3    0.28    0.21
  -2 -21   3    3.92    0.33
   2 -21  -3    3.94    0.35
  -2 -21   3    3.76    0.33
   2  21  -3    3.20    0.33
  -2  21   3    3.95    0.38
  -1 -21   3    6.25    0.38
   1 -21  -3    5.74    0.40
  -1 -21   3    5.87    0.41
   1  21  -3    5.74    0.42
  -1  21   3    6.02    0.42
   0 -21  -3    6.50    0.40
   0 -21   3    6.02    0.41
   0 -21  -3    6.47    0.39
   0 -21   3    6.21    0.37
   0  21  -3    6.83    0.46
   0  21   3    5.68    0.54
   1 -21   3    6.28    0.42
  -1 -21  -3    6.58    0.42
  -1 -21  -3    6.35    0.38
  -1  21  -3    6.85    0.47
  -2 -21  -3    3.83    0.35
  -2 -21  -3    3.45    0.32
   2 -21   3    3.60    0.35
  -2  21  -3    2.82    0.33
  -3 -21  -3    0.40    0.20
   3 -21   3    0.46    0.19
  -3 -21  -3    0.36    0.17
  -3  21  -3    0.21    0.22
  -4 -21  -3    0.51    0.20
   4 -21   3    0.67    0.21
  -4  21  -3    0.41    0.22
   4  21   3    0.76    0.21
  -5 -21  -3    1.19    0.25
   5  21   3    1.02    0.38
  -4  22   3    8.97    0.56
  -3 -22   3    7.04    0.43
  -3 -22   3    6.80    0.54
   3 -22  -3    7.77    0.53
  -3  22   3    6.47    0.48
   2 -22  -3    1.39    0.25
  -2 -22   3    1.17    0.22
  -2 -22   3    1.28    0.24
  -2  22   3    1.25    0.26
   2  22  -3    1.43    0.40
  -1 -22   3    1.82    0.25
  -1 -22   3    1.98    0.26
   1 -22  -3    2.16    0.27
   1  22  -3    2.18    0.29
  -1  22   3    1.96    0.29
   0 -22  -3    0.40    0.19
   0 -22   3    0.28    0.18
   0 -22   3    0.48    0.18
   0  22  -3    0.51    0.22
   1 -22   3    4.07    0.37
  -1 -22  -3    4.20    0.33
  -1 -22  -3    3.70    0.35
  -1  22  -3    3.95    0.39
  -2 -22  -3   11.01    0.52
   2 -22   3   10.35    0.60
  -2 -22  -3   10.38    0.56
  -2  22  -3   11.48    0.62
  -3 -22  -3    5.79    0.40
  -3  22  -3    5.94    0.56
  -2 -23   3    0.47    0.32
  -2  23   3    0.79    0.24
  -1 -23   3    4.05    0.35
   1  23  -3    4.19    0.41
   0  23  -3    5.02    0.44
  -2 -23  -3    8.66    0.57
  15   0  -4   -0.20    0.20
  14   0  -4    9.38    0.53
  13   0  -4    7.66    0.45
  12   0  -4   10.48    0.50
  11   0  -4   -0.10    0.14
  11   0  -4    0.13    0.10
  10   0  -4   20.30    0.69
  10   0  -4   21.16    0.66
   9   0  -4   40.17    1.10
   9   0  -4   39.78    1.13
   8   0  -4   17.17    0.56
  -8   0   4   16.35    0.46
   8   0  -4   16.75    0.53
  -7   0   4    3.49    0.14
   7   0  -4    3.42    0.19
   7   0  -4    3.34    0.22
  -6   0   4    5.66    0.19
   6   0  -4    5.88    0.24
   6   0  -4    5.57    0.24
  -5   0   4    7.92    0.24
   5   0  -4    8.09    0.28
   5   0  -4    7.76    0.28
   4   0  -4    9.05    0.30
   4   0  -4    8.72    0.28
  -4   0   4    8.77    0.26
   3   0  -4   44.86    1.12
  -3   0   4   45.33    1.12
   3   0  -4   44.98    1.15
  -2   0   4  155.79    3.57
   2   0  -4  131.74    3.58
   2   0  -4  156.37    3.59
  -1   0   4  256.28    5.93
   1   0  -4  236.91    6.02
   0   0  -4  431.24   10.67
   0   0  -4  439.11   10.50
   0   0   4  447.95   10.50
   0   0   4  435.50   10.64
  -1   0  -4  179.06    4.41
   1   0   4  187.68    4.42
   2   0   4   17.20    0.45
  -2   0  -4   17.03    0.45
   2   0   4   16.30    0.46
   3   0   4  112.32    2.76
  -3   0  -4  109.26    2.75
  -3   0  -4  117.21    2.74
  -4   0  -4  194.69    4.82
   4   0   4  198.47    4.84
  -4   0  -4  205.14    4.80
  -5   0  -4   31.15    0.79
   5   0   4   30.83    0.84
  -5   0  -4   29.80    0.81
  -6   0  -4   27.65    0.72
   6   0   4   28.55    0.79
  -6   0  -4   26.44    0.74
  -7   0  -4    3.71    0.19
   7   0   4    3.85    0.26
  -7   0  -4    3.23    0.15
   8   0   4   10.29    0.43
  -8   0  -4   10.45    0.35
  -9   0  -4    5.32    0.25
   9   0   4    5.51    0.34
  10   0   4  123.64    3.17
  11   0   4    2.60    0.27
  12   0   4    5.94    0.42
  13   0   4    3.87    0.37
  14   0   4    7.14    0.51
  15  -1  -4    0.85    0.26
  15   1  -4    0.83    0.26
  14  -1  -4    0.56    0.24
  14   1  -4    0.55    0.22
  13  -1  -4    1.95    0.26
  13   1  -4    2.20    0.28
  12  -1  -4   11.87    0.52
  12   1  -4   11.52    0.51
  11  -1  -4    0.84    0.14
  11  -1  -4    0.47    0.17
  11   1  -4    0.69    0.13
  11   1  -4    0.63    0.18
  10  -1  -4   21.76    0.72
  10  -1  -4   21.72    0.69
  10   1  -4   20.77    0.71
  10   1  -4   22.59    0.68
   9  -1  -4   31.38    0.89
  -9  -1   4   30.46    0.81
   9  -1  -4   30.49    0.91
   9   1  -4   30.40    0.87
   9   1  -4   30.64    0.91
   8  -1  -4   36.57    0.99
  -8  -1   4   35.07    0.92
   8  -1  -4   34.98    0.99
  -8   1   4   35.44    0.89
   8   1  -4   34.63    0.97
   8   1  -4   35.81    1.00
  -7  -1   4   58.41    1.46
   7  -1  -4   59.39    1.53
   7  -1  -4   58.68    1.52
   7   1  -4   57.80    1.53
  -7   1   4   58.02    1.44
   7   1  -4   59.29    1.52
   6  -1  -4    4.55    0.22
  -6  -1   4    4.65    0.17
   6  -1  -4    4.59    0.21
   6   1  -4    4.59    0.21
  -6   1   4    4.35    0.15
   6   1  -4    4.27    0.21
   5  -1  -4   27.74    0.76
  -5  -1   4   28.59    0.73
   5  -1  -4   28.97    0.78
   5   1  -4   27.75    0.76
  -5   1   4   27.99    0.71
   5   1  -4   28.32    0.77
  -4  -1   4   29.97    0.79
   4  -1  -4   30.23    0.83
   4  -1  -4   30.71    0.81
   4   1  -4   31.79    0.81
  -4   1   4   31.89    0.78
   4   1  -4   32.05    0.83
  -3  -1   4    6.38    0.20
   3  -1  -4    6.68    0.20
   3  -1  -4    6.49    0.23
  -3   1   4    6.19    0.19
   3   1  -4    6.48    0.23
   3   1  -4    6.39    0.21
  -2  -1   4  335.86    8.21
   2  -1  -4  341.05    8.24
  -2   1   4  342.76    8.27
   2   1  -4  339.42    8.23
   2   1  -4  346.29    8.25
   1  -1  -4  315.24    7.61
  -1  -1   4  316.70    7.74
   1  -1  -4  304.98    7.60
  -1   1   4  328.61    7.62
  -1   1   4  318.21    7.70
   1   1  -4  316.84    7.63
   0  -1  -4  228.69    5.64
   0  -1   4  236.97    5.65
   0   1   4  247.09    5.65
   0   1   4  230.64    5.62
   0   1  -4  227.56    5.63
  -1  -1  -4   91.22    2.24
   1  -1   4   94.06    2.24
   1  -1   4   91.58    2.26
  -1   1  -4   90.53    2.26
   1   1   4   95.38    2.24
   2  -1   4   27.05    0.73
  -2  -1  -4   28.65    0.71
  -2  -1  -4   27.18    0.73
   2  -1   4   28.30    0.72
  -2   1  -4   29.10    0.73
   2   1   4   29.00    0.73
  -3  -1  -4   45.71    1.20
   3  -1   4   48.74    1.21
  -3  -1  -4   48.63    1.17
   3   1   4   48.48    1.21
  -3   1  -4   47.42    1.20
  -4  -1  -4    9.24    0.30
  -4  -1  -4   10.09    0.27
   4  -1   4    9.71    0.32
  -4   1  -4    9.79    0.29
   4   1   4    9.39    0.32
   5  -1   4   13.08    0.42
  -5  -1  -4   13.45    0.35
   5  -1   4   12.64    0.38
  -5  -1  -4   12.20    0.38
   5   1   4   12.54    0.42
  -5   1  -4   12.61    0.37
   6  -1   4   46.50    1.23
  -6  -1  -4   46.19    1.19
   6  -1   4   44.74    1.18
  -6  -1  -4   46.87    1.15
   6   1   4   46.44    1.23
  -7  -1  -4   12.52    0.36
   7  -1   4   12.85    0.46
   7  -1   4   12.05    0.39
  -7  -1  -4   12.42    0.40
   7   1   4   13.57    0.47
  -8  -1  -4   21.76    0.62
   8  -1   4   20.45    0.67
   8  -1   4   20.74    0.61
   8   1   4   21.37    0.69
  -8   1  -4   21.19    0.60
   9  -1   4   15.67    0.57
   9  -1   4   15.29    0.48
  -9  -1  -4   15.36    0.49
   9   1   4   14.72    0.57
  10  -1   4    0.86    0.20
 -10  -1  -4    1.18    0.14
  10   1   4    0.77    0.18
  11  -1   4   20.43    0.74
  11   1   4   20.68    0.75
  12  -1   4    1.22    0.24
  12   1   4    1.38    0.24
  13  -1   4    7.31    0.47
  13   1   4    6.93    0.45
  14  -1   4    1.75    0.29
  14   1   4    1.34    0.30
  15  -2  -4    2.11    0.31
  15   2  -4    1.58    0.30
  14  -2  -4    3.57    0.35
  14   2  -4    3.08    0.34
  13  -2  -4    2.11    0.26
  13   2  -4    2.07    0.28
  12  -2  -4    0.04    0.12
  12  -2  -4   -0.15    0.15
  12   2  -4   -0.14    0.17
  11  -2  -4    8.56    0.43
  11  -2  -4    8.76    0.39
  11   2  -4    8.63    0.44
  10  -2  -4    3.76    0.29
  10  -2  -4    3.04    0.23
  10   2  -4    3.43    0.23
  10   2  -4    3.25    0.29
  -9  -2   4    5.46    0.22
   9  -2  -4    5.43    0.31
   9  -2  -4    5.54    0.28
   9   2  -4    5.28    0.26
   9   2  -4    4.96    0.32
   8  -2  -4   33.33    0.95
  -8  -2   4   33.44    0.88
   8  -2  -4   33.80    0.94
   8   2  -4   32.98    0.95
   8   2  -4   33.10    0.92
   7  -2  -4   47.14    1.27
  -7  -2   4   47.57    1.22
   7  -2  -4   47.48    1.27
  -7   2   4   48.48    1.17
   7   2  -4   47.69    1.27
   7   2  -4   48.04    1.25
  -6  -2   4   19.82    0.54
   6  -2  -4   19.87    0.59
   6  -2  -4   19.52    0.58
  -6   2   4   20.26    0.50
   6   2  -4   19.75    0.58
   6   2  -4   19.78    0.58
   5  -2  -4    6.81    0.27
   5  -2  -4    6.82    0.25
  -5  -2   4    6.80    0.23
   5   2  -4    6.92    0.26
  -5   2   4    7.05    0.19
   5   2  -4    6.66    0.25
   4  -2  -4   43.11    1.29
  -4  -2   4   51.97    1.29
   4  -2  -4   53.74    1.33
  -4   2   4   54.38    1.26
   4   2  -4   54.63    1.32
  -3  -2   4  107.01    2.67
   3  -2  -4  111.24    2.67
   3  -2  -4  109.68    2.70
  -3   2   4  111.01    2.65
   3   2  -4  111.52    2.70
   3   2  -4  109.63    2.67
   2  -2  -4  194.74    4.70
  -2  -2   4  192.67    4.72
  -2   2   4  197.01    4.70
   2   2  -4  196.00    4.74
   2   2  -4  199.38    4.73
  -1  -2   4   14.02    0.39
   1  -2  -4   13.66    0.35
  -1  -2   4   13.51    0.36
   1  -2  -4   14.54    0.39
  -1   2   4   14.33    0.38
   0  -2  -4  469.72   11.47
   0  -2  -4  469.13   11.57
   0  -2   4  494.13   11.48
   0  -2  -4  471.32   11.54
   0   2  -4  475.41   11.65
   1  -2   4    9.71    0.29
  -1  -2  -4    9.68    0.27
   1  -2   4   10.00    0.27
   1   2   4    9.38    0.27
  -1   2  -4   10.23    0.30
   2  -2   4   86.31    2.11
  -2  -2  -4   84.90    2.12
  -2  -2  -4   87.78    2.09
   2  -2   4   84.84    2.11
   2   2   4   86.78    2.11
  -2   2  -4   87.83    2.12
   3  -2   4   25.89    0.67
   3  -2   4   21.77    0.65
  -3  -2  -4   26.37    0.62
  -3  -2  -4   25.35    0.67
   3   2   4   25.69    0.67
  -3   2  -4   25.01    0.67
   4  -2   4   18.54    0.52
  -4  -2  -4   19.03    0.45
  -4  -2  -4   18.31    0.51
  -4   2  -4   15.86    0.50
   4   2   4   18.10    0.52
  -5  -2  -4   19.29    0.47
   5  -2   4   19.27    0.56
   5  -2   4   15.84    0.51
  -5  -2  -4   18.57    0.53
   5   2   4   19.73    0.56
   6  -2   4    5.83    0.28
  -6  -2  -4    6.26    0.24
   6  -2   4    5.83    0.23
  -6  -2  -4    6.00    0.17
  -6   2  -4    5.00    0.22
   6   2   4    6.00    0.29
  -7  -2  -4    7.30    0.28
   7  -2   4    7.13    0.27
   7  -2   4    6.94    0.32
   7   2   4    7.60    0.35
  -7   2  -4    7.10    0.27
  -8  -2  -4    8.84    0.34
   8  -2   4    9.36    0.33
   8  -2   4    9.16    0.40
   8   2   4    9.47    0.42
  -8   2  -4    9.86    0.34
   9  -2   4    2.93    0.28
  -9  -2  -4    3.23    0.20
   9   2   4    3.49    0.28
  10  -2   4   40.47    1.19
 -10  -2  -4   40.21    1.10
  10   2   4   39.77    1.18
  11  -2   4    0.62    0.18
  11   2   4    0.34    0.17
  12  -2   4    2.19    0.26
  12   2   4    1.81    0.26
  13  -2   4    1.05    0.23
  13   2   4    1.51    0.27
  14  -2   4    1.22    0.27
  14   2   4    1.44    0.30
  15  -3  -4    0.31    0.22
  15   3  -4    0.13    0.24
  14  -3  -4    1.05    0.25
  14   3  -4    1.02    0.26
  13  -3  -4   10.05    0.51
  13   3  -4   10.21    0.52
  12  -3  -4    2.38    0.23
  12  -3  -4    1.71    0.24
  12   3  -4    2.46    0.27
  11  -3  -4   37.96    1.13
  11  -3  -4   39.51    1.15
  11   3  -4   39.47    1.17
  10  -3  -4    8.87    0.41
 -10  -3   4    9.11    0.33
  10  -3  -4    9.28    0.40
  10   3  -4    8.23    0.35
  10   3  -4    8.55    0.42
   9  -3  -4   17.16    0.59
   9  -3  -4   17.69    0.60
  -9  -3   4   17.79    0.53
   9   3  -4   18.18    0.62
   9   3  -4   18.05    0.56
   8  -3  -4   33.52    0.96
  -8  -3   4   34.09    0.90
   8  -3  -4   33.93    0.96
   8   3  -4   34.00    0.97
   8   3  -4   33.31    0.93
   7  -3  -4   27.74    0.78
  -7  -3   4   27.81    0.74
   7  -3  -4   27.81    0.79
   7   3  -4   26.64    0.79
   7   3  -4   26.50    0.76
   6  -3  -4   18.08    0.56
  -6  -3   4   17.60    0.51
   6  -3  -4   17.82    0.54
  -6   3   4   18.90    0.45
   6   3  -4   17.80    0.53
   6   3  -4   18.40    0.55
   5  -3  -4   23.62    0.65
   5  -3  -4   24.46    0.68
  -5  -3   4   24.09    0.64
  -5   3   4   24.00    0.58
   5   3  -4   22.34    0.66
   5   3  -4   23.56    0.66
  -4  -3   4    1.46    0.10
   4  -3  -4    1.41    0.12
  -4   3   4    1.55    0.07
   4   3  -4    1.38    0.11
  -3  -3   4   23.63    0.62
   3  -3  -4   24.34    0.62
   3   3  -4   22.75    0.62
   3   3  -4   23.20    0.64
  -3   3   4   23.35    0.59
  -2  -3   4   86.36    2.14
   2  -3  -4   85.82    2.12
   2   3  -4   87.04    2.16
   2   3  -4   89.06    2.13
  -2   3   4   88.67    2.12
   1  -3  -4  135.17    3.17
   1  -3  -4  137.26    3.19
   1  -3  -4  133.57    3.15
  -1  -3   4  111.85    3.17
  -1  -3   4  132.18    3.16
   1   3  -4  135.22    3.20
   0  -3  -4   54.52    1.34
   0  -3  -4   55.04    1.36
   0  -3   4   55.12    1.35
   0  -3  -4   55.52    1.36
  -1  -3  -4  141.97    3.39
   1  -3   4  138.89    3.41
   1  -3   4  142.72    3.40
  -1   3  -4  135.30    3.42
   1   3   4  144.72    3.40
   2  -3   4    6.16    0.21
   2  -3   4    6.31    0.21
  -2  -3  -4    6.56    0.17
  -2  -3  -4    5.08    0.20
  -2   3  -4    4.87    0.20
   2   3   4    6.63    0.21
  -3  -3  -4   57.00    1.33
  -3  -3  -4   54.75    1.39
   3  -3   4   54.11    1.39
   3   3   4   55.14    1.40
  -4  -3  -4   65.02    1.65
   4  -3   4   65.48    1.66
   4   3   4   66.15    1.66
  -5  -3  -4   46.61    1.19
   5  -3   4   46.56    1.21
   5   3   4   46.61    1.22
  -5   3  -4   44.84    1.19
  -6  -3  -4  119.20    2.94
   6  -3   4  119.80    2.97
   6  -3   4  118.92    2.91
   6   3   4  121.49    2.98
  -6   3  -4  115.86    2.94
   7  -3   4    1.39    0.16
  -7  -3  -4    1.26    0.13
   7  -3   4    1.52    0.14
   7   3   4    1.26    0.16
  -7   3  -4    1.44    0.14
  -8  -3  -4   82.56    2.09
   8  -3   4   83.54    2.06
   8  -3   4   80.70    2.14
  -8   3  -4   81.95    2.09
   8   3   4   83.08    2.15
   9  -3   4    6.31    0.36
  -9  -3  -4    6.21    0.29
  -9   3  -4    6.78    0.30
   9   3   4    6.48    0.37
 -10  -3  -4    8.10    0.34
  10  -3   4    8.62    0.41
  10   3   4    7.99    0.43
  11  -3   4    5.17    0.35
 -11  -3  -4    6.21    0.31
  11   3   4    6.02    0.38
  12  -3   4    4.61    0.38
  12   3   4    5.10    0.40
  13  -3   4    7.98    0.48
  13   3   4    7.82    0.50
  14  -3   4    4.34    0.40
  14   3   4    4.34    0.41
  15  -4  -4    0.05    0.25
  15   4  -4   -0.16    0.34
  14  -4  -4    1.36    0.26
  14   4  -4    1.53    0.28
  13  -4  -4    5.10    0.37
  13   4  -4    6.08    0.42
  12  -4  -4    1.03    0.18
  12  -4  -4    0.86    0.19
  12   4  -4    1.10    0.22
  11  -4  -4    2.95    0.27
  11  -4  -4    2.95    0.26
  11   4  -4    2.98    0.28
  10  -4  -4   11.47    0.46
 -10  -4   4   11.22    0.39
  10  -4  -4   11.07    0.45
  10   4  -4   10.89    0.48
  10   4  -4   11.44    0.42
   9  -4  -4   10.30    0.42
   9  -4  -4   10.51    0.43
  -9  -4   4   10.78    0.37
   9   4  -4   10.47    0.38
   9   4  -4   10.58    0.45
   8  -4  -4   28.42    0.83
   8  -4  -4   28.56    0.83
  -8  -4   4   27.97    0.78
   8   4  -4   27.71    0.79
   8   4  -4   28.12    0.84
  -7  -4   4   20.97    0.59
   7  -4  -4   19.78    0.63
   7  -4  -4   20.66    0.62
   7   4  -4   20.61    0.60
   7   4  -4   20.52    0.63
  -6  -4   4    9.41    0.31
   6  -4  -4    9.41    0.35
   6  -4  -4    9.40    0.33
   6   4  -4    9.44    0.33
   6   4  -4    9.06    0.34
   5  -4  -4    1.67    0.13
  -5  -4   4    1.69    0.12
   5  -4  -4    1.72    0.15
   5   4  -4    1.77    0.14
   5   4  -4    1.81    0.13
  -4  -4   4   26.01    0.70
   4  -4  -4   25.95    0.73
  -4   4   4   28.25    0.65
   4   4  -4   26.35    0.71
   4   4  -4   24.26    0.70
  -3  -4   4   60.22    1.48
   3  -4  -4   60.39    1.47
   3   4  -4   60.37    1.50
  -3   4   4   62.39    1.44
   3   4  -4   52.58    1.47
   2  -4  -4   73.65    1.78
  -2  -4   4   70.84    1.79
  -2  -4   4   74.86    1.81
   2  -4  -4   72.71    1.79
   2   4  -4   73.55    1.82
   1  -4  -4   55.66    1.37
  -1  -4   4   54.77    1.37
   1  -4  -4   55.70    1.36
   1  -4  -4   55.63    1.39
   1   4  -4   55.76    1.40
   0  -4  -4    3.74    0.15
   0  -4  -4    3.88    0.15
   0  -4   4    3.84    0.14
   0  -4  -4    3.74    0.13
  -1  -4  -4   50.34    1.25
   1  -4   4   49.99    1.25
  -1  -4  -4   50.79    1.25
   2  -4   4   93.72    2.33
  -2  -4  -4   97.34    2.30
   2   4   4   94.33    2.33
  -3  -4  -4   19.57    0.49
  -3  -4  -4   19.77    0.56
   3  -4   4   19.44    0.55
   3   4   4   20.25    0.56
  -3   4  -4   20.69    0.57
   4  -4   4   20.17    0.58
  -4  -4  -4   20.27    0.57
  -4   4  -4   19.80    0.58
   4   4   4   20.06    0.58
   5  -4   4    6.32    0.27
  -5  -4  -4    6.48    0.26
   5   4   4    6.89    0.29
  -5   4  -4    6.57    0.26
   6  -4   4   16.70    0.47
   6  -4   4   16.04    0.52
  -6  -4  -4   16.46    0.50
  -6   4  -4   15.56    0.50
   6   4   4   16.17    0.54
   7  -4   4   18.37    0.61
  -7  -4  -4   18.88    0.57
   7  -4   4   18.65    0.53
   7   4   4   19.53    0.63
  -7   4  -4   17.87    0.57
   8  -4   4   34.17    1.00
  -8  -4  -4   34.20    0.95
   8  -4   4   35.06    0.94
  -8   4  -4   33.67    0.95
   8   4   4   32.87    1.00
  -9  -4  -4   71.27    1.83
   9  -4   4   71.35    1.89
  -9   4  -4   70.94    1.84
   9   4   4   68.66    1.89
  10  -4   4   10.04    0.47
 -10  -4  -4   10.09    0.39
  10   4   4   10.58    0.49
  11  -4   4   26.44    0.88
 -11  -4  -4   26.05    0.79
  11   4   4   26.45    0.89
  12  -4   4   16.63    0.67
  12   4   4   15.87    0.66
  13  -4   4    8.52    0.50
  13   4   4    8.37    0.51
  14  -4   4    5.39    0.48
  14   4   4    5.18    0.44
  14  -5  -4    0.39    0.21
  14   5  -4    0.96    0.25
  13  -5  -4    0.70    0.18
  13  -5  -4    0.30    0.20
  13   5  -4    0.40    0.21
  12  -5  -4    1.88    0.23
  12  -5  -4    2.27    0.24
  12   5  -4    2.11    0.25
  11  -5  -4   14.79    0.57
  11  -5  -4   14.34    0.57
  11   5  -4   15.33    0.60
  10  -5  -4    4.48    0.30
  10  -5  -4    4.85    0.30
 -10  -5   4    4.85    0.25
  10   5  -4    5.48    0.32
   9  -5  -4   28.95    0.89
  -9  -5   4   29.12    0.82
   9  -5  -4   29.33    0.88
   9   5  -4   29.31    0.83
   9   5  -4   29.74    0.90
  -8  -5   4    6.92    0.28
   8  -5  -4    7.17    0.33
   8  -5  -4    6.60    0.32
   8   5  -4    6.97    0.35
   8   5  -4    6.84    0.28
   7  -5  -4    4.00    0.24
   7  -5  -4    3.98    0.23
  -7  -5   4    3.89    0.20
   7   5  -4    3.73    0.23
   7   5  -4    3.75    0.20
   6  -5  -4    8.00    0.31
   6  -5  -4    8.03    0.33
  -6  -5   4    7.72    0.29
   6   5  -4    8.22    0.29
   6   5  -4    7.92    0.32
   5  -5  -4   61.23    1.55
  -5  -5   4   62.32    1.55
   5  -5  -4   62.63    1.59
   5   5  -4   59.64    1.55
   5   5  -4   59.25    1.56
   4  -5  -4   69.55    1.76
   4  -5  -4   71.42    1.80
  -4  -5   4   71.82    1.77
   4   5  -4   69.83    1.77
   4   5  -4   68.85    1.77
  -4   5   4   70.82    1.70
  -3  -5   4    5.40    0.21
   3  -5  -4    5.45    0.17
   3   5  -4    5.43    0.22
  -2  -5   4   26.82    0.71
   2  -5  -4   27.37    0.68
  -2  -5   4   26.26    0.69
   2  -5  -4   25.07    0.69
   2   5  -4   26.71    0.72
   1  -5  -4  103.83    2.52
   1  -5  -4  102.99    2.52
  -1  -5   4  100.86    2.52
   1   5  -4  106.03    2.56
   0  -5   4   19.89    0.54
   0  -5  -4   20.55    0.55
   0  -5  -4   19.99    0.53
   1  -5   4    6.66    0.22
  -1  -5  -4    6.64    0.22
  -1  -5  -4    6.70    0.21
   2  -5   4   59.74    1.50
  -2  -5  -4   61.22    1.46
   2   5   4   59.29    1.50
  -2   5  -4   58.76    1.52
   3  -5   4  172.23    4.18
  -3  -5  -4  173.36    4.11
  -3  -5  -4  170.74    4.18
  -3   5  -4  169.72    4.20
   3   5   4  172.55    4.18
   4  -5   4   11.97    0.38
  -4  -5  -4   11.03    0.36
  -4   5  -4   10.67    0.37
   4   5   4   11.26    0.38
   5  -5   4   74.42    1.83
  -5  -5  -4   71.48    1.82
  -5   5  -4   69.27    1.82
   5   5   4   71.23    1.83
   6  -5   4   24.19    0.66
   6  -5   4   24.16    0.73
  -6  -5  -4   23.78    0.70
   6   5   4   25.13    0.74
  -6   5  -4   24.39    0.71
   7  -5   4   14.31    0.50
   7  -5   4   14.46    0.43
  -7  -5  -4   14.41    0.47
  -7   5  -4   13.98    0.48
   7   5   4   13.42    0.50
  -8  -5  -4   53.76    1.43
   8  -5   4   54.29    1.47
  -8   5  -4   53.00    1.44
   8   5   4   53.94    1.48
  -9  -5  -4    5.10    0.27
   9  -5   4    5.24    0.33
  -9   5  -4    5.04    0.28
   9   5   4    5.41    0.35
  10  -5   4    0.85    0.19
 -10  -5  -4    0.89    0.14
  10   5   4    0.76    0.19
  11  -5   4   27.96    0.92
 -11  -5  -4   27.24    0.83
  11   5   4   27.74    0.93
  12  -5   4    2.98    0.30
  12   5   4    3.31    0.32
  13  -5   4    1.29    0.26
  13   5   4    1.11    0.26
  14  -6  -4    2.77    0.32
  14   6  -4    2.69    0.32
  13  -6  -4    5.73    0.37
  13  -6  -4    5.55    0.40
  13   6  -4    5.12    0.42
  12  -6  -4   15.35    0.61
  12  -6  -4   13.91    0.58
  12   6  -4   15.18    0.63
  11  -6  -4   10.78    0.49
 -11  -6   4   10.96    0.42
  11  -6  -4   11.46    0.49
  11   6  -4   11.16    0.51
  10  -6  -4    3.32    0.27
  10  -6  -4    3.38    0.26
 -10  -6   4    3.26    0.22
  10   6  -4    3.54    0.30
   9  -6  -4    2.54    0.24
  -9  -6   4    2.51    0.19
   9  -6  -4    2.47    0.23
   9   6  -4    2.34    0.19
   9   6  -4    2.49    0.23
   8  -6  -4   11.20    0.43
  -8  -6   4   11.14    0.39
   8  -6  -4   10.79    0.44
   8   6  -4   10.97    0.45
   8   6  -4   10.88    0.38
  -7  -6   4   76.07    1.92
   7  -6  -4   75.59    1.94
   7  -6  -4   76.39    1.97
   7   6  -4   75.39    1.96
   7   6  -4   74.19    1.91
   6  -6  -4    7.70    0.32
   6  -6  -4    7.60    0.30
  -6  -6   4    7.17    0.28
   6   6  -4    7.45    0.28
   6   6  -4    7.08    0.31
  -5  -6   4   13.71    0.43
   5  -6  -4   13.89    0.46
   5  -6  -4   12.94    0.42
   5   6  -4   13.09    0.43
   5   6  -4   13.64    0.43
  -4  -6   4   38.21    0.98
   4  -6  -4   36.38    0.97
  -4   6   4   36.40    0.90
   4   6  -4   36.57    0.98
   4   6  -4   35.94    0.97
   3  -6  -4  178.26    4.43
   3  -6  -4  184.82    4.36
  -3  -6   4  187.65    4.42
   3  -6  -4  178.63    4.40
   3   6  -4  177.79    4.42
   2  -6  -4    3.13    0.16
  -2  -6   4    3.11    0.14
   2  -6  -4    3.06    0.13
   2   6  -4    2.98    0.17
  -1  -6   4   44.39    1.17
  -1  -6   4   48.30    1.16
   1  -6  -4   40.56    1.15
   1   6  -4   50.31    1.20
   0  -6  -4    8.87    0.31
   0  -6   4   10.70    0.32
   0  -6   4   10.90    0.33
   0   6  -4   11.20    0.35
  -1  -6  -4    0.71    0.08
  -1  -6  -4    0.86    0.08
   1  -6   4    0.90    0.09
   1  -6   4    0.81    0.08
  -2  -6  -4  275.83    6.82
  -2  -6  -4  285.08    6.78
   2  -6   4  283.40    6.82
   2   6   4  288.50    6.83
  -2   6  -4  281.64    6.85
   3  -6   4    1.10    0.10
   3  -6   4    1.41    0.12
  -3   6  -4    1.31    0.13
   3   6   4    1.64    0.13
   4  -6   4   50.60    1.33
  -4  -6  -4   52.62    1.33
   4   6   4   52.40    1.34
  -4   6  -4   49.23    1.34
  -5  -6  -4   99.11    2.46
   5  -6   4   94.01    2.41
   5  -6   4  101.85    2.47
  -5   6  -4   95.78    2.47
   5   6   4   99.79    2.48
   6  -6   4    4.32    0.19
   6  -6   4    4.07    0.25
  -6  -6  -4    4.06    0.22
  -6   6  -4    3.73    0.23
   6   6   4    3.98    0.24
   7  -6   4   24.82    0.76
   7  -6   4   25.32    0.68
  -7  -6  -4   25.24    0.74
   7   6   4   24.22    0.77
  -7   6  -4   24.19    0.74
  -8  -6  -4   32.06    0.92
   8  -6   4   32.78    0.96
  -8   6  -4   31.86    0.93
   8   6   4   31.32    0.97
  -9  -6  -4   25.20    0.76
   9  -6   4   26.14    0.82
   9   6   4   25.25    0.84
  -9   6  -4   24.47    0.78
 -10  -6  -4   10.08    0.41
  10  -6   4    9.14    0.44
  10   6   4    9.55    0.48
 -10   6  -4    9.81    0.42
  11  -6   4    3.93    0.35
 -11  -6  -4    4.51    0.28
  11   6   4    4.38    0.38
  12  -6   4    4.50    0.38
 -12  -6  -4    4.44    0.33
  12   6   4    4.61    0.37
  13  -6   4    0.44    0.22
  13   6   4    0.89    0.25
  14  -7  -4    1.19    0.25
  14   7  -4    1.12    0.27
  13  -7  -4    0.61    0.21
  13  -7  -4    1.16    0.22
  13   7  -4    0.84    0.23
  12  -7  -4    4.71    0.37
  12  -7  -4    5.44    0.36
  12   7  -4    5.00    0.39
  11  -7  -4    4.07    0.31
 -11  -7   4    3.90    0.26
  11  -7  -4    4.02    0.32
  11   7  -4    4.13    0.35
  10  -7  -4   13.29    0.53
 -10  -7   4   12.74    0.46
  10  -7  -4   12.81    0.53
  10   7  -4   12.97    0.54
   9  -7  -4   19.43    0.65
   9  -7  -4   17.90    0.65
  -9  -7   4   18.95    0.60
   9   7  -4   18.69    0.65
  -8  -7   4   49.43    1.32
   8  -7  -4   48.91    1.38
   8  -7  -4   51.28    1.36
   8   7  -4   49.48    1.31
   8   7  -4   48.55    1.36
   7  -7  -4   15.42    0.55
  -7  -7   4   15.96    0.51
   7  -7  -4   15.59    0.53
   7   7  -4   15.97    0.54
   7   7  -4   15.41    0.49
   6  -7  -4    7.03    0.32
   6  -7  -4    7.02    0.30
  -6  -7   4    7.25    0.29
   6   7  -4    7.13    0.28
   6   7  -4    7.06    0.30
   5  -7  -4    4.24    0.21
   5  -7  -4    4.18    0.23
  -5  -7   4    4.27    0.21
   5   7  -4    4.00    0.21
  -5   7   4    4.23    0.12
   5   7  -4    4.07    0.22
  -4  -7   4   28.21    0.77
   4  -7  -4   27.95    0.70
   4  -7  -4   27.38    0.77
   4   7  -4   28.45    0.78
   4   7  -4   27.83    0.78
   3  -7  -4    1.59    0.09
   3  -7  -4    1.58    0.13
  -3  -7   4    1.63    0.13
   3  -7  -4    1.52    0.12
  -3  -7   4    1.54    0.12
   3   7  -4    1.41    0.13
   2  -7  -4   15.64    0.48
   2  -7  -4   15.80    0.45
  -2  -7   4   15.76    0.46
   2  -7  -4   15.04    0.43
   2   7  -4   15.93    0.48
   1  -7  -4   74.13    1.87
  -1  -7   4   75.11    1.85
  -1  -7   4   74.30    1.86
   1  -7  -4   71.93    1.85
   1   7  -4   76.93    1.89
   0  -7   4   72.73    1.80
   0  -7  -4   71.90    1.79
   0  -7   4   71.93    1.80
   0  -7  -4   69.41    1.79
   0   7  -4   74.83    1.84
  -1  -7  -4  163.01    3.99
  -1  -7  -4  163.79    4.00
  -1  -7  -4  163.93    4.00
   1  -7   4  165.21    4.00
   1  -7   4  166.76    4.00
  -2  -7  -4  262.67    6.32
  -2  -7  -4  251.34    6.31
   2  -7   4  260.99    6.31
  -2  -7  -4  267.13    6.28
   2  -7   4  263.06    6.32
  -2   7  -4  263.56    6.35
   3  -7   4    4.87    0.20
   3  -7   4    4.86    0.22
  -3   7  -4    4.97    0.24
   3   7   4    4.93    0.23
   3   7   4    5.25    0.17
   4  -7   4    4.71    0.20
  -4  -7  -4    4.54    0.22
   4  -7   4    5.04    0.23
  -4   7  -4    4.50    0.24
   4   7   4    4.42    0.13
   4   7   4    4.06    0.22
   5  -7   4   61.82    1.57
   5  -7   4   63.15    1.63
  -5  -7  -4   63.10    1.62
  -5   7  -4   61.65    1.64
   5   7   4   63.94    1.64
   6  -7   4   18.58    0.52
  -6  -7  -4   18.29    0.57
   6  -7   4   18.49    0.60
   6   7   4   18.11    0.60
  -6   7  -4   17.91    0.59
  -7  -7  -4   62.78    1.67
   7  -7   4   63.32    1.70
   7   7   4   64.82    1.71
  -7   7  -4   64.34    1.70
   8  -7   4    1.17    0.17
  -8  -7  -4    1.76    0.18
   8   7   4    1.75    0.22
  -8   7  -4    1.58    0.18
   9  -7   4   10.22    0.45
  -9  -7  -4   10.27    0.41
   9   7   4   10.35    0.48
  -9   7  -4   10.13    0.43
 -10  -7  -4    9.38    0.41
  10  -7   4    9.28    0.45
  10   7   4    9.99    0.49
 -10   7  -4    9.97    0.44
  11  -7   4   14.59    0.60
 -11  -7  -4   14.85    0.55
  11   7   4   14.98    0.64
  12  -7   4    8.24    0.48
 -12  -7  -4    8.30    0.41
  12   7   4    8.02    0.50
  13  -7   4   10.97    0.57
  13   7   4   10.36    0.56
  14  -8  -4    2.66    0.31
  14   8  -4    2.04    0.31
  13  -8  -4    3.11    0.31
  13  -8  -4    2.96    0.32
  13   8  -4    2.73    0.32
  12  -8  -4    4.60    0.36
  12  -8  -4    4.34    0.36
  12   8  -4    4.58    0.39
 -11  -8   4    5.42    0.30
  11  -8  -4    5.21    0.35
  11  -8  -4    5.13    0.36
  11   8  -4    4.83    0.37
  10  -8  -4    0.34    0.15
 -10  -8   4    0.40    0.12
  10  -8  -4    0.56    0.16
  10   8  -4    0.61    0.16
   9  -8  -4   14.38    0.53
   9  -8  -4   13.72    0.55
  -9  -8   4   13.70    0.49
   9   8  -4   13.09    0.52
   8  -8  -4   10.97    0.44
   8  -8  -4   10.89    0.46
  -8  -8   4   10.84    0.41
   8   8  -4   10.93    0.39
   8   8  -4   11.33    0.46
   7  -8  -4    5.90    0.32
  -7  -8   4    6.44    0.29
   7  -8  -4    5.77    0.29
   7   8  -4    6.12    0.27
   7   8  -4    5.50    0.31
   6  -8  -4    0.48    0.11
  -6  -8   4    0.60    0.11
   6  -8  -4    0.68    0.14
   6   8  -4    0.39    0.11
   6   8  -4    0.56    0.10
   5  -8  -4    3.61    0.20
  -5  -8   4    3.66    0.20
   5   8  -4    3.28    0.21
   5   8  -4    3.53    0.20
   4  -8  -4   12.55    0.35
   4  -8  -4   12.66    0.41
  -4  -8   4   13.18    0.42
   4  -8  -4   12.93    0.44
   4   8  -4   12.65    0.42
   4   8  -4   12.51    0.42
   3  -8  -4    5.69    0.19
   3  -8  -4    5.54    0.26
   3  -8  -4    5.45    0.23
  -3  -8   4    5.47    0.23
  -3  -8   4    5.49    0.23
   3   8  -4    5.42    0.24
   2  -8  -4   21.72    0.61
  -2  -8   4   20.63    0.62
  -2  -8   4   22.15    0.62
   2  -8  -4   21.63    0.64
   2   8  -4   22.78    0.64
   1  -8  -4   23.84    0.64
  -1  -8   4   23.27    0.66
   1  -8  -4   22.71    0.64
  -1  -8   4   23.80    0.65
   1  -8  -4   23.10    0.66
   1   8  -4   23.85    0.68
   0  -8   4    3.12    0.16
   0  -8  -4    2.63    0.15
   0  -8  -4    2.74    0.15
   0  -8  -4    2.97    0.15
   0  -8   4    2.94    0.16
   0   8  -4    2.78    0.18
   1  -8   4    3.67    0.18
  -1  -8  -4    3.76    0.18
   1  -8   4    3.82    0.18
  -1  -8  -4    3.56    0.18
  -1   8  -4    3.95    0.21
   2  -8   4   99.85    2.42
  -2  -8  -4   98.89    2.44
  -2  -8  -4  103.08    2.40
   2  -8   4  100.46    2.44
  -2  -8  -4   98.48    2.44
  -2   8  -4   86.44    2.46
  -3  -8  -4   21.04    0.63
   3  -8   4   21.89    0.63
   3  -8   4   21.90    0.60
   3   8   4   20.99    0.57
   3   8   4   22.85    0.64
  -3   8  -4   21.80    0.66
   4  -8   4   54.90    1.42
   4  -8   4   54.57    1.38
   4   8   4   54.09    1.43
   4   8   4   54.57    1.33
  -4   8  -4   53.21    1.45
  -5  -8  -4    1.28    0.14
   5  -8   4    0.99    0.13
   5  -8   4    1.11    0.11
  -5   8  -4    1.10    0.14
   5   8   4    1.47    0.16
   6  -8   4   14.39    0.43
   6  -8   4   14.39    0.51
  -6  -8  -4   14.23    0.49
   6   8   4   14.40    0.52
  -6   8  -4   13.79    0.51
  -7  -8  -4   37.81    1.06
   7  -8   4   38.87    1.09
   7   8   4   37.32    1.10
  -7   8  -4   37.40    1.09
   8  -8   4    1.63    0.20
  -8  -8  -4    1.67    0.18
  -8   8  -4    1.53    0.18
   8   8   4    1.35    0.19
  -9  -8  -4    9.06    0.40
   9  -8   4    8.82    0.44
  -9   8  -4    9.42    0.42
   9   8   4    9.22    0.46
 -10  -8  -4    5.49    0.32
  10  -8   4    5.76    0.36
 -10   8  -4    6.05    0.35
  10   8   4    5.79    0.40
  11  -8   4    4.55    0.37
 -11  -8  -4    4.44    0.31
  11   8   4    3.91    0.37
  12  -8   4   17.54    0.73
 -12  -8  -4   18.54    0.65
  12   8   4   18.67    0.76
  13  -8   4    6.03    0.46
  13   8   4    6.77    0.46
  14  -9  -4    3.11    0.33
  14  -9  -4    1.53    0.34
  13  -9  -4    3.11    0.32
  13  -9  -4    3.18    0.33
  13   9  -4    3.68    0.36
  12  -9  -4    7.66    0.45
 -12  -9   4    7.93    0.39
  12  -9  -4    8.03    0.46
  12   9  -4    8.14    0.48
  11  -9  -4   13.10    0.57
  11  -9  -4   13.25    0.56
 -11  -9   4   12.73    0.50
  11   9  -4   12.89    0.58
  10  -9  -4    1.85    0.22
 -10  -9   4    2.54    0.22
  10  -9  -4    1.75    0.23
  10   9  -4    2.22    0.24
   9  -9  -4    3.23    0.27
  -9  -9   4    2.92    0.23
   9  -9  -4    2.90    0.28
   9   9  -4    3.58    0.30
  -8  -9   4   16.38    0.55
   8  -9  -4   16.71    0.57
   8  -9  -4   15.68    0.59
   8   9  -4   15.87    0.58
   8   9  -4   16.07    0.52
  -7  -9   4   31.37    0.90
   7  -9  -4   31.54    0.95
   7  -9  -4   31.72    0.92
   7   9  -4   31.33    0.93
   7   9  -4   30.83    0.88
   6  -9  -4   47.81    1.28
   6  -9  -4   45.58    1.32
  -6  -9   4   46.99    1.28
   6   9  -4   48.90    1.27
   6   9  -4   48.15    1.30
  -5  -9   4   15.40    0.50
   5  -9  -4   15.64    0.50
   5   9  -4   15.23    0.51
   5   9  -4   15.04    0.49
   4  -9  -4   45.98    1.11
   4  -9  -4   43.21    1.21
   4  -9  -4   44.21    1.18
  -4  -9   4   47.09    1.19
   4   9  -4   42.83    1.18
   4   9  -4   42.20    1.18
   3  -9  -4   11.15    0.41
   3  -9  -4   11.22    0.38
  -3  -9   4   11.90    0.39
   3   9  -4   11.94    0.41
  -2  -9   4    2.23    0.15
   2  -9  -4    2.31    0.13
   2  -9  -4    1.89    0.14
   2  -9  -4    2.27    0.17
  -2  -9   4    2.50    0.16
   2   9  -4    2.35    0.18
  -1  -9   4   31.08    0.85
   1  -9  -4   31.42    0.82
   1  -9  -4   30.25    0.86
  -1  -9   4   31.76    0.84
   1  -9  -4   29.80    0.84
   1   9  -4   31.73    0.88
   0  -9   4   25.13    0.70
   0  -9  -4   24.94    0.69
   0  -9   4   24.16    0.69
   0  -9  -4   23.71    0.69
   0  -9  -4   24.74    0.70
   0   9  -4   27.10    0.74
   1  -9   4  169.78    4.11
  -1  -9  -4  167.57    4.10
   1  -9   4  165.60    4.09
  -1  -9  -4  168.94    4.09
  -1  -9  -4  163.04    4.10
  -1   9  -4  172.05    4.14
  -2  -9  -4   38.21    1.03
  -2  -9  -4   38.24    1.03
   2  -9   4   38.36    1.01
   2  -9   4   39.19    1.03
   3  -9   4    7.03    0.26
  -3  -9  -4    7.13    0.29
   3  -9   4    6.64    0.28
   3   9   4    6.38    0.23
  -3   9  -4    7.15    0.32
   3   9   4    6.52    0.29
   4  -9   4   53.53    1.39
   4  -9   4   52.01    1.34
   4   9   4   51.18    1.30
   4   9   4   52.11    1.40
  -4   9  -4   53.51    1.42
   5  -9   4   45.51    1.14
   5  -9   4   45.67    1.21
  -5  -9  -4   39.13    1.18
   5   9   4   45.70    1.22
  -5   9  -4   43.77    1.22
   6  -9   4  109.44    2.75
   6  -9   4  108.95    2.68
  -6  -9  -4  107.92    2.73
   6   9   4  106.78    2.75
  -6   9  -4  106.69    2.76
   7  -9   4   71.70    1.88
  -7  -9  -4   69.97    1.86
   7   9   4   70.85    1.90
  -7   9  -4   71.14    1.90
   8  -9   4    9.49    0.43
  -8  -9  -4    8.80    0.39
  -8   9  -4    9.37    0.43
   8   9   4    9.36    0.44
   9  -9   4   16.12    0.61
  -9  -9  -4   16.57    0.58
   9   9   4   15.39    0.61
  -9   9  -4   15.74    0.60
 -10  -9  -4    3.74    0.30
  10  -9   4    4.09    0.34
  10   9   4    3.97    0.36
 -10   9  -4    4.29    0.31
 -11  -9  -4    9.35    0.43
  11  -9   4    9.21    0.47
  11   9   4    9.28    0.49
 -11   9  -4    8.93    0.46
 -12  -9  -4   19.65    0.71
  12  -9   4   20.46    0.79
  12   9   4   21.28    0.82
  13  -9   4   10.40    0.65
  13   9   4    9.70    0.65
  14 -10  -4    0.43    0.22
  13 -10  -4   24.38    0.90
  13 -10  -4   24.64    0.89
  13  10  -4   25.27    0.93
  12 -10  -4    0.73    0.20
 -12 -10   4    0.51    0.16
  12 -10  -4    0.63    0.21
  12  10  -4    0.89    0.21
  11 -10  -4    3.21    0.30
 -11 -10   4    3.24    0.27
  11 -10  -4    4.09    0.35
  11  10  -4    2.88    0.29
 -10 -10   4    1.66    0.19
  10 -10  -4    1.31    0.21
  10 -10  -4    1.60    0.23
  10  10  -4    1.40    0.21
  -9 -10   4    7.03    0.34
   9 -10  -4    7.12    0.40
   9 -10  -4    6.62    0.37
   9  10  -4    6.31    0.38
   8 -10  -4   17.82    0.65
  -8 -10   4   18.54    0.61
   8 -10  -4   18.66    0.63
   8  10  -4   18.35    0.65
   7 -10  -4   20.62    0.65
  -7 -10   4   19.95    0.64
   7 -10  -4   20.68    0.69
   7  10  -4   18.87    0.61
   7  10  -4   19.45    0.66
   6 -10  -4   15.93    0.56
  -6 -10   4   15.23    0.52
   6 -10  -4   15.51    0.53
   6  10  -4   15.66    0.51
   6  10  -4   15.05    0.54
   5 -10  -4   36.23    1.02
  -5 -10   4   36.94    1.02
   5  10  -4   36.22    1.03
   5  10  -4   36.87    1.01
   4 -10  -4   27.79    0.84
   4 -10  -4   28.12    0.81
   4  10  -4   28.58    0.81
   3 -10  -4    0.19    0.06
  -3 -10   4    0.23    0.09
   3 -10  -4    0.18    0.08
   3 -10  -4    0.10    0.09
   3  10  -4    0.26    0.10
   2 -10  -4    8.10    0.33
  -2 -10   4    8.80    0.33
   2 -10  -4    8.24    0.28
  -2 -10   4    8.44    0.32
   2 -10  -4    8.52    0.32
   2  10  -4    8.06    0.33
  -1 -10   4   44.46    1.16
  -1 -10   4   43.77    1.16
   1 -10  -4   42.64    1.17
   1 -10  -4   43.26    1.13
   1 -10  -4   43.25    1.15
   1  10  -4   44.74    1.19
   0 -10  -4   38.10    1.03
   0 -10  -4   38.02    1.03
   0 -10   4   37.46    1.02
   0 -10  -4   38.51    1.02
   0 -10   4   38.44    1.03
   0  10  -4   39.37    1.07
  -1 -10  -4   43.89    1.17
  -1 -10  -4   43.28    1.18
   1 -10   4   44.75    1.18
   1 -10   4   43.71    1.17
  -1 -10  -4   44.06    1.18
  -1  10  -4   47.87    1.23
   2 -10   4   20.11    0.60
   2 -10   4   19.32    0.57
  -2 -10  -4   20.32    0.60
  -2 -10  -4   19.87    0.60
   2  10   4   19.02    0.56
   3 -10   4    1.98    0.16
   3 -10   4    2.29    0.17
  -3 -10  -4    2.16    0.19
   3  10   4    2.27    0.18
   3  10   4    2.19    0.14
   4 -10   4  130.07    3.30
   4 -10   4  132.91    3.25
  -4  10  -4  133.83    3.34
   4  10   4  134.62    3.32
   4  10   4  130.75    3.24
   5 -10   4   12.62    0.40
   5 -10   4   13.23    0.48
  -5 -10  -4   11.80    0.44
   5  10   4   12.35    0.47
  -5  10  -4   13.40    0.50
  -6 -10  -4   10.74    0.42
   6 -10   4   11.06    0.43
  -6  10  -4   10.36    0.44
   6  10   4   10.96    0.45
   7 -10   4    1.45    0.19
  -7 -10  -4    1.67    0.19
  -7  10  -4    1.69    0.20
   7  10   4    1.70    0.21
   8 -10   4    1.10    0.19
  -8 -10  -4    1.23    0.18
   8  10   4    1.29    0.19
  -8  10  -4    1.16    0.19
  -9 -10  -4    9.51    0.41
   9 -10   4    9.43    0.46
  -9  10  -4    9.55    0.46
   9  10   4    9.68    0.47
 -10 -10  -4   20.09    0.70
  10 -10   4   20.06    0.74
 -10  10  -4   20.26    0.74
  10  10   4   20.80    0.77
 -11 -10  -4    1.41    0.20
  11 -10   4    1.20    0.23
  11  10   4    1.53    0.26
 -11  10  -4    1.38    0.23
  12 -10   4    0.63    0.22
 -12 -10  -4    0.48    0.17
  12  10   4    0.55    0.24
 -13 -10  -4    0.52    0.18
  13 -11  -4    2.62    0.31
  13 -11  -4    1.71    0.28
  13  11  -4    2.83    0.34
  12 -11  -4    9.32    0.51
 -12 -11   4   10.47    0.47
  12 -11  -4   11.19    0.55
  12  11  -4   10.42    0.56
  11 -11  -4   -0.06    0.16
 -11 -11   4    0.37    0.16
  11 -11  -4    0.26    0.16
  11  11  -4    0.25    0.18
 -10 -11   4    4.62    0.30
  10 -11  -4    4.03    0.35
  10 -11  -4    4.54    0.34
  10  11  -4    4.37    0.35
  -9 -11   4   18.70    0.65
   9 -11  -4   19.08    0.67
   9 -11  -4   19.12    0.70
   9  11  -4   18.86    0.68
   8 -11  -4   15.65    0.57
   8 -11  -4   14.76    0.59
  -8 -11   4   14.84    0.54
   8  11  -4   14.94    0.57
   7 -11  -4   29.26    0.87
   7 -11  -4   28.81    0.91
  -7 -11   4   27.94    0.85
   7  11  -4   28.02    0.83
   7  11  -4   28.55    0.88
   6 -11  -4   10.73    0.44
  -6 -11   4    9.93    0.40
   6 -11  -4   10.86    0.42
   6  11  -4   10.22    0.39
   6  11  -4   10.03    0.42
   5 -11  -4   40.75    1.12
   5 -11  -4   41.65    1.17
  -5 -11   4   41.48    1.13
   5  11  -4   40.51    1.12
   5  11  -4   38.47    1.13
   4 -11  -4    2.54    0.23
  -4 -11   4    2.47    0.20
   4 -11  -4    2.38    0.19
   4 -11  -4    1.85    0.12
   4  11  -4    2.55    0.21
   3 -11  -4   28.38    0.75
   3 -11  -4   27.51    0.80
  -3 -11   4   28.50    0.81
   3 -11  -4   28.45    0.84
   3  11  -4   27.72    0.82
   2 -11  -4    1.19    0.13
  -2 -11   4    1.65    0.15
   2 -11  -4    1.38    0.13
  -2 -11   4    1.55    0.15
   2 -11  -4    1.42    0.15
   2  11  -4    1.29    0.15
   1 -11  -4   13.85    0.43
  -1 -11   4   14.13    0.46
  -1 -11   4   13.82    0.46
   1 -11  -4   13.78    0.45
   1 -11  -4   13.26    0.47
   1  11  -4   13.99    0.49
   0 -11  -4   89.02    2.27
   0 -11   4   88.17    2.27
   0 -11  -4   89.70    2.28
   0 -11  -4   89.47    2.26
   0 -11   4   90.96    2.27
   0  11  -4   93.27    2.32
  -1 -11  -4    9.35    0.35
   1 -11   4    9.76    0.34
  -1 -11  -4    9.36    0.34
  -1 -11  -4    9.62    0.35
   1 -11   4    9.64    0.35
  -1  11  -4    9.19    0.39
  -2 -11  -4    0.96    0.13
  -2 -11  -4    0.83    0.11
   2 -11   4    0.83    0.11
   2 -11   4    0.88    0.13
   2  11   4    1.03    0.11
  -3 -11  -4   81.90    2.08
   3 -11   4   81.12    2.08
   3 -11   4   81.77    2.04
   3  11   4   79.62    2.02
   4 -11   4   12.52    0.41
  -4 -11  -4   12.21    0.44
   4 -11   4   12.27    0.45
  -4  11  -4   12.67    0.49
   4  11   4   12.24    0.46
  -5 -11  -4    7.01    0.33
   5 -11   4    6.68    0.26
   5 -11   4    6.62    0.33
  -5  11  -4    6.45    0.36
   5  11   4    6.36    0.34
  -6 -11  -4    3.73    0.26
   6 -11   4    3.48    0.27
   6  11   4    3.85    0.27
  -6  11  -4    4.08    0.30
   7 -11   4   26.41    0.84
  -7 -11  -4   26.40    0.81
  -7  11  -4   25.82    0.85
   7  11   4   25.92    0.85
  -8 -11  -4    7.72    0.36
   8 -11   4    7.73    0.41
  -8  11  -4    7.14    0.40
   8  11   4    7.73    0.42
  -9 -11  -4    2.46    0.24
   9 -11   4    2.20    0.25
  -9  11  -4    2.94    0.28
   9  11   4    2.56    0.27
  10 -11   4    6.04    0.38
 -10 -11  -4    5.88    0.36
 -10  11  -4    5.44    0.38
  10  11   4    5.97    0.42
 -11 -11  -4    4.76    0.33
  11 -11   4    3.80    0.35
  11  11   4    3.64    0.35
 -11  11  -4    3.66    0.36
 -12 -11  -4    3.77    0.32
  12 -11   4    2.98    0.33
  12  11   4    3.64    0.38
 -13 -11  -4    1.02    0.20
  13 -12  -4    8.60    0.52
 -12 -12   4    1.94    0.24
  12 -12  -4    1.82    0.27
  12 -12  -4    1.94    0.28
  12  12  -4    1.95    0.29
  11 -12  -4    0.89    0.20
 -11 -12   4    0.30    0.16
  11 -12  -4    0.46    0.19
  11  12  -4    0.73    0.20
  10 -12  -4   18.76    0.73
 -10 -12   4   19.79    0.68
  10 -12  -4   18.96    0.70
  10  12  -4   18.61    0.72
  -9 -12   4    1.93    0.21
   9 -12  -4    1.75    0.24
   9 -12  -4    1.47    0.20
   9  12  -4    1.44    0.22
  -8 -12   4   11.93    0.49
   8 -12  -4   12.51    0.51
   8 -12  -4   11.78    0.52
   8  12  -4   12.97    0.53
   7 -12  -4    1.12    0.19
  -7 -12   4    0.95    0.15
   7 -12  -4    1.15    0.17
   7  12  -4    1.02    0.16
   7  12  -4    1.19    0.18
   6 -12  -4   11.59    0.46
   6 -12  -4   11.93    0.51
  -6 -12   4   12.01    0.47
   6  12  -4   12.62    0.45
   6  12  -4   12.10    0.48
   5 -12  -4    5.99    0.30
  -5 -12   4    6.10    0.30
   5 -12  -4    5.70    0.34
   5  12  -4    5.57    0.30
   5  12  -4    5.60    0.29
  -4 -12   4   10.79    0.41
   4 -12  -4    9.80    0.39
  -4 -12   4   10.17    0.40
   4 -12  -4   10.04    0.42
   4  12  -4   10.00    0.40
  -3 -12   4   29.45    0.86
   3 -12  -4   29.51    0.89
   3 -12  -4   29.61    0.80
   3 -12  -4   29.41    0.85
  -3 -12   4   29.70    0.86
   3  12  -4   30.38    0.88
   2 -12  -4   79.14    2.03
  -2 -12   4   78.01    2.03
   2 -12  -4   80.38    2.06
  -2 -12   4   78.24    2.04
   2 -12  -4   79.40    1.99
   2  12  -4   80.26    2.06
  -1 -12   4    1.81    0.16
   1 -12  -4    1.85    0.15
  -1 -12   4    1.61    0.16
   1 -12  -4    1.70    0.16
   1 -12  -4    1.66    0.16
   1  12  -4    1.67    0.18
   0 -12   4   23.28    0.71
   0 -12  -4   24.14    0.71
   0 -12   4   24.61    0.71
   0 -12  -4   23.69    0.72
   0 -12  -4   24.02    0.70
   0  12  -4   24.15    0.75
   1 -12   4   14.05    0.48
  -1 -12  -4   13.49    0.47
   1 -12   4   14.04    0.46
  -1 -12  -4   14.09    0.47
  -1  12  -4   14.28    0.52
   2 -12   4    6.28    0.27
  -2 -12  -4    5.25    0.28
  -2 -12  -4    5.88    0.28
   2 -12   4    5.95    0.29
  -2  12  -4    6.32    0.33
   2  12   4    5.89    0.26
   3 -12   4   45.98    1.25
  -3 -12  -4   47.54    1.30
  -3 -12  -4   48.69    1.30
   3 -12   4   48.33    1.30
   3  12   4   47.81    1.24
  -3  12  -4   48.07    1.35
   4 -12   4   35.82    1.05
  -4 -12  -4   36.82    1.04
   4 -12   4   36.50    0.99
   4  12   4   36.23    1.06
  -4  12  -4   38.07    1.10
   5 -12   4   21.66    0.70
  -5 -12  -4   22.30    0.71
   5  12   4   21.81    0.72
  -5  12  -4   22.07    0.75
  -6 -12  -4   10.62    0.44
   6 -12   4   10.39    0.44
  -6  12  -4   10.95    0.49
   6  12   4   10.78    0.45
  -7 -12  -4   16.59    0.60
   7 -12   4   18.10    0.64
   7  12   4   17.95    0.65
  -7  12  -4   17.35    0.65
   8 -12   4    5.42    0.34
  -8 -12  -4    5.46    0.33
  -8  12  -4    4.94    0.36
   8  12   4    5.21    0.35
   9 -12   4    2.14    0.25
  -9 -12  -4    1.88    0.21
  -9  12  -4    2.10    0.26
   9  12   4    2.50    0.26
 -10 -12  -4   25.79    0.86
  10 -12   4   26.81    0.91
  10  12   4   26.09    0.93
 -10  12  -4   26.34    0.92
 -11 -12  -4   17.47    0.67
  11 -12   4   17.15    0.71
 -11  12  -4   17.51    0.71
  11  12   4   17.75    0.75
  12 -12   4   13.58    0.92
 -12 -12  -4   12.73    0.57
  12  12   4   14.71    0.95
 -13 -13   4    1.41    0.23
 -12 -13   4    6.18    0.40
  12 -13  -4    6.67    0.47
  12 -13  -4    6.41    0.44
  12  13  -4    6.60    0.48
  11 -13  -4    0.24    0.18
  11 -13  -4    0.20    0.19
 -11 -13   4    0.35    0.16
  11  13  -4    0.53    0.20
 -10 -13   4    2.80    0.26
  10 -13  -4    2.54    0.29
  10 -13  -4    2.57    0.26
  10  13  -4    3.33    0.31
   9 -13  -4    7.95    0.42
   9 -13  -4    7.80    0.45
  -9 -13   4    7.71    0.40
   9  13  -4    7.78    0.42
   8 -13  -4    2.70    0.25
   8 -13  -4    2.92    0.29
  -8 -13   4    2.88    0.26
   8  13  -4    2.99    0.28
   7 -13  -4    2.45    0.25
  -7 -13   4    3.08    0.26
   7 -13  -4    3.15    0.27
   7  13  -4    3.24    0.29
   6 -13  -4   13.60    0.56
   6 -13  -4   13.74    0.52
  -6 -13   4   13.07    0.50
   6  13  -4   12.73    0.48
   6  13  -4   13.82    0.53
  -5 -13   4   20.71    0.68
   5 -13  -4   20.79    0.73
   5 -13  -4   20.32    0.68
   5  13  -4   21.28    0.70
   5  13  -4   21.60    0.68
  -4 -13   4   26.52    0.80
   4 -13  -4   26.26    0.79
   4 -13  -4   25.81    0.83
  -4 -13   4   25.87    0.80
   4  13  -4   25.40    0.79
   3 -13  -4    5.99    0.26
  -3 -13   4    6.17    0.31
  -3 -13   4    6.79    0.32
   3 -13  -4    6.41    0.34
   3 -13  -4    6.35    0.31
   3  13  -4    7.00    0.33
   2 -13  -4   39.88    1.13
  -2 -13   4   39.40    1.10
   2 -13  -4   40.22    1.11
  -2 -13   4   39.11    1.10
   2 -13  -4   39.91    1.06
   2  13  -4   39.13    1.13
   1 -13  -4    1.11    0.13
   1 -13  -4    0.91    0.12
   1 -13  -4    1.13    0.15
  -1 -13   4    0.98    0.13
  -1 -13   4    1.01    0.14
   1  13  -4    1.08    0.16
   0 -13  -4   11.03    0.41
   0 -13   4   10.39    0.40
   0 -13   4   10.45    0.40
   0 -13  -4   11.24    0.40
   0  13  -4   10.89    0.45
  -1 -13  -4    2.47    0.20
  -1 -13  -4    2.24    0.20
   1 -13   4    2.52    0.20
   1 -13   4    2.19    0.20
   1  13   4    2.45    0.19
  -1  13  -4    2.19    0.22
  -2 -13  -4    6.77    0.31
   2 -13   4    6.37    0.29
  -2 -13  -4    6.75    0.32
   2 -13   4    6.79    0.32
  -2  13  -4    6.01    0.34
   2  13   4    5.86    0.28
  -3 -13  -4   27.05    0.80
   3 -13   4   25.98    0.74
  -3 -13  -4   26.33    0.79
   3 -13   4   24.81    0.79
  -3  13  -4   25.27    0.83
   3  13   4   25.81    0.74
   4 -13   4    0.96    0.16
  -4 -13  -4    1.17    0.17
   4 -13   4    0.89    0.12
   4  13   4    0.85    0.15
  -4  13  -4    0.79    0.16
   5 -13   4   19.11    0.65
  -5 -13  -4   18.78    0.64
   5  13   4   19.15    0.67
  -5  13  -4   19.50    0.70
   6 -13   4   55.64    1.51
  -6 -13  -4   52.62    1.48
   6  13   4   53.55    1.51
  -6  13  -4   53.66    1.54
  -7 -13  -4    1.26    0.19
   7 -13   4    0.83    0.17
   7  13   4    1.25    0.20
  -7  13  -4    1.13    0.21
   8 -13   4   22.66    0.79
  -8 -13  -4   21.66    0.75
  -8  13  -4   23.13    0.82
   8  13   4   22.78    0.81
   9 -13   4    1.16    0.20
  -9 -13  -4    0.94    0.19
  -9  13  -4    1.31    0.23
   9  13   4    1.42    0.24
  10 -13   4    4.42    0.38
 -10 -13  -4    4.63    0.35
 -10  13  -4    4.89    0.39
  10  13   4    4.88    0.40
 -11 -13  -4    2.13    0.26
  11 -13   4    2.31    0.30
 -11  13  -4    2.52    0.29
  11  13   4    1.91    0.28
 -12 -13  -4    4.28    0.36
 -12  13  -4    4.93    0.42
 -12 -14   4    9.56    0.49
  12 -14  -4   10.32    0.67
  12 -14  -4    9.23    0.74
  11 -14  -4   14.98    0.68
  11 -14  -4   14.58    0.64
 -11 -14   4   15.13    0.61
  11  14  -4   15.00    0.67
  10 -14  -4    3.04    0.33
  10 -14  -4    3.29    0.30
 -10 -14   4    2.82    0.27
  10  14  -4    3.01    0.30
  -9 -14   4    3.13    0.28
   9 -14  -4    2.78    0.28
   9 -14  -4    3.07    0.33
   9  14  -4    2.80    0.30
   8 -14  -4    1.64    0.25
   8 -14  -4    1.30    0.19
  -8 -14   4    1.66    0.21
   8  14  -4    1.68    0.23
  -7 -14   4    7.09    0.37
   7 -14  -4    6.87    0.38
   7 -14  -4    6.89    0.42
   7  14  -4    6.92    0.40
   6 -14  -4    1.62    0.23
  -6 -14   4    1.62    0.21
   6 -14  -4    1.85    0.20
   6  14  -4    1.92    0.22
   6  14  -4    1.28    0.18
   5 -14  -4    1.60    0.23
   5 -14  -4    1.23    0.16
  -5 -14   4    1.33    0.17
   5  14  -4    1.22    0.17
   5  14  -4    1.38    0.18
   4 -14  -4   32.30    1.00
   4 -14  -4   31.74    0.95
  -4 -14   4   33.50    0.96
  -4 -14   4   32.03    0.96
   4  14  -4   31.71    0.95
   3 -14  -4   12.19    0.40
  -3 -14   4   11.80    0.46
   3 -14  -4   11.88    0.45
   3 -14  -4   11.81    0.49
  -3 -14   4   11.60    0.46
   3  14  -4   11.72    0.47
   2 -14  -4   11.08    0.39
   2 -14  -4   11.48    0.46
  -2 -14   4   11.36    0.44
   2 -14  -4   11.36    0.43
  -2 -14   4   10.86    0.43
   2  14  -4   11.24    0.46
  -1 -14   4   13.27    0.48
   1 -14  -4   12.76    0.48
   1 -14  -4   11.97    0.46
  -1 -14   4   12.43    0.46
   1 -14  -4   13.00    0.44
   1  14  -4   12.70    0.50
   0 -14  -4   27.47    0.82
   0 -14  -4   27.14    0.80
   0 -14   4   27.49    0.82
   0 -14   4   27.18    0.80
   0  14   4   27.25    0.82
   0  14  -4   26.05    0.85
  -1 -14  -4   28.71    0.85
  -1 -14  -4   28.94    0.86
   1 -14   4   29.39    0.85
   1 -14   4   28.51    0.86
  -1  14  -4   29.22    0.91
   1  14   4   28.83    0.85
   2 -14   4   30.07    0.86
  -2 -14  -4   30.33    0.90
   2 -14   4   30.44    0.89
  -2 -14  -4   29.53    0.88
   2  14   4   29.28    0.86
  -2  14  -4   29.98    0.94
   3 -14   4    1.17    0.16
   3 -14   4    1.36    0.15
  -3 -14  -4    1.32    0.16
  -3 -14  -4    1.31    0.16
  -3  14  -4    1.55    0.21
  -4 -14  -4    2.29    0.22
   4 -14   4    1.89    0.19
   4 -14   4    2.15    0.18
   4  14   4    2.11    0.22
  -4  14  -4    1.81    0.21
   5 -14   4   17.44    0.62
  -5 -14  -4   17.23    0.60
   5  14   4   16.59    0.63
  -5  14  -4   16.84    0.65
  -6 -14  -4    3.31    0.28
   6 -14   4    3.85    0.30
  -6  14  -4    3.51    0.31
   6  14   4    4.17    0.32
   7 -14   4    4.40    0.31
  -7 -14  -4    4.25    0.29
  -7  14  -4    4.34    0.35
   7  14   4    3.71    0.33
   8 -14   4    0.49    0.18
  -8 -14  -4    0.91    0.20
  -8  14  -4    0.85    0.22
   8  14   4    0.58    0.19
   9 -14   4    1.96    0.24
  -9 -14  -4    2.45    0.27
  -9  14  -4    2.62    0.30
   9  14   4    2.68    0.29
 -10 -14  -4    4.40    0.35
  10 -14   4    4.66    0.39
 -10  14  -4    5.39    0.41
  10  14   4    4.73    0.42
  11 -14   4    2.79    0.39
 -11 -14  -4    2.90    0.30
  11  14   4    2.38    0.37
 -11  14  -4    2.91    0.33
 -11 -15   4    3.88    0.34
  11 -15  -4    3.69    0.38
  11 -15  -4    3.14    0.32
  11  15  -4    4.91    0.42
  10 -15  -4    4.87    0.42
  10 -15  -4    4.34    0.37
 -10 -15   4    4.61    0.36
  10  15  -4    4.52    0.40
   9 -15  -4    6.92    0.42
   9 -15  -4    7.69    0.47
  -9 -15   4    7.70    0.41
   9  15  -4    6.71    0.44
   8 -15  -4    3.68    0.35
   8 -15  -4    3.71    0.30
  -8 -15   4    3.82    0.31
   8  15  -4    4.32    0.33
   7 -15  -4    6.13    0.41
   7 -15  -4    5.20    0.35
  -7 -15   4    5.12    0.34
   7  15  -4    5.47    0.37
   6 -15  -4   31.26    1.00
  -6 -15   4   28.89    0.93
   6 -15  -4   29.86    0.94
   6  15  -4   30.61    0.96
  -5 -15   4    2.88    0.25
   5 -15  -4    3.20    0.27
   5 -15  -4    3.11    0.31
   5  15  -4    3.22    0.29
   5  15  -4    2.88    0.27
   4 -15  -4    4.91    0.34
  -4 -15   4    5.42    0.32
  -4 -15   4    5.32    0.32
   4 -15  -4    5.08    0.31
   4  15  -4    4.70    0.31
  -3 -15   4    0.90    0.15
  -3 -15   4    0.89    0.16
   3 -15  -4    0.55    0.14
   3 -15  -4    0.57    0.16
   3  15  -4    0.82    0.17
  -2 -15   4    6.35    0.32
   2 -15  -4    5.74    0.34
   2 -15  -4    5.51    0.27
  -2 -15   4    5.65    0.31
   2 -15  -4    5.82    0.32
   2  15  -4    5.42    0.33
   1 -15  -4    3.75    0.24
  -1 -15   4    3.44    0.25
  -1 -15   4    3.57    0.26
   1 -15  -4    3.42    0.26
   1  15  -4    3.71    0.29
  -1  15   4    3.76    0.28
   0 -15  -4   16.69    0.58
   0 -15   4   17.24    0.58
   0 -15  -4   17.46    0.57
   0 -15   4   17.15    0.59
   0  15   4   16.88    0.60
   0  15  -4   16.57    0.63
  -1 -15  -4   25.43    0.79
  -1 -15  -4   24.22    0.77
   1 -15   4   25.61    0.79
   1 -15   4   25.54    0.76
   1  15   4   25.12    0.78
  -1  15  -4   24.88    0.83
   2 -15   4   15.02    0.50
  -2 -15  -4   15.13    0.54
  -2 -15  -4   14.90    0.53
   2 -15   4   14.82    0.54
   2  15   4   13.66    0.50
  -2  15  -4   13.72    0.56
  -3 -15  -4    3.28    0.26
  -3 -15  -4    3.57    0.27
   3 -15   4    3.20    0.23
   3 -15   4    3.44    0.27
  -3  15  -4    3.71    0.31
   4 -15   4   10.65    0.46
  -4 -15  -4   10.98    0.45
  -4  15  -4   10.68    0.49
   4  15   4   10.64    0.47
   5 -15   4    8.36    0.42
  -5 -15  -4    8.65    0.42
   5  15   4    9.05    0.44
  -5  15  -4    9.89    0.49
  -6 -15  -4    3.33    0.29
   6 -15   4    2.95    0.27
   6  15   4    3.72    0.32
  -6  15  -4    3.22    0.31
   7 -15   4   10.57    0.49
  -7 -15  -4   10.87    0.48
  -7  15  -4   11.62    0.54
   7  15   4   11.80    0.54
  -8 -15  -4    4.62    0.35
   8 -15   4    5.32    0.38
   8  15   4    5.30    0.37
  -8  15  -4    5.65    0.42
  -9 -15  -4    0.50    0.18
   9 -15   4    0.09    0.17
  -9  15  -4    0.45    0.21
   9  15   4    0.18    0.18
 -10 -15  -4    1.55    0.24
  10 -15   4    1.40    0.24
  10  15   4    1.72    0.28
 -11  15  -4    9.48    0.57
  10 -16  -4    4.57    0.39
  10 -16  -4    4.28    0.41
 -10 -16   4    4.76    0.37
  10  16  -4    4.37    0.41
   9 -16  -4   12.06    0.55
   9 -16  -4   11.23    0.59
  -9 -16   4   11.73    0.53
   9  16  -4   11.76    0.56
  -8 -16   4    5.37    0.37
   8 -16  -4    5.47    0.38
   8 -16  -4    5.25    0.41
   8  16  -4    5.77    0.40
   7 -16  -4    8.85    0.48
  -7 -16   4    9.49    0.45
   7 -16  -4    8.76    0.45
   7  16  -4    9.60    0.48
   6 -16  -4    1.96    0.22
  -6 -16   4    1.67    0.21
   6 -16  -4    1.82    0.26
   6  16  -4    2.20    0.25
  -5 -16   4    1.42    0.20
   5 -16  -4    1.26    0.19
   5 -16  -4    1.67    0.25
   5  16  -4    1.53    0.20
   5  16  -4    1.44    0.20
  -4 -16   4    5.68    0.34
   4 -16  -4    6.04    0.34
   4 -16  -4    5.81    0.38
  -4 -16   4    6.48    0.36
   4  16  -4    5.66    0.35
  -3 -16   4    0.24    0.14
   3 -16  -4    0.35    0.14
  -3 -16   4    0.40    0.14
   3  16  -4    0.32    0.15
   2 -16  -4    7.07    0.35
   2 -16  -4    6.81    0.31
  -2 -16   4    7.21    0.37
  -2 -16   4    6.90    0.35
   2  16  -4    6.90    0.38
  -2  16   4    6.85    0.38
   1 -16  -4   26.21    0.80
   1 -16  -4   25.99    0.83
  -1 -16   4   26.11    0.82
  -1 -16   4   27.56    0.85
   1  16  -4   26.69    0.87
  -1  16   4   27.84    0.86
   0 -16  -4    6.58    0.34
   0 -16   4    6.45    0.33
   0 -16  -4    7.47    0.34
   0 -16   4    6.67    0.36
   0  16   4    6.60    0.36
   0  16  -4    7.04    0.40
  -1 -16  -4    8.61    0.37
   1 -16   4    7.67    0.36
   1 -16   4    8.02    0.39
  -1 -16  -4    8.27    0.39
  -1  16  -4    7.69    0.42
   1  16   4    8.17    0.37
   2 -16   4    3.49    0.28
   2 -16   4    3.08    0.23
  -2 -16  -4    3.22    0.27
  -2 -16  -4    3.73    0.27
   2  16   4    3.66    0.36
  -2  16  -4    3.13    0.28
  -3 -16  -4    0.35    0.14
  -3 -16  -4    0.37    0.13
   3 -16   4    0.51    0.16
   3 -16   4    0.27    0.11
  -3  16  -4    0.22    0.17
  -4 -16  -4    6.65    0.37
   4 -16   4    6.72    0.38
  -4  16  -4    6.71    0.40
   4  16   4    7.54    0.40
   5 -16   4    8.26    0.43
  -5 -16  -4    8.64    0.43
  -5  16  -4    8.20    0.48
   5  16   4    8.65    0.45
  -6 -16  -4    2.92    0.27
   6 -16   4    2.95    0.28
  -6  16  -4    3.42    0.33
   6  16   4    3.04    0.30
   7 -16   4    1.44    0.22
  -7 -16  -4    1.28    0.21
   7  16   4    1.37    0.23
  -7  16  -4    1.05    0.24
  -8 -16  -4    7.88    0.43
   8 -16   4    7.72    0.44
  -8  16  -4    7.44    0.49
   8  16   4    7.92    0.47
   9 -16   4    3.79    0.35
  -9 -16  -4    3.52    0.32
   9  16   4    3.39    0.34
  -9  16  -4    3.37    0.36
 -10  16  -4   23.56    0.92
  10 -17  -4    7.97    0.55
 -10 -17   4    6.02    0.54
  10  17  -4    7.21    0.72
  -9 -17   4    5.06    0.38
   9 -17  -4    4.62    0.43
   9 -17  -4    4.97    0.39
   9  17  -4    4.74    0.41
   8 -17  -4    8.91    0.53
  -8 -17   4    9.70    0.48
   8 -17  -4    9.64    0.48
   8  17  -4    9.91    0.52
  -7 -17   4   29.16    0.94
   7 -17  -4   29.21    1.02
   7 -17  -4   29.37    0.95
   7  17  -4   27.30    0.95
   6 -17  -4   10.05    0.48
  -6 -17   4   10.66    0.49
   6 -17  -4   10.65    0.52
   6  17  -4   10.02    0.49
  -5 -17   4    4.18    0.32
   5 -17  -4    3.71    0.31
   5  17  -4    3.72    0.32
  -4 -17   4    5.08    0.34
   4 -17  -4    5.16    0.33
  -4 -17   4    4.90    0.34
   4  17  -4    5.37    0.35
  -3 -17   4    5.28    0.34
   3 -17  -4    5.36    0.34
  -3 -17   4    5.88    0.35
  -3  17   4    5.22    0.36
   3  17  -4    5.91    0.36
  -2 -17   4    0.56    0.15
   2 -17  -4    0.31    0.14
  -2 -17   4    0.44    0.15
  -2  17   4    0.39    0.16
   2  17  -4    0.40    0.18
   1 -17  -4   14.00    0.54
  -1 -17   4   13.86    0.53
  -1 -17   4   13.84    0.55
   1 -17  -4   14.30    0.51
  -1  17   4   14.20    0.56
   1  17  -4   14.29    0.58
   0 -17   4    0.90    0.16
   0 -17   4    1.11    0.18
   0 -17  -4    0.67    0.15
   0 -17  -4    0.88    0.16
   0  17   4    0.70    0.17
   0  17  -4    0.67    0.18
   1 -17   4    5.55    0.34
  -1 -17  -4    5.57    0.34
   1 -17   4    5.74    0.31
  -1 -17  -4    6.02    0.32
  -1  17  -4    5.72    0.37
   1  17   4    5.19    0.33
   2 -17   4    1.78    0.22
  -2 -17  -4    1.56    0.19
   2 -17   4    1.81    0.19
  -2 -17  -4    1.80    0.21
  -2  17  -4    2.12    0.25
   3 -17   4    7.26    0.39
  -3 -17  -4    7.91    0.40
  -3 -17  -4    8.03    0.40
  -3  17  -4    7.93    0.46
  -4 -17  -4   23.41    0.79
   4 -17   4   23.33    0.81
   4  17   4   24.35    0.83
  -4  17  -4   24.22    0.87
  -5 -17  -4   11.42    0.51
   5 -17   4   12.07    0.53
  -5  17  -4   11.81    0.58
   5  17   4   12.86    0.56
   6 -17   4    6.07    0.39
  -6 -17  -4    6.34    0.38
   6  17   4    5.89    0.40
  -6  17  -4    5.38    0.43
  -7 -17  -4   12.99    0.57
   7 -17   4   13.56    0.58
   7  17   4   12.70    0.60
  -7  17  -4   13.66    0.65
  -8 -17  -4    9.09    0.48
   8 -17   4    9.20    0.50
  -8  17  -4    8.42    0.51
   8  17   4    8.74    0.51
   9 -17   4    1.82    0.30
  -9 -17  -4    2.66    0.34
  -9  17  -4    1.74    0.29
   9  17   4    2.21    0.31
   9 -18  -4    3.11    0.31
  -9 -18   4    3.31    0.40
   9  18  -4    3.23    0.35
  -8 -18   4    2.50    0.27
   8 -18  -4    2.42    0.28
   8  18  -4    2.14    0.28
   7 -18  -4    0.47    0.19
  -7 -18   4    0.93    0.20
   7  18  -4    1.06    0.23
   6 -18  -4    2.18    0.25
  -6 -18   4    2.57    0.27
   6  18  -4    2.18    0.27
  -5 -18   4    2.88    0.28
   5 -18  -4    2.95    0.28
   5  18  -4    2.39    0.26
  -5  18   4    2.53    0.29
  -4 -18   4    3.36    0.29
  -4 -18   4    3.28    0.30
   4 -18  -4    2.47    0.25
  -4  18   4    3.99    0.35
   4  18  -4    3.12    0.30
  -3 -18   4    1.07    0.18
   3 -18  -4    1.35    0.19
  -3 -18   4    1.48    0.20
  -3  18   4    1.62    0.23
   3  18  -4    1.45    0.22
  -2 -18   4    6.29    0.37
   2 -18  -4    6.65    0.38
  -2 -18   4    6.01    0.36
   2  18  -4    8.48    0.43
  -2  18   4    6.06    0.41
  -1 -18   4   21.49    0.74
   1 -18  -4   23.15    0.72
   1 -18  -4   22.84    0.77
  -1 -18   4   22.60    0.77
   1  18  -4   22.25    0.80
  -1  18   4   22.56    0.78
   0 -18  -4   19.47    0.65
   0 -18   4   18.37    0.68
   0 -18  -4   18.15    0.67
   0 -18   4   18.62    0.66
   0  18  -4   18.61    0.72
   0  18   4   19.43    0.68
   1 -18   4    0.17    0.13
   1 -18   4    0.33    0.14
  -1 -18  -4    0.20    0.13
  -1 -18  -4    0.22    0.13
   1  18   4    0.46    0.16
  -1  18  -4    0.35    0.17
  -2 -18  -4   21.26    0.73
   2 -18   4   21.33    0.76
   2 -18   4   22.35    0.71
  -2 -18  -4   22.04    0.76
  -2  18  -4   22.40    0.81
  -3 -18  -4    3.80    0.33
   3 -18   4    4.16    0.33
  -3 -18  -4    3.72    0.30
  -3  18  -4    4.20    0.36
   4 -18   4    0.61    0.18
  -4 -18  -4    1.21    0.20
  -4  18  -4    0.63    0.22
   4  18   4    1.09    0.21
   5 -18   4    5.08    0.37
  -5 -18  -4    5.08    0.36
   5  18   4    5.78    0.37
  -5  18  -4    5.01    0.39
  -6 -18  -4    0.95    0.21
   6 -18   4    0.84    0.21
   6  18   4    0.98    0.22
  -6  18  -4    1.19    0.25
   7 -18   4   17.37    0.71
  -7 -18  -4   17.51    0.70
  -7  18  -4   17.99    0.77
   7  18   4   18.30    0.74
   8 -18   4    2.41    0.29
  -8 -18  -4    3.57    0.34
   8  18   4    3.27    0.34
  -8  18  -4    3.36    0.38
   8 -19  -4    8.15    0.49
   8  19  -4    9.14    0.59
  -7 -19   4    8.34    0.46
   7 -19  -4    7.64    0.46
   7  19  -4    8.33    0.49
  -7  19   4    7.60    0.51
   6 -19  -4    8.00    0.46
  -6 -19   4    7.56    0.44
   6  19  -4    8.08    0.46
  -6  19   4    7.53    0.49
   5 -19  -4    4.76    0.37
  -5 -19   4    5.66    0.38
  -5  19   4    4.73    0.41
   5  19  -4    4.81    0.39
  -4 -19   4   13.66    0.57
  -4 -19   4   13.52    0.58
   4 -19  -4   14.73    0.60
   4  19  -4   14.26    0.83
  -4  19   4   14.85    0.65
  -3 -19   4   15.28    0.60
   3 -19  -4   14.55    0.60
  -3 -19   4   14.65    0.61
   3  19  -4   15.15    0.62
  -3  19   4   15.77    0.66
   2 -19  -4    0.11    0.14
  -2 -19   4   -0.17    0.14
  -2 -19   4    0.12    0.15
   2  19  -4   -0.04    0.16
  -2  19   4    0.02    0.16
  -1 -19   4    1.28    0.21
   1 -19  -4    1.27    0.21
  -1 -19   4    1.40    0.21
   1 -19  -4    1.01    0.20
   1  19  -4    1.40    0.24
  -1  19   4    1.07    0.21
   0 -19  -4   14.08    0.60
   0 -19   4   15.19    0.58
   0 -19  -4   15.29    0.56
   0 -19   4   16.02    0.62
   0  19  -4   15.03    0.65
   0  19   4   14.76    0.61
   1 -19   4   19.80    0.71
   1 -19   4   19.59    0.67
  -1 -19  -4   18.08    0.70
  -1 -19  -4   19.45    0.68
  -1  19  -4   19.08    0.74
  -2 -19  -4   11.78    0.54
   2 -19   4   12.18    0.54
   2 -19   4   12.42    0.69
  -2 -19  -4   12.84    0.52
  -2  19  -4   12.03    0.59
  -3 -19  -4    4.92    0.37
   3 -19   4    4.99    0.37
  -3 -19  -4    5.16    0.35
  -3  19  -4    4.96    0.41
   4 -19   4    0.70    0.20
  -4 -19  -4    1.03    0.21
  -4  19  -4    0.89    0.21
   4  19   4    0.71    0.19
  -5 -19  -4    2.38    0.27
   5 -19   4    2.49    0.27
  -5  19  -4    2.59    0.33
   5  19   4    2.67    0.29
   6 -19   4    1.85    0.27
  -6 -19  -4    2.51    0.28
   6  19   4    2.00    0.28
  -6  19  -4    2.41    0.33
   7 -19   4   10.97    0.57
  -7 -19  -4    9.94    0.54
   7  19   4   11.33    0.56
  -7  19  -4   10.70    0.63
   7 -20  -4    5.94    0.48
  -6 -20   4    4.90    0.39
   6 -20  -4    5.03    0.39
  -6  20   4    5.11    0.45
   6  20  -4    4.65    0.41
  -5 -20   4    0.76    0.20
   5 -20  -4    1.00    0.22
  -5  20   4    0.53    0.20
   5  20  -4    0.72    0.21
  -4 -20   4    3.67    0.33
  -4 -20   4    2.72    0.28
   4 -20  -4    2.83    0.28
  -4  20   4    3.18    0.34
   3 -20  -4    8.51    0.46
  -3 -20   4    8.09    0.46
  -3 -20   4    8.63    0.45
  -3  20   4    8.10    0.49
   3  20  -4    8.40    0.49
  -2 -20   4   12.14    0.54
  -2 -20   4   12.57    0.57
   2 -20  -4   12.93    0.56
   2  20  -4   13.21    0.59
  -2  20   4   12.63    0.59
  -1 -20   4    1.19    0.20
  -1 -20   4    1.04    0.21
   1 -20  -4    0.71    0.19
  -1  20   4    1.02    0.22
   1  20  -4    0.80    0.22
   0 -20  -4    6.97    0.37
   0 -20   4    7.30    0.41
   0 -20  -4    7.30    0.42
   0 -20   4    6.53    0.40
   0  20   4    7.75    0.47
   0  20  -4    7.80    0.48
   1 -20   4    2.35    0.24
   1 -20   4    1.88    0.24
  -1 -20  -4    2.41    0.25
  -1 -20  -4    2.37    0.27
  -1  20  -4    2.15    0.29
  -2 -20  -4    5.34    0.36
   2 -20   4    4.71    0.37
  -2 -20  -4    5.59    0.39
  -2  20  -4    5.48    0.44
   3 -20   4    2.37    0.28
  -3 -20  -4    1.88    0.24
  -3  20  -4    2.08    0.31
  -4 -20  -4    0.46    0.18
   4 -20   4    0.77    0.21
  -4  20  -4    0.82    0.25
   4  20   4    0.82    0.22
  -5 -20  -4    2.37    0.27
   5 -20   4    2.16    0.29
  -5  20  -4    2.13    0.30
   5  20   4    2.39    0.30
  -6 -20  -4    5.52    0.46
   6 -20   4    4.38    0.47
   6  20   4    5.74    0.49
   5 -21  -4   10.06    0.53
  -5 -21   4    9.60    0.54
  -5  21   4    9.95    0.58
   5  21  -4   10.41    0.57
   4 -21  -4    4.20    0.37
  -4 -21   4    4.09    0.36
  -4  21   4    4.01    0.39
   3 -21  -4    6.55    0.41
  -3 -21   4    7.44    0.45
  -3 -21   4    6.73    0.42
  -3  21   4    6.78    0.46
   2 -21  -4   11.55    0.55
  -2 -21   4   11.00    0.54
  -2 -21   4   10.96    0.52
  -2  21   4   11.52    0.58
   2  21  -4   11.06    0.56
  -1 -21   4    0.21    0.18
   1 -21  -4    0.29    0.18
  -1 -21   4    0.47    0.18
   1  21  -4    0.49    0.21
  -1  21   4    0.42    0.20
   0 -21   4    6.61    0.41
   0 -21  -4    6.18    0.42
   0 -21   4    6.88    0.39
   0  21  -4    7.03    0.46
  -1 -21  -4    5.99    0.42
   1 -21   4    6.95    0.41
  -1 -21  -4    7.10    0.40
  -1  21  -4    7.35    0.49
   2 -21   4    9.00    0.49
  -2 -21  -4    9.23    0.46
  -2 -21  -4    8.21    0.48
  -2  21  -4    9.73    0.55
  -3 -21  -4   19.42    0.73
   3 -21   4   20.31    0.77
  -3  21  -4   19.70    0.83
   4 -21   4    8.81    0.48
  -4 -21  -4    9.03    0.48
   4  21   4    8.97    0.52
  -4  21  -4    8.47    0.53
  -4  22   4    8.05    0.55
  -3 -22   4    2.22    0.27
   3 -22  -4    2.20    0.34
  -3  22   4    1.90    0.30
   2 -22  -4    0.32    0.19
  -2 -22   4    0.49    0.18
  -2 -22   4    0.26    0.18
   2  22  -4    0.18    0.20
  -2  22   4    0.20    0.20
  -1 -22   4   10.65    0.52
   1 -22  -4   10.34    0.53
  -1 -22   4   10.92    0.54
   1  22  -4   10.77    0.57
   0 -22   4    0.21    0.18
   0 -22  -4    0.11    0.18
   0 -22   4    0.12    0.16
   0  22  -4    0.21    0.21
  -1 -22  -4    0.30    0.19
  -1 -22  -4    0.35    0.16
   1 -22   4    0.30    0.20
  -1  22  -4    0.46    0.22
  -2 -22  -4   10.30    0.61
  -2 -22  -4   10.28    0.51
  -2  22  -4   10.82    0.61
  -3 -22  -4    0.84    0.21
  -2  23   4    1.19    0.27
  -1 -23   4    0.36    0.19
   1  23  -4    0.51    0.23
   0  23  -4    3.04    0.43
  15   0  -5    3.04    0.34
  14   0  -5    0.97    0.23
  13   0  -5    0.65    0.20
  12   0  -5    1.50    0.21
  11   0  -5    3.53    0.30
  11   0  -5    3.10    0.25
  10   0  -5  236.04    5.83
  10   0  -5  239.16    5.85
   9   0  -5   64.95    1.73
   9   0  -5   65.55    1.72
   8   0  -5  107.59    2.72
  -8   0   5  107.92    2.63
   8   0  -5  107.81    2.72
  -7   0   5    2.08    0.11
   7   0  -5    2.07    0.18
   7   0  -5    1.83    0.16
   6   0  -5    1.66    0.15
   6   0  -5    1.75    0.15
  -6   0   5    1.85    0.10
  -5   0   5   95.88    2.37
   5   0  -5   98.64    2.43
   4   0  -5   26.07    0.68
  -4   0   5   25.55    0.66
   4   0  -5   25.33    0.71
   3   0  -5  129.71    3.20
   3   0  -5  132.69    3.16
  -3   0   5  130.02    3.17
  -2   0   5  211.34    5.16
   2   0  -5  218.13    5.18
   1   0  -5    3.99    0.17
  -1   0   5    4.55    0.17
   0   0   5    0.13    0.06
   0   0  -5    0.13    0.02
   0   0  -5    0.21    0.05
   1   0   5   25.38    0.63
  -1   0  -5   24.64    0.66
  -2   0  -5  128.59    3.07
   2   0   5  124.81    3.07
   3   0   5  169.02    3.92
  -3   0  -5  173.81    3.91
   3   0   5  142.07    3.92
   4   0   5    2.58    0.17
  -4   0  -5    3.76    0.14
   5   0   5   23.59    0.68
  -5   0  -5   24.01    0.63
   6   0   5   74.43    1.91
  -6   0  -5   74.59    1.84
   7   0   5    8.51    0.37
  -7   0  -5    7.91    0.27
   8   0   5   10.81    0.45
   9   0   5    3.46    0.30
   9   0   5    3.11    0.21
  10   0   5   16.58    0.61
  11   0   5    4.45    0.36
  12   0   5    1.48    0.25
  13   0   5    0.54    0.22
  14   0   5   11.20    0.61
  15  -1  -5    4.90    0.41
  15   1  -5    4.58    0.43
  14  -1  -5    1.18    0.25
  14   1  -5    1.20    0.25
  13  -1  -5    2.10    0.27
  13   1  -5    2.47    0.29
  12  -1  -5    0.42    0.17
  12  -1  -5    0.71    0.15
  12   1  -5    0.36    0.18
  11  -1  -5    5.65    0.35
  11  -1  -5    5.48    0.31
  11   1  -5    5.52    0.35
  11   1  -5    5.50    0.30
  10  -1  -5    6.83    0.37
  10  -1  -5    7.42    0.35
  10   1  -5    7.11    0.39
  10   1  -5    7.74    0.35
   9  -1  -5    9.83    0.42
   9  -1  -5    9.79    0.40
  -9  -1   5   10.22    0.32
   9   1  -5    9.76    0.39
   9   1  -5   10.06    0.41
   8  -1  -5    9.84    0.38
   8  -1  -5    9.31    0.38
  -8  -1   5    9.37    0.30
   8   1  -5    9.08    0.38
  -8   1   5    9.16    0.28
   8   1  -5    9.70    0.37
   7  -1  -5    5.27    0.26
  -7  -1   5    5.35    0.20
   7  -1  -5    5.26    0.25
   7   1  -5    5.09    0.25
   7   1  -5    4.84    0.24
  -7   1   5    4.90    0.17
  -6  -1   5   19.98    0.54
   6  -1  -5   19.89    0.59
   6  -1  -5   19.17    0.57
   6   1  -5   19.10    0.57
   6   1  -5   20.22    0.59
  -6   1   5   19.68    0.52
   5  -1  -5   13.53    0.41
  -5  -1   5   13.89    0.39
   5  -1  -5   13.91    0.44
   5   1  -5   14.42    0.44
  -5   1   5   14.02    0.38
   4  -1  -5   28.97    0.80
   4  -1  -5   29.05    0.77
  -4  -1   5   28.69    0.76
   4   1  -5   30.38    0.77
   4   1  -5   30.06    0.80
  -4   1   5   30.09    0.75
   3  -1  -5   28.68    0.79
   3  -1  -5   30.39    0.75
  -3  -1   5   29.13    0.76
   3   1  -5   29.79    0.75
   3   1  -5   28.78    0.79
  -3   1   5   29.57    0.75
   2  -1  -5   39.82    0.98
  -2  -1   5   38.62    1.01
  -2   1   5   40.15    1.01
   2   1  -5   41.71    0.98
  -1  -1   5   11.76    0.36
   1  -1  -5   12.59    0.37
   1   1  -5   12.86    0.32
   1   1  -5   13.16    0.32
  -1   1   5   12.81    0.36
   0  -1   5   54.72    1.30
   0  -1  -5   54.05    1.35
   0   1  -5   53.46    1.36
   0   1   5   52.87    1.35
   0   1   5   55.36    1.31
  -1  -1  -5    2.19    0.11
   1  -1   5    2.20    0.09
   1   1   5    2.23    0.10
  -1   1  -5    2.22    0.11
  -2  -1  -5   62.87    1.53
   2  -1   5   62.52    1.54
  -2   1  -5   62.44    1.55
   2   1   5   61.30    1.54
  -3  -1  -5   19.47    0.55
   3  -1   5   19.65    0.55
  -3  -1  -5   20.09    0.53
   3   1   5   20.28    0.55
  -3   1  -5   20.50    0.55
  -4  -1  -5   22.59    0.64
   4  -1   5   23.12    0.65
   4  -1   5   23.52    0.64
  -4  -1  -5   24.73    0.61
   4   1   5   23.73    0.66
  -4   1  -5   23.57    0.63
   5  -1   5   11.55    0.38
  -5  -1  -5   11.52    0.36
  -5  -1  -5   11.70    0.31
   5  -1   5   10.85    0.35
   5   1   5   11.09    0.37
  -5   1  -5    9.65    0.33
  -6  -1  -5    5.83    0.24
  -6  -1  -5    5.43    0.19
   6  -1   5    5.31    0.27
   6  -1   5    5.17    0.23
   6   1   5    5.55    0.28
   7  -1   5   24.30    0.74
   7  -1   5   24.62    0.69
  -7  -1  -5   24.72    0.70
   7   1   5   24.76    0.75
  -8  -1  -5   48.00    1.25
   8  -1   5   47.23    1.25
   8  -1   5   47.56    1.31
   8   1   5   47.43    1.32
  -9  -1  -5   35.01    0.95
   9  -1   5   34.21    1.02
   9  -1   5   32.60    0.93
   9   1   5   34.71    1.03
 -10  -1  -5    6.85    0.31
  10  -1   5    6.56    0.37
  10   1   5    7.10    0.38
  11  -1   5    0.94    0.19
  11   1   5    1.26    0.22
  12  -1   5    8.69    0.49
  12   1   5    8.88    0.49
  13  -1   5    5.76    0.44
  13   1   5    6.23    0.46
  14  -1   5   10.36    0.60
  14   1   5   10.91    0.59
  15  -2  -5    3.37    0.35
  15   2  -5    3.76    0.38
  14  -2  -5    4.35    0.37
  14   2  -5    3.77    0.36
  13  -2  -5    1.42    0.24
  13   2  -5    0.90    0.22
  12  -2  -5    4.17    0.30
  12  -2  -5    3.27    0.32
  12   2  -5    4.03    0.34
  11  -2  -5    1.99    0.21
  11  -2  -5    2.04    0.23
  11   2  -5    2.60    0.22
  11   2  -5    2.17    0.24
  10  -2  -5    2.24    0.22
  10  -2  -5    1.79    0.19
  10   2  -5    1.43    0.21
  10   2  -5    2.00    0.18
   9  -2  -5   14.44    0.52
  -9  -2   5   14.37    0.44
   9  -2  -5   14.65    0.52
   9   2  -5   14.51    0.50
   9   2  -5   14.59    0.53
   8  -2  -5   35.12    0.98
   8  -2  -5   34.32    0.97
  -8  -2   5   34.72    0.91
   8   2  -5   33.91    0.96
   8   2  -5   34.31    0.98
   7  -2  -5    8.60    0.34
   7  -2  -5    9.00    0.35
  -7  -2   5    8.80    0.30
   7   2  -5    9.56    0.36
  -7   2   5    9.51    0.26
   7   2  -5    9.85    0.35
   6  -2  -5    8.65    0.31
  -6  -2   5    8.71    0.28
   6  -2  -5    9.07    0.33
   6   2  -5    8.39    0.31
   6   2  -5    8.14    0.31
  -6   2   5    8.46    0.24
   5  -2  -5    7.91    0.28
  -5  -2   5    8.02    0.27
   5  -2  -5    8.27    0.31
  -5   2   5    8.91    0.25
   5   2  -5    8.82    0.29
   5   2  -5    8.90    0.31
  -4  -2   5   51.46    1.30
   4  -2  -5   52.52    1.29
   4  -2  -5   52.85    1.34
   4   2  -5   48.45    1.29
  -4   2   5   51.68    1.27
   4   2  -5   52.20    1.33
  -3  -2   5  189.54    4.57
   3  -2  -5  190.33    4.55
   3   2  -5  189.14    4.60
   3   2  -5  189.63    4.55
  -3   2   5  187.27    4.55
   2  -2  -5    1.99    0.08
  -2  -2   5    1.84    0.12
   2   2  -5    2.06    0.13
   2   2  -5    2.17    0.09
  -2   2   5    1.92    0.10
  -1  -2   5   43.56    1.10
   1  -2  -5   41.78    1.10
   1  -2  -5   43.57    1.06
  -1  -2   5   43.51    1.06
  -1   2   5   44.06    1.09
   0  -2   5   35.59    0.88
   0  -2  -5   36.04    0.91
   0   2   5   36.19    0.88
   0   2   5   34.62    0.91
  -1  -2  -5  142.33    3.41
   1  -2   5  142.74    3.40
   1   2   5  142.78    3.40
  -1   2  -5  136.82    3.44
  -2  -2  -5   62.80    1.51
  -2  -2  -5   62.25    1.54
   2  -2   5   61.61    1.52
   2   2   5   62.01    1.53
  -2   2  -5   59.21    1.54
  -3  -2  -5    6.31    0.22
   3  -2   5    4.63    0.20
   3  -2   5    6.07    0.21
  -3  -2  -5    6.23    0.18
   3   2   5    6.23    0.22
  -3   2  -5    4.58    0.20
   4  -2   5   40.37    1.06
   4  -2   5   40.57    1.05
  -4  -2  -5   41.24    1.00
  -4  -2  -5   39.34    1.05
   4   2   5   41.23    1.07
   5  -2   5   28.06    0.78
  -5  -2  -5   28.38    0.69
   5  -2   5   27.19    0.75
  -5  -2  -5   27.30    0.76
   5   2   5   28.05    0.78
  -6  -2  -5   62.29    1.59
  -6  -2  -5   64.00    1.51
   6  -2   5   60.13    1.57
   6  -2   5   62.22    1.61
  -6   2  -5   62.52    1.58
   6   2   5   61.36    1.62
   7  -2   5   30.07    0.84
   7  -2   5   30.34    0.89
  -7  -2  -5   31.70    0.86
  -7   2  -5   31.52    0.84
   7   2   5   31.07    0.90
   8  -2   5   78.29    1.99
  -8  -2  -5   79.97    2.02
   8  -2   5   78.87    2.07
  -8   2  -5   79.72    2.00
   8   2   5   78.75    2.07
   9  -2   5   23.69    0.72
   9  -2   5   23.31    0.76
  -9  -2  -5   22.39    0.69
   9   2   5   22.99    0.76
  10  -2   5    2.75    0.27
 -10  -2  -5    2.95    0.22
  10   2   5    2.35    0.25
  11  -2   5   16.48    0.65
  11   2   5   16.57    0.64
  12  -2   5    1.79    0.26
  12   2   5    1.73    0.27
  13  -2   5    0.74    0.23
  13   2   5    0.59    0.24
  14  -2   5   11.52    0.69
  14   2   5   12.34    0.63
  15  -3  -5    0.78    0.25
  15   3  -5    0.81    0.27
  14  -3  -5    2.33    0.30
  14   3  -5    2.01    0.30
  13  -3  -5    2.03    0.26
  13   3  -5    1.73    0.25
  12  -3  -5   15.08    0.61
  12  -3  -5   15.61    0.59
  12   3  -5   15.99    0.63
  11  -3  -5    0.52    0.15
  11  -3  -5    0.38    0.15
  11   3  -5    0.08    0.15
  10  -3  -5   11.72    0.47
 -10  -3   5   11.95    0.41
  10  -3  -5   11.63    0.46
  10   3  -5   11.26    0.47
  10   3  -5   11.36    0.43
   9  -3  -5   46.88    1.27
   9  -3  -5   45.97    1.26
  -9  -3   5   46.13    1.20
   9   3  -5   45.28    1.27
   9   3  -5   44.37    1.24
   8  -3  -5   23.56    0.72
  -8  -3   5   23.72    0.66
   8  -3  -5   23.42    0.71
   8   3  -5   22.92    0.72
   8   3  -5   23.69    0.70
   7  -3  -5    8.62    0.35
  -7  -3   5    8.58    0.30
   7  -3  -5    8.76    0.34
  -7   3   5    8.96    0.24
   7   3  -5    8.65    0.35
   7   3  -5    8.55    0.33
  -6  -3   5   42.83    1.11
   6  -3  -5   43.92    1.16
   6  -3  -5   42.78    1.13
   6   3  -5   42.99    1.14
   6   3  -5   41.95    1.14
  -6   3   5   43.21    1.05
   5  -3  -5   15.91    0.49
  -5  -3   5   16.12    0.45
   5  -3  -5   15.80    0.46
  -5   3   5   15.41    0.40
   5   3  -5   14.82    0.47
   5   3  -5   15.16    0.46
   4  -3  -5   44.30    1.15
  -4  -3   5   42.66    1.11
  -4   3   5   43.37    1.08
   4   3  -5   43.69    1.14
   3  -3  -5   17.44    0.46
  -3  -3   5   17.65    0.48
  -3   3   5   16.67    0.45
   3   3  -5   17.30    0.47
   3   3  -5   16.83    0.50
   2  -3  -5   12.14    0.33
  -2  -3   5   12.13    0.36
   2   3  -5   12.03    0.33
  -2   3   5   11.93    0.34
   2   3  -5   12.06    0.38
  -1  -3   5   98.40    2.41
  -1  -3   5   95.86    2.37
   1  -3  -5   99.99    2.37
   0  -3  -5   29.30    0.76
  -1  -3  -5   45.20    1.10
   1  -3   5   43.08    1.09
   1   3   5   43.60    1.09
  -2  -3  -5   88.50    2.10
   2  -3   5   86.72    2.12
   2   3   5   84.21    2.12
   3  -3   5  145.17    3.44
   3  -3   5  127.26    3.42
  -3  -3  -5  143.32    3.44
  -3  -3  -5  146.65    3.39
   3   3   5  142.16    3.44
   4  -3   5    9.16    0.32
   4  -3   5    9.16    0.30
  -4  -3  -5    8.99    0.24
  -4  -3  -5    8.99    0.31
  -4   3  -5    9.12    0.31
   4   3   5    9.18    0.32
   5  -3   5   22.08    0.65
  -5  -3  -5   23.07    0.64
   5  -3   5   22.28    0.62
  -5   3  -5   22.82    0.64
   5   3   5   22.41    0.66
  -6  -3  -5    4.70    0.23
   6  -3   5    4.82    0.25
   6  -3   5    4.84    0.22
   6   3   5    4.41    0.26
  -6   3  -5    4.54    0.22
   7  -3   5   34.40    1.00
   7  -3   5   35.83    0.95
  -7  -3  -5   35.59    0.97
  -7   3  -5   36.36    0.97
   7   3   5   35.00    1.01
   8  -3   5    8.05    0.38
  -8  -3  -5    7.35    0.32
   8  -3   5    7.78    0.30
  -8   3  -5    7.42    0.30
   8   3   5    6.48    0.37
   9  -3   5    2.76    0.25
  -9  -3  -5    2.47    0.20
   9   3   5    2.59    0.25
 -10  -3  -5    2.36    0.21
  10  -3   5    2.09    0.24
  10   3   5    1.79    0.23
  11  -3   5    6.40    0.41
 -11  -3  -5    6.94    0.33
  11   3   5    6.83    0.40
  12  -3   5    0.22    0.19
  12   3   5    0.32    0.20
  13  -3   5   11.20    0.57
  13   3   5   11.66    0.60
  14   3   5   -0.34    0.33
  15  -4  -5    0.46    0.25
  15   4  -5    0.27    0.28
  14  -4  -5    6.12    0.44
  14   4  -5    5.99    0.45
  13  -4  -5    6.80    0.43
  13  -4  -5    7.17    0.39
  13   4  -5    5.69    0.42
  12  -4  -5    6.02    0.38
  12  -4  -5    6.32    0.36
  12   4  -5    6.21    0.40
  11  -4  -5    1.77    0.22
  11  -4  -5    2.14    0.23
  11   4  -5    2.19    0.24
  10  -4  -5   20.54    0.68
 -10  -4   5   19.56    0.60
  10  -4  -5   19.10    0.66
  10   4  -5   19.65    0.63
  10   4  -5   20.06    0.69
   9  -4  -5   37.91    1.09
   9  -4  -5   38.33    1.08
  -9  -4   5   37.94    1.02
   9   4  -5   37.93    1.05
   9   4  -5   36.89    1.09
  -8  -4   5    0.55    0.10
   8  -4  -5    0.31    0.12
   8  -4  -5    0.18    0.11
   8   4  -5    0.23    0.13
   8   4  -5    0.41    0.10
   7  -4  -5    5.11    0.27
   7  -4  -5    5.34    0.26
  -7  -4   5    5.46    0.23
   7   4  -5    5.13    0.27
   7   4  -5    5.56    0.25
   6  -4  -5   23.38    0.67
   6  -4  -5   22.67    0.70
  -6  -4   5   22.83    0.65
   6   4  -5   24.04    0.68
   6   4  -5   23.43    0.68
  -6   4   5   24.67    0.58
   5  -4  -5   42.39    1.10
   5  -4  -5   44.13    1.14
  -5  -4   5   41.05    1.09
  -5   4   5   42.87    1.04
   5   4  -5   41.12    1.10
   5   4  -5   42.24    1.12
   4  -4  -5   21.56    0.63
  -4  -4   5   22.04    0.61
   4   4  -5   21.88    0.63
  -4   4   5   22.46    0.56
  -3  -4   5  156.63    3.78
   3  -4  -5  156.88    3.76
   3   4  -5  149.88    3.77
  -3   4   5  155.22    3.75
   3   4  -5  158.98    3.81
   2  -4  -5    0.46    0.05
  -2  -4   5    0.69    0.08
  -2  -4   5    0.64    0.06
   2  -4  -5    0.43    0.07
   2   4  -5    0.66    0.09
   1  -4  -5   45.18    1.08
   1  -4  -5   43.18    1.09
  -1  -4   5   43.93    1.08
   1   4  -5   41.40    1.13
   0  -4  -5   75.11    1.84
   0  -4  -5   76.33    1.87
   0  -4   5   75.40    1.85
  -1  -4  -5  100.82    2.42
   1  -4   5   96.62    2.42
   1   4   5  100.30    2.42
  -2  -4  -5   33.37    0.78
   2  -4   5   25.75    0.80
   2  -4   5   30.97    0.80
   2   4   5   32.74    0.80
  -2   4  -5   30.19    0.83
  -3  -4  -5   61.24    1.56
  -3  -4  -5   63.07    1.49
   3  -4   5   61.87    1.55
   3  -4   5   60.33    1.54
   3   4   5   61.51    1.55
  -3   4  -5   61.26    1.57
   4  -4   5   44.15    1.15
  -4  -4  -5   45.04    1.15
   4  -4   5   43.79    1.13
   4   4   5   44.37    1.16
  -4   4  -5   42.94    1.16
   5  -4   5   50.68    1.27
  -5  -4  -5   50.73    1.30
   5  -4   5   49.73    1.31
  -5   4  -5   48.52    1.30
   5   4   5   49.32    1.31
   6  -4   5   12.70    0.44
   6  -4   5   11.77    0.38
  -6  -4  -5   11.60    0.40
  -6   4  -5   12.10    0.41
   6   4   5   11.60    0.43
   7  -4   5   80.28    1.99
  -7  -4  -5   80.54    2.02
   7  -4   5   79.00    2.05
   7   4   5   78.06    2.06
  -7   4  -5   78.32    2.02
   8  -4   5   65.85    1.66
  -8  -4  -5   64.92    1.69
   8  -4   5   65.49    1.74
   8   4   5   64.35    1.75
  -8   4  -5   65.04    1.70
   9  -4   5    7.83    0.39
  -9  -4  -5    7.34    0.33
   9   4   5    6.96    0.39
  -9   4  -5    7.67    0.37
 -10  -4  -5    5.75    0.29
  10  -4   5    5.40    0.34
  10   4   5    6.03    0.38
  11  -4   5    6.91    0.42
 -11  -4  -5    7.95    0.36
  11   4   5    7.97    0.45
  12  -4   5    8.34    0.47
  12   4   5    8.18    0.48
  13  -4   5    1.79    0.26
  13   4   5    2.06    0.31
  14  -5  -5    5.76    0.43
  14   5  -5    5.95    0.45
  13  -5  -5    4.34    0.35
  13  -5  -5    3.60    0.35
  13   5  -5    4.33    0.38
  12  -5  -5    8.23    0.44
  12  -5  -5    8.71    0.44
  12   5  -5    8.33    0.46
  11  -5  -5    6.05    0.36
  11  -5  -5    5.59    0.34
  11   5  -5    6.35    0.38
  10  -5  -5   18.51    0.63
  10  -5  -5   17.99    0.64
 -10  -5   5   17.72    0.57
  10   5  -5   17.45    0.63
  10   5  -5   18.57    0.59
   9  -5  -5    2.96    0.25
  -9  -5   5    2.46    0.18
   9  -5  -5    2.69    0.24
   9   5  -5    2.29    0.19
   9   5  -5    2.23    0.22
  -8  -5   5   55.95    1.44
   8  -5  -5   55.63    1.48
   8  -5  -5   55.29    1.50
   8   5  -5   54.85    1.46
   8   5  -5   55.24    1.49
  -7  -5   5    2.08    0.16
   7  -5  -5    1.92    0.19
   7  -5  -5    1.43    0.15
   7   5  -5    1.52    0.16
   7   5  -5    1.79    0.16
  -6  -5   5   26.31    0.72
   6  -5  -5   26.61    0.77
   6  -5  -5   25.21    0.73
   6   5  -5   24.95    0.74
   6   5  -5   26.02    0.74
  -5  -5   5   62.07    1.58
   5  -5  -5   62.99    1.62
   5  -5  -5   62.48    1.58
   5   5  -5   61.49    1.60
  -5   5   5   63.60    1.51
   5   5  -5   61.57    1.59
   4  -5  -5   20.03    0.55
  -4  -5   5   19.97    0.57
   4   5  -5   19.97    0.58
  -4   5   5   19.68    0.51
   4   5  -5   19.38    0.56
  -3  -5   5   30.26    0.81
   3  -5  -5   29.47    0.83
   3   5  -5   30.43    0.83
  -3   5   5   30.62    0.77
  -2  -5   5    4.96    0.20
   2  -5  -5    5.20    0.18
  -2  -5   5    5.05    0.18
   2  -5  -5    5.11    0.18
   2  -5  -5    5.20    0.21
   2   5  -5    5.24    0.22
   1  -5  -5   15.75    0.43
  -1  -5   5   15.58    0.43
   1   5  -5   16.38    0.48
   0  -5   5    7.45    0.26
   0  -5   5    7.58    0.23
   0  -5  -5    6.61    0.24
   0  -5  -5    7.28    0.23
  -1  -5  -5   17.15    0.49
  -1  -5  -5   18.52    0.47
   1  -5   5   17.21    0.49
   1  -5   5   17.11    0.47
  -1  -5  -5   15.95    0.47
  -1   5  -5   17.33    0.51
   2  -5   5   60.22    1.48
   2  -5   5   59.60    1.47
  -2  -5  -5   52.44    1.47
  -2  -5  -5   61.04    1.44
  -2   5  -5   58.12    1.50
   2   5   5   59.40    1.47
  -3  -5  -5   66.30    1.66
   3  -5   5   65.93    1.65
   3  -5   5   65.54    1.64
  -3  -5  -5   66.02    1.58
  -3   5  -5   63.95    1.67
   3   5   5   63.90    1.65
   4  -5   5    0.92    0.10
  -4  -5  -5    0.96    0.11
   4  -5   5    0.86    0.10
   4   5   5    0.88    0.11
  -4   5  -5    1.22    0.12
  -5  -5  -5   20.89    0.61
   5  -5   5   20.19    0.62
   5  -5   5   21.12    0.59
   5   5   5   20.76    0.63
  -5   5  -5   20.16    0.62
  -6  -5  -5    7.28    0.30
   6  -5   5    7.17    0.27
   6  -5   5    7.30    0.32
  -6   5  -5    7.11    0.30
   6   5   5    7.33    0.33
  -7  -5  -5    7.21    0.31
   7  -5   5    7.56    0.35
   7  -5   5    7.32    0.29
   7   5   5    7.28    0.35
  -7   5  -5    7.38    0.32
   8  -5   5   41.39    1.18
  -8  -5  -5   41.86    1.15
  -8   5  -5   42.20    1.16
   8   5   5   41.70    1.20
   9  -5   5    5.93    0.33
  -9  -5  -5    6.01    0.30
  -9   5  -5    5.59    0.30
   9   5   5    5.41    0.34
 -10  -5  -5    7.35    0.35
  10  -5   5    7.29    0.39
  10   5   5    7.35    0.42
 -11  -5  -5    2.26    0.21
  11  -5   5    1.97    0.24
  11   5   5    2.27    0.27
  12  -5   5    0.20    0.18
  12   5   5    0.30    0.20
  13  -5   5   17.13    0.72
  13   5   5   16.77    0.73
  14  -6  -5    6.64    0.45
  14   6  -5    6.72    0.47
  13  -6  -5    3.57    0.34
  13  -6  -5    4.08    0.36
  13   6  -5    4.65    0.39
  12  -6  -5    2.40    0.26
  12  -6  -5    2.45    0.26
  12   6  -5    2.47    0.28
  11  -6  -5    1.04    0.19
  11  -6  -5    1.14    0.19
 -11  -6   5    1.17    0.15
  11   6  -5    1.09    0.20
 -10  -6   5    0.78    0.13
  10  -6  -5    0.75    0.16
  10  -6  -5    0.83    0.17
  10   6  -5    0.52    0.17
   9  -6  -5   17.60    0.63
  -9  -6   5   17.68    0.57
   9  -6  -5   18.45    0.61
   9   6  -5   17.85    0.63
   9   6  -5   18.10    0.58
  -8  -6   5   21.03    0.62
   8  -6  -5   20.86    0.65
   8  -6  -5   20.20    0.68
   8   6  -5   20.25    0.67
   8   6  -5   20.42    0.63
   7  -6  -5   39.75    1.13
   7  -6  -5   41.48    1.10
  -7  -6   5   41.15    1.08
   7   6  -5   39.68    1.08
   7   6  -5   37.84    1.10
   6  -6  -5    4.35    0.24
   6  -6  -5    4.06    0.22
  -6  -6   5    4.29    0.22
   6   6  -5    3.74    0.22
   6   6  -5    4.18    0.22
   5  -6  -5   15.06    0.50
   5  -6  -5   14.54    0.46
  -5  -6   5   14.56    0.47
  -5   6   5   15.42    0.39
   5   6  -5   15.73    0.48
   5   6  -5   14.71    0.47
   4  -6  -5  100.64    2.51
  -4  -6   5  105.81    2.53
   4   6  -5  101.58    2.54
  -4   6   5  101.45    2.47
   4   6  -5   99.91    2.52
  -3  -6   5   34.83    0.90
   3  -6  -5   32.05    0.87
   3  -6  -5   34.18    0.85
   3  -6  -5   33.34    0.92
   3   6  -5   33.14    0.91
   2  -6  -5    7.62    0.25
  -2  -6   5    8.82    0.27
   2  -6  -5    8.44    0.30
  -2  -6   5    7.47    0.28
   2   6  -5    8.53    0.31
  -1  -6   5   65.12    1.62
  -1  -6   5   64.51    1.64
   1  -6  -5   64.50    1.65
   1   6  -5   66.60    1.67
   0  -6   5   21.78    0.60
   0  -6  -5   21.54    0.59
   0  -6   5   21.32    0.58
  -1  -6  -5    9.09    0.28
   1  -6   5    9.19    0.31
   1  -6   5    8.68    0.29
  -1  -6  -5    8.94    0.30
  -1   6  -5    9.97    0.34
  -2  -6  -5   62.07    1.52
  -2  -6  -5   61.28    1.56
   2  -6   5   60.82    1.55
   2  -6   5   61.24    1.55
   2   6   5   60.98    1.55
  -2   6  -5   62.57    1.59
  -3  -6  -5   89.05    2.14
   3  -6   5   87.41    2.20
   3  -6   5   88.89    2.19
  -3   6  -5   88.18    2.23
   3   6   5   88.80    2.21
  -4  -6  -5    5.37    0.24
   4  -6   5    5.59    0.22
   4  -6   5    5.30    0.23
   4   6   5    4.71    0.23
  -4   6  -5    4.27    0.23
   5  -6   5   42.56    1.09
   5  -6   5   41.31    1.13
  -5  -6  -5   42.72    1.13
   5   6   5   41.25    1.14
  -5   6  -5   41.85    1.14
   6  -6   5   43.87    1.15
   6  -6   5   44.59    1.21
  -6  -6  -5   45.14    1.19
  -6   6  -5   43.67    1.20
   6   6   5   43.49    1.21
   7  -6   5    3.79    0.21
  -7  -6  -5    3.46    0.24
   7  -6   5    3.88    0.27
  -7   6  -5    3.97    0.24
   7   6   5    3.87    0.26
   8  -6   5    3.43    0.26
  -8  -6  -5    3.95    0.25
  -8   6  -5    3.88    0.26
   8   6   5    3.65    0.30
  -9  -6  -5   19.10    0.64
   9  -6   5   19.98    0.69
   9   6   5   19.51    0.69
  -9   6  -5   19.97    0.65
 -10  -6  -5    3.66    0.26
  10  -6   5    2.90    0.27
  10   6   5    3.63    0.31
 -11  -6  -5    0.70    0.15
  11  -6   5    0.41    0.19
  11   6   5    0.37    0.20
 -12  -6  -5    4.54    0.30
  12  -6   5    3.75    0.34
  12   6   5    3.83    0.35
  13  -6   5    9.90    0.54
  13   6   5    9.24    0.55
  14  -7  -5    3.95    0.36
  14  -7  -5    3.86    0.41
  14   7  -5    3.76    0.36
  13  -7  -5   13.54    0.61
  13  -7  -5   13.13    0.60
  13   7  -5   14.61    0.64
  12  -7  -5    8.20    0.45
  12  -7  -5    8.07    0.45
  12   7  -5    8.45    0.47
  11  -7  -5    1.20    0.20
  11  -7  -5    0.82    0.18
 -11  -7   5    0.98    0.15
  11   7  -5    0.85    0.19
  10  -7  -5   14.17    0.57
 -10  -7   5   15.03    0.51
  10  -7  -5   14.94    0.55
  10   7  -5   14.68    0.58
   9  -7  -5   19.14    0.64
   9  -7  -5   19.01    0.67
  -9  -7   5   19.33    0.61
   9   7  -5   19.35    0.66
   9   7  -5   18.99    0.60
  -8  -7   5   31.86    0.90
   8  -7  -5   32.39    0.92
   8  -7  -5   31.21    0.95
   8   7  -5   31.02    0.89
   8   7  -5   30.87    0.93
   7  -7  -5   17.73    0.55
  -7  -7   5   16.88    0.53
   7  -7  -5   16.63    0.58
   7   7  -5   16.30    0.56
   7   7  -5   16.11    0.53
  -6  -7   5    0.51    0.10
   6  -7  -5    0.52    0.13
   6  -7  -5    0.39    0.09
   6   7  -5    0.48    0.10
   6   7  -5    0.41    0.11
   5  -7  -5   11.25    0.38
  -5  -7   5   12.08    0.39
   5   7  -5   11.50    0.40
   5   7  -5   11.66    0.40
  -5   7   5   11.41    0.31
  -4  -7   5   27.92    0.75
   4  -7  -5   26.65    0.77
   4  -7  -5   26.37    0.73
   4   7  -5   26.19    0.76
   4   7  -5   25.65    0.74
   3  -7  -5    3.25    0.14
   3  -7  -5    3.39    0.16
  -3  -7   5    3.13    0.18
   3  -7  -5    3.20    0.18
  -3  -7   5    3.24    0.16
   3   7  -5    3.04    0.18
  -2  -7   5   38.06    1.00
   2  -7  -5   37.42    1.03
   2  -7  -5   38.35    1.00
   2   7  -5   40.54    1.05
   1  -7  -5   29.90    0.79
  -1  -7   5   29.26    0.81
   1  -7  -5   30.20    0.79
  -1  -7   5   29.78    0.79
   1  -7  -5   29.49    0.81
   1   7  -5   30.71    0.84
   0  -7  -5   24.22    0.73
   0  -7   5   27.61    0.74
   0  -7  -5   27.55    0.73
   0  -7  -5   27.83    0.74
   0  -7   5   27.39    0.73
   0   7  -5   28.93    0.78
   1  -7   5   60.05    1.51
  -1  -7  -5   59.90    1.51
  -1  -7  -5   58.41    1.50
   1  -7   5   59.92    1.51
   2  -7   5   81.86    2.07
   2  -7   5   82.77    2.07
  -2  -7  -5   85.19    2.04
  -2  -7  -5   82.95    2.08
  -2   7  -5   82.56    2.11
   2   7   5   82.34    2.08
   3  -7   5   72.94    1.85
   3  -7   5   72.41    1.86
  -3  -7  -5   73.62    1.80
  -3   7  -5   74.72    1.90
   3   7   5   75.27    1.87
   4  -7   5   38.52    1.04
   4  -7   5   38.97    1.01
  -4  -7  -5   38.28    1.04
   4   7   5   39.51    1.05
  -4   7  -5   37.68    1.06
  -5  -7  -5   59.64    1.55
   5  -7   5   59.60    1.55
   5  -7   5   59.76    1.51
  -5   7  -5   58.93    1.57
   5   7   5   58.27    1.56
   6  -7   5   39.80    1.04
   6  -7   5   39.29    1.11
  -6  -7  -5   39.58    1.09
  -6   7  -5   39.50    1.11
   6   7   5   40.23    1.12
   7  -7   5   48.03    1.26
   7  -7   5   45.92    1.27
  -7  -7  -5   46.19    1.25
   7   7   5   43.65    1.28
  -7   7  -5   44.51    1.26
  -8  -7  -5    0.14    0.11
   8  -7   5    0.27    0.12
  -8   7  -5    0.49    0.13
   8   7   5    0.31    0.15
  -9  -7  -5    0.84    0.15
   9  -7   5    0.80    0.18
   9   7   5    0.86    0.20
  -9   7  -5    0.78    0.16
  10  -7   5    9.66    0.48
 -10  -7  -5   10.29    0.43
 -10   7  -5   10.82    0.46
  10   7   5   10.16    0.50
  11  -7   5    4.47    0.34
 -11  -7  -5    4.68    0.30
  11   7   5    4.94    0.39
  12  -7   5    8.79    0.51
 -12  -7  -5   10.17    0.45
  12   7   5    9.74    0.54
  13  -7   5   10.83    0.57
  13   7   5    9.51    0.56
  14  -8  -5   10.04    0.54
  14  -8  -5   10.16    0.55
  14   8  -5    9.50    0.56
  13  -8  -5   10.13    0.53
  13  -8  -5   10.93    0.54
  13   8  -5   10.73    0.56
  12  -8  -5    3.09    0.30
  12  -8  -5    2.56    0.28
  12   8  -5    2.91    0.30
  11  -8  -5    0.43    0.17
  11  -8  -5    0.59    0.17
 -11  -8   5    0.61    0.14
  11   8  -5    0.60    0.17
  10  -8  -5    1.39    0.20
 -10  -8   5    1.45    0.17
  10  -8  -5    1.59    0.21
  10   8  -5    1.58    0.22
   9  -8  -5   15.83    0.56
   9  -8  -5   15.14    0.58
  -9  -8   5   14.89    0.52
   9   8  -5   14.03    0.64
   9   8  -5   15.02    0.57
   8  -8  -5   10.78    0.47
   8  -8  -5   11.38    0.44
  -8  -8   5   11.68    0.43
   8   8  -5   11.48    0.42
   8   8  -5   11.33    0.46
   7  -8  -5   24.06    0.76
  -7  -8   5   24.62    0.72
   7  -8  -5   24.31    0.73
   7   8  -5   22.71    0.73
   7   8  -5   23.81    0.71
   6  -8  -5    5.95    0.27
   6  -8  -5    4.22    0.27
  -6  -8   5    6.03    0.26
   6   8  -5    5.82    0.26
   6   8  -5    5.13    0.27
  -5  -8   5    8.54    0.32
   5  -8  -5    7.93    0.31
   5   8  -5    7.51    0.31
  -5   8   5    7.68    0.23
   5   8  -5    7.39    0.31
   4  -8  -5   34.70    0.95
   4  -8  -5   34.77    0.99
  -4  -8   5   36.72    0.97
   4  -8  -5   36.22    0.89
   4   8  -5   33.58    0.95
   4   8  -5   34.86    0.97
   3  -8  -5   19.85    0.61
   3  -8  -5   19.91    0.58
  -3  -8   5   20.08    0.58
  -3  -8   5   20.75    0.60
   3   8  -5   20.30    0.61
   2  -8  -5   19.46    0.56
   2  -8  -5   21.36    0.59
  -2  -8   5   18.60    0.59
   2  -8  -5   21.21    0.62
  -2  -8   5   21.37    0.59
   2   8  -5   23.00    0.64
  -1  -8   5    9.46    0.31
   1  -8  -5    9.06    0.33
   1  -8  -5    9.33    0.31
  -1  -8   5    9.54    0.33
   1  -8  -5    9.38    0.31
   1   8  -5    9.32    0.35
   0  -8  -5   18.73    0.54
   0  -8   5   18.26    0.53
   0  -8  -5   18.16    0.53
   0  -8  -5   18.38    0.53
   0  -8   5   17.85    0.54
   0   8  -5   18.87    0.57
   1  -8   5    7.45    0.28
  -1  -8  -5    7.59    0.28
  -1  -8  -5    7.47    0.27
   1  -8   5    7.38    0.27
  -2  -8  -5   43.50    1.15
  -2  -8  -5   43.48    1.14
   2  -8   5   43.66    1.14
   2  -8   5   43.74    1.13
  -2  -8  -5   42.15    1.10
  -2   8  -5   44.30    1.18
   3  -8   5   16.35    0.50
   3  -8   5   16.81    0.52
  -3  -8  -5   17.01    0.52
   3   8   5   17.42    0.53
  -3   8  -5   16.81    0.55
   4  -8   5   45.83    1.23
   4  -8   5   45.04    1.19
  -4   8  -5   46.61    1.26
   4   8   5   46.24    1.13
   4   8   5   46.19    1.24
   5  -8   5    5.75    0.28
  -5  -8  -5    6.66    0.30
   5  -8   5    5.96    0.25
   5   8   5    6.22    0.30
  -5   8  -5    5.91    0.30
   6  -8   5   39.25    1.03
   6  -8   5   38.79    1.10
  -6  -8  -5   38.55    1.08
   6   8   5   39.20    1.11
  -6   8  -5   38.79    1.11
   7  -8   5    6.55    0.34
  -7  -8  -5    6.83    0.33
   7   8   5    6.60    0.36
  -7   8  -5    6.46    0.33
   8  -8   5    9.83    0.44
  -8  -8  -5    9.71    0.41
   8   8   5   10.01    0.44
  -8   8  -5   10.24    0.43
   9  -8   5   58.26    1.65
  -9  -8  -5   61.24    1.62
  -9   8  -5   59.20    1.64
   9   8   5   59.54    1.67
  10  -8   5   15.01    0.60
 -10  -8  -5   15.51    0.57
  10   8   5   15.17    0.62
 -10   8  -5   16.14    0.60
  11  -8   5   12.68    0.58
 -11  -8  -5   12.23    0.51
  11   8   5   13.39    0.60
 -12  -8  -5    0.74    0.18
  12  -8   5    0.39    0.21
  12   8   5    0.74    0.24
  13  -8   5    5.36    0.45
  13   8   5    5.64    0.44
  14  -9  -5    5.76    0.50
  14  -9  -5    5.87    0.44
  14   9  -5    5.33    0.61
  13  -9  -5    6.88    0.44
  13  -9  -5    6.70    0.44
  13   9  -5    6.27    0.46
 -12  -9   5   11.41    0.51
  12  -9  -5   11.80    0.56
  12  -9  -5   11.35    0.54
  12   9  -5   12.78    0.58
 -11  -9   5    8.49    0.39
  11  -9  -5    8.19    0.45
  11  -9  -5    8.14    0.43
  11   9  -5    8.22    0.46
  10  -9  -5    8.12    0.41
  10  -9  -5    8.21    0.44
 -10  -9   5    9.01    0.38
  10   9  -5    8.11    0.43
   9  -9  -5    0.35    0.14
  -9  -9   5    0.27    0.12
   9  -9  -5    0.40    0.16
   9   9  -5    0.35    0.15
   8  -9  -5    0.88    0.18
  -8  -9   5    0.75    0.14
   8  -9  -5    0.54    0.13
   8   9  -5    0.60    0.15
   8   9  -5    0.60    0.12
   7  -9  -5   17.78    0.62
   7  -9  -5   18.02    0.59
  -7  -9   5   18.11    0.58
   7   9  -5   17.71    0.57
   7   9  -5   17.70    0.60
   6  -9  -5    7.86    0.33
   6  -9  -5    7.23    0.35
  -6  -9   5    7.77    0.33
   6   9  -5    7.39    0.33
   6   9  -5    7.40    0.32
  -5  -9   5   13.73    0.46
   5  -9  -5   13.06    0.45
   5   9  -5   13.16    0.46
   5   9  -5   13.56    0.46
  -4  -9   5   36.81    0.99
   4  -9  -5   36.48    1.02
   4  -9  -5   35.48    0.97
   4  -9  -5   32.59    0.90
   4   9  -5   36.52    0.98
   4   9  -5   36.63    0.99
   3  -9  -5   50.30    1.34
   3  -9  -5   49.11    1.29
  -3  -9   5   50.13    1.30
   3   9  -5   49.31    1.33
   2  -9  -5    7.82    0.27
  -2  -9   5    8.44    0.32
  -2  -9   5    8.24    0.30
   2  -9  -5    7.96    0.32
   2  -9  -5    7.94    0.29
   2   9  -5    7.76    0.33
   1  -9  -5   70.95    1.81
   1  -9  -5   70.89    1.79
  -1  -9   5   72.58    1.82
  -1  -9   5   71.82    1.81
   1  -9  -5   70.74    1.83
   1   9  -5   72.40    1.85
   0  -9  -5   14.21    0.45
   0  -9  -5   14.30    0.46
   0  -9   5   14.74    0.46
   0  -9  -5   14.94    0.45
   0  -9   5   14.58    0.46
   0   9  -5   15.70    0.51
  -1  -9  -5   67.07    1.69
  -1  -9  -5   68.63    1.69
   1  -9   5   68.34    1.70
  -1  -9  -5   66.98    1.70
   1  -9   5   66.22    1.69
  -1   9  -5   62.18    1.73
  -2  -9  -5   17.26    0.52
  -2  -9  -5   16.65    0.52
   2  -9   5   16.77    0.52
   2  -9   5   16.56    0.51
   3  -9   5   57.81    1.48
   3  -9   5   59.58    1.51
  -3  -9  -5   56.22    1.51
   3   9   5   57.62    1.45
  -3   9  -5   59.64    1.56
   3   9   5   56.98    1.51
   4  -9   5    3.80    0.22
   4  -9   5    3.79    0.21
   4   9   5    3.87    0.24
  -4   9  -5    4.12    0.26
  -5  -9  -5    0.47    0.12
   5  -9   5    0.60    0.11
   5  -9   5    0.52    0.13
  -5   9  -5    0.86    0.15
   5   9   5    0.41    0.12
  -6  -9  -5   16.38    0.56
   6  -9   5   16.62    0.57
   6  -9   5   16.98    0.51
  -6   9  -5   16.34    0.59
   6   9   5   17.35    0.59
   7  -9   5    2.96    0.24
  -7  -9  -5    3.01    0.23
   7   9   5    2.94    0.27
  -7   9  -5    3.18    0.26
  -8  -9  -5    6.18    0.33
   8  -9   5    5.98    0.35
  -8   9  -5    6.30    0.35
   8   9   5    6.46    0.37
  -9  -9  -5   12.94    0.52
   9  -9   5   13.15    0.55
   9   9   5   14.40    0.58
  -9   9  -5   14.62    0.56
 -10  -9  -5    7.40    0.39
  10  -9   5    7.78    0.43
  10   9   5    7.60    0.45
 -10   9  -5    7.98    0.41
  11  -9   5    7.63    0.44
 -11  -9  -5    9.12    0.43
  11   9   5    8.66    0.50
  12  -9   5    2.40    0.30
 -12  -9  -5    2.37    0.25
  12   9   5    2.12    0.31
  14 -10  -5    1.48    0.26
  13 -10  -5    2.38    0.30
  13 -10  -5    2.64    0.31
  13  10  -5    2.93    0.33
 -12 -10   5    6.01    0.36
  12 -10  -5    6.00    0.42
  12 -10  -5    5.22    0.39
  12  10  -5    6.37    0.44
  11 -10  -5    4.57    0.35
 -11 -10   5    4.95    0.32
  11 -10  -5    4.91    0.36
  11  10  -5    5.25    0.39
  10 -10  -5    0.65    0.17
 -10 -10   5    0.56    0.14
  10 -10  -5    0.96    0.21
  10  10  -5    0.94    0.19
   9 -10  -5    0.52    0.14
   9 -10  -5    0.36    0.17
  -9 -10   5    0.32    0.13
   9  10  -5    0.50    0.16
  -8 -10   5   12.91    0.48
   8 -10  -5   11.77    0.50
   8 -10  -5   11.74    0.48
   8  10  -5   12.35    0.50
   8  10  -5   12.08    0.45
   7 -10  -5    7.24    0.37
  -7 -10   5    7.47    0.34
   7 -10  -5    7.65    0.35
   7  10  -5    7.06    0.32
   7  10  -5    7.56    0.35
   6 -10  -5   28.85    0.86
   6 -10  -5   30.17    0.92
  -6 -10   5   29.51    0.87
   6  10  -5   29.46    0.88
   6  10  -5   30.12    0.86
   5 -10  -5   40.46    1.20
  -5 -10   5   43.21    1.18
   5 -10  -5   43.26    1.17
   5  10  -5   44.34    1.18
   5  10  -5   43.19    1.18
   4 -10  -5    1.25    0.13
   4 -10  -5    1.06    0.14
   4  10  -5    1.54    0.16
   3 -10  -5   10.74    0.33
  -3 -10   5   10.57    0.38
   3 -10  -5   10.50    0.37
   3 -10  -5   10.86    0.41
   3  10  -5   10.52    0.40
   2 -10  -5   48.32    1.30
   2 -10  -5   50.27    1.28
   2 -10  -5   49.27    1.33
  -2 -10   5   50.99    1.32
  -2 -10   5   49.72    1.31
   2  10  -5   49.68    1.34
  -1 -10   5    6.24    0.27
  -1 -10   5    6.31    0.26
   1 -10  -5    6.33    0.28
   1 -10  -5    6.16    0.25
   1 -10  -5    6.24    0.25
   1  10  -5    6.37    0.30
   0 -10   5   15.39    0.48
   0 -10   5   14.85    0.48
   0 -10  -5   14.73    0.48
   0 -10  -5   15.28    0.48
   0 -10  -5   15.21    0.47
   0  10  -5   15.29    0.52
   1 -10   5   17.69    0.55
  -1 -10  -5   18.65    0.56
  -1 -10  -5   18.51    0.56
  -1 -10  -5   18.29    0.55
   1 -10   5   18.96    0.56
  -2 -10  -5   32.74    0.92
   2 -10   5   33.11    0.90
  -2 -10  -5   32.74    0.88
  -2 -10  -5   33.88    0.92
   2 -10   5   33.57    0.92
   3 -10   5   79.42    1.97
  -3 -10  -5   80.21    1.98
   3 -10   5   77.48    1.94
   3  10   5   79.17    1.98
   3  10   5   78.78    1.91
  -3  10  -5   65.49    1.99
   4 -10   5   61.34    1.55
   4 -10   5   60.36    1.59
   4  10   5   58.80    1.60
  -4  10  -5   60.82    1.63
   5 -10   5    9.74    0.40
   5 -10   5    9.68    0.34
  -5 -10  -5    9.56    0.38
   5  10   5    8.77    0.39
  -5  10  -5    9.03    0.41
  -6 -10  -5    3.59    0.25
   6 -10   5    3.51    0.26
  -6  10  -5    3.54    0.26
   6  10   5    3.51    0.25
  -7 -10  -5   15.42    0.55
   7 -10   5   15.59    0.57
   7  10   5   14.89    0.58
  -7  10  -5   15.30    0.58
  -8 -10  -5   14.08    0.54
   8 -10   5   14.34    0.56
   8  10   5   13.56    0.57
  -8  10  -5   14.48    0.57
   9 -10   5    5.12    0.36
  -9 -10  -5    5.64    0.34
  -9  10  -5    5.65    0.36
   9  10   5    5.83    0.39
  10 -10   5    0.19    0.17
 -10 -10  -5    0.63    0.17
  10  10   5    0.67    0.20
 -10  10  -5    0.65    0.18
 -11 -10  -5    9.05    0.44
  11 -10   5    8.63    0.49
  11  10   5    8.74    0.52
 -11  10  -5    9.81    0.63
 -12 -10  -5    1.74    0.23
  12 -10   5    1.39    0.26
  12  10   5    1.66    0.29
 -13 -10  -5    2.67    0.28
  13 -11  -5   11.00    0.57
  13 -11  -5   10.34    0.55
  13  11  -5   11.17    0.59
  12 -11  -5   19.40    0.75
 -12 -11   5   19.74    0.71
  12 -11  -5   20.27    0.79
  12  11  -5   18.88    0.75
 -11 -11   5   10.90    0.48
  11 -11  -5   11.93    0.56
  11 -11  -5   10.64    0.50
  11  11  -5   11.12    0.54
  10 -11  -5   21.72    0.77
  10 -11  -5   22.92    0.82
 -10 -11   5   22.44    0.74
  10  11  -5   22.04    0.79
   9 -11  -5    7.62    0.43
  -9 -11   5    6.97    0.37
   9 -11  -5    7.85    0.40
   9  11  -5    7.99    0.42
   8 -11  -5    2.33    0.25
  -8 -11   5    1.95    0.21
   8 -11  -5    2.47    0.23
   8  11  -5    2.24    0.23
  -7 -11   5    3.11    0.25
   7 -11  -5    3.72    0.26
   7 -11  -5    3.78    0.30
   7  11  -5    3.25    0.24
   7  11  -5    3.74    0.28
   6 -11  -5    4.91    0.28
  -6 -11   5    4.89    0.29
   6 -11  -5    5.18    0.32
   6  11  -5    5.11    0.28
   6  11  -5    5.02    0.30
  -5 -11   5    2.54    0.22
   5 -11  -5    3.10    0.26
   5 -11  -5    2.63    0.19
   5  11  -5    2.36    0.21
   5  11  -5    2.04    0.19
   4 -11  -5   22.00    0.60
  -4 -11   5   22.36    0.67
   4 -11  -5   21.23    0.66
   4 -11  -5   21.64    0.70
   4  11  -5   21.82    0.68
  -3 -11   5   45.28    1.22
   3 -11  -5   44.97    1.26
   3 -11  -5   46.47    1.17
   3 -11  -5   44.46    1.22
   3  11  -5   46.08    1.25
   2 -11  -5    3.75    0.24
   2 -11  -5    3.59    0.21
   2 -11  -5    4.15    0.19
  -2 -11   5    4.06    0.22
  -2 -11   5    3.99    0.22
   2  11  -5    3.79    0.25
   1 -11  -5   20.58    0.60
  -1 -11   5   20.52    0.62
   1 -11  -5   20.20    0.61
  -1 -11   5   20.89    0.62
   1 -11  -5   19.80    0.63
   1  11  -5   20.86    0.66
   0 -11  -5    8.78    0.34
   0 -11  -5    8.84    0.34
   0 -11   5    8.69    0.33
   0 -11  -5    8.97    0.33
   0 -11   5    9.28    0.34
   0  11  -5    8.57    0.37
  -1 -11  -5    5.09    0.25
   1 -11   5    5.26    0.25
   1 -11   5    5.30    0.25
  -1 -11  -5    5.23    0.24
  -1 -11  -5    5.46    0.25
  -1  11  -5    4.91    0.28
  -2 -11  -5   58.18    1.54
  -2 -11  -5   58.60    1.54
   2 -11   5   58.95    1.52
   2 -11   5   59.53    1.54
  -3 -11  -5    2.17    0.19
   3 -11   5    2.30    0.20
   3 -11   5    2.13    0.18
  -3  11  -5    1.56    0.18
   3  11   5    1.71    0.17
   3  11   5    1.86    0.14
   4 -11   5   15.56    0.49
  -4 -11  -5   16.42    0.54
   4 -11   5   15.61    0.54
   4  11   5   14.90    0.53
  -4  11  -5   15.79    0.58
   5 -11   5   18.30    0.56
  -5 -11  -5   18.53    0.62
   5 -11   5   19.10    0.62
  -5  11  -5   19.25    0.67
   5  11   5   19.49    0.64
   6 -11   5    2.54    0.23
  -6 -11  -5    2.85    0.24
  -6  11  -5    2.65    0.25
   6  11   5    2.40    0.23
   7 -11   5    1.74    0.21
  -7 -11  -5    1.58    0.18
   7  11   5    1.95    0.22
  -7  11  -5    1.41    0.21
   8 -11   5    0.18    0.15
  -8 -11  -5    0.16    0.14
  -8  11  -5    0.16    0.14
   8  11   5    0.17    0.14
  -9 -11  -5    9.78    0.45
   9 -11   5    9.75    0.46
  -9  11  -5   10.07    0.48
   9  11   5    9.50    0.47
 -10 -11  -5    5.09    0.35
  10 -11   5    4.86    0.38
  10  11   5    5.45    0.41
 -10  11  -5    4.87    0.37
 -11 -11  -5   12.90    0.55
  11 -11   5   12.80    0.60
 -11  11  -5   13.24    0.60
  11  11   5   12.65    0.60
  12 -11   5    1.53    0.27
 -12 -11  -5    2.02    0.25
  12  11   5    2.31    0.33
 -13 -11  -5    8.72    0.52
  13 -12  -5    8.97    0.56
  13 -12  -5    8.67    0.74
  12 -12  -5    2.34    0.30
  12 -12  -5    2.97    0.31
 -12 -12   5    2.16    0.25
  12  12  -5    2.07    0.29
  11 -12  -5    4.00    0.37
  11 -12  -5    3.92    0.34
 -11 -12   5    3.79    0.31
  11  12  -5    3.72    0.35
  10 -12  -5    0.53    0.20
  10 -12  -5    0.65    0.17
 -10 -12   5    0.75    0.17
  10  12  -5    0.73    0.20
   9 -12  -5    2.93    0.28
   9 -12  -5    2.96    0.30
  -9 -12   5    2.87    0.27
   9  12  -5    3.39    0.31
   8 -12  -5   21.10    0.71
  -8 -12   5   21.33    0.71
   8 -12  -5   20.43    0.76
   8  12  -5   21.34    0.73
   7 -12  -5   23.67    0.80
  -7 -12   5   24.82    0.76
   7 -12  -5   23.27    0.75
   7  12  -5   22.49    0.73
   7  12  -5   23.03    0.77
   6 -12  -5   32.15    0.95
  -6 -12   5   32.28    0.95
   6 -12  -5   33.72    1.01
   6  12  -5   31.30    0.94
   6  12  -5   31.86    0.96
   5 -12  -5   17.90    0.64
  -5 -12   5   17.76    0.60
   5 -12  -5   18.03    0.59
   5  12  -5   17.84    0.60
   5  12  -5   17.50    0.60
   4 -12  -5   12.53    0.49
  -4 -12   5   12.27    0.46
  -4 -12   5   12.31    0.46
   4 -12  -5   12.66    0.45
   4  12  -5   12.32    0.47
   3 -12  -5    8.11    0.34
   3 -12  -5    8.62    0.31
   3 -12  -5    8.85    0.39
  -3 -12   5    9.10    0.37
  -3 -12   5    9.16    0.36
   3  12  -5    8.34    0.38
  -2 -12   5    3.19    0.23
   2 -12  -5    3.35    0.21
   2 -12  -5    3.21    0.24
  -2 -12   5    3.31    0.21
   2 -12  -5    3.35    0.19
   2  12  -5    3.35    0.25
  -1 -12   5    2.97    0.21
  -1 -12   5    2.87    0.21
   1 -12  -5    2.53    0.21
   1 -12  -5    3.05    0.19
   1 -12  -5    2.80    0.20
   1  12  -5    2.98    0.24
   0 -12   5    8.19    0.33
   0 -12  -5    8.25    0.33
   0 -12  -5    8.45    0.33
   0 -12  -5    7.99    0.34
   0 -12   5    8.80    0.34
   0  12  -5    8.50    0.39
  -1 -12  -5    4.33    0.24
  -1 -12  -5    4.69    0.23
   1 -12   5    4.64    0.25
  -1 -12  -5    4.24    0.24
   1 -12   5    4.17    0.24
  -1  12  -5    4.43    0.28
  -2 -12  -5   17.88    0.58
   2 -12   5   18.15    0.56
   2 -12   5   17.67    0.58
  -2 -12  -5   17.17    0.57
  -2  12  -5   18.27    0.63
   2  12   5   18.17    0.55
  -3 -12  -5   40.52    1.14
   3 -12   5   40.09    1.10
   3 -12   5   40.35    1.14
  -3  12  -5   42.54    1.20
   3  12   5   41.39    1.13
   4 -12   5    2.17    0.20
  -4 -12  -5    2.49    0.21
   4 -12   5    2.27    0.18
  -4  12  -5    2.72    0.25
   4  12   5    2.52    0.23
   5 -12   5   23.66    0.75
  -5 -12  -5   22.58    0.73
   5 -12   5   23.55    0.69
  -5  12  -5   23.81    0.79
   5  12   5   24.54    0.77
   6 -12   5    5.86    0.34
  -6 -12  -5    5.74    0.33
   6  12   5    5.62    0.33
  -6  12  -5    5.99    0.37
  -7 -12  -5    2.25    0.23
   7 -12   5    1.72    0.20
   7  12   5    1.94    0.23
  -7  12  -5    1.81    0.23
  -8 -12  -5   13.73    0.54
   8 -12   5   14.60    0.58
   8  12   5   13.68    0.58
  -8  12  -5   13.51    0.58
  -9 -12  -5   25.51    0.84
   9 -12   5   25.67    0.87
  -9  12  -5   25.15    0.88
   9  12   5   25.00    0.88
  10 -12   5   -0.03    0.15
 -10 -12  -5    0.32    0.16
 -10  12  -5    0.19    0.17
  10  12   5    0.11    0.17
 -11 -12  -5    7.45    0.43
  11 -12   5    6.85    0.46
 -11  12  -5    7.18    0.46
  11  12   5    7.81    0.48
 -12 -12  -5    2.18    0.27
 -13 -13   5    2.97    0.38
  12 -13  -5    1.43    0.25
 -12 -13   5    1.37    0.22
  12 -13  -5    1.48    0.28
  12  13  -5    1.35    0.26
 -11 -13   5    1.09    0.20
  11 -13  -5    0.94    0.22
  11 -13  -5    1.18    0.24
  11  13  -5    1.19    0.24
  10 -13  -5    1.63    0.23
  10 -13  -5    1.38    0.24
 -10 -13   5    1.66    0.21
  10  13  -5    2.34    0.28
   9 -13  -5   15.75    0.62
   9 -13  -5   16.33    0.66
  -9 -13   5   16.30    0.61
   9  13  -5   16.71    0.65
   8 -13  -5    7.15    0.42
   8 -13  -5    6.50    0.37
  -8 -13   5    6.82    0.37
   8  13  -5    6.76    0.40
   7 -13  -5    1.21    0.21
  -7 -13   5    1.13    0.18
   7 -13  -5    1.40    0.20
   7  13  -5    1.24    0.20
   7  13  -5    1.16    0.19
   6 -13  -5    7.71    0.37
   6 -13  -5    7.44    0.40
  -6 -13   5    7.93    0.38
   6  13  -5    7.51    0.36
   6  13  -5    8.15    0.39
   5 -13  -5    5.21    0.29
  -5 -13   5    5.40    0.30
   5 -13  -5    5.17    0.34
   5  13  -5    5.04    0.31
   5  13  -5    5.84    0.31
  -4 -13   5   14.89    0.54
   4 -13  -5   15.52    0.58
  -4 -13   5   15.40    0.54
   4 -13  -5   15.93    0.54
   4  13  -5   15.04    0.55
   3 -13  -5    4.47    0.29
  -3 -13   5    4.10    0.26
   3 -13  -5    4.09    0.25
  -3 -13   5    3.83    0.26
   3 -13  -5    4.11    0.21
   3  13  -5    3.78    0.27
  -2 -13   5    3.01    0.23
   2 -13  -5    2.76    0.19
  -2 -13   5    2.94    0.22
   2 -13  -5    2.83    0.21
   2 -13  -5    3.14    0.24
   2  13  -5    2.68    0.25
  -1 -13   5   15.54    0.52
   1 -13  -5   14.93    0.53
  -1 -13   5   14.84    0.51
   1 -13  -5   14.95    0.49
   1 -13  -5   14.83    0.51
   1  13  -5   15.06    0.55
   0 -13   5   25.19    0.77
   0 -13  -5   25.69    0.77
   0 -13  -5   26.00    0.78
   0 -13   5   25.59    0.77
   0 -13  -5   26.33    0.76
   0  13  -5   26.30    0.82
  -1 -13  -5   34.41    0.96
   1 -13   5   32.03    0.94
  -1 -13  -5   33.41    0.95
   1 -13   5   33.23    0.96
  -1  13  -5   34.30    1.02
  -2 -13  -5   44.99    1.23
  -2 -13  -5   44.96    1.24
   2 -13   5   43.78    1.20
   2 -13   5   45.56    1.24
  -2  13  -5   44.16    1.29
   2  13   5   45.13    1.20
   3 -13   5   69.55    1.85
   3 -13   5   70.74    1.82
  -3 -13  -5   70.17    1.85
  -3  13  -5   71.75    1.92
  -4 -13  -5   12.03    0.47
   4 -13   5   12.24    0.47
   4 -13   5   12.01    0.42
   4  13   5   11.73    0.48
  -4  13  -5   12.29    0.52
   5 -13   5   15.91    0.58
  -5 -13  -5   16.22    0.58
  -5  13  -5   16.12    0.63
   5  13   5   16.29    0.59
  -6 -13  -5    5.42    0.33
   6 -13   5    5.18    0.32
   6  13   5    5.61    0.35
  -6  13  -5    5.22    0.36
  -7 -13  -5    1.09    0.19
   7 -13   5    1.50    0.21
   7  13   5    1.37    0.21
  -7  13  -5    1.23    0.22
  -8 -13  -5   11.55    0.50
   8 -13   5   11.98    0.52
  -8  13  -5   12.64    0.57
   8  13   5   12.11    0.54
  -9 -13  -5    1.99    0.24
   9 -13   5    2.06    0.26
  -9  13  -5    1.81    0.25
   9  13   5    1.63    0.25
 -10 -13  -5    2.90    0.28
  10 -13   5    2.15    0.26
  10  13   5    3.31    0.33
 -10  13  -5    3.18    0.32
 -11 -13  -5   19.39    0.72
  11 -13   5   18.95    0.76
 -11  13  -5   18.62    0.76
  11  13   5   17.96    0.78
  12 -14  -5    3.20    0.39
 -12 -14   5    2.89    0.29
  11 -14  -5    0.52    0.20
  11 -14  -5    0.47    0.21
 -11 -14   5    0.69    0.19
  11  14  -5    0.24    0.19
 -10 -14   5    6.77    0.40
  10 -14  -5    6.72    0.46
  10 -14  -5    6.65    0.41
  10  14  -5    7.03    0.45
  -9 -14   5    4.83    0.34
   9 -14  -5    5.21    0.39
   9 -14  -5    5.01    0.33
   9  14  -5    5.35    0.38
   8 -14  -5   26.59    0.85
  -8 -14   5   25.63    0.84
   8 -14  -5   25.49    0.90
   8  14  -5   25.53    0.86
   7 -14  -5   11.02    0.47
   7 -14  -5   10.84    0.52
  -7 -14   5   11.05    0.48
   7  14  -5   10.63    0.49
  -6 -14   5   35.98    1.08
   6 -14  -5   35.60    1.07
   6 -14  -5   37.59    1.14
   6  14  -5   36.68    1.10
   6  14  -5   35.84    1.06
   5 -14  -5   41.86    1.18
  -5 -14   5   41.94    1.19
   5 -14  -5   41.62    1.24
   5  14  -5   40.48    1.18
   5  14  -5   40.46    1.19
   4 -14  -5   19.73    0.66
   4 -14  -5   20.37    0.71
  -4 -14   5   20.68    0.67
  -4 -14   5   20.75    0.67
   4  14  -5   19.74    0.68
   3 -14  -5   42.57    1.21
  -3 -14   5   43.94    1.22
   3 -14  -5   44.42    1.27
   3 -14  -5   43.69    1.18
  -3 -14   5   43.96    1.23
   3  14  -5   43.32    1.25
   2 -14  -5   36.62    1.00
  -2 -14   5   35.83    1.05
   2 -14  -5   38.26    1.09
   2 -14  -5   36.95    1.05
  -2 -14   5   36.43    1.05
   2  14  -5   36.53    1.09
   1 -14  -5   11.31    0.44
  -1 -14   5   11.11    0.44
   1 -14  -5   11.60    0.41
  -1 -14   5   11.27    0.44
   1 -14  -5   11.20    0.45
   1  14  -5   12.30    0.49
   0 -14   5    1.73    0.18
   0 -14  -5    1.67    0.18
   0 -14  -5    1.78    0.17
   0 -14   5    1.83    0.18
   0 -14  -5    1.44    0.17
   0  14  -5    1.75    0.20
  -1 -14  -5    2.80    0.23
  -1 -14  -5    3.04    0.22
   1 -14   5    2.58    0.21
   1 -14   5    3.15    0.22
   1  14   5    2.77    0.22
  -1  14  -5    2.66    0.25
   2 -14   5    0.60    0.13
  -2 -14  -5    0.48    0.14
  -2 -14  -5    0.44    0.13
   2 -14   5    0.65    0.13
  -2  14  -5    0.64    0.17
   2  14   5    0.51    0.12
   3 -14   5    2.30    0.22
   3 -14   5    2.06    0.20
  -3 -14  -5    2.84    0.24
  -3  14  -5    2.56    0.25
  -4 -14  -5   10.98    0.44
   4 -14   5   10.54    0.39
   4 -14   5   10.08    0.44
  -4  14  -5    9.84    0.47
   4  14   5    9.61    0.43
  -5 -14  -5    3.96    0.29
   5 -14   5    4.18    0.30
  -5  14  -5    3.42    0.32
   5  14   5    2.93    0.26
  -6 -14  -5   18.11    0.65
   6 -14   5   17.46    0.64
  -6  14  -5   17.98    0.70
   6  14   5   18.85    0.68
  -7 -14  -5    1.26    0.18
   7 -14   5    1.41    0.22
  -7  14  -5    1.08    0.21
   7  14   5    1.25    0.21
  -8 -14  -5    4.88    0.35
   8 -14   5    5.24    0.35
  -8  14  -5    5.06    0.39
   8  14   5    4.76    0.38
   9 -14   5    0.30    0.18
  -9 -14  -5    0.39    0.16
   9  14   5    0.59    0.21
  -9  14  -5    0.48    0.20
  10 -14   5    0.95    0.22
 -10 -14  -5    1.29    0.21
  10  14   5    1.43    0.26
 -10  14  -5    1.54    0.26
 -11 -14  -5    6.59    0.43
 -11  14  -5    6.36    0.46
  11 -15  -5    0.41    0.21
 -11 -15   5    0.34    0.18
  11 -15  -5    0.18    0.18
  11  15  -5    0.34    0.20
  10 -15  -5    0.67    0.19
 -10 -15   5    0.75    0.19
  10 -15  -5    0.38    0.21
  10  15  -5    0.78    0.21
   9 -15  -5   11.45    0.58
   9 -15  -5   11.94    0.53
  -9 -15   5   11.47    0.52
   9  15  -5   11.15    0.55
  -8 -15   5   13.64    0.56
   8 -15  -5   12.69    0.55
   8 -15  -5   13.06    0.60
   8  15  -5   13.86    0.59
   7 -15  -5    8.20    0.41
  -7 -15   5    8.62    0.42
   7 -15  -5    8.23    0.47
   7  15  -5    7.07    0.41
   6 -15  -5    5.11    0.33
   6 -15  -5    6.06    0.40
  -6 -15   5    5.56    0.35
   6  15  -5    5.59    0.36
   6  15  -5    5.02    0.33
   5 -15  -5    6.13    0.34
  -5 -15   5    6.12    0.35
   5 -15  -5    6.96    0.41
   5  15  -5    5.82    0.36
   5  15  -5    5.65    0.35
  -4 -15   5   11.16    0.47
  -4 -15   5   11.59    0.48
   4 -15  -5   11.14    0.45
   4 -15  -5   12.24    0.52
   4  15  -5   11.66    0.49
   3 -15  -5    4.90    0.33
  -3 -15   5    4.31    0.28
   3 -15  -5    4.29    0.28
  -3 -15   5    4.54    0.28
   3  15  -5    4.30    0.31
   2 -15  -5   12.75    0.52
  -2 -15   5   13.23    0.49
   2 -15  -5   13.24    0.49
  -2 -15   5   12.61    0.49
   2 -15  -5   13.13    0.45
   2  15  -5   12.85    0.53
   1 -15  -5    7.15    0.36
   1 -15  -5    6.49    0.32
  -1 -15   5    6.62    0.35
   1 -15  -5    7.21    0.31
  -1 -15   5    6.97    0.34
   1  15  -5    7.18    0.39
   0 -15  -5   14.61    0.51
   0 -15  -5   15.45    0.54
   0 -15   5   14.41    0.53
   0 -15   5   14.47    0.53
   0  15   5   14.86    0.54
   0  15  -5   14.37    0.58
   1 -15   5   12.90    0.49
  -1 -15  -5   12.39    0.47
  -1 -15  -5   12.14    0.47
   1 -15   5   12.07    0.47
  -1  15  -5   13.80    0.55
   1  15   5   13.35    0.48
   2 -15   5    1.29    0.16
  -2 -15  -5    1.38    0.18
   2 -15   5    1.32    0.18
  -2 -15  -5    1.25    0.16
  -2  15  -5    1.39    0.21
   3 -15   5    9.07    0.41
   3 -15   5    9.23    0.38
  -3 -15  -5    9.07    0.41
  -3  15  -5    9.75    0.47
  -4 -15  -5    0.36    0.14
   4 -15   5    0.17    0.13
   4  15   5    0.14    0.12
  -4  15  -5    0.24    0.16
  -5 -15  -5    3.28    0.29
   5 -15   5    3.83    0.30
  -5  15  -5    3.52    0.32
   5  15   5    3.09    0.30
   6 -15   5    1.98    0.23
  -6 -15  -5    2.03    0.22
  -6  15  -5    1.76    0.24
   6  15   5    2.51    0.26
  -7 -15  -5    1.39    0.21
   7 -15   5    1.36    0.22
   7  15   5    1.73    0.24
  -7  15  -5    1.29    0.24
  -8 -15  -5    0.33    0.15
   8 -15   5    0.39    0.16
   8  15   5    0.44    0.19
  -8  15  -5    0.54    0.20
  -9 -15  -5    8.31    0.46
   9 -15   5    8.36    0.48
   9  15   5    8.69    0.51
  -9  15  -5    8.10    0.50
  10 -15   5    7.80    0.50
 -10 -15  -5    8.71    0.48
 -10  15  -5    8.49    0.53
  10  15   5    8.54    0.53
 -10 -16   5    4.09    0.36
  10 -16  -5    4.17    0.39
  10 -16  -5    3.90    0.37
  10  16  -5    4.88    0.42
   9 -16  -5    0.71    0.21
   9 -16  -5    0.84    0.24
  -9 -16   5    0.87    0.19
   9  16  -5    0.69    0.21
   8 -16  -5    4.75    0.36
  -8 -16   5    5.25    0.36
   8 -16  -5    5.28    0.42
   8  16  -5    5.01    0.39
  -7 -16   5    4.33    0.33
   7 -16  -5    4.32    0.38
   7 -16  -5    4.53    0.33
   7  16  -5    4.43    0.35
   6 -16  -5    4.65    0.37
  -6 -16   5    4.76    0.34
   6 -16  -5    5.23    0.34
   6  16  -5    4.81    0.36
  -5 -16   5   11.10    0.48
   5 -16  -5    9.87    0.50
   5 -16  -5   10.63    0.46
   5  16  -5    9.75    0.46
   5  16  -5   10.43    0.47
  -4 -16   5    0.41    0.15
   4 -16  -5    0.33    0.14
   4 -16  -5    0.46    0.17
  -4 -16   5    0.82    0.17
   4  16  -5    0.55    0.17
   3 -16  -5    7.55    0.37
  -3 -16   5    7.89    0.38
  -3 -16   5    7.03    0.37
   3 -16  -5    7.19    0.40
   3  16  -5    7.24    0.40
   2 -16  -5   10.78    0.40
  -2 -16   5   10.47    0.45
   2 -16  -5   10.89    0.48
  -2 -16   5   10.23    0.45
   2 -16  -5   10.57    0.45
   2  16  -5   10.36    0.49
  -1 -16   5   28.31    0.88
  -1 -16   5   28.40    0.87
   1 -16  -5   28.26    0.87
   1 -16  -5   28.94    0.84
   1  16  -5   27.68    0.92
   0 -16   5   11.05    0.47
   0 -16  -5   12.09    0.48
   0 -16   5   11.41    0.46
   0 -16  -5   11.40    0.44
   0  16   5   11.12    0.47
   0  16  -5   11.45    0.52
  -1 -16  -5    8.51    0.39
   1 -16   5    7.87    0.37
  -1 -16  -5    7.68    0.36
   1 -16   5    7.30    0.38
   1  16   5    7.52    0.37
  -1  16  -5    7.97    0.43
  -2 -16  -5    4.40    0.30
   2 -16   5    5.05    0.29
   2 -16   5    4.71    0.31
  -2 -16  -5    4.35    0.29
  -2  16  -5    4.44    0.35
  -3 -16  -5    1.15    0.18
   3 -16   5    1.44    0.20
   3 -16   5    1.35    0.17
  -3  16  -5    1.26    0.21
  -4 -16  -5    5.68    0.34
   4 -16   5    5.39    0.35
  -4  16  -5    5.07    0.38
   4  16   5    5.56    0.36
   5 -16   5    0.50    0.17
  -5 -16  -5    0.60    0.17
   5  16   5    0.85    0.19
  -5  16  -5    0.63    0.20
  -6 -16  -5   10.99    0.50
   6 -16   5   11.71    0.53
  -6  16  -5   10.83    0.56
   6  16   5   11.58    0.54
  -7 -16  -5    1.51    0.22
   7 -16   5    0.81    0.19
  -7  16  -5    1.18    0.25
   7  16   5    0.84    0.20
  -8 -16  -5    0.35    0.17
   8 -16   5    0.51    0.20
  -8  16  -5    0.47    0.20
   8  16   5    0.84    0.22
   9 -16   5    0.52    0.19
  -9 -16  -5    0.66    0.21
  -9  16  -5    0.88    0.23
   9  16   5    0.90    0.24
 -10  16  -5    7.80    0.62
  10 -17  -5   32.04    1.13
  10  17  -5   31.30    1.40
   9 -17  -5   10.50    0.57
  -9 -17   5    9.67    0.50
   9 -17  -5    9.85    0.51
   9  17  -5   10.27    0.53
  -8 -17   5    0.29    0.17
   8 -17  -5    0.12    0.19
   8 -17  -5    0.32    0.18
   8  17  -5    0.45    0.20
  -7 -17   5    5.23    0.37
   7 -17  -5    5.14    0.37
   7 -17  -5    5.74    0.40
   7  17  -5    5.05    0.39
   6 -17  -5    0.04    0.17
  -6 -17   5   -0.03    0.14
   6 -17  -5   -0.03    0.14
   6  17  -5    0.13    0.16
   5 -17  -5    0.31    0.15
   5 -17  -5    0.32    0.18
  -5 -17   5    0.14    0.16
   5  17  -5    0.50    0.17
   5  17  -5    0.27    0.16
  -4 -17   5    6.66    0.38
  -4 -17   5    6.47    0.38
   4 -17  -5    6.55    0.37
   4 -17  -5    5.73    0.40
   4  17  -5    6.49    0.38
   3 -17  -5    8.79    0.42
  -3 -17   5    9.04    0.43
  -3 -17   5    8.74    0.43
   3  17  -5    8.92    0.45
   2 -17  -5   32.54    0.99
  -2 -17   5   32.49    0.99
  -2 -17   5   31.66    0.98
   2  17  -5   32.34    1.02
  -1 -17   5    0.37    0.15
   1 -17  -5    0.33    0.12
  -1 -17   5    0.46    0.15
   1 -17  -5    0.52    0.15
   1  17  -5    0.14    0.16
  -1  17   5    0.52    0.17
   0 -17  -5    3.28    0.28
   0 -17  -5    3.56    0.26
   0 -17   5    3.36    0.28
   0 -17   5    3.75    0.27
   0  17  -5    2.60    0.27
   0  17   5    3.12    0.27
   1 -17   5   12.82    0.53
   1 -17   5   13.20    0.51
  -1 -17  -5   13.45    0.54
  -1 -17  -5   13.77    0.51
   1  17   5   14.12    0.54
  -1  17  -5   12.57    0.56
   2 -17   5   18.12    0.60
   2 -17   5   17.01    0.63
  -2 -17  -5   16.65    0.61
  -2 -17  -5   16.79    0.63
  -2  17  -5   17.33    0.69
   3 -17   5   15.19    0.58
  -3 -17  -5   14.77    0.58
   3 -17   5   16.35    0.63
  -3  17  -5   15.17    0.65
   4 -17   5    1.50    0.22
  -4 -17  -5    1.58    0.22
   4  17   5    1.53    0.21
  -4  17  -5    1.55    0.25
  -5 -17  -5    0.19    0.15
   5 -17   5    0.08    0.15
   5  17   5    0.45    0.16
  -5  17  -5    0.10    0.18
  -6 -17  -5    4.99    0.36
   6 -17   5    4.24    0.35
  -6  17  -5    4.83    0.41
   6  17   5    4.35    0.37
  -7 -17  -5   20.84    0.79
   7 -17   5   23.57    0.83
   7  17   5   22.41    0.83
  -7  17  -5   22.61    0.88
   8 -17   5    4.25    0.36
  -8 -17  -5    4.51    0.36
  -8  17  -5    4.10    0.38
   8  17   5    4.15    0.40
  -9  17  -5   20.65    0.97
   9 -18  -5    2.14    0.28
   9  18  -5    2.32    0.32
   8 -18  -5    2.13    0.32
   8 -18  -5    2.03    0.27
  -8 -18   5    1.78    0.24
   8  18  -5    2.17    0.28
   7 -18  -5    4.35    0.42
   7 -18  -5    5.38    0.38
  -7 -18   5    4.77    0.35
   7  18  -5    5.38    0.41
   6 -18  -5    0.56    0.19
  -6 -18   5    0.36    0.18
   6 -18  -5    0.62    0.21
   6  18  -5    0.41    0.17
  -5 -18   5    5.23    0.34
   5 -18  -5    5.15    0.36
   5  18  -5    5.14    0.38
   4 -18  -5    9.20    0.45
  -4 -18   5    8.52    0.45
  -4 -18   5    9.10    0.44
   4  18  -5    8.89    0.46
  -3 -18   5   18.19    0.66
  -3 -18   5   17.63    0.66
   3 -18  -5   16.93    0.65
   3  18  -5   19.51    0.71
  -3  18   5   18.15    0.70
  -2 -18   5    0.66    0.16
   2 -18  -5    0.64    0.17
  -2 -18   5    0.50    0.16
   2  18  -5    0.67    0.20
  -2  18   5    0.70    0.19
  -1 -18   5    0.02    0.12
   1 -18  -5   -0.08    0.13
  -1 -18   5    0.35    0.15
   1 -18  -5    0.04    0.12
   1  18  -5    0.17    0.16
  -1  18   5   -0.04    0.14
   0 -18  -5    7.12    0.40
   0 -18   5    7.59    0.40
   0 -18   5    7.22    0.38
   0 -18  -5    7.05    0.36
   0  18   5    8.61    0.41
   0  18  -5    7.59    0.45
   1 -18   5   11.28    0.50
   1 -18   5   11.65    0.48
  -1 -18  -5   11.36    0.49
  -1 -18  -5   11.60    0.48
  -1  18  -5   11.80    0.56
   2 -18   5    7.24    0.37
  -2 -18  -5    8.23    0.40
   2 -18   5    7.98    0.42
  -2 -18  -5    7.79    0.42
  -2  18  -5    8.26    0.48
   3 -18   5    0.39    0.17
  -3 -18  -5    0.73    0.18
  -3  18  -5    0.58    0.21
   4 -18   5    1.27    0.20
  -4 -18  -5    1.62    0.23
  -4  18  -5    1.91    0.28
   4  18   5    1.52    0.23
  -5 -18  -5    1.22    0.20
   5 -18   5    1.52    0.23
   5  18   5    1.41    0.24
  -5  18  -5    1.20    0.25
  -6 -18  -5    3.50    0.33
   6 -18   5    2.89    0.30
  -6  18  -5    2.34    0.30
   6  18   5    2.91    0.30
   7 -18   5    6.17    0.44
  -7 -18  -5    6.67    0.43
   7  18   5    7.01    0.46
  -7  18  -5    7.22    0.51
   8 -18   5   10.66    0.80
   8  18   5   10.32    0.64
   8 -19  -5    0.99    0.23
   8  19  -5    1.11    0.28
   7 -19  -5   10.01    0.51
  -7 -19   5    8.86    0.49
   7  19  -5    8.73    0.51
  -6 -19   5    3.45    0.32
   6 -19  -5    3.65    0.34
   6  19  -5    3.04    0.31
   5 -19  -5    1.41    0.22
  -5 -19   5    1.36    0.23
   5  19  -5    1.19    0.23
  -5  19   5    1.49    0.26
   4 -19  -5    5.40    0.37
  -4 -19   5    5.76    0.37
  -4 -19   5    5.65    0.38
   4  19  -5    5.44    0.41
  -4  19   5    6.07    0.43
  -3 -19   5   14.34    0.60
  -3 -19   5   14.85    0.60
   3 -19  -5   15.55    0.61
   3  19  -5   14.30    0.62
  -3  19   5   14.94    0.64
  -2 -19   5    6.85    0.41
  -2 -19   5    7.68    0.41
   2 -19  -5    7.51    0.41
   2  19  -5    7.35    0.44
  -2  19   5    6.32    0.42
   1 -19  -5    4.83    0.35
  -1 -19   5    5.21    0.34
  -1 -19   5    4.86    0.35
   1  19  -5    5.02    0.39
  -1  19   5    4.58    0.35
   0 -19   5    2.81    0.27
   0 -19  -5    3.17    0.30
   0 -19   5    2.99    0.27
   0 -19  -5    2.73    0.26
   0  19  -5    2.95    0.31
   0  19   5    3.07    0.29
   1 -19   5    6.41    0.37
   1 -19   5    6.39    0.39
  -1 -19  -5    5.92    0.38
  -1 -19  -5    5.95    0.35
  -1  19  -5    5.85    0.43
  -2 -19  -5    2.03    0.23
   2 -19   5    1.80    0.23
   2 -19   5    1.61    0.22
  -2 -19  -5    1.67    0.22
  -2  19  -5    2.03    0.29
  -3 -19  -5    2.38    0.26
   3 -19   5    2.10    0.26
  -3  19  -5    2.80    0.33
   4 -19   5    1.14    0.22
  -4 -19  -5    1.03    0.20
   4  19   5    1.02    0.21
  -4  19  -5    1.23    0.26
   5 -19   5    0.22    0.18
  -5 -19  -5    0.37    0.18
  -5  19  -5    0.12    0.18
   5  19   5    0.41    0.19
   6 -19   5   21.62    0.81
  -6 -19  -5   21.10    0.79
   6  19   5   21.70    0.83
  -6  19  -5   21.87    0.88
   7 -19   5    3.34    0.51
   7  19   5    3.28    0.39
   7 -20  -5    3.65    0.40
   6 -20  -5    5.37    0.40
  -6 -20   5    6.10    0.41
  -6  20   5    5.87    0.47
   6  20  -5    5.92    0.44
   5 -20  -5    5.54    0.38
  -5 -20   5    5.66    0.40
  -5  20   5    5.84    0.45
   5  20  -5    5.80    0.43
   4 -20  -5   13.70    0.60
  -4 -20   5   12.94    0.59
  -4 -20   5   14.55    0.62
  -4  20   5   14.01    0.65
  -3 -20   5   16.88    0.68
   3 -20  -5   17.16    0.67
  -3 -20   5   17.22    0.67
  -3  20   5   17.62    0.72
   3  20  -5   16.88    0.71
  -2 -20   5    0.68    0.19
  -2 -20   5    0.83    0.21
   2 -20  -5    0.68    0.19
   2  20  -5    0.86    0.23
  -2  20   5    0.82    0.22
   1 -20  -5   17.48    0.68
  -1 -20   5   16.77    0.66
  -1 -20   5   17.25    0.68
   1  20  -5   16.81    0.71
  -1  20   5   17.90    0.70
   0 -20   5    6.39    0.38
   0 -20  -5    5.84    0.39
   0 -20  -5    6.84    0.37
   0 -20   5    5.98    0.40
   0  20  -5    6.17    0.45
   1 -20   5   15.79    0.60
  -1 -20  -5   15.00    0.59
   1 -20   5   15.03    0.62
  -1 -20  -5   15.46    0.63
  -1  20  -5   15.09    0.68
  -2 -20  -5    0.69    0.19
  -2 -20  -5    0.40    0.18
   2 -20   5    0.32    0.16
  -2  20  -5    0.36    0.21
  -3 -20  -5    2.22    0.25
   3 -20   5    1.86    0.26
  -3  20  -5    1.93    0.30
   4 -20   5    3.53    0.33
  -4 -20  -5    4.05    0.35
   4  20   5    4.24    0.37
  -4  20  -5    4.49    0.43
  -5 -20  -5   22.83    0.84
   5 -20   5   23.99    0.87
  -5  20  -5   23.36    0.93
   5  20   5   24.00    0.88
   6  20   5    1.85    0.45
   5 -21  -5   11.27    0.55
  -5  21   5   11.41    0.62
   5  21  -5   11.22    0.65
  -4 -21   5    2.63    0.29
   4 -21  -5    3.37    0.32
  -4  21   5    3.45    0.35
   3 -21  -5    3.70    0.35
  -3 -21   5    3.42    0.32
  -3 -21   5    3.44    0.33
   3  21  -5    4.26    0.38
  -3  21   5    3.44    0.35
  -2 -21   5    5.03    0.39
  -2 -21   5    4.85    0.38
   2 -21  -5    5.19    0.37
  -2  21   5    5.91    0.44
   2  21  -5    5.72    0.43
   1 -21  -5    5.16    0.38
  -1 -21   5    5.20    0.39
  -1 -21   5    4.38    0.35
  -1  21   5    4.31    0.42
   1  21  -5    4.64    0.41
   0 -21   5    0.36    0.18
   0 -21   5    0.39    0.17
   0 -21  -5    0.26    0.16
   0  21  -5    0.46    0.23
   1 -21   5    2.95    0.30
  -1 -21  -5    3.75    0.31
  -1 -21  -5    4.58    0.37
   1 -21   5    3.44    0.39
  -1  21  -5    3.56    0.37
   2 -21   5    3.43    0.33
  -2 -21  -5    2.92    0.28
  -2 -21  -5    3.17    0.31
  -2  21  -5    3.33    0.36
  -3 -21  -5    5.70    0.39
   3 -21   5    5.72    0.42
  -3  21  -5    6.19    0.48
   3  21   5    5.70    0.42
  -4 -21  -5    1.28    0.23
   4 -21   5    1.70    0.30
   4  21   5    1.38    0.24
  -4  22   5   15.20    0.82
  -3 -22   5    2.26    0.33
  -3  22   5    1.98    0.30
  -2 -22   5    5.43    0.45
  -2 -22   5    5.20    0.39
   2 -22  -5    5.38    0.41
   2  22  -5    5.18    0.43
  -2  22   5    5.05    0.42
  -1 -22   5    2.27    0.27
   1 -22  -5    2.60    0.30
  -1 -22   5    2.39    0.29
   1  22  -5    2.12    0.31
   0 -22   5    0.10    0.16
   0 -22   5    0.02    0.16
   0 -22  -5    0.00    0.18
   0  22  -5    0.39    0.23
  -1 -22  -5    2.37    0.30
  -1 -22  -5    2.59    0.27
   1 -22   5    2.30    0.34
  -1  22  -5    3.14    0.37
  -2 -22  -5    5.23    0.37
  -3 -22  -5    1.58    0.30
   2  23  -5    7.64    0.55
  15   0  -6   23.02    0.88
  14   0  -6    1.21    0.26
  13   0  -6   12.49    0.56
  12   0  -6    0.05    0.16
  12   0  -6    0.81    0.16
  11   0  -6   10.74    0.45
  11   0  -6   10.90    0.48
  10   0  -6    0.27    0.12
  10   0  -6    0.23    0.14
   9   0  -6   34.73    1.01
   9   0  -6   35.50    1.01
  -8   0   6   10.72    0.33
   8   0  -6   11.30    0.42
   8   0  -6   10.97    0.42
  -7   0   6    0.76    0.08
   7   0  -6    0.72    0.12
   7   0  -6    0.39    0.11
   6   0  -6    7.82    0.31
   6   0  -6    8.19    0.30
  -6   0   6    7.91    0.25
  -5   0   6    9.16    0.28
   5   0  -6    8.76    0.32
   4   0  -6    9.95    0.34
   4   0  -6    9.48    0.29
  -4   0   6    9.57    0.30
   3   0  -6  308.04    7.48
  -3   0   6  304.36    7.51
   3   0  -6  316.93    7.50
  -2   0   6   74.58    1.87
   2   0  -6   77.22    1.82
  -1   0   6  217.91    5.26
   0   0  -6   40.10    0.93
   0   0   6   36.60    0.99
   0   0   6   38.74    0.93
   1   0   6    3.39    0.12
  -1   0  -6    3.30    0.15
   2   0   6   84.47    2.03
  -2   0  -6   83.00    2.04
   2   0   6   81.29    2.06
   3   0   6    3.70    0.17
  -3   0  -6    3.93    0.16
   3   0   6    3.66    0.18
   4   0   6   17.31    0.51
  -4   0  -6   18.18    0.49
   4   0   6   16.54    0.51
   5   0   6   34.03    0.92
  -5   0  -6   34.32    0.89
   5   0   6   34.50    0.94
  -6   0  -6    1.22    0.11
   6   0   6    1.21    0.15
   6   0   6    1.22    0.13
   7   0   6   -0.04    0.08
   7   0   6    0.10    0.12
   8   0   6   16.61    0.59
   8   0   6   16.74    0.54
   9   0   6   41.03    1.19
   9   0   6   41.99    1.14
  10   0   6    5.15    0.36
  11   0   6    0.48    0.20
  12   0   6   17.60    0.71
  13   0   6    0.29    0.20
  15  -1  -6   -0.18    0.21
  15   1  -6   -0.24    0.20
  14  -1  -6    1.33    0.26
  14   1  -6    1.77    0.27
  13  -1  -6    6.33    0.41
  13   1  -6    7.05    0.44
  12  -1  -6    1.05    0.18
  12  -1  -6    0.82    0.20
  12   1  -6    1.48    0.28
  12   1  -6    0.96    0.20
  11  -1  -6    4.75    0.31
  11  -1  -6    5.13    0.33
  11   1  -6    5.16    0.34
  11   1  -6    4.82    0.30
  10  -1  -6    2.14    0.21
  10  -1  -6    2.23    0.22
  10   1  -6    2.17    0.21
  10   1  -6    2.31    0.23
   9  -1  -6   13.43    0.50
   9  -1  -6   13.97    0.51
  -9  -1   6   14.57    0.43
   9   1  -6   14.19    0.51
   9   1  -6   13.52    0.50
   8  -1  -6  117.78    2.92
   8  -1  -6  115.40    2.89
  -8  -1   6  114.58    2.83
   8   1  -6  115.15    2.90
  -8   1   6  114.09    2.80
   8   1  -6  114.73    2.89
  -7  -1   6   17.38    0.49
   7  -1  -6   17.26    0.56
   7  -1  -6   17.43    0.54
   7   1  -6   17.47    0.55
   7   1  -6   17.25    0.54
  -7   1   6   17.43    0.47
   6  -1  -6   24.61    0.70
  -6  -1   6   24.52    0.67
   6  -1  -6   25.46    0.73
  -6   1   6   24.62    0.65
   6   1  -6   25.14    0.70
   6   1  -6   25.82    0.73
  -5  -1   6    2.74    0.14
   5  -1  -6    2.84    0.17
  -5   1   6    2.62    0.13
   5   1  -6    2.93    0.17
   4  -1  -6   73.14    1.77
   4  -1  -6   74.23    1.83
  -4  -1   6   69.96    1.78
   4   1  -6   71.27    1.77
   4   1  -6   73.31    1.83
  -4   1   6   69.69    1.77
   3  -1  -6  136.88    3.25
  -3  -1   6  131.46    3.27
  -3   1   6  132.79    3.27
   3   1  -6  137.69    3.25
   3   1  -6  134.56    3.31
   2  -1  -6  154.78    3.73
  -2  -1   6  156.98    3.77
   2   1  -6  158.86    3.73
  -2   1   6  150.09    3.76
  -1  -1   6   27.46    0.73
  -1   1   6   27.87    0.73
   0  -1   6   37.59    0.89
   0  -1  -6   35.46    0.94
   0  -1   6   33.92    0.94
   0   1   6   38.63    0.89
   0   1   6   36.36    0.94
   1  -1   6   12.06    0.33
  -1  -1  -6   12.56    0.36
   1   1   6   12.49    0.33
  -2  -1  -6   98.23    2.31
   2  -1   6   95.49    2.30
   2  -1   6   95.20    2.33
   2   1   6   93.27    2.30
   2   1   6   89.96    2.33
   3  -1   6   15.00    0.43
  -3  -1  -6   15.90    0.42
   3  -1   6   14.56    0.44
   3   1   6   14.26    0.43
   4  -1   6   16.17    0.50
  -4  -1  -6   17.42    0.46
  -4  -1  -6   16.85    0.50
   4  -1   6   16.95    0.50
   4   1   6   17.40    0.50
   5  -1   6    3.17    0.20
   5  -1   6    3.08    0.18
  -5  -1  -6    2.84    0.18
  -5  -1  -6    2.95    0.13
   5   1   6    2.74    0.19
  -6  -1  -6   11.73    0.40
   6  -1   6   12.11    0.40
  -6  -1  -6   12.05    0.35
   6  -1   6   12.73    0.44
   6   1   6   11.80    0.43
   7  -1   6    0.55    0.11
   7  -1   6    0.38    0.14
  -7  -1  -6    0.57    0.11
  -7   1  -6    0.74    0.10
   7   1   6    0.66    0.15
  -8  -1  -6   28.21    0.83
   8  -1   6   29.81    0.89
   8  -1   6   29.33    0.83
   8   1   6   29.58    0.89
   9  -1   6   20.84    0.72
   9  -1   6   21.65    0.65
   9   1   6   21.09    0.72
  10  -1   6    0.84    0.19
  10   1   6    0.70    0.19
  10   1   6    0.83    0.14
  11  -1   6    0.73    0.20
  11   1   6    0.88    0.21
  12  -1   6    0.76    0.22
  12   1   6    1.02    0.24
  13  -1   6    7.42    0.49
  13   1   6    7.64    0.50
  15  -2  -6    2.22    0.31
  15   2  -6    1.28    0.27
  14  -2  -6    0.30    0.21
  14   2  -6   -0.32    0.18
  13  -2  -6    0.73    0.22
  13   2  -6    0.38    0.20
  12  -2  -6    5.88    0.38
  12  -2  -6    6.04    0.35
  12   2  -6    5.90    0.39
  11  -2  -6    2.26    0.24
  11  -2  -6    2.23    0.22
  11   2  -6    2.33    0.23
  11   2  -6    2.50    0.25
  10  -2  -6   11.69    0.47
  10  -2  -6   11.88    0.47
  10   2  -6   11.91    0.48
  10   2  -6   11.22    0.45
   9  -2  -6    0.59    0.14
   9  -2  -6    0.41    0.14
  -9  -2   6    0.61    0.10
   9   2  -6    0.77    0.14
   9   2  -6    1.07    0.17
  -8  -2   6    5.88    0.24
   8  -2  -6    6.03    0.30
   8  -2  -6    5.99    0.29
   8   2  -6    5.59    0.30
   8   2  -6    5.63    0.29
  -7  -2   6   39.97    1.05
   7  -2  -6   40.07    1.12
   7  -2  -6   40.05    1.08
  -7   2   6   40.00    1.01
   7   2  -6   39.96    1.09
   7   2  -6   41.32    1.10
  -6  -2   6    4.00    0.18
   6  -2  -6    4.09    0.22
   6  -2  -6    4.03    0.20
  -6   2   6    3.80    0.15
   6   2  -6    3.85    0.21
   6   2  -6    3.91    0.21
  -5  -2   6    4.80    0.19
   5  -2  -6    3.90    0.18
   5  -2  -6    4.63    0.23
   5   2  -6    5.87    0.24
  -5   2   6    5.19    0.17
   5   2  -6    4.61    0.20
  -4  -2   6   36.31    0.97
   4  -2  -6   38.53    1.01
   4  -2  -6   37.58    0.95
   4   2  -6   38.23    1.01
   4   2  -6   37.42    0.96
  -4   2   6   37.04    0.95
   3  -2  -6  185.41    4.38
  -3  -2   6  181.85    4.41
  -3   2   6  177.73    4.39
   3   2  -6  181.51    4.45
   3   2  -6  184.57    4.39
   2  -2  -6   64.13    1.85
  -2  -2   6   77.02    1.85
   2  -2  -6   76.77    1.80
   2   2  -6   79.39    1.81
  -2   2   6   74.73    1.83
  -1  -2   6  181.60    4.39
  -1  -2   6  185.30    4.44
   1  -2  -6  186.99    4.42
  -1   2   6  178.75    4.43
   0  -2  -6   85.16    2.19
   0  -2   6   87.74    2.15
   0   2   6   90.44    2.20
   0   2   6   93.27    2.15
  -1  -2  -6   43.87    1.09
   1  -2   6   42.81    1.07
   1   2   6   42.77    1.07
   2  -2   6   41.06    1.09
   2  -2   6   42.24    1.07
  -2  -2  -6   42.67    1.10
  -2  -2  -6   43.25    1.07
   2   2   6   42.95    1.07
  -3  -2  -6   50.82    1.23
   3  -2   6   48.99    1.25
   3  -2   6   48.13    1.26
  -3  -2  -6   49.84    1.27
   3   2   6   48.93    1.26
  -4  -2  -6    8.66    0.30
  -4  -2  -6    8.69    0.25
   4  -2   6    8.20    0.30
   4  -2   6    8.58    0.30
   4   2   6    8.18    0.30
  -5  -2  -6   22.69    0.64
   5  -2   6   22.70    0.65
  -5  -2  -6   22.43    0.57
   5  -2   6   21.12    0.62
   5   2   6   21.43    0.64
  -5   2  -6   21.66    0.62
   6  -2   6   13.95    0.47
  -6  -2  -6   14.56    0.48
   6  -2   6   15.59    0.51
   6   2   6   15.85    0.51
  -6   2  -6   15.38    0.46
  -7  -2  -6    2.61    0.20
   7  -2   6    3.16    0.25
   7  -2   6    2.87    0.20
  -7   2  -6    2.79    0.18
   7   2   6    2.72    0.25
  -8  -2  -6    8.74    0.35
   8  -2   6    8.94    0.34
   8  -2   6    9.04    0.41
   8   2   6    8.83    0.41
  -9  -2  -6   13.12    0.47
   9  -2   6   13.26    0.45
   9  -2   6   12.93    0.53
   9   2   6   13.47    0.52
  10  -2   6   -0.10    0.15
 -10  -2  -6    0.18    0.11
  10   2   6   -0.18    0.15
  11  -2   6    9.71    0.49
  11   2   6    9.49    0.49
  12  -2   6    2.57    0.29
  12   2   6    2.94    0.31
  13  -2   6   -0.26    0.18
  13   2   6   -0.24    0.21
  15  -3  -6    7.31    0.49
  15   3  -6    7.93    0.52
  14  -3  -6   10.45    0.53
  14   3  -6   10.20    0.55
  13  -3  -6    8.40    0.46
  13  -3  -6    8.73    0.45
  13   3  -6    8.81    0.49
  12  -3  -6    0.28    0.15
  12  -3  -6   -0.15    0.14
  12   3  -6    0.03    0.16
  11  -3  -6    1.11    0.18
  11  -3  -6    0.75    0.18
  11   3  -6    1.01    0.20
  11   3  -6    1.07    0.16
  10  -3  -6    2.55    0.23
  10  -3  -6    2.05    0.21
  10   3  -6    2.16    0.22
  10   3  -6    2.21    0.22
   9  -3  -6   96.99    2.51
  -9  -3   6   98.18    2.43
   9  -3  -6   97.52    2.49
   9   3  -6   95.49    2.48
   9   3  -6   98.20    2.50
   8  -3  -6    9.12    0.36
   8  -3  -6    9.20    0.38
  -8  -3   6    9.08    0.32
   8   3  -6    8.77    0.36
   8   3  -6    8.62    0.38
   7  -3  -6   11.13    0.39
  -7  -3   6   11.13    0.35
   7  -3  -6   10.61    0.41
   7   3  -6   10.42    0.39
  -7   3   6   10.80    0.30
   7   3  -6   10.42    0.39
   6  -3  -6    1.20    0.14
   6  -3  -6    1.19    0.12
  -6  -3   6    1.45    0.13
  -6   3   6    1.37    0.09
   6   3  -6    1.12    0.12
   6   3  -6    1.67    0.15
   5  -3  -6   30.61    0.83
   5  -3  -6   29.41    0.78
  -5  -3   6   29.08    0.78
  -5   3   6   28.86    0.74
   5   3  -6   28.34    0.81
   5   3  -6   28.58    0.78
  -4  -3   6   69.40    1.68
   4  -3  -6   62.86    1.71
   4  -3  -6   60.07    1.66
  -4   3   6   71.12    1.65
   4   3  -6   72.29    1.72
  -3  -3   6   27.74    0.74
   3  -3  -6   24.87    0.75
   3  -3  -6   27.83    0.70
   3   3  -6   28.67    0.71
   3   3  -6   28.69    0.77
  -3   3   6   27.27    0.71
   2  -3  -6   33.41    0.84
   2  -3  -6   33.31    0.90
  -2  -3   6   34.41    0.89
   2   3  -6   33.35    0.91
   2   3  -6   34.31    0.84
  -2   3   6   33.21    0.86
  -1  -3   6    3.68    0.17
  -1  -3   6    4.04    0.13
   1  -3  -6    3.75    0.12
  -1   3   6    3.54    0.16
   0  -3  -6   94.57    2.31
   0  -3   6  100.49    2.28
   0   3  -6   86.65    2.33
   1  -3   6   27.23    0.73
  -1  -3  -6   26.58    0.72
   1  -3   6   28.17    0.70
  -1  -3  -6   28.42    0.71
   1   3   6   28.40    0.70
  -1   3  -6   23.91    0.73
   2  -3   6   66.85    1.64
  -2  -3  -6   68.99    1.63
   2  -3   6   66.87    1.66
  -2   3  -6   64.34    1.67
   2   3   6   63.71    1.64
   3  -3   6   22.23    0.63
   3  -3   6   22.58    0.62
  -3  -3  -6   22.51    0.64
  -3  -3  -6   22.86    0.58
   3   3   6   22.83    0.63
  -3   3  -6   22.80    0.64
   4  -3   6   20.00    0.58
  -4  -3  -6   20.20    0.51
  -4  -3  -6   20.52    0.59
   4  -3   6   19.41    0.57
  -4   3  -6   20.38    0.58
   4   3   6   20.28    0.59
   5  -3   6   22.92    0.66
  -5  -3  -6   23.11    0.56
  -5  -3  -6   22.32    0.65
   5  -3   6   22.00    0.64
   5   3   6   22.84    0.67
  -5   3  -6   21.82    0.64
  -6  -3  -6   26.76    0.76
   6  -3   6   27.34    0.78
   6  -3   6   26.34    0.74
   6   3   6   26.73    0.79
  -6   3  -6   26.19    0.75
  -7  -3  -6   84.76    2.10
   7  -3   6   81.11    2.12
   7  -3   6   83.53    2.08
   7   3   6   80.75    2.13
  -7   3  -6   81.77    2.08
  -8  -3  -6    6.98    0.32
   8  -3   6    7.69    0.37
   8  -3   6    7.81    0.31
   8   3   6    7.42    0.38
  -8   3  -6    7.41    0.31
   9  -3   6   30.63    0.93
  -9  -3  -6   30.18    0.88
   9   3   6   29.40    0.92
  10  -3   6    0.58    0.18
 -10  -3  -6    0.97    0.15
  10   3   6    0.77    0.19
  11  -3   6    9.37    0.48
 -11  -3  -6    9.31    0.40
  11   3   6    9.55    0.49
  12  -3   6    6.24    0.42
  12   3   6    5.47    0.43
  13  -3   6   -0.32    0.18
  13   3   6   -0.50    0.19
  15  -4  -6    5.10    0.43
  15   4  -6    4.30    0.43
  14  -4  -6    2.42    0.30
  14   4  -6    2.72    0.32
  13  -4  -6    4.99    0.35
  13  -4  -6    4.22    0.37
  13   4  -6    5.28    0.40
  12  -4  -6   33.44    1.04
  12  -4  -6   33.18    1.03
  12   4  -6   32.98    1.04
  11  -4  -6    3.80    0.29
  11  -4  -6    3.68    0.30
  11   4  -6    4.51    0.33
  10  -4  -6    9.20    0.42
 -10  -4   6    9.45    0.35
  10  -4  -6    9.29    0.41
  10   4  -6    8.58    0.38
  10   4  -6    8.59    0.42
   9  -4  -6   78.45    2.09
  -9  -4   6   79.76    2.02
   9  -4  -6   80.11    2.07
   9   4  -6   79.36    2.06
   9   4  -6   80.00    2.08
   8  -4  -6   32.43    0.93
  -8  -4   6   32.82    0.89
   8  -4  -6   32.16    0.96
   8   4  -6   32.88    0.93
   8   4  -6   32.69    0.94
  -7  -4   6    7.77    0.28
   7  -4  -6    7.23    0.33
   7  -4  -6    6.98    0.30
   7   4  -6    6.94    0.32
   7   4  -6    7.18    0.31
   6  -4  -6   18.27    0.54
   6  -4  -6   18.29    0.58
  -6  -4   6   17.56    0.54
  -6   4   6   19.13    0.48
   6   4  -6   18.27    0.56
   6   4  -6   18.76    0.57
   5  -4  -6   11.27    0.36
  -5  -4   6   11.28    0.36
   5  -4  -6   11.12    0.40
  -5   4   6   11.39    0.32
   5   4  -6   11.34    0.37
   5   4  -6   11.52    0.39
  -4  -4   6   63.08    1.59
   4   4  -6   62.77    1.62
  -4   4   6   62.80    1.55
   3  -4  -6   12.19    0.34
  -3  -4   6   11.88    0.37
   3  -4  -6   11.44    0.38
   3   4  -6   11.84    0.39
   3   4  -6   11.09    0.34
  -3   4   6   11.16    0.33
   2  -4  -6   60.05    1.46
   2  -4  -6   57.72    1.51
  -2  -4   6   60.34    1.50
  -2  -4   6   57.84    1.46
  -2   4   6   59.27    1.47
   2   4  -6   60.21    1.52
  -1  -4   6   18.27    0.49
   1  -4  -6   19.22    0.49
   0  -4  -6   37.21    1.00
   0  -4   6   38.26    1.01
   0  -4  -6   40.40    0.98
   0  -4   6   39.96    0.98
   0   4  -6   38.89    1.03
   1  -4   6   12.95    0.36
   1  -4   6   12.97    0.40
  -1  -4  -6   12.75    0.39
  -1  -4  -6   13.47    0.37
  -1   4  -6   11.90    0.40
   1   4   6   12.45    0.36
   2  -4   6   16.81    0.49
  -2  -4  -6   16.90    0.45
   2  -4   6   16.29    0.47
  -2   4  -6   16.55    0.50
   2   4   6   16.76    0.47
   3  -4   6   38.43    1.00
   3  -4   6   39.17    1.00
  -3  -4  -6   38.86    0.95
  -3  -4  -6   38.37    1.01
   3   4   6   36.96    1.00
  -3   4  -6   37.04    1.02
  -4  -4  -6   17.21    0.52
   4  -4   6   16.61    0.50
  -4  -4  -6   17.30    0.43
   4  -4   6   16.78    0.51
   4   4   6   16.98    0.52
  -4   4  -6   16.95    0.52
   5  -4   6   20.72    0.60
   5  -4   6   21.30    0.63
  -5  -4  -6   21.36    0.62
   5   4   6   20.92    0.63
  -5   4  -6   20.96    0.62
  -6  -4  -6    4.16    0.23
   6  -4   6    4.41    0.24
   6  -4   6    4.42    0.22
   6   4   6    3.98    0.26
  -6   4  -6    4.35    0.23
  -7  -4  -6   11.10    0.41
   7  -4   6   10.66    0.38
   7  -4   6   11.01    0.43
   7   4   6   10.98    0.45
  -7   4  -6   11.02    0.40
   8  -4   6    0.63    0.12
   8  -4   6    0.80    0.17
  -8  -4  -6    0.88    0.14
   8   4   6    0.76    0.16
  -8   4  -6    0.92    0.14
  -9  -4  -6    3.52    0.24
   9  -4   6    3.22    0.28
   9   4   6    3.08    0.30
  10  -4   6    1.40    0.22
 -10  -4  -6    1.58    0.18
  10   4   6    1.35    0.20
 -11  -4  -6    0.37    0.14
  11  -4   6    0.55    0.19
  11   4   6    0.44    0.20
  12  -4   6    6.29    0.43
  12   4   6    6.09    0.43
  13  -4   6    3.87    0.37
  13   4   6    4.30    0.39
  14  -5  -6    2.93    0.32
  14   5  -6    2.54    0.31
  13  -5  -6    3.14    0.31
  13  -5  -6    1.93    0.26
  13   5  -6    3.36    0.32
  12  -5  -6    5.56    0.36
  12  -5  -6    4.66    0.35
  12   5  -6    4.95    0.37
  11  -5  -6    9.80    0.46
  11  -5  -6   10.07    0.46
  11   5  -6    9.92    0.47
  10  -5  -6   20.80    0.69
 -10  -5   6   20.17    0.63
  10  -5  -6   20.53    0.71
  10   5  -6   20.56    0.70
  10   5  -6   20.38    0.66
   9  -5  -6   19.64    0.67
  -9  -5   6   19.32    0.60
   9  -5  -6   19.57    0.64
   9   5  -6   19.06    0.62
   9   5  -6   19.29    0.65
  -8  -5   6    2.01    0.17
   8  -5  -6    1.58    0.16
   8  -5  -6    1.50    0.17
   8   5  -6    1.50    0.18
   8   5  -6    1.76    0.17
   7  -5  -6   33.97    0.99
   7  -5  -6   34.37    0.96
  -7  -5   6   34.89    0.95
   7   5  -6   35.35    0.97
   7   5  -6   34.16    0.97
  -6  -5   6    1.70    0.15
   6  -5  -6    1.31    0.13
   6  -5  -6    1.53    0.17
   6   5  -6    1.66    0.15
  -6   5   6    1.85    0.09
   6   5  -6    1.80    0.16
   5  -5  -6   13.19    0.45
   5  -5  -6   12.84    0.40
  -5  -5   6   13.08    0.41
   5   5  -6   12.66    0.41
  -5   5   6   12.66    0.35
   5   5  -6   13.32    0.44
   4  -5  -6   65.24    1.66
  -4  -5   6   67.87    1.68
   4   5  -6   66.80    1.71
   4   5  -6   66.83    1.67
  -4   5   6   64.85    1.63
  -3  -5   6   55.44    1.39
   3  -5  -6   54.01    1.41
  -3   5   6   53.60    1.34
   3   5  -6   52.83    1.41
  -2  -5   6   63.30    1.60
   2  -5  -6   62.19    1.61
   2  -5  -6   63.60    1.56
  -2  -5   6   62.22    1.57
   2   5  -6   64.92    1.63
   1  -5  -6  131.74    3.23
  -1  -5   6  129.22    3.18
   1  -5  -6  134.35    3.18
   1   5  -6  130.46    3.25
   0  -5   6  123.59    2.91
   0  -5  -6  122.57    2.87
   0  -5  -6  120.09    2.89
   0  -5   6  120.59    2.87
   0   5  -6  103.28    2.91
  -1  -5  -6   38.20    0.95
  -1  -5  -6   36.20    0.96
   1  -5   6   36.86    0.97
   1  -5   6   36.37    0.94
  -1   5  -6   35.96    0.99
   1   5   6   36.45    0.94
  -2  -5  -6    0.34    0.05
   2  -5   6    0.27    0.06
  -2  -5  -6    0.25    0.08
   2  -5   6    0.32    0.08
   2   5   6    0.24    0.06
  -2   5  -6    0.18    0.08
   3  -5   6   66.43    1.63
  -3  -5  -6   67.43    1.58
  -3  -5  -6   57.26    1.64
   3  -5   6   66.54    1.64
  -3   5  -6   64.34    1.66
   3   5   6   65.66    1.64
  -4  -5  -6   35.01    0.95
   4  -5   6   35.59    0.95
   4  -5   6   34.60    0.93
   4   5   6   35.58    0.95
  -4   5  -6   34.54    0.96
   5  -5   6    1.74    0.16
   5  -5   6    1.99    0.18
  -5  -5  -6    2.25    0.18
  -5   5  -6    1.69    0.17
   5   5   6    2.19    0.19
  -6  -5  -6    6.71    0.30
   6  -5   6    6.82    0.28
   6  -5   6    6.56    0.31
  -6   5  -6    6.01    0.29
   6   5   6    6.66    0.32
   7  -5   6   19.16    0.63
  -7  -5  -6   18.88    0.60
   7  -5   6   19.14    0.57
   7   5   6   18.47    0.64
  -7   5  -6   18.86    0.60
   8  -5   6    0.33    0.14
  -8  -5  -6    0.13    0.11
   8   5   6    0.43    0.14
  -8   5  -6    0.26    0.11
   9  -5   6    4.42    0.32
  -9  -5  -6    4.62    0.27
   9   5   6    5.00    0.34
  -9   5  -6    4.56    0.40
  10  -5   6    2.08    0.24
 -10  -5  -6    2.05    0.20
  10   5   6    1.98    0.24
 -11  -5  -6    1.06    0.17
  11  -5   6    0.67    0.21
  11   5   6    0.93    0.21
  12  -5   6    1.07    0.24
  12   5   6    1.47    0.26
  13  -5   6    3.08    0.35
  13   5   6    3.75    0.37
  14  -6  -6    1.10    0.23
  14  -6  -6    0.60    0.22
  14   6  -6    1.02    0.26
  13  -6  -6   12.75    0.57
  13  -6  -6   12.00    0.57
  13   6  -6   13.26    0.60
  12  -6  -6   16.09    0.62
  12  -6  -6   15.24    0.63
  12   6  -6   15.50    0.64
 -11  -6   6   32.09    0.99
  11  -6  -6   33.95    1.02
  11  -6  -6   32.63    1.03
  11   6  -6   32.42    1.02
  10  -6  -6    4.91    0.31
 -10  -6   6    4.68    0.25
  10  -6  -6    4.57    0.30
  10   6  -6    4.50    0.27
  10   6  -6    4.90    0.33
  -9  -6   6   34.11    0.95
   9  -6  -6   33.53    0.98
   9  -6  -6   32.71    1.01
   9   6  -6   33.45    1.00
   9   6  -6   33.70    0.96
   8  -6  -6   10.69    0.42
   8  -6  -6   10.69    0.45
  -8  -6   6   11.11    0.40
   8   6  -6   10.73    0.44
   8   6  -6   11.03    0.41
   7  -6  -6    7.49    0.31
  -7  -6   6    6.92    0.29
   7  -6  -6    7.20    0.34
   7   6  -6    6.82    0.31
   7   6  -6    6.91    0.32
  -6  -6   6  147.48    3.57
   6  -6  -6  140.51    3.61
   6  -6  -6  142.92    3.56
   6   6  -6  147.53    3.59
   6   6  -6  145.05    3.58
   5  -6  -6    1.66    0.13
  -5  -6   6    1.64    0.15
   5   6  -6    1.51    0.14
  -5   6   6    1.57    0.10
   5   6  -6    1.55    0.16
   4  -6  -6   40.18    1.10
   4  -6  -6   40.89    1.05
  -4  -6   6   40.99    1.07
  -4   6   6   39.81    1.01
   4   6  -6   40.93    1.10
   4   6  -6   39.51    1.06
   3  -6  -6   13.72    0.42
  -3  -6   6   15.14    0.46
   3  -6  -6   15.29    0.48
   3   6  -6   15.41    0.48
  -2  -6   6   56.18    1.42
  -2  -6   6   53.93    1.38
   2  -6  -6   54.02    1.43
   2   6  -6   56.36    1.44
   1  -6  -6   63.30    1.57
   1  -6  -6   62.99    1.60
  -1  -6   6   60.06    1.59
  -1  -6   6   62.82    1.56
   1   6  -6   64.70    1.62
   0  -6   6   67.96    1.64
   0  -6  -6   69.27    1.65
   0  -6   6   69.39    1.67
   0  -6  -6   55.92    1.64
   1  -6   6   10.12    0.30
   1  -6   6    9.05    0.32
  -1  -6  -6    9.03    0.32
  -1   6  -6    9.25    0.34
  -2  -6  -6   25.75    0.67
  -2  -6  -6   24.60    0.71
   2  -6   6   25.40    0.71
   2  -6   6   25.40    0.69
  -2   6  -6   26.22    0.74
   2   6   6   25.98    0.70
   3  -6   6   10.49    0.35
  -3  -6  -6    9.78    0.28
   3  -6   6   10.08    0.34
   3   6   6    9.76    0.34
  -3   6  -6   10.02    0.37
   4  -6   6    4.31    0.21
   4  -6   6    4.26    0.22
  -4  -6  -6    3.98    0.21
   4   6   6    3.93    0.22
  -4   6  -6    3.89    0.22
  -5  -6  -6    7.20    0.30
   5  -6   6    7.83    0.29
   5  -6   6    7.91    0.32
  -5   6  -6    6.76    0.31
   5   6   6    7.02    0.32
   6  -6   6    2.94    0.19
  -6  -6  -6    2.91    0.22
   6  -6   6    2.99    0.23
   6   6   6    3.03    0.25
  -6   6  -6    2.67    0.22
   7  -6   6   34.47    0.95
   7  -6   6   35.15    1.02
  -7  -6  -6   34.49    0.99
  -7   6  -6   36.02    1.01
   7   6   6   35.78    1.03
   8  -6   6   15.24    0.56
  -8  -6  -6   15.46    0.53
  -8   6  -6   14.94    0.54
   8   6   6   15.23    0.58
  -9  -6  -6    8.01    0.37
   9  -6   6    8.29    0.41
  -9   6  -6    7.95    0.37
   9   6   6    7.88    0.42
  10  -6   6   13.94    0.57
 -10  -6  -6   13.97    0.52
  10   6   6   13.98    0.59
 -11  -6  -6   14.48    0.55
  11  -6   6   14.22    0.59
  11   6   6   14.72    0.62
 -12  -6  -6    0.42    0.16
  12  -6   6    0.10    0.18
  12   6   6    0.25    0.21
  13  -6   6   15.39    0.68
  13   6   6   15.15    0.70
  14  -7  -6   14.67    0.65
  14  -7  -6   14.20    0.64
  14   7  -6   13.82    0.66
  13  -7  -6    7.06    0.45
  13  -7  -6    7.99    0.46
  13   7  -6    8.20    0.48
  12  -7  -6    2.83    0.28
  12  -7  -6    3.49    0.34
  12   7  -6    3.64    0.33
 -11  -7   6   11.70    0.45
  11  -7  -6   11.29    0.52
  11  -7  -6   12.34    0.52
  11   7  -6   12.04    0.53
  10  -7  -6    2.81    0.28
 -10  -7   6    2.94    0.22
  10  -7  -6    2.64    0.24
  10   7  -6    2.72    0.25
   9  -7  -6   21.37    0.69
   9  -7  -6   20.87    0.72
  -9  -7   6   21.32    0.66
   9   7  -6   20.81    0.66
   9   7  -6   20.47    0.70
  -8  -7   6   15.45    0.52
   8  -7  -6   16.02    0.57
   8  -7  -6   16.01    0.53
   8   7  -6   14.67    0.54
   8   7  -6   14.74    0.52
   7  -7  -6    9.76    0.40
   7  -7  -6    9.49    0.37
  -7  -7   6    9.60    0.36
   7   7  -6    9.15    0.38
   7   7  -6    9.27    0.37
  -6  -7   6   29.88    0.83
   6  -7  -6   28.57    0.82
   6   7  -6   28.92    0.84
   6   7  -6   29.04    0.83
   5  -7  -6    2.02    0.15
  -5  -7   6    2.16    0.16
   5   7  -6    2.06    0.17
   5   7  -6    2.31    0.18
  -5   7   6    2.34    0.11
   4  -7  -6   16.40    0.53
   4  -7  -6   15.79    0.48
  -4  -7   6   16.98    0.51
   4   7  -6   15.95    0.49
  -4   7   6   16.19    0.45
   4   7  -6   16.39    0.53
  -3  -7   6    1.31    0.13
  -3  -7   6    1.04    0.10
   3  -7  -6    0.92    0.11
   3  -7  -6    1.54    0.11
   3   7  -6    0.95    0.13
   2  -7  -6   80.84    2.06
  -2  -7   6   80.35    2.02
   2  -7  -6   79.67    2.01
   2  -7  -6   81.29    2.02
   2   7  -6   85.30    2.08
   1  -7  -6   28.26    0.76
   1  -7  -6   28.68    0.76
  -1  -7   6   28.83    0.79
  -1  -7   6   27.85    0.76
   1  -7  -6   27.90    0.79
   1   7  -6   29.64    0.82
   0  -7   6   21.30    0.61
   0  -7  -6   21.47    0.59
   0  -7  -6   20.47    0.57
   0  -7  -6   20.59    0.59
   0  -7   6   20.53    0.58
   1  -7   6    5.51    0.23
   1  -7   6    6.01    0.22
  -1  -7  -6    5.77    0.22
  -1  -7  -6    5.83    0.24
  -1   7  -6    6.01    0.27
   2  -7   6   31.60    0.86
  -2  -7  -6   31.05    0.86
  -2  -7  -6   31.97    0.82
   2  -7   6   31.42    0.85
   2   7   6   32.45    0.86
  -2   7  -6   31.35    0.89
   3  -7   6   20.26    0.58
   3  -7   6   20.66    0.59
  -3  -7  -6   20.33    0.53
  -3  -7  -6   16.65    0.58
  -3   7  -6   21.18    0.63
   3   7   6   20.70    0.59
   4  -7   6    9.86    0.35
   4  -7   6    9.98    0.36
  -4   7  -6    9.24    0.37
   4   7   6    9.67    0.36
  -5  -7  -6   21.14    0.65
   5  -7   6   21.39    0.62
   5  -7   6   21.82    0.65
  -5   7  -6   20.65    0.66
   5   7   6   21.09    0.66
   6  -7   6   52.86    1.37
   6  -7   6   52.75    1.42
  -6  -7  -6   51.99    1.41
   6   7   6   52.82    1.43
  -6   7  -6   53.76    1.44
  -7  -7  -6   16.56    0.55
   7  -7   6   16.54    0.57
   7  -7   6   15.87    0.50
   7   7   6   16.24    0.58
  -7   7  -6   15.52    0.56
  -8  -7  -6    8.16    0.37
   8  -7   6    8.05    0.40
   8   7   6    8.24    0.42
  -8   7  -6    8.63    0.39
  -9  -7  -6    0.55    0.15
   9  -7   6    0.43    0.17
  -9   7  -6    0.59    0.15
   9   7   6    0.55    0.18
 -10  -7  -6    2.52    0.23
  10  -7   6    2.64    0.27
  10   7   6    2.72    0.29
  11  -7   6    0.74    0.21
 -11  -7  -6    1.46    0.20
  11   7   6    1.50    0.25
  12  -7   6   16.58    0.68
 -12  -7  -6   16.90    0.62
  12   7   6   16.73    0.71
  13  -7   6    0.96    0.24
  13   7   6    1.23    0.27
  14  -8  -6    7.70    0.48
  14  -8  -6    6.95    0.47
  14   8  -6    7.04    0.49
  13  -8  -6    1.38    0.24
  13  -8  -6    1.43    0.25
  13   8  -6    1.79    0.27
  12  -8  -6   -0.04    0.17
  12  -8  -6   -0.04    0.17
  12   8  -6    0.14    0.18
  11  -8  -6   26.70    0.91
  11  -8  -6   26.16    0.87
 -11  -8   6   26.46    0.82
  11   8  -6   27.05    0.90
 -10  -8   6    6.66    0.34
  10  -8  -6    7.27    0.37
  10  -8  -6    6.41    0.39
  10   8  -6    7.28    0.40
   9  -8  -6    9.27    0.40
  -9  -8   6    9.00    0.38
   9  -8  -6    8.44    0.42
   9   8  -6    8.53    0.41
   9   8  -6    8.23    0.37
   8  -8  -6    8.19    0.36
   8  -8  -6    7.65    0.38
  -8  -8   6    8.03    0.34
   8   8  -6    8.25    0.35
   8   8  -6    7.55    0.37
  -7  -8   6    0.91    0.13
   7  -8  -6    1.29    0.18
   7  -8  -6    0.96    0.14
   7   8  -6    0.77    0.13
   7   8  -6    0.80    0.14
  -6  -8   6   24.85    0.72
   6  -8  -6   24.00    0.71
   6   8  -6   24.07    0.72
   6   8  -6   23.03    0.72
  -5  -8   6    6.12    0.28
   5  -8  -6    6.07    0.27
   5   8  -6    6.48    0.28
   5   8  -6    6.38    0.29
  -5   8   6    6.16    0.20
   4  -8  -6   31.42    0.90
   4  -8  -6   30.61    0.85
  -4  -8   6   31.72    0.87
   4   8  -6   31.50    0.89
   4   8  -6   30.51    0.86
  -3  -8   6    7.56    0.28
   3  -8  -6    7.18    0.31
   3  -8  -6    7.18    0.27
  -3  -8   6    7.94    0.31
   3   8  -6    7.82    0.32
  -2  -8   6   30.53    0.82
   2  -8  -6   29.66    0.85
   2  -8  -6   30.99    0.80
   2  -8  -6   30.23    0.81
   2   8  -6   29.78    0.86
   1  -8  -6   13.62    0.44
  -1  -8   6   13.18    0.43
  -1  -8   6   13.49    0.42
   1  -8  -6   13.61    0.41
   1  -8  -6   13.45    0.42
   1   8  -6   14.84    0.48
   0  -8   6   72.90    1.85
   0  -8  -6   73.22    1.86
   0  -8  -6   73.12    1.86
   0  -8   6   73.56    1.87
   0  -8  -6   74.29    1.85
   0   8  -6   76.05    1.91
   1  -8   6   43.13    1.10
  -1  -8  -6   41.74    1.10
  -1  -8  -6   40.62    1.09
   1  -8   6   42.34    1.11
  -1  -8  -6   42.62    1.11
   2  -8   6   25.37    0.71
   2  -8   6   25.40    0.71
  -2  -8  -6   25.74    0.73
  -2   8  -6   24.91    0.76
   2   8   6   25.10    0.72
   3  -8   6    7.21    0.28
   3  -8   6    7.34    0.29
  -3  -8  -6    7.28    0.23
  -3  -8  -6    5.97    0.28
  -3   8  -6    7.34    0.32
   3   8   6    7.16    0.29
   4  -8   6   16.13    0.50
   4  -8   6   16.31    0.52
  -4   8  -6   16.06    0.55
   4   8   6   15.47    0.52
  -5  -8  -6    8.87    0.36
   5  -8   6    8.43    0.33
   5  -8   6    8.58    0.36
  -5   8  -6    8.46    0.37
   5   8   6    8.55    0.36
   6  -8   6   16.52    0.49
   6  -8   6   16.61    0.55
  -6  -8  -6   15.73    0.54
   6   8   6   14.48    0.55
  -6   8  -6   14.49    0.54
   7  -8   6    6.87    0.35
  -7  -8  -6    6.85    0.33
   7   8   6    7.00    0.37
  -7   8  -6    7.27    0.35
   8  -8   6   30.13    0.92
  -8  -8  -6   29.50    0.89
  -8   8  -6   29.65    0.92
   8   8   6   29.83    0.93
   9  -8   6    5.24    0.35
  -9  -8  -6    4.87    0.31
   9   8   6    5.57    0.37
  -9   8  -6    6.10    0.34
  10  -8   6    9.19    0.47
 -10  -8  -6    8.61    0.42
  10   8   6    9.44    0.49
 -10   8  -6    9.59    0.55
  11  -8   6    9.46    0.48
 -11  -8  -6    9.85    0.45
  11   8   6    9.16    0.51
 -12  -8  -6    1.32    0.21
  12  -8   6    0.91    0.21
  12   8   6    1.47    0.27
  14  -9  -6    0.50    0.22
  14  -9  -6    0.35    0.20
  14   9  -6    0.19    0.32
  13  -9  -6    2.80    0.32
  13  -9  -6    2.33    0.29
  13   9  -6    2.12    0.29
  12  -9  -6    3.42    0.33
  12  -9  -6    3.53    0.34
  12   9  -6    3.23    0.32
  11  -9  -6    8.82    0.45
 -11  -9   6    9.17    0.41
  11  -9  -6    9.54    0.49
  11   9  -6    9.41    0.48
 -10  -9   6    5.74    0.31
  10  -9  -6    5.64    0.37
  10  -9  -6    5.13    0.34
  10   9  -6    5.10    0.35
  -9  -9   6   25.60    0.80
   9  -9  -6   25.87    0.82
   9  -9  -6   25.54    0.86
   9   9  -6   25.93    0.86
   9   9  -6   26.61    0.84
  -8  -9   6   30.91    0.90
   8  -9  -6   31.11    0.91
   8  -9  -6   31.94    0.97
   8   9  -6   30.23    0.92
   8   9  -6   29.43    0.89
   7  -9  -6    1.70    0.19
  -7  -9   6    2.22    0.20
   7  -9  -6    2.14    0.20
   7   9  -6    2.40    0.22
   7   9  -6    1.74    0.17
   6  -9  -6   32.79    0.97
   6  -9  -6   32.48    0.92
  -6  -9   6   32.19    0.92
   6   9  -6   33.03    0.93
   6   9  -6   31.18    0.93
   5  -9  -6   14.26    0.46
  -5  -9   6   13.97    0.48
   5   9  -6   13.70    0.47
   5   9  -6   14.22    0.49
   4  -9  -6   21.51    0.68
  -4  -9   6   21.35    0.65
   4  -9  -6   20.80    0.62
   4   9  -6   21.14    0.64
   4   9  -6   21.72    0.67
   3  -9  -6    8.86    0.32
   3  -9  -6    9.36    0.30
   3  -9  -6    9.19    0.36
  -3  -9   6    9.02    0.32
   3   9  -6    8.29    0.35
   2  -9  -6    8.17    0.30
   2  -9  -6    8.41    0.29
  -2  -9   6    8.42    0.30
   2  -9  -6    8.77    0.34
  -2  -9   6    7.56    0.32
   2   9  -6    8.42    0.34
   1  -9  -6   11.88    0.41
  -1  -9   6   11.47    0.41
   1  -9  -6   11.59    0.38
  -1  -9   6   11.71    0.38
   1  -9  -6   12.12    0.38
   1   9  -6   12.17    0.44
   0  -9   6    1.54    0.13
   0  -9  -6    1.22    0.12
   0  -9  -6    1.54    0.13
   0  -9   6    1.41    0.14
   0  -9  -6    1.16    0.12
   0   9  -6    1.21    0.14
   1  -9   6   21.69    0.63
  -1  -9  -6   21.59    0.63
  -1  -9  -6   22.21    0.65
   1  -9   6   22.49    0.65
  -1  -9  -6   22.27    0.63
   2  -9   6   15.48    0.49
   2  -9   6   15.74    0.49
  -2  -9  -6   15.90    0.51
   3  -9   6   65.07    1.70
   3  -9   6   67.61    1.71
  -3  -9  -6   63.88    1.72
  -3  -9  -6   64.71    1.65
  -3   9  -6   67.65    1.76
   3   9   6   69.40    1.73
   4  -9   6   71.97    1.82
   4  -9   6   71.42    1.85
   4   9   6   71.30    1.86
  -4   9  -6   70.78    1.88
   5  -9   6    8.72    0.33
   5  -9   6    8.73    0.37
  -5  -9  -6    9.21    0.38
  -5   9  -6    8.85    0.40
   5   9   6    9.15    0.38
  -6  -9  -6    7.43    0.35
   6  -9   6    8.06    0.36
   6  -9   6    7.99    0.31
   6   9   6    6.83    0.36
  -6   9  -6    7.38    0.37
   7  -9   6    2.94    0.26
  -7  -9  -6    2.51    0.22
  -7   9  -6    3.05    0.25
   7   9   6    2.13    0.23
   8  -9   6    2.37    0.24
  -8  -9  -6    2.37    0.22
   8   9   6    2.59    0.25
  -8   9  -6    2.88    0.26
  -9  -9  -6    5.29    0.32
   9  -9   6    4.92    0.35
   9   9   6    5.28    0.38
  -9   9  -6    5.43    0.34
 -10  -9  -6    2.99    0.28
  10  -9   6    2.18    0.25
 -10   9  -6    2.99    0.29
  10   9   6    3.40    0.32
  11  -9   6    1.52    0.24
 -11  -9  -6    2.14    0.23
  11   9   6    1.70    0.27
 -12  -9  -6    2.86    0.27
  12  -9   6    2.44    0.28
  12   9   6    2.68    0.33
  14 -10  -6    0.38    0.33
  13 -10  -6    4.68    0.40
  13 -10  -6    4.85    0.39
  13  10  -6    4.62    0.42
  12 -10  -6   17.90    0.69
 -12 -10   6   17.11    0.64
  12 -10  -6   17.22    0.72
  12  10  -6   18.49    0.73
  11 -10  -6   26.04    0.86
 -11 -10   6   24.77    0.81
  11 -10  -6   25.60    0.90
  11  10  -6   24.80    0.88
  10 -10  -6    2.04    0.26
 -10 -10   6    2.03    0.21
  10 -10  -6    2.01    0.23
  10  10  -6    1.83    0.24
   9 -10  -6    3.51    0.31
  -9 -10   6    3.29    0.27
   9 -10  -6    2.90    0.26
   9  10  -6    3.38    0.30
   8 -10  -6    6.23    0.33
  -8 -10   6    6.46    0.33
   8 -10  -6    5.91    0.37
   8  10  -6    6.43    0.35
   8  10  -6    6.47    0.32
   7 -10  -6   23.61    0.78
   7 -10  -6   23.14    0.73
  -7 -10   6   23.35    0.73
   7  10  -6   23.06    0.74
   7  10  -6   23.74    0.73
  -6 -10   6    0.24    0.11
   6 -10  -6    0.30    0.10
   6 -10  -6    0.38    0.14
   6  10  -6    0.28    0.11
   6  10  -6    0.23    0.12
   5 -10  -6   35.29    1.01
  -5 -10   6   34.22    0.97
   5 -10  -6   33.80    0.94
   5  10  -6   32.73    0.96
   5  10  -6   32.59    0.97
   4 -10  -6   10.27    0.32
   4 -10  -6   10.31    0.42
   4 -10  -6   10.32    0.37
  -4 -10   6    8.42    0.37
   4  10  -6   11.37    0.42
   3 -10  -6   16.06    0.51
   3 -10  -6   16.47    0.48
  -3 -10   6   16.78    0.52
   3 -10  -6   16.44    0.55
   3  10  -6   16.04    0.55
   2 -10  -6   43.79    1.19
  -2 -10   6   44.19    1.15
   2 -10  -6   44.12    1.15
   2 -10  -6   43.76    1.13
  -2 -10   6   39.29    1.16
   2  10  -6   44.52    1.21
  -1 -10   6   43.18    1.16
   1 -10  -6   43.79    1.16
   1 -10  -6   43.94    1.15
  -1 -10   6   44.12    1.18
   1 -10  -6   43.03    1.19
   1  10  -6   45.76    1.22
   0 -10  -6   39.38    1.05
   0 -10  -6   38.50    1.05
   0 -10   6   39.42    1.07
   0 -10   6   39.67    1.06
   0 -10  -6   39.01    1.06
   0  10  -6   39.81    1.11
   1 -10   6   29.68    0.83
  -1 -10  -6   29.71    0.83
  -1 -10  -6   30.22    0.84
   1 -10   6   29.35    0.83
  -1 -10  -6   29.58    0.82
   2 -10   6    4.27    0.22
   2 -10   6    4.37    0.23
  -2 -10  -6    3.94    0.22
  -2 -10  -6    4.00    0.23
  -2 -10  -6    4.13    0.20
   3 -10   6    1.69    0.15
  -3 -10  -6    2.09    0.18
   3 -10   6    2.02    0.19
  -3  10  -6    1.59    0.19
   3  10   6    1.78    0.17
   4 -10   6    1.45    0.16
  -4 -10  -6    1.44    0.16
   4 -10   6    1.48    0.15
  -4  10  -6    1.75    0.20
   4  10   6    1.55    0.17
  -5 -10  -6    8.75    0.37
   5 -10   6    8.51    0.33
   5 -10   6    8.51    0.37
   5  10   6    8.86    0.38
  -5  10  -6    7.94    0.40
   6 -10   6    5.51    0.33
   6 -10   6    5.81    0.31
  -6 -10  -6    5.87    0.31
  -6  10  -6    5.77    0.34
   6  10   6    5.63    0.32
   7 -10   6    7.66    0.39
  -7 -10  -6    7.55    0.37
   7  10   6    7.90    0.40
  -7  10  -6    8.04    0.40
   8 -10   6   15.04    0.60
  -8 -10  -6   15.64    0.58
  -8  10  -6   16.61    0.62
   8  10   6   15.81    0.60
  -9 -10  -6   18.99    0.68
   9 -10   6   19.80    0.71
  -9  10  -6   19.56    0.71
   9  10   6   19.35    0.73
 -10 -10  -6   16.05    0.61
  10 -10   6   16.19    0.65
 -10  10  -6   14.98    0.62
  10  10   6   16.29    0.67
 -11 -10  -6    3.71    0.32
  11 -10   6    3.32    0.33
  11  10   6    3.91    0.36
  12 -10   6    3.01    0.32
 -12 -10  -6    3.95    0.33
  12  10   6    4.41    0.39
 -13 -10  -6    0.19    0.17
  13 -11  -6    5.31    0.42
  13 -11  -6    6.08    0.47
  13  11  -6    6.03    0.46
  12 -11  -6    4.13    0.36
  12 -11  -6    4.19    0.39
 -12 -11   6    4.08    0.33
  12  11  -6    4.31    0.39
 -11 -11   6    9.03    0.43
  11 -11  -6    8.55    0.49
  11 -11  -6    8.48    0.45
  11  11  -6    9.36    0.49
  10 -11  -6    1.82    0.22
 -10 -11   6    1.90    0.22
  10 -11  -6    1.77    0.24
  10  11  -6    2.80    0.28
  -9 -11   6   33.48    1.00
   9 -11  -6   33.92    1.01
   9 -11  -6   33.07    1.06
   9  11  -6   31.87    1.02
   8 -11  -6    3.65    0.30
   8 -11  -6    3.84    0.28
  -8 -11   6    3.45    0.27
   8  11  -6    4.24    0.30
   8  11  -6    3.97    0.27
   7 -11  -6   20.58    0.69
  -7 -11   6   22.49    0.71
   7 -11  -6   21.66    0.75
   7  11  -6   21.44    0.71
   7  11  -6   22.20    0.70
  -6 -11   6   11.37    0.46
   6 -11  -6   12.99    0.51
   6 -11  -6   11.49    0.44
   6  11  -6   12.64    0.46
   6  11  -6   12.07    0.46
   5 -11  -6    8.90    0.41
  -5 -11   6    8.46    0.37
   5 -11  -6    8.21    0.35
   5  11  -6    8.05    0.37
   5  11  -6    8.09    0.36
   4 -11  -6   33.09    0.99
   4 -11  -6   33.23    0.91
  -4 -11   6   33.25    0.95
  -4 -11   6   33.84    0.94
   4 -11  -6   32.32    0.93
   4  11  -6   32.77    0.97
   3 -11  -6    1.40    0.17
  -3 -11   6    1.02    0.13
   3 -11  -6    1.58    0.13
  -3 -11   6    1.86    0.17
   3 -11  -6    1.75    0.16
   3  11  -6    1.60    0.18
   2 -11  -6   13.86    0.50
  -2 -11   6   14.35    0.49
   2 -11  -6   13.92    0.46
  -2 -11   6   14.18    0.47
   2 -11  -6   14.60    0.45
   2  11  -6   14.08    0.52
   1 -11  -6    3.23    0.19
   1 -11  -6    3.38    0.22
   1 -11  -6    3.01    0.19
  -1 -11   6    2.86    0.21
  -1 -11   6    3.16    0.20
   1  11  -6    3.12    0.25
   0 -11  -6    8.71    0.34
   0 -11   6    8.97    0.34
   0 -11  -6    8.70    0.34
   0 -11  -6    9.08    0.34
   0 -11   6    8.40    0.35
   0  11  -6    9.02    0.39
  -1 -11  -6    0.58    0.12
   1 -11   6    0.70    0.12
  -1 -11  -6    0.68    0.11
   1 -11   6    0.89    0.12
  -1 -11  -6    0.71    0.11
  -1  11  -6    0.35    0.12
   2 -11   6    8.98    0.34
  -2 -11  -6    8.96    0.32
  -2 -11  -6    8.47    0.34
  -2 -11  -6    8.41    0.35
   2 -11   6    8.46    0.34
   3 -11   6    5.67    0.26
   3 -11   6    5.39    0.28
  -3 -11  -6    5.40    0.29
   3  11   6    5.07    0.28
  -3  11  -6    5.30    0.33
   4 -11   6   66.04    1.71
  -4 -11  -6   67.20    1.75
   4 -11   6   66.79    1.75
   4  11   6   65.86    1.76
  -4  11  -6   65.59    1.79
   5 -11   6   30.84    0.86
   5 -11   6   31.28    0.91
  -5 -11  -6   30.64    0.91
   5  11   6   29.48    0.91
  -5  11  -6   30.86    0.96
   6 -11   6   28.10    0.85
  -6 -11  -6   27.81    0.85
  -6  11  -6   27.84    0.89
   6  11   6   26.52    0.86
   7 -11   6    9.56    0.44
  -7 -11  -6    9.43    0.43
  -7  11  -6   10.08    0.47
   7  11   6    9.46    0.45
  -8 -11  -6    9.98    0.46
   8 -11   6   10.14    0.47
  -8  11  -6   10.97    0.50
   8  11   6   10.33    0.49
   9 -11   6    2.24    0.25
  -9 -11  -6    2.64    0.25
  -9  11  -6    2.61    0.27
   9  11   6    2.53    0.28
  10 -11   6    1.27    0.22
 -10 -11  -6    1.07    0.19
  10  11   6    1.12    0.24
 -10  11  -6    0.86    0.20
 -11 -11  -6    4.01    0.34
  11 -11   6    3.95    0.38
  11  11   6    4.10    0.38
  12 -11   6    1.26    0.41
 -12 -11  -6    1.36    0.22
  12  11   6    1.15    0.32
  13 -12  -6    0.13    0.23
  12 -12  -6   20.71    0.82
 -12 -12   6   18.88    0.71
  12 -12  -6   20.26    0.76
  12  12  -6   20.05    0.80
  11 -12  -6    0.44    0.20
 -11 -12   6    0.20    0.15
  11 -12  -6    0.29    0.17
  11  12  -6    0.43    0.19
  10 -12  -6    5.55    0.37
  10 -12  -6    5.96    0.41
 -10 -12   6    6.17    0.37
  10  12  -6    5.90    0.40
   9 -12  -6   -0.09    0.16
  -9 -12   6    0.21    0.14
   9 -12  -6    0.06    0.14
   9  12  -6    0.17    0.15
   8 -12  -6    5.25    0.32
  -8 -12   6    5.40    0.33
   8 -12  -6    5.49    0.37
   8  12  -6    5.15    0.34
  -7 -12   6   15.48    0.57
   7 -12  -6   16.65    0.57
   7 -12  -6   17.04    0.64
   7  12  -6   14.89    0.55
   7  12  -6   15.33    0.58
  -6 -12   6   12.68    0.50
   6 -12  -6   13.56    0.49
   6 -12  -6   14.15    0.56
   6  12  -6   13.56    0.51
   6  12  -6   12.79    0.49
   5 -12  -6   23.67    0.79
   5 -12  -6   24.71    0.74
  -5 -12   6   23.88    0.75
   5  12  -6   23.58    0.76
   5  12  -6   24.24    0.75
   4 -12  -6   32.76    0.95
  -4 -12   6   33.25    0.96
   4 -12  -6   34.75    1.02
  -4 -12   6   34.74    0.99
   4  12  -6   33.14    0.99
   3 -12  -6    1.90    0.18
  -3 -12   6    1.67    0.17
   3 -12  -6    2.09    0.16
   3 -12  -6    1.77    0.19
  -3 -12   6    1.92    0.19
   3  12  -6    1.72    0.18
   2 -12  -6   31.42    0.89
  -2 -12   6   31.53    0.90
  -2 -12   6   31.10    0.91
   2 -12  -6   31.59    0.93
   2 -12  -6   31.50    0.86
   2  12  -6   31.65    0.95
   1 -12  -6   79.34    2.01
  -1 -12   6   76.81    2.02
   1 -12  -6   78.55    2.00
  -1 -12   6   77.92    2.01
   1 -12  -6   78.11    2.04
   1  12  -6   80.22    2.07
   0 -12   6    0.51    0.11
   0 -12  -6    0.44    0.11
   0 -12  -6    0.60    0.12
   0 -12   6    0.72    0.13
   0 -12  -6    0.58    0.11
   0  12  -6    0.38    0.13
   1 -12   6   26.21    0.77
   1 -12   6   25.98    0.77
  -1 -12  -6   25.88    0.76
  -1 -12  -6   25.92    0.77
  -1 -12  -6   27.51    0.78
  -1  12  -6   26.05    0.83
   2 -12   6   59.07    1.55
   2 -12   6   58.43    1.53
  -2 -12  -6   58.46    1.55
  -2 -12  -6   57.19    1.55
  -2 -12  -6   57.77    1.51
  -2  12  -6   60.42    1.62
  -3 -12  -6   10.24    0.41
   3 -12   6    9.39    0.40
   3 -12   6    9.93    0.38
  -3  12  -6   10.27    0.46
   3  12   6    9.75    0.40
   4 -12   6    7.98    0.32
   4 -12   6    8.04    0.37
  -4 -12  -6    7.71    0.36
  -4  12  -6    8.21    0.41
   4  12   6    7.80    0.37
  -5 -12  -6   12.36    0.48
   5 -12   6   11.57    0.41
   5 -12   6   11.94    0.47
   5  12   6   11.41    0.46
  -5  12  -6   11.52    0.51
  -6 -12  -6    6.62    0.35
   6 -12   6    6.07    0.35
  -6  12  -6    5.77    0.36
   6  12   6    6.18    0.36
   7 -12   6   19.55    0.69
  -7 -12  -6   18.98    0.67
   7  12   6   19.84    0.71
  -7  12  -6   20.10    0.73
   8 -12   6    0.34    0.16
  -8 -12  -6    0.36    0.14
  -8  12  -6    0.61    0.18
   8  12   6    0.51    0.18
  -9 -12  -6    7.38    0.41
   9 -12   6    7.22    0.43
   9  12   6    6.99    0.44
  -9  12  -6    6.85    0.43
  10 -12   6    3.67    0.33
 -10 -12  -6    3.62    0.32
  10  12   6    4.41    0.39
 -10  12  -6    3.24    0.32
 -11 -12  -6    0.68    0.20
  11 -12   6    0.84    0.23
  11  12   6    0.94    0.25
 -11  12  -6    0.84    0.24
 -12 -12  -6    2.48    0.32
  12 -13  -6    8.29    0.49
  12 -13  -6    9.53    0.55
 -12 -13   6    8.98    0.46
  12  13  -6    9.67    0.54
  11 -13  -6    4.96    0.37
  11 -13  -6    4.71    0.40
 -11 -13   6    4.26    0.34
  11  13  -6    4.85    0.40
  10 -13  -6    1.85    0.23
 -10 -13   6    2.30    0.24
  10 -13  -6    2.10    0.29
  10  13  -6    2.22    0.27
  -9 -13   6    1.07    0.19
   9 -13  -6    1.30    0.24
   9 -13  -6    1.20    0.20
   9  13  -6    1.11    0.21
  -8 -13   6    0.94    0.18
   8 -13  -6    0.98    0.18
   8 -13  -6    1.23    0.22
   8  13  -6    0.80    0.18
  -7 -13   6   50.98    1.43
   7 -13  -6   52.10    1.43
   7 -13  -6   52.12    1.49
   7  13  -6   50.14    1.44
   7  13  -6   49.66    1.41
   6 -13  -6   16.35    0.58
   6 -13  -6   16.58    0.64
  -6 -13   6   16.54    0.59
   6  13  -6   16.65    0.60
   6  13  -6   15.89    0.58
   5 -13  -6    3.42    0.25
  -5 -13   6    3.18    0.27
   5 -13  -6    2.98    0.29
   5  13  -6    3.35    0.28
   5  13  -6    3.84    0.27
  -4 -13   6   49.54    1.36
   4 -13  -6   49.61    1.35
   4 -13  -6   48.84    1.40
  -4 -13   6   50.18    1.37
   4  13  -6   49.52    1.38
   3 -13  -6   35.82    1.02
  -3 -13   6   36.70    1.04
  -3 -13   6   36.36    1.03
   3 -13  -6   35.49    1.07
   3 -13  -6   35.64    0.97
   3  13  -6   36.76    1.07
   2 -13  -6    4.75    0.29
   2 -13  -6    4.49    0.25
   2 -13  -6    4.64    0.24
  -2 -13   6    4.70    0.28
  -2 -13   6    4.34    0.26
   2  13  -6    4.44    0.31
   1 -13  -6    2.56    0.20
  -1 -13   6    2.42    0.22
   1 -13  -6    2.56    0.22
   1 -13  -6    2.53    0.20
  -1 -13   6    2.10    0.20
   1  13  -6    2.61    0.26
   0 -13   6   27.36    0.81
   0 -13  -6   26.71    0.81
   0 -13  -6   27.22    0.79
   0 -13  -6   26.49    0.80
   0 -13   6   27.59    0.81
   0  13  -6   27.23    0.86
  -1 -13  -6    7.52    0.34
   1 -13   6    7.69    0.34
   1 -13   6    7.63    0.34
  -1 -13  -6    7.68    0.34
  -1 -13  -6    7.57    0.32
  -1  13  -6    7.83    0.40
  -2 -13  -6   30.69    0.90
   2 -13   6   31.23    0.91
   2 -13   6   31.09    0.89
  -2 -13  -6   31.24    0.91
  -2  13  -6   31.47    0.97
   2  13   6   30.74    0.87
  -3 -13  -6    5.11    0.30
   3 -13   6    5.05    0.27
   3 -13   6    5.01    0.29
  -3  13  -6    4.94    0.32
   3  13   6    5.23    0.30
   4 -13   6    1.38    0.18
  -4 -13  -6    1.46    0.19
   4 -13   6    1.29    0.15
  -4  13  -6    0.98    0.19
   4  13   6    1.26    0.18
   5 -13   6    8.21    0.39
  -5 -13  -6    7.65    0.37
   5  13   6    8.38    0.40
  -5  13  -6    7.62    0.43
   6 -13   6    6.39    0.36
  -6 -13  -6    5.89    0.35
  -6  13  -6    5.81    0.37
   6  13   6    6.41    0.37
  -7 -13  -6    7.64    0.40
   7 -13   6    7.68    0.41
  -7  13  -6    8.38    0.45
   7  13   6    7.57    0.43
   8 -13   6    6.35    0.37
  -8 -13  -6    6.36    0.38
  -8  13  -6    6.44    0.41
   8  13   6    6.31    0.41
  -9 -13  -6    1.13    0.21
   9 -13   6    1.60    0.24
   9  13   6    1.70    0.26
  -9  13  -6    1.49    0.24
  10 -13   6    0.37    0.18
 -10 -13  -6    0.77    0.20
  10  13   6    0.83    0.22
 -10  13  -6    0.85    0.22
  11 -13   6    3.67    0.38
 -11 -13  -6    4.27    0.36
  11  13   6    4.28    0.40
 -11  13  -6    3.96    0.38
  12 -14  -6    9.43    0.58
 -12 -14   6    8.36    0.47
  11 -14  -6    5.31    0.39
 -11 -14   6    5.14    0.37
  11 -14  -6    5.90    0.44
  11  14  -6    5.88    0.43
 -10 -14   6    7.86    0.42
  10 -14  -6    7.00    0.46
  10 -14  -6    6.64    0.41
  10  14  -6    7.17    0.45
   9 -14  -6    0.55    0.19
  -9 -14   6    0.86    0.19
   9 -14  -6    0.76    0.19
   9  14  -6    0.87    0.20
  -8 -14   6    7.94    0.42
   8 -14  -6    8.20    0.47
   8 -14  -6    7.88    0.41
   8  14  -6    7.61    0.43
  -7 -14   6    0.72    0.17
   7 -14  -6    0.48    0.19
   7 -14  -6    0.31    0.14
   7  14  -6    0.37    0.19
   7  14  -6    0.69    0.17
  -6 -14   6    4.87    0.32
   6 -14  -6    4.73    0.35
   6 -14  -6    4.60    0.30
   6  14  -6    4.52    0.32
   6  14  -6    4.67    0.33
   5 -14  -6    2.86    0.23
  -5 -14   6    3.42    0.28
   5 -14  -6    3.52    0.31
   5  14  -6    3.64    0.28
   5  14  -6    4.02    0.31
   4 -14  -6   11.96    0.51
   4 -14  -6   11.61    0.46
  -4 -14   6   12.74    0.49
  -4 -14   6   11.96    0.48
   4  14  -6   11.84    0.50
  -3 -14   6   33.91    0.99
  -3 -14   6   34.34    1.01
   3 -14  -6   33.50    0.98
   3 -14  -6   33.37    1.02
   3  14  -6   34.31    1.03
   2 -14  -6    5.58    0.27
  -2 -14   6    5.35    0.31
   2 -14  -6    5.84    0.30
   2 -14  -6    5.84    0.33
  -2 -14   6    5.71    0.30
   2  14  -6    5.25    0.34
   1 -14  -6   35.21    0.99
   1 -14  -6   33.77    0.96
  -1 -14   6   34.70    1.00
   1 -14  -6   34.86    1.02
  -1 -14   6   33.95    0.99
   1  14  -6   33.33    1.03
   0 -14   6   21.50    0.68
   0 -14   6   21.03    0.68
   0 -14  -6   21.49    0.68
   0 -14  -6   20.88    0.66
   0 -14  -6   20.98    0.68
   0  14  -6   21.53    0.74
  -1 -14  -6    4.74    0.28
  -1 -14  -6    4.48    0.27
   1 -14   6    4.41    0.27
   1 -14   6    5.20    0.29
  -1  14  -6    4.50    0.31
  -2 -14  -6   28.93    0.87
  -2 -14  -6   29.31    0.88
   2 -14   6   28.66    0.85
   2 -14   6   28.71    0.88
  -2  14  -6   29.50    0.94
   3 -14   6    5.25    0.31
   3 -14   6    5.33    0.28
  -3 -14  -6    5.20    0.29
   3  14   6    5.07    0.31
  -3  14  -6    5.35    0.34
   4 -14   6   26.23    0.83
  -4 -14  -6   26.65    0.84
   4 -14   6   25.78    0.79
   4  14   6   27.06    0.86
  -4  14  -6   28.22    0.91
  -5 -14  -6   10.37    0.45
   5 -14   6    9.79    0.45
  -5  14  -6    9.24    0.48
   5  14   6    9.79    0.46
   6 -14   6    3.08    0.29
  -6 -14  -6    2.70    0.26
  -6  14  -6    2.94    0.30
   6  14   6    3.00    0.27
  -7 -14  -6    8.86    0.43
   7 -14   6    8.67    0.45
   7  14   6    8.90    0.47
  -7  14  -6    8.85    0.47
  -8 -14  -6    0.43    0.15
   8 -14   6    0.50    0.16
  -8  14  -6    0.51    0.20
   8  14   6    0.68    0.20
   9 -14   6    0.76    0.21
  -9 -14  -6    0.85    0.20
   9  14   6    0.93    0.22
  -9  14  -6    0.86    0.23
 -10 -14  -6    2.71    0.29
  10 -14   6    2.50    0.29
 -10  14  -6    2.35    0.30
  10  14   6    2.66    0.32
 -11  14  -6    4.92    0.42
 -11 -15   6    3.74    0.35
  11 -15  -6    3.84    0.35
  11  15  -6    4.33    0.41
 -10 -15   6    9.46    0.48
  10 -15  -6    9.86    0.50
  10 -15  -6    9.59    0.55
  10  15  -6   10.15    0.53
   9 -15  -6    2.26    0.26
   9 -15  -6    1.97    0.29
  -9 -15   6    1.72    0.24
   9  15  -6    1.94    0.27
   8 -15  -6   15.01    0.59
  -8 -15   6   14.38    0.59
   8 -15  -6   14.87    0.65
   8  15  -6   14.14    0.61
   7 -15  -6    5.22    0.34
   7 -15  -6    4.97    0.39
  -7 -15   6    5.08    0.35
   7  15  -6    4.75    0.36
   6 -15  -6    2.19    0.23
   6 -15  -6    3.36    0.31
  -6 -15   6    3.05    0.28
   6  15  -6    2.75    0.25
   6  15  -6    2.37    0.24
   5 -15  -6   20.35    0.69
   5 -15  -6   20.08    0.74
  -5 -15   6   20.23    0.69
   5  15  -6   19.89    0.70
   5  15  -6   20.53    0.71
  -4 -15   6    2.56    0.24
   4 -15  -6    2.63    0.24
  -4 -15   6    2.74    0.26
   4 -15  -6    2.77    0.27
   4  15  -6    3.02    0.28
   3 -15  -6   25.28    0.79
  -3 -15   6   25.52    0.80
   3 -15  -6   25.54    0.84
  -3 -15   6   24.36    0.79
   3  15  -6   24.72    0.83
  -2 -15   6   10.56    0.44
   2 -15  -6   10.40    0.46
  -2 -15   6   10.26    0.43
   2 -15  -6   10.21    0.41
   2 -15  -6    9.88    0.38
   2  15  -6    9.96    0.47
   1 -15  -6   12.04    0.44
   1 -15  -6   12.89    0.48
  -1 -15   6   11.75    0.47
   1 -15  -6   12.06    0.49
  -1 -15   6   12.52    0.48
   1  15  -6   12.36    0.53
   0 -15  -6    9.36    0.41
   0 -15  -6    9.51    0.38
   0 -15   6    8.71    0.40
   0 -15   6    9.28    0.40
   0 -15  -6    9.38    0.40
   0  15  -6    9.38    0.44
  -1 -15  -6    3.09    0.25
  -1 -15  -6    3.58    0.25
   1 -15   6    3.04    0.25
   1 -15   6    2.92    0.24
   1  15   6    3.39    0.25
  -1  15  -6    3.76    0.32
   2 -15   6    1.92    0.19
   2 -15   6    2.23    0.21
  -2 -15  -6    2.26    0.21
  -2 -15  -6    2.18    0.21
  -2  15  -6    2.28    0.26
   3 -15   6   14.94    0.51
  -3 -15  -6   13.87    0.53
   3 -15   6   14.39    0.54
  -3  15  -6   13.05    0.57
   3  15   6   13.89    0.55
  -4 -15  -6   16.79    0.61
   4 -15   6   17.53    0.69
   4 -15   6   16.05    0.61
   4  15   6   16.60    0.63
  -4  15  -6   17.44    0.68
   5 -15   6   31.71    0.99
  -5 -15  -6   32.00    0.98
   5  15   6   31.51    1.00
  -5  15  -6   32.66    1.06
   6 -15   6    9.51    0.46
  -6 -15  -6    9.69    0.44
   6  15   6    9.67    0.47
  -6  15  -6    8.94    0.50
  -7 -15  -6    7.95    0.43
   7 -15   6    8.26    0.44
  -7  15  -6    7.91    0.48
   7  15   6    7.44    0.44
   8 -15   6    5.22    0.39
  -8 -15  -6    5.50    0.38
   8  15   6    6.27    0.42
  -8  15  -6    4.95    0.41
  -9 -15  -6    1.93    0.26
   9 -15   6    1.43    0.25
   9  15   6    1.64    0.25
  -9  15  -6    1.76    0.27
 -10 -15  -6    0.92    0.33
  10 -15   6    0.81    0.37
 -10  15  -6    1.00    0.26
  10  15   6    0.98    0.28
  10 -16  -6    2.63    0.34
 -10 -16   6    2.40    0.27
  10 -16  -6    2.63    0.29
  10  16  -6    2.88    0.31
  -9 -16   6    6.72    0.41
   9 -16  -6    5.78    0.39
   9 -16  -6    6.23    0.46
   9  16  -6    5.89    0.42
  -8 -16   6    0.04    0.15
   8 -16  -6    0.29    0.16
   8 -16  -6    0.37    0.20
   8  16  -6    0.14    0.17
   7 -16  -6    9.76    0.46
   7 -16  -6    9.89    0.53
  -7 -16   6    8.94    0.46
   7  16  -6    9.89    0.49
   6 -16  -6    1.06    0.18
   6 -16  -6    1.14    0.22
  -6 -16   6    0.85    0.19
   6  16  -6    0.76    0.17
   6  16  -6    0.97    0.19
   5 -16  -6   14.72    0.63
  -5 -16   6   14.87    0.58
   5 -16  -6   14.86    0.57
   5  16  -6   15.52    0.59
   5  16  -6   14.56    0.59
   4 -16  -6   27.62    0.89
  -4 -16   6   29.90    0.93
   4 -16  -6   30.32    0.98
  -4 -16   6   29.71    0.92
   4  16  -6   29.00    0.94
  -3 -16   6    5.62    0.33
  -3 -16   6    4.97    0.33
   3 -16  -6    5.12    0.32
   3 -16  -6    5.43    0.36
   3  16  -6    5.62    0.38
  -2 -16   6    6.51    0.36
   2 -16  -6    7.13    0.35
  -2 -16   6    7.06    0.37
   2 -16  -6    7.52    0.40
   2 -16  -6    7.41    0.34
   2  16  -6    7.26    0.41
   1 -16  -6    1.80    0.21
   1 -16  -6    2.61    0.23
   1 -16  -6    2.33    0.23
  -1 -16   6    2.11    0.22
  -1 -16   6    2.30    0.22
   1  16  -6    1.91    0.25
   0 -16  -6   23.43    0.76
   0 -16   6   23.35    0.75
   0 -16  -6   22.78    0.73
   0 -16   6   22.44    0.75
   0  16  -6   23.75    0.82
   0  16   6   23.87    0.77
  -1 -16  -6    2.34    0.22
  -1 -16  -6    1.91    0.20
   1 -16   6    2.39    0.22
   1 -16   6    2.09    0.22
  -1  16  -6    2.61    0.27
   1  16   6    2.22    0.22
   2 -16   6   28.74    0.86
  -2 -16  -6   28.33    0.89
  -2 -16  -6   27.78    0.87
   2 -16   6   27.22    0.88
  -2  16  -6   29.15    0.96
   3 -16   6    2.69    0.25
  -3 -16  -6    2.85    0.27
   3 -16   6    2.91    0.24
   3  16   6    3.13    0.28
  -3  16  -6    3.01    0.30
   4 -16   6    2.24    0.24
  -4 -16  -6    2.75    0.26
  -4  16  -6    2.83    0.30
   4  16   6    2.37    0.25
  -5 -16  -6    0.38    0.15
   5 -16   6    0.48    0.16
   5  16   6    0.99    0.19
  -5  16  -6    0.45    0.19
  -6 -16  -6   11.80    0.51
   6 -16   6   11.45    0.51
   6  16   6   11.22    0.53
  -6  16  -6   11.17    0.57
  -7 -16  -6    4.52    0.36
   7 -16   6    4.50    0.37
   7  16   6    4.93    0.38
  -7  16  -6    4.79    0.38
  -8 -16  -6    5.53    0.40
   8 -16   6    5.87    0.42
   8  16   6    6.38    0.44
  -8  16  -6    6.88    0.47
   9 -16   6    0.54    0.21
  -9 -16  -6    1.05    0.24
  -9  16  -6    0.29    0.23
   9  16   6    0.64    0.22
  10 -17  -6    3.70    0.38
  -9 -17   6    1.16    0.22
   9 -17  -6    1.45    0.27
   9 -17  -6    1.69    0.25
   9  17  -6    1.64    0.26
   8 -17  -6   10.97    0.51
  -8 -17   6    9.95    0.51
   8 -17  -6   10.39    0.57
   8  17  -6   10.49    0.53
   7 -17  -6    8.18    0.50
   7 -17  -6    8.97    0.45
  -7 -17   6    7.88    0.44
   7  17  -6    8.80    0.48
   6 -17  -6   18.90    0.68
   6 -17  -6   18.56    0.75
  -6 -17   6   18.20    0.69
   6  17  -6   18.56    0.71
   5 -17  -6   23.62    0.81
  -5 -17   6   25.17    0.83
   5 -17  -6   24.73    0.88
   5  17  -6   24.07    0.83
   5  17  -6   24.42    0.84
   4 -17  -6    3.44    0.28
   4 -17  -6    3.26    0.31
  -4 -17   6    2.88    0.27
  -4 -17   6    3.17    0.29
   4  17  -6    3.15    0.31
  -3 -17   6   12.74    0.53
  -3 -17   6   12.73    0.53
   3 -17  -6   12.49    0.56
   3 -17  -6   12.61    0.52
   3  17  -6   13.65    0.58
  -2 -17   6    7.07    0.38
   2 -17  -6    7.10    0.40
  -2 -17   6    6.71    0.37
   2 -17  -6    6.60    0.35
   2  17  -6    7.07    0.42
  -1 -17   6    1.16    0.18
  -1 -17   6    1.31    0.20
   1 -17  -6    1.73    0.21
   1 -17  -6    1.53    0.18
   1  17  -6    1.10    0.21
   0 -17   6    7.92    0.39
   0 -17  -6    8.06    0.38
   0 -17   6    8.61    0.41
   0 -17  -6    8.60    0.41
   0  17  -6    8.12    0.46
   0  17   6    8.54    0.41
  -1 -17  -6    8.60    0.40
   1 -17   6    9.35    0.41
   1 -17   6    8.39    0.42
  -1 -17  -6    8.68    0.42
  -1  17  -6    8.46    0.47
  -2 -17  -6   11.46    0.50
  -2 -17  -6   11.82    0.48
   2 -17   6   12.09    0.49
   2 -17   6   11.64    0.47
  -2  17  -6   10.70    0.54
   3 -17   6   11.94    0.48
  -3 -17  -6   10.70    0.47
   3 -17   6   11.09    0.50
  -3  17  -6   11.69    0.56
   3  17   6   11.21    0.50
   4 -17   6    3.22    0.28
  -4 -17  -6    2.76    0.26
   4  17   6    3.02    0.29
  -4  17  -6    3.45    0.34
  -5 -17  -6    0.76    0.19
   5 -17   6    0.74    0.18
  -5  17  -6    0.72    0.22
   5  17   6    0.66    0.18
  -6 -17  -6    6.70    0.41
   6 -17   6    6.68    0.42
   6  17   6    7.13    0.44
  -6  17  -6    6.88    0.45
  -7 -17  -6    2.57    0.29
   7 -17   6    2.33    0.28
  -7  17  -6    2.60    0.32
   7  17   6    2.60    0.30
   8 -17   6    2.34    0.29
  -8 -17  -6    1.77    0.26
   8  17   6    2.51    0.31
  -8  17  -6    2.10    0.31
   9 -18  -6    5.72    0.41
   9  18  -6    5.71    0.50
   8 -18  -6    7.02    0.48
  -8 -18   6    5.84    0.41
   8 -18  -6    6.12    0.41
   8  18  -6    6.36    0.44
   7 -18  -6    9.56    0.48
  -7 -18   6    9.37    0.48
   7 -18  -6    8.73    0.53
   7  18  -6    9.01    0.50
   6 -18  -6    0.01    0.17
   6 -18  -6    0.26    0.16
  -6 -18   6    0.09    0.16
   6  18  -6    0.08    0.18
  -5 -18   6   11.86    0.55
   5 -18  -6   11.92    0.53
   5 -18  -6   12.38    0.59
   5  18  -6   12.56    0.55
   5  18  -6   12.35    0.56
  -4 -18   6    2.53    0.27
   4 -18  -6    2.32    0.24
   4 -18  -6    2.56    0.28
  -4 -18   6    2.68    0.27
   4  18  -6    3.30    0.33
  -3 -18   6    2.80    0.27
  -3 -18   6    3.07    0.28
   3 -18  -6    3.89    0.30
   3  18  -6    2.77    0.30
   2 -18  -6    1.29    0.18
  -2 -18   6    1.55    0.21
  -2 -18   6    1.71    0.21
   2  18  -6    1.59    0.24
  -2  18   6    2.05    0.25
   1 -18  -6    3.11    0.28
   1 -18  -6    2.94    0.26
  -1 -18   6    3.48    0.30
  -1 -18   6    3.26    0.29
   1  18  -6    2.87    0.29
  -1  18   6    3.15    0.30
   0 -18  -6    0.00    0.12
   0 -18   6   -0.23    0.12
   0 -18   6    0.05    0.13
   0 -18  -6    0.18    0.14
   0  18  -6   -0.02    0.17
   0  18   6   -0.12    0.13
  -1 -18  -6    7.86    0.40
  -1 -18  -6    8.03    0.42
   1 -18   6    8.41    0.42
   1 -18   6    7.79    0.39
  -1  18  -6    7.80    0.46
  -2 -18  -6    3.93    0.30
  -2 -18  -6    3.42    0.30
   2 -18   6    3.37    0.28
   2 -18   6    3.91    0.31
  -2  18  -6    3.84    0.37
  -3 -18  -6    5.62    0.36
   3 -18   6    5.44    0.36
  -3  18  -6    5.58    0.43
   3  18   6    5.48    0.37
   4 -18   6    2.00    0.25
  -4 -18  -6    1.81    0.24
  -4  18  -6    1.61    0.27
   4  18   6    1.82    0.25
  -5 -18  -6    1.73    0.24
   5 -18   6    1.49    0.23
  -5  18  -6    1.80    0.29
   5  18   6    1.85    0.26
  -6 -18  -6    2.61    0.29
   6 -18   6    2.48    0.28
   6  18   6    2.38    0.28
  -6  18  -6    2.46    0.32
   7 -18   6   23.26    0.86
  -7 -18  -6   23.64    0.85
   7  18   6   24.05    0.89
  -7  18  -6   23.31    0.92
   8 -19  -6    8.15    0.48
   8  19  -6    8.29    0.59
  -7 -19   6    6.28    0.43
   7 -19  -6    6.02    0.41
   7 -19  -6    6.49    0.47
   7  19  -6    6.66    0.45
   6 -19  -6    2.68    0.32
  -6 -19   6    2.84    0.30
   6 -19  -6    2.89    0.28
   6  19  -6    3.97    0.37
  -5 -19   6    4.89    0.38
   5 -19  -6    4.65    0.36
   5  19  -6    5.05    0.38
  -4 -19   6   15.28    0.62
  -4 -19   6   14.36    0.61
   4 -19  -6   14.30    0.59
   4  19  -6   13.79    0.63
  -3 -19   6    4.62    0.35
  -3 -19   6    4.74    0.35
   3 -19  -6    4.47    0.34
  -3  19   6    4.47    0.39
   3  19  -6    4.45    0.39
   2 -19  -6    7.21    0.40
  -2 -19   6    6.88    0.40
  -2 -19   6    7.09    0.41
  -2  19   6    6.82    0.42
   2  19  -6    6.75    0.44
   1 -19  -6    7.78    0.42
  -1 -19   6    7.36    0.40
  -1 -19   6    7.61    0.42
  -1  19   6    7.41    0.44
   1  19  -6    8.07    0.47
   0 -19  -6    1.47    0.22
   0 -19   6    1.48    0.21
   0 -19   6    1.52    0.23
   0 -19  -6    1.69    0.21
   0  19  -6    1.58    0.24
   1 -19   6    1.60    0.22
   1 -19   6    2.11    0.23
  -1 -19  -6    2.02    0.23
  -1 -19  -6    1.86    0.23
  -1  19  -6    2.07    0.29
   2 -19   6   11.84    0.53
   2 -19   6   11.38    0.50
  -2 -19  -6   11.78    0.53
  -2 -19  -6   11.72    0.51
  -2  19  -6   12.18    0.58
   3 -19   6    4.25    0.33
  -3 -19  -6    4.16    0.33
  -3  19  -6    4.26    0.40
   3  19   6    4.73    0.36
   4 -19   6    2.19    0.26
  -4 -19  -6    2.14    0.25
  -4  19  -6    2.14    0.29
   4  19   6    2.56    0.29
   5 -19   6    6.50    0.43
  -5 -19  -6    6.43    0.41
   5  19   6    5.89    0.43
  -5  19  -6    6.00    0.48
  -6 -19  -6    9.57    0.50
   6 -19   6    9.45    0.52
   6  19   6    9.43    0.53
  -6  19  -6    8.45    0.56
   7 -20  -6    0.92    0.27
   6 -20  -6   11.69    0.55
  -6 -20   6   11.25    0.79
  -6  20   6   11.65    0.62
   6  20  -6   10.82    0.57
  -5 -20   6   -0.17    0.15
   5 -20  -6   -0.22    0.14
  -5  20   6   -0.10    0.18
   5  20  -6    0.11    0.17
  -4 -20   6    3.42    0.32
   4 -20  -6    3.53    0.33
  -4 -20   6    3.70    0.33
  -4  20   6    3.46    0.35
   4  20  -6    3.54    0.34
   3 -20  -6    0.17    0.16
  -3 -20   6    0.40    0.18
  -3 -20   6    0.27    0.18
  -3  20   6    0.09    0.19
   3  20  -6   -0.12    0.18
  -2 -20   6    5.71    0.40
  -2 -20   6    5.69    0.38
   2 -20  -6    5.06    0.37
   2  20  -6    5.77    0.43
  -2  20   6    5.80    0.42
   1 -20  -6   13.63    0.58
  -1 -20   6   13.69    0.57
  -1 -20   6   12.98    0.58
   1  20  -6   13.36    0.63
  -1  20   6   14.28    0.63
   0 -20  -6    0.04    0.15
   0 -20   6    0.11    0.17
   0 -20   6    0.27    0.16
   0 -20  -6    0.17    0.14
   0  20  -6    0.01    0.19
   1 -20   6    1.37    0.21
  -1 -20  -6    1.27    0.22
  -1 -20  -6    0.95    0.19
   1 -20   6    0.84    0.20
  -1  20  -6    0.96    0.25
   2 -20   6   12.36    0.56
  -2 -20  -6   12.07    0.53
  -2 -20  -6   12.50    0.56
  -2  20  -6   11.13    0.61
  -3 -20  -6    2.44    0.27
   3 -20   6    1.78    0.25
  -3  20  -6    2.18    0.30
   3  20   6    1.70    0.25
  -4 -20  -6    2.97    0.29
   4 -20   6    2.89    0.31
   4  20   6    2.48    0.29
  -4  20  -6    3.06    0.34
   5 -20   6    1.11    0.24
  -5 -20  -6    0.67    0.22
   5  20   6    0.99    0.24
   5 -21  -6    2.00    0.26
   5  21  -6    1.92    0.43
  -5  21   6    1.99    0.32
   4 -21  -6    3.80    0.34
  -4 -21   6    3.27    0.33
  -4  21   6    2.85    0.34
  -3 -21   6    2.24    0.28
   3 -21  -6    3.56    0.33
  -3 -21   6    2.60    0.29
  -3  21   6    2.82    0.33
   3  21  -6    2.96    0.33
  -2 -21   6    7.95    0.46
   2 -21  -6    8.46    0.47
  -2 -21   6    8.65    0.47
  -2  21   6    7.95    0.50
   2  21  -6    7.57    0.50
   1 -21  -6    0.75    0.20
  -1 -21   6    0.80    0.21
  -1 -21   6    0.67    0.20
   1  21  -6    0.69    0.23
   0 -21  -6   13.15    0.59
   0 -21   6   13.00    0.60
   0 -21   6   13.67    0.57
   0  21  -6   13.20    0.65
   1 -21   6    1.27    0.23
   1 -21   6    1.01    0.22
  -1 -21  -6    1.35    0.22
  -1 -21  -6    0.99    0.22
  -1  21  -6    1.08    0.26
  -2 -21  -6    0.22    0.16
   2 -21   6    0.23    0.17
  -2 -21  -6    0.36    0.19
  -2  21  -6    0.38    0.22
   3 -21   6    4.25    0.38
  -3 -21  -6    5.01    0.37
  -3  21  -6    3.92    0.47
   3  21   6    5.06    0.41
  -4 -21  -6   15.62    0.89
   4  21   6   14.59    0.78
  -3  22   6    2.20    0.30
   3  22  -6    2.46    0.34
   2 -22  -6    5.01    0.48
  -2 -22   6    5.21    0.41
   2  22  -6    4.88    0.43
  -1 -22   6    7.20    0.46
   1 -22  -6    6.78    0.45
  -1 -22   6    7.34    0.53
   1  22  -6    6.61    0.49
   0 -22   6    2.84    0.44
   0 -22   6    3.95    0.35
   0 -22  -6    3.39    0.33
   0  22  -6    2.99    0.35
  -1 -22  -6    3.11    0.45
  -1 -22  -6    2.71    0.36
  -2 -22  -6   16.85    0.67
  15   0  -7    0.22    0.23
  14   0  -7   13.52    0.61
  13   0  -7    1.91    0.26
  12   0  -7    1.81    0.22
  12   0  -7    1.29    0.21
  11   0  -7    0.64    0.15
  11   0  -7    0.67    0.17
  10   0  -7    9.56    0.42
  10   0  -7    9.73    0.42
   9   0  -7   17.83    0.60
   9   0  -7   17.27    0.58
  -8   0   7   91.77    2.25
   8   0  -7   90.72    2.34
   8   0  -7   90.79    2.31
   7   0  -7   30.94    0.89
  -7   0   7   30.20    0.80
   7   0  -7   30.72    0.85
   6   0  -7    4.26    0.23
   6   0  -7    4.19    0.21
  -6   0   7    4.30    0.18
  -5   0   7    8.43    0.28
   5   0  -7    9.12    0.34
   4   0  -7   98.87    2.45
  -4   0   7   95.53    2.39
   4   0  -7   98.11    2.38
  -3   0   7  962.39   23.73
   3   0  -7 1000.00   23.57
  -2   0   7   28.35    0.76
   2   0  -7   28.94    0.79
   1   0  -7   34.16    0.93
  -1   0   7   35.35    0.91
   0   0   7    0.18    0.07
   0   0  -7    0.09    0.06
   0   0   7    0.19    0.02
   1   0   7   51.07    1.25
   2   0   7   40.72    1.07
   2   0   7   40.72    1.03
   3   0   7   11.19    0.38
   3   0   7   11.78    0.36
   4   0   7   64.76    1.62
   4   0   7   63.11    1.63
   5   0   7    0.33    0.10
   5   0   7    0.28    0.09
  -5   0  -7    0.16    0.05
   6   0   7   22.06    0.66
   6   0   7   21.30    0.64
   7   0   7   36.97    1.03
   7   0   7   37.83    1.06
   8   0   7    0.52    0.15
   8   0   7    0.68    0.13
   9   0   7   11.54    0.49
   9   0   7   11.70    0.43
  10   0   7   13.57    0.57
  10   0   7   14.63    0.56
  11   0   7    4.76    0.37
  12   0   7    0.46    0.22
  13   0   7    4.29    0.41
  15  -1  -7    1.86    0.29
  15   1  -7    1.91    0.29
  14  -1  -7    4.15    0.39
  14   1  -7    3.91    0.36
  13  -1  -7    0.40    0.25
  13  -1  -7    0.36    0.18
  13   1  -7   -0.02    0.18
  12  -1  -7    1.70    0.23
  12  -1  -7    1.77    0.22
  12   1  -7    1.50    0.22
  12   1  -7    2.15    0.23
  11  -1  -7   19.17    0.68
  11  -1  -7   19.60    0.67
  11   1  -7   19.15    0.67
  11   1  -7   18.77    0.66
  10  -1  -7   -0.05    0.13
  10  -1  -7   -0.09    0.11
  10   1  -7    0.00    0.13
  10   1  -7    0.06    0.11
   9  -1  -7   55.50    1.46
   9  -1  -7   54.93    1.50
   9   1  -7   53.62    1.48
   9   1  -7   54.12    1.47
   8  -1  -7   86.93    2.22
  -8  -1   7   86.88    2.17
   8  -1  -7   85.27    2.25
   8   1  -7   85.45    2.22
   8   1  -7   87.04    2.25
  -8   1   7   91.30    2.16
   7  -1  -7   15.46    0.49
  -7  -1   7   14.95    0.44
   7  -1  -7   15.68    0.52
  -7   1   7   15.16    0.43
   7   1  -7   14.42    0.51
   7   1  -7   15.05    0.48
   6  -1  -7   18.33    0.57
  -6  -1   7   17.28    0.50
   6  -1  -7   17.26    0.51
   6   1  -7   17.37    0.56
   6   1  -7   17.31    0.52
  -6   1   7   17.30    0.48
   5  -1  -7   40.95    1.08
  -5  -1   7   38.37    1.02
  -5   1   7   38.95    1.01
   5   1  -7   40.27    1.08
  -4  -1   7   71.41    1.75
   4  -1  -7   70.25    1.72
   4  -1  -7   70.55    1.80
  -4   1   7   68.63    1.74
   4   1  -7   69.83    1.73
   4   1  -7   70.28    1.80
   3  -1  -7   50.70    1.23
  -3  -1   7   50.59    1.28
  -3   1   7   50.62    1.27
   3   1  -7   50.27    1.24
   3   1  -7   49.36    1.31
  -2  -1   7   15.86    0.46
   2  -1  -7   15.72    0.39
   2  -1  -7   15.70    0.48
   2   1  -7   16.47    0.40
  -2   1   7   16.15    0.46
  -1  -1   7   25.86    0.67
   1  -1  -7   23.97    0.67
   1   1  -7   23.08    0.67
  -1   1   7   24.07    0.66
   0  -1   7  289.36    6.88
   0  -1   7  285.67    6.90
   0   1   7  301.02    6.88
   0   1   7  290.90    6.90
   0   1  -7  265.11    6.91
   1  -1   7   30.15    0.90
   1  -1   7   39.30    0.87
   1   1   7   38.65    0.87
  -1   1  -7   31.43    0.91
   1   1   7   33.14    0.91
  -2  -1  -7    4.63    0.19
   2  -1   7    4.94    0.21
   2  -1   7    5.18    0.18
   2   1   7    4.64    0.21
   2   1   7    4.86    0.18
   3  -1   7   66.52    1.69
  -3  -1  -7   68.66    1.66
   3  -1   7   66.82    1.67
   3   1   7   65.63    1.69
   3   1   7   66.24    1.67
   4  -1   7   30.06    0.81
  -4  -1  -7   31.02    0.78
   4  -1   7   29.41    0.82
   4   1   7   30.14    0.81
   4   1   7   28.74    0.82
   5  -1   7   28.48    0.78
  -5  -1  -7   29.34    0.73
   5  -1   7   28.82    0.78
   5   1   7   26.66    0.77
   5   1   7   28.62    0.78
  -5   1  -7   23.70    0.74
   6  -1   7    1.57    0.16
   6  -1   7    1.44    0.15
   6   1   7    1.57    0.15
   6   1   7    1.92    0.17
  -6   1  -7    1.71    0.13
   7  -1   7   43.87    1.17
   7  -1   7   43.17    1.19
   7   1   7   43.04    1.20
   7   1   7   42.51    1.17
   8  -1   7   54.87    1.45
   8  -1   7   55.54    1.50
   8   1   7   55.26    1.50
   8   1   7   53.47    1.45
   9  -1   7    8.20    0.35
   9  -1   7    8.01    0.41
   9   1   7    7.48    0.34
   9   1   7    8.19    0.41
  10  -1   7   15.42    0.60
  10   1   7   15.02    0.53
  10   1   7   14.81    0.58
  11  -1   7    2.07    0.27
  11   1   7    1.89    0.25
  12  -1   7    5.58    0.42
  12   1   7    5.95    0.43
  13  -1   7    6.95    0.48
  13   1   7    6.87    0.49
  15  -2  -7    0.83    0.25
  15   2  -7    0.75    0.26
  14  -2  -7    5.15    0.41
  14   2  -7    5.05    0.41
  13  -2  -7    1.11    0.20
  13  -2  -7    0.93    0.22
  13   2  -7    0.78    0.21
  12  -2  -7    0.21    0.17
  12  -2  -7    0.50    0.16
  12   2  -7    0.60    0.21
  12   2  -7    0.31    0.18
  11  -2  -7   20.14    0.70
  11  -2  -7   20.62    0.71
  11   2  -7   20.40    0.71
  11   2  -7   20.78    0.70
  10  -2  -7   39.86    1.16
  10  -2  -7   39.16    1.13
  10   2  -7   39.58    1.14
  10   2  -7   39.88    1.14
   9  -2  -7   21.82    0.72
   9  -2  -7   21.61    0.69
  -9  -2   7   21.84    0.62
   9   2  -7   21.59    0.69
   9   2  -7   22.16    0.70
   8  -2  -7    2.13    0.20
  -8  -2   7    2.21    0.16
   8  -2  -7    2.04    0.18
   8   2  -7    1.70    0.18
   8   2  -7    1.37    0.17
  -7  -2   7   33.79    0.88
   7  -2  -7   34.03    0.96
   7  -2  -7   32.96    0.90
   7   2  -7   32.77    0.94
  -7   2   7   31.91    0.84
   7   2  -7   32.83    0.91
   6  -2  -7   25.40    0.70
  -6  -2   7   24.39    0.69
   6  -2  -7   25.40    0.75
  -6   2   7   24.65    0.66
   6   2  -7   25.78    0.75
   6   2  -7   25.82    0.71
   5  -2  -7   22.43    0.66
  -5  -2   7   20.98    0.60
   5   2  -7   21.90    0.65
  -5   2   7   21.28    0.58
  -4  -2   7    3.90    0.18
   4  -2  -7    4.37    0.16
   4  -2  -7    3.46    0.19
   4   2  -7    4.45    0.22
   4   2  -7    4.28    0.17
  -4   2   7    4.46    0.18
  -3  -2   7   11.32    0.36
   3  -2  -7   10.58    0.37
   3  -2  -7   11.27    0.30
   3   2  -7   11.17    0.31
   3   2  -7   11.43    0.39
  -3   2   7   10.99    0.34
   2  -2  -7  101.79    2.60
  -2  -2   7  104.94    2.58
   2  -2  -7  104.92    2.52
  -2   2   7  103.79    2.57
   2   2  -7  108.22    2.52
  -1  -2   7  123.09    2.95
   1  -2  -7  117.87    2.95
  -1  -2   7  121.92    2.88
   1   2  -7  115.50    2.96
  -1   2   7  121.36    2.94
   0  -2   7    0.73    0.05
   0   2   7    0.75    0.05
   0   2   7    0.75    0.09
   0   2  -7    0.67    0.09
   1  -2   7   82.01    2.01
   1  -2   7   84.40    2.07
  -1   2  -7   81.78    2.07
   1   2   7   82.62    2.01
   1   2   7   82.99    2.06
  -2  -2  -7   18.39    0.50
   2  -2   7   18.20    0.49
   2  -2   7   17.93    0.53
  -2   2  -7   17.77    0.52
   2   2   7   17.27    0.49
  -3  -2  -7   60.86    1.47
  -3  -2  -7   59.30    1.51
   3  -2   7   57.44    1.51
   3  -2   7   58.42    1.49
   3   2   7   58.83    1.49
  -3   2  -7   59.85    1.51
  -4  -2  -7   43.39    1.07
   4  -2   7   42.01    1.11
   4  -2   7   41.45    1.12
  -4  -2  -7   43.24    1.13
   4   2   7   42.11    1.11
  -4   2  -7   42.67    1.12
  -5  -2  -7    2.34    0.18
  -5  -2  -7    2.47    0.11
   5  -2   7    2.08    0.18
   5  -2   7    2.54    0.20
   5   2   7    2.48    0.19
  -5   2  -7    2.39    0.16
   6  -2   7    4.21    0.23
   6  -2   7    4.16    0.25
  -6  -2  -7    4.26    0.23
   6   2   7    3.98    0.25
  -6   2  -7    3.79    0.20
  -7  -2  -7   72.80    1.88
   7  -2   7   74.08    1.91
   7  -2   7   73.89    1.87
  -7   2  -7   73.21    1.85
   7   2   7   70.18    1.90
  -8  -2  -7  102.72    2.62
   8  -2   7  101.74    2.66
   8  -2   7  106.72    2.62
   8   2   7  104.10    2.67
   9  -2   7   34.50    0.96
   9  -2   7   33.78    1.02
   9   2   7   34.18    1.03
  10  -2   7   17.73    0.66
  10   2   7   18.20    0.68
  11  -2   7    1.44    0.23
  11   2   7    2.25    0.27
  12  -2   7    5.92    0.43
  12   2   7    6.61    0.44
  13  -2   7   12.92    0.62
  13   2   7   12.66    0.63
  15  -3  -7    5.75    0.44
  15   3  -7    4.86    0.45
  14  -3  -7    0.54    0.22
  14   3  -7    0.77    0.24
  13  -3  -7    1.23    0.22
  13  -3  -7    1.25    0.22
  13   3  -7    1.35    0.24
  12  -3  -7    2.05    0.24
  12  -3  -7    2.09    0.25
  12   3  -7    2.09    0.25
  11  -3  -7    6.05    0.36
  11  -3  -7    6.16    0.36
  11   3  -7    5.62    0.36
  11   3  -7    6.07    0.33
  10  -3  -7   12.48    0.51
  10  -3  -7   12.69    0.49
  10   3  -7   12.45    0.48
  10   3  -7   12.22    0.50
  -9  -3   7   16.62    0.52
   9  -3  -7   16.95    0.57
   9  -3  -7   16.95    0.60
   9   3  -7   17.69    0.59
   9   3  -7   17.16    0.58
  -8  -3   7   11.78    0.39
   8  -3  -7   11.64    0.43
   8  -3  -7   10.59    0.45
   8   3  -7   11.84    0.44
   8   3  -7   12.09    0.45
   7  -3  -7   66.81    1.77
  -7  -3   7   67.84    1.70
   7  -3  -7   67.07    1.71
  -7   3   7   65.86    1.64
   7   3  -7   66.10    1.72
   7   3  -7   67.02    1.75
  -6  -3   7   12.03    0.38
   6  -3  -7   11.94    0.38
   6  -3  -7   11.64    0.43
   6   3  -7   11.97    0.42
  -6   3   7   11.53    0.34
   6   3  -7   11.74    0.40
  -5  -3   7    5.40    0.22
   5  -3  -7    4.55    0.20
   5  -3  -7    5.53    0.26
  -5   3   7    5.57    0.19
   5   3  -7    5.44    0.25
   5   3  -7    5.26    0.22
   4  -3  -7   35.26    0.88
  -4  -3   7   34.87    0.92
   4   3  -7   29.37    0.88
   4   3  -7   37.96    0.96
  -4   3   7   35.36    0.89
   3  -3  -7   36.43    0.99
  -3  -3   7   37.42    0.97
   3  -3  -7   36.55    0.92
  -3   3   7   36.02    0.94
   3   3  -7   36.32    0.99
   3   3  -7   36.89    0.93
  -2  -3   7  144.97    3.50
   2  -3  -7  140.82    3.52
   2  -3  -7  143.13    3.44
   2   3  -7  145.98    3.45
  -2   3   7  141.62    3.49
   1  -3  -7  176.61    4.30
  -1  -3   7  173.67    4.23
   1  -3  -7  177.03    4.24
  -1  -3   7  178.64    4.29
  -1   3   7  178.76    4.28
   1   3  -7  173.18    4.31
   0  -3   7   20.15    0.52
   0   3  -7   20.07    0.59
   0   3   7   20.64    0.52
   0   3   7   20.24    0.57
   1  -3   7   18.43    0.50
   1  -3   7   18.78    0.55
  -1   3  -7   18.90    0.55
   1   3   7   18.87    0.50
   2  -3   7    0.03    0.05
  -2  -3  -7    0.23    0.05
  -2  -3  -7    0.07    0.03
   2  -3   7    0.06    0.08
  -2   3  -7    0.07    0.06
   2   3   7   -0.01    0.05
   3  -3   7   79.87    2.02
  -3  -3  -7   81.59    2.02
   3  -3   7   79.07    2.00
  -3  -3  -7   80.88    1.97
   3   3   7   80.11    2.00
  -3   3  -7   81.15    2.03
  -4  -3  -7   19.44    0.58
   4  -3   7   18.89    0.57
   4  -3   7   19.40    0.56
  -4  -3  -7   19.45    0.51
  -4   3  -7   19.20    0.57
   4   3   7   19.65    0.57
   5  -3   7   42.14    1.12
   5  -3   7   41.13    1.11
  -5  -3  -7   43.46    1.13
   5   3   7   41.41    1.13
  -5   3  -7   41.46    1.12
  -6  -3  -7    7.33    0.32
   6  -3   7    7.57    0.31
   6  -3   7    8.13    0.34
   6   3   7    7.54    0.34
  -6   3  -7    7.77    0.30
   7  -3   7   16.43    0.53
  -7  -3  -7   17.12    0.55
   7  -3   7   17.19    0.57
  -7   3  -7   16.37    0.53
   7   3   7   16.64    0.58
   8  -3   7    9.67    0.36
   8  -3   7    9.23    0.42
  -8  -3  -7    9.32    0.39
   8   3   7    8.58    0.42
   9  -3   7    3.65    0.30
  -9  -3  -7    3.99    0.26
   9   3   7    3.62    0.29
 -10  -3  -7    0.80    0.15
  10  -3   7    0.84    0.19
  10   3   7    0.95    0.19
  11  -3   7    3.91    0.35
  11   3   7    4.26    0.37
  12  -3   7    1.98    0.28
  12   3   7    1.90    0.27
  13  -3   7   10.60    0.56
  13   3   7   10.55    0.58
  15  -4  -7    0.14    0.21
  15   4  -7   -0.15    0.22
  14  -4  -7    3.23    0.32
  14   4  -7    2.39    0.30
  13  -4  -7    7.94    0.45
  13  -4  -7    7.78    0.44
  13   4  -7    8.31    0.47
  12  -4  -7    7.33    0.40
  12  -4  -7    6.57    0.39
  12   4  -7    6.76    0.41
  11  -4  -7    3.33    0.29
  11  -4  -7    3.65    0.30
  11   4  -7    3.51    0.31
  11   4  -7    3.31    0.25
  10  -4  -7    4.48    0.29
 -10  -4   7    3.79    0.23
  10  -4  -7    4.51    0.31
  10   4  -7    4.06    0.27
  10   4  -7    4.29    0.31
  -9  -4   7    7.02    0.29
   9  -4  -7    6.66    0.32
   9  -4  -7    6.81    0.36
   9   4  -7    6.52    0.34
   9   4  -7    6.49    0.33
   8  -4  -7   15.36    0.57
   8  -4  -7   15.94    0.52
  -8  -4   7   16.41    0.50
   8   4  -7   16.43    0.55
   8   4  -7   15.43    0.54
  -7  -4   7    1.10    0.12
   7  -4  -7    1.14    0.13
   7  -4  -7    0.87    0.14
   7   4  -7    0.85    0.13
   7   4  -7    0.79    0.13
   6  -4  -7    4.63    0.22
   6  -4  -7    4.23    0.26
  -6  -4   7    4.55    0.21
   6   4  -7    4.80    0.23
   6   4  -7    4.91    0.25
  -6   4   7    4.78    0.17
   5  -4  -7   28.77    0.84
   5  -4  -7   28.85    0.78
  -5  -4   7   29.65    0.80
   5   4  -7   29.38    0.83
  -5   4   7   28.59    0.75
   5   4  -7   29.21    0.79
  -4  -4   7   23.81    0.66
   4   4  -7   23.84    0.69
  -4   4   7   22.94    0.62
   3  -4  -7    8.11    0.25
   3  -4  -7    7.91    0.31
  -3  -4   7    8.33    0.30
   3   4  -7    8.28    0.32
  -3   4   7    7.76    0.26
   3   4  -7    8.11    0.26
  -2  -4   7   15.32    0.41
   2  -4  -7   15.50    0.41
  -2  -4   7   15.93    0.47
   2  -4  -7   14.77    0.47
   2   4  -7   14.80    0.48
  -2   4   7   15.38    0.44
   1  -4  -7    8.70    0.30
  -1  -4   7    8.37    0.25
  -1  -4   7    8.18    0.30
   1  -4  -7    9.27    0.25
  -1   4   7    8.51    0.29
   0  -4  -7    1.82    0.13
   0  -4   7    2.48    0.16
   0  -4   7    2.07    0.10
   0  -4  -7    1.43    0.11
   0   4  -7    2.07    0.16
   1  -4   7   67.93    1.70
  -1  -4  -7   66.61    1.70
   1  -4   7   65.90    1.66
  -1   4  -7   66.39    1.72
   1   4   7   69.23    1.66
   2  -4   7   10.30    0.32
  -2  -4  -7   10.81    0.31
   2  -4   7   10.55    0.35
   2   4   7   10.04    0.32
  -2   4  -7   10.10    0.36
   3  -4   7   71.10    1.84
   3  -4   7   72.76    1.83
  -3  -4  -7   74.12    1.79
  -3  -4  -7   76.67    1.86
  -3   4  -7   71.39    1.86
   3   4   7   72.33    1.83
   4  -4   7   30.69    0.84
   4  -4   7   30.88    0.83
  -4  -4  -7   31.01    0.85
  -4  -4  -7   30.65    0.76
   4   4   7   29.87    0.84
  -4   4  -7   28.89    0.84
   5  -4   7   22.00    0.65
   5  -4   7   23.06    0.67
  -5  -4  -7   23.32    0.68
  -5   4  -7   22.31    0.67
   5   4   7   22.76    0.68
   6  -4   7   20.42    0.62
  -6  -4  -7   19.15    0.60
   6  -4   7   19.14    0.58
   6   4   7   18.82    0.62
  -6   4  -7   19.00    0.60
   7  -4   7   16.06    0.52
   7  -4   7   15.69    0.55
  -7  -4  -7   16.12    0.54
  -7   4  -7   16.29    0.53
   7   4   7   16.40    0.57
   8  -4   7   48.44    1.26
  -8  -4  -7   47.30    1.28
   8  -4   7   46.53    1.31
  -8   4  -7   45.86    1.27
   8   4   7   46.36    1.32
   9  -4   7    2.68    0.25
  -9  -4  -7    2.79    0.24
   9   4   7    2.41    0.25
  10  -4   7    5.06    0.35
 -10  -4  -7    5.59    0.32
  10   4   7    5.49    0.37
  11  -4   7    6.23    0.40
 -11  -4  -7    6.33    0.35
  11   4   7    5.67    0.41
  12  -4   7   13.49    0.62
  12   4   7   14.35    0.64
  13  -4   7    8.42    0.51
  13   4   7    7.71    0.52
  15  -5  -7    6.80    0.69
  14  -5  -7   -0.04    0.17
  14  -5  -7    0.26    0.17
  14   5  -7    0.02    0.20
  13  -5  -7    2.40    0.28
  13  -5  -7    2.48    0.28
  13   5  -7    2.60    0.29
  12  -5  -7    6.35    0.39
  12  -5  -7    5.81    0.38
  12   5  -7    6.08    0.39
  11  -5  -7    7.47    0.40
  11  -5  -7    7.50    0.39
  11   5  -7    6.70    0.40
  10  -5  -7   27.77    0.89
  10  -5  -7   27.31    0.85
 -10  -5   7   27.68    0.80
  10   5  -7   27.17    0.86
  10   5  -7   27.65    0.84
  -9  -5   7    7.34    0.31
   9  -5  -7    7.60    0.35
   9  -5  -7    6.96    0.37
   9   5  -7    7.08    0.34
   9   5  -7    7.25    0.36
   8  -5  -7    3.64    0.24
  -8  -5   7    3.26    0.21
   8  -5  -7    3.62    0.27
   8   5  -7    3.64    0.24
   8   5  -7    3.68    0.26
   7  -5  -7   11.65    0.47
  -7  -5   7   12.38    0.42
   7  -5  -7   12.88    0.43
   7   5  -7   12.04    0.44
   7   5  -7   12.23    0.44
   6  -5  -7   13.93    0.53
   6  -5  -7   15.66    0.49
  -6  -5   7   15.90    0.50
   6   5  -7   16.91    0.53
  -6   5   7   16.05    0.43
   6   5  -7   16.48    0.51
   5  -5  -7   54.34    1.39
  -5  -5   7   54.39    1.41
  -5   5   7   54.56    1.35
   5   5  -7   53.95    1.40
   5   5  -7   54.52    1.44
   4  -5  -7   12.54    0.43
  -4  -5   7   12.46    0.40
   4  -5  -7   10.26    0.35
   4   5  -7   13.16    0.43
  -4   5   7   12.11    0.35
   4   5  -7   12.24    0.37
  -3  -5   7   18.83    0.55
   3  -5  -7   18.23    0.56
  -3   5   7   18.07    0.51
   3   5  -7   18.15    0.56
  -2  -5   7   22.36    0.61
   2  -5  -7   20.76    0.55
   2  -5  -7   20.43    0.61
  -2  -5   7   20.57    0.55
  -2   5   7   19.43    0.57
   2   5  -7   20.63    0.62
   1  -5  -7  123.16    3.04
   1  -5  -7  126.30    2.99
   1  -5  -7  122.83    3.02
  -1  -5   7  121.05    2.99
   0  -5  -7   13.99    0.43
   0  -5  -7   14.39    0.39
   0  -5  -7   13.75    0.43
   0  -5   7   13.77    0.40
   0  -5   7   14.52    0.44
   0   5  -7   14.53    0.46
   1  -5   7   23.71    0.67
  -1  -5  -7   22.94    0.66
   1  -5   7   22.81    0.63
  -1   5  -7   24.64    0.69
   1   5   7   23.92    0.63
   2  -5   7   28.13    0.77
  -2  -5  -7   27.90    0.79
   2  -5   7   29.73    0.80
  -2  -5  -7   29.18    0.75
  -2   5  -7   29.35    0.82
   2   5   7   28.89    0.77
  -3  -5  -7   17.52    0.45
   3  -5   7   16.48    0.51
   3  -5   7   16.35    0.49
  -3   5  -7   15.65    0.52
   3   5   7   16.14    0.49
  -4  -5  -7   16.98    0.43
   4  -5   7   15.97    0.51
  -4  -5  -7   16.89    0.52
   4  -5   7   16.51    0.50
   4   5   7   15.53    0.51
  -4   5  -7   16.16    0.53
  -5  -5  -7   18.66    0.59
   5  -5   7   19.68    0.59
   5  -5   7   18.72    0.57
  -5   5  -7   18.89    0.60
   5   5   7   18.91    0.60
  -6  -5  -7   79.71    2.10
   6  -5   7   83.90    2.11
   6  -5   7   81.92    2.07
  -6   5  -7   82.77    2.11
   6   5   7   80.89    2.11
   7  -5   7   14.85    0.48
  -7  -5  -7   14.37    0.51
   7  -5   7   14.58    0.53
   7   5   7   14.85    0.54
  -7   5  -7   14.80    0.51
   8  -5   7    7.36    0.37
  -8  -5  -7    7.52    0.34
   8  -5   7    7.38    0.32
  -8   5  -7    7.41    0.34
   8   5   7    7.16    0.38
  -9  -5  -7   11.63    0.45
   9  -5   7   11.35    0.49
   9   5   7   11.32    0.49
 -10  -5  -7    2.28    0.22
  10  -5   7    2.13    0.24
  10   5   7    2.00    0.24
  11  -5   7    7.32    0.43
 -11  -5  -7    7.01    0.38
  11   5   7    5.73    0.39
  12  -5   7   -0.03    0.19
  12   5   7    0.09    0.20
  13  -5   7    0.21    0.21
  13   5   7    0.44    0.24
  14  -6  -7    1.48    0.25
  14  -6  -7    1.60    0.26
  14   6  -7    1.54    0.27
  13  -6  -7    2.05    0.26
  13  -6  -7    2.19    0.27
  13   6  -7    1.99    0.27
  12  -6  -7    0.45    0.18
  12  -6  -7    0.71    0.20
  12   6  -7    0.57    0.19
  11  -6  -7    7.42    0.42
  11  -6  -7    7.56    0.40
  11   6  -7    7.58    0.42
  10  -6  -7    7.85    0.41
  10  -6  -7    7.53    0.38
 -10  -6   7    8.38    0.35
  10   6  -7    7.51    0.37
  10   6  -7    8.44    0.41
  -9  -6   7    3.45    0.22
   9  -6  -7    3.83    0.29
   9  -6  -7    3.97    0.26
   9   6  -7    3.38    0.27
   9   6  -7    3.64    0.25
   8  -6  -7   10.30    0.40
   8  -6  -7   10.31    0.43
  -8  -6   7   10.00    0.39
   8   6  -7   10.62    0.42
   8   6  -7   10.09    0.41
   7  -6  -7   12.66    0.44
   7  -6  -7   12.81    0.50
  -7  -6   7   13.15    0.45
   7   6  -7   13.60    0.48
   7   6  -7   13.20    0.47
   6  -6  -7   15.82    0.49
  -6  -6   7   15.76    0.50
   6   6  -7   15.86    0.53
   6   6  -7   15.14    0.50
   5  -6  -7   43.63    1.13
  -5  -6   7   43.42    1.15
   5   6  -7   44.13    1.18
   5   6  -7   42.80    1.14
  -5   6   7   42.30    1.08
   4  -6  -7   21.98    0.61
  -4  -6   7   22.27    0.64
   4  -6  -7   22.31    0.68
  -4   6   7   21.58    0.59
   4   6  -7   23.22    0.68
   4   6  -7   21.76    0.62
  -3  -6   7   18.83    0.56
   3  -6  -7   18.58    0.58
  -3   6   7   18.59    0.52
   3   6  -7   19.78    0.60
  -2  -6   7   15.88    0.47
   2  -6  -7   14.32    0.44
  -2  -6   7   14.75    0.43
   2  -6  -7   14.61    0.47
   2   6  -7   15.88    0.50
  -1  -6   7   23.25    0.61
  -1  -6   7   19.97    0.64
   1  -6  -7   23.82    0.63
   1  -6  -7   23.36    0.65
   1   6  -7   22.61    0.68
   0  -6  -7   22.31    0.62
   0  -6   7   22.15    0.60
   0  -6   7   23.08    0.64
   0  -6  -7   21.22    0.62
   0   6  -7   21.47    0.66
  -1  -6  -7   20.88    0.60
   1  -6   7   20.74    0.60
   1  -6   7   20.22    0.56
  -1   6  -7   20.43    0.62
   1   6   7   20.49    0.57
   2  -6   7   34.08    0.94
   2  -6   7   34.53    0.92
  -2  -6  -7   35.50    0.90
  -2  -6  -7   34.38    0.94
   2   6   7   34.70    0.92
  -2   6  -7   35.74    0.98
  -3  -6  -7   21.06    0.56
   3  -6   7   21.77    0.62
   3  -6   7   21.70    0.61
   3   6   7   20.57    0.61
  -3   6  -7   20.43    0.64
   4  -6   7    3.92    0.22
   4  -6   7    3.69    0.21
  -4   6  -7    3.44    0.22
   4   6   7    3.42    0.21
  -5  -6  -7   15.59    0.52
   5  -6   7   15.50    0.50
   5  -6   7   15.94    0.52
  -5   6  -7   15.45    0.53
   5   6   7   15.67    0.52
   6  -6   7   11.64    0.40
   6  -6   7   11.09    0.43
  -6  -6  -7   11.27    0.42
  -6   6  -7   10.99    0.42
   6   6   7    9.98    0.42
   7  -6   7   16.66    0.53
   7  -6   7   17.24    0.58
  -7  -6  -7   16.70    0.57
  -7   6  -7   16.26    0.57
   7   6   7   16.96    0.60
   8  -6   7    0.62    0.15
  -8  -6  -7    0.66    0.15
  -8   6  -7    0.64    0.14
   8   6   7    0.61    0.15
   9  -6   7    0.55    0.17
  -9  -6  -7    0.79    0.16
   9   6   7    0.45    0.16
 -10  -6  -7    1.75    0.20
  10  -6   7    1.49    0.22
  10   6   7    1.65    0.24
  11  -6   7    9.96    0.50
 -11  -6  -7   10.51    0.46
  11   6   7    9.11    0.50
 -12  -6  -7   19.06    0.70
  12  -6   7   20.54    0.78
  12   6   7   20.02    0.79
  13  -6   7    4.64    0.42
  13   6   7    4.25    0.39
  14  -7  -7    5.45    0.43
  14  -7  -7    5.90    0.44
  14   7  -7    6.27    0.46
  13  -7  -7    0.47    0.19
  13  -7  -7   -0.05    0.17
  13   7  -7    0.42    0.21
  12  -7  -7    1.25    0.22
  12  -7  -7    1.31    0.22
  12   7  -7    1.28    0.23
  11  -7  -7   11.00    0.52
  11  -7  -7   11.18    0.49
 -11  -7   7   11.54    0.44
  11   7  -7   10.97    0.51
 -10  -7   7    0.13    0.12
  10  -7  -7    0.23    0.14
  10  -7  -7    0.27    0.14
  10   7  -7    0.31    0.13
  10   7  -7    0.47    0.16
  -9  -7   7    4.41    0.26
   9  -7  -7    4.39    0.28
   9  -7  -7    4.44    0.32
   9   7  -7    4.84    0.29
   9   7  -7    4.65    0.31
  -8  -7   7    5.33    0.28
   8  -7  -7    5.63    0.33
   8  -7  -7    5.28    0.28
   8   7  -7    6.04    0.32
   8   7  -7    5.45    0.30
   7  -7  -7    4.20    0.24
   7  -7  -7    4.08    0.29
  -7  -7   7    4.92    0.26
   7   7  -7    4.99    0.27
   7   7  -7    4.53    0.28
   6  -7  -7   11.16    0.39
  -6  -7   7   11.98    0.41
   6   7  -7   10.58    0.40
   6   7  -7   11.32    0.43
   5  -7  -7    9.24    0.33
  -5  -7   7    9.30    0.35
  -5   7   7    9.30    0.29
   5   7  -7    9.83    0.38
   5   7  -7    9.55    0.34
   4  -7  -7    3.98    0.24
   4  -7  -7    4.15    0.19
  -4  -7   7    3.98    0.22
  -4   7   7    3.97    0.18
   4   7  -7    4.06    0.20
   4   7  -7    4.24    0.24
   3  -7  -7   20.60    0.57
  -3  -7   7   21.49    0.62
   3  -7  -7   19.74    0.62
  -3  -7   7   20.12    0.58
   3   7  -7   20.74    0.64
  -2  -7   7    6.92    0.25
   2  -7  -7    6.70    0.24
   2  -7  -7    7.01    0.26
   2  -7  -7    6.63    0.28
   2   7  -7    7.42    0.31
   1  -7  -7  108.74    2.69
  -1  -7   7  108.65    2.69
   1  -7  -7  109.68    2.73
   1  -7  -7  107.91    2.71
  -1  -7   7  109.49    2.73
   1   7  -7  114.83    2.77
   0  -7  -7   30.78    0.84
   0  -7  -7   31.01    0.81
   0  -7  -7   30.57    0.84
   0  -7   7   31.63    0.86
   0  -7   7   30.14    0.82
  -1  -7  -7   23.13    0.67
  -1  -7  -7   22.53    0.65
   1  -7   7   23.55    0.65
   1  -7   7   24.31    0.68
  -1   7  -7   23.99    0.71
   2  -7   7   33.52    0.90
  -2  -7  -7   33.47    0.93
   2  -7   7   34.50    0.93
   2   7   7   33.85    0.91
  -2   7  -7   33.75    0.96
  -3  -7  -7    5.13    0.18
   3  -7   7    4.73    0.22
   3  -7   7    4.57    0.24
   3   7   7    4.64    0.23
  -3   7  -7    4.75    0.25
   4  -7   7    2.84    0.21
   4  -7   7    2.85    0.20
   4   7   7    3.21    0.21
  -4   7  -7    3.37    0.23
   5  -7   7   19.07    0.58
  -5  -7  -7   19.48    0.61
   5  -7   7   19.15    0.60
  -5   7  -7   19.21    0.63
   5   7   7   18.75    0.61
  -6  -7  -7   14.05    0.50
   6  -7   7   14.53    0.50
   6  -7   7   14.63    0.47
  -6   7  -7   14.27    0.51
   6   7   7   13.07    0.51
   7  -7   7   32.79    0.92
  -7  -7  -7   32.81    0.96
   7  -7   7   33.50    0.98
  -7   7  -7   32.93    0.97
   7   7   7   32.87    0.98
   8  -7   7   32.42    0.99
  -8  -7  -7   32.40    0.97
  -8   7  -7   33.15    0.98
   8   7   7   33.12    1.00
   9  -7   7    7.38    0.40
  -9  -7  -7    6.74    0.36
  -9   7  -7    6.92    0.35
   9   7   7    6.44    0.40
 -10  -7  -7   14.22    0.55
  10  -7   7   13.82    0.58
  10   7   7   13.32    0.59
 -11  -7  -7    4.04    0.32
  11  -7   7    3.18    0.31
  11   7   7    4.10    0.37
 -12  -7  -7    9.09    0.45
  12  -7   7    9.64    0.52
  12   7   7    8.61    0.53
  14  -8  -7    4.19    0.36
  14  -8  -7    4.17    0.39
  14   8  -7    3.69    0.37
  13  -8  -7    0.88    0.21
  13  -8  -7    0.87    0.23
  13   8  -7    1.03    0.25
  12  -8  -7    1.26    0.21
  12  -8  -7    1.41    0.25
  12   8  -7    1.64    0.25
  11  -8  -7    3.13    0.29
 -11  -8   7    3.29    0.26
  11  -8  -7    3.03    0.30
  11   8  -7    3.14    0.30
  10  -8  -7    5.79    0.37
  10  -8  -7    5.21    0.33
 -10  -8   7    5.61    0.32
  10   8  -7    6.21    0.37
   9  -8  -7    8.40    0.38
  -9  -8   7    8.44    0.37
   9  -8  -7    8.22    0.43
   9   8  -7    8.65    0.38
   9   8  -7    7.99    0.40
   8  -8  -7   18.09    0.58
   8  -8  -7   17.24    0.64
  -8  -8   7   17.36    0.58
   8   8  -7   17.04    0.60
   8   8  -7   17.07    0.59
   7  -8  -7   10.43    0.41
  -7  -8   7   11.28    0.42
   7  -8  -7   10.56    0.46
   7   8  -7   11.37    0.43
   7   8  -7   11.26    0.43
   6  -8  -7   68.36    1.84
  -6  -8   7   70.50    1.80
   6  -8  -7   70.59    1.78
   6   8  -7   68.12    1.81
   6   8  -7   67.50    1.79
   5  -8  -7   15.98    0.50
  -5  -8   7   15.65    0.52
   5   8  -7   16.16    0.54
   5   8  -7   15.41    0.50
  -5   8   7   15.92    0.44
   4  -8  -7   31.32    0.86
  -4  -8   7   32.72    0.90
   4  -8  -7   31.88    0.92
   4   8  -7   31.49    0.87
   4   8  -7   30.81    0.91
  -4   8   7   31.98    0.83
   3  -8  -7   32.30    0.93
   3  -8  -7   32.65    0.87
   3  -8  -7   32.14    0.86
  -3  -8   7   32.45    0.88
   3   8  -7   33.64    0.94
   2  -8  -7    0.43    0.08
   2  -8  -7    0.54    0.08
   2  -8  -7    0.50    0.10
  -2  -8   7    0.44    0.08
   2   8  -7    0.61    0.13
  -1  -8   7    0.82    0.12
  -1  -8   7    1.01    0.10
   1  -8  -7    0.88    0.11
   1  -8  -7    0.97    0.11
   1  -8  -7    1.19    0.11
   1   8  -7    0.90    0.14
   0  -8  -7    0.11    0.08
   0  -8   7    0.15    0.07
   0  -8  -7    0.07    0.07
   0  -8  -7    0.07    0.05
   0  -8   7    0.22    0.09
   0   8  -7    0.00    0.05
   1  -8   7   21.91    0.62
   1  -8   7   22.24    0.64
  -1  -8  -7   21.64    0.64
  -1  -8  -7   22.87    0.62
  -1  -8  -7   21.73    0.62
  -1   8  -7   20.65    0.67
  -2  -8  -7   10.36    0.39
   2  -8   7   11.13    0.37
   2  -8   7   10.79    0.39
   2   8   7   11.26    0.38
  -2   8  -7   11.14    0.42
  -3  -8  -7   18.68    0.52
   3  -8   7   19.24    0.58
   3  -8   7   18.83    0.59
   3   8   7   19.63    0.59
  -3   8  -7   19.78    0.63
   4  -8   7   10.97    0.39
   4  -8   7   10.53    0.40
  -4   8  -7   10.81    0.43
   4   8   7   11.41    0.41
   5  -8   7   32.09    0.90
   5  -8   7   30.84    0.87
  -5  -8  -7   31.29    0.90
   5   8   7   29.97    0.90
  -5   8  -7   30.50    0.92
  -6  -8  -7    6.56    0.33
   6  -8   7    6.47    0.33
   6  -8   7    6.50    0.29
  -6   8  -7    6.90    0.34
   6   8   7    6.31    0.33
  -7  -8  -7   24.19    0.77
   7  -8   7   25.85    0.79
  -7   8  -7   23.51    0.78
   7   8   7   25.04    0.80
   8  -8   7   10.38    0.44
  -8  -8  -7   10.17    0.44
  -8   8  -7   10.73    0.46
   8   8   7   10.08    0.47
  -9  -8  -7   12.63    0.50
   9  -8   7   12.25    0.53
  -9   8  -7   12.00    0.51
   9   8   7   12.66    0.55
  10  -8   7    0.02    0.16
 -10  -8  -7    0.17    0.15
  10   8   7    0.11    0.17
  11  -8   7    2.66    0.30
 -11  -8  -7    3.23    0.28
  11   8   7    3.07    0.32
  12  -8   7   10.37    0.55
 -12  -8  -7   10.71    0.50
  12   8   7   10.23    0.57
  14  -9  -7    4.08    0.39
  14  -9  -7    3.75    0.35
  14   9  -7    3.60    0.43
  13  -9  -7    2.57    0.29
  13  -9  -7    3.00    0.34
  13   9  -7    3.33    0.34
  12  -9  -7   17.94    0.68
  12  -9  -7   17.89    0.73
  12   9  -7   17.38    0.71
  11  -9  -7    9.38    0.50
  11  -9  -7    9.61    0.46
 -11  -9   7    8.57    0.40
  11   9  -7    9.62    0.48
  10  -9  -7    1.25    0.19
 -10  -9   7    1.47    0.18
  10  -9  -7    2.01    0.25
  10   9  -7    1.70    0.22
  -9  -9   7    5.30    0.30
   9  -9  -7    4.82    0.35
   9  -9  -7    5.40    0.31
   9   9  -7    5.79    0.35
   9   9  -7    5.02    0.30
   8  -9  -7    9.82    0.47
  -8  -9   7   10.66    0.43
   8  -9  -7   10.56    0.42
   8   9  -7   10.79    0.43
   8   9  -7   11.56    0.46
   7  -9  -7    0.12    0.13
   7  -9  -7   -0.04    0.09
  -7  -9   7    0.01    0.10
   7   9  -7    0.04    0.10
   7   9  -7    0.21    0.11
   6  -9  -7    4.74    0.25
  -6  -9   7    4.76    0.26
   6  -9  -7    4.96    0.31
   6   9  -7    4.52    0.26
   6   9  -7    4.47    0.28
   5  -9  -7    7.51    0.30
  -5  -9   7    7.07    0.32
   5  -9  -7    7.56    0.36
   5   9  -7    7.28    0.34
   5   9  -7    7.19    0.32
  -4  -9   7   41.74    1.13
   4  -9  -7   40.72    1.15
   4  -9  -7   40.61    1.09
   4   9  -7   41.73    1.15
   4   9  -7   40.04    1.10
   3  -9  -7   33.63    0.97
   3  -9  -7   34.54    0.90
   3  -9  -7   34.04    0.92
  -3  -9   7   34.11    0.92
   3   9  -7   33.63    0.98
  -2  -9   7   38.74    1.05
   2  -9  -7   38.97    1.04
   2  -9  -7   40.35    1.09
   2  -9  -7   39.31    1.04
   2   9  -7   39.94    1.11
   1  -9  -7   16.57    0.49
  -1  -9   7   16.48    0.50
  -1  -9   7   16.87    0.53
   1  -9  -7   16.08    0.52
   1  -9  -7   16.20    0.50
   1   9  -7   16.76    0.56
   0  -9   7    9.07    0.35
   0  -9  -7    9.54    0.34
   0  -9  -7    9.21    0.34
   0  -9  -7    9.05    0.32
   0  -9   7    9.58    0.33
  -1  -9  -7   41.12    1.08
   1  -9   7   40.82    1.08
  -1  -9  -7   39.89    1.08
   1  -9   7   41.26    1.10
  -1  -9  -7   41.11    1.10
   2  -9   7    5.51    0.25
  -2  -9  -7    5.08    0.21
  -2  -9  -7    5.34    0.26
   2  -9   7    5.39    0.26
   2   9   7    5.49    0.25
  -2   9  -7    4.79    0.28
   3  -9   7   10.63    0.38
  -3  -9  -7   10.57    0.40
   3  -9   7   10.64    0.38
  -3   9  -7   10.29    0.42
   3   9   7    9.66    0.38
   4  -9   7   12.48    0.44
   4  -9   7   12.42    0.43
  -4  -9  -7   10.86    0.42
  -4   9  -7   12.29    0.48
   4   9   7   12.30    0.44
   5  -9   7    6.92    0.33
  -5  -9  -7    7.89    0.34
   5  -9   7    7.10    0.31
  -5   9  -7    7.16    0.36
   5   9   7    6.55    0.33
   6  -9   7    8.01    0.33
  -6  -9  -7    7.85    0.37
   6  -9   7    8.21    0.37
   6   9   7    8.10    0.38
  -6   9  -7    8.27    0.39
   7  -9   7    4.02    0.28
  -7  -9  -7    4.42    0.29
   7   9   7    4.39    0.31
  -7   9  -7    4.65    0.30
  -8  -9  -7   11.71    0.49
   8  -9   7   12.64    0.51
  -8   9  -7   12.95    0.52
   8   9   7   12.41    0.53
   9  -9   7    5.76    0.37
  -9  -9  -7    6.03    0.35
  -9   9  -7    5.87    0.35
   9   9   7    5.65    0.38
 -10  -9  -7   14.94    0.58
  10  -9   7   14.76    0.61
  10   9   7   14.08    0.63
  11  -9   7    0.25    0.18
 -11  -9  -7    0.80    0.19
  11   9   7    0.51    0.22
  12  -9   7    3.01    0.33
 -12  -9  -7    3.62    0.33
  12   9   7    2.78    0.34
  13 -10  -7    1.21    0.23
  13 -10  -7    1.55    0.28
  13  10  -7    2.20    0.30
  12 -10  -7    0.95    0.22
  12 -10  -7    0.91    0.20
 -12 -10   7    0.96    0.19
  12  10  -7    1.41    0.25
  11 -10  -7    1.56    0.25
  11 -10  -7    1.97    0.24
 -11 -10   7    1.68    0.20
  11  10  -7    1.90    0.26
  10 -10  -7    2.63    0.29
 -10 -10   7    2.70    0.25
  10 -10  -7    2.57    0.25
  10  10  -7    2.87    0.27
   9 -10  -7   15.02    0.56
   9 -10  -7   15.20    0.62
  -9 -10   7   14.86    0.55
   9  10  -7   14.55    0.62
   9  10  -7   14.58    0.57
  -8 -10   7    5.25    0.30
   8 -10  -7    4.66    0.34
   8 -10  -7    4.83    0.29
   8  10  -7    4.68    0.31
   8  10  -7    4.63    0.29
   7 -10  -7    0.46    0.14
   7 -10  -7    0.53    0.13
  -7 -10   7    0.35    0.13
   7  10  -7    0.55    0.14
   7  10  -7    0.58    0.13
   6 -10  -7    1.66    0.19
   6 -10  -7    1.74    0.16
  -6 -10   7    1.97    0.20
   6  10  -7    1.94    0.20
   6  10  -7    1.59    0.17
   5 -10  -7   33.18    0.98
   5 -10  -7   32.02    0.91
  -5 -10   7   32.67    0.94
   5  10  -7   32.51    0.93
   5  10  -7   31.62    0.95
   4 -10  -7    4.82    0.21
   4 -10  -7    5.12    0.24
  -4 -10   7    5.34    0.28
   4 -10  -7    5.00    0.30
   4  10  -7    4.81    0.28
   3 -10  -7    0.26    0.11
   3 -10  -7    0.47    0.09
  -3 -10   7    0.20    0.09
   3 -10  -7    0.17    0.08
   3  10  -7    0.48    0.14
   2 -10  -7    2.22    0.19
   2 -10  -7    2.21    0.16
  -2 -10   7    2.26    0.16
   2 -10  -7    2.10    0.17
  -2 -10   7    1.53    0.15
   2  10  -7    2.01    0.20
   1 -10  -7    8.04    0.31
   1 -10  -7    8.50    0.34
  -1 -10   7    8.52    0.32
  -1 -10   7    8.25    0.34
   1 -10  -7    8.34    0.31
   1  10  -7    8.39    0.38
   0 -10  -7   19.17    0.58
   0 -10   7   19.54    0.58
   0 -10  -7   18.81    0.58
   0 -10  -7   18.62    0.57
   0 -10   7   19.27    0.60
  -1 -10  -7   45.44    1.20
  -1 -10  -7   44.80    1.21
   1 -10   7   44.52    1.21
   1 -10   7   45.28    1.20
  -1 -10  -7   45.32    1.19
   2 -10   7    9.59    0.36
   2 -10   7    9.80    0.37
  -2 -10  -7    9.50    0.37
  -2 -10  -7    9.48    0.33
  -2  10  -7    9.04    0.41
   2  10   7    9.22    0.36
  -3 -10  -7  124.79    3.13
   3 -10   7  126.93    3.12
   3 -10   7  123.45    3.11
   3  10   7  125.17    3.13
  -3  10  -7  123.56    3.17
   4 -10   7   26.97    0.79
   4 -10   7   27.51    0.81
  -4 -10  -7   29.00    0.83
   4  10   7   27.96    0.83
  -4  10  -7   27.21    0.87
   5 -10   7    8.24    0.33
  -5 -10  -7    8.40    0.36
   5 -10   7    8.33    0.37
  -5  10  -7    8.04    0.39
   5  10   7    8.29    0.37
  -6 -10  -7   16.97    0.60
   6 -10   7   17.62    0.61
   6 -10   7   17.03    0.55
  -6  10  -7   17.82    0.64
   6  10   7   17.34    0.61
  -7 -10  -7    0.12    0.12
   7 -10   7    0.21    0.14
   7  10   7    0.30    0.15
  -7  10  -7    0.09    0.13
   8 -10   7   11.63    0.50
  -8 -10  -7   12.35    0.50
   8  10   7   12.17    0.53
  -8  10  -7   11.58    0.51
  -9 -10  -7    0.92    0.18
   9 -10   7    0.49    0.17
   9  10   7    0.91    0.21
  -9  10  -7    0.85    0.19
 -10 -10  -7    3.41    0.30
  10 -10   7    2.15    0.26
 -10  10  -7    2.72    0.28
  10  10   7    2.67    0.30
  11 -10   7    0.01    0.17
 -11 -10  -7    0.36    0.17
  11  10   7   -0.04    0.20
 -12 -10  -7    2.27    0.26
  12 -10   7    2.51    0.36
  12  10   7    2.14    0.31
  13 -11  -7    8.79    0.50
  13 -11  -7    9.27    0.56
  13  11  -7    9.25    0.54
  12 -11  -7    4.12    0.39
 -12 -11   7    3.99    0.31
  12 -11  -7    4.32    0.36
  12  11  -7    5.08    0.42
  11 -11  -7    0.15    0.16
 -11 -11   7    0.08    0.13
  11 -11  -7    0.31    0.18
  11  11  -7    0.40    0.19
 -10 -11   7    4.37    0.31
  10 -11  -7    4.40    0.37
  10 -11  -7    3.63    0.31
  10  11  -7    4.22    0.34
  -9 -11   7    1.78    0.21
   9 -11  -7    1.72    0.25
   9 -11  -7    1.54    0.20
   9  11  -7    2.13    0.24
   8 -11  -7   10.13    0.42
   8 -11  -7    9.35    0.46
  -8 -11   7    8.98    0.42
   8  11  -7    9.83    0.44
   8  11  -7    9.42    0.42
   7 -11  -7    0.48    0.13
  -7 -11   7    0.23    0.13
   7 -11  -7    0.10    0.13
   7  11  -7    0.35    0.13
   7  11  -7    0.38    0.13
   6 -11  -7   14.96    0.57
  -6 -11   7   14.15    0.52
   6 -11  -7   14.44    0.51
   6  11  -7   13.46    0.51
   6  11  -7   14.50    0.53
   5 -11  -7   50.87    1.39
   5 -11  -7   48.68    1.32
  -5 -11   7   48.93    1.35
   5  11  -7   47.39    1.33
   5  11  -7   49.30    1.36
   4 -11  -7    0.97    0.13
   4 -11  -7    1.10    0.17
  -4 -11   7    0.99    0.16
   4  11  -7    1.27    0.18
   3 -11  -7    8.47    0.38
  -3 -11   7    8.48    0.36
   3 -11  -7    8.63    0.34
   3 -11  -7    8.46    0.31
  -3 -11   7    8.28    0.34
   3  11  -7    9.05    0.40
  -2 -11   7   24.95    0.75
   2 -11  -7   25.02    0.77
   2 -11  -7   25.07    0.71
   2 -11  -7   25.23    0.73
  -2 -11   7   25.34    0.73
   2  11  -7   25.01    0.79
   1 -11  -7    1.38    0.15
  -1 -11   7    1.29    0.16
   1 -11  -7    1.26    0.14
  -1 -11   7    1.29    0.13
   1 -11  -7    1.42    0.14
   1  11  -7    1.41    0.19
   0 -11   7   32.84    0.89
   0 -11   7   31.65    0.90
   0 -11  -7   31.22    0.88
   0 -11  -7   31.12    0.89
   0 -11  -7   31.29    0.88
   0  11  -7   31.19    0.94
  -1 -11  -7    4.16    0.24
  -1 -11  -7    4.37    0.23
   1 -11   7    3.77    0.22
  -1 -11  -7    3.81    0.22
   1 -11   7    4.28    0.25
  -1  11  -7    3.94    0.28
   2 -11   7    1.12    0.14
  -2 -11  -7    0.88    0.14
  -2 -11  -7    1.29    0.12
   2 -11   7    1.01    0.13
  -2  11  -7    1.35    0.19
  -3 -11  -7   36.63    1.04
   3 -11   7   36.61    1.01
   3 -11   7   36.92    1.02
  -3  11  -7   36.08    1.08
   3  11   7   35.64    1.03
  -4 -11  -7    2.15    0.20
   4 -11   7    2.16    0.20
   4 -11   7    1.96    0.18
   4  11   7    2.40    0.22
  -4  11  -7    2.10    0.22
   5 -11   7    6.01    0.32
   5 -11   7    5.83    0.28
  -5 -11  -7    5.53    0.30
  -5  11  -7    5.28    0.33
   5  11   7    5.30    0.31
  -6 -11  -7   17.17    0.62
   6 -11   7   18.39    0.63
  -6  11  -7   17.84    0.66
   6  11   7   17.81    0.63
   7 -11   7    5.86    0.33
  -7 -11  -7    6.13    0.33
  -7  11  -7    5.19    0.35
   7  11   7    6.28    0.37
   8 -11   7    6.09    0.38
  -8 -11  -7    6.64    0.37
   8  11   7    6.74    0.40
  -8  11  -7    6.49    0.39
   9 -11   7   22.76    0.80
  -9 -11  -7   22.85    0.77
  -9  11  -7   22.34    0.80
   9  11   7   21.71    0.80
 -10 -11  -7   12.38    0.54
  10 -11   7   11.71    0.56
 -10  11  -7   12.24    0.56
  10  11   7   11.82    0.58
  11 -11   7   36.02    1.17
 -11 -11  -7   35.44    1.12
  11  11   7   37.47    1.21
 -12 -11  -7    2.81    0.29
  13 -12  -7    0.92    0.26
  12 -12  -7    2.49    0.29
  12 -12  -7    2.37    0.31
 -12 -12   7    2.05    0.25
  12  12  -7    2.90    0.32
  11 -12  -7    3.59    0.36
  11 -12  -7    3.49    0.32
 -11 -12   7    3.38    0.30
  11  12  -7    2.99    0.31
  10 -12  -7    7.94    0.47
 -10 -12   7    7.54    0.40
  10 -12  -7    7.35    0.40
  10  12  -7    7.39    0.43
   9 -12  -7   10.17    0.52
   9 -12  -7   10.31    0.46
  -9 -12   7   10.70    0.47
   9  12  -7   10.27    0.48
   8 -12  -7    3.67    0.33
  -8 -12   7    3.70    0.29
   8 -12  -7    3.83    0.28
   8  12  -7    4.39    0.31
   8  12  -7    3.36    0.28
   7 -12  -7   50.56    1.38
   7 -12  -7   50.56    1.46
  -7 -12   7   49.40    1.40
   7  12  -7   49.68    1.40
   7  12  -7   49.73    1.40
   6 -12  -7   10.17    0.48
   6 -12  -7   10.62    0.42
  -6 -12   7   10.05    0.44
   6  12  -7   10.44    0.45
   6  12  -7   11.11    0.45
  -5 -12   7   15.10    0.55
   5 -12  -7   15.46    0.59
   5 -12  -7   15.77    0.53
   5  12  -7   14.85    0.56
   5  12  -7   14.98    0.54
  -4 -12   7    0.61    0.14
   4 -12  -7    0.40    0.11
  -4 -12   7    0.29    0.12
   4 -12  -7    0.63    0.16
   4  12  -7    0.55    0.15
   3 -12  -7   15.23    0.56
   3 -12  -7   15.00    0.51
   3 -12  -7   15.42    0.48
  -3 -12   7   15.59    0.54
  -3 -12   7   15.36    0.52
   3  12  -7   15.90    0.58
   2 -12  -7   21.79    0.65
  -2 -12   7   21.56    0.68
   2 -12  -7   21.78    0.64
   2 -12  -7   22.01    0.70
  -2 -12   7   21.14    0.66
   2  12  -7   20.58    0.71
   1 -12  -7    7.23    0.31
   1 -12  -7    7.06    0.30
  -1 -12   7    7.71    0.33
   1 -12  -7    7.11    0.33
  -1 -12   7    7.29    0.31
   1  12  -7    7.30    0.38
   0 -12  -7   21.57    0.67
   0 -12   7   21.51    0.66
   0 -12  -7   20.87    0.65
   0 -12  -7   21.20    0.65
   0 -12   7   21.43    0.67
   0  12  -7   21.99    0.72
   1 -12   7   19.78    0.62
  -1 -12  -7   19.20    0.61
  -1 -12  -7   18.96    0.62
   1 -12   7   20.28    0.62
  -1 -12  -7   19.54    0.60
  -1  12  -7   19.65    0.67
   2 -12   7    2.74    0.23
  -2 -12  -7    2.59    0.23
   2 -12   7    3.00    0.22
  -2  12  -7    2.96    0.26
  -3 -12  -7    4.68    0.29
   3 -12   7    4.38    0.27
   3 -12   7    4.43    0.25
   3  12   7    4.53    0.27
  -3  12  -7    4.75    0.33
  -4 -12  -7    5.24    0.29
   4 -12   7    5.35    0.30
   4 -12   7    5.12    0.27
   4  12   7    4.78    0.29
  -4  12  -7    4.69    0.34
   5 -12   7    2.07    0.21
  -5 -12  -7    1.74    0.20
   5 -12   7    1.84    0.17
   5  12   7    1.79    0.20
  -5  12  -7    2.01    0.24
   6 -12   7   13.58    0.52
  -6 -12  -7   13.13    0.51
  -6  12  -7   12.68    0.55
   6  12   7   13.05    0.53
   7 -12   7   11.35    0.49
  -7 -12  -7   11.30    0.49
  -7  12  -7   10.89    0.52
   7  12   7   11.21    0.51
   8 -12   7   12.10    0.54
  -8 -12  -7   12.11    0.51
   8  12   7   13.24    0.56
  -8  12  -7   12.67    0.56
  -9 -12  -7   15.83    0.63
   9 -12   7   16.39    0.66
   9  12   7   16.61    0.68
  -9  12  -7   16.55    0.67
  10 -12   7    0.40    0.20
 -10 -12  -7    0.46    0.18
 -10  12  -7    0.59    0.20
  10  12   7    0.40    0.21
  11 -12   7   -0.04    0.19
 -11 -12  -7    0.02    0.16
  11  12   7   -0.11    0.20
 -12 -13   7    8.77    0.46
  12 -13  -7    9.59    0.82
  12 -13  -7    8.29    0.48
  12  13  -7    8.68    0.52
  11 -13  -7   10.66    0.51
 -11 -13   7   10.14    0.49
  11 -13  -7   10.46    0.56
  11  13  -7   10.76    0.54
  10 -13  -7    1.21    0.20
  10 -13  -7    1.10    0.22
 -10 -13   7    1.51    0.21
  10  13  -7    1.13    0.23
   9 -13  -7    2.71    0.30
  -9 -13   7    2.09    0.23
   9 -13  -7    2.97    0.28
   9  13  -7    2.04    0.24
  -8 -13   7    1.07    0.19
   8 -13  -7    1.44    0.20
   8 -13  -7    1.38    0.23
   8  13  -7    1.39    0.20
  -7 -13   7    7.14    0.37
   7 -13  -7    7.44    0.37
   7 -13  -7    7.30    0.43
   7  13  -7    7.50    0.39
   7  13  -7    6.54    0.36
   6 -13  -7    5.92    0.32
   6 -13  -7    6.45    0.39
  -6 -13   7    6.78    0.36
   6  13  -7    6.20    0.35
   6  13  -7    6.34    0.35
   5 -13  -7   13.48    0.56
   5 -13  -7   13.03    0.49
  -5 -13   7   13.58    0.52
   5  13  -7   13.76    0.53
   5  13  -7   13.35    0.51
   4 -13  -7   15.07    0.59
  -4 -13   7   15.95    0.56
  -4 -13   7   15.24    0.54
   4 -13  -7   15.26    0.53
   4  13  -7   14.56    0.57
   3 -13  -7   19.50    0.59
  -3 -13   7   19.65    0.63
   3 -13  -7   18.93    0.67
  -3 -13   7   19.72    0.66
   3 -13  -7   20.08    0.63
   3  13  -7   19.50    0.68
  -2 -13   7   19.14    0.64
   2 -13  -7   19.40    0.66
   2 -13  -7   19.24    0.59
   2 -13  -7   19.77    0.62
  -2 -13   7   19.84    0.63
   2  13  -7   19.54    0.68
   1 -13  -7   18.27    0.59
  -1 -13   7   17.74    0.59
  -1 -13   7   17.53    0.60
   1 -13  -7   18.86    0.58
   1 -13  -7   18.33    0.62
   1  13  -7   18.71    0.66
   0 -13   7    7.29    0.33
   0 -13  -7    7.00    0.31
   0 -13  -7    7.07    0.32
   0 -13  -7    6.85    0.33
   0 -13   7    6.71    0.33
   0  13  -7    6.58    0.38
  -1 -13  -7    9.25    0.37
  -1 -13  -7    9.06    0.38
  -1 -13  -7    9.29    0.38
   1 -13   7    8.94    0.38
   1 -13   7    9.81    0.39
  -1  13  -7    9.45    0.44
   2 -13   7    2.75    0.22
  -2 -13  -7    2.61    0.24
   2 -13   7    3.11    0.23
  -2 -13  -7    3.26    0.23
  -2  13  -7    3.30    0.27
   3 -13   7   13.76    0.48
   3 -13   7   13.31    0.49
  -3 -13  -7   13.31    0.50
   3  13   7   12.54    0.49
  -3  13  -7   13.57    0.56
   4 -13   7    9.73    0.38
  -4 -13  -7    9.16    0.42
   4 -13   7    9.52    0.42
   4  13   7    9.38    0.42
  -4  13  -7    9.43    0.47
   5 -13   7   15.13    0.56
  -5 -13  -7   15.07    0.56
  -5  13  -7   14.07    0.60
   5  13   7   14.83    0.57
  -6 -13  -7   13.53    0.54
   6 -13   7   13.32    0.54
   6  13   7   13.69    0.55
  -6  13  -7   13.59    0.59
   7 -13   7    5.03    0.35
  -7 -13  -7    5.87    0.36
  -7  13  -7    5.10    0.38
   7  13   7    5.25    0.36
   8 -13   7    5.02    0.36
  -8 -13  -7    4.91    0.35
   8  13   7    4.85    0.37
  -8  13  -7    4.18    0.36
   9 -13   7    1.80    0.24
  -9 -13  -7    2.17    0.26
  -9  13  -7    2.22    0.29
   9  13   7    2.14    0.28
 -10 -13  -7   -0.04    0.15
  10 -13   7   -0.06    0.18
 -10  13  -7   -0.06    0.16
  10  13   7    0.21    0.19
  12 -14  -7    0.56    0.24
 -12 -14   7    0.41    0.19
  11 -14  -7    2.54    0.29
 -11 -14   7    2.22    0.26
  11 -14  -7    2.55    0.32
  11  14  -7    2.66    0.31
 -10 -14   7    3.40    0.32
  10 -14  -7    3.08    0.29
  10 -14  -7    2.95    0.33
  10  14  -7    3.35    0.32
  -9 -14   7    5.31    0.36
   9 -14  -7    5.25    0.41
   9 -14  -7    4.90    0.36
   9  14  -7    5.33    0.38
  -8 -14   7    3.41    0.31
   8 -14  -7    3.10    0.28
   8 -14  -7    3.83    0.33
   8  14  -7    3.38    0.32
  -7 -14   7   18.57    0.67
   7 -14  -7   19.79    0.73
   7 -14  -7   19.21    0.67
   7  14  -7   18.65    0.67
   7  14  -7   18.56    0.68
   6 -14  -7    4.72    0.36
  -6 -14   7    4.85    0.32
   6 -14  -7    4.47    0.30
   6  14  -7    4.03    0.32
   6  14  -7    4.55    0.32
  -5 -14   7   13.67    0.54
   5 -14  -7   13.77    0.51
   5 -14  -7   13.85    0.57
   5  14  -7   13.04    0.54
   5  14  -7   14.13    0.54
  -4 -14   7   16.75    0.59
   4 -14  -7   16.53    0.63
   4 -14  -7   16.93    0.58
  -4 -14   7   16.69    0.60
   4  14  -7   15.82    0.61
   3 -14  -7   12.27    0.46
  -3 -14   7   12.46    0.49
   3 -14  -7   12.24    0.51
  -3 -14   7   11.84    0.47
   3  14  -7   12.05    0.51
   2 -14  -7   19.42    0.66
   2 -14  -7   18.84    0.62
  -2 -14   7   19.51    0.65
   2 -14  -7   19.32    0.60
  -2 -14   7   18.80    0.63
   2  14  -7   18.49    0.68
  -1 -14   7   17.79    0.60
   1 -14  -7   17.44    0.57
   1 -14  -7   17.97    0.59
  -1 -14   7   16.69    0.58
   1 -14  -7   17.35    0.60
   1  14  -7   16.35    0.63
   0 -14  -7    5.66    0.29
   0 -14   7    5.48    0.30
   0 -14  -7    5.68    0.29
   0 -14   7    5.70    0.31
   0 -14  -7    5.16    0.29
   0  14  -7    5.81    0.35
  -1 -14  -7   10.08    0.41
   1 -14   7    9.98    0.41
  -1 -14  -7   10.73    0.42
   1 -14   7   10.08    0.42
  -1 -14  -7    9.91    0.40
  -1  14  -7    9.72    0.47
  -2 -14  -7   17.36    0.59
   2 -14   7   16.04    0.56
  -2 -14  -7   16.31    0.57
   2 -14   7   16.38    0.58
  -2  14  -7   17.20    0.65
  -3 -14  -7   11.37    0.47
   3 -14   7   11.49    0.44
   3 -14   7   11.69    0.46
  -3  14  -7   11.46    0.51
   3  14   7   10.89    0.46
   4 -14   7   18.40    0.65
   4 -14   7   19.32    0.62
  -4 -14  -7   20.15    0.68
  -4  14  -7   19.33    0.73
   4  14   7   19.16    0.67
   5 -14   7    8.33    0.42
  -5 -14  -7    8.51    0.42
   5  14   7    8.80    0.43
  -5  14  -7    8.39    0.47
  -6 -14  -7   36.98    1.10
   6 -14   7   35.83    1.09
   6  14   7   34.74    1.10
  -6  14  -7   35.89    1.15
   7 -14   7    4.83    0.36
  -7 -14  -7    4.74    0.35
  -7  14  -7    4.90    0.36
   7  14   7    4.91    0.37
   8 -14   7    2.45    0.27
  -8 -14  -7    2.64    0.28
   8  14   7    2.68    0.29
  -8  14  -7    2.29    0.29
   9 -14   7    3.06    0.32
  -9 -14  -7    3.58    0.32
  -9  14  -7    3.48    0.34
   9  14   7    3.04    0.32
  10 -14   7    2.16    0.28
 -10 -14  -7    2.27    0.27
 -10  14  -7    2.48    0.31
  10  14   7    2.68    0.32
 -11  14  -7    6.23    0.51
  11 -15  -7    0.19    0.18
 -11 -15   7    0.05    0.17
  11  15  -7    0.24    0.20
  10 -15  -7   10.39    0.58
  10 -15  -7   11.11    0.52
 -10 -15   7    9.94    0.50
  10  15  -7   10.56    0.54
   9 -15  -7    6.45    0.39
  -9 -15   7    6.30    0.40
   9 -15  -7    5.87    0.45
   9  15  -7    6.14    0.42
   8 -15  -7    0.59    0.19
  -8 -15   7    0.51    0.18
   8 -15  -7    0.83    0.18
   8  15  -7    0.71    0.19
  -7 -15   7    5.74    0.36
   7 -15  -7    6.03    0.41
   7 -15  -7    5.16    0.34
   7  15  -7    5.64    0.37
   6 -15  -7    1.96    0.24
  -6 -15   7    1.60    0.21
   6 -15  -7    1.52    0.19
   6  15  -7    1.63    0.21
   6  15  -7    1.47    0.21
  -5 -15   7   10.70    0.48
   5 -15  -7   10.90    0.45
   5 -15  -7   10.72    0.51
   5  15  -7   10.68    0.47
   5  15  -7   10.33    0.49
   4 -15  -7   25.77    0.89
  -4 -15   7   27.70    0.85
   4 -15  -7   27.06    0.84
  -4 -15   7   27.15    0.87
   4  15  -7   27.13    0.89
   3 -15  -7    3.08    0.29
  -3 -15   7    3.34    0.26
  -3 -15   7    3.10    0.28
   3 -15  -7    3.22    0.25
   3  15  -7    3.17    0.30
  -2 -15   7    6.17    0.34
  -2 -15   7    7.00    0.36
   2 -15  -7    6.52    0.36
   2 -15  -7    6.77    0.34
   2 -15  -7    7.04    0.31
   2  15  -7    6.71    0.40
   1 -15  -7   13.28    0.53
  -1 -15   7   13.21    0.50
   1 -15  -7   13.54    0.48
  -1 -15   7   13.28    0.51
   1 -15  -7   13.28    0.50
   1  15  -7   13.32    0.56
   0 -15  -7    2.31    0.21
   0 -15   7    2.10    0.20
   0 -15  -7    1.77    0.19
   0 -15  -7    2.40    0.23
   0 -15   7    2.28    0.22
   0  15  -7    1.94    0.23
  -1 -15  -7   23.89    0.75
  -1 -15  -7   23.18    0.74
   1 -15   7   22.66    0.73
   1 -15   7   23.46    0.74
  -1  15  -7   22.41    0.80
   2 -15   7    8.06    0.38
   2 -15   7    7.80    0.36
  -2 -15  -7    7.61    0.38
  -2 -15  -7    8.06    0.38
  -2  15  -7    8.07    0.43
   3 -15   7   10.81    0.43
  -3 -15  -7   10.58    0.46
   3 -15   7   11.01    0.46
  -3  15  -7   10.68    0.52
   3  15   7   10.64    0.46
   4 -15   7   17.99    0.63
   4 -15   7   18.80    0.67
  -4 -15  -7   18.72    0.67
   4  15   7   18.39    0.67
  -4  15  -7   20.39    0.74
   5 -15   7   13.57    0.56
  -5 -15  -7   14.54    0.57
  -5  15  -7   13.78    0.63
   5  15   7   13.98    0.57
  -6 -15  -7    4.45    0.32
   6 -15   7    3.81    0.33
  -6  15  -7    4.21    0.38
   6  15   7    5.08    0.36
  -7 -15  -7    0.05    0.16
   7 -15   7    0.19    0.17
  -7  15  -7    0.02    0.17
   7  15   7    0.29    0.17
  -8 -15  -7    9.49    0.48
   8 -15   7    9.37    0.50
  -8  15  -7    9.00    0.52
   8  15   7    9.71    0.52
  -9 -15  -7    0.19    0.17
   9 -15   7   -0.25    0.17
  -9  15  -7    0.36    0.21
   9  15   7    0.29    0.18
 -10  15  -7   29.81    1.08
  10 -16  -7    1.10    0.22
 -10 -16   7    0.82    0.21
  10  16  -7    1.57    0.26
   9 -16  -7    4.53    0.36
  -9 -16   7    4.53    0.36
   9 -16  -7    4.53    0.41
   9  16  -7    4.83    0.39
  -8 -16   7   28.07    0.94
   8 -16  -7   28.16    1.00
   8 -16  -7   27.96    0.93
   8  16  -7   30.03    0.97
   7 -16  -7   12.16    0.53
  -7 -16   7   12.20    0.54
   7 -16  -7   11.75    0.58
   7  16  -7   12.36    0.55
   6 -16  -7   11.69    0.50
  -6 -16   7   11.85    0.52
   6 -16  -7   12.27    0.57
   6  16  -7   11.89    0.52
   6  16  -7   11.93    0.53
  -5 -16   7    3.73    0.32
   5 -16  -7    3.59    0.29
   5 -16  -7    3.99    0.35
   5  16  -7    3.83    0.31
   5  16  -7    3.84    0.34
  -4 -16   7    6.66    0.39
   4 -16  -7    6.86    0.41
   4 -16  -7    6.63    0.36
  -4 -16   7    6.80    0.37
   4  16  -7    7.02    0.41
  -3 -16   7    2.74    0.26
   3 -16  -7    2.29    0.25
   3 -16  -7    2.80    0.25
  -3 -16   7    2.34    0.24
   3  16  -7    2.78    0.28
  -2 -16   7    5.05    0.32
   2 -16  -7    5.66    0.42
   2 -16  -7    4.94    0.34
  -2 -16   7    4.60    0.32
   2 -16  -7    5.15    0.31
   2  16  -7    4.80    0.36
  -1 -16   7    5.28    0.33
   1 -16  -7    5.13    0.31
  -1 -16   7    5.42    0.33
   1 -16  -7    5.38    0.33
   1 -16  -7    5.20    0.30
   1  16  -7    4.90    0.34
   0 -16  -7   32.40    0.97
   0 -16   7   32.18    0.97
   0 -16  -7   32.03    0.95
   0 -16  -7   32.58    0.97
   0 -16   7   31.84    0.97
   0  16  -7   30.69    1.03
  -1 -16  -7    3.63    0.27
   1 -16   7    3.85    0.29
  -1 -16  -7    3.83    0.28
   1 -16   7    3.82    0.28
  -1  16  -7    3.57    0.34
  -2 -16  -7    6.34    0.35
   2 -16   7    6.31    0.34
   2 -16   7    6.93    0.37
  -2 -16  -7    6.48    0.36
  -2  16  -7    6.43    0.42
  -3 -16  -7   10.71    0.47
   3 -16   7   10.71    0.47
   3 -16   7   11.15    0.44
   3  16   7    9.95    0.47
  -3  16  -7   11.03    0.54
  -4 -16  -7    9.83    0.46
   4 -16   7    9.53    0.46
  -4  16  -7    9.67    0.52
   4  16   7   10.07    0.47
   5 -16   7    5.58    0.36
  -5 -16  -7    5.21    0.34
   5  16   7    5.84    0.38
  -5  16  -7    5.87    0.43
   6 -16   7    2.11    0.24
  -6 -16  -7    2.12    0.26
  -6  16  -7    2.41    0.31
   6  16   7    2.04    0.25
  -7 -16  -7    9.81    0.50
   7 -16   7   10.03    0.51
   7  16   7   10.57    0.53
  -7  16  -7   10.22    0.56
  -8 -16  -7    3.43    0.33
   8 -16   7    3.55    0.34
  -8  16  -7    3.84    0.37
   8  16   7    3.64    0.35
   9 -16   7   12.93    0.69
  -9  16  -7   13.04    0.65
   9  16   7   13.11    0.64
  10 -17  -7   10.08    0.59
  -9 -17   7    3.75    0.36
   9 -17  -7    4.12    0.45
   9 -17  -7    4.54    0.37
   9  17  -7    4.01    0.38
   8 -17  -7   14.48    0.61
   8 -17  -7   14.70    0.67
  -8 -17   7   14.10    0.61
   8  17  -7   14.81    0.65
  -7 -17   7    1.87    0.25
   7 -17  -7    1.53    0.22
   7 -17  -7    2.29    0.32
   7  17  -7    2.33    0.27
   6 -17  -7    9.13    0.52
   6 -17  -7   10.24    0.47
  -6 -17   7    8.76    0.47
   6  17  -7    9.50    0.54
   6  17  -7    9.70    0.49
   5 -17  -7    3.21    0.29
   5 -17  -7    4.51    0.38
  -5 -17   7    3.58    0.32
   5  17  -7    3.89    0.36
   5  17  -7    3.77    0.32
  -4 -17   7    2.07    0.25
  -4 -17   7    2.21    0.24
   4 -17  -7    2.40    0.23
   4 -17  -7    2.03    0.27
   4  17  -7    2.28    0.27
  -3 -17   7   19.74    0.70
   3 -17  -7   20.51    0.74
   3 -17  -7   20.11    0.70
  -3 -17   7   20.95    0.73
   3  17  -7   19.60    0.74
   2 -17  -7    5.07    0.32
  -2 -17   7    5.96    0.36
  -2 -17   7    5.55    0.34
   2 -17  -7    6.10    0.37
   2  17  -7    5.80    0.40
   1 -17  -7    2.03    0.22
  -1 -17   7    2.18    0.23
   1 -17  -7    2.54    0.26
  -1 -17   7    2.26    0.23
   1 -17  -7    2.63    0.25
   1  17  -7    2.86    0.30
   0 -17  -7    2.12    0.22
   0 -17   7    1.76    0.21
   0 -17   7    2.39    0.23
   0 -17  -7    2.12    0.21
   0  17  -7    1.77    0.24
   0  17   7    2.38    0.24
   1 -17   7    5.60    0.33
  -1 -17  -7    5.99    0.34
  -1 -17  -7    5.57    0.34
   1 -17   7    5.66    0.35
  -1  17  -7    5.70    0.41
  -2 -17  -7    6.64    0.37
  -2 -17  -7    6.81    0.37
   2 -17   7    6.72    0.38
   2 -17   7    6.41    0.35
  -2  17  -7    6.66    0.44
   3 -17   7    0.62    0.18
   3 -17   7    0.27    0.14
  -3 -17  -7    0.74    0.18
  -3  17  -7    0.48    0.20
   3  17   7    0.76    0.18
  -4 -17  -7    0.54    0.17
   4 -17   7    0.14    0.15
   4  17   7    0.46    0.16
  -4  17  -7    0.62    0.22
  -5 -17  -7   30.92    0.99
   5 -17   7   30.94    0.99
   5  17   7   30.78    1.01
  -5  17  -7   29.01    1.04
   6 -17   7   11.74    0.54
  -6 -17  -7   10.97    0.53
   6  17   7   11.04    0.54
  -6  17  -7   11.06    0.59
  -7 -17  -7   17.03    0.68
   7 -17   7   16.38    0.68
  -7  17  -7   17.07    0.75
   7  17   7   16.27    0.70
   8 -17   7    5.17    0.41
  -8  17  -7    4.61    0.45
   8  17   7    5.24    0.43
   9 -18  -7    3.95    0.36
   9  18  -7    3.43    0.49
   8 -18  -7    0.06    0.16
  -8 -18   7   -0.10    0.16
   8 -18  -7   -0.03    0.19
   8  18  -7    0.32    0.19
  -7 -18   7    0.44    0.19
   7 -18  -7    0.76    0.24
   7 -18  -7    0.72    0.19
   7  18  -7    0.82    0.21
  -6 -18   7    0.96    0.22
   6 -18  -7    0.85    0.19
   6 -18  -7    0.85    0.22
   6  18  -7    0.85    0.20
   5 -18  -7    1.67    0.25
  -5 -18   7    1.82    0.23
   5 -18  -7    1.80    0.23
   5  18  -7    1.96    0.27
   5  18  -7    2.05    0.25
  -4 -18   7    2.40    0.25
   4 -18  -7    2.62    0.26
  -4 -18   7    2.01    0.25
   4 -18  -7    2.24    0.27
   4  18  -7    2.28    0.28
  -3 -18   7    0.14    0.14
   3 -18  -7    0.24    0.17
   3 -18  -7    0.35    0.15
  -3 -18   7   -0.11    0.14
   3  18  -7    0.33    0.18
   2 -18  -7    1.42    0.20
  -2 -18   7    1.10    0.19
  -2 -18   7    0.96    0.19
   2  18  -7    0.95    0.22
  -1 -18   7    1.09    0.19
   1 -18  -7    1.53    0.20
   1 -18  -7    1.95    0.23
  -1 -18   7    1.52    0.20
  -1  18   7    1.74    0.23
   1  18  -7    1.40    0.24
   0 -18   7    0.10    0.14
   0 -18  -7    0.03    0.13
   0 -18  -7    0.14    0.13
   0 -18   7   -0.01    0.13
   0  18  -7    0.08    0.16
  -1 -18  -7    3.69    0.29
   1 -18   7    2.79    0.26
  -1 -18  -7    3.45    0.29
   1 -18   7    3.38    0.28
  -1  18  -7    3.15    0.33
  -2 -18  -7    3.79    0.31
  -2 -18  -7    3.48    0.30
   2 -18   7    3.54    0.31
   2 -18   7    3.38    0.29
  -2  18  -7    2.57    0.29
   3 -18   7    5.56    0.37
  -3 -18  -7    6.15    0.37
  -3  18  -7    4.94    0.42
   3  18   7    5.05    0.36
   4 -18   7    1.03    0.21
  -4 -18  -7    0.74    0.19
   4  18   7    0.74    0.19
  -4  18  -7    0.67    0.21
  -5 -18  -7    3.45    0.31
   5 -18   7    3.43    0.31
  -5  18  -7    3.02    0.36
   5  18   7    2.94    0.30
   6 -18   7    7.07    0.45
  -6 -18  -7    7.37    0.44
   6  18   7    7.39    0.46
  -6  18  -7    7.23    0.51
   7 -18   7    2.68    0.31
  -7 -18  -7    2.55    0.44
  -7  18  -7    3.11    0.45
   7  18   7    2.69    0.31
   8 -19  -7    2.25    0.28
   8  19  -7    3.34    0.52
   7 -19  -7    0.63    0.20
   7 -19  -7    0.88    0.28
  -7 -19   7    0.52    0.33
   7  19  -7    0.70    0.21
  -6 -19   7    5.40    0.40
   6 -19  -7    5.62    0.44
   6 -19  -7    5.79    0.39
   6  19  -7    5.68    0.41
   5 -19  -7    4.27    0.34
  -5 -19   7    4.62    0.37
   5 -19  -7    4.57    0.41
   5  19  -7    4.63    0.44
   5  19  -7    4.46    0.37
   4 -19  -7    0.20    0.15
   4 -19  -7    0.25    0.19
  -4 -19   7    0.35    0.18
  -4 -19   7    0.22    0.16
   4  19  -7    0.41    0.20
  -3 -19   7    0.76    0.19
   3 -19  -7    0.76    0.18
  -3 -19   7    0.77    0.19
   3  19  -7    0.63    0.22
   2 -19  -7    3.33    0.31
  -2 -19   7    2.89    0.28
  -2 -19   7    2.72    0.28
  -2  19   7    3.75    0.33
   2  19  -7    2.87    0.32
  -1 -19   7    4.24    0.33
  -1 -19   7    4.48    0.34
   1 -19  -7    4.72    0.34
  -1  19   7    4.40    0.35
   1  19  -7    4.04    0.38
   0 -19  -7    1.40    0.20
   0 -19   7    1.52    0.22
   0 -19  -7    1.15    0.20
   0 -19   7    1.31    0.21
   0  19  -7    1.47    0.25
  -1 -19  -7    3.89    0.33
  -1 -19  -7    4.27    0.32
   1 -19   7    3.87    0.31
   1 -19   7    4.26    0.34
  -1  19  -7    4.26    0.39
   2 -19   7    0.82    0.18
  -2 -19  -7    0.81    0.20
   2 -19   7    1.01    0.20
  -2 -19  -7    0.63    0.19
  -2  19  -7    0.80    0.24
  -3 -19  -7    4.90    0.37
   3 -19   7    5.27    0.37
   3  19   7    5.09    0.37
  -3  19  -7    5.24    0.44
   4 -19   7    7.37    0.44
  -4 -19  -7    7.55    0.44
  -4  19  -7    7.47    0.51
   4  19   7    7.31    0.44
   5 -19   7    1.40    0.24
  -5 -19  -7    1.29    0.23
   5  19   7    0.99    0.22
  -5  19  -7    1.00    0.27
   6 -19   7    5.41    0.41
   6  19   7    5.81    0.43
   6 -20  -7    1.23    0.22
   6  20  -7    0.78    0.22
  -5 -20   7    3.50    0.34
   5 -20  -7    3.48    0.33
   5  20  -7    4.41    0.38
  -4 -20   7    0.20    0.19
   4 -20  -7    0.32    0.18
  -4  20   7    0.26    0.20
   4  20  -7    0.46    0.22
   3 -20  -7    6.02    0.39
  -3 -20   7    5.68    0.39
  -3 -20   7    5.71    0.40
  -3  20   7    5.89    0.43
   3  20  -7    6.66    0.47
   2 -20  -7    2.21    0.26
  -2 -20   7    2.09    0.26
  -2 -20   7    1.95    0.26
   2  20  -7    2.26    0.30
  -2  20   7    2.23    0.29
   1 -20  -7    0.27    0.17
  -1 -20   7    0.16    0.15
  -1 -20   7   -0.04    0.16
   1  20  -7    0.05    0.20
   0 -20  -7    0.96    0.20
   0 -20   7    1.16    0.21
   0 -20  -7    1.33    0.29
   0 -20   7    1.45    0.23
   0  20  -7    1.62    0.29
  -1 -20  -7    4.75    0.36
   1 -20   7    5.25    0.37
  -1 -20  -7    5.04    0.35
   1 -20   7    5.29    0.37
  -1  20  -7    5.17    0.44
   2 -20   7    7.94    0.46
  -2 -20  -7    9.31    0.47
  -2  20  -7    9.21    0.53
   3 -20   7   13.32    0.60
  -3 -20  -7   13.34    0.59
   3  20   7   13.59    0.61
  -3  20  -7   14.49    0.69
  -4 -20  -7    0.66    0.21
   4 -20   7    0.73    0.21
  -4  20  -7    0.59    0.29
   4  20   7    0.77    0.21
   5 -20   7    1.30    0.35
   5  20   7    1.73    0.26
   5 -21  -7    7.91    0.53
   4 -21  -7    4.62    0.37
  -4  21   7    4.12    0.39
   4  21  -7    3.88    0.56
  -3 -21   7    3.91    0.37
   3 -21  -7    4.64    0.37
  -3 -21   7    3.90    0.37
   3  21  -7    4.83    0.44
  -3  21   7    4.95    0.41
   2 -21  -7    0.67    0.19
  -2 -21   7    0.85    0.21
  -2 -21   7    0.77    0.20
  -2  21   7    0.56    0.25
   2  21  -7    0.56    0.23
  -1 -21   7   11.33    0.55
  -1 -21   7   11.38    0.54
   1 -21  -7   11.54    0.54
   1  21  -7   11.30    0.61
   0 -21  -7    5.05    0.39
   0 -21   7    5.54    0.40
   0 -21   7    5.27    0.37
   0  21  -7    5.96    0.47
  -1 -21  -7    3.37    0.31
  -1 -21  -7    2.90    0.31
   1 -21   7    2.76    0.29
   1 -21   7    3.36    0.31
  -1  21  -7    1.99    0.31
   2 -21   7    5.91    0.42
  -2 -21  -7    5.71    0.39
  -2  21  -7    6.55    0.58
   3 -21   7    1.71    0.29
  -3 -21  -7    1.95    0.27
   3  21   7    2.03    0.28
   3  22  -7    0.83    0.25
  -3  22   7    0.52    0.23
   2  22  -7    6.34    0.49
   1 -22  -7    1.04    0.27
  -1 -22   7    1.37    0.25
   1  22  -7    0.85    0.35
   0 -22  -7    5.41    0.57
   0 -22   7    6.59    0.42
  -2 -22  -7    3.07    0.40
  15   0  -8    0.67    0.25
  14   0  -8    0.42    0.21
  13   0  -8    3.86    0.35
  13   0  -8    5.16    0.49
  12   0  -8    8.66    0.43
  12   0  -8    8.32    0.43
  11   0  -8   11.30    0.50
  11   0  -8   11.66    0.49
  10   0  -8   33.99    1.03
  10   0  -8   34.03    1.00
   9   0  -8   12.08    0.48
   9   0  -8   11.65    0.44
   8   0  -8  142.00    3.52
   8   0  -8  143.82    3.58
  -8   0   8  141.06    3.47
   7   0  -8   36.33    1.04
   7   0  -8   36.21    0.98
  -7   0   8   36.33    0.95
  -6   0   8   55.38    1.41
   6   0  -8   55.81    1.49
   6   0  -8   55.87    1.42
  -5   0   8    1.51    0.13
   5   0  -8    1.42    0.15
  -4   0   8   10.01    0.33
   4   0  -8   10.07    0.37
   4   0  -8    9.98    0.29
   3   0  -8   31.17    0.76
  -3   0   8   29.89    0.82
   2   0  -8   87.88    2.23
  -2   0   8   89.41    2.20
   1   0  -8   22.54    0.65
  -1   0   8   23.05    0.64
   0   0  -8   19.54    0.58
   0   0   8   20.59    0.58
   1   0   8   16.80    0.43
  -1   0  -8   16.08    0.49
   2   0   8    4.78    0.18
   2   0   8    4.69    0.22
  -2   0  -8    4.51    0.20
   3   0   8   79.19    1.90
  -3   0  -8   70.85    1.91
   3   0   8   79.39    1.94
  -4   0  -8    1.92    0.13
   4   0   8    2.23    0.17
   4   0   8    2.37    0.17
  -5   0  -8    0.59    0.08
   5   0   8    0.80    0.13
   5   0   8    0.93    0.13
   6   0   8   12.20    0.44
   6   0   8   12.10    0.43
   7   0   8   30.21    0.90
   7   0   8   30.88    0.88
   8   0   8   20.74    0.66
   8   0   8   20.71    0.69
   9   0   8    1.63    0.18
   9   0   8    1.26    0.20
  10   0   8    5.17    0.37
  10   0   8    5.53    0.32
  11   0   8    2.41    0.28
  12   0   8   10.73    0.55
  13   0   8    2.55    0.33
  15  -1  -8    0.28    0.22
  15   1  -8    0.24    0.23
  14  -1  -8    0.86    0.23
  14   1  -8    0.69    0.22
  13  -1  -8    8.09    0.45
  13  -1  -8    8.13    0.44
  13   1  -8    7.64    0.45
  12  -1  -8    7.58    0.43
  12  -1  -8    7.47    0.42
  12   1  -8    7.94    0.42
  12   1  -8    7.81    0.40
  11  -1  -8   11.03    0.48
  11  -1  -8   10.42    0.46
  11   1  -8   11.31    0.49
  11   1  -8   11.04    0.48
  10  -1  -8    4.44    0.30
  10  -1  -8    4.52    0.31
  10   1  -8    4.88    0.31
  10   1  -8    4.64    0.30
   9  -1  -8   20.58    0.66
   9  -1  -8   20.29    0.69
   9   1  -8   20.58    0.65
   9   1  -8   21.31    0.69
  -8  -1   8   30.91    0.83
   8  -1  -8   30.66    0.92
   8  -1  -8   30.43    0.87
   8   1  -8   31.21    0.92
  -8   1   8   30.49    0.86
   8   1  -8   30.38    0.88
   7  -1  -8   27.91    0.84
  -7  -1   8   27.51    0.77
   7  -1  -8   27.89    0.79
   7   1  -8   28.42    0.80
   7   1  -8   29.71    0.85
  -7   1   8   28.67    0.75
   6  -1  -8    9.32    0.37
   6  -1  -8    9.79    0.33
  -6  -1   8    9.49    0.32
   6   1  -8   10.01    0.38
   6   1  -8    9.65    0.33
  -6   1   8    9.18    0.31
  -5  -1   8    4.43    0.20
   5  -1  -8    4.85    0.24
  -5   1   8    4.60    0.20
   5   1  -8    4.49    0.24
   4  -1  -8   45.94    1.14
  -4  -1   8   44.41    1.18
   4   1  -8   46.49    1.14
   4   1  -8   47.15    1.23
  -4   1   8   44.63    1.17
  -3  -1   8    6.27    0.25
   3  -1  -8    6.76    0.28
   3  -1  -8    6.56    0.18
  -3   1   8    6.49    0.25
   3   1  -8    6.48    0.19
  -2  -1   8  131.26    3.12
   2  -1  -8  123.47    3.14
  -2   1   8  126.66    3.11
   2   1  -8  125.88    3.14
   1  -1  -8   50.51    1.31
  -1  -1   8   52.02    1.30
   1   1  -8   48.65    1.31
  -1   1   8   50.88    1.30
   0  -1   8    4.60    0.13
   0  -1  -8    4.77    0.21
   0  -1   8    4.74    0.21
   0   1  -8    4.26    0.21
   0   1   8    4.75    0.13
   0   1   8    4.48    0.21
  -1  -1  -8   19.76    0.56
   1  -1   8   19.66    0.50
   1   1   8   18.65    0.56
  -1   1  -8   19.24    0.56
   1   1   8   19.18    0.50
   2  -1   8    9.38    0.34
   2  -1   8    9.81    0.30
  -2   1  -8   10.45    0.34
   2   1   8    9.52    0.34
   2   1   8    9.85    0.30
   3  -1   8   44.37    1.12
   3  -1   8   44.17    1.16
   3   1   8   42.94    1.12
  -3   1  -8   43.86    1.14
   3   1   8   43.17    1.16
   4  -1   8   65.46    1.67
   4  -1   8   65.79    1.64
  -4   1  -8   65.44    1.64
   4   1   8   63.57    1.64
   4   1   8   63.35    1.67
   5  -1   8   12.88    0.43
   5  -1   8   11.92    0.42
   5   1   8   12.19    0.43
  -5   1  -8   12.17    0.39
   5   1   8   12.23    0.42
   6  -1   8   20.91    0.66
   6  -1   8   22.37    0.67
   6   1   8   21.57    0.67
   6   1   8   22.72    0.68
  -6   1  -8   22.17    0.63
   7  -1   8    5.24    0.30
   7  -1   8    5.18    0.27
   7   1   8    4.70    0.30
   7   1   8    4.86    0.27
   8  -1   8    7.86    0.38
   8  -1   8    7.19    0.34
   8   1   8    7.32    0.37
   8   1   8    7.53    0.35
   9  -1   8   10.12    0.40
   9  -1   8    9.01    0.44
   9   1   8    9.81    0.45
   9   1   8    9.76    0.41
  10  -1   8    0.45    0.19
  10   1   8    0.65    0.15
  10   1   8    0.25    0.15
  11  -1   8    2.27    0.26
  11   1   8    2.73    0.30
  12  -1   8    2.06    0.27
  12   1   8    2.50    0.31
  13  -1   8    0.00    0.20
  13   1   8   -0.31    0.21
  15  -2  -8    6.83    0.48
  15   2  -8    6.89    0.48
  14  -2  -8    3.74    0.34
  14   2  -8    3.35    0.33
  13  -2  -8    7.63    0.44
  13  -2  -8    8.59    0.44
  13   2  -8    7.94    0.46
  12  -2  -8   10.58    0.47
  12  -2  -8   10.22    0.49
  12   2  -8    9.27    0.48
  12   2  -8   10.36    0.47
  11  -2  -8   12.09    0.49
  11  -2  -8   11.74    0.52
  11   2  -8   11.69    0.49
  11   2  -8   12.15    0.50
  10  -2  -8   30.85    0.93
  10  -2  -8   31.34    0.97
  10   2  -8   31.68    0.96
  10   2  -8   32.47    0.95
  -9  -2   8    1.33    0.13
   9  -2  -8    1.08    0.17
   9  -2  -8    1.22    0.16
   9   2  -8    1.24    0.17
   9   2  -8    1.62    0.19
   8  -2  -8   43.98    1.25
  -8  -2   8   45.69    1.17
   8  -2  -8   45.19    1.20
   8   2  -8   44.00    1.24
   8   2  -8   43.24    1.20
   7  -2  -8   44.03    1.16
  -7  -2   8   43.63    1.15
   7  -2  -8   43.62    1.23
   7   2  -8   45.01    1.22
  -7   2   8   43.21    1.11
   7   2  -8   43.86    1.17
   6  -2  -8    2.18    0.15
   6  -2  -8    2.06    0.19
  -6  -2   8    2.08    0.15
   6   2  -8    2.05    0.19
   6   2  -8    1.90    0.16
  -6   2   8    2.27    0.14
   5  -2  -8   21.84    0.66
  -5  -2   8   20.65    0.60
  -5   2   8   20.83    0.58
   5   2  -8   21.66    0.65
  -4  -2   8    3.98    0.21
   4  -2  -8    3.95    0.16
   4   2  -8    4.91    0.24
  -4   2   8    4.28    0.19
   4   2  -8    4.64    0.17
   3  -2  -8   21.12    0.54
   3  -2  -8   20.72    0.63
  -3  -2   8   23.06    0.62
  -3   2   8   21.00    0.59
   3   2  -8   20.14    0.63
   3   2  -8   22.40    0.55
  -2  -2   8  140.60    3.32
   2  -2  -8  134.49    3.33
   2  -2  -8  136.67    3.23
  -2   2   8  137.12    3.30
   2   2  -8  120.83    3.33
   2   2  -8  139.88    3.24
  -1  -2   8  101.24    2.44
   1  -2  -8   96.31    2.44
  -1   2   8   99.02    2.43
   1   2  -8   95.75    2.46
   0  -2  -8   41.97    1.14
   0  -2   8   42.68    1.07
   0   2   8   45.26    1.07
   0   2  -8   43.33    1.16
   0   2   8   46.16    1.15
   1  -2   8   36.06    0.88
   1  -2   8   36.20    0.95
  -1  -2  -8   33.23    0.92
  -1   2  -8   33.93    0.95
   1   2   8   35.62    0.88
   1   2   8   35.55    0.94
   2  -2   8   12.57    0.41
   2  -2   8   12.37    0.36
  -2   2  -8   12.35    0.41
   2   2   8   12.57    0.37
   3  -2   8   26.52    0.75
   3  -2   8   26.38    0.71
   3   2   8   26.63    0.75
  -3   2  -8   26.87    0.74
   3   2   8   26.21    0.72
   4  -2   8    7.97    0.30
  -4  -2  -8    8.57    0.27
   4  -2   8    8.12    0.32
   4   2   8    8.15    0.33
  -4   2  -8    7.95    0.30
   4   2   8    8.01    0.31
  -5  -2  -8    6.07    0.21
   5  -2   8    5.80    0.27
   5  -2   8    5.93    0.28
  -5   2  -8    5.54    0.25
   5   2   8    6.13    0.28
   6  -2   8   32.70    0.91
   6  -2   8   31.47    0.89
   6   2   8   31.75    0.91
  -6   2  -8   31.42    0.88
   7  -2   8   48.63    1.31
   7  -2   8   48.70    1.29
   7   2   8   46.19    1.31
   8  -2   8   32.32    0.96
   8  -2   8   32.74    0.93
   8   2   8   32.21    0.97
   8   2   8   31.94    0.94
   9  -2   8    3.59    0.25
   9  -2   8    3.41    0.29
   9   2   8    3.53    0.31
   9   2   8    3.61    0.26
  10  -2   8    1.81    0.24
  10   2   8    2.03    0.25
  10   2   8    2.16    0.21
  11  -2   8    0.11    0.18
  11   2   8   -0.17    0.17
  12  -2   8    1.26    0.25
  12   2   8    1.46    0.26
  13  -2   8    4.44    0.39
  13   2   8    3.84    0.38
  15  -3  -8    9.43    0.53
  15   3  -8    8.66    0.53
  14  -3  -8    3.29    0.32
  14   3  -8    4.24    0.39
  13  -3  -8    0.89    0.20
  13  -3  -8    0.65    0.20
  13   3  -8    0.82    0.23
  12  -3  -8    2.79    0.27
  12  -3  -8    2.87    0.28
  12   3  -8    2.95    0.29
  12   3  -8    2.88    0.38
  11  -3  -8   30.03    0.92
  11  -3  -8   29.87    0.96
  11   3  -8   29.32    0.92
  11   3  -8   29.92    0.94
  10  -3  -8    6.11    0.36
  10  -3  -8    6.42    0.34
  10   3  -8    5.94    0.34
  10   3  -8    6.21    0.34
  -9  -3   8    0.20    0.09
   9  -3  -8    0.29    0.14
   9  -3  -8    0.31    0.12
   9   3  -8    0.21    0.12
   9   3  -8    0.08    0.13
   8  -3  -8   34.86    1.04
   8  -3  -8   35.36    0.99
  -8  -3   8   36.60    0.97
   8   3  -8   35.32    1.03
   8   3  -8   35.84    1.00
   7  -3  -8   10.46    0.42
  -7  -3   8    9.83    0.35
   7  -3  -8   10.05    0.36
   7   3  -8   10.45    0.41
  -7   3   8   10.18    0.31
   7   3  -8   10.23    0.38
   6  -3  -8   27.02    0.81
  -6  -3   8   27.37    0.76
   6  -3  -8   27.25    0.74
   6   3  -8   27.61    0.76
  -6   3   8   26.98    0.72
   6   3  -8   27.15    0.81
  -5  -3   8   15.60    0.46
   5   3  -8   15.59    0.51
   5   3  -8   13.48    0.43
  -5   3   8   14.61    0.43
   4  -3  -8    6.61    0.21
   4  -3  -8    5.31    0.27
  -4  -3   8    6.27    0.26
   4   3  -8    6.36    0.22
   4   3  -8    7.08    0.30
  -4   3   8    6.14    0.23
   3  -3  -8    5.37    0.17
   3  -3  -8    5.70    0.26
  -3  -3   8    5.54    0.24
   3   3  -8    5.92    0.26
  -3   3   8    5.28    0.22
   3   3  -8    6.03    0.19
  -2  -3   8   79.49    1.95
   2  -3  -8   75.40    1.95
   2  -3  -8   77.29    1.86
   2   3  -8   78.37    1.87
  -2   3   8   74.90    1.92
  -1  -3   8  132.24    3.24
   1  -3  -8  130.92    3.32
  -1  -3   8  140.70    3.32
  -1   3   8  137.78    3.30
   1   3  -8  132.21    3.34
   0  -3  -8   24.11    0.67
   0  -3   8   24.07    0.61
   0   3  -8   23.43    0.69
   0   3   8   24.36    0.61
   0   3   8   24.15    0.67
   1  -3   8   16.06    0.44
   1  -3   8   17.05    0.51
   1   3   8   17.13    0.51
  -1   3  -8   16.51    0.51
   1   3   8   16.45    0.45
   2  -3   8   17.77    0.54
   2  -3   8   17.53    0.49
   2   3   8   17.95    0.50
  -2   3  -8   17.97    0.54
  -3  -3  -8   38.97    1.02
  -3  -3  -8   38.69    0.97
   3  -3   8   37.71    0.99
   3  -3   8   37.73    1.02
   3   3   8   36.67    0.99
  -3   3  -8   37.18    1.02
  -4  -3  -8   16.59    0.52
   4  -3   8   15.35    0.50
   4  -3   8   15.80    0.49
  -4  -3  -8   16.21    0.44
   4   3   8   15.99    0.49
  -4   3  -8   16.09    0.50
  -5  -3  -8   24.03    0.70
   5  -3   8   23.13    0.69
   5  -3   8   24.32    0.69
  -5   3  -8   22.60    0.68
   5   3   8   23.14    0.69
   6  -3   8    8.85    0.36
   6  -3   8    9.36    0.37
  -6  -3  -8    9.05    0.37
  -6   3  -8    9.07    0.35
   6   3   8    8.90    0.38
   7  -3   8   20.74    0.63
   7  -3   8   19.87    0.64
  -7  -3  -8   19.24    0.63
   7   3   8   19.43    0.65
  -7   3  -8   19.88    0.61
  -8  -3  -8    3.42    0.25
   8  -3   8    3.54    0.25
   8  -3   8    3.72    0.28
   8   3   8    3.06    0.28
   9  -3   8    5.67    0.40
   9  -3   8    4.63    0.33
   9   3   8    5.02    0.35
  10  -3   8    6.04    0.38
  10   3   8    5.90    0.38
  11  -3   8    6.55    0.42
  11   3   8    6.48    0.43
  11   3   8    7.87    0.39
  12  -3   8    9.36    0.51
  12   3   8    9.22    0.53
  13  -3   8    2.40    0.30
  13   3   8    2.96    0.34
  15  -4  -8    2.19    0.34
  15   4  -8    1.65    0.31
  14  -4  -8    2.62    0.29
  14  -4  -8    3.23    0.32
  14   4  -8    2.23    0.30
  13  -4  -8    6.43    0.40
  13  -4  -8    6.34    0.42
  13   4  -8    6.56    0.43
  12  -4  -8    2.40    0.25
  12  -4  -8    2.70    0.28
  12   4  -8    2.14    0.25
  11  -4  -8    2.10    0.24
  11  -4  -8    2.09    0.22
  11   4  -8    2.18    0.22
  11   4  -8    2.12    0.24
  10  -4  -8   13.60    0.51
  10  -4  -8   13.51    0.55
 -10  -4   8   13.98    0.49
  10   4  -8   13.97    0.53
  10   4  -8   13.25    0.53
   9  -4  -8   12.36    0.46
  -9  -4   8   12.42    0.43
   9  -4  -8   12.25    0.51
   9   4  -8   12.39    0.49
   9   4  -8   13.00    0.48
  -8  -4   8   75.39    1.91
   8  -4  -8   75.45    1.92
   8  -4  -8   74.79    1.99
   8   4  -8   72.59    1.96
   8   4  -8   74.82    1.93
   7  -4  -8   11.77    0.46
  -7  -4   8   12.29    0.41
   7  -4  -8   12.49    0.41
   7   4  -8   11.90    0.45
   7   4  -8   11.59    0.43
   6  -4  -8    6.45    0.26
  -6  -4   8    6.58    0.27
   6  -4  -8    6.24    0.31
   6   4  -8    6.45    0.31
   6   4  -8    6.39    0.27
  -6   4   8    6.44    0.23
   5  -4  -8   29.42    0.79
  -5  -4   8   31.14    0.83
   5   4  -8   29.96    0.81
  -5   4   8   29.53    0.79
   5   4  -8   30.27    0.87
   4  -4  -8    6.87    0.29
  -4  -4   8    6.79    0.28
   4   4  -8    6.72    0.29
  -4   4   8    6.81    0.24
   3  -4  -8   44.24    1.21
  -3  -4   8   45.84    1.19
   3  -4  -8   45.10    1.13
   3   4  -8   47.27    1.23
   3   4  -8   46.85    1.15
  -3   4   8   43.87    1.16
  -2  -4   8   18.37    0.54
   2  -4  -8   17.87    0.55
   2  -4  -8   18.00    0.47
  -2   4   8   17.80    0.52
  -1  -4   8   16.75    0.44
  -1  -4   8   16.82    0.50
   1  -4  -8   16.78    0.43
   1  -4  -8   15.93    0.50
  -1   4   8   16.09    0.49
   1   4  -8   15.96    0.52
   0  -4   8    2.03    0.10
   0  -4   8    2.31    0.16
   0  -4  -8    2.21    0.14
   0   4   8    2.30    0.16
   0   4  -8    1.91    0.16
   0   4   8    2.35    0.11
  -1  -4  -8   24.97    0.67
   1  -4   8   23.97    0.68
   1  -4   8   23.79    0.62
  -1  -4  -8   20.62    0.64
   1   4   8   24.32    0.63
  -1   4  -8   23.99    0.69
   2  -4   8   14.45    0.45
  -2  -4  -8   12.92    0.44
   2  -4   8   13.82    0.40
   2   4   8   14.06    0.41
  -2   4  -8   14.06    0.46
   3  -4   8   28.41    0.80
   3  -4   8   28.97    0.78
  -3  -4  -8   27.30    0.80
  -3  -4  -8   29.48    0.75
  -3   4  -8   28.90    0.82
   3   4   8   29.05    0.78
   4  -4   8   14.47    0.46
  -4  -4  -8   14.80    0.40
   4  -4   8   14.02    0.47
  -4  -4  -8   14.76    0.48
   4   4   8   14.16    0.46
  -4   4  -8   13.99    0.47
   5  -4   8   25.15    0.73
  -5  -4  -8   25.90    0.75
   5  -4   8   25.76    0.74
   5   4   8   24.99    0.74
  -5   4  -8   24.45    0.74
   6  -4   8   40.56    1.10
  -6  -4  -8   39.35    1.10
   6  -4   8   39.54    1.08
  -6   4  -8   38.91    1.08
   6   4   8   38.79    1.10
  -7  -4  -8   33.56    0.97
   7  -4   8   33.83    0.97
   7  -4   8   34.34    0.95
   7   4   8   33.45    0.98
  -7   4  -8   33.00    0.95
   8  -4   8    8.25    0.39
  -8  -4  -8    7.55    0.36
   8  -4   8    7.99    0.34
   8   4   8    7.67    0.39
  -9  -4  -8    7.16    0.35
   9  -4   8    6.57    0.38
   9   4   8    6.64    0.39
  10  -4   8    2.74    0.27
 -10  -4  -8    2.72    0.25
  10   4   8    2.66    0.27
  11  -4   8   27.54    0.92
  11   4   8   27.06    0.93
  12  -4   8   -0.15    0.18
  12   4   8   -0.16    0.20
  13  -4   8    2.56    0.32
  13   4   8    2.43    0.34
  14  -5  -8    3.01    0.32
  14  -5  -8    2.21    0.29
  14   5  -8    2.26    0.30
  13  -5  -8    0.73    0.21
  13  -5  -8    0.92    0.21
  13   5  -8    0.63    0.21
  12  -5  -8   23.38    0.82
  12  -5  -8   22.12    0.78
  12   5  -8   23.34    0.81
  11  -5  -8    2.13    0.23
  11  -5  -8    2.04    0.25
  11   5  -8    2.71    0.24
  11   5  -8    2.09    0.25
  10  -5  -8    2.41    0.25
  10  -5  -8    2.01    0.21
 -10  -5   8    2.11    0.18
  10   5  -8    2.50    0.23
  10   5  -8    1.93    0.21
   9  -5  -8   10.42    0.46
   9  -5  -8   10.63    0.42
  -9  -5   8   10.22    0.39
   9   5  -8   10.98    0.44
   9   5  -8   10.25    0.44
   8  -5  -8    4.72    0.31
   8  -5  -8    4.12    0.25
  -8  -5   8    4.53    0.24
   8   5  -8    4.21    0.27
   8   5  -8    4.84    0.28
  -7  -5   8   26.68    0.77
   7  -5  -8   26.73    0.77
   7  -5  -8   26.74    0.84
   7   5  -8   26.49    0.78
   7   5  -8   27.83    0.82
  -6  -5   8    0.50    0.11
   6  -5  -8    0.48    0.09
   6  -5  -8    0.24    0.09
  -6   5   8    0.76    0.08
   6   5  -8    0.60    0.11
   6   5  -8    0.54    0.13
   5  -5  -8   20.47    0.58
  -5  -5   8   20.31    0.61
   5   5  -8   20.28    0.64
   5   5  -8   20.85    0.59
  -5   5   8   20.62    0.56
  -4  -5   8   14.65    0.46
   4  -5  -8   14.53    0.49
   4   5  -8   13.78    0.49
   4   5  -8   14.57    0.43
  -4   5   8   13.95    0.42
  -3  -5   8    9.11    0.32
   3  -5  -8    8.51    0.34
   3  -5  -8    7.97    0.26
   3   5  -8    9.06    0.35
  -3   5   8    8.58    0.29
   2  -5  -8   31.07    0.88
  -2  -5   8   32.83    0.87
  -2  -5   8   30.62    0.81
   2  -5  -8   31.29    0.80
   2   5  -8   32.80    0.90
  -2   5   8   30.68    0.84
   1  -5  -8   33.82    0.84
  -1  -5   8   32.73    0.84
   1  -5  -8   32.46    0.90
  -1   5   8   32.77    0.88
   0  -5  -8   65.65    1.70
   0  -5   8   66.29    1.66
   0  -5  -8   67.24    1.70
   0  -5   8   67.63    1.72
   0   5  -8   68.54    1.74
  -1  -5  -8   41.58    1.09
   1  -5   8   41.15    1.05
   1  -5   8   41.69    1.10
  -1  -5  -8   40.63    1.07
  -1   5  -8   40.93    1.12
   1   5   8   41.23    1.05
  -2  -5  -8   12.94    0.43
   2  -5   8   12.88    0.39
   2  -5   8   13.32    0.44
  -2   5  -8   13.04    0.45
   2   5   8   13.14    0.40
   3  -5   8   20.73    0.63
   3  -5   8   21.53    0.61
  -3  -5  -8   22.51    0.58
  -3   5  -8   21.67    0.66
   3   5   8   20.75    0.61
  -4  -5  -8   26.63    0.81
   4  -5   8   29.10    0.79
   4  -5   8   28.96    0.80
   4   5   8   28.47    0.80
  -4   5  -8   27.79    0.82
  -5  -5  -8   99.28    2.53
   5  -5   8  104.33    2.53
   5  -5   8  100.08    2.51
   5   5   8   98.17    2.53
  -5   5  -8   98.53    2.54
   6  -5   8   24.23    0.72
  -6  -5  -8   23.14    0.73
   6  -5   8   25.11    0.74
  -6   5  -8   23.35    0.73
   6   5   8   24.32    0.74
   7  -5   8    5.49    0.31
   7  -5   8    5.38    0.28
  -7  -5  -8    5.63    0.30
   7   5   8    5.29    0.32
  -7   5  -8    5.68    0.30
  -8  -5  -8    3.34    0.25
   8  -5   8    2.87    0.27
   8  -5   8    2.87    0.23
   8   5   8    2.89    0.27
  -8   5  -8    2.72    0.23
  -9  -5  -8    8.92    0.41
   9  -5   8    8.55    0.43
   9   5   8    9.94    0.46
  10  -5   8    6.49    0.40
 -10  -5  -8    7.25    0.38
  10   5   8    7.02    0.42
 -11  -5  -8    3.94    0.30
  11  -5   8    4.09    0.36
  11   5   8    4.03    0.34
  12  -5   8    8.86    0.50
  12   5   8    8.45    0.51
  13  -5   8    7.61    0.56
  13   5   8    7.26    0.52
  14  -6  -8    0.08    0.18
  14  -6  -8    0.56    0.21
  14   6  -8    0.41    0.22
  13  -6  -8    0.08    0.17
  13  -6  -8    0.36    0.18
  13   6  -8    0.21    0.20
  12  -6  -8    7.86    0.45
  12  -6  -8    7.65    0.42
  12   6  -8    8.02    0.45
  11  -6  -8    5.35    0.37
  11  -6  -8    5.25    0.34
  11   6  -8    5.81    0.37
 -10  -6   8    4.01    0.24
  10  -6  -8    3.75    0.29
  10  -6  -8    4.25    0.29
  10   6  -8    3.37    0.28
  10   6  -8    3.54    0.31
   9  -6  -8    5.93    0.31
   9  -6  -8    5.84    0.34
  -9  -6   8    5.51    0.29
   9   6  -8    6.13    0.35
   9   6  -8    5.84    0.33
   8  -6  -8    0.81    0.16
   8  -6  -8    0.70    0.13
  -8  -6   8    1.29    0.15
   8   6  -8    1.25    0.17
   8   6  -8    1.08    0.16
   7  -6  -8    5.99    0.33
  -7  -6   8    5.49    0.27
   7  -6  -8    5.28    0.26
   7   6  -8    5.37    0.29
   7   6  -8    5.58    0.30
   6  -6  -8    1.40    0.13
  -6  -6   8    1.33    0.14
   6  -6  -8    0.83    0.13
   6   6  -8    1.58    0.15
   6   6  -8    1.27    0.16
  -5  -6   8   10.97    0.39
   5  -6  -8   10.76    0.35
   5   6  -8   10.68    0.41
   5   6  -8   10.93    0.37
  -5   6   8   10.62    0.33
   4  -6  -8   45.48    1.19
  -4  -6   8   46.61    1.24
   4  -6  -8   48.11    1.28
   4   6  -8   46.74    1.21
  -4   6   8   46.31    1.19
   4   6  -8   48.09    1.28
  -3  -6   8   26.36    0.73
   3  -6  -8   24.90    0.74
   3   6  -8   25.09    0.68
  -3   6   8   24.29    0.68
   3   6  -8   24.62    0.75
  -2  -6   8  156.78    3.69
   2  -6  -8  145.50    3.69
  -2  -6   8  146.15    3.63
   2   6  -8  153.50    3.72
  -2   6   8  145.78    3.65
   1  -6  -8    3.20    0.17
   1  -6  -8    3.24    0.18
   1  -6  -8    2.34    0.12
  -1  -6   8    3.02    0.14
   0  -6   8   12.54    0.37
   0  -6  -8   12.75    0.40
   0  -6   8   12.72    0.42
   0  -6  -8   12.35    0.41
   0   6  -8   12.10    0.44
  -1  -6  -8    2.18    0.14
  -1  -6  -8    2.16    0.17
   1  -6   8    2.12    0.17
   1  -6   8    2.06    0.13
   1   6   8    2.09    0.13
  -1   6  -8    2.16    0.19
   2  -6   8    2.96    0.21
  -2  -6  -8    3.10    0.20
   2  -6   8    3.08    0.16
   2   6   8    2.69    0.16
  -2   6  -8    3.16    0.22
  -3  -6  -8   38.33    0.96
   3  -6   8   38.26    1.02
   3  -6   8   36.89    0.99
   3   6   8   37.02    1.00
  -3   6  -8   36.21    1.04
   4  -6   8   11.83    0.42
   4  -6   8   11.78    0.41
  -4   6  -8   12.28    0.45
   4   6   8   12.03    0.42
   5  -6   8   24.59    0.72
  -5  -6  -8   23.74    0.73
   5  -6   8   24.59    0.72
  -5   6  -8   24.29    0.74
   5   6   8   23.69    0.73
   6  -6   8   15.07    0.51
   6  -6   8   14.72    0.49
  -6  -6  -8   14.34    0.51
  -6   6  -8   14.64    0.52
   6   6   8   13.63    0.52
   7  -6   8   11.82    0.43
   7  -6   8   11.99    0.47
  -7  -6  -8   12.31    0.46
   7   6   8   11.52    0.47
  -7   6  -8   11.38    0.46
  -8  -6  -8   15.57    0.56
   8  -6   8   15.30    0.57
   8   6   8   14.94    0.58
  -8   6  -8   15.45    0.55
   9  -6   8    7.22    0.39
  -9  -6  -8    6.92    0.36
   9   6   8    7.06    0.40
  10  -6   8    1.38    0.21
 -10  -6  -8    2.05    0.23
  10   6   8    1.95    0.24
  11  -6   8    5.10    0.39
 -11  -6  -8    5.51    0.35
  11   6   8    5.09    0.40
 -12  -6  -8    4.21    0.33
  12  -6   8    3.94    0.35
  12   6   8    3.77    0.36
  14  -7  -8    5.71    0.43
  14  -7  -8    5.19    0.40
  14   7  -8    5.06    0.43
  13  -7  -8    7.34    0.44
  13  -7  -8    7.95    0.48
  13   7  -8    7.99    0.47
  12  -7  -8   10.74    0.54
  12  -7  -8   11.23    0.51
  12   7  -8   11.21    0.54
  11  -7  -8    1.25    0.20
  11  -7  -8    1.77    0.24
 -11  -7   8    1.84    0.20
  11   7  -8    1.80    0.23
  10  -7  -8   12.78    0.49
 -10  -7   8   12.87    0.47
  10  -7  -8   13.04    0.55
  10   7  -8   12.34    0.50
  10   7  -8   12.19    0.52
   9  -7  -8   11.15    0.44
   9  -7  -8   10.72    0.48
  -9  -7   8   10.31    0.42
   9   7  -8   10.70    0.44
   9   7  -8   11.17    0.46
   8  -7  -8    3.57    0.24
   8  -7  -8    3.34    0.28
  -8  -7   8    3.35    0.23
   8   7  -8    3.22    0.25
   8   7  -8    3.75    0.27
   7  -7  -8  106.49    2.67
  -7  -7   8  109.25    2.69
   7  -7  -8  106.12    2.75
   7   7  -8  106.00    2.69
   7   7  -8  104.26    2.72
   6  -7  -8   12.62    0.41
  -6  -7   8   11.88    0.43
   6  -7  -8   11.85    0.47
   6   7  -8   12.37    0.46
   6   7  -8   11.46    0.42
   5  -7  -8   37.65    0.99
  -5  -7   8   37.28    1.03
  -5   7   8   37.39    0.96
   5   7  -8   37.80    1.06
   5   7  -8   36.15    1.00
   4  -7  -8    8.24    0.29
   4  -7  -8    8.13    0.36
  -4  -7   8    8.78    0.34
   4   7  -8    8.43    0.36
  -4   7   8    8.18    0.28
   4   7  -8    7.82    0.30
   3  -7  -8    3.07    0.21
  -3  -7   8    3.08    0.21
   3  -7  -8    3.21    0.16
  -3   7   8    2.87    0.17
   3   7  -8    3.31    0.22
   2  -7  -8   10.14    0.34
   2  -7  -8   10.10    0.38
  -2  -7   8   10.24    0.33
   2  -7  -8   11.04    0.33
   2   7  -8   10.12    0.40
   1  -7  -8   37.50    0.98
  -1  -7   8   38.06    0.99
   1  -7  -8   37.71    1.01
  -1  -7   8   39.85    1.04
   1  -7  -8   37.15    1.03
   0  -7   8   61.92    1.56
   0  -7  -8   62.39    1.59
   0  -7  -8   63.02    1.59
   0  -7  -8   64.50    1.56
   0  -7   8   65.18    1.61
   0   7  -8   54.51    1.62
  -1  -7  -8    0.03    0.08
   1  -7   8    0.31    0.07
  -1  -7  -8    0.25    0.07
   1  -7   8    0.52    0.11
   1   7   8    0.26    0.07
  -1   7  -8    0.39    0.11
   2  -7   8   29.50    0.81
   2  -7   8   30.43    0.85
  -2  -7  -8   29.42    0.84
  -2   7  -8   29.86    0.88
   2   7   8   29.94    0.82
   3  -7   8    2.01    0.16
  -3  -7  -8    1.63    0.11
   3  -7   8    1.48    0.15
  -3   7  -8    1.91    0.18
   3   7   8    1.75    0.16
   4  -7   8   43.71    1.18
   4  -7   8   44.11    1.18
   4   7   8   42.96    1.18
  -4   7  -8   44.30    1.22
  -5  -7  -8   29.91    0.88
   5  -7   8   30.52    0.85
   5  -7   8   30.06    0.86
   5   7   8   29.14    0.87
  -5   7  -8   29.51    0.89
   6  -7   8   35.63    1.01
   6  -7   8   35.52    0.98
  -6  -7  -8   34.99    1.01
   6   7   8   35.62    1.02
  -6   7  -8   34.13    1.02
   7  -7   8    0.37    0.12
  -7  -7  -8    0.13    0.12
   7  -7   8    0.25    0.13
   7   7   8    0.47    0.15
  -7   7  -8    0.14    0.12
  -8  -7  -8    4.53    0.30
   8  -7   8    4.55    0.31
  -8   7  -8    4.46    0.29
   8   7   8    4.85    0.34
  -9  -7  -8    8.01    0.40
   9  -7   8    9.04    0.44
   9   7   8    8.54    0.44
 -10  -7  -8    7.86    0.41
  10  -7   8    8.15    0.45
  10   7   8    8.16    0.45
  11  -7   8    2.60    0.30
 -11  -7  -8    2.95    0.27
  11   7   8    2.19    0.29
 -12  -7  -8   14.89    0.61
  12  -7   8   16.06    0.68
  12   7   8   16.03    0.70
  14  -8  -8    0.22    0.19
  14  -8  -8    0.10    0.19
  14   8  -8   -0.01    0.21
  13  -8  -8   11.45    0.59
  13  -8  -8   12.07    0.55
  13   8  -8   11.78    0.58
  12  -8  -8    0.12    0.17
  12  -8  -8    0.00    0.15
  12   8  -8    0.16    0.18
  11  -8  -8    7.39    0.44
  11  -8  -8    7.24    0.39
 -11  -8   8    7.68    0.37
  11   8  -8    7.70    0.43
  10  -8  -8   16.38    0.58
 -10  -8   8   16.03    0.56
  10  -8  -8   14.86    0.62
  10   8  -8   15.03    0.57
  10   8  -8   15.56    0.60
   9  -8  -8    2.77    0.27
  -9  -8   8    3.03    0.24
   9  -8  -8    2.69    0.25
   9   8  -8    2.74    0.24
   9   8  -8    3.53    0.28
   8  -8  -8    2.41    0.21
  -8  -8   8    2.50    0.22
   8  -8  -8    2.40    0.24
   8   8  -8    2.25    0.21
   8   8  -8    2.47    0.23
   7  -8  -8    9.04    0.36
   7  -8  -8    9.15    0.42
  -7  -8   8    8.66    0.37
   7   8  -8    9.33    0.40
   7   8  -8    9.15    0.38
  -6  -8   8   15.65    0.52
   6  -8  -8   15.09    0.49
   6  -8  -8   15.75    0.57
   6   8  -8   14.16    0.53
   6   8  -8   14.76    0.51
   5  -8  -8    9.70    0.41
  -5  -8   8   10.00    0.38
   5  -8  -8   10.32    0.36
   5   8  -8   10.21    0.42
   5   8  -8    9.88    0.37
  -5   8   8   10.59    0.33
   4  -8  -8   11.92    0.44
   4  -8  -8   11.56    0.38
  -4  -8   8   11.60    0.42
   4   8  -8   11.54    0.45
   4   8  -8   12.25    0.40
  -4   8   8   11.95    0.37
  -3  -8   8   24.49    0.68
   3  -8  -8   24.00    0.74
   3  -8  -8   24.48    0.68
   3   8  -8   24.65    0.76
  -2  -8   8   -0.01    0.03
  -2  -8   8    0.08    0.06
   2  -8  -8    0.19    0.10
   2  -8  -8    0.13    0.06
   2  -8  -8    0.06    0.08
   2   8  -8    0.19    0.12
  -1  -8   8   43.78    1.19
  -1  -8   8   44.19    1.15
   1  -8  -8   44.55    1.17
   1  -8  -8   44.53    1.19
   1  -8  -8   44.72    1.15
   0  -8  -8   12.54    0.42
   0  -8   8   12.63    0.44
   0  -8   8   12.60    0.40
   0  -8  -8   12.67    0.42
   0  -8  -8   13.05    0.40
  -1  -8  -8   37.03    1.01
   1  -8   8   38.06    1.02
   1  -8   8   38.61    0.99
  -1  -8  -8   36.85    0.99
  -1   8  -8   34.70    1.05
  -2  -8  -8   13.00    0.41
   2  -8   8   14.04    0.46
  -2  -8  -8   12.92    0.45
   2  -8   8   12.83    0.42
  -2   8  -8   13.48    0.49
   2   8   8   13.56    0.44
  -3  -8  -8   25.45    0.78
   3  -8   8   27.25    0.76
   3  -8   8   27.25    0.78
   3   8   8   26.38    0.77
  -3   8  -8   27.10    0.82
   4  -8   8    6.91    0.31
  -4  -8  -8    5.97    0.29
   4  -8   8    7.13    0.30
  -4   8  -8    6.97    0.34
   4   8   8    6.38    0.30
  -5  -8  -8    8.51    0.37
   5  -8   8    9.00    0.35
   5  -8   8    8.32    0.36
  -5   8  -8    8.16    0.38
   5   8   8    8.60    0.37
   6  -8   8    7.26    0.35
  -6  -8  -8    7.43    0.36
   6  -8   8    8.14    0.34
  -6   8  -8    7.74    0.37
   6   8   8    7.36    0.36
   7  -8   8   15.53    0.56
  -7  -8  -8   15.01    0.55
   7  -8   8   15.04    0.55
  -7   8  -8   14.62    0.56
   7   8   8   14.97    0.57
  -8  -8  -8    3.91    0.29
   8  -8   8    3.77    0.29
   8   8   8    4.01    0.32
  -8   8  -8    3.45    0.28
   9  -8   8   14.35    0.57
  -9  -8  -8   14.02    0.55
  -9   8  -8   14.71    0.56
   9   8   8   13.58    0.58
 -10  -8  -8    3.16    0.29
  10  -8   8    2.31    0.27
  10   8   8    2.45    0.28
  11  -8   8    3.95    0.35
 -11  -8  -8    4.37    0.33
  11   8   8    3.47    0.34
  12  -8   8    5.28    0.43
 -12  -8  -8    5.29    0.39
  12   8   8    5.31    0.44
  14  -9  -8    0.21    0.22
  14   9  -8    0.35    0.33
  13  -9  -8   -0.08    0.16
  13  -9  -8    0.15    0.19
  13   9  -8    0.07    0.20
  12  -9  -8    1.50    0.26
  12  -9  -8    1.05    0.21
  12   9  -8    1.50    0.25
 -11  -9   8    0.54    0.16
  11  -9  -8    0.47    0.18
  11  -9  -8    0.58    0.17
  11   9  -8    0.92    0.21
  10  -9  -8    0.67    0.16
  10  -9  -8    0.67    0.17
 -10  -9   8    0.57    0.15
  10   9  -8    0.61    0.17
   9  -9  -8   13.94    0.59
  -9  -9   8   13.93    0.52
   9  -9  -8   14.25    0.52
   9   9  -8   13.45    0.53
   9   9  -8   13.91    0.55
   8  -9  -8   26.64    0.80
  -8  -9   8   26.20    0.80
   8  -9  -8   25.90    0.86
   8   9  -8   25.83    0.82
   8   9  -8   25.69    0.81
  -7  -9   8   16.26    0.56
   7  -9  -8   16.44    0.61
   7  -9  -8   16.41    0.55
   7   9  -8   16.27    0.58
   7   9  -8   16.13    0.56
   6  -9  -8   49.07    1.36
   6  -9  -8   47.16    1.28
  -6  -9   8   47.22    1.31
   6   9  -8   47.07    1.29
   6   9  -8   48.13    1.33
  -5  -9   8   25.50    0.76
   5  -9  -8   24.93    0.79
   5  -9  -8   24.73    0.71
   5   9  -8   23.71    0.73
   5   9  -8   24.90    0.78
   4  -9  -8    8.71    0.31
   4  -9  -8    9.07    0.38
  -4  -9   8    8.86    0.37
   4   9  -8    8.65    0.38
   4   9  -8    8.12    0.33
  -4   9   8    8.25    0.30
  -3  -9   8   11.11    0.38
   3  -9  -8   10.97    0.37
   3  -9  -8   11.40    0.43
   3  -9  -8   11.62    0.37
   3   9  -8   11.27    0.45
   2  -9  -8   73.82    1.86
  -2  -9   8   73.18    1.86
   2  -9  -8   73.47    1.91
   2  -9  -8   73.48    1.86
   2   9  -8   75.01    1.95
   1  -9  -8    8.33    0.30
  -1  -9   8    8.31    0.30
  -1  -9   8    8.46    0.34
   1  -9  -8    8.15    0.32
   1  -9  -8    8.22    0.33
   1   9  -8    7.38    0.35
   0  -9   8   55.02    1.41
   0  -9  -8   53.72    1.43
   0  -9   8   55.40    1.45
   0  -9  -8   54.46    1.41
   0  -9  -8   54.33    1.43
  -1  -9  -8   22.59    0.67
   1  -9   8   23.12    0.68
  -1  -9  -8   21.81    0.65
   1  -9   8   22.67    0.65
  -1  -9  -8   21.87    0.64
  -2  -9  -8    2.65    0.16
  -2  -9  -8    2.56    0.19
   2  -9   8    2.60    0.21
   2  -9   8    2.70    0.19
   2   9   8    2.43    0.18
  -2   9  -8    2.53    0.24
  -3  -9  -8   11.91    0.44
   3  -9   8   11.44    0.42
   3  -9   8   11.68    0.41
   3   9   8   11.53    0.42
  -3   9  -8   11.53    0.47
  -4  -9  -8   27.44    0.82
   4  -9   8   28.16    0.80
   4  -9   8   26.96    0.79
   4   9   8   25.70    0.80
  -4   9  -8   27.40    0.85
   5  -9   8   10.48    0.41
  -5  -9  -8   10.02    0.41
   5  -9   8   10.52    0.40
   5   9   8   10.57    0.43
  -5   9  -8   11.19    0.46
  -6  -9  -8   11.35    0.46
   6  -9   8   11.43    0.42
   6  -9   8   11.33    0.45
  -6   9  -8   10.98    0.47
   6   9   8   11.87    0.47
  -7  -9  -8    5.94    0.32
   7  -9   8    5.84    0.33
   7   9   8    5.62    0.35
  -7   9  -8    5.78    0.35
   8  -9   8    0.55    0.16
  -8  -9  -8    0.71    0.17
   8   9   8    0.65    0.18
  -8   9  -8    0.64    0.17
   9  -9   8    1.83    0.24
  -9  -9  -8    2.04    0.24
  -9   9  -8    2.22    0.25
   9   9   8    2.17    0.26
 -10  -9  -8   19.21    0.69
  10  -9   8   18.56    0.72
  10   9   8   19.14    0.74
  11  -9   8    4.68    0.39
 -11  -9  -8    5.45    0.36
  11   9   8    4.89    0.41
  12  -9   8    0.39    0.22
 -12  -9  -8    0.70    0.20
  12   9   8    0.34    0.23
  13 -10  -8    4.38    0.41
  13 -10  -8    4.08    0.36
  13  10  -8    4.75    0.44
  12 -10  -8    2.06    0.26
  12 -10  -8    1.52    0.26
  12  10  -8    2.11    0.28
 -11 -10   8    1.80    0.22
  11 -10  -8    1.82    0.23
  11 -10  -8    1.75    0.26
  11  10  -8    1.73    0.24
  10 -10  -8    1.54    0.23
  10 -10  -8    1.57    0.21
 -10 -10   8    1.33    0.20
  10  10  -8    1.86    0.23
   9 -10  -8    7.50    0.43
  -9 -10   8    7.25    0.37
   9 -10  -8    7.59    0.38
   9  10  -8    7.35    0.37
   9  10  -8    7.89    0.40
  -8 -10   8    6.04    0.33
   8 -10  -8    6.31    0.39
   8 -10  -8    6.23    0.32
   8  10  -8    6.34    0.36
   8  10  -8    6.39    0.35
  -7 -10   8   11.91    0.48
   7 -10  -8   12.14    0.45
   7 -10  -8   13.22    0.54
   7  10  -8   12.31    0.48
   7  10  -8   12.12    0.48
  -6 -10   8    7.94    0.37
   6 -10  -8    8.86    0.42
   6 -10  -8    7.55    0.33
   6  10  -8    8.00    0.35
   6  10  -8    7.58    0.37
   5 -10  -8   14.20    0.48
   5 -10  -8   14.87    0.56
  -5 -10   8   14.85    0.52
   5  10  -8   14.12    0.50
   5  10  -8   14.56    0.54
  -4 -10   8   22.10    0.69
   4 -10  -8   21.11    0.64
   4 -10  -8   21.93    0.72
   4  10  -8   21.52    0.71
   4  10  -8   22.54    0.67
   3 -10  -8   31.63    0.84
  -3 -10   8   28.07    0.88
  -3 -10   8   30.56    0.86
   3 -10  -8   31.61    0.85
   3 -10  -8   31.45    0.92
   3  10  -8   30.03    0.92
  -2 -10   8   62.44    1.60
   2 -10  -8   63.41    1.65
   2 -10  -8   62.14    1.59
  -2 -10   8   58.64    1.63
   2 -10  -8   63.10    1.59
   2  10  -8   62.21    1.67
   1 -10  -8    8.68    0.34
  -1 -10   8    8.85    0.33
   1 -10  -8    8.75    0.32
   1 -10  -8    9.47    0.37
  -1 -10   8    9.17    0.37
   1  10  -8    9.00    0.40
   0 -10  -8    3.30    0.18
   0 -10  -8    3.10    0.21
   0 -10   8    3.06    0.19
   0 -10   8    3.20    0.22
   0 -10  -8    3.19    0.21
   1 -10   8    0.09    0.08
   1 -10   8    0.22    0.11
  -1 -10  -8    0.06    0.08
  -1 -10  -8    0.12    0.08
  -1 -10  -8   -0.15    0.09
  -1  10  -8    0.00    0.11
  -2 -10  -8   37.24    1.04
   2 -10   8   37.73    1.03
   2 -10   8   36.91    1.01
  -2 -10  -8   35.74    0.98
   2  10   8   37.09    1.02
  -2  10  -8   36.84    1.09
   3 -10   8   10.38    0.40
  -3 -10  -8   10.24    0.41
   3 -10   8   10.18    0.39
   3  10   8    9.77    0.39
  -3  10  -8   10.63    0.45
   4 -10   8    4.39    0.26
  -4 -10  -8    4.43    0.28
   4 -10   8    4.61    0.26
  -4  10  -8    4.66    0.31
   4  10   8    4.08    0.26
   5 -10   8    1.63    0.18
   5 -10   8    1.59    0.17
  -5 -10  -8    1.56    0.18
  -5  10  -8    1.88    0.22
   5  10   8    1.85    0.19
   6 -10   8    3.52    0.24
   6 -10   8    3.58    0.27
  -6 -10  -8    3.92    0.29
  -6  10  -8    3.56    0.30
   6  10   8    4.28    0.29
   7 -10   8    1.26    0.18
  -7 -10  -8    1.61    0.21
   7  10   8    2.08    0.23
  -7  10  -8    2.05    0.24
  -8 -10  -8    6.93    0.38
   8 -10   8    6.57    0.38
  -8  10  -8    7.46    0.41
   8  10   8    7.38    0.41
  -9 -10  -8    6.21    0.37
   9 -10   8    5.78    0.36
   9  10   8    6.41    0.42
  -9  10  -8    5.93    0.39
 -10 -10  -8    5.20    0.36
  10 -10   8    5.22    0.39
  10  10   8    5.88    0.43
 -11 -10  -8    0.13    0.16
  11 -10   8    0.10    0.19
  11  10   8   -0.05    0.19
 -12 -10  -8    0.81    0.20
  13 -11  -8    1.19    0.23
  13  11  -8    1.36    0.27
 -12 -11   8    3.19    0.30
  12 -11  -8    2.91    0.34
  12 -11  -8    3.51    0.32
  12  11  -8    3.00    0.32
  11 -11  -8    7.02    0.46
  11 -11  -8    7.07    0.40
 -11 -11   8    6.69    0.39
  11  11  -8    7.86    0.45
 -10 -11   8   11.53    0.50
  10 -11  -8   11.79    0.51
  10 -11  -8   12.20    0.58
  10  11  -8   11.91    0.53
  -9 -11   8    9.41    0.44
   9 -11  -8    9.98    0.51
   9 -11  -8   10.52    0.45
   9  11  -8   10.08    0.48
   9  11  -8    9.55    0.60
   8 -11  -8   23.31    0.81
  -8 -11   8   22.84    0.75
   8 -11  -8   23.50    0.74
   8  11  -8   22.07    0.75
   8  11  -8   21.56    0.75
   7 -11  -8   14.48    0.52
   7 -11  -8   14.73    0.60
  -7 -11   8   14.43    0.55
   7  11  -8   15.59    0.55
   7  11  -8   14.63    0.55
   6 -11  -8   27.62    0.81
  -6 -11   8   27.39    0.84
   6 -11  -8   27.43    0.89
   6  11  -8   26.02    0.85
   6  11  -8   28.07    0.83
  -5 -11   8    4.09    0.26
   5 -11  -8    4.17    0.25
   5 -11  -8    4.15    0.30
   5  11  -8    4.27    0.26
   5  11  -8    4.06    0.30
  -4 -11   8    7.73    0.36
   4 -11  -8    7.65    0.32
   4 -11  -8    7.51    0.38
   4  11  -8    7.37    0.38
   3 -11  -8   72.09    1.84
  -3 -11   8   73.09    1.89
   3 -11  -8   70.89    1.90
   3 -11  -8   71.57    1.82
  -3 -11   8   72.56    1.85
   3  11  -8   70.26    1.91
   2 -11  -8   49.45    1.32
   2 -11  -8   49.47    1.33
  -2 -11   8   51.17    1.34
  -2 -11   8   52.89    1.38
   2 -11  -8   49.48    1.38
   2  11  -8   51.46    1.42
   1 -11  -8   25.78    0.74
  -1 -11   8   26.16    0.78
   1 -11  -8   26.09    0.74
  -1 -11   8   25.39    0.74
   1 -11  -8   25.27    0.77
   1  11  -8   25.54    0.82
   0 -11  -8    4.01    0.24
   0 -11   8    4.26    0.24
   0 -11  -8    4.54    0.25
   0 -11  -8    5.10    0.24
   0 -11   8    4.66    0.27
   0  11  -8    4.55    0.29
  -1 -11  -8    2.29    0.18
   1 -11   8    2.07    0.18
   1 -11   8    2.41    0.21
  -1 -11  -8    2.03    0.19
  -1 -11  -8    2.10    0.18
  -1  11  -8    2.02    0.21
   2 -11   8   20.37    0.65
  -2 -11  -8   20.71    0.66
   2 -11   8   20.50    0.64
  -2  11  -8   21.40    0.72
   2  11   8   21.73    0.66
   3 -11   8   26.79    0.79
  -3 -11  -8   25.59    0.80
   3 -11   8   26.20    0.79
   3  11   8   27.09    0.81
  -3  11  -8   27.46    0.86
   4 -11   8   45.57    1.23
   4 -11   8   46.21    1.25
  -4 -11  -8   44.39    1.25
   4  11   8   44.71    1.25
  -4  11  -8   44.17    1.30
  -5 -11  -8   22.62    0.73
   5 -11   8   23.34    0.73
   5 -11   8   21.72    0.68
  -5  11  -8   21.16    0.75
   5  11   8   22.45    0.73
  -6 -11  -8    3.26    0.26
   6 -11   8    3.53    0.28
  -6  11  -8    3.42    0.31
   6  11   8    3.83    0.29
   7 -11   8    2.51    0.25
  -7 -11  -8    2.76    0.25
  -7  11  -8    2.63    0.27
   7  11   8    3.18    0.29
  -8 -11  -8    2.58    0.26
   8 -11   8    2.29    0.25
   8  11   8    2.52    0.27
  -8  11  -8    2.81    0.29
   9 -11   8    1.50    0.23
  -9 -11  -8    1.77    0.24
   9  11   8    1.53    0.25
  -9  11  -8    1.78    0.26
  10 -11   8   12.52    0.58
 -10 -11  -8   12.66    0.56
 -10  11  -8   14.88    0.90
  10  11   8   12.11    0.60
 -11 -11  -8    1.79    0.26
  11 -11   8    1.71    0.27
  11  11   8    1.87    0.30
  13 -12  -8    1.83    0.33
  12 -12  -8    1.19    0.22
 -12 -12   8    1.26    0.22
  12 -12  -8    0.89    0.25
  12  12  -8    1.19    0.24
  11 -12  -8    1.37    0.26
 -11 -12   8    1.13    0.20
  11 -12  -8    1.05    0.21
  11  12  -8    1.53    0.24
  10 -12  -8    5.17    0.35
  10 -12  -8    4.40    0.39
 -10 -12   8    5.06    0.35
  10  12  -8    5.64    0.38
   9 -12  -8    6.60    0.44
  -9 -12   8    7.00    0.39
   9 -12  -8    7.28    0.38
   9  12  -8    6.94    0.40
  -8 -12   8   10.69    0.47
   8 -12  -8   11.11    0.53
   8 -12  -8   11.33    0.46
   8  12  -8   10.98    0.48
   8  12  -8   10.65    0.47
   7 -12  -8   18.91    0.63
  -7 -12   8   18.15    0.66
   7 -12  -8   19.22    0.72
   7  12  -8   18.66    0.65
   7  12  -8   19.12    0.66
   6 -12  -8   23.16    0.73
   6 -12  -8   23.97    0.81
  -6 -12   8   22.77    0.77
   6  12  -8   24.42    0.79
   6  12  -8   24.01    0.76
  -5 -12   8   14.86    0.54
   5 -12  -8   14.78    0.50
   5 -12  -8   13.58    0.56
   5  12  -8   13.22    0.54
   5  12  -8   12.94    0.50
   4 -12  -8   57.93    1.54
   4 -12  -8   57.50    1.61
  -4 -12   8   59.39    1.59
   4  12  -8   58.80    1.61
  -3 -12   8   26.47    0.78
  -3 -12   8   26.44    0.81
   3 -12  -8   25.86    0.77
   3 -12  -8   25.86    0.74
   3 -12  -8   25.61    0.82
   3  12  -8   26.43    0.85
  -2 -12   8   15.75    0.55
   2 -12  -8   15.71    0.52
  -2 -12   8   15.66    0.52
   2 -12  -8   15.75    0.56
   2 -12  -8   15.81    0.50
   2  12  -8   15.21    0.59
   1 -12  -8   29.26    0.86
  -1 -12   8   27.33    0.82
   1 -12  -8   29.17    0.83
   1 -12  -8   29.12    0.83
  -1 -12   8   29.16    0.86
   1  12  -8   28.47    0.90
   0 -12  -8   23.32    0.69
   0 -12   8   23.59    0.72
   0 -12   8   23.43    0.70
   0 -12  -8   22.42    0.70
   0 -12  -8   22.77    0.70
   0  12  -8   22.06    0.77
  -1 -12  -8    4.64    0.25
  -1 -12  -8    4.72    0.27
   1 -12   8    4.52    0.27
   1 -12   8    4.84    0.26
  -1 -12  -8    4.63    0.25
  -1  12  -8    4.92    0.31
  -2 -12  -8   34.72    1.00
   2 -12   8   34.64    0.99
   2 -12   8   35.14    0.99
  -2  12  -8   34.51    1.06
   2  12   8   34.00    0.99
  -3 -12  -8    1.48    0.18
   3 -12   8    1.79    0.18
   3 -12   8    1.64    0.17
  -3  12  -8    1.85    0.23
   3  12   8    1.78    0.18
  -4 -12  -8   12.19    0.47
   4 -12   8   12.30    0.47
   4 -12   8   11.98    0.45
   4  12   8   12.74    0.48
  -4  12  -8   11.84    0.53
   5 -12   8    0.34    0.13
  -5 -12  -8    0.27    0.14
   5 -12   8    0.30    0.14
  -5  12  -8    0.62    0.18
   5  12   8    0.59    0.15
  -6 -12  -8    5.35    0.33
   6 -12   8    4.92    0.33
   6  12   8    4.99    0.33
  -6  12  -8    5.63    0.38
  -7 -12  -8    4.59    0.33
   7 -12   8    4.55    0.33
   7  12   8    4.68    0.34
  -7  12  -8    4.42    0.35
  -8 -12  -8   22.36    0.78
   8 -12   8   22.77    0.79
   8  12   8   22.11    0.80
  -8  12  -8   21.78    0.81
  -9 -12  -8    3.63    0.33
   9 -12   8    3.60    0.35
   9  12   8    3.92    0.37
  -9  12  -8    4.03    0.36
  10 -12   8   13.56    0.61
 -10 -12  -8   13.24    0.58
 -10  12  -8   13.98    0.62
  10  12   8   13.45    0.63
 -11 -12  -8    2.50    0.33
  11 -12   8    2.43    0.38
  11  12   8    1.93    0.31
  12 -13  -8    3.40    0.32
 -12 -13   8    2.88    0.29
  12  13  -8    3.12    0.33
  11 -13  -8    2.05    0.29
  11 -13  -8    1.75    0.24
 -11 -13   8    1.54    0.23
  11  13  -8    2.38    0.28
  10 -13  -8    1.39    0.24
 -10 -13   8    1.68    0.23
  10 -13  -8    1.41    0.22
  10  13  -8    1.64    0.24
   9 -13  -8    0.04    0.17
   9 -13  -8    0.10    0.14
  -9 -13   8    0.14    0.14
   9  13  -8    0.10    0.16
   8 -13  -8    4.80    0.31
  -8 -13   8    4.62    0.33
   8 -13  -8    4.18    0.37
   8  13  -8    4.04    0.30
   8  13  -8    4.28    0.32
   7 -13  -8    1.14    0.17
   7 -13  -8    1.08    0.21
  -7 -13   8    1.21    0.20
   7  13  -8    1.26    0.19
   7  13  -8    1.22    0.20
   6 -13  -8   13.31    0.58
  -6 -13   8   13.50    0.52
   6 -13  -8   13.20    0.50
   6  13  -8   13.48    0.52
   6  13  -8   14.30    0.56
   5 -13  -8    0.44    0.12
  -5 -13   8    0.20    0.15
   5 -13  -8    0.38    0.15
   5  13  -8    0.48    0.16
   5  13  -8    0.47    0.14
  -4 -13   8    6.98    0.33
   4 -13  -8    6.58    0.32
  -4 -13   8    6.22    0.35
   4 -13  -8    6.26    0.37
   4  13  -8    6.77    0.38
   3 -13  -8   20.01    0.69
  -3 -13   8   19.77    0.64
   3 -13  -8   20.30    0.64
   3 -13  -8   19.97    0.61
  -3 -13   8   20.47    0.68
   3  13  -8   19.44    0.70
   2 -13  -8   14.49    0.54
   2 -13  -8   14.77    0.50
   2 -13  -8   14.73    0.48
  -2 -13   8   14.16    0.53
  -2 -13   8   14.38    0.50
   2  13  -8   13.91    0.57
   1 -13  -8   23.41    0.71
  -1 -13   8   23.24    0.74
  -1 -13   8   24.34    0.72
   1 -13  -8   23.77    0.72
   1 -13  -8   23.49    0.75
   1  13  -8   23.04    0.79
   0 -13   8    5.04    0.28
   0 -13  -8    5.29    0.29
   0 -13  -8    5.28    0.29
   0 -13   8    4.76    0.28
   0 -13  -8    5.01    0.26
   0  13  -8    4.34    0.33
   1 -13   8    1.38    0.17
  -1 -13  -8    1.36    0.16
   1 -13   8    1.42    0.16
  -1 -13  -8    1.61    0.16
  -1 -13  -8    2.16    0.20
  -1  13  -8    2.11    0.24
   2 -13   8    2.89    0.24
   2 -13   8    2.68    0.23
  -2 -13  -8    3.14    0.25
  -2  13  -8    3.12    0.28
   3 -13   8    9.07    0.39
   3 -13   8    9.26    0.38
  -3 -13  -8    8.66    0.40
  -3  13  -8    8.94    0.46
   3  13   8    9.19    0.40
   4 -13   8    8.31    0.37
  -4 -13  -8    8.24    0.40
   4 -13   8    8.86    0.40
   4  13   8    8.39    0.40
  -4  13  -8    8.29    0.45
   5 -13   8   10.32    0.45
  -5 -13  -8   10.49    0.46
   5 -13   8   10.63    0.46
   5  13   8   10.24    0.45
  -5  13  -8   10.16    0.49
   6 -13   8    3.73    0.31
  -6 -13  -8    4.46    0.32
   6  13   8    4.59    0.33
  -6  13  -8    4.14    0.35
   7 -13   8   11.58    0.52
  -7 -13  -8   12.29    0.53
   7  13   8   12.72    0.55
  -7  13  -8   12.68    0.58
  -8 -13  -8    9.71    0.48
   8 -13   8   10.38    0.50
   8  13   8   10.23    0.51
  -8  13  -8   10.63    0.54
   9 -13   8    1.77    0.26
  -9 -13  -8    1.45    0.23
  -9  13  -8    2.08    0.28
   9  13   8    1.81    0.27
  10 -13   8    2.69    0.30
 -10 -13  -8    3.37    0.32
  10  13   8    3.14    0.34
 -10  13  -8    3.72    0.36
  12 -14  -8    8.23    0.56
  11 -14  -8   10.69    0.85
  11 -14  -8   10.99    0.54
 -11 -14   8   11.42    0.53
  11  14  -8   11.88    0.58
  10 -14  -8   18.07    0.67
 -10 -14   8   17.50    0.67
  10 -14  -8   16.79    0.74
  10  14  -8   16.44    0.69
   9 -14  -8    5.74    0.43
   9 -14  -8    6.15    0.37
  -9 -14   8    6.71    0.40
   9  14  -8    6.11    0.40
   8 -14  -8   12.93    0.59
   8 -14  -8   14.48    0.56
  -8 -14   8   12.91    0.55
   8  14  -8   13.72    0.57
  -7 -14   8    1.42    0.20
   7 -14  -8    1.46    0.19
   7 -14  -8    1.36    0.24
   7  14  -8    1.39    0.21
   7  14  -8    1.22    0.20
  -6 -14   8    6.58    0.38
   6 -14  -8    6.58    0.41
   6 -14  -8    6.24    0.34
   6  14  -8    6.14    0.36
   6  14  -8    6.48    0.38
   5 -14  -8    2.62    0.23
   5 -14  -8    2.78    0.28
  -5 -14   8    3.07    0.28
   5  14  -8    2.80    0.27
   5  14  -8    2.77    0.26
  -4 -14   8   24.55    0.80
   4 -14  -8   23.49    0.82
   4 -14  -8   25.11    0.76
  -4 -14   8   24.16    0.77
   4  14  -8   24.64    0.82
  -3 -14   8   13.86    0.51
  -3 -14   8   13.44    0.53
   3 -14  -8   13.22    0.54
   3 -14  -8   13.35    0.49
   3  14  -8   13.52    0.56
   2 -14  -8    1.72    0.20
   2 -14  -8    1.48    0.16
   2 -14  -8    1.65    0.17
  -2 -14   8    1.64    0.20
  -2 -14   8    1.61    0.18
   2  14  -8    1.48    0.23
   1 -14  -8    7.67    0.38
   1 -14  -8    7.69    0.34
  -1 -14   8    7.54    0.35
  -1 -14   8    7.36    0.37
   1 -14  -8    8.41    0.35
   1  14  -8    7.07    0.40
   0 -14   8    1.73    0.19
   0 -14   8    2.02    0.19
   0 -14  -8    2.03    0.20
   0 -14  -8    1.59    0.17
   0 -14  -8    1.83    0.19
   0  14  -8    1.48    0.21
   1 -14   8   20.79    0.66
  -1 -14  -8   20.06    0.67
   1 -14   8   20.45    0.67
  -1 -14  -8   20.29    0.66
  -1  14  -8   19.95    0.73
  -2 -14  -8    3.24    0.27
   2 -14   8    3.01    0.25
   2 -14   8    3.79    0.26
  -2  14  -8    3.52    0.30
   3 -14   8    2.58    0.24
  -3 -14  -8    2.21    0.22
   3 -14   8    2.56    0.25
  -3  14  -8    3.12    0.30
   3  14   8    2.89    0.25
   4 -14   8    8.66    0.39
  -4 -14  -8    9.26    0.43
   4 -14   8    8.49    0.41
  -4  14  -8    9.41    0.49
   4  14   8    9.09    0.42
  -5 -14  -8    9.71    0.45
   5 -14   8    8.99    0.43
   5  14   8    8.80    0.44
  -5  14  -8    8.99    0.49
  -6 -14  -8    9.85    0.47
   6 -14   8    9.57    0.47
  -6  14  -8    9.63    0.52
   6  14   8    9.62    0.47
   7 -14   8    0.25    0.16
  -7 -14  -8    0.34    0.17
   7  14   8    0.50    0.19
  -7  14  -8    0.60    0.19
   8 -14   8   12.75    0.57
  -8 -14  -8   11.78    0.53
   8  14   8   11.88    0.57
  -8  14  -8   12.32    0.60
  -9 -14  -8    3.27    0.31
   9 -14   8    3.57    0.33
   9  14   8    4.47    0.39
  -9  14  -8    3.96    0.39
  10 -14   8    0.96    0.29
 -10  14  -8    1.37    0.26
  10  14   8    1.33    0.27
 -11 -15   8    8.89    0.66
  11 -15  -8    8.28    0.48
  11  15  -8    9.45    0.52
 -10 -15   8    2.79    0.29
  10 -15  -8    1.87    0.25
  10 -15  -8    3.31    0.36
  10  15  -8    2.21    0.27
   9 -15  -8    3.23    0.35
   9 -15  -8    3.47    0.31
  -9 -15   8    2.86    0.29
   9  15  -8    3.81    0.33
  -8 -15   8    3.49    0.33
   8 -15  -8    3.18    0.34
   8 -15  -8    3.47    0.30
   8  15  -8    3.61    0.33
   7 -15  -8    0.57    0.21
  -7 -15   8    0.42    0.17
   7 -15  -8    0.71    0.16
   7  15  -8    0.72    0.18
   7  15  -8    0.66    0.18
   6 -15  -8    5.47    0.39
   6 -15  -8    5.66    0.34
  -6 -15   8    5.53    0.36
   6  15  -8    5.52    0.37
   6  15  -8    5.50    0.37
   5 -15  -8    1.27    0.18
   5 -15  -8    0.80    0.20
  -5 -15   8    1.18    0.20
   5  15  -8    1.35    0.22
   5  15  -8    1.27    0.19
   4 -15  -8    0.11    0.12
  -4 -15   8    0.18    0.13
  -4 -15   8    0.16    0.15
   4 -15  -8    0.07    0.16
   4  15  -8    0.26    0.16
  -3 -15   8   14.04    0.55
  -3 -15   8   13.96    0.53
   3 -15  -8   15.39    0.59
   3 -15  -8   14.17    0.52
   3  15  -8   13.95    0.59
   2 -15  -8    4.06    0.30
  -2 -15   8    3.94    0.27
  -2 -15   8    3.25    0.28
   2 -15  -8    3.97    0.25
   2 -15  -8    4.19    0.27
   2  15  -8    3.70    0.33
   1 -15  -8    3.93    0.26
  -1 -15   8    3.72    0.27
  -1 -15   8    3.30    0.28
   1 -15  -8    3.80    0.26
   1 -15  -8    3.84    0.29
   1  15  -8    3.73    0.33
   0 -15   8    7.06    0.36
   0 -15  -8    6.97    0.36
   0 -15  -8    6.56    0.34
   0 -15   8    6.57    0.34
   0 -15  -8    6.75    0.33
   0  15  -8    6.65    0.39
   1 -15   8   10.35    0.45
   1 -15   8   10.97    0.45
  -1 -15  -8   11.11    0.46
  -1 -15  -8   11.16    0.45
  -1  15  -8   11.38    0.53
  -2 -15  -8    4.49    0.30
   2 -15   8    4.50    0.29
   2 -15   8    4.25    0.29
  -2  15  -8    4.33    0.36
   3 -15   8    5.99    0.34
  -3 -15  -8    6.36    0.36
   3 -15   8    5.90    0.33
   3  15   8    5.98    0.35
  -3  15  -8    5.79    0.39
  -4 -15  -8   65.16    1.79
   4 -15   8   65.61    1.78
   4 -15   8   64.68    1.74
  -4  15  -8   67.11    1.87
   4  15   8   63.76    1.79
   5 -15   8    0.53    0.17
  -5 -15  -8    0.84    0.19
   5  15   8    0.72    0.17
  -5  15  -8    0.51    0.19
   6 -15   8   18.17    0.67
  -6 -15  -8   17.22    0.66
   6  15   8   17.21    0.67
  -6  15  -8   16.91    0.71
  -7 -15  -8    1.24    0.21
   7 -15   8    1.40    0.23
   7  15   8    1.59    0.24
  -7  15  -8    1.42    0.26
   8 -15   8    9.78    0.51
  -8 -15  -8    9.44    0.49
  -8  15  -8    8.93    0.54
   8  15   8   10.67    0.53
   9 -15   8   11.93    0.57
  -9 -15  -8   10.38    0.67
  -9  15  -8   11.04    0.60
   9  15   8   11.70    0.59
 -10 -16   8   10.00    0.57
  10 -16  -8    9.18    0.49
  10  16  -8    9.17    0.53
  -9 -16   8    0.84    0.21
   9 -16  -8    0.49    0.22
   9 -16  -8    0.43    0.17
   9  16  -8    0.76    0.21
  -8 -16   8   10.76    0.53
   8 -16  -8   11.17    0.51
   8 -16  -8   11.10    0.59
   8  16  -8   11.27    0.54
  -7 -16   8    0.13    0.17
   7 -16  -8    0.03    0.18
   7 -16  -8    0.32    0.15
   7  16  -8    0.53    0.18
   6 -16  -8    5.85    0.35
  -6 -16   8    5.18    0.35
   6 -16  -8    6.51    0.43
   6  16  -8    6.30    0.39
   6  16  -8    5.23    0.38
   5 -16  -8   19.39    0.68
   5 -16  -8   19.42    0.75
  -5 -16   8   19.61    0.71
   5  16  -8   19.32    0.72
   5  16  -8   19.82    0.70
  -4 -16   8   18.77    0.70
  -4 -16   8   19.51    0.68
   4 -16  -8   19.54    0.67
   4 -16  -8   19.69    0.73
   4  16  -8   18.89    0.73
  -3 -16   8    2.05    0.22
   3 -16  -8    2.62    0.27
  -3 -16   8    2.05    0.23
   3 -16  -8    2.55    0.24
   3  16  -8    2.11    0.26
  -2 -16   8   10.93    0.46
   2 -16  -8   11.20    0.46
   2 -16  -8   10.64    0.50
  -2 -16   8   11.10    0.49
   2  16  -8   11.84    0.54
   1 -16  -8   15.97    0.59
  -1 -16   8   16.30    0.60
   1 -16  -8   17.39    0.62
  -1 -16   8   16.30    0.61
   1 -16  -8   17.41    0.58
   1  16  -8   16.00    0.66
   0 -16  -8    1.41    0.19
   0 -16   8    1.19    0.17
   0 -16   8    1.10    0.18
   0 -16  -8    1.65    0.19
   0  16  -8    1.16    0.21
  -1 -16  -8    8.27    0.40
   1 -16   8    8.81    0.41
  -1 -16  -8    9.00    0.40
   1 -16   8    8.25    0.40
  -1  16  -8    7.63    0.46
   2 -16   8    9.65    0.43
  -2 -16  -8    9.61    0.44
   2 -16   8   10.08    0.44
  -2  16  -8    9.46    0.51
   3 -16   8    9.47    0.44
   3 -16   8    9.15    0.41
  -3 -16  -8    8.84    0.43
   3  16   8    8.62    0.43
  -3  16  -8    9.17    0.50
  -4 -16  -8    0.80    0.18
   4 -16   8    0.78    0.18
   4  16   8    0.59    0.17
  -4  16  -8    0.67    0.22
  -5 -16  -8    0.89    0.19
   5 -16   8    1.03    0.20
  -5  16  -8    0.72    0.21
   5  16   8    1.24    0.21
   6 -16   8    3.74    0.34
  -6 -16  -8    3.81    0.34
  -6  16  -8    2.88    0.32
   6  16   8    4.08    0.35
  -7 -16  -8    7.69    0.45
   7 -16   8    7.76    0.46
  -7  16  -8    8.24    0.51
   7  16   8    7.38    0.46
  -8 -16  -8    1.29    0.24
   8 -16   8    1.05    0.22
  -8  16  -8    0.87    0.25
   8  16   8    1.32    0.24
  10 -17  -8    1.68    0.30
   9 -17  -8    0.55    0.19
   9  17  -8    1.03    0.23
   8 -17  -8    0.28    0.21
  -8 -17   8    0.08    0.18
   8 -17  -8    0.22    0.17
   8  17  -8    0.35    0.18
   7 -17  -8   10.29    0.48
   7 -17  -8   10.04    0.55
  -7 -17   8    9.57    0.50
   7  17  -8   10.37    0.52
   6 -17  -8    1.72    0.22
   6 -17  -8    1.68    0.26
  -6 -17   8    1.84    0.25
   6  17  -8    1.77    0.24
   6  17  -8    1.85    0.26
   5 -17  -8    0.52    0.16
   5 -17  -8    0.79    0.21
  -5 -17   8    0.71    0.20
   5  17  -8    0.95    0.22
   5  17  -8    0.89    0.18
  -4 -17   8    0.95    0.20
   4 -17  -8    1.09    0.18
   4 -17  -8    1.16    0.22
  -4 -17   8    1.02    0.19
   4  17  -8    1.05    0.23
  -3 -17   8    3.68    0.30
   3 -17  -8    3.64    0.33
   3 -17  -8    3.90    0.29
  -3 -17   8    3.87    0.32
   3  17  -8    3.14    0.31
   2 -17  -8   22.25    0.75
  -2 -17   8   21.96    0.75
  -2 -17   8   22.08    0.77
   2 -17  -8   23.54    0.79
   2  17  -8   21.71    0.82
   1 -17  -8    4.51    0.33
   1 -17  -8    4.11    0.29
   1 -17  -8    4.52    0.29
  -1 -17   8    5.08    0.33
  -1 -17   8    4.26    0.32
   1  17  -8    4.49    0.38
   0 -17  -8    1.40    0.19
   0 -17  -8    1.44    0.19
   0 -17   8    1.30    0.19
   0 -17   8    1.17    0.19
   0  17  -8    1.69    0.26
   1 -17   8    5.12    0.34
  -1 -17  -8    5.32    0.33
   1 -17   8    5.63    0.34
  -1 -17  -8    5.36    0.33
  -1  17  -8    5.42    0.41
  -2 -17  -8    6.12    0.36
   2 -17   8    5.83    0.35
   2 -17   8    5.66    0.34
  -2  17  -8    6.85    0.45
   3 -17   8    6.24    0.38
   3 -17   8    5.96    0.36
  -3 -17  -8    7.05    0.39
   3  17   8    6.07    0.37
  -3  17  -8    6.90    0.46
  -4 -17  -8   18.77    0.70
   4 -17   8   19.52    0.71
  -4  17  -8   20.42    0.80
   4  17   8   18.67    0.72
  -5 -17  -8    8.37    0.46
   5 -17   8    8.63    0.46
  -5  17  -8    7.74    0.49
   5  17   8    8.44    0.46
   6 -17   8   11.11    0.53
  -6 -17  -8   11.60    0.54
  -6  17  -8   11.97    0.61
   6  17   8   10.42    0.54
  -7 -17  -8    1.16    0.22
   7 -17   8    1.68    0.26
  -7  17  -8    1.29    0.25
   7  17   8    1.55    0.25
   8 -17   8   12.94    0.87
   8  17   8   11.24    0.60
   9 -18  -8    4.31    0.39
   8 -18  -8    0.96    0.20
   8  18  -8    1.14    0.23
   7 -18  -8    7.18    0.42
   7 -18  -8    6.95    0.48
  -7 -18   8    6.73    0.44
   7  18  -8    6.44    0.43
   6 -18  -8    0.49    0.22
  -6 -18   8    0.32    0.18
   6 -18  -8    0.49    0.17
   6  18  -8    0.56    0.19
   5 -18  -8    8.67    0.44
  -5 -18   8    8.45    0.46
   5 -18  -8    8.02    0.50
   5  18  -8    8.41    0.46
   5  18  -8    7.76    0.47
   4 -18  -8   15.02    0.59
  -4 -18   8   14.64    0.59
  -4 -18   8   15.05    0.62
   4 -18  -8   14.66    0.65
   4  18  -8   14.57    0.64
   3 -18  -8    1.90    0.22
  -3 -18   8    2.22    0.25
   3 -18  -8    2.57    0.29
  -3 -18   8    1.94    0.23
   3  18  -8    2.45    0.29
   2 -18  -8    0.75    0.16
  -2 -18   8    0.74    0.17
  -2 -18   8    0.72    0.19
   2 -18  -8    0.68    0.19
   2  18  -8    0.46    0.20
  -1 -18   8    1.50    0.21
  -1 -18   8    1.44    0.21
   1 -18  -8    1.71    0.21
   1  18  -8    1.26    0.25
   0 -18   8    8.73    0.44
   0 -18  -8    8.36    0.41
   0 -18  -8    9.09    0.44
   0 -18   8    9.31    0.45
   0  18  -8    8.71    0.50
   1 -18   8    0.58    0.17
  -1 -18  -8    0.65    0.17
   1 -18   8    0.23    0.15
  -1 -18  -8    0.48    0.16
  -1  18  -8    0.73    0.21
   2 -18   8    3.28    0.30
   2 -18   8    3.04    0.27
  -2 -18  -8    3.42    0.31
  -2  18  -8    3.23    0.34
  -3 -18  -8    4.33    0.34
   3 -18   8    4.29    0.34
   3  18   8    4.68    0.35
  -3  18  -8    4.24    0.41
   4 -18   8   11.63    0.54
  -4 -18  -8   10.53    0.52
  -4  18  -8   11.55    0.61
   4  18   8   13.69    0.57
  -5 -18  -8    6.14    0.40
   5 -18   8    5.63    0.40
  -5  18  -8    6.14    0.47
   5  18   8    5.47    0.40
   6 -18   8    0.22    0.19
  -6 -18  -8    0.13    0.18
   6  18   8    0.44    0.18
  -6  18  -8    0.18    0.23
   7 -18   8    6.99    0.51
   7  18   8    6.87    0.46
   8 -19  -8    0.33    0.21
   7 -19  -8    9.13    0.49
   7  19  -8    8.91    0.51
  -6 -19   8    8.91    0.50
   6 -19  -8    9.12    0.48
   6 -19  -8    9.34    0.55
   6  19  -8    8.67    0.49
   5 -19  -8    8.59    0.51
   5 -19  -8    8.06    0.44
  -5 -19   8    8.22    0.47
   5  19  -8    7.57    0.49
   5  19  -8    7.99    0.46
  -4 -19   8    1.44    0.24
   4 -19  -8    1.61    0.27
   4 -19  -8    1.44    0.21
   4  19  -8    1.32    0.26
   3 -19  -8    1.03    0.22
   3 -19  -8    0.70    0.18
  -3 -19   8    0.72    0.20
  -3 -19   8    0.92    0.20
   3  19  -8    1.05    0.24
   2 -19  -8    6.13    0.38
  -2 -19   8    6.35    0.39
  -2 -19   8    6.35    0.40
   2  19  -8    6.42    0.45
   1 -19  -8   10.40    0.49
  -1 -19   8   10.33    0.50
  -1 -19   8   10.76    0.50
   1  19  -8   10.35    0.56
   0 -19   8    6.11    0.38
   0 -19  -8    5.55    0.37
   0 -19  -8    6.02    0.37
   0 -19   8    5.73    0.37
   0  19  -8    5.51    0.44
  -1 -19  -8    3.23    0.31
  -1 -19  -8    3.61    0.31
   1 -19   8    2.82    0.28
   1 -19   8    3.47    0.30
  -1  19  -8    2.55    0.32
   2 -19   8    1.90    0.24
   2 -19   8    1.42    0.23
  -2 -19  -8    1.66    0.23
  -2  19  -8    1.62    0.28
  -3 -19  -8    4.40    0.35
   3 -19   8    4.60    0.36
  -3  19  -8    3.92    0.38
   3  19   8    4.02    0.35
   4 -19   8    2.11    0.26
  -4 -19  -8    2.54    0.29
  -4  19  -8    1.98    0.31
   4  19   8    2.29    0.28
   5 -19   8    5.20    0.40
  -5 -19  -8    4.88    0.39
  -5  19  -8    5.19    0.54
   5  19   8    5.48    0.41
   6 -19   8    4.00    0.51
   6  19   8    4.36    0.39
   6 -20  -8    0.87    0.21
   6  20  -8    1.11    0.24
   5 -20  -8    3.63    0.37
   5 -20  -8    3.86    0.34
   5  20  -8    4.51    0.39
   4 -20  -8    1.76    0.24
  -4 -20   8    1.71    0.26
   4  20  -8    1.34    0.27
   3 -20  -8    4.69    0.35
  -3 -20   8    3.27    0.31
  -3 -20   8    3.14    0.30
   3  20  -8    3.48    0.35
  -2 -20   8    3.17    0.30
  -2 -20   8    3.05    0.29
   2 -20  -8    3.32    0.32
   2  20  -8    2.97    0.33
  -2  20   8    3.54    0.35
  -1 -20   8    3.97    0.35
   1 -20  -8    4.05    0.34
  -1 -20   8    4.66    0.35
   1  20  -8    3.97    0.38
   0 -20  -8    6.01    0.40
   0 -20   8    6.06    0.40
   0 -20   8    5.40    0.39
   0  20  -8    5.56    0.46
  -1 -20  -8    3.60    0.31
  -1 -20  -8    3.18    0.30
   1 -20   8    2.87    0.28
   1 -20   8    2.95    0.29
  -1  20  -8    3.06    0.36
   2 -20   8    9.59    0.50
  -2 -20  -8   10.21    0.49
   2  20   8    9.39    0.50
  -2  20  -8   10.29    0.59
  -3 -20  -8    1.22    0.22
   3 -20   8    1.01    0.22
  -3  20  -8    1.91    0.32
   3  20   8    1.31    0.23
  -4 -20  -8    8.03    0.50
   4 -20   8    8.18    0.48
   4  20   8    8.42    0.49
   5  20   8    6.04    0.67
   5 -21  -8    2.91    0.46
   4 -21  -8    4.40    0.36
  -4  21   8    4.43    0.43
   4  21  -8    4.33    0.42
  -3 -21   8    1.01    0.23
   3 -21  -8    1.24    0.23
  -3  21   8    1.28    0.26
   3  21  -8    1.27    0.27
   2 -21  -8    6.56    0.41
  -2 -21   8    5.44    0.40
  -2 -21   8    5.41    0.40
   2  21  -8    5.53    0.46
   1 -21  -8    0.80    0.20
  -1 -21   8    0.50    0.19
  -1 -21   8    0.63    0.20
   1  21  -8    0.64    0.25
   0 -21  -8    4.62    0.38
   0 -21   8    5.10    0.37
   0 -21   8    5.10    0.38
   0  21  -8    5.06    0.46
   1 -21   8    7.46    0.45
   1 -21   8    7.44    0.44
  -1 -21  -8    7.78    0.43
  -1 -21  -8    7.13    0.45
  -1  21  -8    8.37    0.82
   2 -21   8    6.41    0.43
  -2 -21  -8    6.77    0.42
   2  21   8    5.83    0.42
   3  21   8    2.72    0.35
   0 -22   8    4.10    0.50
  13   0  -9    0.87    0.20
  13   0  -9    0.36    0.23
  12   0  -9    2.60    0.26
  12   0  -9    3.02    0.30
  11   0  -9    0.15    0.15
  11   0  -9   -0.31    0.14
  10   0  -9   25.69    0.84
  10   0  -9   26.72    0.81
   9   0  -9   17.38    0.62
   9   0  -9   16.53    0.56
  -8   0   9    0.09    0.08
   8   0  -9   -0.05    0.10
   8   0  -9    0.06    0.12
   7   0  -9    0.07    0.09
  -7   0   9   -0.01    0.07
   7   0  -9   -0.03    0.11
   6   0  -9    8.58    0.37
   6   0  -9    8.88    0.30
  -6   0   9    8.46    0.31
   5   0  -9   15.77    0.45
  -5   0   9   16.16    0.49
   5   0  -9   16.87    0.55
   4   0  -9    1.23    0.14
  -4   0   9    1.89    0.15
   4   0  -9    1.68    0.10
  -3   0   9   50.89    1.31
   3   0  -9   50.48    1.35
   3   0  -9   50.59    1.22
   2   0  -9    0.23    0.09
  -2   0   9    0.22    0.08
  -1   0   9    3.29    0.20
   1   0  -9    3.69    0.19
   0   0   9   45.97    1.18
   0   0  -9   43.79    1.19
  -1   0  -9  108.71    2.74
   1   0   9  112.26    2.67
   2   0   9   48.41    1.22
   2   0   9   49.40    1.29
  -2   0  -9   48.24    1.27
   3   0   9   76.72    1.95
   3   0   9   75.57    1.90
  -3   0  -9   76.61    1.92
   4   0   9    9.39    0.33
  -4   0  -9    9.52    0.33
   4   0   9    9.10    0.35
   5   0   9    0.85    0.14
   5   0   9    0.85    0.13
  -5   0  -9    0.84    0.10
   6   0   9    1.37    0.17
   6   0   9    1.38    0.16
   7   0   9   13.20    0.49
   7   0   9   13.43    0.49
   8   0   9    7.92    0.37
   8   0   9    7.79    0.38
   9   0   9   -0.02    0.12
   9   0   9   -0.21    0.15
  10   0   9    1.04    0.17
  10   0   9    0.79    0.20
  11   0   9    0.42    0.20
  12   0   9    0.18    0.20
  13   0   9    1.66    0.30
  13  -1  -9    1.74    0.25
  13  -1  -9    1.80    0.31
  13   1  -9    1.49    0.27
  13   1  -9    2.00    0.37
  12  -1  -9   11.42    0.49
  12  -1  -9   10.52    0.52
  12   1  -9   10.43    0.50
  12   1  -9   11.70    0.51
  11  -1  -9   53.26    1.48
  11  -1  -9   54.12    1.53
  11   1  -9   54.26    1.49
  11   1  -9   53.08    1.52
  10  -1  -9    8.41    0.42
  10  -1  -9    7.92    0.38
  10   1  -9    8.28    0.41
  10   1  -9    7.74    0.38
   9  -1  -9   14.68    0.51
   9  -1  -9   14.40    0.56
   9   1  -9   15.30    0.52
   9   1  -9   14.87    0.56
  -8  -1   9   26.23    0.72
   8  -1  -9   25.13    0.81
   8  -1  -9   25.25    0.74
   8   1  -9   25.37    0.75
   8   1  -9   25.67    0.80
   7  -1  -9   16.62    0.57
   7  -1  -9   16.76    0.50
  -7  -1   9   16.13    0.49
   7   1  -9   16.12    0.56
  -7   1   9   15.67    0.48
   7   1  -9   16.08    0.50
   6  -1  -9   15.08    0.53
  -6  -1   9   15.20    0.47
   6  -1  -9   15.61    0.45
  -6   1   9   15.01    0.46
   6   1  -9   15.37    0.46
   6   1  -9   14.99    0.53
   5  -1  -9   14.59    0.55
  -5  -1   9   19.17    0.53
   5  -1  -9   18.25    0.48
  -5   1   9   18.44    0.52
   5   1  -9   19.28    0.59
   5   1  -9   14.70    0.48
   4  -1  -9   11.19    0.32
  -4  -1   9   11.78    0.38
   4   1  -9   11.63    0.32
   4   1  -9   11.29    0.41
  -4   1   9   11.54    0.37
  -3  -1   9   11.24    0.38
   3  -1  -9   11.33    0.29
   3   1  -9   11.87    0.30
  -3   1   9   12.01    0.38
  -2  -1   9   80.47    2.05
   2  -1  -9   81.15    2.07
  -2   1   9   82.48    2.04
   2   1  -9   81.59    2.08
  -1  -1   9   25.50    0.69
   1  -1  -9   23.13    0.69
   1   1  -9   24.02    0.70
  -1   1   9   24.16    0.68
   0  -1   9    2.62    0.19
   0  -1  -9    2.52    0.16
   0  -1   9    2.64    0.08
   0   1   9    2.74    0.18
   0   1  -9    2.85    0.18
  -1  -1  -9   69.93    1.80
   1  -1   9   69.98    1.73
   1   1   9   73.14    1.81
   1   1   9   71.80    1.73
  -1   1  -9   70.35    1.81
   2  -1   9    4.04    0.23
   2  -1   9    4.03    0.16
  -2  -1  -9    4.18    0.19
   2   1   9    4.32    0.17
  -2   1  -9    4.02    0.21
   2   1   9    3.14    0.19
  -3  -1  -9    2.69    0.15
   3  -1   9    2.32    0.20
   3  -1   9    2.59    0.15
   3   1   9    2.53    0.16
  -3   1  -9    2.60    0.17
   3   1   9    2.26    0.20
   4  -1   9    2.54    0.21
   4  -1   9    2.67    0.18
  -4  -1  -9    2.29    0.15
   4   1   9    2.63    0.18
   4   1   9    2.24    0.20
  -4   1  -9    2.44    0.17
   5  -1   9    3.19    0.23
   5  -1   9    3.54    0.22
   5   1   9    3.49    0.24
   5   1   9    3.50    0.23
  -5   1  -9    3.18    0.19
   6  -1   9   29.79    0.84
   6  -1   9   29.57    0.85
   6   1   9   28.47    0.84
  -6   1  -9   28.43    0.82
   6   1   9   28.78    0.85
   7  -1   9   18.61    0.61
   7  -1   9   17.99    0.61
   7   1   9   18.59    0.61
   7   1   9   18.66    0.62
   8  -1   9   17.12    0.59
   8  -1   9   17.14    0.61
   8   1   9   17.37    0.59
   8   1   9   17.27    0.60
   9  -1   9    9.05    0.39
   9  -1   9    8.11    0.42
   9   1   9    8.05    0.42
   9   1   9    8.73    0.40
  10  -1   9   26.60    0.89
  10   1   9   26.75    0.89
  10   1   9   27.69    0.85
  11  -1   9    4.83    0.39
  11   1   9    4.06    0.37
  12  -1   9    2.69    0.31
  12   1   9    2.42    0.31
  13  -1   9    8.09    0.51
  13   1   9    8.12    0.51
  13  -2  -9    2.26    0.39
  13  -2  -9    2.26    0.27
  13   2  -9    2.16    0.30
  12  -2  -9    6.04    0.39
  12  -2  -9    6.16    0.37
  12   2  -9    6.67    0.40
  12   2  -9    5.73    0.39
  11  -2  -9    2.05    0.24
  11  -2  -9    1.52    0.20
  11   2  -9    1.49    0.22
  11   2  -9    1.71    0.22
  10  -2  -9    1.43    0.21
  10  -2  -9    1.46    0.18
  10   2  -9    1.14    0.19
  10   2  -9    1.57    0.21
   9  -2  -9    5.42    0.30
   9  -2  -9    5.94    0.35
  -9  -2   9    5.81    0.26
   9   2  -9    6.03    0.34
   9   2  -9    5.68    0.31
   8  -2  -9   11.97    0.49
   8  -2  -9   12.11    0.42
  -8  -2   9   11.93    0.40
   8   2  -9   12.08    0.48
   8   2  -9   12.23    0.43
  -7  -2   9   56.66    1.45
   7  -2  -9   55.42    1.44
   7  -2  -9   57.68    1.54
  -7   2   9   56.43    1.42
   7   2  -9   55.45    1.45
   7   2  -9   55.04    1.52
   6  -2  -9   17.89    0.61
   6  -2  -9   18.70    0.53
  -6  -2   9   18.10    0.56
  -6   2   9   18.82    0.54
   6   2  -9   18.57    0.62
   6   2  -9   19.70    0.55
  -5  -2   9   44.52    1.18
  -5   2   9   44.86    1.16
   5   2  -9   45.43    1.24
  -4  -2   9   27.85    0.77
   4  -2  -9   23.67    0.79
   4  -2  -9   27.50    0.70
   4   2  -9   28.93    0.71
  -4   2   9   28.07    0.75
   4   2  -9   28.79    0.81
   3  -2  -9   35.40    1.01
   3  -2  -9   36.71    0.90
  -3  -2   9   37.72    0.99
  -3   2   9   37.08    0.97
   3   2  -9   37.11    0.91
   2  -2  -9   27.70    0.80
  -2  -2   9   28.19    0.79
  -2   2   9   27.55    0.77
   2   2  -9   28.14    0.81
   2   2  -9   28.72    0.69
  -1  -2   9    1.58    0.15
   1  -2  -9    1.35    0.13
   1   2  -9    1.42    0.14
  -1   2   9    1.64    0.14
   0  -2  -9    7.88    0.29
   0  -2   9    7.57    0.30
   0  -2   9    7.90    0.21
   0   2  -9    7.75    0.31
   0   2   9    7.80    0.30
   0   2   9    7.90    0.21
   1  -2   9    8.17    0.31
   1  -2   9    7.82    0.23
  -1  -2  -9    7.88    0.29
   1   2   9    7.85    0.24
  -1   2  -9    7.73    0.31
   1   2   9    7.96    0.31
   2  -2   9   26.97    0.77
   2  -2   9   26.54    0.71
  -2  -2  -9   27.49    0.74
  -2   2  -9   26.84    0.77
   2   2   9   27.09    0.71
   3  -2   9    2.85    0.16
  -3  -2  -9    2.49    0.15
   3  -2   9    3.02    0.21
   3   2   9    3.14    0.18
  -3   2  -9    3.05    0.19
   3   2   9    3.05    0.19
   4  -2   9    9.97    0.37
   4  -2   9   10.36    0.35
  -4   2  -9   10.51    0.36
   4   2   9    9.58    0.35
   4   2   9    9.63    0.38
   5  -2   9   15.36    0.51
   5  -2   9   14.47    0.49
  -5   2  -9   15.22    0.49
   5   2   9   15.82    0.50
   5   2   9   15.39    0.52
   6  -2   9    6.51    0.31
   6  -2   9    6.72    0.31
   6   2   9    6.41    0.31
  -6   2  -9    6.27    0.28
   6   2   9    6.36    0.32
   7  -2   9   22.43    0.69
   7  -2   9   21.82    0.70
   7   2   9   21.73    0.70
   7   2   9   22.44    0.71
   8  -2   9    3.16    0.25
   8  -2   9    2.95    0.26
   8   2   9    2.96    0.27
   8   2   9    2.85    0.25
   9  -2   9   10.02    0.42
   9  -2   9    9.10    0.44
   9   2   9   10.21    0.43
   9   2   9    9.48    0.46
  10  -2   9    0.12    0.17
  10   2   9    0.60    0.16
  10   2   9   -0.07    0.16
  11  -2   9    2.28    0.27
  11   2   9    1.95    0.26
  12  -2   9    0.72    0.24
  12   2   9    0.49    0.23
  13  -2   9    1.27    0.26
  13   2   9    1.40    0.29
  14  -3  -9    2.39    0.29
  13  -3  -9    5.15    0.38
  13   3  -9    4.88    0.45
  12  -3  -9   11.65    0.50
  12  -3  -9   11.61    0.53
  12   3  -9   10.17    0.50
  12   3  -9   11.63    0.51
  11  -3  -9    6.49    0.36
  11  -3  -9    6.23    0.39
  11   3  -9    6.29    0.36
  11   3  -9    6.55    0.38
  10  -3  -9   64.39    1.78
  10  -3  -9   63.46    1.71
  10   3  -9   65.33    1.73
  10   3  -9   64.85    1.76
   9  -3  -9    1.78    0.18
  -9  -3   9    1.96    0.18
   9  -3  -9    2.17    0.23
   9   3  -9    1.98    0.21
   9   3  -9    1.96    0.20
   8  -3  -9   17.05    0.55
   8  -3  -9   17.80    0.63
  -8  -3   9   16.81    0.54
   8   3  -9   18.28    0.61
   8   3  -9   17.00    0.56
   7  -3  -9   38.12    1.02
   7  -3  -9   38.19    1.10
  -7  -3   9   38.70    1.03
  -7   3   9   38.05    0.99
   7   3  -9   36.90    1.09
   7   3  -9   37.87    1.03
  -6  -3   9   34.53    0.95
   6  -3  -9   35.49    0.92
   6  -3  -9   34.24    1.01
   6   3  -9   34.77    1.01
   6   3  -9   34.98    0.93
  -6   3   9   35.14    0.91
   5   3  -9   10.12    0.32
  -4  -3   9    9.25    0.35
   4  -3  -9    9.11    0.28
   4  -3  -9    9.21    0.37
  -4   3   9    9.36    0.32
   4   3  -9   10.21    0.39
   4   3  -9    9.83    0.30
   3  -3  -9    2.46    0.10
  -3  -3   9    2.52    0.18
   3  -3  -9    2.56    0.19
   3   3  -9    2.09    0.19
  -3   3   9    2.44    0.16
   3   3  -9    2.75    0.12
   2  -3  -9   31.86    0.91
   2  -3  -9   33.53    0.81
  -2  -3   9   33.86    0.91
   2   3  -9   32.65    0.93
   2   3  -9   33.26    0.82
  -2   3   9   32.60    0.89
   1  -3  -9   81.94    2.09
  -1  -3   9   82.94    2.00
  -1  -3   9   87.16    2.10
  -1   3   9   81.91    2.07
   1   3  -9   79.10    2.11
  -1   3   9   82.88    1.99
   0  -3  -9   45.03    1.21
   0  -3   9   45.07    1.13
   0   3   9   47.72    1.22
   0   3  -9   46.81    1.24
   0   3   9   46.08    1.13
   1  -3   9    4.75    0.17
   1  -3   9    4.45    0.23
  -1  -3  -9    4.41    0.21
  -1   3  -9    5.05    0.24
   1   3   9    5.34    0.24
   1   3   9    5.30    0.18
  -2  -3  -9    0.93    0.10
   2  -3   9    0.85    0.12
   2  -3   9    0.91    0.08
   2   3   9    0.50    0.10
   2   3   9    0.83    0.09
  -2   3  -9    0.76    0.11
   3  -3   9    0.26    0.07
   3  -3   9    0.33    0.12
   3   3   9    0.10    0.04
   3   3   9    0.32    0.09
  -3   3  -9    0.21    0.09
  -4  -3  -9    6.60    0.25
   4  -3   9    8.77    0.31
   4  -3   9    8.03    0.32
  -4   3  -9    7.88    0.32
   4   3   9    7.71    0.31
   5  -3   9   11.59    0.43
   5  -3   9   12.41    0.42
  -5   3  -9   11.57    0.42
   5   3   9   11.52    0.42
   6  -3   9   23.30    0.71
   6  -3   9   23.47    0.71
   6   3   9   23.44    0.72
  -6   3  -9   23.51    0.70
   7  -3   9   40.42    1.12
   7  -3   9   40.62    1.13
   7   3   9   39.21    1.13
   8  -3   9    6.50    0.33
   8  -3   9    6.20    0.34
   8   3   9    6.25    0.36
   9  -3   9    5.02    0.34
   9  -3   9    5.44    0.31
   9   3   9    4.75    0.34
   9   3   9    5.34    0.33
  10  -3   9    0.53    0.18
  10   3   9    0.72    0.21
  10   3   9    0.84    0.17
  11  -3   9    0.08    0.18
  11   3   9   -0.09    0.18
  11   3   9    0.41    0.16
  12  -3   9    0.59    0.23
  12   3   9    0.09    0.22
  13  -3   9    1.63    0.33
  13   3   9    1.50    0.30
  14  -4  -9    7.18    0.46
  13  -4  -9    4.21    0.36
  13   4  -9    4.63    0.42
  12  -4  -9    1.13    0.20
  12  -4  -9    1.65    0.24
  12   4  -9    1.54    0.34
  12   4  -9    1.54    0.23
  11  -4  -9    3.62    0.32
  11  -4  -9    3.49    0.29
  11   4  -9    3.08    0.28
  11   4  -9    2.78    0.26
  10  -4  -9    9.58    0.41
  10  -4  -9    9.22    0.46
  10   4  -9    8.97    0.43
  10   4  -9    9.25    0.43
  -9  -4   9   26.32    0.77
   9  -4  -9   27.75    0.87
   9  -4  -9   26.58    0.79
   9   4  -9   25.42    0.83
   9   4  -9   25.70    0.80
   8  -4  -9   13.58    0.47
   8  -4  -9   13.94    0.53
  -8  -4   9   13.25    0.46
   8   4  -9   13.72    0.52
   8   4  -9   14.04    0.49
  -7  -4   9    5.72    0.27
   7  -4  -9    5.13    0.25
   7  -4  -9    5.63    0.32
   7   4  -9    5.15    0.30
   7   4  -9    5.37    0.27
   6  -4  -9    1.58    0.14
  -6  -4   9    1.19    0.14
   6  -4  -9    1.08    0.15
   6   4  -9    1.53    0.14
  -6   4   9    1.55    0.12
   6   4  -9    1.29    0.17
   5  -4  -9    0.82    0.08
  -5  -4   9    0.73    0.12
   5   4  -9    0.93    0.15
   5   4  -9    0.91    0.10
  -5   4   9    0.94    0.10
   4  -4  -9   23.86    0.70
   4  -4  -9   22.94    0.60
  -4  -4   9   23.09    0.67
  -4   4   9   22.17    0.63
   4   4  -9   22.29    0.70
   3  -4  -9   94.63    2.33
  -3  -4   9   98.28    2.41
   3  -4  -9   94.04    2.43
   3   4  -9   97.47    2.34
  -3   4   9   92.96    2.38
   3   4  -9   98.60    2.45
   2  -4  -9   14.92    0.50
   2  -4  -9   15.36    0.41
  -2  -4   9   15.75    0.50
  -2   4   9   15.20    0.47
   2   4  -9   16.23    0.42
  -1  -4   9   57.04    1.43
  -1  -4   9   53.76    1.34
   1  -4  -9   53.80    1.42
   1   4  -9   53.80    1.44
  -1   4   9   53.61    1.40
   0  -4   9    0.13    0.04
   0  -4  -9    0.30    0.08
   0  -4   9    0.68    0.10
   0   4   9    0.14    0.09
   0   4  -9    0.14    0.09
   0   4   9    0.23    0.05
   1  -4   9    9.91    0.30
  -1  -4  -9   10.16    0.34
   1  -4   9   10.07    0.37
   1   4   9    9.64    0.35
  -1   4  -9    9.97    0.37
   1   4   9   10.26    0.30
   2  -4   9    1.61    0.16
  -2  -4  -9    1.84    0.13
   2  -4   9    1.77    0.12
   2   4   9    1.53    0.13
  -2   4  -9    1.62    0.15
   3  -4   9   24.82    0.74
   3  -4   9   24.95    0.69
   3   4   9   25.24    0.70
  -3   4  -9   25.39    0.74
   4  -4   9    3.56    0.20
   4  -4   9    3.42    0.23
  -4  -4  -9    3.41    0.23
  -4   4  -9    3.29    0.21
   4   4   9    3.14    0.21
   5  -4   9    6.67    0.31
   5  -4   9    7.31    0.30
  -5  -4  -9    7.18    0.33
  -5   4  -9    6.66    0.31
   5   4   9    6.31    0.31
   6  -4   9   33.69    0.95
   6  -4   9   33.05    0.95
  -6  -4  -9   33.58    0.97
   6   4   9   33.67    0.96
  -6   4  -9   33.44    0.95
  -7  -4  -9   11.07    0.44
   7  -4   9   12.22    0.45
   7  -4   9   11.31    0.43
   7   4   9   10.82    0.46
  -7   4  -9   11.10    0.42
   8  -4   9    9.09    0.38
  -8  -4  -9    9.01    0.40
   8  -4   9    8.84    0.41
   8   4   9    8.89    0.42
   9  -4   9    8.72    0.43
   9   4   9    9.53    0.45
  10  -4   9    0.05    0.15
  10   4   9    0.27    0.18
  11  -4   9   14.23    0.61
  11   4   9   14.92    0.57
  11   4   9   14.18    0.63
  12  -4   9    1.16    0.25
  12   4   9    1.03    0.27
  13   4   9    4.37    0.59
  14  -5  -9   16.27    0.70
  13  -5  -9    3.02    0.31
  13   5  -9    3.22    0.35
  12  -5  -9    0.73    0.19
  12  -5  -9    1.08    0.20
  12   5  -9    0.81    0.21
  11  -5  -9    2.20    0.25
  11  -5  -9    2.40    0.23
  11   5  -9    3.07    0.29
  11   5  -9    3.00    0.28
 -10  -5   9    5.90    0.29
  10  -5  -9    5.81    0.37
  10  -5  -9    6.27    0.32
  10   5  -9    5.42    0.35
  10   5  -9    5.93    0.34
  -9  -5   9   17.15    0.57
   9  -5  -9   17.53    0.65
   9  -5  -9   17.16    0.58
   9   5  -9   17.59    0.62
   9   5  -9   17.48    0.59
   8  -5  -9    5.51    0.34
  -8  -5   9    4.97    0.27
   8  -5  -9    5.57    0.28
   8   5  -9    5.87    0.30
   8   5  -9    5.03    0.31
  -7  -5   9   12.31    0.44
   7  -5  -9   12.06    0.41
   7  -5  -9   12.17    0.50
   7   5  -9   12.76    0.49
   7   5  -9   12.91    0.44
   6  -5  -9   22.00    0.79
  -6  -5   9   27.72    0.77
   6  -5  -9   27.16    0.73
   6   5  -9   25.88    0.80
   6   5  -9   26.48    0.75
  -6   5   9   27.29    0.70
  -5  -5   9    3.70    0.23
   5  -5  -9    4.03    0.18
   5   5  -9    4.20    0.20
   5   5  -9    4.07    0.26
  -5   5   9    4.33    0.20
   4  -5  -9   14.81    0.51
  -4  -5   9   14.76    0.48
   4   5  -9   12.54    0.42
  -4   5   9   14.78    0.44
   4   5  -9   15.22    0.51
   3  -5  -9  129.89    3.28
   3  -5  -9  132.05    3.19
  -3  -5   9  131.36    3.26
  -3   5   9  129.81    3.22
   3   5  -9  134.03    3.30
  -2  -5   9   80.90    1.96
   2  -5  -9   74.61    1.96
   2  -5  -9   76.78    1.87
  -2  -5   9   75.06    1.88
  -2   5   9   76.00    1.93
   1  -5  -9    3.95    0.21
  -1  -5   9    3.73    0.15
   1  -5  -9    3.69    0.14
  -1   5   9    3.93    0.21
   1   5  -9    3.87    0.24
   0  -5   9   23.67    0.63
   0  -5   9   25.29    0.71
   0  -5  -9   24.20    0.69
   0   5   9   23.40    0.63
   0   5   9   23.96    0.69
   0   5  -9   23.77    0.72
  -1  -5  -9   27.57    0.76
  -1  -5  -9   26.26    0.73
   1  -5   9   25.59    0.70
   1  -5   9   26.30    0.76
   1   5   9   26.77    0.70
  -1   5  -9   26.54    0.79
  -2  -5  -9   37.12    0.96
   2  -5   9   37.73    1.01
  -2  -5  -9   34.65    1.00
   2  -5   9   35.79    0.95
  -2   5  -9   36.66    1.03
   2   5   9   37.06    0.96
   3  -5   9    6.41    0.25
   3  -5   9    6.61    0.30
   3   5   9    6.60    0.27
  -3   5  -9    6.66    0.31
  -4  -5  -9   10.86    0.44
   4  -5   9   12.88    0.42
   4  -5   9   12.65    0.45
   4   5   9   13.03    0.43
  -4   5  -9   12.82    0.46
   5  -5   9    9.41    0.36
   5  -5   9    9.09    0.38
  -5  -5  -9    8.94    0.37
  -5   5  -9    8.72    0.37
   5   5   9    8.83    0.36
   6  -5   9    3.42    0.25
  -6  -5  -9    3.45    0.25
   6  -5   9    3.46    0.24
  -6   5  -9    3.30    0.24
   6   5   9    3.07    0.25
  -7  -5  -9    2.89    0.24
   7  -5   9    2.62    0.24
   7  -5   9    2.59    0.22
  -7   5  -9    3.14    0.24
   7   5   9    3.07    0.26
  -8  -5  -9    5.80    0.33
   8  -5   9    5.92    0.34
   8  -5   9    5.71    0.31
   8   5   9    5.27    0.34
   9  -5   9   10.36    0.47
  -9  -5  -9   10.71    0.46
   9   5   9   10.43    0.49
  10  -5   9    5.99    0.38
 -10  -5  -9    6.20    0.37
  10   5   9    6.40    0.41
  11  -5   9    5.17    0.39
  11   5   9    4.81    0.40
  12  -5   9    3.26    0.33
  12   5   9    3.34    0.35
  14  -6  -9    6.90    0.46
  13  -6  -9   11.22    0.57
  13   6  -9   12.08    0.74
  12  -6  -9    9.58    0.51
  12  -6  -9   10.31    0.49
  12   6  -9   10.23    0.49
  11  -6  -9   11.97    0.49
  11  -6  -9   12.19    0.55
  11   6  -9   12.32    0.51
  11   6  -9   12.14    0.53
 -10  -6   9    4.91    0.28
  10  -6  -9    4.15    0.28
  10  -6  -9    4.34    0.33
  10   6  -9    4.69    0.33
  10   6  -9    4.35    0.30
  -9  -6   9    6.05    0.30
   9  -6  -9    5.71    0.36
   9  -6  -9    6.27    0.31
   9   6  -9    5.81    0.33
   9   6  -9    5.19    0.33
   8  -6  -9   15.15    0.51
   8  -6  -9   15.84    0.58
  -8  -6   9   15.05    0.52
   8   6  -9   15.42    0.53
   8   6  -9   15.22    0.56
  -7  -6   9    0.83    0.14
   7  -6  -9    0.81    0.12
   7  -6  -9    0.92    0.18
   7   6  -9    0.96    0.16
   7   6  -9    0.99    0.14
   6  -6  -9   94.51    2.36
   6  -6  -9   96.66    2.46
  -6  -6   9   92.95    2.40
   6   6  -9   94.92    2.45
   6   6  -9   94.47    2.38
  -5  -6   9    6.06    0.29
   5  -6  -9    5.30    0.30
   5  -6  -9    5.81    0.23
  -5   6   9    5.71    0.23
   5   6  -9    6.00    0.30
   5   6  -9    6.09    0.25
   4  -6  -9    0.60    0.12
   4  -6  -9    0.41    0.07
  -4  -6   9    0.36    0.11
   4   6  -9    0.46    0.13
   4   6  -9    0.44    0.08
  -4   6   9    0.57    0.10
   3  -6  -9   62.49    1.64
  -3  -6   9   64.47    1.62
   3   6  -9   61.30    1.64
   3   6  -9   60.60    1.55
  -3   6   9   60.49    1.57
  -2  -6   9   33.15    0.83
   2  -6  -9   31.70    0.90
  -2  -6   9   28.27    0.89
  -2   6   9   34.21    0.87
  -1  -6   9   50.54    1.28
   1  -6  -9   50.97    1.35
  -1   6   9   51.62    1.33
   0  -6  -9   18.01    0.54
   0  -6   9   17.35    0.50
   0  -6   9   18.34    0.57
   0  -6  -9   17.79    0.55
   0   6  -9   18.34    0.59
   0   6   9   17.64    0.50
  -1  -6  -9   56.15    1.48
   1  -6   9   58.18    1.50
  -1  -6  -9   57.41    1.46
   1  -6   9   56.20    1.43
   1   6   9   57.04    1.44
  -1   6  -9   56.66    1.52
   2  -6   9    3.10    0.17
  -2  -6  -9    3.22    0.17
  -2  -6  -9    3.24    0.21
   2  -6   9    3.16    0.23
   2   6   9    3.05    0.17
  -2   6  -9    3.20    0.23
   3  -6   9   41.96    1.14
   3  -6   9   41.99    1.10
   3   6   9   40.07    1.10
  -3   6  -9   42.40    1.16
  -4  -6  -9    8.70    0.37
   4  -6   9   10.70    0.37
   4  -6   9   10.67    0.40
   4   6   9    9.89    0.37
  -4   6  -9   10.40    0.41
   5  -6   9   23.21    0.70
  -5  -6  -9   23.70    0.73
   5  -6   9   23.99    0.70
  -5   6  -9   22.55    0.72
   5   6   9   22.44    0.71
   6  -6   9    8.42    0.37
  -6  -6  -9    9.12    0.39
   6  -6   9    9.21    0.38
  -6   6  -9    8.04    0.38
   6   6   9    9.08    0.39
   7  -6   9   14.30    0.50
   7  -6   9   14.33    0.53
  -7  -6  -9   14.02    0.53
   7   6   9   14.52    0.54
  -7   6  -9   14.13    0.53
   8  -6   9    9.90    0.44
  -8  -6  -9   10.22    0.44
   8   6   9    9.42    0.45
  -8   6  -9   10.05    0.48
  -9  -6  -9    0.74    0.18
   9  -6   9    0.92    0.19
   9   6   9    0.84    0.20
  10  -6   9    4.32    0.35
 -10  -6  -9    3.94    0.31
  10   6   9    3.77    0.35
 -11  -6  -9    5.10    0.37
  11  -6   9    5.11    0.40
  11   6   9    5.06    0.41
  12  -6   9    1.73    0.26
  12   6   9    1.57    0.26
  14  -7  -9    0.76    0.22
  13  -7  -9    3.02    0.32
  13   7  -9    2.83    0.46
  12  -7  -9    6.55    0.44
  12  -7  -9    6.13    0.49
  12   7  -9    6.52    0.41
  11  -7  -9    9.57    0.50
  11  -7  -9    9.27    0.43
  11   7  -9   10.04    0.48
  10  -7  -9    0.76    0.15
  10  -7  -9    0.91    0.20
 -10  -7   9    1.00    0.15
  10   7  -9    1.12    0.18
  10   7  -9    1.00    0.19
   9  -7  -9   11.38    0.51
   9  -7  -9   11.52    0.44
  -9  -7   9   10.48    0.43
   9   7  -9   11.53    0.47
   9   7  -9   11.14    0.47
   8  -7  -9   20.91    0.74
   8  -7  -9   21.35    0.66
  -8  -7   9   21.38    0.67
   8   7  -9   21.41    0.71
   8   7  -9   21.26    0.68
   7  -7  -9   24.79    0.81
   7  -7  -9   25.14    0.72
  -7  -7   9   24.65    0.75
   7   7  -9   23.94    0.78
   7   7  -9   24.19    0.73
   6  -7  -9    7.64    0.31
   6  -7  -9    8.59    0.40
  -6  -7   9    8.07    0.35
   6   7  -9    8.24    0.38
   6   7  -9    8.58    0.34
   5  -7  -9   60.64    1.63
   5  -7  -9   59.82    1.54
  -5  -7   9   58.80    1.59
  -5   7   9   60.80    1.52
   5   7  -9   60.96    1.63
   5   7  -9   61.03    1.56
  -4  -7   9   39.22    1.09
   4  -7  -9   40.04    1.12
   4  -7  -9   39.06    1.03
  -4   7   9   39.88    1.04
   4   7  -9   39.35    1.13
   4   7  -9   39.46    1.05
  -3  -7   9    9.75    0.38
   3  -7  -9    9.78    0.39
   3  -7  -9    9.57    0.31
  -3   7   9    9.63    0.34
   3   7  -9    9.94    0.41
  -2  -7   9   34.80    0.92
   2  -7  -9   34.23    0.91
   2  -7  -9   36.32    1.00
  -2   7   9   36.13    0.95
   1  -7  -9   15.51    0.48
   1  -7  -9   15.30    0.50
   1  -7  -9   15.14    0.44
  -1  -7   9   15.28    0.44
   0  -7  -9   51.21    1.38
   0  -7   9   54.94    1.41
   0  -7   9   52.51    1.34
   0  -7  -9   53.26    1.39
  -1  -7  -9    7.32    0.29
   1  -7   9    7.69    0.27
   1  -7   9    7.99    0.34
  -1  -7  -9    7.98    0.32
  -1   7  -9    7.72    0.35
   1   7   9    7.70    0.28
  -2  -7  -9   35.45    0.99
  -2  -7  -9   35.55    0.94
   2  -7   9   36.33    0.99
   2  -7   9   34.81    0.94
   2   7   9   34.95    0.95
  -2   7  -9   34.59    1.02
   3  -7   9    0.09    0.08
   3  -7   9    0.08    0.12
  -3  -7  -9    0.10    0.09
   3   7   9   -0.02    0.08
  -3   7  -9   -0.05    0.11
   4  -7   9    6.66    0.31
  -4  -7  -9    6.19    0.32
   4  -7   9    6.54    0.29
   4   7   9    6.55    0.30
  -4   7  -9    6.56    0.33
   5  -7   9    2.44    0.20
  -5  -7  -9    2.81    0.24
   5  -7   9    2.74    0.22
  -5   7  -9    2.66    0.23
   5   7   9    2.93    0.24
  -6  -7  -9   20.00    0.65
   6  -7   9   19.97    0.64
   6  -7   9   19.62    0.63
  -6   7  -9   18.89    0.66
   6   7   9   18.90    0.65
   7  -7   9   11.44    0.44
  -7  -7  -9   10.99    0.46
   7  -7   9   10.48    0.45
  -7   7  -9   12.14    0.48
   7   7   9   11.10    0.48
  -8  -7  -9   23.57    0.77
   8  -7   9   24.72    0.79
   8   7   9   22.97    0.79
  -8   7  -9   24.07    0.78
  -9  -7  -9   11.63    0.49
   9  -7   9   11.16    0.50
   9   7   9    9.96    0.50
  10  -7   9    0.83    0.20
 -10  -7  -9    1.34    0.22
  10   7   9    1.50    0.25
  11  -7   9   18.71    0.72
 -11  -7  -9   17.82    0.67
  11   7   9   16.64    0.71
 -12  -7  -9    0.36    0.18
  12  -7   9    0.13    0.20
  12   7   9    0.88    0.25
  13  -8  -9    1.26    0.25
  12  -8  -9    7.75    0.47
  12   8  -9    8.53    0.47
 -11  -8   9    1.99    0.21
  11  -8  -9    2.01    0.22
  11  -8  -9    1.90    0.26
  11   8  -9    2.29    0.26
  10  -8  -9    6.47    0.41
  10  -8  -9    6.82    0.35
 -10  -8   9    6.63    0.34
  10   8  -9    6.81    0.38
  10   8  -9    7.13    0.39
  -9  -8   9    3.39    0.25
   9  -8  -9    2.94    0.28
   9  -8  -9    2.40    0.23
   9   8  -9    2.41    0.23
   9   8  -9    2.50    0.25
  -8  -8   9    9.81    0.41
   8  -8  -9    9.76    0.39
   8  -8  -9    9.98    0.47
   8   8  -9   10.53    0.43
   8   8  -9    9.90    0.44
  -7  -8   9    2.52    0.22
   7  -8  -9    2.64    0.20
   7  -8  -9    3.04    0.27
   7   8  -9    2.65    0.26
   7   8  -9    2.97    0.22
   6  -8  -9   44.18    1.24
   6  -8  -9   42.19    1.15
  -6  -8   9   43.75    1.20
   6   8  -9   42.78    1.17
   6   8  -9   42.53    1.22
   5  -8  -9   10.52    0.36
  -5  -8   9   10.88    0.42
   5  -8  -9   11.33    0.45
   5   8  -9   10.57    0.38
  -5   8   9   10.20    0.34
   5   8  -9    9.72    0.42
   4  -8  -9   10.10    0.34
   4  -8  -9   10.08    0.42
  -4  -8   9   10.44    0.40
   4   8  -9    9.78    0.42
  -4   8   9   10.07    0.34
   4   8  -9   10.18    0.36
   3  -8  -9    5.21    0.27
   3  -8  -9    4.86    0.21
  -3  -8   9    4.81    0.27
  -3  -8   9    5.37    0.22
  -3   8   9    4.70    0.23
   3   8  -9    4.61    0.30
  -2  -8   9    5.47    0.23
   2  -8  -9    5.54    0.22
   2  -8  -9    5.78    0.28
   2   8  -9    5.64    0.32
   1  -8  -9   13.67    0.45
  -1  -8   9   14.35    0.43
   1  -8  -9   14.16    0.42
   1  -8  -9   13.95    0.47
   0  -8  -9   11.99    0.41
   0  -8   9   11.36    0.37
   0  -8  -9   11.39    0.40
   0  -8  -9   11.26    0.36
   0  -8   9   11.28    0.42
  -1  -8  -9   11.02    0.40
   1  -8   9   11.04    0.42
  -1  -8  -9   11.16    0.38
   1  -8   9   10.89    0.37
  -1   8  -9   11.26    0.45
   1   8   9   11.00    0.37
   2  -8   9    6.39    0.30
  -2  -8  -9    6.46    0.25
  -2  -8  -9    6.60    0.31
   2  -8   9    6.58    0.27
   2   8   9    6.87    0.28
  -2   8  -9    6.08    0.33
  -3  -8  -9   18.00    0.59
   3  -8   9   18.23    0.56
   3  -8   9   18.50    0.59
   3   8   9   18.35    0.57
  -3   8  -9   18.47    0.63
  -4  -8  -9   32.41    0.94
   4  -8   9   32.59    0.92
   4  -8   9   32.78    0.93
  -4   8  -9   32.40    0.97
   4   8   9   31.67    0.92
  -5  -8  -9    1.11    0.16
   5  -8   9    1.53    0.16
   5  -8   9    1.61    0.18
   5   8   9    1.63    0.18
  -5   8  -9    1.61    0.19
   6  -8   9    4.99    0.29
   6  -8   9    5.08    0.29
  -6  -8  -9    5.06    0.29
   6   8   9    4.99    0.30
  -6   8  -9    5.20    0.32
  -7  -8  -9    2.50    0.23
   7  -8   9    2.29    0.20
   7  -8   9    2.09    0.21
   7   8   9    2.05    0.22
  -7   8  -9    2.21    0.23
   8  -8   9    3.86    0.30
  -8  -8  -9    3.83    0.30
  -8   8  -9    4.30    0.31
   8   8   9    4.06    0.33
  -9  -8  -9    2.56    0.25
   9  -8   9    2.46    0.25
   9   8   9    2.61    0.27
 -10  -8  -9    5.58    0.38
  10  -8   9    5.00    0.38
  10   8   9    5.60    0.40
 -11  -8  -9    1.73    0.25
  11  -8   9    1.03    0.22
  11   8   9    1.60    0.27
 -12  -8  -9    0.92    0.22
  12  -8   9    0.61    0.21
  12   8   9    0.38    0.23
  13  -9  -9   -0.01    0.19
  12  -9  -9    0.70    0.22
  12   9  -9    1.07    0.23
 -11  -9   9    7.62    0.40
  11  -9  -9    8.21    0.47
  11  -9  -9    7.84    0.41
  11   9  -9    8.00    0.44
 -10  -9   9    5.63    0.33
  10  -9  -9    5.67    0.38
  10  -9  -9    5.63    0.34
  10   9  -9    6.54    0.37
  10   9  -9    6.26    0.37
   9  -9  -9    0.12    0.15
  -9  -9   9   -0.04    0.12
   9  -9  -9    0.09    0.11
   9   9  -9   -0.03    0.12
   9   9  -9    0.06    0.13
   8  -9  -9   11.04    0.51
  -8  -9   9   11.54    0.47
   8  -9  -9   11.67    0.45
   8   9  -9   12.19    0.49
   8   9  -9   11.83    0.47
   7  -9  -9    9.44    0.37
  -7  -9   9    8.89    0.40
   7  -9  -9    9.30    0.45
   7   9  -9    9.96    0.40
   7   9  -9    9.44    0.43
   6  -9  -9    6.47    0.35
   6  -9  -9    6.60    0.29
  -6  -9   9    6.39    0.32
   6   9  -9    6.28    0.35
   6   9  -9    6.08    0.31
   5  -9  -9    9.92    0.36
  -5  -9   9   10.04    0.41
   5  -9  -9   10.17    0.43
   5   9  -9   10.26    0.44
   5   9  -9   10.00    0.38
   4  -9  -9   56.54    1.44
   4  -9  -9   57.29    1.53
  -4  -9   9   56.31    1.49
   4   9  -9   54.19    1.52
  -4   9   9   55.81    1.43
   4   9  -9   53.77    1.45
   3  -9  -9   47.51    1.33
  -3  -9   9   49.16    1.27
   3  -9  -9   48.27    1.26
  -3  -9   9   48.18    1.31
  -3   9   9   48.48    1.26
   3   9  -9   48.87    1.36
   2  -9  -9    6.48    0.25
   2  -9  -9    6.46    0.28
  -2  -9   9    6.60    0.26
   2  -9  -9    6.11    0.31
   2   9  -9    6.92    0.35
   1  -9  -9   49.67    1.34
   1  -9  -9   50.70    1.32
  -1  -9   9   49.04    1.30
   1  -9  -9   50.04    1.29
  -1  -9   9   50.73    1.35
   0  -9   9    4.81    0.26
   0  -9  -9    4.67    0.25
   0  -9  -9    5.17    0.22
   0  -9  -9    5.08    0.25
   0  -9   9    4.70    0.22
  -1  -9  -9   47.98    1.28
  -1  -9  -9   48.02    1.30
   1  -9   9   47.02    1.31
   1  -9   9   47.88    1.27
  -1   9  -9   50.71    1.37
   1   9   9   49.64    1.28
  -2  -9  -9   19.55    0.61
   2  -9   9   18.55    0.60
   2  -9   9   18.77    0.57
  -2  -9  -9   18.45    0.55
  -2   9  -9   18.21    0.65
   2   9   9   18.58    0.58
  -3  -9  -9   20.17    0.64
   3  -9   9   19.54    0.63
   3  -9   9   19.90    0.61
  -3   9  -9   19.71    0.67
   3   9   9   20.25    0.62
  -4  -9  -9   13.52    0.50
   4  -9   9   13.37    0.48
   4  -9   9   13.40    0.47
  -4   9  -9   13.50    0.53
   4   9   9   13.31    0.48
   5  -9   9    2.35    0.22
  -5  -9  -9    2.36    0.22
   5  -9   9    2.64    0.24
  -5   9  -9    2.82    0.26
   5   9   9    2.86    0.23
  -6  -9  -9   12.06    0.49
   6  -9   9   11.44    0.45
   6  -9   9   12.14    0.47
  -6   9  -9   12.54    0.51
   6   9   9   12.97    0.50
   7  -9   9    0.56    0.15
  -7  -9  -9    0.80    0.16
   7   9   9    0.79    0.17
  -7   9  -9    0.57    0.16
  -8  -9  -9    2.24    0.23
   8  -9   9    1.69    0.22
   8   9   9    2.28    0.25
  -8   9  -9    1.93    0.23
   9  -9   9    1.97    0.24
  -9  -9  -9    2.21    0.24
   9   9   9    2.25    0.26
  -9   9  -9    1.77    0.32
 -10  -9  -9    2.60    0.27
  10  -9   9    2.29    0.26
  10   9   9    2.92    0.31
 -11  -9  -9    3.73    0.33
  11  -9   9    4.21    0.37
  11   9   9    3.38    0.34
 -12  -9  -9   -0.18    0.17
  12 -10  -9    2.75    0.32
  12  10  -9    3.08    0.31
  11 -10  -9    7.42    0.45
  11 -10  -9    7.70    0.46
 -11 -10   9    7.07    0.39
  11  10  -9    7.78    0.44
 -10 -10   9    5.46    0.34
  10 -10  -9    5.90    0.41
  10 -10  -9    5.82    0.34
  10  10  -9    5.83    0.37
  -9 -10   9    1.64    0.20
   9 -10  -9    1.22    0.23
   9 -10  -9    1.70    0.19
   9  10  -9    1.41    0.20
   9  10  -9    1.79    0.22
   8 -10  -9   17.75    0.60
  -8 -10   9   17.71    0.62
   8 -10  -9   16.75    0.67
   8  10  -9   17.73    0.62
   8  10  -9   17.97    0.64
   7 -10  -9    2.34    0.24
  -7 -10   9    3.12    0.26
   7 -10  -9    2.90    0.22
   7  10  -9    3.01    0.24
   7  10  -9    2.67    0.26
   6 -10  -9   19.76    0.61
  -6 -10   9   19.53    0.65
   6 -10  -9   19.87    0.69
   6  10  -9   19.54    0.63
   6  10  -9   19.45    0.68
   5 -10  -9   16.31    0.52
   5 -10  -9   16.54    0.61
  -5 -10   9   16.31    0.57
   5  10  -9   16.94    0.61
   5  10  -9   16.36    0.54
   4 -10  -9   10.87    0.47
  -4 -10   9   11.95    0.46
   4 -10  -9   11.44    0.40
   4  10  -9   11.51    0.41
  -4  10   9   12.02    0.39
   4  10  -9   11.79    0.48
   3 -10  -9   13.25    0.50
  -3 -10   9   12.93    0.43
   3 -10  -9   12.76    0.43
  -3 -10   9   12.85    0.47
   3 -10  -9   13.02    0.43
   3  10  -9   13.00    0.52
   2 -10  -9    7.44    0.34
  -2 -10   9    8.28    0.35
  -2 -10   9    7.79    0.30
   2 -10  -9    7.35    0.31
   2 -10  -9    7.32    0.29
   2  10  -9    6.87    0.38
   1 -10  -9    1.75    0.15
   1 -10  -9    1.87    0.17
  -1 -10   9    1.79    0.16
   1 -10  -9    1.79    0.17
  -1 -10   9    2.18    0.20
   1  10  -9    2.27    0.22
   0 -10   9   20.74    0.61
   0 -10  -9   20.24    0.63
   0 -10  -9   19.28    0.63
   0 -10  -9   20.07    0.60
   0 -10   9   20.36    0.65
   0  10  -9   21.32    0.70
  -1 -10  -9    7.29    0.34
   1 -10   9    8.09    0.35
  -1 -10  -9    7.65    0.31
   1 -10   9    7.85    0.31
  -1  10  -9    7.71    0.38
   2 -10   9    4.11    0.26
  -2 -10  -9    3.72    0.26
   2 -10   9    4.02    0.23
  -2  10  -9    4.02    0.29
   2  10   9    4.12    0.23
  -3 -10  -9    2.93    0.24
   3 -10   9    2.45    0.23
   3 -10   9    2.97    0.21
   3  10   9    2.84    0.22
  -3  10  -9    2.81    0.25
   4 -10   9   13.24    0.47
   4 -10   9   12.79    0.48
  -4 -10  -9   13.76    0.50
  -4  10  -9   12.80    0.52
   4  10   9   12.81    0.48
   5 -10   9   52.26    1.41
   5 -10   9   52.88    1.43
  -5 -10  -9   52.27    1.45
   5  10   9   51.62    1.44
  -5  10  -9   53.02    1.49
  -6 -10  -9    3.12    0.28
   6 -10   9    3.58    0.26
   6 -10   9    3.61    0.27
   6  10   9    3.64    0.28
  -6  10  -9    3.92    0.31
   7 -10   9   13.09    0.52
  -7 -10  -9   12.83    0.53
   7  10   9   12.62    0.53
  -7  10  -9   13.07    0.55
  -8 -10  -9    3.86    0.32
   8 -10   9    4.18    0.32
  -8  10  -9    3.67    0.34
   8  10   9    4.12    0.34
  -9 -10  -9   24.63    0.85
   9 -10   9   26.15    0.87
  -9  10  -9   26.16    0.88
   9  10   9   24.43    0.87
 -10 -10  -9    0.88    0.20
  10 -10   9    0.37    0.18
  10  10   9    0.63    0.22
 -11 -10  -9    4.68    0.37
  11 -10   9    3.51    0.33
  11  10   9    4.21    0.40
 -12 -11   9    1.94    0.29
  12 -11  -9    1.74    0.29
  12  11  -9    2.32    0.30
 -11 -11   9    6.44    0.38
  11 -11  -9    7.40    0.47
  11  11  -9    6.81    0.43
  10 -11  -9   10.88    0.48
 -10 -11   9    9.85    0.47
  10 -11  -9   11.34    0.56
  10  11  -9   11.53    0.51
   9 -11  -9   18.41    0.72
  -9 -11   9   18.19    0.65
   9 -11  -9   18.50    0.64
   9  11  -9   17.57    0.65
   9  11  -9   18.55    0.67
   8 -11  -9    3.72    0.27
   8 -11  -9    3.83    0.34
  -8 -11   9    3.00    0.28
   8  11  -9    3.65    0.30
   8  11  -9    4.10    0.30
  -7 -11   9    3.56    0.29
   7 -11  -9    3.78    0.25
   7 -11  -9    3.22    0.32
   7  11  -9    3.83    0.29
   7  11  -9    3.54    0.29
   6 -11  -9    2.05    0.24
  -6 -11   9    1.62    0.19
   6 -11  -9    1.76    0.17
   6  11  -9    2.13    0.23
   6  11  -9    1.83    0.19
   5 -11  -9   13.80    0.55
  -5 -11   9   13.95    0.52
   5 -11  -9   13.33    0.47
   5  11  -9   13.63    0.53
   5  11  -9   13.46    0.49
  -4 -11   9    2.66    0.23
   4 -11  -9    2.56    0.19
   4 -11  -9    1.67    0.20
   4  11  -9    2.27    0.21
  -4  11   9    2.39    0.21
   4  11  -9    2.03    0.22
   3 -11  -9   12.93    0.43
  -3 -11   9   13.09    0.44
   3 -11  -9   13.01    0.44
   3 -11  -9   12.16    0.50
  -3 -11   9   12.74    0.49
   3  11  -9   12.95    0.53
  -2 -11   9    2.40    0.22
   2 -11  -9    1.89    0.17
   2 -11  -9    1.94    0.18
   2 -11  -9    2.22    0.22
  -2 -11   9    2.01    0.17
   2  11  -9    2.11    0.23
  -1 -11   9   10.84    0.42
   1 -11  -9    9.94    0.40
   1 -11  -9    9.46    0.35
   1 -11  -9    9.85    0.38
  -1 -11   9    9.68    0.37
   1  11  -9    9.39    0.45
   0 -11  -9   55.97    1.49
   0 -11  -9   55.60    1.47
   0 -11  -9   55.73    1.50
   0 -11   9   56.40    1.51
   0 -11   9   56.60    1.48
   0  11  -9   57.43    1.57
   1 -11   9   37.59    1.06
  -1 -11  -9   36.93    1.05
   1 -11   9   37.59    1.03
  -1 -11  -9   37.72    1.03
  -1  11  -9   37.48    1.12
   2 -11   9   14.30    0.49
  -2 -11  -9   14.38    0.52
   2 -11   9   15.05    0.52
  -2  11  -9   14.06    0.57
   2  11   9   14.68    0.50
   3 -11   9   10.29    0.40
  -3 -11  -9   10.53    0.43
   3 -11   9    9.80    0.41
  -3  11  -9   11.33    0.49
   3  11   9   10.20    0.41
  -4 -11  -9   13.56    0.52
   4 -11   9   13.74    0.50
   4 -11   9   13.03    0.49
   4  11   9   13.10    0.49
  -4  11  -9   13.46    0.56
   5 -11   9    3.55    0.27
  -5 -11  -9    3.70    0.29
   5 -11   9    3.01    0.25
  -5  11  -9    3.40    0.31
   5  11   9    3.59    0.26
  -6 -11  -9    6.94    0.38
   6 -11   9    6.94    0.37
  -6  11  -9    6.84    0.41
   6  11   9    8.18    0.40
   7 -11   9    4.05    0.31
  -7 -11  -9    3.50    0.28
  -7  11  -9    3.48    0.32
   7  11   9    3.64    0.32
  -8 -11  -9    0.38    0.16
   8 -11   9    0.38    0.17
   8  11   9    0.48    0.18
  -8  11  -9    0.20    0.17
  -9 -11  -9    7.60    0.43
   9 -11   9    7.66    0.44
   9  11   9    8.11    0.47
  -9  11  -9    7.44    0.44
  10 -11   9    6.01    0.41
 -10 -11  -9    5.71    0.39
  10  11   9    5.13    0.42
  11 -11   9    0.16    0.19
 -11 -11  -9    0.79    0.21
  11  11   9    0.26    0.22
 -12 -12   9    1.31    0.22
  12  12  -9    1.18    0.31
 -11 -12   9   11.56    0.52
  11 -12  -9   11.82    0.61
  11  12  -9   12.06    0.56
  10 -12  -9    5.26    0.35
 -10 -12   9    5.49    0.36
  10 -12  -9    5.69    0.43
  10  12  -9    5.89    0.39
   9 -12  -9   11.71    0.57
   9 -12  -9   11.61    0.49
  -9 -12   9   12.17    0.51
   9  12  -9   11.89    0.52
   8 -12  -9    4.42    0.30
  -8 -12   9    4.51    0.32
   8 -12  -9    4.07    0.36
   8  12  -9    4.68    0.32
   8  12  -9    4.42    0.32
  -7 -12   9   26.20    0.87
   7 -12  -9   28.07    0.94
   7 -12  -9   28.04    0.84
   7  12  -9   28.18    0.87
   7  12  -9   27.24    0.88
  -6 -12   9   18.69    0.67
   6 -12  -9   19.30    0.71
   6 -12  -9   20.20    0.63
   6  12  -9   19.41    0.65
   6  12  -9   19.17    0.69
   5 -12  -9    6.61    0.31
   5 -12  -9    6.71    0.38
  -5 -12   9    6.06    0.35
   5  12  -9    6.29    0.33
   5  12  -9    6.20    0.37
   4 -12  -9    8.88    0.35
   4 -12  -9    8.33    0.42
  -4 -12   9    8.48    0.40
   4  12  -9    8.12    0.42
   3 -12  -9   71.69    1.94
  -3 -12   9   74.71    1.92
   3 -12  -9   71.98    1.87
  -3 -12   9   70.76    1.87
   3 -12  -9   70.34    1.85
   3  12  -9   74.37    1.96
   2 -12  -9   13.03    0.50
   2 -12  -9   12.60    0.44
  -2 -12   9   12.66    0.45
  -2 -12   9   13.19    0.50
   2 -12  -9   12.55    0.45
   2  12  -9   12.19    0.53
   1 -12  -9    6.22    0.30
   1 -12  -9    6.05    0.28
   1 -12  -9    5.88    0.32
  -1 -12   9    5.63    0.29
  -1 -12   9    6.26    0.33
   1  12  -9    6.56    0.36
   0 -12  -9    5.52    0.28
   0 -12   9    5.67    0.29
   0 -12   9    5.62    0.31
   0 -12  -9    6.13    0.31
   0 -12  -9    5.88    0.30
   0  12  -9    5.63    0.34
  -1 -12  -9    2.01    0.18
  -1 -12  -9    2.06    0.19
   1 -12   9    2.09    0.19
  -1 -12  -9    1.74    0.18
   1 -12   9    1.95    0.19
  -1  12  -9    1.67    0.22
   2 -12   9   28.22    0.84
   2 -12   9   28.10    0.83
  -2 -12  -9   27.43    0.84
  -2  12  -9   28.12    0.91
   2  12   9   27.48    0.83
   3 -12   9   11.15    0.43
  -3 -12  -9   10.78    0.45
   3 -12   9   11.01    0.44
   3  12   9   11.18    0.44
  -3  12  -9   10.87    0.49
  -4 -12  -9    4.67    0.30
   4 -12   9    3.84    0.27
   4 -12   9    3.61    0.26
   4  12   9    3.88    0.28
  -4  12  -9    4.10    0.33
   5 -12   9    6.54    0.32
  -5 -12  -9    6.61    0.36
   5 -12   9    6.08    0.34
  -5  12  -9    6.00    0.39
   5  12   9    6.80    0.36
  -6 -12  -9    4.49    0.32
   6 -12   9    3.94    0.30
   6  12   9    4.86    0.33
  -6  12  -9    4.62    0.35
   7 -12   9    4.27    0.32
  -7 -12  -9    4.27    0.31
  -7  12  -9    4.38    0.36
   7  12   9    4.98    0.35
   8 -12   9    3.34    0.32
  -8 -12  -9    2.87    0.28
  -8  12  -9    3.19    0.31
   8  12   9    3.60    0.34
  -9 -12  -9    3.86    0.34
   9 -12   9    3.91    0.36
   9  12   9    3.49    0.33
  -9  12  -9    4.18    0.38
  10 -12   9    0.96    0.22
 -10 -12  -9    0.67    0.19
  10  12   9    1.27    0.26
 -12 -13   9    5.66    0.39
  11 -13  -9    3.57    0.37
 -11 -13   9    3.77    0.33
  11  13  -9    3.63    0.34
  10 -13  -9   11.49    0.67
 -10 -13   9   12.30    0.54
  10 -13  -9   11.49    0.60
  10  13  -9   11.22    0.54
   9 -13  -9    2.64    0.30
   9 -13  -9    3.05    0.29
  -9 -13   9    2.47    0.25
   9  13  -9    3.27    0.31
   8 -13  -9   -0.23    0.15
   8 -13  -9    0.02    0.13
  -8 -13   9    0.30    0.16
   8  13  -9    0.12    0.14
   8  13  -9   -0.13    0.13
   7 -13  -9   13.60    0.60
   7 -13  -9   13.38    0.51
  -7 -13   9   12.93    0.54
   7  13  -9   14.10    0.57
   7  13  -9   13.63    0.54
  -6 -13   9    7.85    0.40
   6 -13  -9    8.51    0.45
   6 -13  -9    8.50    0.38
   6  13  -9    8.02    0.42
   6  13  -9    8.01    0.40
  -5 -13   9    1.70    0.21
   5 -13  -9    1.59    0.22
   5 -13  -9    1.73    0.18
   5  13  -9    1.67    0.23
   5  13  -9    1.30    0.17
   4 -13  -9    2.82    0.28
  -4 -13   9    2.69    0.25
   4 -13  -9    3.30    0.23
   4  13  -9    3.33    0.30
   3 -13  -9    3.29    0.24
   3 -13  -9    3.46    0.29
   3 -13  -9    3.95    0.34
  -3 -13   9    3.85    0.29
  -3 -13   9    3.35    0.24
   3  13  -9    3.38    0.31
  -2 -13   9   30.04    0.88
  -2 -13   9   30.70    0.92
   2 -13  -9   30.37    0.93
   2 -13  -9   30.62    0.88
   2 -13  -9   30.52    0.87
   2  13  -9   29.50    0.96
   1 -13  -9    0.33    0.12
  -1 -13   9    0.19    0.12
   1 -13  -9    0.25    0.10
  -1 -13   9    0.05    0.10
   1 -13  -9    0.21    0.12
   1  13  -9   -0.15    0.15
   0 -13  -9    0.28    0.11
   0 -13   9    0.10    0.12
   0 -13  -9    0.25    0.10
   0 -13  -9    0.06    0.11
   0 -13   9    0.08    0.11
   0  13  -9    0.28    0.15
   1 -13   9    3.43    0.27
  -1 -13  -9    3.62    0.26
   1 -13   9    3.90    0.26
  -1 -13  -9    4.37    0.25
  -1  13  -9    4.14    0.31
  -2 -13  -9    0.08    0.11
   2 -13   9    0.25    0.13
   2 -13   9    0.32    0.12
  -2  13  -9    0.18    0.16
   2  13   9    0.41    0.13
   3 -13   9    1.40    0.18
   3 -13   9    1.07    0.16
  -3 -13  -9    1.44    0.19
  -3  13  -9    1.93    0.24
   3  13   9    1.43    0.18
   4 -13   9    7.45    0.38
  -4 -13  -9    7.91    0.38
   4 -13   9    7.50    0.36
  -4  13  -9    8.32    0.45
   4  13   9    8.12    0.39
   5 -13   9    2.46    0.23
   5 -13   9    2.32    0.22
  -5 -13  -9    2.80    0.27
   5  13   9    2.79    0.26
  -5  13  -9    2.72    0.27
  -6 -13  -9    4.55    0.33
   6 -13   9    4.20    0.32
  -6  13  -9    4.09    0.36
   6  13   9    4.93    0.33
  -7 -13  -9   12.21    0.55
   7 -13   9   13.65    0.56
   7  13   9   12.90    0.56
  -7  13  -9   12.77    0.59
   8 -13   9    8.51    0.46
  -8 -13  -9    8.20    0.45
  -8  13  -9    8.12    0.50
   8  13   9    8.34    0.47
  -9 -13  -9    2.46    0.28
   9 -13   9    2.79    0.30
  -9  13  -9    1.88    0.28
   9  13   9    2.37    0.29
  10 -13   9    0.92    0.22
 -10  13  -9    1.01    0.34
  10  13   9    1.29    0.26
 -11 -14   9    2.37    0.27
  11  14  -9    2.66    0.30
 -10 -14   9    6.96    0.42
  10 -14  -9    6.14    0.47
  10  14  -9    7.65    0.46
   9 -14  -9    1.49    0.25
  -9 -14   9    1.98    0.25
   9 -14  -9    2.03    0.24
   9  14  -9    2.29    0.26
   8 -14  -9    4.18    0.30
  -8 -14   9    4.45    0.34
   8 -14  -9    4.19    0.38
   8  14  -9    4.33    0.38
   8  14  -9    4.37    0.34
  -7 -14   9    1.30    0.21
   7 -14  -9    1.10    0.17
   7 -14  -9    0.85    0.20
   7  14  -9    1.29    0.19
   7  14  -9    1.00    0.20
  -6 -14   9    9.19    0.43
   6 -14  -9    9.51    0.42
   6 -14  -9    8.79    0.48
   6  14  -9    9.14    0.44
   6  14  -9    8.79    0.46
  -5 -14   9   18.05    0.66
   5 -14  -9   17.06    0.68
   5 -14  -9   18.16    0.61
   5  14  -9   17.89    0.63
   5  14  -9   18.38    0.68
  -4 -14   9   10.84    0.46
   4 -14  -9   10.18    0.42
   4 -14  -9   10.14    0.48
   4  14  -9   10.29    0.50
  -3 -14   9   11.07    0.47
   3 -14  -9   11.49    0.43
   3 -14  -9   11.13    0.49
  -3 -14   9    9.87    0.42
   3  14  -9   10.35    0.50
   2 -14  -9    5.69    0.28
  -2 -14   9    4.84    0.29
  -2 -14   9    5.22    0.33
   2 -14  -9    5.41    0.29
   2 -14  -9    4.93    0.33
   2  14  -9    5.73    0.38
  -1 -14   9    6.61    0.36
   1 -14  -9    7.25    0.34
   1 -14  -9    7.42    0.37
  -1 -14   9    7.24    0.34
   1 -14  -9    7.72    0.34
   1  14  -9    6.74    0.41
   0 -14   9    0.60    0.13
   0 -14   9    0.39    0.15
   0 -14  -9    0.57    0.13
   0 -14  -9    0.41    0.13
   0 -14  -9    0.63    0.14
   0  14  -9    0.28    0.15
  -1 -14  -9    0.08    0.11
   1 -14   9   -0.10    0.12
  -1 -14  -9   -0.05    0.12
   1 -14   9    0.21    0.12
  -1  14  -9    0.09    0.16
   2 -14   9   15.05    0.55
  -2 -14  -9   15.62    0.57
   2 -14   9   15.65    0.56
  -2  14  -9   15.24    0.63
   2  14   9   14.78    0.55
   3 -14   9   29.30    0.90
   3 -14   9   28.80    0.88
  -3 -14  -9   28.96    0.91
  -3  14  -9   30.77    0.99
   3  14   9   28.55    0.90
   4 -14   9    8.91    0.41
   4 -14   9    8.46    0.40
  -4 -14  -9    9.21    0.44
   4  14   9    9.34    0.44
  -4  14  -9    9.12    0.47
  -5 -14  -9   14.26    0.58
   5 -14   9   14.64    0.57
  -5  14  -9   15.65    0.65
   5  14   9   14.36    0.57
   6 -14   9   16.71    0.62
  -6 -14  -9   16.12    0.63
  -6  14  -9   15.80    0.68
   6  14   9   15.98    0.63
   7 -14   9    1.85    0.24
  -7 -14  -9    2.24    0.26
   7  14   9    2.52    0.28
  -7  14  -9    2.28    0.29
  -8 -14  -9    0.74    0.20
   8 -14   9    0.41    0.19
  -8  14  -9    0.55    0.21
   8  14   9    0.48    0.19
  -9 -14  -9    6.62    0.42
   9 -14   9    7.22    0.45
  -9  14  -9    7.15    0.48
   9  14   9    7.85    0.48
 -10  14  -9    4.74    0.44
  11  15  -9    3.84    0.44
 -10 -15   9   -0.22    0.16
  10  15  -9    0.32    0.19
   9 -15  -9   10.97    0.67
   9 -15  -9   11.14    0.57
  -9 -15   9   11.24    0.53
   9  15  -9   11.22    0.54
  -8 -15   9    1.95    0.24
   8 -15  -9    2.40    0.25
   8 -15  -9    2.37    0.31
   8  15  -9    2.25    0.26
  -7 -15   9    0.02    0.15
   7 -15  -9   -0.13    0.17
   7 -15  -9   -0.13    0.12
   7  15  -9    0.11    0.15
   7  15  -9   -0.12    0.15
   6 -15  -9    2.49    0.29
   6 -15  -9    3.71    0.29
  -6 -15   9    3.41    0.31
   6  15  -9    3.57    0.32
   6  15  -9    3.29    0.29
   5 -15  -9    2.65    0.28
  -5 -15   9    2.13    0.23
   5 -15  -9    2.61    0.24
   5  15  -9    1.90    0.25
   5  15  -9    2.60    0.24
  -4 -15   9    4.91    0.34
   4 -15  -9    4.71    0.35
   4 -15  -9    4.31    0.28
  -4 -15   9    4.54    0.30
   4  15  -9    4.67    0.38
   3 -15  -9    9.03    0.40
   3 -15  -9    8.65    0.44
  -3 -15   9    8.52    0.43
  -3 -15   9    8.68    0.40
   3  15  -9    8.78    0.47
  -2 -15   9    3.54    0.27
   2 -15  -9    3.27    0.30
   2 -15  -9    2.78    0.24
   2 -15  -9    3.13    0.24
  -2 -15   9    3.11    0.28
   2  15  -9    2.59    0.27
   1 -15  -9    9.76    0.41
  -1 -15   9    9.45    0.44
  -1 -15   9    9.57    0.42
   1 -15  -9    9.98    0.40
   1 -15  -9    9.37    0.44
   1  15  -9    9.45    0.47
   0 -15  -9   10.73    0.44
   0 -15   9   10.30    0.46
   0 -15  -9   10.65    0.44
   0 -15   9   10.42    0.43
   0  15  -9   10.05    0.51
   1 -15   9    5.22    0.32
  -1 -15  -9    4.92    0.30
  -1 -15  -9    5.63    0.32
   1 -15   9    5.33    0.33
  -1  15  -9    5.53    0.39
  -2 -15  -9    1.16    0.19
   2 -15   9    1.18    0.18
   2 -15   9    0.87    0.17
  -2  15  -9    1.18    0.23
   2  15   9    1.13    0.17
   3 -15   9    3.95    0.29
  -3 -15  -9    4.27    0.31
   3 -15   9    4.08    0.30
   3  15   9    4.58    0.32
  -3  15  -9    4.32    0.38
   4 -15   9    8.22    0.40
   4 -15   9    8.52    0.41
  -4 -15  -9    8.06    0.42
  -4  15  -9    8.14    0.48
   4  15   9    7.65    0.41
   5 -15   9    7.69    0.42
  -5 -15  -9    7.43    0.42
   5  15   9    7.67    0.41
  -5  15  -9    8.51    0.49
  -6 -15  -9    6.09    0.39
   6 -15   9    6.02    0.39
   6  15   9    5.88    0.39
  -6  15  -9    5.79    0.43
  -7 -15  -9    1.33    0.23
   7 -15   9    1.04    0.22
  -7  15  -9    1.16    0.25
   7  15   9    1.68    0.25
  -8 -15  -9    1.82    0.27
   8 -15   9    1.17    0.22
  -8  15  -9    1.39    0.27
   8  15   9    1.92    0.27
   9 -15   9    0.53    0.21
   9  15   9    0.76    0.21
  -9  15  -9    0.58    0.23
  10  16  -9    1.17    0.24
  -9 -16   9    1.44    0.25
   9 -16  -9    1.41    0.26
   9  16  -9    1.79    0.25
  -8 -16   9    4.53    0.37
   8 -16  -9    5.05    0.38
   8 -16  -9    5.63    0.44
   8  16  -9    5.33    0.40
   7 -16  -9    6.72    0.38
   7 -16  -9    6.24    0.42
  -7 -16   9    6.19    0.40
   7  16  -9    6.35    0.41
   7  16  -9    6.71    0.42
  -6 -16   9   20.75    0.76
   6 -16  -9   20.68    0.71
   6 -16  -9   21.18    0.80
   6  16  -9   20.22    0.76
   6  16  -9   20.84    0.74
  -5 -16   9    0.75    0.19
   5 -16  -9    0.92    0.17
   5  16  -9    1.05    0.21
   5  16  -9    1.06    0.19
   4 -16  -9    3.45    0.31
  -4 -16   9    2.54    0.24
   4 -16  -9    3.19    0.26
  -4 -16   9    2.57    0.27
   4  16  -9    2.92    0.29
  -3 -16   9    1.24    0.21
  -3 -16   9    0.96    0.17
   3 -16  -9    1.30    0.18
   3 -16  -9    1.32    0.21
   3  16  -9    0.94    0.21
   2 -16  -9    1.14    0.17
  -2 -16   9    0.97    0.17
   2 -16  -9    0.96    0.19
  -2 -16   9    0.85    0.18
   2  16  -9    1.05    0.23
   1 -16  -9    1.22    0.17
   1 -16  -9    1.18    0.20
  -1 -16   9    1.33    0.19
  -1 -16   9    1.19    0.20
   1 -16  -9    1.36    0.18
   1  16  -9    1.28    0.24
   0 -16   9   10.13    0.43
   0 -16  -9    9.48    0.42
   0 -16  -9    9.87    0.43
   0 -16   9    9.44    0.44
   0  16  -9    9.36    0.50
  -1 -16  -9    3.14    0.27
   1 -16   9    2.87    0.26
  -1 -16  -9    2.55    0.24
   1 -16   9    2.64    0.24
  -1  16  -9    2.73    0.31
   2 -16   9    2.98    0.27
  -2 -16  -9    3.33    0.29
   2 -16   9    3.30    0.28
   2  16   9    2.72    0.25
  -2  16  -9    2.71    0.30
   3 -16   9    0.28    0.15
  -3 -16  -9    0.43    0.16
   3 -16   9    0.23    0.14
  -3  16  -9    0.13    0.17
   3  16   9    0.27    0.14
   4 -16   9    4.57    0.33
  -4 -16  -9    5.44    0.36
   4  16   9    5.14    0.35
  -4  16  -9    4.83    0.42
  -5 -16  -9    5.82    0.39
   5 -16   9    5.82    0.38
  -5  16  -9    5.84    0.44
   5  16   9    5.78    0.38
   6 -16   9    0.40    0.17
  -6 -16  -9    0.30    0.16
   6  16   9    0.53    0.18
  -6  16  -9   -0.01    0.19
   7 -16   9    2.79    0.29
  -7 -16  -9    2.88    0.31
  -7  16  -9    3.10    0.35
   7  16   9    3.35    0.33
   8 -16   9    7.95    0.48
  -8  16  -9    8.52    0.55
   8  16   9    7.40    0.48
   9  17  -9    1.67    0.26
  -8 -17   9    3.81    0.34
   8 -17  -9    3.26    0.35
   8  17  -9    4.12    0.36
  -7 -17   9    3.56    0.32
   7 -17  -9    3.58    0.33
   7 -17  -9    3.97    0.38
   7  17  -9    3.13    0.31
   6 -17  -9   10.31    0.55
  -6 -17   9    9.62    0.50
   6 -17  -9    9.90    0.46
   6  17  -9    9.59    0.50
   6  17  -9    9.73    0.50
   5 -17  -9    7.88    0.40
   5 -17  -9    7.68    0.47
  -5 -17   9    8.00    0.45
   5  17  -9    7.46    0.47
   5  17  -9    8.06    0.43
   4 -17  -9    1.79    0.26
   4 -17  -9    2.07    0.22
  -4 -17   9    2.33    0.27
   4  17  -9    1.48    0.26
   3 -17  -9    6.11    0.40
  -3 -17   9    5.92    0.36
   3 -17  -9    6.64    0.35
  -3 -17   9    5.83    0.39
   3  17  -9    6.35    0.44
   2 -17  -9    1.37    0.19
  -2 -17   9    1.49    0.22
   2 -17  -9    1.40    0.22
  -2 -17   9    1.47    0.20
   2  17  -9    1.73    0.26
   1 -17  -9    2.44    0.22
  -1 -17   9    2.11    0.24
   1 -17  -9    2.03    0.32
  -1 -17   9    1.92    0.22
   1 -17  -9    2.14    0.22
   1  17  -9    2.19    0.28
   0 -17  -9    6.66    0.37
   0 -17   9    6.41    0.36
   0 -17   9    6.54    0.38
   0 -17  -9    6.71    0.36
   0  17  -9    6.10    0.44
   1 -17   9   -0.04    0.13
   1 -17   9   -0.01    0.13
  -1 -17  -9   -0.12    0.13
  -1 -17  -9   -0.09    0.12
  -1  17  -9    0.29    0.19
   2 -17   9    0.31    0.16
  -2 -17  -9    0.37    0.16
   2 -17   9    0.40    0.16
   2  17   9    0.34    0.15
  -2  17  -9    0.35    0.21
   3 -17   9    2.99    0.26
   3 -17   9    3.57    0.31
  -3 -17  -9    3.55    0.31
  -3  17  -9    2.76    0.33
   3  17   9    3.20    0.30
  -4 -17  -9    5.61    0.38
   4 -17   9    5.50    0.37
  -4  17  -9    5.65    0.45
   4  17   9    5.39    0.37
   5 -17   9    1.45    0.23
  -5 -17  -9    1.95    0.26
   5  17   9    1.85    0.24
  -5  17  -9    1.48    0.27
  -6 -17  -9   11.43    0.55
   6 -17   9   11.35    0.54
  -6  17  -9   11.04    0.61
   6  17   9   11.11    0.55
   7 -17   9    1.86    0.26
  -7  17  -9    1.81    0.36
   7  17   9    2.13    0.27
   8  18  -9    1.20    0.23
   7 -18  -9    0.23    0.21
  -7 -18   9    0.15    0.19
   7 -18  -9    0.35    0.25
   7  18  -9    0.09    0.17
   6 -18  -9   10.33    0.57
  -6 -18   9   10.61    0.53
   6 -18  -9   10.52    0.50
   6  18  -9   10.66    0.56
   6  18  -9   11.21    0.54
  -5 -18   9    6.90    0.43
   5 -18  -9    6.78    0.46
   5 -18  -9    7.02    0.39
   5  18  -9    6.74    0.42
   5  18  -9    6.78    0.45
  -4 -18   9    3.33    0.31
   4 -18  -9    3.73    0.36
   4 -18  -9    3.74    0.32
   4  18  -9    3.85    0.37
   3 -18  -9    5.15    0.34
   3 -18  -9    5.53    0.41
  -3 -18   9    5.68    0.36
  -3 -18   9    5.14    0.38
   3  18  -9    5.01    0.42
  -2 -18   9    3.11    0.30
   2 -18  -9    3.23    0.32
  -2 -18   9    3.88    0.32
   2 -18  -9    3.71    0.30
   2  18  -9    4.05    0.39
  -1 -18   9    3.70    0.32
   1 -18  -9    3.52    0.30
  -1 -18   9    3.89    0.31
   1  18  -9    4.00    0.39
   0 -18   9    0.27    0.16
   0 -18  -9    0.35    0.14
   0 -18  -9    0.46    0.16
   0 -18   9    0.20    0.15
   0  18  -9    0.79    0.24
   1 -18   9    9.88    0.47
  -1 -18  -9    9.86    0.46
   1 -18   9    9.90    0.47
  -1 -18  -9   10.40    0.48
  -1  18  -9   10.04    0.56
   2 -18   9    2.56    0.26
  -2 -18  -9    3.10    0.29
   2 -18   9    2.55    0.26
   2  18   9    2.58    0.26
  -2  18  -9    2.72    0.32
  -3 -18  -9   19.34    0.72
   3 -18   9   18.86    0.71
   3  18   9   19.76    0.73
  -3  18  -9   19.26    0.81
  -4 -18  -9    2.81    0.29
   4 -18   9    2.19    0.25
  -4  18  -9    2.15    0.33
   4  18   9    2.22    0.26
  -5 -18  -9   20.83    0.77
   5 -18   9   20.66    0.76
  -5  18  -9   20.27    0.84
   5  18   9   18.45    0.75
   6 -18   9    7.19    0.46
   6  18   9    8.35    0.48
   7  18   9    1.58    0.39
   7  19  -9    2.89    0.31
   6 -19  -9    8.32    0.55
   6 -19  -9    6.92    0.49
   6  19  -9    7.81    0.47
   5 -19  -9    1.77    0.23
   5 -19  -9    1.85    0.29
  -5 -19   9    1.69    0.26
   5  19  -9    1.60    0.28
   5  19  -9    1.60    0.24
  -4 -19   9    0.67    0.21
   4 -19  -9    0.86    0.19
   4 -19  -9    0.71    0.22
   4  19  -9    0.74    0.23
  -3 -19   9    9.49    0.48
   3 -19  -9   10.36    0.48
  -3 -19   9    8.73    0.49
   3 -19  -9    9.82    0.52
   3  19  -9    9.96    0.55
  -2 -19   9    2.24    0.25
   2 -19  -9    2.41    0.25
  -2 -19   9    1.79    0.24
   2  19  -9    2.55    0.32
  -1 -19   9   17.06    0.68
   1 -19  -9   18.85    0.68
  -1 -19   9   17.35    0.67
   1  19  -9   17.93    0.76
   0 -19  -9    0.99    0.19
   0 -19   9    0.58    0.20
   0 -19   9    0.65    0.18
   0 -19  -9    0.88    0.19
   0  19  -9    0.95    0.25
   1 -19   9   13.51    0.57
   1 -19   9   13.01    0.56
  -1 -19  -9   13.69    0.57
  -1 -19  -9   13.66    0.57
  -1  19  -9   12.12    0.64
   2 -19   9   -0.02    0.15
   2 -19   9   -0.07    0.15
  -2 -19  -9   -0.02    0.16
  -2  19  -9   -0.39    0.18
   2  19   9   -0.09    0.14
  -3 -19  -9    9.26    0.49
   3 -19   9    8.85    0.47
  -3  19  -9    9.71    0.57
   3  19   9    8.54    0.47
   4 -19   9    7.72    0.46
  -4 -19  -9    7.48    0.47
   4  19   9    7.15    0.45
  -4  19  -9    7.93    0.62
   5 -19   9   25.05    0.89
   5  19   9   24.37    0.89
   6  20  -9    8.94    0.61
   5 -20  -9    3.56    0.37
   5 -20  -9    3.33    0.37
   5  20  -9    2.84    0.34
   5  20  -9    3.19    0.32
   4 -20  -9    6.44    0.40
   4 -20  -9    6.64    0.47
   4  20  -9    6.08    0.47
  -3 -20   9    2.68    0.29
  -3 -20   9    2.68    0.29
   3 -20  -9    3.34    0.32
   3  20  -9    3.17    0.35
  -2 -20   9    7.35    0.45
  -2 -20   9    8.56    0.47
   2 -20  -9    7.88    0.44
   2  20  -9    7.69    0.52
  -1 -20   9    1.18    0.22
  -1 -20   9    1.11    0.21
   1 -20  -9    1.02    0.21
   1  20  -9    1.12    0.27
   0 -20   9    1.59    0.24
   0 -20  -9    0.96    0.20
   0 -20   9    1.21    0.22
   0  20  -9    1.00    0.27
  -1 -20  -9    0.39    0.18
   1 -20   9    0.49    0.18
   1 -20   9    0.35    0.18
  -1 -20  -9    0.25    0.17
  -1  20  -9    0.29    0.23
   2 -20   9    5.36    0.39
  -2 -20  -9    5.25    0.38
  -2  20  -9    5.35    0.64
   2  20   9    4.63    0.37
  -3 -20  -9    2.63    0.29
   3 -20   9    2.36    0.29
   3  20   9    2.20    0.27
   4 -20   9    0.74    0.24
   4  20   9    0.67    0.20
   4 -21  -9    2.17    0.37
   4  21  -9    2.36    0.33
  -3 -21   9    8.26    0.48
   3 -21  -9    9.28    0.49
   3  21  -9    9.06    0.62
  -2 -21   9    0.30    0.18
   2 -21  -9    0.48    0.18
   2  21  -9    0.66    0.30
   1 -21  -9    1.15    0.22
  -1 -21   9    0.83    0.23
  -1 -21   9    1.45    0.24
   0 -21  -9    1.84    0.25
   0 -21   9    2.03    0.26
   0 -21   9    2.15    0.27
   1 -21   9    2.57    0.29
  -1 -21  -9    3.28    0.45
   1 -21   9    2.33    0.28
  -2 -21  -9    1.84    0.29
   2  21   9    2.26    0.28
  13   0 -10    0.05    0.17
  12   0 -10   50.84    1.49
  11   0 -10   18.52    0.70
  10   0 -10    2.95    0.28
   9   0 -10   65.94    1.89
   9   0 -10   65.01    1.79
   8   0 -10   25.19    0.81
  -8   0  10   24.06    0.69
   8   0 -10   24.91    0.74
   7   0 -10   78.36    2.07
   7   0 -10   79.13    1.98
  -7   0  10   77.79    1.97
   6   0 -10    0.05    0.07
   6   0 -10    0.29    0.12
  -6   0  10    0.12    0.10
  -5   0  10    8.95    0.33
   5   0 -10    8.50    0.28
  -3   0  10    0.33    0.11
   3   0 -10    0.52    0.12
  -2   0  10   11.70    0.40
   2   0 -10   11.67    0.42
  -1   0  10   28.03    0.79
   1   0 -10   28.45    0.81
   0   0  10    9.47    0.35
   0   0 -10    9.38    0.35
  -1   0 -10   37.11    1.03
   1   0  10   39.11    0.95
  -2   0 -10    0.48    0.10
   2   0  10    0.17    0.07
   2   0  10    0.44    0.07
  -3   0 -10   25.78    0.73
   3   0  10   24.99    0.76
   3   0  10   26.15    0.70
  -4   0 -10   10.29    0.36
   4   0  10   10.17    0.40
   4   0  10   10.31    0.36
  -5   0 -10   40.98    1.09
   5   0  10   40.62    1.14
   5   0  10   41.03    1.10
   6   0  10    7.32    0.33
   6   0  10    7.57    0.35
   7   0  10    9.36    0.41
   7   0  10    9.78    0.41
   8   0  10   16.88    0.60
   8   0  10   16.51    0.58
   9   0  10    5.25    0.33
   9   0  10    4.36    0.33
  10   0  10    0.44    0.16
  10   0  10   -0.07    0.17
  11   0  10   -0.07    0.18
  12   0  10    0.11    0.20
  13  -1 -10    3.08    0.31
  13   1 -10    3.19    0.31
  12  -1 -10   10.28    0.50
  12   1 -10    9.66    0.50
  11  -1 -10    0.36    0.16
  11   1 -10    0.60    0.18
  10  -1 -10    7.48    0.41
  10   1 -10    7.08    0.39
   9  -1 -10   13.82    0.55
   9   1 -10   13.12    0.54
   9   1 -10   14.16    0.65
   8  -1 -10    4.76    0.31
  -8  -1  10    4.78    0.24
   8  -1 -10    4.44    0.28
   8   1 -10    4.60    0.26
   8   1 -10    4.69    0.31
   7  -1 -10   15.78    0.49
   7  -1 -10   15.14    0.57
  -7  -1  10   15.68    0.49
   7   1 -10   16.14    0.58
  -7   1  10   15.65    0.48
   7   1 -10   15.39    0.48
   6  -1 -10   25.75    0.79
  -6  -1  10   26.14    0.72
   6  -1 -10   22.79    0.68
   6   1 -10   25.53    0.69
   6   1 -10   26.10    0.79
  -6   1  10   25.70    0.71
  -5  -1  10    8.37    0.33
   5  -1 -10    8.59    0.28
   5   1 -10    9.18    0.28
   5   1 -10    8.64    0.37
  -5   1  10    8.78    0.32
   3  -1 -10   54.66    1.44
  -3  -1  10   54.86    1.41
   3   1 -10   50.48    1.43
  -3   1  10   55.27    1.40
   2  -1 -10    3.76    0.22
  -2  -1  10    3.86    0.23
  -2   1  10    3.54    0.22
   2   1 -10    3.68    0.23
   1  -1 -10    8.41    0.33
  -1  -1  10    8.82    0.34
   1   1 -10    8.71    0.35
  -1   1  10    8.57    0.33
   0  -1 -10   67.60    1.75
   0  -1  10   70.89    1.76
   0   1 -10   64.83    1.76
   0   1  10   69.69    1.75
  -1  -1 -10   20.93    0.62
   1  -1  10   20.66    0.53
  -1   1 -10   20.90    0.63
   1   1  10   19.77    0.63
   1   1  10   21.33    0.53
  -2  -1 -10   61.34    1.59
   2  -1  10   61.31    1.62
   2  -1  10   60.92    1.54
   2   1  10   64.04    1.54
  -2   1 -10   62.64    1.61
  -3  -1 -10    7.16    0.28
   3  -1  10    6.86    0.26
   3  -1  10    7.07    0.31
   3   1  10    6.78    0.32
   3   1  10    7.31    0.26
  -3   1 -10    7.04    0.29
   4  -1  10    6.82    0.28
   4  -1  10    7.30    0.33
  -4  -1 -10    6.93    0.27
  -4   1 -10    7.61    0.30
   4   1  10    7.14    0.29
   4   1  10    6.98    0.33
   5  -1  10   22.24    0.70
   5  -1  10   23.26    0.68
   5   1  10   22.45    0.71
  -5   1 -10   22.41    0.66
   5   1  10   23.30    0.68
   6  -1  10   11.71    0.43
   6  -1  10   11.62    0.45
   6   1  10   12.22    0.46
   6   1  10   11.63    0.43
   7  -1  10   27.14    0.82
   7  -1  10   27.07    0.82
   7   1  10   26.25    0.81
   7   1  10   26.21    0.82
   8  -1  10    2.19    0.22
   8  -1  10    2.10    0.22
   8   1  10    2.28    0.23
   8   1  10    2.33    0.23
   9  -1  10    3.16    0.27
   9  -1  10    2.86    0.27
   9   1  10    3.17    0.29
   9   1  10    2.56    0.26
  10  -1  10    1.92    0.24
  10   1  10    1.82    0.25
  10   1  10    2.72    0.25
  11  -1  10   -0.02    0.18
  11   1  10   -0.02    0.19
  12  -1  10    0.25    0.20
  12   1  10   -0.06    0.21
  14  -2 -10    1.72    0.26
  13  -2 -10   14.71    0.64
  12  -2 -10    7.41    0.44
  12   2 -10    7.16    0.42
  11  -2 -10    5.04    0.37
  11   2 -10    4.46    0.34
  10  -2 -10    1.70    0.22
  10   2 -10    2.20    0.24
  -9  -2  10   16.83    0.57
   9  -2 -10   16.03    0.62
   9   2 -10   16.77    0.62
   9   2 -10   16.48    0.61
  -8  -2  10    9.26    0.35
   8  -2 -10    9.29    0.39
   8  -2 -10    8.89    0.43
   8   2 -10    9.64    0.43
   8   2 -10    9.42    0.37
   7  -2 -10   25.56    0.72
   7  -2 -10   25.20    0.81
  -7  -2  10   25.11    0.73
   7   2 -10   25.68    0.80
  -7   2  10   25.05    0.70
   7   2 -10   24.97    0.71
   6  -2 -10    4.78    0.20
   6  -2 -10    4.43    0.27
  -6  -2  10    4.54    0.23
   6   2 -10    4.15    0.28
   6   2 -10    4.47    0.22
  -6   2  10    4.42    0.22
  -5  -2  10    8.50    0.32
   5  -2 -10    8.04    0.26
   5   2 -10    6.43    0.25
  -5   2  10    7.80    0.30
   5   2 -10    7.46    0.34
   4  -2 -10   11.54    0.37
  -4  -2  10   11.80    0.41
   4   2 -10   11.81    0.34
  -4   2  10   12.11    0.40
   3  -2 -10    1.31    0.15
  -3  -2  10    1.45    0.15
   3   2 -10    1.32    0.10
  -3   2  10    1.55    0.14
   2  -2 -10   53.75    1.45
  -2  -2  10   55.76    1.43
   2   2 -10   54.44    1.46
  -2   2  10   54.51    1.42
   1  -2 -10   12.88    0.44
  -1  -2  10   13.36    0.45
   1   2 -10   12.58    0.45
  -1   2  10   13.06    0.43
   0  -2  10    6.01    0.17
   0  -2 -10    5.84    0.26
   0  -2  10    5.70    0.28
   0   2 -10    6.09    0.28
   0   2  10    6.27    0.28
  -1  -2 -10   31.55    0.87
   1  -2  10   31.27    0.79
  -1   2 -10   31.79    0.89
   1   2  10   31.47    0.80
   1   2  10   31.57    0.89
   2  -2  10    9.27    0.29
  -2  -2 -10    9.71    0.34
   2  -2  10    9.88    0.37
  -2   2 -10    8.99    0.36
   2   2  10    9.49    0.30
   3  -2  10    5.54    0.23
  -3  -2 -10    5.54    0.23
   3  -2  10    5.44    0.27
   3   2  10    5.65    0.24
  -3   2 -10    5.71    0.26
   4  -2  10    7.50    0.34
   4  -2  10    7.37    0.29
  -4  -2 -10    7.34    0.27
  -4   2 -10    7.56    0.31
   4   2  10    7.95    0.30
   4   2  10    7.38    0.34
   5  -2  10   20.76    0.62
   5  -2  10   20.53    0.65
  -5   2 -10   20.37    0.63
   5   2  10   20.55    0.66
   5   2  10   20.34    0.63
   6  -2  10   55.57    1.46
   6  -2  10   53.64    1.44
   6   2  10   52.22    1.46
  -6   2 -10   55.20    1.45
   6   2  10   54.66    1.45
   7  -2  10    4.80    0.29
   7  -2  10    4.79    0.29
   7   2  10    4.87    0.30
   7   2  10    4.37    0.29
   8  -2  10    6.83    0.35
   8  -2  10    7.58    0.37
   8   2  10    7.53    0.38
   8   2  10    7.99    0.39
   9  -2  10    2.78    0.26
   9  -2  10    2.89    0.26
   9   2  10    2.48    0.24
   9   2  10    2.18    0.24
  10  -2  10    9.11    0.47
  10   2  10   10.12    0.49
  10   2  10   10.82    0.47
  11  -2  10    7.79    0.46
  11   2  10    7.89    0.47
  12  -2  10    4.10    0.39
  12   2  10    4.01    0.36
  14  -3 -10    2.66    0.31
  13  -3 -10    1.72    0.26
  12  -3 -10   11.09    0.53
  12   3 -10   10.95    0.52
  11  -3 -10    5.90    0.39
  11   3 -10    5.48    0.36
  10  -3 -10    4.45    0.34
  10   3 -10    3.70    0.31
  -9  -3  10   13.24    0.47
   9  -3 -10   14.67    0.57
   9   3 -10   14.11    0.55
   9   3 -10   13.64    0.54
  -8  -3  10   13.82    0.47
   8  -3 -10   13.42    0.51
   8  -3 -10   14.05    0.54
   8   3 -10   14.43    0.54
   8   3 -10   14.18    0.48
   7  -3 -10   40.91    1.19
  -7  -3  10   41.40    1.11
   7  -3 -10   42.40    1.10
   7   3 -10   40.12    1.17
   7   3 -10   40.78    1.09
  -7   3  10   40.38    1.12
   6  -3 -10    2.31    0.21
   6  -3 -10    2.51    0.16
  -6  -3  10    2.02    0.18
   6   3 -10    2.72    0.18
   6   3 -10    2.32    0.23
  -6   3  10    2.40    0.18
  -5  -3  10   82.95    2.10
   5   3 -10   83.41    2.15
  -5   3  10   81.53    2.07
   4  -3 -10   56.96    1.40
   4  -3 -10   54.75    1.50
  -4  -3  10   57.02    1.47
   4   3 -10   56.94    1.39
  -4   3  10   54.65    1.44
   3  -3 -10   75.30    1.95
  -3  -3  10   75.31    1.92
  -3   3  10   74.84    1.90
   3   3 -10   75.14    1.83
   2  -3 -10    3.58    0.22
  -2  -3  10    3.83    0.23
  -2   3  10    3.79    0.22
   2   3 -10    3.57    0.24
   2   3 -10    3.64    0.12
   1  -3 -10    1.38    0.14
  -1  -3  10    1.20    0.16
  -1  -3  10    1.53    0.07
  -1   3  10    1.16    0.13
   1   3 -10    1.42    0.16
   0  -3 -10   17.74    0.54
   0  -3  10   17.40    0.45
   0   3 -10   17.07    0.57
   0   3  10   17.92    0.45
   0   3  10   17.28    0.55
   1  -3  10   24.00    0.73
   1  -3  10   25.46    0.65
  -1  -3 -10   25.73    0.72
  -1   3 -10   25.27    0.75
   1   3  10   25.83    0.74
   1   3  10   25.02    0.66
   2  -3  10   12.51    0.37
  -2  -3 -10   12.56    0.40
   2  -3  10   12.75    0.45
  -2   3 -10   12.16    0.44
   2   3  10   12.30    0.37
   3  -3  10   20.43    0.63
   3  -3  10   19.81    0.56
  -3  -3 -10   20.94    0.58
   3   3  10   19.22    0.57
  -3   3 -10   19.07    0.61
   4  -3  10    3.13    0.24
   4  -3  10    3.26    0.20
  -4  -3 -10    2.46    0.21
  -4   3 -10    2.79    0.21
   4   3  10    3.77    0.21
   4   3  10    3.08    0.24
   5  -3  10    3.76    0.22
   5  -3  10    3.71    0.26
   5   3  10    3.62    0.25
   5   3  10    3.54    0.26
  -5   3 -10    3.43    0.23
   6  -3  10   41.79    1.14
   6  -3  10   40.72    1.15
  -6   3 -10   41.84    1.14
   6   3  10   40.41    1.17
   6   3  10   41.87    1.15
   7  -3  10   18.28    0.61
   7  -3  10   18.61    0.62
   7   3  10   17.95    0.62
   7   3  10   18.82    0.63
   8  -3  10   10.22    0.44
   8  -3  10   10.01    0.42
   8   3  10    9.74    0.43
   8   3  10    9.91    0.45
   9  -3  10    5.72    0.38
   9  -3  10    6.52    0.35
   9   3  10    6.69    0.39
   9   3  10    6.16    0.36
  10  -3  10    0.25    0.18
  10   3  10    0.27    0.19
  10   3  10    0.24    0.15
  11  -3  10    0.28    0.20
  11   3  10    0.70    0.18
  11   3  10    0.48    0.21
  12  -3  10    0.45    0.22
  12   3  10    0.16    0.22
  14  -4 -10    2.63    0.32
  13  -4 -10    3.38    0.33
  12  -4 -10    0.34    0.19
  12   4 -10    0.08    0.16
  11  -4 -10    1.72    0.24
  11   4 -10    1.75    0.23
  10  -4 -10   11.19    0.51
  10   4 -10   10.50    0.48
  -9  -4  10   39.67    1.09
   9  -4 -10   38.96    1.18
   9   4 -10   38.70    1.16
   9   4 -10   39.96    1.16
   8  -4 -10   68.81    1.88
  -8  -4  10   67.64    1.78
   8  -4 -10   68.47    1.87
   8   4 -10   69.93    1.86
   8   4 -10   69.78    1.79
   7  -4 -10   72.85    1.87
   7  -4 -10   72.13    1.97
  -7  -4  10   73.92    1.89
   7   4 -10   73.63    1.88
   7   4 -10   75.68    1.97
   6  -4 -10    2.76    0.16
  -6  -4  10    3.09    0.21
   6  -4 -10    2.47    0.24
   6   4 -10    2.74    0.23
  -6   4  10    3.09    0.18
   6   4 -10    2.64    0.19
  -5  -4  10   18.32    0.58
  -5   4  10   18.90    0.54
   5   4 -10   18.88    0.63
   5   4 -10   17.89    0.53
   4  -4 -10   24.63    0.64
  -4  -4  10   24.15    0.72
   4  -4 -10   25.44    0.76
  -4   4  10   25.31    0.69
   4   4 -10   25.33    0.76
   4   4 -10   21.85    0.64
   3  -4 -10   56.03    1.37
  -3  -4  10   56.99    1.47
   3  -4 -10   54.54    1.49
  -3   4  10   54.76    1.43
   3   4 -10   56.01    1.38
  -2  -4  10  124.42    3.04
   2  -4 -10  116.87    3.04
   2  -4 -10  123.01    2.93
  -2   4  10  121.50    3.01
   2   4 -10  122.38    2.94
  -1  -4  10    7.58    0.22
  -1  -4  10    5.81    0.31
   1  -4 -10    7.61    0.31
   1   4 -10    7.41    0.33
  -1   4  10    8.10    0.31
  -1   4  10    7.91    0.22
   0  -4  10   43.04    1.07
   0  -4 -10   42.69    1.15
   0   4  10   43.11    1.07
   0   4  10   44.03    1.16
   0   4 -10   42.73    1.19
   1  -4  10    0.75    0.14
   1  -4  10    0.65    0.07
  -1  -4 -10    0.81    0.11
   1   4  10    0.78    0.13
   1   4  10    0.89    0.08
  -1   4 -10    0.77    0.13
  -2  -4 -10   59.55    1.52
   2  -4  10   58.88    1.49
   2  -4  10   60.02    1.56
   2   4  10   59.08    1.50
  -2   4 -10   59.29    1.57
   3  -4  10   31.54    0.89
   3  -4  10   30.33    0.83
  -3  -4 -10   31.04    0.83
   3   4  10   30.94    0.84
  -3   4 -10   29.82    0.89
   4  -4  10   41.70    1.15
   4  -4  10   41.05    1.11
  -4   4 -10   41.50    1.15
   4   4  10   42.53    1.12
   5  -4  10    2.72    0.20
   5  -4  10    2.34    0.21
   5   4  10    2.10    0.18
  -5   4 -10    2.05    0.19
   6  -4  10    7.90    0.36
   6  -4  10    7.84    0.35
  -6   4 -10    8.74    0.36
   6   4  10    7.53    0.36
   7  -4  10    7.03    0.33
   7  -4  10    5.94    0.33
   7   4  10    6.33    0.35
   8  -4  10    0.73    0.16
   8  -4  10    0.69    0.16
   8   4  10    0.45    0.16
   8   4  10    0.73    0.17
   9  -4  10   34.57    1.05
   9   4  10   33.93    1.04
   9   4  10   34.71    1.06
  10  -4  10    6.01    0.39
  10   4  10    4.87    0.38
  10   4  10    6.10    0.38
  11  -4  10    1.41    0.25
  11   4  10    2.22    0.25
  11   4  10    1.57    0.26
  12  -4  10   -0.13    0.18
  12   4  10    0.02    0.20
  14  -5 -10    8.87    0.52
  13  -5 -10    0.34    0.19
  12  -5 -10    0.44    0.20
  11  -5 -10    0.36    0.18
  11   5 -10    0.37    0.16
  10  -5 -10    7.55    0.42
 -10  -5  10    7.15    0.34
  10   5 -10    6.94    0.39
  -9  -5  10   22.43    0.69
   9  -5 -10   22.67    0.79
   9   5 -10   22.04    0.76
   9   5 -10   22.64    0.74
   8  -5 -10   51.14    1.44
  -8  -5  10   50.28    1.35
   8  -5 -10   49.79    1.49
   8   5 -10   49.79    1.41
   8   5 -10   49.91    1.35
  -7  -5  10   25.37    0.74
   7  -5 -10   24.54    0.80
   7  -5 -10   24.94    0.74
   7   5 -10   24.45    0.79
   7   5 -10   24.54    0.73
  -6  -5  10    7.61    0.33
   6  -5 -10    7.19    0.28
   6  -5 -10    8.02    0.38
  -6   5  10    7.19    0.28
   6   5 -10    7.11    0.36
   6   5 -10    7.34    0.30
   5  -5 -10    9.17    0.40
  -5  -5  10    8.76    0.36
   5  -5 -10    9.43    0.30
   5   5 -10    9.56    0.32
  -5   5  10    9.24    0.33
   5   5 -10    9.46    0.40
   4  -5 -10    5.89    0.31
  -4  -5  10    6.23    0.29
   4   5 -10    5.69    0.31
  -4   5  10    5.67    0.25
   3  -5 -10   14.95    0.50
   3  -5 -10   14.77    0.39
  -3  -5  10   14.47    0.48
   3   5 -10   12.42    0.40
  -3   5  10   13.95    0.45
   2  -5 -10    9.44    0.28
  -2  -5  10   10.25    0.39
   2  -5 -10    9.17    0.37
  -2   5  10    9.36    0.35
   1  -5 -10    4.22    0.23
  -1  -5  10    4.39    0.16
  -1   5  10    4.29    0.24
   1   5 -10    4.28    0.26
  -1   5  10    4.28    0.16
   0  -5  10   24.47    0.64
   0  -5 -10   24.34    0.70
   0   5  10   24.10    0.63
   0   5  10   23.73    0.71
   0   5 -10   23.93    0.74
   1  -5  10   26.93    0.70
  -1  -5 -10   26.67    0.75
   1  -5  10   26.37    0.78
  -1   5 -10   26.25    0.80
   1   5  10   26.90    0.71
   1   5  10   26.16    0.77
  -2  -5 -10    8.42    0.30
   2  -5  10    8.16    0.35
   2  -5  10    7.83    0.28
   2   5  10    8.57    0.29
  -2   5 -10    8.34    0.36
  -3  -5 -10   28.59    0.77
   3  -5  10   27.99    0.83
   3  -5  10   28.38    0.78
   3   5  10   28.24    0.78
  -3   5 -10   28.66    0.85
   4  -5  10    1.87    0.18
   4  -5  10    2.10    0.18
  -4  -5 -10    2.02    0.19
   4   5  10    1.97    0.19
  -4   5 -10    1.93    0.19
   5  -5  10   17.91    0.56
   5  -5  10   17.63    0.58
  -5  -5 -10   17.33    0.58
  -5   5 -10   16.83    0.59
   5   5  10   16.89    0.56
   6  -5  10    4.06    0.28
   6  -5  10    4.23    0.26
  -6  -5 -10    3.89    0.26
  -6   5 -10    3.84    0.27
   6   5  10    3.88    0.26
   7  -5  10    6.09    0.32
   7  -5  10    5.60    0.32
  -7  -5 -10    5.52    0.33
   7   5  10    5.54    0.33
  -7   5 -10    5.61    0.31
   8  -5  10    3.31    0.27
  -8  -5 -10    3.28    0.28
   8  -5  10    3.14    0.27
   8   5  10    3.25    0.29
   9  -5  10   14.05    0.56
   9   5  10   13.80    0.57
  10  -5  10    5.20    0.37
  10   5  10    5.32    0.38
  11  -5  10    0.78    0.22
  11   5  10    0.79    0.22
  11   5  10    1.32    0.21
  12  -5  10    3.03    0.32
  12   5  10    2.30    0.31
  14  -6 -10    0.15    0.19
  13  -6 -10    1.31    0.25
  12  -6 -10    4.00    0.36
  11  -6 -10    0.51    0.20
  11   6 -10    0.88    0.18
 -10  -6  10    1.45    0.17
  10  -6 -10    1.09    0.21
  10   6 -10    1.42    0.20
   9  -6 -10    4.53    0.34
  -9  -6  10    3.96    0.26
   9   6 -10    4.12    0.30
   9   6 -10    4.08    0.31
   8  -6 -10   21.88    0.76
  -8  -6  10   21.82    0.68
   8   6 -10   20.93    0.73
   8   6 -10   21.96    0.68
   7  -6 -10   12.64    0.51
   7  -6 -10   13.01    0.46
  -7  -6  10   12.84    0.46
   7   6 -10   12.30    0.44
   7   6 -10   12.93    0.51
  -6  -6  10    7.56    0.34
   6  -6 -10    8.16    0.30
   6  -6 -10    8.12    0.39
   6   6 -10    7.74    0.37
   6   6 -10    8.07    0.32
  -5  -6  10   61.30    1.64
   5  -6 -10   62.98    1.69
   5  -6 -10   62.53    1.57
   5   6 -10   63.26    1.59
   5   6 -10   61.82    1.68
  -5   6  10   62.13    1.58
  -4  -6  10    8.56    0.36
   4  -6 -10    7.61    0.27
   4  -6 -10    8.86    0.39
   4   6 -10    8.68    0.30
  -4   6  10    9.16    0.32
   4   6 -10    8.81    0.39
  -3  -6  10   52.91    1.34
   3  -6 -10   53.11    1.36
   3   6 -10   47.59    1.36
   3   6 -10   41.83    1.24
  -3   6  10   52.06    1.29
   2  -6 -10   35.53    1.00
  -2  -6  10   36.08    0.91
   2  -6 -10   34.38    0.90
  -2   6  10   36.02    0.97
   1  -6 -10   80.25    2.05
  -1  -6  10   85.09    2.06
   1  -6 -10   84.00    2.14
  -1   6  10   85.99    2.13
   0  -6  10    6.23    0.22
   0  -6  10    5.52    0.29
   0  -6 -10    6.50    0.27
   0   6  10    6.20    0.22
   0   6  10    6.09    0.28
   0   6 -10    6.29    0.32
   1  -6  10   28.79    0.76
  -1  -6 -10   28.13    0.80
   1  -6  10   29.15    0.84
  -1   6 -10   28.94    0.86
   1   6  10   28.17    0.77
   2  -6  10    1.22    0.11
  -2  -6 -10    1.02    0.11
  -2  -6 -10    1.10    0.15
   2  -6  10    0.93    0.14
  -2   6 -10    1.15    0.17
   2   6  10    1.18    0.11
   3  -6  10   14.82    0.46
   3  -6  10   15.17    0.52
  -3  -6 -10   14.06    0.49
   3   6  10   15.09    0.47
  -3   6 -10   14.38    0.53
   4  -6  10   14.05    0.50
  -4  -6 -10   13.77    0.50
   4  -6  10   14.13    0.46
   4   6  10   13.68    0.47
  -4   6 -10   13.38    0.51
   5  -6  10   15.02    0.52
  -5  -6 -10   15.04    0.53
   5  -6  10   15.10    0.50
   5   6  10   13.95    0.51
  -5   6 -10   14.72    0.54
   6  -6  10    5.17    0.29
   6  -6  10    5.53    0.29
  -6  -6 -10    5.29    0.30
   6   6  10    5.17    0.30
  -6   6 -10    4.86    0.30
  -7  -6 -10    9.32    0.41
   7  -6  10    8.90    0.40
   7  -6  10    9.60    0.41
   7   6  10    9.68    0.42
  -7   6 -10    9.35    0.42
   8  -6  10   15.45    0.58
  -8  -6 -10   15.84    0.59
   8  -6  10   16.49    0.64
   8   6  10   14.67    0.58
  -9  -6 -10    3.38    0.30
   9  -6  10    3.69    0.32
   9   6  10    3.44    0.32
 -10  -6 -10   31.33    0.97
  10  -6  10   30.78    0.99
  10   6  10   29.56    0.99
  11  -6  10    9.64    0.51
  11   6  10    9.66    0.54
  12  -6  10    7.84    0.49
  12   6  10    7.82    0.51
  12   6  10    8.72    0.51
  13  -7 -10    0.54    0.21
  12  -7 -10    0.98    0.23
  11  -7 -10    6.83    0.44
  11   7 -10    7.34    0.40
  10  -7 -10    3.20    0.32
 -10  -7  10    3.32    0.26
  10   7 -10    3.76    0.31
  -9  -7  10    1.88    0.20
   9  -7 -10    1.52    0.22
   9   7 -10    1.83    0.22
   9   7 -10    1.68    0.20
   8  -7 -10    3.19    0.29
  -8  -7  10    3.67    0.26
   8   7 -10    3.25    0.24
   8   7 -10    3.28    0.28
  -7  -7  10    4.74    0.28
   7  -7 -10    4.65    0.32
   7  -7 -10    4.10    0.26
   7   7 -10    4.73    0.27
   7   7 -10    5.07    0.31
   6  -7 -10   51.39    1.45
   6  -7 -10   50.10    1.34
  -6  -7  10   51.39    1.39
   6   7 -10   52.89    1.44
   6   7 -10   51.90    1.36
  -5  -7  10   20.32    0.64
   5  -7 -10   19.68    0.57
   5  -7 -10   20.12    0.67
  -5   7  10   20.36    0.58
   5   7 -10   20.24    0.68
   5   7 -10   20.02    0.60
   4  -7 -10   19.61    0.55
  -4  -7  10   19.63    0.63
   4  -7 -10   20.19    0.65
   4   7 -10   19.24    0.57
   4   7 -10   20.21    0.66
  -4   7  10   19.34    0.58
  -3  -7  10    3.98    0.25
   3  -7 -10    4.39    0.18
   3  -7 -10    4.05    0.26
   3   7 -10    4.23    0.20
  -3   7  10    4.57    0.24
   3   7 -10    4.42    0.29
   2  -7 -10   40.99    1.15
  -2  -7  10   40.83    1.07
  -2   7  10   42.33    1.11
  -1  -7  10    6.66    0.24
   1  -7 -10    7.22    0.30
   1  -7 -10    5.46    0.22
  -1   7  10    6.68    0.29
   0  -7 -10   35.67    0.98
   0  -7 -10   34.83    0.98
   0  -7  10   36.70    1.01
   0  -7  10   34.96    0.93
   0   7 -10   35.18    1.04
   0   7  10   35.61    0.93
  -1  -7 -10   20.90    0.61
   1  -7  10   20.43    0.59
   1  -7  10   21.07    0.66
  -1  -7 -10   20.29    0.63
   1   7  10   20.80    0.59
  -1   7 -10   20.98    0.69
  -2  -7 -10   56.37    1.48
   2  -7  10   53.72    1.47
  -2  -7 -10   55.31    1.42
   2  -7  10   54.93    1.42
   2   7  10   55.11    1.43
  -2   7 -10   56.02    1.51
   3  -7  10    6.59    0.28
   3  -7  10    6.82    0.33
  -3  -7 -10    6.46    0.33
  -3   7 -10    6.93    0.35
   3   7  10    6.85    0.29
   4  -7  10   24.37    0.76
   4  -7  10   24.87    0.73
  -4  -7 -10   25.56    0.78
  -4   7 -10   25.52    0.80
   4   7  10   24.68    0.74
   5  -7  10   24.62    0.74
  -5  -7 -10   24.83    0.78
   5  -7  10   24.45    0.76
  -5   7 -10   24.74    0.79
   5   7  10   25.35    0.76
   6  -7  10    3.15    0.25
  -6  -7 -10    3.35    0.27
   6  -7  10    3.12    0.25
  -6   7 -10    3.70    0.29
   6   7  10    3.65    0.26
  -7  -7 -10    5.77    0.34
   7  -7  10    5.56    0.32
   7  -7  10    5.93    0.34
  -7   7 -10    5.81    0.33
   7   7  10    5.61    0.35
   8  -7  10   11.67    0.49
  -8  -7 -10   10.89    0.49
   8   7  10   11.42    0.50
   9  -7  10    9.56    0.46
  -9  -7 -10    9.65    0.46
   9   7  10    9.46    0.47
  10  -7  10    1.13    0.22
 -10  -7 -10    2.01    0.25
  10   7  10    1.73    0.26
 -11  -7 -10    5.26    0.37
  11  -7  10    5.10    0.40
  11   7  10    4.96    0.41
  12  -7  10    1.50    0.28
  12   7  10    1.21    0.27
  13  -8 -10    0.40    0.21
  12  -8 -10    8.75    0.51
  11  -8 -10    2.39    0.29
 -11  -8  10    2.97    0.27
  10  -8 -10   12.30    0.56
 -10  -8  10   11.55    0.47
  10   8 -10   10.77    0.50
  -9  -8  10    1.98    0.20
   9  -8 -10    1.95    0.23
   9   8 -10    1.90    0.22
   9   8 -10    1.88    0.22
   8  -8 -10    1.19    0.19
  -8  -8  10    1.37    0.18
   8   8 -10    1.68    0.22
   8   8 -10    1.55    0.18
  -7  -8  10   15.59    0.54
   7  -8 -10   15.09    0.59
   7  -8 -10   15.22    0.55
   7   8 -10   14.74    0.57
   7   8 -10   14.63    0.52
   6  -8 -10   58.02    1.62
   6  -8 -10   58.69    1.52
  -6  -8  10   57.51    1.56
   6   8 -10   58.88    1.60
   6   8 -10   57.62    1.53
   5  -8 -10    4.98    0.32
   5  -8 -10    4.83    0.23
  -5  -8  10    4.92    0.29
   5   8 -10    4.69    0.24
   5   8 -10    4.55    0.31
  -5   8  10    5.01    0.26
   4  -8 -10   20.89    0.59
   4  -8 -10   20.52    0.69
  -4  -8  10   19.96    0.66
   4   8 -10   21.02    0.61
  -4   8  10   20.73    0.60
   4   8 -10   20.27    0.69
  -3  -8  10   13.59    0.50
   3  -8 -10   13.48    0.42
   3  -8 -10   13.19    0.50
  -3   8  10   14.48    0.46
   3   8 -10   14.49    0.53
  -2  -8  10   44.51    1.16
   2  -8 -10   42.89    1.22
   2  -8 -10   45.00    1.15
  -2   8  10   44.07    1.19
   2   8 -10   45.98    1.27
  -1  -8  10  115.77    2.85
   1  -8 -10  116.81    2.91
   1  -8 -10  117.31    2.84
  -1  -8  10  112.82    2.92
   0  -8  10    7.99    0.36
   0  -8 -10    7.86    0.33
   0  -8 -10    7.72    0.33
   0  -8  10    7.53    0.28
   0   8 -10    8.06    0.39
   1  -8  10   25.11    0.72
  -1  -8 -10   26.01    0.77
  -1  -8 -10   26.23    0.74
   1  -8  10   25.97    0.78
  -1   8 -10   25.77    0.82
   1   8  10   25.41    0.72
  -2  -8 -10    9.41    0.33
   2  -8  10    8.94    0.34
   2  -8  10    9.44    0.40
  -2  -8 -10    9.44    0.39
   2   8  10    9.07    0.34
  -2   8 -10    9.53    0.43
  -3  -8 -10    3.10    0.25
   3  -8  10    3.31    0.21
   3  -8  10    3.57    0.26
  -3   8 -10    3.16    0.27
   3   8  10    3.24    0.20
   4  -8  10   11.25    0.41
   4  -8  10   11.42    0.44
  -4  -8 -10   12.23    0.46
  -4   8 -10   11.83    0.48
   4   8  10   10.98    0.42
   5  -8  10    6.02    0.32
   5  -8  10    5.75    0.29
  -5  -8 -10    5.90    0.33
   5   8  10    5.67    0.30
  -5   8 -10    5.89    0.34
   6  -8  10    3.89    0.28
   6  -8  10    3.61    0.26
  -6  -8 -10    3.89    0.27
  -6   8 -10    4.10    0.30
   6   8  10    4.24    0.29
  -7  -8 -10    0.97    0.18
   7  -8  10    1.10    0.17
   7  -8  10    0.82    0.17
   7   8  10    0.87    0.18
  -7   8 -10    0.84    0.18
   8  -8  10   21.46    0.73
  -8  -8 -10   21.26    0.74
   8   8  10   20.60    0.74
  -8   8 -10   22.42    0.76
  -9  -8 -10    0.05    0.16
   9  -8  10    0.01    0.14
   9   8  10    0.17    0.17
  10  -8  10    8.12    0.45
 -10  -8 -10    7.59    0.44
  10   8  10    7.50    0.46
  11  -8  10    0.97    0.23
 -11  -8 -10    0.49    0.20
  11   8  10    1.02    0.24
 -12  -8 -10    0.30    0.21
  12   8  10    0.14    0.35
  13  -9 -10    3.42    0.56
  12  -9 -10   19.84    0.80
 -11  -9  10   15.16    0.59
  11  -9 -10   16.31    0.69
 -10  -9  10    2.65    0.24
  10  -9 -10    3.07    0.32
  10   9 -10    2.48    0.25
   9  -9 -10    8.78    0.48
  -9  -9  10    9.06    0.42
   9   9 -10    9.15    0.45
   9   9 -10   10.23    0.49
   8  -9 -10    7.78    0.43
  -8  -9  10    7.29    0.37
   8   9 -10    7.45    0.39
   8   9 -10    7.56    0.36
   7  -9 -10    3.94    0.34
   7  -9 -10    3.52    0.29
  -7  -9  10    4.29    0.28
   7   9 -10    3.56    0.29
   7   9 -10    3.98    0.25
  -6  -9  10    0.85    0.16
   6  -9 -10    0.63    0.17
   6  -9 -10    0.91    0.13
   6   9 -10    1.02    0.14
   6   9 -10    0.80    0.17
  -5  -9  10   28.37    0.86
   5  -9 -10   28.29    0.79
   5  -9 -10   28.20    0.89
   5   9 -10   28.61    0.90
   5   9 -10   28.05    0.81
  -4  -9  10   35.75    1.01
   4  -9 -10   35.74    0.94
   4  -9 -10   36.16    1.04
   4   9 -10   33.76    1.04
   4   9 -10   34.09    0.96
  -4   9  10   33.56    0.94
   3  -9 -10    4.04    0.20
  -3  -9  10    4.30    0.22
   3  -9 -10    3.73    0.27
  -3  -9  10    3.98    0.27
  -3   9  10    4.16    0.23
   3   9 -10    4.34    0.31
   2  -9 -10   12.92    0.48
   2  -9 -10   12.94    0.41
  -2  -9  10   12.54    0.41
  -2  -9  10   13.43    0.49
   2   9 -10   13.56    0.53
   1  -9 -10    9.78    0.39
   1  -9 -10    9.66    0.38
   1  -9 -10   10.28    0.35
  -1  -9  10   10.32    0.35
  -1  -9  10   10.30    0.42
   1   9 -10   11.12    0.46
   0  -9 -10   37.91    1.07
   0  -9  10   39.19    1.10
   0  -9  10   38.59    1.03
   0  -9 -10   38.47    1.03
   0  -9 -10   38.04    1.07
   0   9 -10   39.73    1.14
  -1  -9 -10  103.90    2.61
   1  -9  10  102.39    2.57
  -1  -9 -10  101.28    2.58
   1  -9  10  100.78    2.62
   1   9  10  102.97    2.57
  -1   9 -10  106.36    2.68
   2  -9  10   17.44    0.59
   2  -9  10   17.48    0.54
  -2  -9 -10   17.28    0.58
  -2   9 -10   17.14    0.63
   2   9  10   17.25    0.54
  -3  -9 -10    4.23    0.27
   3  -9  10    4.85    0.28
   3  -9  10    4.68    0.24
   3   9  10    4.42    0.25
  -3   9 -10    4.74    0.32
  -4  -9 -10    3.05    0.24
   4  -9  10    2.48    0.22
   4  -9  10    2.49    0.21
  -4   9 -10    2.93    0.27
   4   9  10    2.68    0.21
   5  -9  10    0.95    0.17
   5  -9  10    0.84    0.15
  -5  -9 -10    0.87    0.16
  -5   9 -10    1.22    0.19
   5   9  10    1.24    0.17
   6  -9  10   10.97    0.44
   6  -9  10   10.97    0.44
  -6  -9 -10   10.76    0.47
   6   9  10   10.53    0.45
  -6   9 -10   10.19    0.48
  -7  -9 -10   11.55    0.50
   7  -9  10   11.72    0.49
   7   9  10   11.49    0.50
  -7   9 -10   11.86    0.51
  -8  -9 -10   21.95    0.77
   8  -9  10   23.18    0.77
   8   9  10   22.87    0.79
  -8   9 -10   22.87    0.79
   9  -9  10    3.23    0.30
  -9  -9 -10    3.81    0.33
   9   9  10    4.04    0.35
 -10  -9 -10    0.80    0.20
  10  -9  10    0.93    0.22
  10   9  10    0.92    0.22
  11  -9  10    3.23    0.33
 -11  -9 -10    2.83    0.29
  11   9  10    2.65    0.31
  12 -10 -10    3.70    0.37
  11 -10 -10    0.77    0.22
 -11 -10  10    0.32    0.16
 -10 -10  10    3.24    0.28
  10 -10 -10    3.55    0.34
  10  10 -10    3.07    0.31
   9 -10 -10    2.94    0.31
  -9 -10  10    2.88    0.26
   9  10 -10    3.65    0.35
   9  10 -10    2.80    0.27
  -8 -10  10    7.99    0.40
   8 -10 -10    7.58    0.44
   8  10 -10    8.34    0.42
   8  10 -10    8.32    0.39
   7 -10 -10   19.03    0.70
  -7 -10  10   18.10    0.63
   7  10 -10   17.94    0.66
   7  10 -10   17.36    0.61
   6 -10 -10    9.90    0.46
  -6 -10  10    8.82    0.41
   6 -10 -10    9.36    0.37
   6  10 -10    8.82    0.43
   6  10 -10    8.79    0.38
   5 -10 -10   41.99    1.23
  -5 -10  10   42.79    1.20
   5 -10 -10   42.62    1.13
   5  10 -10   41.62    1.23
   5  10 -10   41.30    1.15
   4 -10 -10   16.94    0.52
   4 -10 -10   17.11    0.61
  -4 -10  10   17.45    0.59
   4  10 -10   17.04    0.63
  -4  10  10   16.03    0.52
   4  10 -10   16.71    0.54
   3 -10 -10   62.66    1.59
  -3 -10  10   62.18    1.60
  -3 -10  10   61.68    1.66
   3 -10 -10   61.20    1.67
  -3  10  10   60.73    1.60
   3  10 -10   62.52    1.70
  -2 -10  10    0.09    0.12
   2 -10 -10    0.21    0.11
   2 -10 -10    0.10    0.08
   2 -10 -10   -0.01    0.10
  -2 -10  10    0.02    0.08
   2  10 -10    0.06    0.13
  -1 -10  10   85.79    2.21
   1 -10 -10   84.94    2.15
  -1 -10  10   85.12    2.15
   1 -10 -10   84.68    2.18
   1 -10 -10   85.18    2.20
   1  10 -10   86.33    2.26
   0 -10  10   20.58    0.67
   0 -10 -10   20.43    0.64
   0 -10 -10   20.87    0.65
   0 -10  10   20.56    0.61
   0 -10 -10   19.79    0.60
   0  10 -10   20.40    0.70
   1 -10  10   29.44    0.82
  -1 -10 -10   28.21    0.85
  -1 -10 -10   28.86    0.83
   1 -10  10   29.87    0.88
  -1  10 -10   29.09    0.92
   1  10  10   28.64    0.82
   2 -10  10    8.18    0.37
   2 -10  10    7.62    0.32
  -2 -10 -10    7.71    0.36
  -2  10 -10    7.34    0.40
   2  10  10    7.78    0.32
   3 -10  10   11.91    0.46
   3 -10  10   11.54    0.43
  -3 -10 -10   12.02    0.47
  -3  10 -10   12.13    0.51
   3  10  10   12.53    0.44
  -4 -10 -10   21.05    0.69
   4 -10  10   20.57    0.66
   4 -10  10   21.03    0.68
   4  10  10   21.14    0.67
  -4  10 -10   21.32    0.74
   5 -10  10    3.98    0.29
   5 -10  10    4.16    0.27
  -5 -10 -10    3.87    0.28
  -5  10 -10    3.94    0.32
   5  10  10    3.96    0.28
   6 -10  10    1.43    0.19
   6 -10  10    0.92    0.17
  -6 -10 -10    1.02    0.19
  -6  10 -10    1.43    0.21
   6  10  10    1.32    0.19
  -7 -10 -10    9.91    0.46
   7 -10  10   11.06    0.48
  -7  10 -10    9.95    0.50
   7  10  10   10.33    0.48
   8 -10  10    2.69    0.26
  -8 -10 -10    3.21    0.28
   8  10  10    3.44    0.32
  -8  10 -10    2.75    0.28
   9 -10  10    6.19    0.40
  -9 -10 -10    7.23    0.42
   9  10  10    6.81    0.43
  10 -10  10    2.43    0.28
 -10 -10 -10    2.47    0.28
  10  10  10    2.62    0.30
 -11 -10 -10    8.41    0.54
  11 -10  10    8.18    0.49
  11  10  10    8.43    0.53
  12 -11 -10    0.94    0.31
  11 -11 -10    3.56    0.36
 -11 -11  10    3.17    0.29
 -10 -11  10    0.39    0.16
  10 -11 -10    0.52    0.20
  -9 -11  10   21.82    0.74
   9 -11 -10   21.15    0.81
   9  11 -10   20.84    0.75
   9  11 -10   22.21    0.91
  -8 -11  10   16.01    0.61
   8 -11 -10   15.74    0.65
   8  11 -10   17.22    0.60
   8  11 -10   16.27    0.63
  -7 -11  10    1.13    0.18
   7 -11 -10    1.00    0.21
   7  11 -10    1.29    0.20
   7  11 -10    1.29    0.18
   6 -11 -10   18.30    0.63
  -6 -11  10   17.12    0.62
   6 -11 -10   17.31    0.67
   6  11 -10   18.44    0.60
   6  11 -10   16.94    0.65
  -5 -11  10    6.53    0.34
   5 -11 -10    6.62    0.30
   5 -11 -10    6.84    0.39
   5  11 -10    6.33    0.32
   5  11 -10    6.21    0.37
   4 -11 -10   14.01    0.55
  -4 -11  10   14.17    0.53
   4 -11 -10   14.53    0.48
   4  11 -10   14.69    0.57
   4  11 -10   14.38    0.49
   3 -11 -10    8.31    0.33
  -3 -11  10    8.42    0.40
  -3 -11  10    8.22    0.34
   3 -11 -10    8.50    0.40
   3  11 -10    8.81    0.44
  -2 -11  10   34.13    0.94
   2 -11 -10   34.10    1.01
   2 -11 -10   34.17    0.94
  -2 -11  10   34.34    1.00
   2 -11 -10   32.94    0.95
   2  11 -10   33.91    1.05
   1 -11 -10   17.45    0.57
   1 -11 -10   16.99    0.54
  -1 -11  10   16.91    0.60
   1 -11 -10   17.22    0.59
  -1 -11  10   18.25    0.55
   1  11 -10   17.29    0.65
   0 -11  10    7.36    0.35
   0 -11 -10    7.84    0.35
   0 -11 -10    7.87    0.31
   0 -11  10    7.65    0.32
   0 -11 -10    8.08    0.34
   0  11 -10    8.10    0.40
   1 -11  10   11.61    0.42
   1 -11  10   11.72    0.46
  -1 -11 -10   11.98    0.46
  -1 -11 -10   12.33    0.45
  -1  11 -10   11.81    0.50
   1  11  10   11.76    0.43
  -2 -11 -10   15.16    0.54
   2 -11  10   15.12    0.51
   2 -11  10   15.45    0.54
   2  11  10   14.77    0.52
  -2  11 -10   15.33    0.60
  -3 -11 -10   40.70    1.19
   3 -11  10   41.42    1.16
   3 -11  10   42.10    1.19
   3  11  10   42.64    1.17
  -3  11 -10   42.99    1.25
   4 -11  10    5.87    0.32
   4 -11  10    5.36    0.30
  -4 -11 -10    6.00    0.35
   4  11  10    6.51    0.32
  -4  11 -10    5.96    0.38
   5 -11  10    3.59    0.28
   5 -11  10    3.12    0.26
  -5 -11 -10    3.60    0.30
   5  11  10    3.69    0.27
  -5  11 -10    3.74    0.33
   6 -11  10   13.69    0.54
   6 -11  10   14.95    0.60
  -6 -11 -10   14.41    0.57
  -6  11 -10   13.82    0.59
   6  11  10   13.04    0.55
  -7 -11 -10    5.90    0.37
   7 -11  10    5.76    0.35
  -7  11 -10    6.12    0.40
   7  11  10    5.69    0.37
   8 -11  10   11.91    0.53
  -8 -11 -10   11.95    0.53
   8  11  10   11.90    0.54
  -8  11 -10   11.88    0.55
   9 -11  10    2.22    0.26
  -9 -11 -10    2.37    0.26
  -9  11 -10    2.63    0.30
   9  11  10    2.69    0.30
 -10 -11 -10    1.13    0.23
  10 -11  10    1.06    0.23
  10  11  10    1.00    0.24
  11  11  10    3.54    0.53
 -12 -12  10    5.93    0.40
  11 -12 -10    6.48    0.48
 -11 -12  10    6.82    0.42
  10 -12 -10   13.15    0.62
 -10 -12  10   13.40    0.56
   9 -12 -10    4.82    0.39
  -9 -12  10    4.19    0.33
   9  12 -10    4.40    0.33
  -8 -12  10    0.44    0.16
   8 -12 -10    0.78    0.21
   8  12 -10    0.72    0.18
   8  12 -10    0.71    0.17
  -7 -12  10    3.97    0.32
   7 -12 -10    4.16    0.35
   7  12 -10    4.73    0.34
   7  12 -10    4.88    0.32
   6 -12 -10   12.25    0.54
  -6 -12  10   12.03    0.51
   6 -12 -10   13.07    0.62
   6  12 -10   11.69    0.48
   6  12 -10   11.62    0.52
   5 -12 -10    5.50    0.36
  -5 -12  10    5.45    0.34
   5 -12 -10    5.44    0.28
   5  12 -10    5.77    0.37
   5  12 -10    5.70    0.30
  -4 -12  10    7.54    0.38
   4 -12 -10    7.91    0.41
   4 -12 -10    8.53    0.34
   4  12 -10    8.08    0.36
   4  12 -10    7.80    0.43
  -3 -12  10    6.84    0.32
  -3 -12  10    7.71    0.37
   3 -12 -10    7.05    0.31
   3 -12 -10    7.12    0.31
   3 -12 -10    7.16    0.38
   3  12 -10    7.39    0.41
   2 -12 -10   48.47    1.28
  -2 -12  10   46.38    1.28
   2 -12 -10   47.60    1.28
   2 -12 -10   48.05    1.34
  -2 -12  10   48.29    1.33
   2  12 -10   46.31    1.37
  -1 -12  10    4.71    0.31
  -1 -12  10    4.68    0.26
   1 -12 -10    5.05    0.29
   1 -12 -10    5.35    0.26
   1 -12 -10    5.36    0.29
   1  12 -10    6.00    0.37
   0 -12 -10    3.77    0.26
   0 -12 -10    4.10    0.23
   0 -12 -10    3.95    0.25
   0 -12  10    3.56    0.23
   0 -12  10    3.62    0.27
   0  12 -10    3.88    0.30
   1 -12  10    3.50    0.27
   1 -12  10    3.45    0.23
  -1 -12 -10    3.49    0.26
  -1  12 -10    4.00    0.33
   1  12  10    3.14    0.23
   2 -12  10    0.91    0.14
  -2 -12 -10    0.33    0.13
   2 -12  10    0.73    0.16
   2  12  10    0.64    0.13
  -2  12 -10    0.48    0.17
  -3 -12 -10   33.14    1.00
   3 -12  10   33.94    0.99
   3 -12  10   33.29    0.96
   3  12  10   33.49    0.98
  -3  12 -10   32.34    1.04
   4 -12  10   13.63    0.51
   4 -12  10   13.66    0.51
  -4 -12 -10   12.68    0.51
   4  12  10   13.44    0.51
  -4  12 -10   13.41    0.58
  -5 -12 -10    4.09    0.32
   5 -12  10    4.26    0.29
   5 -12  10    4.21    0.30
   5  12  10    3.89    0.30
  -5  12 -10    4.45    0.35
   6 -12  10    3.17    0.29
  -6 -12 -10    3.66    0.31
  -6  12 -10    3.46    0.32
   6  12  10    3.04    0.27
  -7 -12 -10    0.82    0.20
   7 -12  10    0.70    0.18
  -7  12 -10    0.89    0.21
   7  12  10    0.73    0.18
  -8 -12 -10    2.48    0.28
   8 -12  10    2.62    0.27
   8  12  10    2.53    0.27
  -8  12 -10    2.12    0.28
   9 -12  10    9.81    0.50
  -9 -12 -10   10.28    0.49
   9  12  10    9.31    0.53
  -9  12 -10   10.07    0.53
  10 -12  10    2.91    0.32
  10  12  10    3.10    0.33
 -12 -13  10    2.05    0.30
 -11 -13  10    0.92    0.21
  10 -13 -10   17.25    0.74
 -10 -13  10   18.57    0.69
  -9 -13  10    5.54    0.37
   9 -13 -10    5.62    0.43
  -8 -13  10    2.05    0.25
   8 -13 -10    2.32    0.29
   8  13 -10    1.93    0.24
   8  13 -10    2.30    0.25
   7 -13 -10    6.43    0.42
  -7 -13  10    6.70    0.39
   7  13 -10    6.32    0.39
   7  13 -10    7.18    0.38
  -6 -13  10    5.08    0.34
   6 -13 -10    4.74    0.37
   6  13 -10    4.67    0.35
   6  13 -10    4.80    0.31
   5 -13 -10   10.06    0.49
   5 -13 -10   11.65    0.46
  -5 -13  10   10.04    0.47
   5  13 -10   10.41    0.49
   5  13 -10   10.72    0.44
  -4 -13  10    6.61    0.35
   4 -13 -10    6.72    0.32
   4 -13 -10    6.73    0.39
   4  13 -10    6.90    0.41
   3 -13 -10   24.88    0.74
  -3 -13  10   23.96    0.79
  -3 -13  10   24.45    0.75
   3 -13 -10   24.66    0.81
   3  13 -10   23.79    0.83
  -2 -13  10   13.66    0.48
   2 -13 -10   14.23    0.48
   2 -13 -10   13.00    0.48
  -2 -13  10   14.01    0.54
   2 -13 -10   13.33    0.53
   2  13 -10   13.59    0.58
   1 -13 -10    5.43    0.27
  -1 -13  10    4.77    0.31
   1 -13 -10    5.01    0.28
   1 -13 -10    5.60    0.31
  -1 -13  10    4.99    0.28
   1  13 -10    4.85    0.36
   0 -13 -10    2.15    0.20
   0 -13  10    1.87    0.21
   0 -13 -10    1.68    0.17
   0 -13  10    1.85    0.18
   0 -13 -10    1.49    0.18
   0  13 -10    1.80    0.24
  -1 -13 -10    4.30    0.29
   1 -13  10    4.86    0.30
   1 -13  10    4.15    0.26
  -1  13 -10    4.94    0.36
   2 -13  10    4.91    0.29
   2 -13  10    4.54    0.30
  -2 -13 -10    5.47    0.32
  -2  13 -10    4.94    0.37
   2  13  10    4.60    0.28
   3 -13  10   54.33    1.48
   3 -13  10   53.09    1.46
  -3 -13 -10   52.69    1.49
  -3  13 -10   53.88    1.56
   3  13  10   53.08    1.47
  -4 -13 -10    1.39    0.20
   4 -13  10    1.29    0.18
   4 -13  10    0.95    0.18
  -4  13 -10    1.38    0.23
   4  13  10    1.31    0.18
   5 -13  10   13.25    0.51
   5 -13  10   12.74    0.52
  -5 -13 -10   13.24    0.55
  -5  13 -10   13.43    0.60
   5  13  10   13.69    0.54
   6 -13  10    4.27    0.33
  -6 -13 -10    4.75    0.35
  -6  13 -10    4.93    0.38
   6  13  10    5.00    0.35
   7 -13  10    4.65    0.35
  -7 -13 -10    5.11    0.35
   7  13  10    5.61    0.37
  -7  13 -10    4.91    0.39
   8 -13  10    9.85    0.51
  -8 -13 -10   10.22    0.51
   8  13  10   10.00    0.53
  -8  13 -10   10.63    0.55
  -9 -13 -10    0.59    0.21
   9 -13  10    0.56    0.21
   9  13  10    0.85    0.22
  -9  13 -10    1.16    0.24
  10  13  10    0.68    0.24
 -11 -14  10   10.18    0.54
  10 -14 -10    6.66    0.47
 -10 -14  10    7.40    0.44
   9 -14 -10    5.91    0.45
  -9 -14  10    6.38    0.40
   8 -14 -10    2.87    0.32
  -8 -14  10    3.49    0.31
   8  14 -10    3.68    0.33
   8  14 -10    3.42    0.34
   7 -14 -10    9.36    0.51
  -7 -14  10    8.69    0.44
   7  14 -10    9.51    0.48
   7  14 -10    9.52    0.44
  -6 -14  10    2.14    0.25
   6 -14 -10    1.70    0.25
   6  14 -10    2.01    0.25
   6  14 -10    2.01    0.22
  -5 -14  10   14.41    0.57
   5 -14 -10   14.60    0.65
   5 -14 -10   13.97    0.60
   5  14 -10   13.44    0.52
   5  14 -10   12.03    0.57
   4 -14 -10    5.89    0.38
  -4 -14  10    6.07    0.37
   4 -14 -10    7.14    0.34
   4  14 -10    5.81    0.39
  -3 -14  10    0.88    0.15
   3 -14 -10    0.91    0.14
   3 -14 -10    0.82    0.19
  -3 -14  10    0.75    0.18
   3  14 -10    0.83    0.21
   2 -14 -10    6.26    0.31
  -2 -14  10    6.24    0.36
   2 -14 -10    5.88    0.36
  -2 -14  10    5.86    0.30
   2 -14 -10    5.67    0.31
   2  14 -10    5.52    0.39
   1 -14 -10    4.33    0.27
  -1 -14  10    4.68    0.31
   1 -14 -10    4.44    0.27
  -1 -14  10    4.29    0.27
   1 -14 -10    4.69    0.30
   1  14 -10    4.34    0.33
   0 -14  10    6.90    0.37
   0 -14 -10    6.69    0.35
   0 -14 -10    6.97    0.33
   0 -14  10    6.49    0.33
   0  14 -10    7.18    0.41
  -1 -14 -10    0.76    0.16
   1 -14  10    0.70    0.17
   1 -14  10    0.84    0.14
  -1  14 -10    0.73    0.20
   2 -14  10   12.85    0.49
  -2 -14 -10   12.63    0.51
   2 -14  10   12.98    0.50
   2  14  10   11.42    0.48
  -2  14 -10   11.96    0.57
   3 -14  10    7.40    0.37
  -3 -14 -10    7.72    0.40
   3 -14  10    7.72    0.38
   3  14  10    7.71    0.39
  -3  14 -10    7.94    0.47
  -4 -14 -10    0.27    0.15
   4 -14  10    0.29    0.14
   4 -14  10    0.10    0.14
   4  14  10    0.36    0.14
  -4  14 -10    0.65    0.21
   5 -14  10    3.61    0.31
  -5 -14 -10    3.43    0.31
   5  14  10    3.52    0.31
  -5  14 -10    3.32    0.33
  -6 -14 -10    1.63    0.22
   6 -14  10    1.85    0.24
  -6  14 -10    1.10    0.23
   6  14  10    1.56    0.22
   7 -14  10    0.96    0.20
  -7 -14 -10    0.94    0.21
   7  14  10    0.68    0.19
  -7  14 -10    0.99    0.23
   8 -14  10    0.54    0.20
  -8 -14 -10    0.96    0.23
  -8  14 -10    0.60    0.22
   8  14  10    0.98    0.22
   9 -14  10    1.04    0.24
  -9  14 -10    1.47    0.27
   9  14  10    1.57    0.26
 -10 -15  10    1.08    0.25
  -9 -15  10    5.73    0.40
   9 -15 -10    5.87    0.45
   8 -15 -10    2.26    0.30
  -8 -15  10    1.76    0.24
   7 -15 -10    3.83    0.37
  -7 -15  10    3.72    0.32
   7  15 -10    2.92    0.31
   7  15 -10    3.65    0.31
  -6 -15  10    3.51    0.33
   6 -15 -10    4.13    0.37
   6  15 -10    3.98    0.35
   6  15 -10    4.03    0.31
   5 -15 -10    2.74    0.29
  -5 -15  10    2.15    0.24
   5  15 -10    2.75    0.30
   5  15 -10    3.30    0.27
  -4 -15  10    4.18    0.33
   4 -15 -10    4.19    0.35
   4 -15 -10    5.10    0.33
   4  15 -10    3.94    0.35
  -3 -15  10    5.19    0.35
   3 -15 -10    4.72    0.34
  -3 -15  10    4.56    0.30
   3 -15 -10    4.94    0.29
   3  15 -10    4.38    0.37
  -2 -15  10    0.95    0.19
  -2 -15  10    1.26    0.17
   2 -15 -10    1.25    0.20
   2 -15 -10    1.27    0.17
   2  15 -10    1.36    0.23
   1 -15 -10   13.92    0.51
  -1 -15  10   13.68    0.55
   1 -15 -10   13.71    0.51
   1 -15 -10   13.59    0.54
  -1 -15  10   14.44    0.52
   1  15 -10   12.93    0.60
   0 -15  10    9.50    0.45
   0 -15 -10   10.42    0.44
   0 -15  10   10.18    0.43
   0 -15 -10   10.46    0.43
   0  15 -10   10.46    0.53
   1 -15  10    2.92    0.26
  -1 -15 -10    3.08    0.27
   1 -15  10    2.95    0.26
  -1  15 -10    2.18    0.27
  -2 -15 -10    5.25    0.34
   2 -15  10    5.75    0.34
   2 -15  10    5.89    0.34
  -2  15 -10    6.60    0.43
   2  15  10    5.99    0.34
   3 -15  10    7.66    0.39
  -3 -15 -10    7.68    0.39
   3 -15  10    7.96    0.39
   3  15  10    7.45    0.39
  -3  15 -10    7.88    0.48
  -4 -15 -10    8.28    0.43
   4 -15  10    7.96    0.41
   4 -15  10    7.89    0.40
   4  15  10    8.19    0.41
  -4  15 -10    8.51    0.50
  -5 -15 -10    5.02    0.36
   5 -15  10    5.09    0.34
   5  15  10    5.92    0.38
  -5  15 -10    5.47    0.42
  -6 -15 -10    3.72    0.33
   6 -15  10    3.79    0.32
   6  15  10    3.76    0.35
  -6  15 -10    3.33    0.35
   7 -15  10   20.34    0.75
  -7 -15 -10   19.92    0.76
   7  15  10   20.24    0.77
  -7  15 -10   19.58    0.81
   8 -15  10    2.34    0.28
  -8  15 -10    2.47    0.33
   8  15  10    2.70    0.31
   9  15  10    9.45    0.77
  -9 -16  10    5.22    0.47
  -8 -16  10    0.42    0.19
   8 -16 -10    0.53    0.23
   7 -16 -10    4.22    0.40
   7  16 -10    4.75    0.40
   7  16 -10    4.68    0.39
   6 -16 -10    5.45    0.42
  -6 -16  10    5.28    0.38
   6  16 -10    5.32    0.40
   6  16 -10    4.74    0.35
   5 -16 -10    1.21    0.23
  -5 -16  10    1.03    0.21
   5  16 -10    1.18    0.24
   5  16 -10    1.50    0.21
  -4 -16  10   10.51    0.50
   4 -16 -10   10.96    0.53
   4  16 -10    9.91    0.52
   3 -16 -10    0.98    0.18
  -3 -16  10    1.08    0.18
  -3 -16  10    0.92    0.20
   3 -16 -10    1.08    0.21
   3  16 -10    0.93    0.23
  -2 -16  10    8.97    0.41
  -2 -16  10    9.46    0.46
   2 -16 -10    9.55    0.47
   2 -16 -10    9.32    0.41
   2  16 -10    8.98    0.50
   1 -16 -10    9.62    0.41
   1 -16 -10    9.88    0.63
  -1 -16  10    8.66    0.44
   1 -16 -10    9.49    0.42
  -1 -16  10    9.25    0.42
   1  16 -10    9.57    0.51
   0 -16 -10    0.76    0.16
   0 -16  10    0.49    0.16
   0 -16 -10    0.79    0.17
   0 -16  10    0.76    0.16
   0  16 -10    1.01    0.22
  -1 -16 -10    1.83    0.21
   1 -16  10    1.79    0.20
   1 -16  10    1.66    0.22
  -1  16 -10    1.54    0.24
   2 -16  10    7.40    0.38
  -2 -16 -10    7.20    0.39
   2 -16  10    7.62    0.40
  -2  16 -10    7.14    0.47
   2  16  10    7.42    0.38
   3 -16  10   12.02    0.51
   3 -16  10   10.92    0.48
  -3 -16 -10   11.53    0.51
   3  16  10   11.11    0.49
  -3  16 -10   11.34    0.56
   4 -16  10    5.01    0.34
  -4 -16 -10    5.52    0.35
   4  16  10    5.24    0.36
  -4  16 -10    5.31    0.43
  -5 -16 -10    0.21    0.17
   5 -16  10    0.22    0.15
   5  16  10    0.29    0.15
  -5  16 -10   -0.14    0.19
  -6 -16 -10    2.22    0.27
   6 -16  10    1.95    0.24
  -6  16 -10    2.35    0.32
   6  16  10    2.15    0.26
   7 -16  10    4.58    0.40
  -7 -16 -10    7.08    0.63
   7  16  10    5.64    0.41
  -7  16 -10    4.84    0.45
   8 -16  10    0.54    0.24
   8  16  10    0.79    0.22
   7 -17 -10   11.70    0.61
  -7 -17  10   11.94    0.57
   7  17 -10   12.53    0.76
  -6 -17  10    6.27    0.42
   6 -17 -10    5.62    0.44
   6  17 -10    6.52    0.41
   6  17 -10    6.33    0.43
  -5 -17  10    1.47    0.23
   5 -17 -10    1.30    0.25
   5  17 -10    1.08    0.24
   5  17 -10    1.12    0.20
   4 -17 -10    4.44    0.37
  -4 -17  10    5.11    0.38
   4  17 -10    4.58    0.40
  -3 -17  10    8.48    0.42
  -3 -17  10    7.78    0.45
   3 -17 -10    8.60    0.47
   3  17 -10    8.54    0.50
  -2 -17  10    5.26    0.37
   2 -17 -10    5.56    0.38
   2 -17 -10    5.91    0.36
  -2 -17  10    5.85    0.35
   2  17 -10    5.77    0.41
  -1 -17  10    5.17    0.33
   1 -17 -10    4.60    0.43
   1 -17 -10    5.77    0.34
  -1 -17  10    5.43    0.37
   1  17 -10    5.14    0.42
   0 -17 -10    0.56    0.16
   0 -17  10    0.44    0.15
   0 -17 -10    0.40    0.16
   0 -17  10    0.54    0.17
   0  17 -10    0.49    0.22
   1 -17  10    6.03    0.36
  -1 -17 -10    6.13    0.36
   1 -17  10    6.08    0.37
  -1  17 -10    5.97    0.45
  -2 -17 -10   19.23    0.70
   2 -17  10   18.84    0.69
   2 -17  10   20.07    0.70
  -2  17 -10   19.40    0.78
   2  17  10   19.33    0.70
   3 -17  10    1.60    0.22
  -3 -17 -10    1.96    0.25
   3 -17  10    1.24    0.21
   3  17  10    2.34    0.25
  -3  17 -10    1.79    0.30
  -4 -17 -10    2.65    0.29
   4 -17  10    2.71    0.27
  -4  17 -10    2.76    0.34
   4  17  10    3.00    0.29
  -5 -17 -10    2.31    0.27
   5 -17  10    2.10    0.26
  -5  17 -10    2.53    0.33
   5  17  10    2.44    0.27
  -6 -17 -10   13.34    0.66
   6 -17  10   11.54    0.56
  -6  17 -10   12.09    0.66
   6  17  10   12.33    0.58
   7 -17  10    1.70    0.26
   7  17  10    2.20    0.28
  -6 -18  10    3.34    0.33
   6 -18 -10    3.10    0.34
   6  18 -10    3.56    0.35
   6  18 -10    3.14    0.36
  -5 -18  10    9.99    0.52
   5 -18 -10   10.18    0.55
   5  18 -10   10.37    0.56
   5  18 -10    9.84    0.50
   4 -18 -10    4.22    0.37
  -4 -18  10    3.07    0.30
   4  18 -10    3.33    0.34
   3 -18 -10    0.73    0.21
  -3 -18  10    0.70    0.18
  -3 -18  10    0.61    0.18
   3  18 -10    0.53    0.22
   2 -18 -10   23.33    1.09
  -2 -18  10   21.84    0.75
  -2 -18  10   22.10    0.79
   2  18 -10   19.71    0.81
   1 -18 -10    8.13    0.46
  -1 -18  10    7.83    0.44
  -1 -18  10    7.48    0.41
   1  18 -10    7.84    0.50
   0 -18  10    9.44    0.46
   0 -18  10   10.21    0.49
   0 -18 -10    9.83    0.47
   0 -18 -10   10.07    0.46
   0  18 -10    9.45    0.56
   1 -18  10    0.58    0.17
  -1 -18 -10    0.77    0.18
   1 -18  10    0.51    0.18
  -1  18 -10    0.92    0.25
  -2 -18 -10    0.92    0.20
   2 -18  10    0.72    0.18
   2 -18  10    0.63    0.18
  -2  18 -10    0.80    0.25
   2  18  10    0.83    0.18
   3 -18  10    0.63    0.18
  -3 -18 -10    0.58    0.19
  -3  18 -10    1.02    0.26
   3  18  10    0.66    0.18
   4 -18  10   26.22    0.90
  -4 -18 -10   26.90    0.91
  -4  18 -10   26.78    1.00
   4  18  10   25.54    0.91
   5 -18  10    2.31    0.28
  -5 -18 -10    1.94    0.32
   5  18  10    2.06    0.26
   6 -18  10    4.39    0.40
   6  18  10    4.96    0.39
   6  19 -10    1.24    0.36
   5 -19 -10    8.87    0.54
   5  19 -10    9.32    0.53
   5  19 -10    9.55    0.56
   4 -19 -10    6.92    0.49
  -4 -19  10    7.26    0.46
   4  19 -10    7.13    0.50
   3 -19 -10    1.66    0.26
  -3 -19  10    1.52    0.23
  -3 -19  10    1.32    0.24
   3  19 -10    1.41    0.27
  -2 -19  10    1.37    0.22
  -2 -19  10    1.09    0.23
   2  19 -10    1.39    0.28
  -1 -19  10   15.69    0.65
  -1 -19  10   15.24    0.62
   1  19 -10   16.33    0.73
   0 -19 -10    6.13    0.53
   0 -19  10    5.63    0.38
   0 -19  10    5.75    0.39
   0  19 -10    4.81    0.45
   1 -19  10    1.05    0.20
   1 -19  10    1.13    0.22
  -1 -19 -10    1.32    0.21
  -1  19 -10    1.33    0.29
   2 -19  10    1.41    0.22
   2 -19  10    1.07    0.21
  -2 -19 -10    1.72    0.24
  -2  19 -10    1.06    0.28
   2  19  10    1.43    0.23
   3 -19  10    0.11    0.16
  -3 -19 -10    0.24    0.18
   3  19  10    0.04    0.15
   4 -19  10    4.94    0.39
   4  19  10    4.14    0.38
   5 -19  10    5.26    0.46
   5  19  10    4.99    0.40
   5  20 -10    0.86    0.25
   4 -20 -10   13.63    0.65
   4  20 -10   14.26    0.63
   4  20 -10   13.92    0.67
  -3 -20  10    0.30    0.19
   3  20 -10    0.16    0.23
  -2 -20  10    1.10    0.23
  -2 -20  10    0.71    0.20
   2  20 -10    0.81    0.26
  -1 -20  10    4.34    0.38
  -1 -20  10    4.92    0.38
   1  20 -10    4.64    0.44
   0 -20  10    1.31    0.23
   0 -20  10    1.22    0.23
   0  20 -10    1.43    0.34
   1 -20  10    7.48    0.46
   1 -20  10    7.99    0.47
  -1 -20 -10    8.19    0.44
   1  20  10    8.00    0.49
  -2 -20 -10    5.77    0.40
   2 -20  10    5.52    0.40
   2  20  10    5.90    0.42
   3 -20  10    3.67    0.36
   3  20  10    4.03    0.37
   4  20  10   16.30    0.80
  -3 -21  10    2.31    0.33
  -2 -21  10    1.56    0.24
  -1 -21  10    2.57    0.28
   0 -21  10    0.70    0.20
   1 -21  10    3.22    0.45
   1 -21  10    4.02    0.52
  13   0 -11   11.02    0.54
  12   0 -11    3.10    0.30
  11   0 -11   18.43    0.70
  10   0 -11    6.84    0.40
   9   0 -11    5.27    0.35
   8   0 -11    4.27    0.31
  -8   0  11    4.21    0.23
  -7   0  11    3.19    0.20
   7   0 -11    2.97    0.25
  -6   0  11    0.10    0.10
   6   0 -11   -0.05    0.11
   5   0 -11   36.95    1.07
  -3   0  11    6.86    0.31
   3   0 -11    7.11    0.32
  -2   0  11    8.57    0.35
   2   0 -11    8.14    0.35
   1   0 -11    1.09    0.14
  -1   0  11    0.72    0.13
   0   0  11    2.85    0.23
   0   0 -11    2.40    0.19
  -1   0 -11   27.79    0.81
  -2   0 -11   67.58    1.75
   2   0  11   67.66    1.67
  -3   0 -11    1.79    0.17
   3   0  11    1.63    0.15
   3   0  11    1.78    0.19
   4   0  11   24.07    0.67
  -4   0 -11   23.16    0.69
   4   0  11   23.60    0.74
   5   0  11   18.34    0.57
   5   0  11   18.12    0.62
   6   0  11    3.73    0.26
   6   0  11    3.87    0.28
   7   0  11    4.31    0.30
   7   0  11    4.47    0.30
   8   0  11    3.03    0.26
   8   0  11    3.63    0.29
   9   0  11    7.28    0.39
   9   0  11    7.19    0.40
  10   0  11    0.57    0.20
  10   0  11    1.02    0.20
  11   0  11    4.05    0.37
  12   0  11    1.04    0.26
  14  -1 -11    4.19    0.38
  13  -1 -11    2.39    0.29
  13   1 -11    1.93    0.26
  12  -1 -11    8.93    0.49
  12   1 -11    8.65    0.48
  11  -1 -11    2.65    0.28
  11   1 -11    2.62    0.27
  10  -1 -11    9.38    0.47
  10   1 -11    9.39    0.46
   9  -1 -11    9.56    0.46
   9   1 -11    9.78    0.46
   8  -1 -11   15.78    0.59
  -8  -1  11   15.53    0.49
   8   1 -11   14.64    0.58
  -7  -1  11    1.53    0.15
   7  -1 -11    1.47    0.20
  -7   1  11    1.81    0.15
   7   1 -11    1.62    0.20
  -6  -1  11   14.78    0.48
   6  -1 -11   14.62    0.54
   6   1 -11   14.43    0.54
  -6   1  11   14.11    0.47
  -5  -1  11   38.31    1.04
  -5   1  11   38.00    1.03
   5   1 -11   37.26    1.09
   4  -1 -11    7.40    0.33
  -3  -1  11    0.03    0.11
   3  -1 -11    0.11    0.09
   3   1 -11    0.02    0.10
  -3   1  11    0.21    0.11
  -2  -1  11   36.17    0.99
   2  -1 -11   35.71    1.01
  -2   1  11   35.58    0.98
   2   1 -11   34.59    1.01
   1  -1 -11   18.78    0.59
  -1  -1  11   18.80    0.59
  -1   1  11   18.17    0.58
   1   1 -11   18.47    0.60
   0  -1 -11    1.38    0.15
   0  -1  11    1.00    0.15
   0   1  11    1.24    0.16
   0   1 -11    0.94    0.13
  -1  -1 -11   14.30    0.47
   1  -1  11   14.40    0.39
  -1   1 -11   13.82    0.48
  -2  -1 -11    3.54    0.21
   2  -1  11    3.66    0.16
   2   1  11    3.64    0.17
  -2   1 -11    3.80    0.22
   3  -1  11   48.05    1.25
   3  -1  11   48.53    1.33
  -3  -1 -11   49.44    1.29
   3   1  11   49.16    1.25
  -3   1 -11   49.08    1.31
   3   1  11   50.02    1.34
  -4  -1 -11    4.58    0.22
   4  -1  11    4.23    0.22
   4  -1  11    4.69    0.27
  -4   1 -11    4.07    0.24
   4   1  11    4.14    0.28
   4   1  11    4.52    0.23
   5  -1  11   18.29    0.57
   5  -1  11   18.76    0.62
  -5   1 -11   18.09    0.57
   5   1  11   18.00    0.61
   5   1  11   18.16    0.57
   6  -1  11   11.28    0.42
   6  -1  11   10.94    0.45
   6   1  11   10.93    0.43
   6   1  11   10.93    0.45
   7  -1  11   10.76    0.43
   7  -1  11   10.75    0.46
   7   1  11   10.43    0.45
   7   1  11   10.27    0.44
   8  -1  11    6.33    0.35
   8  -1  11    6.10    0.34
   8   1  11    5.46    0.35
   8   1  11    6.31    0.36
   9  -1  11    4.35    0.31
   9  -1  11    3.08    0.30
   9   1  11    3.82    0.32
   9   1  11    3.60    0.31
  10  -1  11    7.43    0.44
  10   1  11    7.70    0.45
  10   1  11    8.00    0.42
  11  -1  11    2.81    0.30
  11   1  11    2.63    0.31
  12  -1  11    2.44    0.30
  12   1  11    2.30    0.31
  14  -2 -11    0.81    0.23
  13  -2 -11    0.37    0.20
  13   2 -11    0.97    0.21
  12  -2 -11    7.40    0.46
  12   2 -11    6.16    0.41
  11  -2 -11    2.57    0.27
  11   2 -11    1.97    0.25
  10  -2 -11    1.21    0.21
  10   2 -11    1.06    0.20
   9  -2 -11   19.63    0.72
   9   2 -11   20.29    0.71
  -8  -2  11    9.88    0.38
   8  -2 -11   10.30    0.45
   8   2 -11   10.39    0.46
  -7  -2  11    8.89    0.35
   7  -2 -11    8.88    0.42
   7   2 -11    9.37    0.41
  -7   2  11    8.78    0.33
   6  -2 -11    3.38    0.27
  -6  -2  11    2.92    0.21
  -6   2  11    3.63    0.21
   6   2 -11    3.44    0.27
  -5  -2  11    5.33    0.27
   5  -2 -11    3.85    0.25
  -5   2  11    5.60    0.26
   5   2 -11    5.46    0.31
   4  -2 -11    0.53    0.12
  -4  -2  11    0.59    0.13
  -4   2  11    0.59    0.12
  -3  -2  11   25.51    0.75
   3  -2 -11   25.00    0.77
  -3   2  11   25.67    0.73
   2  -2 -11   40.17    1.13
  -2  -2  11   41.56    1.11
  -2   2  11   39.48    1.10
   2   2 -11   41.14    1.14
  -1  -2  11   45.54    1.19
   1  -2 -11   42.29    1.19
   1   2 -11   43.19    1.20
  -1   2  11   43.69    1.18
   0  -2 -11    9.83    0.38
   0   2  11   10.17    0.39
   0   2 -11    9.99    0.39
   1  -2  11   31.49    0.81
  -1  -2 -11   31.38    0.89
  -1   2 -11   32.05    0.92
   1   2  11   32.84    0.85
   1   2  11   32.75    0.92
  -2  -2 -11    3.28    0.20
   2  -2  11    3.24    0.25
   2  -2  11    3.16    0.15
   2   2  11    3.59    0.17
  -2   2 -11    3.25    0.22
  -3  -2 -11    1.53    0.14
   3  -2  11    1.43    0.14
   3  -2  11    1.65    0.19
  -3   2 -11    1.34    0.15
   3   2  11    1.62    0.13
   3   2  11    1.11    0.17
   4  -2  11   21.48    0.61
   4  -2  11   20.97    0.67
  -4  -2 -11   21.05    0.65
   4   2  11   21.29    0.68
  -4   2 -11   20.28    0.65
   4   2  11   20.51    0.62
   5  -2  11   16.79    0.57
   5  -2  11   16.42    0.52
  -5   2 -11   14.89    0.52
   5   2  11   15.60    0.52
   5   2  11   15.80    0.57
   6  -2  11   24.94    0.77
   6  -2  11   24.76    0.74
   6   2  11   23.85    0.77
   6   2  11   23.88    0.74
   7  -2  11    8.08    0.37
   7  -2  11    9.07    0.40
   7   2  11    8.42    0.41
   7   2  11    7.90    0.38
   8  -2  11    4.97    0.33
   8  -2  11    4.66    0.31
   8   2  11    4.39    0.32
   8   2  11    4.30    0.31
   9  -2  11    5.17    0.35
   9  -2  11    5.60    0.35
   9   2  11    5.47    0.35
   9   2  11    5.22    0.36
  10  -2  11    1.18    0.23
  10   2  11    1.21    0.21
  10   2  11    1.20    0.23
  11  -2  11    0.44    0.20
  11   2  11    0.55    0.23
  12  -2  11    0.76    0.24
  12   2  11    0.59    0.25
  14  -3 -11    1.03    0.24
  13  -3 -11    6.76    0.45
  12  -3 -11   22.24    0.82
  12   3 -11   21.64    0.79
  11  -3 -11   17.08    0.67
  11   3 -11   15.43    0.63
  10  -3 -11   20.20    0.74
  10   3 -11   19.77    0.72
   9  -3 -11   52.58    1.50
  -9  -3  11   49.99    1.37
   9   3 -11   52.61    1.48
  -8  -3  11   16.65    0.56
   8  -3 -11   17.84    0.65
   8   3 -11   18.03    0.65
   7  -3 -11   35.93    1.09
  -7  -3  11   36.06    1.01
   7   3 -11   36.87    1.08
   6  -3 -11    7.18    0.37
  -6  -3  11    7.31    0.32
   6   3 -11    7.48    0.36
  -6   3  11    7.08    0.30
   5  -3 -11    0.49    0.13
  -5  -3  11    0.58    0.13
  -5   3  11    0.50    0.11
   5   3 -11    0.68    0.15
  -4  -3  11    3.92    0.25
   4  -3 -11    3.98    0.26
  -4   3  11    3.79    0.23
   3  -3 -11   48.18    1.31
  -3  -3  11   47.87    1.28
  -3   3  11   46.72    1.26
  -2  -3  11    2.85    0.24
   2  -3 -11    2.71    0.21
  -2   3  11    2.82    0.21
   2   3 -11    2.90    0.23
   1  -3 -11   38.27    1.07
  -1  -3  11   39.42    1.07
   1   3 -11   38.80    1.09
  -1   3  11   38.25    1.06
   0  -3 -11  109.29    2.76
   0   3 -11  111.57    2.80
   0   3  11  109.42    2.76
  -1  -3 -11   14.62    0.47
   1  -3  11   14.47    0.40
  -1   3 -11   14.70    0.51
   1   3  11   14.43    0.49
   1   3  11   14.75    0.42
  -2  -3 -11   17.77    0.54
   2  -3  11   17.03    0.49
   2  -3  11   18.08    0.59
   2   3  11   17.70    0.50
  -2   3 -11   17.91    0.58
   3  -3  11    8.60    0.38
  -3  -3 -11    8.79    0.32
   3  -3  11    8.65    0.30
  -3   3 -11    9.08    0.36
   3   3  11    9.06    0.31
   3   3  11    7.54    0.37
   4  -3  11    2.90    0.19
   4  -3  11    2.82    0.25
   4   3  11    2.62    0.25
  -4   3 -11    2.71    0.22
   4   3  11    2.79    0.21
   5  -3  11   25.24    0.79
   5  -3  11   25.38    0.75
  -5   3 -11   26.43    0.78
   5   3  11   26.26    0.81
   5   3  11   26.00    0.76
   6  -3  11    9.37    0.41
   6  -3  11    9.63    0.39
   6   3  11    9.23    0.42
  -6   3 -11    9.62    0.43
   6   3  11    9.64    0.40
   7  -3  11    0.48    0.14
   7  -3  11    0.66    0.16
   7   3  11    0.32    0.15
   7   3  11    0.14    0.14
   8  -3  11    7.76    0.39
   8  -3  11    8.51    0.40
   8   3  11    8.27    0.42
   8   3  11    7.91    0.41
   9  -3  11    9.28    0.43
   9  -3  11    8.72    0.44
   9   3  11    9.35    0.46
   9   3  11    9.16    0.45
  10  -3  11   13.20    0.58
  10   3  11   13.91    0.56
  10   3  11   13.48    0.58
  11  -3  11    0.14    0.19
  11   3  11   -0.49    0.18
  11   3  11    0.37    0.18
  12  -3  11    3.88    0.36
  12   3  11    3.77    0.38
  14  -4 -11    2.29    0.29
  13  -4 -11    6.26    0.43
  12  -4 -11    0.30    0.20
  12   4 -11    0.36    0.18
  11  -4 -11    4.82    0.38
  11   4 -11    4.51    0.36
  10  -4 -11    8.74    0.47
  10   4 -11    8.90    0.45
   9  -4 -11    1.40    0.22
  -9  -4  11    1.17    0.16
   9   4 -11    1.40    0.21
  -8  -4  11   41.73    1.16
   8  -4 -11   42.68    1.25
   8   4 -11   42.27    1.24
   7  -4 -11    2.58    0.25
  -7  -4  11    2.45    0.21
   7   4 -11    3.17    0.27
  -6  -4  11   19.19    0.61
   6  -4 -11   19.99    0.68
  -6   4  11   19.31    0.57
   6   4 -11   19.11    0.67
  -5  -4  11    4.88    0.27
   5  -4 -11    5.45    0.30
   5   4 -11    5.15    0.30
  -5   4  11    5.32    0.25
  -4  -4  11    6.27    0.31
   4  -4 -11    6.26    0.32
  -4   4  11    6.39    0.28
   4   4 -11    6.45    0.34
  -3  -4  11   54.12    1.44
   3  -4 -11   53.31    1.47
  -3   4  11   55.35    1.42
   2  -4 -11    3.56    0.23
  -2  -4  11    3.95    0.26
  -2   4  11    3.41    0.22
   2   4 -11    2.43    0.21
   1  -4 -11    3.50    0.22
  -1   4  11    3.51    0.23
   1   4 -11    3.51    0.24
   0  -4  11   24.07    0.63
   0  -4 -11   24.56    0.73
   0   4 -11   24.82    0.76
   0   4  11   25.05    0.74
   1  -4  11    0.55    0.13
  -1  -4 -11    0.15    0.09
   1  -4  11    0.17    0.06
   1   4  11    0.12    0.11
  -1   4 -11    0.32    0.12
   1   4  11    0.32    0.07
   2  -4  11   70.58    1.75
  -2  -4 -11   71.50    1.80
   2  -4  11   71.29    1.84
  -2   4 -11   71.06    1.86
   2   4  11   69.96    1.76
   2   4  11   68.38    1.84
   3  -4  11    8.35    0.38
   3  -4  11    8.31    0.30
  -3  -4 -11    8.51    0.31
   3   4  11    7.88    0.31
   3   4  11    7.48    0.36
  -3   4 -11    8.34    0.36
   4  -4  11    7.17    0.35
   4  -4  11    6.98    0.29
  -4   4 -11    6.80    0.33
   4   4  11    7.10    0.31
   4   4  11    6.87    0.34
   5  -4  11  114.62    2.77
   5  -4  11  112.14    2.81
  -5   4 -11  109.23    2.81
   5   4  11  108.78    2.77
   5   4  11  107.96    2.82
   6  -4  11   26.55    0.82
   6  -4  11   26.74    0.80
  -6   4 -11   26.56    0.81
   6   4  11   26.54    0.80
   6   4  11   26.66    0.84
   7  -4  11    0.43    0.14
   7  -4  11    0.36    0.15
   7   4  11    0.40    0.14
   7   4  11   -0.03    0.13
   8  -4  11    3.35    0.29
   8  -4  11    3.84    0.30
   8   4  11    3.55    0.30
   8   4  11    3.63    0.31
   9  -4  11   10.06    0.48
   9   4  11   10.01    0.48
   9   4  11   10.36    0.47
  10  -4  11    2.70    0.28
  10   4  11    2.91    0.30
  10   4  11    3.58    0.32
  11  -4  11    0.33    0.20
  11   4  11    0.10    0.21
  11   4  11    0.50    0.19
  12  -4  11    5.35    0.42
  12   4  11    4.82    0.43
  14  -5 -11    5.35    0.63
  13  -5 -11   -0.16    0.16
  12  -5 -11    9.38    0.51
  12   5 -11    9.20    0.49
  11  -5 -11   17.37    0.71
  11   5 -11   17.58    0.67
  10  -5 -11    9.94    0.50
  10   5 -11    9.31    0.47
  -9  -5  11    0.88    0.15
   9  -5 -11    1.05    0.20
   9   5 -11    1.10    0.20
   8  -5 -11    1.94    0.23
  -8  -5  11    1.62    0.18
   8   5 -11    1.55    0.22
   7  -5 -11   24.21    0.80
  -7  -5  11   24.12    0.73
   7   5 -11   22.84    0.78
   6  -5 -11   13.93    0.55
  -6  -5  11   14.39    0.49
  -6   5  11   14.27    0.45
   6   5 -11   13.61    0.53
   5  -5 -11    3.08    0.26
  -5  -5  11    2.76    0.23
   5   5 -11    2.82    0.24
  -5   5  11    2.94    0.20
   4  -5 -11    6.03    0.31
  -4  -5  11    5.79    0.31
  -4   5  11    6.14    0.28
   4   5 -11    6.11    0.32
   3  -5 -11   75.95    1.99
  -3  -5  11   77.57    1.97
  -3   5  11   74.74    1.93
  -2  -5  11    7.67    0.35
   2  -5 -11    7.29    0.32
  -2   5  11    7.17    0.31
  -1  -5  11   50.35    1.26
   1  -5 -11   50.96    1.35
  -1   5  11   48.27    1.33
   1   5 -11   50.69    1.39
   0  -5 -11   34.39    0.96
   0  -5  11   34.26    0.87
   0   5  11   34.54    0.96
   0   5 -11   33.85    1.00
  -1  -5 -11   15.23    0.49
   1  -5  11   16.20    0.54
   1  -5  11   14.68    0.43
  -1   5 -11   15.16    0.54
   1   5  11   15.09    0.44
   1   5  11   14.67    0.52
   2  -5  11   81.29    2.09
  -2  -5 -11   85.41    2.13
   2  -5  11   83.30    2.17
   2   5  11   85.57    2.18
  -2   5 -11   85.63    2.20
   2   5  11   84.63    2.10
   3  -5  11   20.03    0.60
   3  -5  11   20.90    0.67
   3   5  11   21.55    0.68
   3   5  11   21.33    0.61
  -3   5 -11   20.98    0.68
   4  -5  11   20.00    0.65
   4  -5  11   19.43    0.59
   4   5  11   19.37    0.65
  -4   5 -11   20.13    0.65
   4   5  11   18.74    0.60
   5  -5  11   10.75    0.44
   5  -5  11   10.99    0.40
  -5   5 -11   10.42    0.44
   5   5  11   10.59    0.41
   6  -5  11    6.34    0.32
   6  -5  11    7.05    0.35
   6   5  11    5.82    0.32
  -6   5 -11    7.16    0.34
   7  -5  11    0.99    0.18
   7  -5  11    0.94    0.16
   7   5  11    0.75    0.16
   7   5  11    0.73    0.16
   8  -5  11    0.81    0.18
   8  -5  11    0.99    0.18
   8   5  11    0.79    0.18
   8   5  11    0.75    0.18
   9  -5  11   11.58    0.52
   9   5  11   12.30    0.52
   9   5  11   12.03    0.54
  10  -5  11   18.46    0.71
  10   5  11   19.50    0.74
  10   5  11   20.64    0.73
  11  -5  11    8.71    0.50
  11   5  11    9.09    0.53
  11   5  11   10.32    0.50
  12  -5  11    1.98    0.28
  12   5  11    2.00    0.30
  13  -6 -11    3.41    0.36
  12  -6 -11    1.83    0.26
  11  -6 -11    1.96    0.27
  11   6 -11    2.03    0.24
 -10  -6  11    4.76    0.29
  10  -6 -11    4.74    0.37
  10   6 -11    4.48    0.33
   9  -6 -11    4.35    0.35
  -9  -6  11    4.00    0.26
   9   6 -11    4.19    0.32
  -8  -6  11    5.30    0.29
   8  -6 -11    5.10    0.35
   8   6 -11    4.47    0.33
  -7  -6  11   25.18    0.77
   7  -6 -11   25.66    0.84
   7   6 -11   25.38    0.83
  -6  -6  11    8.37    0.37
   6  -6 -11    8.25    0.40
   6   6 -11    8.20    0.41
   5  -6 -11   31.42    0.97
  -5  -6  11   31.12    0.92
   5   6 -11   32.88    0.98
  -5   6  11   32.47    0.88
   4  -6 -11   47.76    1.31
  -4  -6  11   44.88    1.26
  -4   6  11   46.99    1.23
   4   6 -11   46.51    1.32
  -3  -6  11   48.09    1.31
   3  -6 -11   47.70    1.33
  -3   6  11   48.52    1.28
   3   6 -11   49.07    1.36
  -2  -6  11    0.32    0.14
   2  -6 -11    0.23    0.11
  -2   6  11    0.51    0.12
   2   6 -11    0.12    0.10
  -1  -6  11   26.57    0.69
   1  -6 -11   25.84    0.78
  -1   6  11   25.80    0.77
   1   6 -11   26.81    0.83
   0  -6  11   27.22    0.83
   0  -6 -11   27.41    0.81
   0  -6  11   28.28    0.74
   0   6  11   29.17    0.78
   0   6  11   28.20    0.82
   0   6 -11   28.59    0.87
  -1  -6 -11   11.07    0.39
   1  -6  11   10.93    0.44
   1  -6  11   10.47    0.34
   1   6  11   10.93    0.43
   1   6  11   11.12    0.35
  -1   6 -11   11.19    0.44
   2  -6  11   23.71    0.66
   2  -6  11   23.36    0.74
  -2  -6 -11   24.18    0.69
  -2   6 -11   22.91    0.75
   2   6  11   24.26    0.67
   3  -6  11   31.49    0.88
   3  -6  11   31.25    0.93
  -3   6 -11   32.94    0.97
   3   6  11   33.12    0.89
   4  -6  11    0.37    0.10
   4  -6  11    0.45    0.15
  -4  -6 -11    0.45    0.15
   4   6  11    0.25    0.11
  -4   6 -11    0.35    0.13
  -5  -6 -11    4.59    0.30
   5  -6  11    4.64    0.29
   5  -6  11    4.39    0.25
   5   6  11    4.26    0.27
  -5   6 -11    4.04    0.28
   6  -6  11    8.53    0.38
  -6  -6 -11    9.27    0.42
   6  -6  11    8.82    0.41
   6   6  11    8.73    0.39
  -6   6 -11    9.17    0.42
   7  -6  11    1.43    0.18
  -7  -6 -11    2.11    0.23
   7  -6  11    1.97    0.21
   7   6  11    1.48    0.20
  -7   6 -11    2.03    0.21
   8  -6  11    3.07    0.28
   8  -6  11    3.35    0.31
   8   6  11    3.58    0.30
   9  -6  11    0.35    0.17
   9   6  11    0.22    0.17
  10  -6  11    7.13    0.43
  10   6  11    7.17    0.44
  10   6  11    7.53    0.43
  11  -6  11   10.55    0.53
  11   6  11    9.43    0.54
  11   6  11   10.14    0.51
  12  -6  11    0.86    0.27
  12   6  11    1.11    0.26
  12   6  11    0.44    0.24
  13  -7 -11    1.86    0.28
  12  -7 -11    0.17    0.19
  11  -7 -11   11.18    0.56
  11   7 -11   11.62    0.53
  10  -7 -11    6.86    0.43
 -10  -7  11    6.32    0.35
  10   7 -11    5.94    0.38
   9  -7 -11    2.25    0.25
  -9  -7  11    2.72    0.24
   9   7 -11    2.53    0.26
   8  -7 -11    0.99    0.19
  -8  -7  11    1.31    0.17
   8   7 -11    1.35    0.21
   7  -7 -11    2.43    0.24
  -7  -7  11    2.70    0.24
   7   7 -11    2.32    0.23
  -6  -7  11    5.48    0.31
   6  -7 -11    5.36    0.34
   6   7 -11    5.09    0.33
   5  -7 -11    3.33    0.26
  -5  -7  11    3.50    0.24
  -5   7  11    3.68    0.22
   5   7 -11    3.98    0.30
   4  -7 -11   13.39    0.51
  -4  -7  11   13.54    0.49
  -4   7  11   13.36    0.44
   4   7 -11   13.63    0.53
  -3  -7  11    6.25    0.33
   3  -7 -11    5.98    0.32
  -3   7  11    6.13    0.28
   3   7 -11    6.66    0.35
  -2  -7  11   38.02    0.99
  -2  -7  11   39.11    1.09
   2  -7 -11   38.40    1.09
  -2   7  11   37.90    1.05
   2   7 -11   38.13    1.12
   1  -7 -11   44.91    1.23
  -1  -7  11   44.08    1.14
  -1  -7  11   44.24    1.24
   1   7 -11   45.03    1.27
  -1   7  11   44.97    1.21
   0  -7  11    1.87    0.14
   0  -7  11    2.13    0.21
   0  -7 -11    2.01    0.20
   0   7  11    2.04    0.15
   0   7  11    1.87    0.18
   0   7 -11    2.08    0.22
   1  -7  11   28.40    0.84
   1  -7  11   27.53    0.76
  -1  -7 -11   26.68    0.80
   1   7  11   28.43    0.77
  -1   7 -11   29.55    0.89
   2  -7  11   27.91    0.85
  -2  -7 -11   27.71    0.79
   2  -7  11   27.85    0.77
  -2  -7 -11   28.69    0.84
  -2   7 -11   28.27    0.88
   2   7  11   27.29    0.78
   3  -7  11   14.29    0.51
  -3  -7 -11   13.74    0.50
   3  -7  11   13.55    0.44
  -3   7 -11   13.04    0.52
   3   7  11   13.22    0.45
   4  -7  11    3.69    0.27
  -4  -7 -11    3.90    0.26
   4  -7  11    3.54    0.22
  -4   7 -11    3.45    0.28
   4   7  11    3.40    0.23
  -5  -7 -11   11.96    0.48
   5  -7  11   11.85    0.43
   5  -7  11   11.81    0.47
  -5   7 -11   12.15    0.49
   5   7  11   11.53    0.45
  -6  -7 -11    5.94    0.35
   6  -7  11    6.09    0.31
   6  -7  11    5.54    0.33
  -6   7 -11    5.98    0.35
   6   7  11    5.60    0.32
   7  -7  11   16.09    0.58
  -7  -7 -11   15.68    0.59
   7  -7  11   15.69    0.57
   7   7  11   15.17    0.57
  -7   7 -11   15.24    0.59
   8  -7  11    0.99    0.19
  -8  -7 -11    1.00    0.19
   8   7  11    1.38    0.21
   9  -7  11   27.01    0.89
  -9  -7 -11   27.63    0.90
   9   7  11   27.16    0.90
  10  -7  11    0.20    0.17
  10   7  11    0.46    0.21
  11  -7  11   12.31    0.58
  11   7  11   12.93    0.58
  11   7  11   12.85    0.61
  12  -8 -11    4.09    0.40
  11  -8 -11    1.50    0.26
  11   8 -11    1.47    0.23
  10  -8 -11    2.32    0.27
 -10  -8  11    2.39    0.23
  10   8 -11    2.57    0.27
   9  -8 -11    1.17    0.21
  -9  -8  11    1.28    0.18
   9   8 -11    1.31    0.20
  -8  -8  11    0.84    0.16
   8  -8 -11    0.76    0.18
   8   8 -11    0.74    0.18
   7  -8 -11    5.35    0.36
  -7  -8  11    4.88    0.30
   7   8 -11    5.03    0.34
  -6  -8  11    5.81    0.31
   6  -8 -11    6.28    0.38
   6   8 -11    6.67    0.37
  -5  -8  11   80.10    2.09
   5  -8 -11   81.59    2.14
   5   8 -11   78.61    2.13
   4  -8 -11   28.51    0.88
  -4  -8  11   27.60    0.85
  -4   8  11   28.46    0.80
   4   8 -11   28.02    0.89
   3  -8 -11   18.63    0.63
  -3  -8  11   18.14    0.61
   3   8 -11   18.61    0.66
  -3   8  11   18.85    0.57
  -2  -8  11   19.90    0.58
  -2  -8  11   20.78    0.67
   2  -8 -11   19.33    0.65
  -2   8  11   20.56    0.63
   2   8 -11   21.54    0.70
  -1  -8  11    8.97    0.40
  -1  -8  11    8.95    0.31
   1  -8 -11    9.01    0.37
   1   8 -11    9.31    0.44
  -1   8  11    8.63    0.37
   0  -8  11  132.72    3.32
   0  -8  11  140.59    3.42
   0  -8 -11  132.09    3.38
   0   8  11  134.70    3.33
   0   8 -11  138.05    3.45
   1  -8  11   52.43    1.42
   1  -8  11   52.35    1.34
  -1  -8 -11   51.51    1.41
  -1  -8 -11   50.94    1.37
   1   8  11   51.83    1.35
  -1   8 -11   52.90    1.46
   2  -8  11    2.26    0.17
  -2  -8 -11    2.84    0.24
   2  -8  11    2.00    0.20
   2   8  11    2.61    0.18
  -2   8 -11    2.31    0.23
  -3  -8 -11   21.75    0.68
   3  -8  11   21.04    0.68
   3  -8  11   20.83    0.63
   3   8  11   20.22    0.63
  -3   8 -11   20.71    0.71
  -4  -8 -11   24.49    0.76
   4  -8  11   23.92    0.70
   4  -8  11   23.53    0.74
  -4   8 -11   22.90    0.77
   4   8  11   21.85    0.70
   5  -8  11    4.68    0.30
   5  -8  11    4.68    0.28
  -5  -8 -11    4.66    0.32
   5   8  11    4.52    0.29
  -5   8 -11    4.32    0.33
  -6  -8 -11   19.37    0.68
   6  -8  11   19.25    0.65
   6  -8  11   18.95    0.64
   6   8  11   19.47    0.66
  -6   8 -11   19.10    0.69
   7  -8  11    5.45    0.34
  -7  -8 -11    5.16    0.35
   7  -8  11    5.18    0.32
  -7   8 -11    5.58    0.36
   7   8  11    5.48    0.34
   8  -8  11    0.60    0.17
  -8  -8 -11    0.35    0.17
   8   8  11    0.66    0.18
   9  -8  11    0.86    0.20
  -9  -8 -11    1.20    0.21
   9   8  11    1.55    0.24
  10  -8  11    6.52    0.41
 -10  -8 -11    5.86    0.40
  10   8  11    5.22    0.43
  11  -8  11    0.39    0.21
  11   8  11    0.39    0.23
  12  -9 -11    1.21    0.25
  11  -9 -11    2.16    0.30
 -11  -9  11    2.71    0.25
 -10  -9  11    3.50    0.29
  10  -9 -11    3.99    0.37
  10   9 -11    3.13    0.30
  -9  -9  11    1.41    0.20
   9  -9 -11    1.56    0.24
   9   9 -11    1.00    0.19
  -8  -9  11    3.88    0.29
   8  -9 -11    4.09    0.32
   8   9 -11    4.31    0.32
   7  -9 -11    5.55    0.35
  -7  -9  11    4.91    0.31
   7   9 -11    5.65    0.35
  -6  -9  11    1.74    0.21
   6  -9 -11    1.66    0.22
   6   9 -11    2.06    0.23
  -5  -9  11   26.05    0.81
   5  -9 -11   25.91    0.84
   5   9 -11   25.36    0.85
  -4  -9  11   20.24    0.68
   4  -9 -11   20.29    0.70
   4   9 -11   20.89    0.72
  -4   9  11   20.79    0.62
   3  -9 -11    1.97    0.21
  -3  -9  11    1.80    0.19
  -3   9  11    2.51    0.21
   3   9 -11    2.00    0.23
   2  -9 -11   17.14    0.61
  -2  -9  11   18.07    0.54
  -2  -9  11   17.93    0.61
  -2   9  11   18.42    0.58
   2   9 -11   18.46    0.66
   1  -9 -11   35.16    1.02
  -1  -9  11   36.73    1.04
  -1  -9  11   35.65    0.96
   1   9 -11   35.49    1.07
   0  -9 -11   21.54    0.68
   0  -9  11   21.66    0.70
   0  -9 -11   21.99    0.68
   0  -9  11   20.98    0.62
   0   9  11   21.21    0.63
   0   9 -11   22.13    0.75
  -1  -9 -11   55.42    1.48
   1  -9  11   54.57    1.49
  -1  -9 -11   54.57    1.45
   1  -9  11   54.81    1.43
  -1   9 -11   55.87    1.55
   1   9  11   54.89    1.43
   2  -9  11    3.68    0.26
   2  -9  11    3.88    0.22
  -2  -9 -11    4.48    0.28
  -2   9 -11    3.70    0.30
   2   9  11    4.21    0.23
  -3  -9 -11   23.13    0.74
   3  -9  11   22.95    0.68
   3  -9  11   22.00    0.72
  -3   9 -11   22.81    0.77
   3   9  11   22.73    0.69
   4  -9  11   15.68    0.53
  -4  -9 -11   15.75    0.58
   4  -9  11   15.44    0.57
   4   9  11   15.12    0.53
  -4   9 -11   16.33    0.61
   5  -9  11    7.47    0.37
  -5  -9 -11    7.22    0.37
   5  -9  11    7.92    0.36
   5   9  11    8.16    0.37
  -5   9 -11    8.09    0.42
   6  -9  11    9.34    0.42
  -6  -9 -11    9.57    0.45
   6  -9  11    9.42    0.43
   6   9  11    9.71    0.44
  -6   9 -11    9.99    0.47
  -7  -9 -11   39.74    1.19
   7  -9  11   40.11    1.16
  -7   9 -11   39.95    1.20
   7   9  11   39.32    1.18
   8  -9  11    0.03    0.15
  -8  -9 -11    0.17    0.15
  -8   9 -11    0.32    0.17
   8   9  11    0.65    0.19
  -9  -9 -11   12.75    0.56
   9  -9  11   13.14    0.56
   9   9  11   13.01    0.59
 -10  -9 -11    5.30    0.39
  10  -9  11    4.71    0.38
  10   9  11    4.57    0.40
  11  -9  11    8.99    0.50
  11   9  11    7.98    0.51
  12 -10 -11    5.71    0.54
  11 -10 -11    6.85    0.47
 -11 -10  11    6.67    0.39
 -10 -10  11    2.04    0.24
  10 -10 -11    1.77    0.27
  10  10 -11    1.78    0.23
   9 -10 -11   19.47    0.74
  -9 -10  11   17.83    0.65
   9  10 -11   17.83    0.69
  -8 -10  11   11.24    0.48
   8 -10 -11   11.17    0.52
   8  10 -11   10.58    0.50
  -7 -10  11    1.62    0.20
   7 -10 -11    1.94    0.25
   7  10 -11    1.75    0.23
  -6 -10  11   14.82    0.56
   6 -10 -11   15.92    0.61
   6  10 -11   16.42    0.62
  -5 -10  11    6.85    0.36
   5 -10 -11    6.31    0.38
   5  10 -11    6.17    0.38
   4 -10 -11   25.84    0.84
  -4 -10  11   27.18    0.83
  -4  10  11   26.17    0.76
   4  10 -11   26.39    0.87
  -3 -10  11    5.95    0.27
  -3 -10  11    5.90    0.32
   3 -10 -11    5.94    0.34
   3  10 -11    5.80    0.37
  -3  10  11    5.66    0.28
  -2 -10  11   14.80    0.54
   2 -10 -11   14.12    0.53
  -2 -10  11   14.74    0.47
   2  10 -11   13.74    0.56
  -2  10  11   14.66    0.50
   1 -10 -11   11.65    0.45
  -1 -10  11   10.85    0.46
   1 -10 -11   11.89    0.44
  -1 -10  11   11.71    0.40
   1  10 -11   12.43    0.51
   0 -10 -11    8.84    0.37
   0 -10 -11    8.96    0.38
   0 -10  11    8.82    0.39
   0 -10  11    8.54    0.33
   0  10 -11    8.58    0.44
   0  10  11    8.20    0.32
  -1 -10 -11    1.89    0.20
   1 -10  11    1.32    0.17
   1 -10  11    1.47    0.14
  -1 -10 -11    1.79    0.20
   1  10  11    1.95    0.17
  -1  10 -11    2.09    0.24
  -2 -10 -11    5.07    0.30
   2 -10  11    5.23    0.31
   2 -10  11    4.51    0.25
  -2  10 -11    4.79    0.35
   2  10  11    4.88    0.26
   3 -10  11    1.73    0.20
  -3 -10 -11    1.95    0.20
   3 -10  11    2.34    0.20
   3  10  11    2.21    0.20
  -3  10 -11    1.74    0.22
   4 -10  11    3.26    0.24
   4 -10  11    2.72    0.25
  -4 -10 -11    3.17    0.28
   4  10  11    3.26    0.24
  -4  10 -11    3.31    0.30
   5 -10  11   12.67    0.50
   5 -10  11   12.67    0.48
  -5 -10 -11   12.54    0.51
   5  10  11   12.72    0.50
  -5  10 -11   13.34    0.56
  -6 -10 -11    7.27    0.40
   6 -10  11    7.12    0.38
   6 -10  11    7.24    0.37
  -6  10 -11    7.63    0.42
   6  10  11    6.73    0.38
   7 -10  11   19.38    0.69
  -7 -10 -11   19.84    0.72
  -7  10 -11   20.01    0.74
   7  10  11   19.03    0.70
  -8 -10 -11    1.43    0.23
   8 -10  11    1.27    0.21
  -8  10 -11    1.58    0.24
   8  10  11    1.50    0.24
  -9 -10 -11    4.57    0.37
   9 -10  11    4.89    0.36
   9  10  11    4.08    0.37
 -10 -10 -11    6.33    0.42
  10 -10  11    6.36    0.43
  10  10  11    6.81    0.45
  11  10  11    1.90    0.34
  11 -11 -11    6.16    0.46
 -11 -11  11    6.16    0.38
  10 -11 -11    0.22    0.19
 -10 -11  11    0.18    0.15
  -9 -11  11    0.77    0.19
   9 -11 -11    0.54    0.21
   9  11 -11    0.56    0.18
   8 -11 -11    5.88    0.41
  -8 -11  11    5.44    0.36
   8  11 -11    6.19    0.40
  -7 -11  11    4.05    0.31
   7 -11 -11    4.53    0.36
   7  11 -11    4.50    0.34
   6 -11 -11    1.32    0.22
  -6 -11  11    1.29    0.20
   6  11 -11    1.27    0.21
   5 -11 -11   39.60    1.18
  -5 -11  11   37.63    1.12
   5  11 -11   38.72    1.18
  -4 -11  11    3.40    0.29
   4 -11 -11    3.05    0.28
   4  11 -11    3.17    0.28
   3 -11 -11   15.46    0.58
  -3 -11  11   15.84    0.58
  -3 -11  11   15.40    0.51
   3  11 -11   16.03    0.62
  -3  11  11   16.10    0.52
  -2 -11  11   19.56    0.67
  -2 -11  11   19.49    0.60
   2 -11 -11   19.29    0.66
   2  11 -11   19.15    0.71
   1 -11 -11   21.96    0.70
  -1 -11  11   21.35    0.71
   1 -11 -11   21.39    0.68
  -1 -11  11   21.63    0.66
   1  11 -11   22.92    0.78
   0 -11  11    7.98    0.39
   0 -11 -11    7.88    0.36
   0 -11 -11    7.58    0.36
   0 -11  11    8.38    0.33
   0  11 -11    7.98    0.41
   1 -11  11    3.26    0.27
  -1 -11 -11    3.14    0.26
   1 -11  11    2.83    0.21
  -1  11 -11    2.95    0.28
   1  11  11    3.20    0.22
   2 -11  11    4.38    0.25
  -2 -11 -11    4.65    0.30
   2 -11  11    4.52    0.30
  -2  11 -11    4.96    0.36
   2  11  11    4.73    0.26
  -3 -11 -11    3.05    0.27
   3 -11  11    3.07    0.22
   3 -11  11    3.10    0.28
  -3  11 -11    3.38    0.32
   3  11  11    2.84    0.23
   4 -11  11    1.28    0.20
  -4 -11 -11    1.33    0.20
   4 -11  11    1.51    0.18
   4  11  11    1.49    0.18
  -4  11 -11    1.50    0.23
  -5 -11 -11    4.31    0.32
   5 -11  11    3.70    0.29
   5 -11  11    3.61    0.28
   5  11  11    3.48    0.27
  -5  11 -11    3.74    0.33
  -6 -11 -11   11.85    0.51
   6 -11  11   12.61    0.51
   6 -11  11   13.11    0.53
   6  11  11   12.15    0.51
  -6  11 -11   12.13    0.56
   7 -11  11    3.09    0.29
  -7 -11 -11    2.39    0.26
   7  11  11    2.56    0.26
  -7  11 -11    3.40    0.32
   8 -11  11    2.59    0.27
  -8 -11 -11    2.84    0.28
   8  11  11    2.94    0.30
  -8  11 -11    2.63    0.29
  -9 -11 -11    3.70    0.34
   9 -11  11    3.71    0.33
   9  11  11    3.43    0.33
  10 -11  11    7.07    0.45
  10  11  11    6.27    0.45
 -11 -12  11    4.24    0.37
 -10 -12  11    0.33    0.17
  10 -12 -11    0.28    0.19
   9 -12 -11   -0.11    0.16
  -9 -12  11   -0.15    0.14
   9  12 -11   -0.11    0.15
  -8 -12  11    3.22    0.30
   8 -12 -11    2.96    0.31
   8  12 -11    2.88    0.29
  -7 -12  11    0.59    0.18
   7 -12 -11    0.32    0.18
   7  12 -11    0.37    0.17
  -6 -12  11    6.19    0.37
   6 -12 -11    6.16    0.40
   6  12 -11    6.61    0.40
   5 -12 -11    0.27    0.16
  -5 -12  11    0.29    0.16
   5  12 -11    0.10    0.15
  -4 -12  11   12.44    0.52
   4 -12 -11   12.39    0.53
   4  12 -11   13.11    0.56
  -3 -12  11    8.78    0.36
   3 -12 -11    9.06    0.43
  -3 -12  11    8.21    0.41
  -3  12  11    8.55    0.36
   3  12 -11    9.33    0.47
   2 -12 -11    0.14    0.13
  -2 -12  11   -0.02    0.09
  -2 -12  11   -0.04    0.14
   2 -12 -11   -0.23    0.10
   2  12 -11    0.01    0.14
   1 -12 -11    0.02    0.12
  -1 -12  11    0.03    0.14
  -1 -12  11    0.06    0.10
   1 -12 -11    0.29    0.13
   1  12 -11   -0.07    0.15
   0 -12  11   19.04    0.65
   0 -12 -11   18.84    0.62
   0 -12 -11   18.74    0.63
   0 -12  11   18.40    0.59
   0  12 -11   18.19    0.69
  -1 -12 -11    2.48    0.22
   1 -12  11    2.62    0.24
   1 -12  11    2.44    0.21
   1  12  11    2.83    0.21
  -1  12 -11    2.76    0.28
   2 -12  11    2.23    0.23
   2 -12  11    2.37    0.21
  -2 -12 -11    2.49    0.23
  -2  12 -11    1.98    0.25
   2  12  11    2.64    0.22
  -3 -12 -11    8.14    0.41
   3 -12  11    8.54    0.40
   3 -12  11    7.99    0.36
   3  12  11    8.32    0.37
  -3  12 -11    8.40    0.46
   4 -12  11    9.71    0.42
   4 -12  11    9.16    0.43
  -4 -12 -11    9.84    0.45
   4  12  11    9.37    0.42
  -4  12 -11   10.02    0.50
  -5 -12 -11   30.87    0.97
   5 -12  11   30.53    0.93
   5 -12  11   30.10    0.92
   5  12  11   30.50    0.94
  -5  12 -11   30.39    1.01
   6 -12  11    5.74    0.36
  -6 -12 -11    5.60    0.37
  -6  12 -11    6.00    0.41
   6  12  11    5.52    0.35
   7 -12  11    7.78    0.42
  -7 -12 -11    7.16    0.41
   7  12  11    7.75    0.44
  -7  12 -11    8.36    0.47
  -8 -12 -11    0.66    0.20
   8 -12  11    0.77    0.20
   8  12  11    0.69    0.20
  -8  12 -11    0.69    0.22
   9 -12  11   21.33    0.79
  -9 -12 -11   22.77    0.82
   9  12  11   20.17    0.80
  10 -12  11    2.76    0.31
  10  12  11    3.21    0.34
 -11 -13  11    8.79    0.49
  10 -13 -11    2.36    0.30
 -10 -13  11    2.55    0.27
   9 -13 -11    4.58    0.41
  -9 -13  11    4.98    0.37
   9  13 -11    4.91    0.37
  -8 -13  11    2.35    0.26
   8 -13 -11    2.32    0.30
   8  13 -11    2.50    0.28
   7 -13 -11    2.41    0.29
  -7 -13  11    2.07    0.25
   7  13 -11    2.22    0.27
   6 -13 -11    3.42    0.33
  -6 -13  11    3.22    0.30
   6  13 -11    3.06    0.30
  -5 -13  11    0.44    0.16
   5 -13 -11    0.67    0.18
   5  13 -11    0.59    0.19
  -4 -13  11    0.49    0.16
   4 -13 -11    0.66    0.17
   4  13 -11    0.55    0.19
  -3 -13  11    4.28    0.26
   3 -13 -11    4.19    0.31
  -3 -13  11    4.10    0.32
   3  13 -11    4.33    0.36
  -2 -13  11    5.69    0.35
   2 -13 -11    5.77    0.34
  -2 -13  11    5.75    0.29
   2 -13 -11    5.68    0.31
   2  13 -11    5.72    0.39
  -1 -13  11   10.58    0.42
   1 -13 -11   11.01    0.46
   1 -13 -11   11.02    0.43
  -1 -13  11   10.27    0.47
   1  13 -11   10.77    0.52
   0 -13  11    2.66    0.25
   0 -13  11    2.79    0.22
   0 -13 -11    2.75    0.25
   0  13 -11    2.62    0.28
  -1 -13 -11    6.89    0.35
   1 -13  11    6.30    0.32
   1 -13  11    6.66    0.36
  -1  13 -11    6.99    0.43
   1  13  11    6.25    0.31
  -2 -13 -11   19.13    0.67
   2 -13  11   19.24    0.68
   2 -13  11   19.92    0.64
   2  13  11   19.43    0.65
  -2  13 -11   20.41    0.76
   3 -13  11    1.75    0.21
  -3 -13 -11    2.01    0.22
   3 -13  11    1.83    0.19
   3  13  11    1.98    0.20
  -3  13 -11    1.83    0.25
   4 -13  11    6.65    0.35
   4 -13  11    6.22    0.37
  -4 -13 -11    6.42    0.38
   4  13  11    6.32    0.35
  -4  13 -11    6.09    0.42
   5 -13  11    2.93    0.26
  -5 -13 -11    2.53    0.27
   5 -13  11    2.64    0.24
   5  13  11    2.39    0.24
  -5  13 -11    2.36    0.28
  -6 -13 -11    4.73    0.34
   6 -13  11    5.19    0.34
   6  13  11    5.56    0.37
  -6  13 -11    4.38    0.39
  -7 -13 -11    1.31    0.23
   7 -13  11    1.05    0.20
   7  13  11    1.28    0.22
  -7  13 -11    1.40    0.25
  -8 -13 -11   24.94    0.88
   8 -13  11   25.49    0.87
   8  13  11   24.43    0.88
  -8  13 -11   25.81    0.93
   9 -13  11    2.41    0.28
   9  13  11    2.41    0.31
  -9  13 -11    2.46    0.34
 -10 -14  11    1.95    0.26
   9 -14 -11    0.93    0.25
  -9 -14  11    1.21    0.23
  -8 -14  11    4.81    0.37
   8 -14 -11    4.84    0.41
   8  14 -11    5.46    0.39
  -7 -14  11   10.19    0.50
   7 -14 -11   10.09    0.54
   7  14 -11    9.87    0.51
  -6 -14  11    1.66    0.24
   6 -14 -11    1.57    0.25
   6  14 -11    1.62    0.25
   5 -14 -11    6.11    0.40
  -5 -14  11    5.82    0.38
   5  14 -11    5.88    0.40
  -4 -14  11    4.95    0.35
   4 -14 -11    4.96    0.36
   4  14 -11    4.53    0.38
  -3 -14  11   10.55    0.42
  -3 -14  11    9.82    0.47
   3 -14 -11    9.76    0.48
   3  14 -11    9.84    0.51
   2 -14 -11    3.29    0.28
   2 -14 -11    2.75    0.25
  -2 -14  11    2.60    0.25
  -2 -14  11    3.05    0.24
   2  14 -11    3.16    0.30
  -1 -14  11    0.80    0.18
   1 -14 -11    0.99    0.17
  -1 -14  11    1.23    0.16
   1 -14 -11    0.69    0.16
   1  14 -11    1.18    0.23
   0 -14  11    6.69    0.33
   0 -14 -11    6.91    0.35
   0 -14  11    6.72    0.38
   0  14 -11    6.76    0.43
  -1 -14 -11    4.44    0.30
   1 -14  11    3.95    0.31
   1 -14  11    3.89    0.26
   1  14  11    4.73    0.33
  -1  14 -11    4.49    0.38
   2 -14  11    5.19    0.30
   2 -14  11    4.96    0.33
  -2 -14 -11    5.18    0.34
  -2  14 -11    5.16    0.38
   2  14  11    5.60    0.32
  -3 -14 -11    1.49    0.21
   3 -14  11    1.70    0.21
   3 -14  11    1.41    0.19
  -3  14 -11    1.34    0.24
   3  14  11    1.34    0.19
  -4 -14 -11   16.84    0.63
   4 -14  11   16.18    0.60
   4 -14  11   15.80    0.60
   4  14  11   15.71    0.60
  -4  14 -11   16.25    0.69
   5 -14  11    0.43    0.16
  -5 -14 -11    0.14    0.17
  -5  14 -11    0.29    0.20
   5  14  11    0.56    0.16
   6 -14  11    7.39    0.42
  -6 -14 -11    7.18    0.42
  -6  14 -11    6.77    0.46
   6  14  11    6.38    0.39
   7 -14  11    2.24    0.26
  -7 -14 -11    2.47    0.28
  -7  14 -11    2.41    0.31
   7  14  11    3.11    0.30
   8 -14  11    0.05    0.17
   8  14  11    0.07    0.18
  -8  14 -11    0.05    0.19
   9 -14  11    1.57    0.29
   9  14  11    1.53    0.41
  -9  14 -11    1.46    0.32
  -9 -15  11    0.32    0.19
   9 -15 -11    0.37    0.35
   8 -15 -11    1.14    0.26
  -8 -15  11    1.03    0.22
   8  15 -11    0.73    0.22
   7 -15 -11    3.21    0.34
  -7 -15  11    3.77    0.34
   7  15 -11    3.48    0.33
   6 -15 -11    7.09    0.45
  -6 -15  11    6.39    0.41
   6  15 -11    6.37    0.43
  -5 -15  11    2.71    0.28
   5 -15 -11    3.35    0.32
   5  15 -11    2.79    0.30
  -4 -15  11   15.16    0.62
   4 -15 -11   15.90    0.64
   4  15 -11   15.23    0.66
  -3 -15  11    4.50    0.34
  -3 -15  11    4.63    0.30
   3 -15 -11    4.80    0.37
   3  15 -11    4.83    0.40
  -2 -15  11    3.34    0.27
   2 -15 -11    3.18    0.30
  -2 -15  11    3.39    0.31
   2  15 -11    2.70    0.30
  -1 -15  11   13.20    0.51
  -1 -15  11   13.32    0.55
   1 -15 -11   13.63    0.51
   1  15 -11   13.15    0.61
   0 -15 -11    1.37    0.19
   0 -15  11    1.39    0.21
   0 -15  11    1.05    0.16
   0  15 -11    1.11    0.22
   1 -15  11    9.58    0.42
   1 -15  11    9.19    0.44
  -1 -15 -11    9.09    0.43
  -1  15 -11    9.90    0.51
   2 -15  11    2.77    0.27
  -2 -15 -11    2.53    0.25
   2 -15  11    3.30    0.26
  -2  15 -11    2.54    0.31
   2  15  11    3.22    0.32
  -3 -15 -11    0.60    0.17
   3 -15  11    0.72    0.17
   3 -15  11    0.66    0.18
  -3  15 -11    0.73    0.20
   3  15  11    0.60    0.18
   4 -15  11    6.28    0.37
   4 -15  11    6.65    0.39
  -4 -15 -11    6.52    0.41
   4  15  11    6.85    0.41
  -4  15 -11    7.03    0.46
  -5 -15 -11    4.44    0.35
   5 -15  11    3.93    0.32
   5  15  11    4.12    0.34
  -5  15 -11    3.87    0.38
   6 -15  11    2.39    0.26
  -6 -15 -11    2.25    0.28
  -6  15 -11    1.89    0.29
   6  15  11    2.29    0.29
   7 -15  11    2.17    0.27
  -7 -15 -11    2.38    0.32
   7  15  11    2.70    0.38
  -7  15 -11    3.04    0.35
   8 -15  11    2.28    0.28
  -8 -16  11    6.14    0.43
   8 -16 -11    5.77    0.47
  -7 -16  11    7.83    0.46
   7 -16 -11    7.04    0.48
   7  16 -11    7.36    0.46
  -6 -16  11    7.20    0.44
   6 -16 -11    7.94    0.49
   6  16 -11    7.72    0.47
   5 -16 -11    7.14    0.45
  -5 -16  11    7.15    0.44
   5  16 -11    7.33    0.46
  -4 -16  11    7.96    0.45
   4 -16 -11    8.61    0.47
   4  16 -11    7.79    0.48
  -3 -16  11    8.67    0.46
   3 -16 -11    7.58    0.44
  -3 -16  11    8.86    0.47
   3  16 -11    7.97    0.49
   2 -16 -11    1.15    0.21
  -2 -16  11    1.06    0.18
  -2 -16  11    0.96    0.20
   2  16 -11    1.11    0.23
   1 -16 -11    1.45    0.20
  -1 -16  11    1.84    0.20
  -1 -16  11    1.70    0.23
   1  16 -11    1.41    0.24
   0 -16 -11    9.26    0.44
   0 -16  11    9.42    0.46
   0 -16  11    8.71    0.42
   0  16 -11    8.88    0.52
  -1 -16 -11    2.10    0.23
   1 -16  11    2.23    0.22
   1 -16  11    1.87    0.24
  -1  16 -11    2.02    0.29
   2 -16  11   10.11    0.45
  -2 -16 -11    9.34    0.46
   2 -16  11    9.48    0.46
  -2  16 -11    9.53    0.55
   3 -16  11    3.92    0.33
  -3 -16 -11    4.28    0.34
   3 -16  11    3.91    0.31
  -3  16 -11    4.07    0.38
  -4 -16 -11    4.66    0.36
   4 -16  11    4.02    0.33
  -4  16 -11    4.57    0.39
  -5 -16 -11    1.17    0.22
   5 -16  11    1.01    0.20
  -5  16 -11    0.93    0.25
  -6 -16 -11   21.67    0.80
   6 -16  11   18.98    0.74
  -6  16 -11   20.26    0.84
   7 -16  11    0.86    0.22
   7 -17 -11    3.60    0.37
  -7 -17  11    3.52    0.39
   7  17 -11    3.22    0.34
  -6 -17  11    5.07    0.40
   6 -17 -11    4.71    0.42
   6  17 -11    5.27    0.42
  -5 -17  11    3.15    0.31
   5 -17 -11    2.70    0.31
   5  17 -11    2.58    0.31
   4 -17 -11    2.59    0.30
  -4 -17  11    2.11    0.27
   4  17 -11    3.02    0.33
   3 -17 -11    1.82    0.25
  -3 -17  11    1.50    0.24
   3  17 -11    1.57    0.27
  -2 -17  11    2.52    0.28
   2 -17 -11    2.78    0.42
  -2 -17  11    2.75    0.28
   2  17 -11    2.36    0.32
  -1 -17  11    4.13    0.30
  -1 -17  11    3.47    0.33
   1  17 -11    3.98    0.38
   0 -17  11    5.43    0.39
   0 -17  11    5.47    0.34
   0 -17 -11    5.89    0.36
   0  17 -11    5.74    0.45
  -1 -17 -11   32.75    1.02
   1 -17  11   32.28    1.01
   1 -17  11   32.59    1.03
  -1  17 -11   32.37    1.12
  -2 -17 -11   10.70    0.51
   2 -17  11   11.35    0.50
   2 -17  11   10.83    0.50
  -2  17 -11   11.15    0.60
   3 -17  11    0.69    0.19
  -3 -17 -11    0.63    0.20
   3 -17  11    0.71    0.19
  -3  17 -11    0.34    0.22
  -4 -17 -11    3.78    0.34
   4 -17  11    2.63    0.27
  -4  17 -11    2.63    0.35
   5 -17  11    3.85    0.34
  -5 -17 -11    3.57    0.34
  -5  17 -11    3.78    0.40
   6 -17  11    4.24    0.37
   6 -18 -11    3.88    0.38
   6  18 -11    4.27    0.41
   5 -18 -11    2.96    0.34
  -5 -18  11    1.84    0.27
   5  18 -11    3.01    0.34
  -4 -18  11    1.71    0.26
   4 -18 -11    2.28    0.29
   4  18 -11    1.86    0.28
   3 -18 -11    9.89    0.52
  -3 -18  11   10.02    0.52
   3  18 -11    9.82    0.56
  -2 -18  11    7.33    0.45
   2  18 -11    7.75    0.51
  -1 -18  11    4.42    0.36
  -1 -18  11    4.17    0.36
   1  18 -11    3.89    0.38
   0 -18  11    5.90    0.39
   0 -18 -11    6.37    0.39
   0 -18  11    6.02    0.40
   0  18 -11    6.13    0.47
   1 -18  11   10.40    0.51
   1 -18  11   10.51    0.49
  -1 -18 -11   11.15    0.51
  -1  18 -11    9.94    0.56
  -2 -18 -11    8.74    0.46
   2 -18  11    8.62    0.45
   2 -18  11    8.59    0.46
  -2  18 -11    9.06    0.54
  -3 -18 -11   11.92    0.57
   3 -18  11   13.26    0.56
  -3  18 -11   13.55    0.68
   4 -18  11    6.38    0.41
  -4 -18 -11    6.15    0.44
   5 -18  11    5.42    0.42
   6  19 -11    5.04    0.44
   5 -19 -11    4.20    0.40
   5  19 -11    3.42    0.36
   4 -19 -11    1.56    0.28
   4  19 -11    1.75    0.30
  -3 -19  11    2.20    0.29
   3  19 -11    2.60    0.33
  -2 -19  11   14.07    0.63
   2  19 -11   14.10    0.69
  -1 -19  11    7.47    0.45
   1  19 -11    6.75    0.51
   0 -19  11    8.15    0.53
   0 -19  11    8.23    0.46
   0  19 -11    7.59    0.50
   1 -19  11   -0.07    0.16
   1 -19  11    0.20    0.17
  -1 -19 -11    0.17    0.17
  -1  19 -11    0.16    0.26
   2 -19  11    2.05    0.27
   2 -19  11    1.52    0.24
  -2 -19 -11    1.43    0.24
  -3 -19 -11    2.13    0.32
   3 -19  11    2.22    0.27
   4 -19  11    3.47    0.33
   4 -20 -11    4.07    0.42
   0 -20  11    1.90    0.32
  -1 -20 -11    7.18    0.46
   1 -20  11    6.12    0.42
  14   0 -12    0.19    0.20
  13   0 -12   14.43    0.66
  12   0 -12    0.50    0.20
  11   0 -12   17.14    0.69
  10   0 -12    0.58    0.19
   9   0 -12   15.67    0.62
   8   0 -12    3.98    0.31
  -8   0  12    3.89    0.29
  -7   0  12    2.74    0.20
   7   0 -12    3.00    0.26
  -6   0  12    1.20    0.15
   6   0 -12    0.94    0.17
  -5   0  12    2.63    0.23
   5   0 -12    2.73    0.25
  -4   0  12    3.99    0.25
   4   0 -12    4.31    0.28
   3   0 -12    9.33    0.39
  -3   0  12    9.40    0.38
   2   0 -12   35.74    1.04
  -2   0  12   36.01    1.01
   1   0 -12   13.97    0.50
  -1   0  12   14.26    0.49
   0   0  12    2.46    0.21
   0   0 -12    2.47    0.21
   1   0  12    0.37    0.13
  -1   0 -12    0.49    0.12
   2   0  12   34.39    1.01
  -2   0 -12   36.03    1.00
  -3   0 -12    3.10    0.21
   3   0  12    3.13    0.27
   4   0  12    3.60    0.28
  -4   0 -12    3.87    0.23
   5   0  12    3.40    0.28
   5   0  12    3.50    0.27
   6   0  12    0.37    0.16
   6   0  12    0.15    0.12
   7   0  12   29.12    0.88
   7   0  12   29.03    0.91
   8   0  12   12.52    0.51
   8   0  12   12.93    0.53
   9   0  12    0.14    0.16
   9   0  12   -0.20    0.15
  10   0  12    1.25    0.24
  10   0  12    2.06    0.25
  14  -1 -12    1.63    0.28
  13  -1 -12    4.75    0.41
  13   1 -12    4.59    0.39
  12  -1 -12    0.25    0.18
  12   1 -12    0.05    0.17
  11  -1 -12    0.63    0.20
  11   1 -12    0.17    0.17
  10  -1 -12    7.75    0.44
  10   1 -12    8.25    0.44
   9  -1 -12    3.19    0.29
   9   1 -12    3.16    0.30
  -8  -1  12   11.85    0.42
   8  -1 -12   12.04    0.52
   8   1 -12   11.11    0.50
  -7  -1  12    1.49    0.15
   7  -1 -12    1.52    0.21
  -7   1  12    1.57    0.15
   7   1 -12    0.96    0.18
   6  -1 -12   27.08    0.86
  -6  -1  12   26.98    0.79
   6   1 -12   26.84    0.86
  -6   1  12   27.68    0.78
   5  -1 -12    4.75    0.30
  -5  -1  12    4.46    0.26
   5   1 -12    4.22    0.29
  -5   1  12    4.30    0.25
   4  -1 -12    7.02    0.35
  -4  -1  12    6.25    0.31
   4   1 -12    6.29    0.33
  -4   1  12    6.46    0.30
  -3  -1  12   15.08    0.52
   3  -1 -12   15.44    0.55
  -3   1  12   15.97    0.52
   3   1 -12   16.05    0.56
   2  -1 -12   65.38    1.73
  -2  -1  12   63.77    1.70
   2   1 -12   64.45    1.73
  -2   1  12   65.88    1.69
  -1  -1  12    1.92    0.19
   1  -1 -12    2.28    0.21
  -1   1  12    1.89    0.19
   1   1 -12    1.48    0.17
   0  -1 -12   12.76    0.46
   0  -1  12   12.27    0.47
   0   1  12   12.93    0.46
   0   1 -12   12.43    0.46
  -1  -1 -12   10.32    0.39
  -1   1 -12   10.01    0.40
   1   1  12    9.73    0.40
   2  -1  12   31.92    0.90
  -2  -1 -12   31.46    0.87
  -2   1 -12   30.49    0.88
   2   1  12   27.66    0.88
   3  -1  12   14.36    0.52
  -3  -1 -12   14.52    0.48
  -3   1 -12   13.45    0.48
   3   1  12   14.00    0.52
  -4  -1 -12   20.70    0.66
   4  -1  12   20.31    0.67
  -4   1 -12   19.77    0.63
   4   1  12   20.54    0.68
   5  -1  12    8.81    0.42
   5  -1  12    9.56    0.41
   5   1  12   10.35    0.50
   5   1  12    9.68    0.43
   6  -1  12   10.85    0.41
   6  -1  12   10.60    0.45
   6   1  12   10.02    0.45
   6   1  12   10.01    0.42
   7  -1  12    9.66    0.42
   7  -1  12   10.33    0.45
   7   1  12    9.96    0.43
   7   1  12    9.41    0.45
   8  -1  12    7.63    0.38
   8  -1  12    7.85    0.39
   8   1  12    7.07    0.40
   8   1  12    6.76    0.38
   9  -1  12    1.30    0.21
   9  -1  12    1.75    0.22
   9   1  12    2.37    0.26
   9   1  12    1.88    0.24
  10  -1  12    1.54    0.24
  10   1  12    1.99    0.30
  10   1  12    2.28    0.26
  11  -1  12    1.86    0.42
  14  -2 -12   -0.08    0.19
  13  -2 -12    4.88    0.41
  13   2 -12    6.06    0.43
  12  -2 -12    7.10    0.46
  12   2 -12    6.60    0.43
  11  -2 -12    6.89    0.43
  11   2 -12    6.54    0.42
  10  -2 -12    5.29    0.38
  10   2 -12    5.63    0.38
   9  -2 -12   -0.08    0.15
   9   2 -12    0.18    0.15
   8  -2 -12    0.02    0.15
  -8  -2  12    0.05    0.11
   8   2 -12   -0.16    0.13
  -7  -2  12    1.48    0.16
   7  -2 -12    1.68    0.21
  -7   2  12    1.90    0.16
   7   2 -12    1.54    0.21
   6  -2 -12   20.59    0.69
  -6  -2  12   20.22    0.63
  -6   2  12   19.35    0.60
   6   2 -12   19.29    0.68
  -5  -2  12    7.87    0.35
   5  -2 -12    8.22    0.39
  -5   2  12    7.41    0.33
   5   2 -12    8.79    0.40
  -4  -2  12   50.32    1.34
   4  -2 -12   50.66    1.39
  -4   2  12   50.25    1.32
   4   2 -12   48.03    1.38
  -3  -2  12   17.30    0.58
   3  -2 -12   17.05    0.59
   3   2 -12   17.88    0.61
  -3   2  12   17.17    0.56
  -2  -2  12   39.30    1.10
   2  -2 -12   39.47    1.12
  -2   2  12   39.33    1.08
   2   2 -12   39.15    1.13
   1  -2 -12   78.13    2.01
  -1  -2  12   78.45    2.00
  -1   2  12   75.95    1.99
   1   2 -12   76.56    2.02
   0  -2 -12   81.79    2.10
   0   2 -12   81.98    2.12
   0   2  12   81.30    2.10
  -1  -2 -12    1.66    0.16
   1   2  12    1.50    0.17
  -1   2 -12    1.71    0.18
  -2  -2 -12   42.11    1.15
   2  -2  12   43.34    1.19
  -2   2 -12   42.97    1.18
   2   2  12   41.46    1.18
   3  -2  12    2.12    0.22
  -3  -2 -12    2.40    0.18
   3   2  12    2.23    0.22
  -3   2 -12    1.98    0.20
   4  -2  12    2.22    0.22
  -4   2 -12    2.17    0.20
   4   2  12    1.94    0.20
   5  -2  12    5.15    0.30
   5  -2  12    4.91    0.30
   5   2  12    5.32    0.33
  -5   2 -12    5.45    0.28
   6  -2  12   14.61    0.51
   6  -2  12   14.74    0.55
   6   2  12   14.53    0.56
   6   2  12   14.90    0.54
   7  -2  12   22.92    0.75
   7  -2  12   22.73    0.72
   7   2  12   22.21    0.75
   7   2  12   21.88    0.73
   8  -2  12    4.16    0.31
   8  -2  12    3.90    0.31
   8   2  12    4.69    0.33
   8   2  12    3.87    0.30
   9  -2  12    2.83    0.26
   9  -2  12    1.68    0.23
   9   2  12    1.95    0.25
   9   2  12    1.83    0.24
  10  -2  12    6.44    0.42
  10   2  12    8.07    0.42
  10   2  12    6.76    0.56
  11  -2  12   10.81    0.78
  14  -3 -12    0.70    0.35
  13  -3 -12    2.01    0.29
  13   3 -12    2.09    0.27
  12  -3 -12    2.93    0.31
  12   3 -12    3.14    0.31
  11  -3 -12   12.63    0.59
  11   3 -12   12.59    0.57
  10  -3 -12   13.45    0.59
  10   3 -12   13.99    0.58
  -9  -3  12    6.08    0.32
   9  -3 -12    5.88    0.39
   9   3 -12    7.09    0.40
  -8  -3  12    7.64    0.34
   8  -3 -12    8.34    0.43
   8   3 -12    7.46    0.39
  -7  -3  12   12.13    0.45
   7  -3 -12   12.26    0.52
   7   3 -12   12.78    0.52
  -6  -3  12   14.68    0.50
   6  -3 -12   14.61    0.56
   6   3 -12   14.87    0.57
  -6   3  12   14.28    0.48
  -5  -3  12    0.51    0.13
   5  -3 -12    0.61    0.14
   5   3 -12    0.42    0.14
  -5   3  12    0.52    0.12
   4  -3 -12   30.50    0.94
  -4  -3  12   31.73    0.91
   4   3 -12   31.79    0.95
  -4   3  12   31.95    0.89
   3  -3 -12   19.14    0.64
  -3  -3  12   18.25    0.62
   3   3 -12   19.67    0.66
  -3   3  12   19.95    0.61
  -2  -3  12    5.70    0.32
   2  -3 -12    5.72    0.31
  -2   3  12    6.47    0.31
   2   3 -12    5.97    0.33
  -1  -3  12    0.23    0.13
   1  -3 -12    0.35    0.11
  -1   3  12    0.02    0.12
   1   3 -12    0.31    0.13
   0  -3 -12   29.87    0.87
   0   3  12   30.16    0.88
   0   3 -12   30.03    0.90
  -1  -3 -12    3.16    0.21
   1  -3  12    2.62    0.23
  -1   3 -12    3.39    0.24
   1   3  12    2.89    0.23
   2  -3  12    2.84    0.24
  -2  -3 -12    2.79    0.20
   2   3  12    2.80    0.24
  -2   3 -12    2.69    0.23
  -3  -3 -12   57.83    1.52
   3  -3  12   57.97    1.57
   3   3  12   59.36    1.58
  -3   3 -12   58.52    1.57
   4  -3  12   78.55    2.09
   4   3  12   82.99    2.11
  -4   3 -12   79.55    2.09
   5  -3  12    7.28    0.37
   5  -3  12    7.08    0.34
   5   3  12    6.94    0.38
  -5   3 -12    6.89    0.33
   6  -3  12    1.96    0.22
   6  -3  12    1.82    0.18
   6   3  12    1.99    0.22
   6   3  12    1.82    0.22
   7  -3  12    4.16    0.31
   7  -3  12    3.85    0.28
   7   3  12    3.84    0.32
   7   3  12    3.73    0.30
   8  -3  12    4.48    0.32
   8  -3  12    4.22    0.31
   8   3  12    3.86    0.33
   8   3  12    3.93    0.32
   9  -3  12    5.15    0.37
   9  -3  12    6.03    0.37
   9   3  12    5.99    0.40
   9   3  12    6.34    0.39
  10  -3  12    1.10    0.23
  10   3  12    2.05    0.25
  10   3  12    1.18    0.33
  11  -3  12    1.99    0.43
  11   3  12    3.38    0.31
  13  -4 -12    0.00    0.18
  12  -4 -12    1.72    0.26
  12   4 -12    1.69    0.25
  11  -4 -12    5.30    0.40
  11   4 -12    4.93    0.38
  10  -4 -12    1.28    0.22
  10   4 -12    0.95    0.20
   9  -4 -12    1.53    0.23
  -9  -4  12    1.36    0.17
   9   4 -12    1.49    0.21
  -8  -4  12    5.30    0.30
   8  -4 -12    5.21    0.36
   8   4 -12    5.67    0.36
   7  -4 -12    3.59    0.30
  -7  -4  12    3.64    0.26
   7   4 -12    3.21    0.29
   6  -4 -12    2.02    0.23
  -6  -4  12    2.52    0.22
   6   4 -12    1.83    0.21
  -6   4  12    2.13    0.19
   5  -4 -12    3.83    0.29
  -5  -4  12    4.65    0.27
  -5   4  12    4.19    0.24
   5   4 -12    4.44    0.30
  -4  -4  12   19.53    0.63
   4  -4 -12   18.81    0.65
  -4   4  12   18.73    0.59
   4   4 -12   19.84    0.67
  -3  -4  12   16.78    0.58
   3  -4 -12   16.98    0.59
   3   4 -12   16.89    0.60
  -3   4  12   17.64    0.55
   2  -4 -12   54.01    1.47
  -2  -4  12   55.35    1.47
  -2   4  12   54.10    1.44
   2   4 -12   54.71    1.50
   1  -4 -12   15.55    0.52
  -1  -4  12   15.23    0.54
   1   4 -12   14.54    0.55
  -1   4  12   14.09    0.50
   0  -4 -12    1.67    0.17
   0  -4  12    1.40    0.18
   0   4  12    1.50    0.18
   0   4 -12    1.43    0.17
   1  -4  12   13.48    0.51
  -1  -4 -12   12.98    0.45
  -1   4 -12   13.69    0.51
   1   4  12   13.17    0.49
   2  -4  12    6.84    0.36
  -2  -4 -12    6.86    0.29
   2   4  12    6.82    0.35
  -2   4 -12    6.59    0.34
   3  -4  12    7.44    0.37
  -3   4 -12    7.53    0.36
   3   4  12    7.99    0.38
   4  -4  12   40.74    1.16
   4   4  12   40.80    1.17
  -4   4 -12   41.07    1.16
   5  -4  12    8.45    0.36
   5  -4  12    8.64    0.41
  -5   4 -12    8.04    0.38
   5   4  12    9.23    0.42
   6  -4  12   11.03    0.43
   6  -4  12   11.02    0.48
   6   4  12   10.58    0.47
   6   4  12   11.45    0.51
  -6   4 -12   10.55    0.60
   7  -4  12    7.87    0.38
   7  -4  12    8.43    0.41
   7   4  12    7.93    0.42
   7   4  12    7.92    0.44
   8  -4  12    2.30    0.24
   8  -4  12    2.10    0.23
   8   4  12    2.46    0.26
   8   4  12    2.52    0.28
   9  -4  12    7.17    0.41
   9   4  12    7.24    0.42
   9   4  12    7.07    0.50
  10  -4  12    4.35    0.36
  10   4  12    5.26    0.38
  11   4  12    3.43    0.33
  13  -5 -12    1.70    0.28
  12  -5 -12    4.28    0.39
  12   5 -12    3.78    0.35
  11  -5 -12    0.53    0.20
  11   5 -12    0.37    0.17
  10  -5 -12    2.10    0.27
  10   5 -12    1.48    0.23
   9  -5 -12   30.02    0.98
  -9  -5  12   29.47    0.89
   9   5 -12   29.91    0.97
  -8  -5  12    0.44    0.13
   8  -5 -12    0.44    0.16
   8   5 -12    0.32    0.16
  -7  -5  12   10.22    0.42
   7  -5 -12   10.80    0.47
   7   5 -12   10.11    0.47
  -6  -5  12    1.76    0.18
   6  -5 -12    2.20    0.24
   6   5 -12    2.27    0.24
  -6   5  12    2.06    0.19
   5  -5 -12   18.23    0.65
  -5  -5  12   17.88    0.60
   5   5 -12   17.90    0.64
  -5   5  12   18.28    0.56
  -4  -5  12   34.40    0.99
   4  -5 -12   34.44    1.03
   4   5 -12   35.19    1.04
  -4   5  12   34.66    0.96
   3  -5 -12   15.18    0.55
  -3  -5  12   14.87    0.53
  -3   5  12   14.91    0.50
   3   5 -12   15.04    0.56
  -2  -5  12    7.18    0.35
   2  -5 -12    7.07    0.34
   2   5 -12    7.34    0.37
  -2   5  12    6.28    0.31
   1  -5 -12   39.78    1.11
  -1  -5  12   39.39    1.12
  -1   5  12   39.32    1.10
   1   5 -12   40.17    1.15
   0  -5 -12  102.43    2.62
   0  -5  12  107.44    2.65
   0   5 -12  103.89    2.67
   0   5  12  101.05    2.63
  -1  -5 -12   16.01    0.53
   1  -5  12   17.10    0.59
   1   5  12   16.61    0.57
  -1   5 -12   15.99    0.59
   2  -5  12    2.57    0.24
  -2  -5 -12    2.50    0.19
   2   5  12    2.55    0.23
  -2   5 -12    2.74    0.25
   3  -5  12    9.62    0.42
   3   5  12    9.75    0.42
  -3   5 -12   10.01    0.42
   4  -5  12    0.51    0.14
   4  -5  12    0.81    0.14
  -4   5 -12    0.64    0.15
   4   5  12    0.44    0.16
   5  -5  12   39.38    1.09
   5  -5  12   39.04    1.13
  -5   5 -12   38.90    1.13
   5   5  12   39.99    1.15
   6  -5  12    0.09    0.12
   6  -5  12    0.37    0.16
   6   5  12    0.25    0.22
   6   5  12    0.14    0.16
  -6   5 -12    0.23    0.14
   7  -5  12   10.30    0.44
   7  -5  12   10.78    0.48
   7   5  12   11.04    0.49
   7   5  12   11.04    0.53
   8  -5  12    3.13    0.29
   8  -5  12    4.08    0.32
   8   5  12    3.70    0.32
   8   5  12    3.81    0.35
   9  -5  12   26.62    0.88
   9   5  12   26.48    0.89
  10  -5  12    7.38    0.49
  10   5  12    9.16    0.47
  11   5  12    2.26    0.28
  13  -6 -12    1.54    0.27
  12  -6 -12   18.35    0.76
  12   6 -12   18.84    0.73
  11  -6 -12    2.40    0.29
  11   6 -12    2.33    0.26
 -10  -6  12    2.30    0.22
  10  -6 -12    2.48    0.29
  10   6 -12    2.43    0.27
  -9  -6  12    2.51    0.22
   9  -6 -12    2.85    0.29
   9   6 -12    2.40    0.26
   8  -6 -12    1.07    0.19
  -8  -6  12    1.01    0.16
   8   6 -12    1.09    0.20
   7  -6 -12    2.69    0.26
  -7  -6  12    3.01    0.24
   7   6 -12    2.03    0.23
  -6  -6  12    1.68    0.19
   6  -6 -12    1.42    0.21
   6   6 -12    1.38    0.20
  -5  -6  12   28.30    0.84
   5  -6 -12   27.94    0.88
   5   6 -12   27.55    0.89
  -5   6  12   26.89    0.78
  -4  -6  12    0.43    0.13
   4  -6 -12    0.46    0.15
  -4   6  12    0.58    0.13
   4   6 -12    0.57    0.16
   3  -6 -12   26.72    0.83
  -3  -6  12   25.98    0.82
  -3   6  12   26.85    0.78
   3   6 -12   27.86    0.86
  -2  -6  12   11.57    0.47
   2  -6 -12   12.35    0.47
  -2   6  12   12.09    0.44
   2   6 -12   12.12    0.49
   1  -6 -12   20.70    0.66
  -1  -6  12   20.87    0.68
  -1   6  12   21.16    0.66
   1   6 -12   20.17    0.70
   0  -6 -12   11.50    0.43
   0  -6  12   11.49    0.45
   0   6  12   11.14    0.44
   0   6 -12   11.20    0.48
   1  -6  12   66.94    1.79
  -1  -6 -12   67.32    1.74
   1   6  12   65.70    1.77
  -1   6 -12   68.34    1.82
  -2  -6 -12   15.02    0.50
   2  -6  12   15.40    0.56
   2   6  12   15.18    0.55
  -2   6 -12   15.15    0.56
   3  -6  12    6.28    0.35
   3   6  12    6.70    0.35
  -3   6 -12    6.70    0.35
   4  -6  12    5.09    0.32
   4  -6  12    5.01    0.28
  -4   6 -12    5.32    0.32
   4   6  12    4.89    0.30
   5  -6  12   10.29    0.40
   5  -6  12    9.86    0.44
  -5   6 -12   10.20    0.45
   5   6  12    9.89    0.44
   6  -6  12    2.50    0.24
   6  -6  12    2.61    0.24
   6   6  12    2.30    0.24
  -6   6 -12    2.72    0.27
   7  -6  12   10.04    0.45
   7  -6  12    9.92    0.43
   7   6  12    9.62    0.61
   7   6  12   10.48    0.48
   8  -6  12    7.51    0.40
   8  -6  12    7.62    0.41
   8   6  12    8.04    0.43
   9  -6  12    1.12    0.21
   9   6  12    1.41    0.24
  10  -6  12    4.33    0.42
  10   6  12    5.20    0.39
  11   6  12    9.46    0.50
  12  -7 -12    2.37    0.30
  11  -7 -12    0.68    0.21
  11   7 -12    0.41    0.19
 -10  -7  12   12.56    0.51
  10  -7 -12   12.69    0.58
  10   7 -12   12.21    0.55
   9  -7 -12    5.36    0.39
  -9  -7  12    5.41    0.32
   9   7 -12    4.95    0.36
   8  -7 -12    3.06    0.30
  -8  -7  12    3.15    0.26
   8   7 -12    3.03    0.30
   7  -7 -12    3.24    0.30
  -7  -7  12    3.26    0.26
   7   7 -12    3.94    0.31
  -6  -7  12    6.01    0.33
   6  -7 -12    5.81    0.37
   6   7 -12    5.70    0.36
   5  -7 -12   31.00    0.98
  -5  -7  12   32.34    0.94
   5   7 -12   31.84    0.98
  -5   7  12   30.91    0.87
   4  -7 -12   11.32    0.48
  -4  -7  12   10.47    0.43
   4   7 -12   11.74    0.49
  -4   7  12   10.95    0.40
  -3  -7  12    1.46    0.18
   3  -7 -12    1.85    0.20
   3   7 -12    2.28    0.23
  -3   7  12    1.59    0.16
  -2  -7  12    0.55    0.16
   2  -7 -12    0.27    0.13
   2   7 -12    0.44    0.15
  -2   7  12    0.79    0.14
  -1  -7  12   23.67    0.75
   1  -7 -12   22.95    0.73
  -1   7  12   23.86    0.73
   1   7 -12   24.12    0.79
   0  -7 -12   65.07    1.72
   0  -7  12   66.83    1.75
   0   7 -12   66.31    1.78
   0   7  12   63.38    1.72
  -1  -7 -12   22.43    0.68
   1  -7  12   22.00    0.72
   1   7  12   22.30    0.71
  -1   7 -12   22.64    0.75
   2  -7  12   22.02    0.71
   2   7  12   20.82    0.70
  -2   7 -12   22.40    0.74
   3  -7  12   49.72    1.37
  -3   7 -12   48.89    1.40
   4  -7  12   10.84    0.46
   4  -7  12   10.87    0.44
  -4   7 -12   11.30    0.48
   5  -7  12   31.86    0.92
   5  -7  12   31.03    0.95
  -5   7 -12   31.72    0.98
   6  -7  12    1.87    0.22
   6  -7  12    1.97    0.20
  -6   7 -12    1.73    0.22
   7  -7  12    0.28    0.16
   7  -7  12    0.22    0.14
  -7   7 -12    0.10    0.17
   8  -7  12    5.57    0.34
   9  -7  12    4.78    0.37
   9   7  12    6.05    0.40
  10  -7  12    4.42    0.47
  10   7  12    4.38    0.39
  11   7  12    5.54    0.53
  12  -8 -12    2.07    0.31
  11  -8 -12    1.00    0.23
  11   8 -12    1.20    0.22
  10  -8 -12   11.15    0.56
 -10  -8  12   10.49    0.47
  10   8 -12   12.35    0.55
   9  -8 -12   16.13    0.67
  -9  -8  12   16.00    0.59
   9   8 -12   15.76    0.64
   8  -8 -12    0.98    0.21
  -8  -8  12    0.54    0.15
   8   8 -12    0.50    0.17
  -7  -8  12    0.31    0.13
   7  -8 -12    0.43    0.17
   7   8 -12    0.29    0.14
   6  -8 -12   15.77    0.61
  -6  -8  12   14.51    0.55
   6   8 -12   15.00    0.60
  -5  -8  12    1.64    0.20
   5  -8 -12    1.85    0.21
   5   8 -12    2.35    0.25
   4  -8 -12    6.92    0.37
  -4  -8  12    6.87    0.36
   4   8 -12    6.82    0.39
  -4   8  12    6.70    0.31
  -3  -8  12    8.94    0.39
   3  -8 -12    9.02    0.40
  -3   8  12    8.80    0.36
   3   8 -12    8.43    0.43
  -2  -8  12    4.06    0.27
   2  -8 -12    3.84    0.27
   2   8 -12    3.95    0.29
  -2   8  12    3.60    0.26
  -1  -8  12    0.37    0.16
   1  -8 -12    0.39    0.13
   1   8 -12    0.41    0.15
  -1   8  12    0.50    0.13
   0  -8  12   24.28    0.75
   0  -8 -12   21.91    0.70
   0   8  12   21.71    0.71
   0   8 -12   23.48    0.78
   1  -8  12   15.17    0.56
  -1  -8 -12   15.82    0.51
   1   8  12   14.80    0.55
  -1   8 -12   14.76    0.57
   2  -8  12    8.40    0.39
  -2   8 -12    8.64    0.43
   3  -8  12    7.57    0.39
  -3  -8 -12    8.48    0.38
  -3   8 -12    8.32    0.42
   4  -8  12    0.56    0.14
  -4  -8 -12    0.39    0.16
   4  -8  12    0.41    0.15
  -4   8 -12    0.41    0.15
  -5  -8 -12   15.36    0.58
   5  -8  12   15.99    0.59
   5  -8  12   15.71    0.55
  -5   8 -12   15.80    0.62
  -6  -8 -12   11.30    0.49
   6  -8  12   11.15    0.46
   6  -8  12   11.82    0.49
  -6   8 -12   12.08    0.53
  -7  -8 -12    2.54    0.26
   7  -8  12    2.72    0.25
   7  -8  12    1.96    0.23
   8  -8  12   10.70    0.48
  -8  -8 -12   10.86    0.51
   9  -8  12    1.46    0.24
 -11  -9  12    1.28    0.30
  11  -9 -12    1.15    0.25
  11   9 -12    1.25    0.28
 -10  -9  12    0.01    0.14
  10  -9 -12    0.39    0.19
  10   9 -12    0.36    0.17
   9  -9 -12    7.57    0.46
  -9  -9  12    8.07    0.40
   9   9 -12    7.54    0.43
   8  -9 -12   12.85    0.58
  -8  -9  12   11.94    0.50
   8   9 -12   13.13    0.56
  -7  -9  12    0.48    0.15
   7  -9 -12    0.54    0.18
   7   9 -12    0.70    0.17
   6  -9 -12    2.16    0.25
  -6  -9  12    1.77    0.21
   6   9 -12    1.70    0.23
   5  -9 -12   10.66    0.48
  -5  -9  12   10.89    0.46
   5   9 -12    9.97    0.49
  -4  -9  12   23.47    0.76
   4  -9 -12   23.37    0.78
   4   9 -12   23.20    0.80
  -4   9  12   22.86    0.69
   3  -9 -12    9.55    0.44
  -3  -9  12    9.19    0.41
  -3   9  12   10.18    0.39
   3   9 -12   10.74    0.48
  -2  -9  12    9.76    0.43
   2  -9 -12    9.10    0.42
   2   9 -12    9.72    0.46
  -2   9  12    9.66    0.39
  -1  -9  12    6.69    0.36
   1  -9 -12    6.43    0.33
  -1   9  12    6.95    0.33
   1   9 -12    6.75    0.39
   0  -9 -12    7.90    0.35
   0  -9  12    8.40    0.40
   0   9  12    8.12    0.37
   0   9 -12    8.15    0.43
   1  -9  12   11.04    0.47
  -1  -9 -12   11.33    0.51
  -1   9 -12   12.38    0.52
  -2  -9 -12    2.67    0.24
   2  -9  12    3.38    0.28
  -2   9 -12    3.20    0.31
  -3  -9 -12    4.96    0.32
   3  -9  12    4.16    0.35
   3  -9  12    4.32    0.30
  -3   9 -12    4.34    0.33
   4  -9  12   11.67    0.48
  -4  -9 -12   11.68    0.48
   4  -9  12   11.77    0.49
  -4   9 -12   11.96    0.52
  -5  -9 -12    3.96    0.31
   5  -9  12    3.62    0.31
   5  -9  12    3.82    0.27
  -5   9 -12    3.77    0.32
   6  -9  12    4.73    0.31
  -6  -9 -12    4.81    0.35
   6  -9  12    5.19    0.34
  -6   9 -12    5.25    0.37
   7  -9  12    5.75    0.36
  -7  -9 -12    5.86    0.38
  -7   9 -12    5.55    0.39
  -8  -9 -12    1.91    0.25
   8  -9  12    2.20    0.25
  -9  -9 -12    4.66    0.37
   9  -9  12    4.65    0.44
 -11 -10  12    0.41    0.16
  11 -10 -12    0.35    0.21
 -10 -10  12    4.08    0.32
  10 -10 -12    3.90    0.36
  10  10 -12    3.75    0.35
   9 -10 -12    3.54    0.34
  -9 -10  12    3.32    0.30
   9  10 -12    3.49    0.32
   8 -10 -12    8.43    0.47
  -8 -10  12    8.02    0.41
   8  10 -12    7.51    0.43
   7 -10 -12    2.50    0.28
  -7 -10  12    2.27    0.23
   7  10 -12    2.53    0.27
   6 -10 -12   22.95    0.82
  -6 -10  12   24.01    0.78
   6  10 -12   23.26    0.81
   5 -10 -12   11.44    0.52
  -5 -10  12   12.02    0.50
   5  10 -12   12.15    0.54
  -4 -10  12   29.21    0.90
   4 -10 -12   29.35    0.92
  -4  10  12   28.61    0.88
   4  10 -12   28.31    0.93
   3 -10 -12    3.44    0.28
  -3 -10  12    3.19    0.28
   3  10 -12    3.94    0.33
  -3  10  12    3.33    0.24
  -2 -10  12    1.88    0.22
   2 -10 -12    1.64    0.19
  -2  10  12    1.79    0.18
   2  10 -12    1.61    0.21
  -1 -10  12    5.01    0.32
   1 -10 -12    5.08    0.30
   1  10 -12    5.20    0.36
  -1  10  12    5.38    0.31
   0 -10  12   10.93    0.47
   0 -10 -12   10.31    0.42
   0  10 -12   11.68    0.51
   1 -10  12   16.93    0.60
  -1 -10 -12   17.11    0.60
  -1  10 -12   17.27    0.66
  -2 -10 -12    1.66    0.19
   2 -10  12    1.25    0.18
  -2  10 -12    1.35    0.20
  -3 -10 -12    2.58    0.24
   3 -10  12    2.61    0.25
  -3  10 -12    2.30    0.25
   4 -10  12   23.24    0.78
  -4 -10 -12   24.11    0.79
   4 -10  12   23.92    0.79
  -4  10 -12   24.06    0.83
  -5 -10 -12   13.46    0.55
   5 -10  12   13.27    0.52
   5 -10  12   13.35    0.54
  -5  10 -12   13.10    0.57
   6 -10  12    9.45    0.44
  -6 -10 -12    9.14    0.44
   6 -10  12    9.38    0.45
  -6  10 -12    9.23    0.49
  -7 -10 -12   11.06    0.52
   7 -10  12   11.45    0.50
  -7  10 -12   11.76    0.54
  -8 -10 -12    4.24    0.36
   8 -10  12    4.33    0.42
  -9 -10 -12    0.18    0.18
  11 -11 -12    3.70    0.59
 -11 -11  12    3.57    0.31
 -10 -11  12    2.05    0.24
  10 -11 -12    1.80    0.28
  10  11 -12    1.82    0.26
  -9 -11  12    3.75    0.32
   9 -11 -12    3.97    0.35
   9  11 -12    3.67    0.36
   8 -11 -12   10.07    0.52
  -8 -11  12    9.74    0.46
   8  11 -12    9.21    0.49
   7 -11 -12   10.99    0.54
  -7 -11  12   11.65    0.50
   7  11 -12   10.82    0.52
  -6 -11  12    0.35    0.16
   6 -11 -12    0.39    0.17
   6  11 -12    0.66    0.19
  -5 -11  12   14.32    0.55
   5 -11 -12   13.76    0.58
   5  11 -12   13.06    0.57
   4 -11 -12    5.49    0.36
  -4 -11  12    6.39    0.36
   4  11 -12    6.05    0.37
  -3 -11  12    0.17    0.15
   3 -11 -12    0.40    0.15
  -3  11  12    0.43    0.13
   3  11 -12    0.18    0.17
   2 -11 -12    7.98    0.39
  -2 -11  12    8.22    0.41
   2  11 -12    8.06    0.44
  -2  11  12    8.25    0.37
   1 -11 -12    3.91    0.28
  -1 -11  12    3.99    0.30
   1  11 -12    4.08    0.34
   0 -11 -12    2.13    0.20
   0 -11 -12    2.32    0.22
   0 -11  12    2.39    0.24
   0  11 -12    2.18    0.25
   1 -11  12    7.70    0.37
  -1 -11 -12    6.88    0.36
  -1  11 -12    7.04    0.42
  -2 -11 -12    3.40    0.27
   2 -11  12    3.92    0.30
  -2  11 -12    3.73    0.31
  -3 -11 -12    0.26    0.15
   3 -11  12    0.21    0.15
  -3  11 -12    0.32    0.16
   4 -11  12   26.80    0.85
   4 -11  12   25.13    0.91
  -4 -11 -12   27.25    0.87
  -4  11 -12   27.60    0.92
  -5 -11 -12    0.30    0.16
   5 -11  12    0.92    0.19
   5 -11  12    0.30    0.16
  -5  11 -12    0.60    0.19
  -6 -11 -12   17.57    0.67
   6 -11  12   16.69    0.67
   6 -11  12   17.62    0.65
  -6  11 -12   18.69    0.71
  -7 -11 -12    2.91    0.30
   7 -11  12    3.08    0.32
  -7  11 -12    2.88    0.30
  -8 -11 -12    0.97    0.21
  -8  11 -12    1.08    0.23
  -9 -11 -12    7.87    0.53
 -11 -12  12    9.92    0.51
 -10 -12  12    6.00    0.39
  10 -12 -12    5.71    0.45
  -9 -12  12    6.40    0.40
   9 -12 -12    6.59    0.46
   9  12 -12    6.01    0.41
   8 -12 -12    1.59    0.25
  -8 -12  12    1.60    0.23
   8  12 -12    1.91    0.25
  -7 -12  12    0.23    0.14
   7 -12 -12    0.14    0.17
   7  12 -12    0.25    0.18
  -6 -12  12   -0.13    0.12
   6 -12 -12    0.07    0.16
   6  12 -12   -0.04    0.16
  -5 -12  12    8.16    0.43
   5 -12 -12    8.58    0.46
   5  12 -12    8.18    0.46
   4 -12 -12   10.74    0.49
  -4 -12  12   10.30    0.46
   4  12 -12   10.62    0.52
   3 -12 -12   11.48    0.49
  -3 -12  12   10.67    0.47
  -3  12  12   10.04    0.42
   3  12 -12   10.62    0.51
  -2 -12  12    0.94    0.19
   2 -12 -12    0.99    0.18
   2  12 -12    0.78    0.19
  -2  12  12    1.18    0.17
   1 -12 -12    8.99    0.42
   1 -12 -12    9.22    0.40
  -1 -12  12    8.82    0.43
   1  12 -12    9.65    0.49
   0 -12  12   18.58    0.67
   0 -12 -12   19.42    0.65
   0  12 -12   18.81    0.71
   1 -12  12    0.79    0.18
  -1 -12 -12    0.57    0.15
  -1  12 -12    0.71    0.20
  -2 -12 -12    3.09    0.29
   2 -12  12    3.71    0.30
  -2  12 -12    3.59    0.32
   3 -12  12    0.46    0.17
  -3 -12 -12    0.23    0.15
  -3  12 -12    0.54    0.20
  -4 -12 -12   11.70    0.51
   4 -12  12   12.52    0.68
   4 -12  12   11.81    0.50
  -4  12 -12   13.17    0.58
   5 -12  12    3.11    0.37
  -5 -12 -12    3.08    0.28
   5 -12  12    2.96    0.27
  -5  12 -12    3.00    0.31
   6 -12  12   14.89    0.78
  -6 -12 -12   14.53    0.61
  -6  12 -12   14.50    0.64
  -7 -12 -12    6.06    0.41
  -7  12 -12    6.13    0.43
  -8 -12 -12    2.24    0.28
  -8  12 -12    2.67    0.31
 -10 -13  12    0.89    0.22
  -9 -13  12    0.46    0.19
   9 -13 -12    0.37    0.21
   9  13 -12    0.29    0.18
   8 -13 -12    4.45    0.40
  -8 -13  12    5.10    0.37
   8  13 -12    4.63    0.38
   7 -13 -12    0.70    0.20
  -7 -13  12    0.67    0.19
   7  13 -12    0.66    0.20
  -6 -13  12    0.93    0.20
   6 -13 -12    0.85    0.22
   6  13 -12    1.13    0.23
   5 -13 -12    2.31    0.26
  -5 -13  12    2.49    0.25
   5  13 -12    2.50    0.27
  -4 -13  12    0.62    0.16
   4 -13 -12    0.40    0.17
   4  13 -12    0.55    0.19
  -3 -13  12   11.67    0.51
   3 -13 -12   11.12    0.50
   3  13 -12   10.81    0.52
   2 -13 -12    6.01    0.35
  -2 -13  12    5.71    0.37
   2  13 -12    5.86    0.41
   1 -13 -12    2.73    0.25
  -1 -13  12    2.20    0.25
   1 -13 -12    2.67    0.27
   1  13 -12    2.22    0.26
   0 -13  12    4.33    0.32
   0 -13 -12    4.23    0.30
   0  13 -12    4.38    0.37
   1 -13  12    0.38    0.17
  -1 -13 -12    0.21    0.14
  -1  13 -12    0.23    0.19
  -2 -13 -12    1.54    0.21
   2 -13  12    1.48    0.21
  -2  13 -12    1.20    0.22
  -3 -13 -12    1.56    0.21
   3 -13  12    1.76    0.23
  -3  13 -12    1.59    0.26
   4 -13  12   11.68    0.51
  -4 -13 -12   11.85    0.51
  -4  13 -12   12.07    0.58
  -5 -13 -12    6.16    0.39
   5 -13  12    5.14    0.34
  -5  13 -12    5.39    0.42
  -6 -13 -12    8.23    0.46
  -6  13 -12    7.73    0.50
  -7 -13 -12    0.75    0.22
  -7  13 -12    0.43    0.21
  -8  13 -12   12.82    0.63
  -9 -14  12    3.86    0.35
   9 -14 -12    2.99    0.37
  -8 -14  12    1.27    0.23
   8 -14 -12    1.37    0.26
   8  14 -12    1.08    0.23
  -7 -14  12    6.20    0.41
   7 -14 -12    6.51    0.45
   7  14 -12    6.55    0.45
   6 -14 -12    0.29    0.19
  -6 -14  12    0.05    0.16
   6  14 -12   -0.08    0.17
  -5 -14  12    6.57    0.40
   5 -14 -12    6.88    0.43
   5  14 -12    6.52    0.44
   4 -14 -12    9.74    0.50
  -4 -14  12   10.72    0.50
   4  14 -12   11.03    0.55
   3 -14 -12    7.48    0.43
  -3 -14  12    7.37    0.42
   3  14 -12    8.20    0.47
  -2 -14  12    1.65    0.23
   2 -14 -12    1.70    0.22
   2  14 -12    1.59    0.26
   1 -14 -12    5.56    0.33
  -1 -14  12    6.02    0.37
   1  14 -12    6.14    0.43
   0 -14  12    3.24    0.30
   0 -14 -12    2.93    0.25
   0  14 -12    2.63    0.29
   1 -14  12   10.53    0.48
  -1 -14 -12   10.38    0.47
  -1  14 -12   11.62    0.56
  -2 -14 -12   10.41    0.48
   2 -14  12   10.58    0.49
  -2  14 -12   10.62    0.53
  -3 -14 -12    1.80    0.23
   3 -14  12    1.63    0.23
  -3  14 -12    1.66    0.28
  -4 -14 -12    5.68    0.39
   4 -14  12    6.01    0.38
  -4  14 -12    5.78    0.44
  -5 -14 -12    2.21    0.27
  -5  14 -12    2.10    0.29
  -6 -14 -12    2.25    0.27
  -6  14 -12    2.23    0.31
  -7 -14 -12   10.35    0.57
  -7  14 -12    9.87    0.56
  -8  14 -12    2.18    0.31
   8 -15 -12   25.36    0.96
  -8 -15  12   25.14    0.89
   8  15 -12   25.51    0.92
   7 -15 -12    2.08    0.30
  -7 -15  12    2.09    0.28
   7  15 -12    2.13    0.28
   6 -15 -12    0.58    0.21
  -6 -15  12    0.30    0.19
   6  15 -12    0.21    0.19
  -5 -15  12   10.55    0.51
   5 -15 -12   10.71    0.54
   5  15 -12    9.82    0.54
   4 -15 -12    5.56    0.40
  -4 -15  12    5.26    0.38
   4  15 -12    5.63    0.42
  -3 -15  12    6.19    0.40
   3 -15 -12    6.29    0.41
   3  15 -12    5.44    0.40
   2 -15 -12    4.11    0.32
  -2 -15  12    3.68    0.33
   2  15 -12    4.05    0.37
  -1 -15  12    4.75    0.34
   1 -15 -12    5.53    0.33
   1  15 -12    5.41    0.42
   0 -15 -12   12.57    0.51
   0 -15  12   12.93    0.55
   0  15 -12   12.04    0.60
   1 -15  12    5.51    0.37
  -1 -15 -12    6.12    0.37
  -1  15 -12    5.83    0.44
  -2 -15 -12    5.15    0.36
   2 -15  12    6.11    0.38
  -2  15 -12    6.34    0.46
   3 -15  12    3.12    0.29
  -3 -15 -12    3.04    0.29
  -3  15 -12    2.96    0.32
  -4 -15 -12    5.55    0.39
   4 -15  12    5.52    0.38
  -4  15 -12    5.86    0.45
  -5 -15 -12    0.30    0.18
  -5  15 -12    0.58    0.23
  -6 -15 -12    1.35    0.25
  -6  15 -12    1.07    0.26
  -7  15 -12    0.16    0.24
   8  16 -12    4.12    0.44
  -7 -16  12    2.94    0.31
   7 -16 -12    3.25    0.35
   7  16 -12    3.42    0.34
   6 -16 -12    9.07    0.53
  -6 -16  12    9.59    0.52
   6  16 -12    9.24    0.53
   5 -16 -12    0.22    0.18
  -5 -16  12    0.51    0.20
   5  16 -12    0.85    0.24
  -4 -16  12   -0.04    0.17
   4 -16 -12    0.15    0.18
   4  16 -12    0.20    0.17
  -3 -16  12   20.44    0.76
   3 -16 -12   20.43    0.76
   3  16 -12   20.11    0.81
   2 -16 -12    8.43    0.65
  -2 -16  12    8.61    0.46
   2  16 -12    8.72    0.52
  -1 -16  12    5.10    0.38
   1 -16 -12    5.53    0.35
   1  16 -12    5.32    0.40
   0 -16 -12   16.57    0.61
   0 -16  12   15.71    0.64
   0  16 -12   15.83    0.71
  -1 -16 -12    1.44    0.22
   1 -16  12    1.21    0.22
  -1  16 -12    1.41    0.27
  -2 -16 -12   10.61    0.50
   2 -16  12   10.78    0.51
  -2  16 -12   10.55    0.59
   3 -16  12    3.09    0.29
  -3 -16 -12    2.72    0.28
  -3  16 -12    3.07    0.35
  -4 -16 -12    0.45    0.20
  -4  16 -12    0.90    0.23
  -5 -16 -12    2.36    0.28
  -5  16 -12    2.45    0.33
   7  17 -12    6.12    0.47
   6 -17 -12    5.17    0.43
  -6 -17  12    4.51    0.44
   6  17 -12    5.06    0.43
   5 -17 -12    2.71    0.31
  -5 -17  12    2.88    0.32
   5  17 -12    3.08    0.34
   4 -17 -12    0.99    0.23
  -4 -17  12    0.74    0.20
   4  17 -12    0.56    0.23
   3 -17 -12    0.30    0.19
  -3 -17  12    0.02    0.17
   3  17 -12    0.17    0.22
  -2 -17  12    1.23    0.23
   2  17 -12    1.44    0.28
  -1 -17  12    5.47    0.39
   1  17 -12    5.41    0.45
   0 -17 -12    2.12    0.24
   0 -17  12    1.75    0.25
   0  17 -12    1.82    0.30
   1 -17  12    1.76    0.25
  -1 -17 -12    1.77    0.24
  -1  17 -12    1.79    0.29
  -2 -17 -12    2.94    0.29
   2 -17  12    3.05    0.29
  -2  17 -12    3.25    0.36
   3 -17  12    1.25    0.23
  -3 -17 -12    1.19    0.22
  -3  17 -12    0.96    0.27
  -4 -17 -12   10.84    0.55
  -4  17 -12   12.31    0.74
   7  18 -12    3.37    0.45
   6  18 -12    0.74    0.24
   5 -18 -12    3.92    0.37
   5  18 -12    3.06    0.35
  -4 -18  12    5.82    0.49
   4 -18 -12    5.49    0.43
   4  18 -12    5.98    0.47
  -3 -18  12    3.90    0.36
   3  18 -12    3.73    0.38
  -2 -18  12    7.34    0.45
   2  18 -12    6.85    0.50
  -1 -18  12    5.94    0.42
   1  18 -12    6.72    0.50
   0 -18  12    5.57    0.40
   0 -18 -12    5.52    0.43
   0  18 -12    5.64    0.47
   1 -18  12    1.22    0.22
  -1 -18 -12    1.31    0.22
  -1  18 -12    1.39    0.29
   2 -18  12    1.03    0.22
  -2 -18 -12    0.99    0.22
  -2  18 -12    1.04    0.44
  -3 -18 -12    4.85    0.39
   4 -19 -12    4.27    0.41
  -1 -19  12    3.65    0.39
   0 -19  12    0.11    0.18
  -1 -19 -12    1.26    0.22
   1 -19  12    1.01    0.23
   2 -19  12    2.95    0.31
  -2 -19 -12    3.17    0.35
  13   0 -13   15.01    0.67
  12   0 -13    1.54    0.26
  11   0 -13    1.57    0.24
  10   0 -13    0.82    0.20
   9   0 -13    9.03    0.47
   8   0 -13    0.63    0.18
  -7   0  13    2.73    0.23
   7   0 -13    3.15    0.29
  -6   0  13   15.93    0.53
   6   0 -13   15.19    0.59
   5   0 -13   23.60    0.77
  -5   0  13   21.72    0.70
  -4   0  13   20.26    0.66
   4   0 -13   21.99    0.72
   3   0 -13    4.30    0.29
  -3   0  13    4.84    0.29
   2   0 -13   11.35    0.46
  -2   0  13   11.64    0.45
  -1   0  13    6.78    0.35
   1   0 -13    6.82    0.34
   0   0 -13  141.03    3.61
   0   0  13  147.05    3.61
   1   0  13   14.00    0.53
  -1   0 -13   13.84    0.50
  -2   0 -13   12.63    0.47
   2   0  13   13.13    0.49
  -3   0 -13    0.37    0.11
   3   0  13    0.53    0.16
  -4   0 -13   16.77    0.62
   4   0  13   17.09    0.61
   5   0  13    6.57    0.37
   6   0  13   39.43    1.16
   7   0  13    0.26    0.16
   8   0  13    5.41    0.37
   9   0  13    4.32    0.34
  10   0  13    9.61    0.48
  13  -1 -13    1.06    0.24
  13   1 -13    1.27    0.25
  12  -1 -13    1.36    0.24
  12   1 -13    1.21    0.23
  11  -1 -13    1.74    0.25
  11   1 -13    1.89    0.27
  10  -1 -13    6.21    0.41
  10   1 -13    6.10    0.41
   9  -1 -13   14.32    0.61
   9   1 -13   14.92    0.61
  -8  -1  13   -0.06    0.10
   8  -1 -13   -0.06    0.14
   8   1 -13    0.00    0.14
   7  -1 -13   15.09    0.59
  -7  -1  13   14.55    0.51
   7   1 -13   16.19    0.61
  -7   1  13   14.94    0.51
  -6  -1  13   29.27    0.86
   6  -1 -13   29.42    0.94
  -6   1  13   29.30    0.86
   6   1 -13   31.00    0.95
  -5  -1  13    6.44    0.33
   5  -1 -13    6.56    0.36
   5   1 -13    6.40    0.35
  -5   1  13    6.25    0.32
   4  -1 -13    2.27    0.23
  -4  -1  13    2.93    0.25
  -4   1  13    3.03    0.25
   4   1 -13    2.62    0.25
  -3  -1  13   10.00    0.42
   3  -1 -13   10.21    0.44
   3   1 -13   10.87    0.44
  -3   1  13   10.61    0.42
   2  -1 -13   20.85    0.68
  -2  -1  13   20.54    0.67
  -2   1  13   21.13    0.67
   2   1 -13   20.57    0.68
   1  -1 -13   37.58    1.08
  -1  -1  13   38.64    1.07
  -1   1  13   37.58    1.06
   1   1 -13   36.20    1.08
   0  -1  13    4.70    0.31
   0  -1 -13    4.44    0.28
   0   1 -13    4.65    0.29
   0   1  13    4.83    0.31
  -1  -1 -13   57.90    1.56
   1  -1  13   58.98    1.58
  -1   1 -13   58.18    1.57
   1   1  13   58.97    1.58
   2  -1  13    2.58    0.24
  -2  -1 -13    2.63    0.21
  -2   1 -13    2.91    0.22
   2   1  13    2.55    0.23
   3  -1  13    0.66    0.16
  -3  -1 -13    0.66    0.12
   3   1  13    0.89    0.17
  -3   1 -13    0.73    0.14
   4  -1  13   14.62    0.55
   4   1  13   13.65    0.53
  -4   1 -13   14.09    0.50
   5  -1  13   19.88    0.68
   5   1  13   19.22    0.68
   6  -1  13    1.96    0.23
   6   1  13    2.48    0.26
   7  -1  13    6.75    0.39
   7   1  13    5.60    0.37
   8  -1  13    2.97    0.27
   8   1  13    3.23    0.29
   9  -1  13    0.45    0.19
   9   1  13    0.52    0.19
  10   1  13    2.15    0.26
  13  -2 -13    6.04    0.45
  13   2 -13    5.83    0.45
  12  -2 -13    0.69    0.22
  12   2 -13    0.77    0.21
  11  -2 -13    8.57    0.50
  11   2 -13    9.09    0.49
  10  -2 -13   13.93    0.61
  10   2 -13   13.52    0.60
   9  -2 -13    3.68    0.33
   9   2 -13    3.74    0.32
  -8  -2  13    2.88    0.23
   8  -2 -13    2.48    0.26
   8   2 -13    3.12    0.30
  -7  -2  13   24.67    0.75
   7  -2 -13   24.13    0.83
   7   2 -13   25.69    0.84
  -7   2  13   25.00    0.74
  -6  -2  13   22.67    0.70
   6  -2 -13   23.96    0.78
   6   2 -13   21.92    0.77
  -6   2  13   21.51    0.68
  -5  -2  13   21.00    0.67
   5  -2 -13   20.92    0.72
  -5   2  13   21.48    0.65
   5   2 -13   21.39    0.73
   4  -2 -13   13.76    0.53
  -4  -2  13   13.36    0.49
   4   2 -13   14.02    0.54
  -4   2  13   12.96    0.47
  -3  -2  13   39.40    1.09
   3  -2 -13   38.39    1.12
  -3   2  13   37.66    1.07
   3   2 -13   38.55    1.12
   2  -2 -13   37.06    1.08
  -2  -2  13   36.74    1.06
  -2   2  13   37.05    1.05
   2   2 -13   38.66    1.10
   1  -2 -13   13.67    0.50
  -1  -2  13   14.00    0.52
  -1   2  13   13.43    0.50
   1   2 -13   14.24    0.53
   0  -2 -13   22.20    0.70
   0  -2  13   23.42    0.73
   0   2  13   22.41    0.72
   0   2 -13   22.31    0.72
   1  -2  13    1.82    0.20
  -1  -2 -13    1.83    0.18
  -1   2 -13    1.99    0.20
   1   2  13    1.84    0.21
  -2  -2 -13    6.28    0.30
   2  -2  13    6.11    0.33
   2   2  13    6.47    0.35
  -2   2 -13    6.17    0.33
   3  -2  13   17.37    0.61
  -3  -2 -13   17.25    0.55
  -3   2 -13   17.11    0.59
   3   2  13   16.76    0.61
   4  -2  13   11.50    0.48
   4   2  13   11.07    0.47
  -4   2 -13   11.49    0.45
   5  -2  13   24.19    0.79
   5   2  13   23.75    0.79
   6  -2  13    5.17    0.34
   6   2  13    5.07    0.35
   7  -2  13   40.13    1.16
   7   2  13   38.34    1.17
   8  -2  13    4.73    0.35
   8   2  13    5.34    0.36
   9  -2  13    1.16    0.22
   9   2  13    1.04    0.22
  10   2  13    2.98    0.30
  13  -3 -13    4.16    0.39
  13   3 -13    3.38    0.34
  12  -3 -13    1.20    0.24
  12   3 -13    1.31    0.24
  11  -3 -13   18.09    0.73
  11   3 -13   17.84    0.71
  10  -3 -13    1.06    0.23
  10   3 -13    1.17    0.23
   9  -3 -13    1.44    0.23
   9   3 -13    1.24    0.22
  -8  -3  13   17.52    0.59
   8  -3 -13   17.28    0.66
   8   3 -13   17.71    0.66
   7  -3 -13    2.11    0.24
  -7  -3  13    1.73    0.18
   7   3 -13    1.61    0.22
   6  -3 -13   11.61    0.50
  -6  -3  13   10.98    0.43
   6   3 -13   11.60    0.50
  -6   3  13   10.76    0.41
  -5  -3  13    4.66    0.28
   5  -3 -13    4.52    0.30
   5   3 -13    3.72    0.31
  -5   3  13    4.04    0.25
   4  -3 -13    1.08    0.17
  -4  -3  13    0.93    0.16
   4   3 -13    0.90    0.17
  -4   3  13    0.80    0.15
   3  -3 -13   46.30    1.31
  -3  -3  13   46.02    1.28
  -3   3  13   45.11    1.25
   3   3 -13   47.30    1.32
  -2  -3  13    0.91    0.16
   2  -3 -13    1.26    0.17
  -2   3  13    0.86    0.16
   2   3 -13    0.65    0.16
   1  -3 -13   39.75    1.13
  -1  -3  13   40.79    1.14
  -1   3  13   39.34    1.12
   1   3 -13   39.63    1.15
   0  -3  13    7.82    0.37
   0  -3 -13    8.06    0.36
   0   3  13    8.71    0.38
   0   3 -13    7.99    0.38
   1  -3  13    0.88    0.18
  -1  -3 -13    0.94    0.14
  -1   3 -13    0.90    0.16
   1   3  13    0.73    0.15
  -2  -3 -13    0.56    0.12
   2  -3  13    0.54    0.17
  -2   3 -13    0.48    0.14
   2   3  13    0.16    0.15
   3  -3  13    5.93    0.35
   3   3  13    5.93    0.34
  -3   3 -13    5.60    0.32
   4  -3  13    6.94    0.38
  -4   3 -13    7.11    0.36
   4   3  13    7.33    0.37
   5  -3  13   14.76    0.56
  -5   3 -13   14.63    0.54
   5   3  13   14.32    0.57
   6  -3  13   31.39    0.97
   6   3  13   31.21    0.97
   7  -3  13    2.68    0.26
   7   3  13    2.39    0.25
   8  -3  13    3.56    0.32
   8   3  13    3.02    0.29
   9  -3  13    3.33    0.30
   9   3  13    3.45    0.31
  10   3  13    1.35    0.23
  11   3  13    9.36    0.50
  13  -4 -13    1.55    0.28
  13   4 -13    1.36    0.26
  12  -4 -13    1.33    0.27
  12   4 -13    1.39    0.24
  11  -4 -13    1.55    0.26
  11   4 -13    1.68    0.26
  10  -4 -13   10.94    0.54
  10   4 -13   12.19    0.55
  -9  -4  13   10.03    0.41
   9  -4 -13   10.66    0.52
   9   4 -13    9.81    0.49
  -8  -4  13   24.18    0.75
   8  -4 -13   23.73    0.83
   8   4 -13   24.02    0.83
   7  -4 -13    2.15    0.23
  -7  -4  13    2.07    0.20
   7   4 -13    2.15    0.23
  -6  -4  13    6.97    0.34
   6  -4 -13    6.90    0.38
  -6   4  13    7.12    0.31
   6   4 -13    7.18    0.40
   5  -4 -13   11.39    0.49
  -5  -4  13   10.73    0.45
  -5   4  13   12.03    0.43
   5   4 -13   12.10    0.51
   4  -4 -13    4.77    0.32
  -4  -4  13    5.20    0.31
  -4   4  13    5.09    0.28
   4   4 -13    5.50    0.34
   3  -4 -13    8.77    0.40
  -3  -4  13    8.78    0.38
   3   4 -13    8.49    0.42
  -3   4  13    8.39    0.36
   2  -4 -13    3.90    0.27
  -2  -4  13    3.81    0.27
  -2   4  13    4.04    0.27
   2   4 -13    4.58    0.31
  -1  -4  13   16.48    0.58
   1  -4 -13   15.98    0.56
  -1   4  13   16.02    0.56
   1   4 -13   15.72    0.58
   0  -4 -13    3.23    0.25
   0  -4  13    3.09    0.28
   0   4 -13    3.14    0.25
   0   4  13    3.42    0.27
  -1  -4 -13   41.68    1.14
   1  -4  13   41.81    1.17
   1   4  13   40.06    1.15
  -1   4 -13   40.37    1.18
   2  -4  13    7.50    0.38
  -2  -4 -13    7.04    0.31
   2   4  13    6.58    0.34
  -2   4 -13    7.46    0.36
   3  -4  13   27.33    0.86
   3   4  13   27.97    0.87
  -3   4 -13   28.79    0.87
   4  -4  13   16.96    0.62
   4   4  13   18.46    0.65
  -4   4 -13   17.62    0.62
   5  -4  13    8.44    0.41
  -5   4 -13    7.92    0.37
   5   4  13    6.47    0.40
   6  -4  13    2.69    0.26
   6   4  13    3.34    0.31
   7  -4  13    0.27    0.17
   7   4  13    0.18    0.17
   8  -4  13    1.51    0.23
   8   4  13    1.70    0.24
   9   4  13   19.43    0.73
  10   4  13    0.42    0.20
  11   4  13    1.24    0.24
  12  -5 -13    4.11    0.40
  12   5 -13    3.48    0.33
  11  -5 -13    0.79    0.23
  11   5 -13    0.42    0.18
  10  -5 -13   14.33    0.64
  10   5 -13   14.54    0.62
  -9  -5  13    6.80    0.35
   9  -5 -13    7.49    0.43
   9   5 -13    7.45    0.43
   8  -5 -13    0.23    0.16
  -8  -5  13    0.20    0.13
   8   5 -13    0.28    0.16
  -7  -5  13    2.57    0.24
   7  -5 -13    2.04    0.25
   7   5 -13    2.33    0.24
   6  -5 -13   23.33    0.79
  -6  -5  13   22.86    0.73
   6   5 -13   23.42    0.79
   5  -5 -13    6.38    0.36
  -5  -5  13    6.18    0.32
  -5   5  13    5.99    0.30
   5   5 -13    6.19    0.37
  -4  -5  13   32.57    0.96
   4  -5 -13   32.52    0.99
  -4   5  13   31.94    0.92
   4   5 -13   33.19    1.01
   3  -5 -13    9.70    0.43
  -3  -5  13    9.94    0.43
   3   5 -13    9.11    0.44
  -3   5  13    9.90    0.39
  -2  -5  13   30.67    0.91
   2  -5 -13   30.53    0.91
  -2   5  13   29.16    0.87
   2   5 -13   30.13    0.94
  -1  -5  13   18.49    0.65
   1  -5 -13   19.44    0.64
   1   5 -13   19.83    0.68
  -1   5  13   19.20    0.63
   0  -5  13   47.15    1.29
   0  -5 -13   45.66    1.26
   0   5  13   45.08    1.27
   0   5 -13   45.29    1.31
   1  -5  13   16.10    0.58
  -1  -5 -13   16.01    0.55
  -1   5 -13   16.46    0.60
   1   5  13   17.47    0.59
  -2  -5 -13    0.38    0.11
   2  -5  13    0.23    0.15
  -2   5 -13    0.50    0.15
   2   5  13    0.23    0.15
   3  -5  13   17.94    0.62
   3   5  13   16.62    0.62
  -3   5 -13   17.18    0.62
   4  -5  13   10.99    0.48
  -4   5 -13   12.03    0.50
   4   5  13   11.81    0.50
   5  -5  13   16.62    0.61
   5   5  13   16.75    0.63
  -5   5 -13   17.01    0.61
   6  -5  13   12.14    0.51
   6   5  13   12.12    0.53
   7  -5  13   12.61    0.53
   7   5  13   12.13    0.54
   8  -5  13   -0.02    0.16
   8   5  13    0.26    0.18
   9   5  13    0.56    0.19
  10   5  13    0.23    0.19
  11   5  13    1.67    0.42
  12  -6 -13    0.52    0.21
  12   6 -13    0.77    0.21
  11  -6 -13    2.64    0.32
  11   6 -13    2.22    0.28
  10  -6 -13    6.83    0.45
  10   6 -13    6.36    0.42
  -9  -6  13    2.24    0.22
   9  -6 -13    2.25    0.27
   9   6 -13    1.61    0.23
  -8  -6  13    8.36    0.38
   8  -6 -13    7.82    0.45
   8   6 -13    8.29    0.45
   7  -6 -13    9.03    0.45
  -7  -6  13    9.19    0.41
   7   6 -13    9.18    0.46
   6  -6 -13    4.08    0.31
  -6  -6  13    4.20    0.29
   6   6 -13    3.96    0.32
  -5  -6  13   72.03    1.90
   5  -6 -13   71.79    1.95
  -5   6  13   71.35    1.85
   5   6 -13   72.62    1.97
   4  -6 -13    8.84    0.41
  -4  -6  13    8.59    0.40
  -4   6  13    8.76    0.36
   4   6 -13    8.05    0.43
   3  -6 -13   16.78    0.60
  -3  -6  13   16.02    0.59
  -3   6  13   17.30    0.56
   3   6 -13   16.87    0.63
  -2  -6  13   43.42    1.23
   2  -6 -13   43.62    1.23
  -2   6  13   42.55    1.20
   2   6 -13   44.76    1.28
   1  -6 -13   34.57    1.02
  -1  -6  13   36.13    1.04
   1   6 -13   35.29    1.06
  -1   6  13   34.93    1.01
   0  -6 -13   12.80    0.47
   0  -6  13   13.12    0.51
   0   6  13   12.41    0.47
   0   6 -13   12.41    0.51
   1  -6  13   29.11    0.91
  -1  -6 -13   30.20    0.87
   1   6  13   29.89    0.90
  -1   6 -13   29.50    0.93
   2  -6  13    7.46    0.39
  -2   6 -13    7.85    0.40
   2   6  13    8.05    0.39
   3  -6  13    3.09    0.29
   3   6  13    3.50    0.29
  -3   6 -13    3.49    0.29
   4  -6  13   26.81    0.86
  -4   6 -13   27.20    0.87
   4   6  13   27.30    0.86
   5  -6  13    1.78    0.22
   5   6  13    2.11    0.23
  -5   6 -13    2.17    0.23
   6  -6  13   18.97    0.68
   6   6  13   19.69    0.70
  -6   6 -13   18.66    0.67
   7  -6  13    3.34    0.30
   7   6  13    2.81    0.28
   8  -6  13    3.56    0.33
   8   6  13    4.31    0.35
   9   6  13   11.54    0.55
  10   6  13    0.29    0.19
  12  -7 -13    0.77    0.25
  12   7 -13    0.69    0.24
  11  -7 -13    1.69    0.28
  11   7 -13    1.06    0.23
 -10  -7  13   -0.02    0.13
  10  -7 -13    0.01    0.17
  10   7 -13    0.09    0.17
  -9  -7  13    6.96    0.38
   9  -7 -13    6.76    0.44
   9   7 -13    7.14    0.43
  -8  -7  13    3.44    0.28
   8  -7 -13    3.25    0.31
   8   7 -13    3.15    0.31
   7  -7 -13    0.25    0.16
  -7  -7  13    0.43    0.15
   7   7 -13    0.44    0.17
   6  -7 -13   27.77    0.92
  -6  -7  13   27.88    0.86
   6   7 -13   27.71    0.92
  -5  -7  13    3.75    0.29
   5  -7 -13    3.92    0.32
   5   7 -13    3.80    0.33
  -5   7  13    3.96    0.26
   4  -7 -13   10.81    0.48
  -4  -7  13   11.18    0.46
   4   7 -13   10.48    0.48
  -4   7  13   10.40    0.40
  -3  -7  13   20.93    0.68
   3  -7 -13   19.61    0.68
   3   7 -13   20.18    0.71
  -3   7  13   18.61    0.62
  -2  -7  13   16.92    0.60
   2  -7 -13   16.56    0.60
  -2   7  13   16.29    0.57
   2   7 -13   17.79    0.65
   1  -7 -13   81.80    2.13
  -1  -7  13   83.05    2.14
   1   7 -13   80.95    2.18
  -1   7  13   79.39    2.11
   0  -7  13   10.79    0.46
   0  -7 -13    9.90    0.41
   0   7  13    9.93    0.42
   0   7 -13   10.24    0.47
  -1  -7 -13    8.68    0.36
   1  -7  13    8.37    0.42
   1   7  13    8.57    0.40
  -1   7 -13    8.91    0.42
   2  -7  13   11.19    0.46
   2   7  13   10.56    0.45
  -2   7 -13   10.71    0.48
   3  -7  13    1.26    0.21
  -3   7 -13    1.37    0.20
   3   7  13    1.43    0.21
   4  -7  13    2.03    0.23
  -4   7 -13    1.96    0.23
   4   7  13    1.75    0.22
   5  -7  13    2.53    0.25
  -5   7 -13    2.04    0.24
   5   7  13    1.99    0.22
   6  -7  13    2.51    0.26
   6   7  13    3.44    0.32
  -6   7 -13    2.87    0.27
   7  -7  13    1.64    0.23
   7   7  13    0.73    0.21
   8   7  13    0.50    0.20
   9   7  13    0.62    0.20
  10   7  13    3.56    0.35
  11  -8 -13    8.48    0.52
  11   8 -13    8.98    0.49
 -10  -8  13    0.54    0.17
  10  -8 -13    0.29    0.19
  10   8 -13    0.44    0.19
   9  -8 -13    4.75    0.37
  -9  -8  13    5.15    0.34
   9   8 -13    4.30    0.38
  -8  -8  13    2.44    0.24
   8  -8 -13    2.22    0.27
   8   8 -13    1.90    0.25
   7  -8 -13    0.12    0.16
  -7  -8  13   -0.01    0.13
   7   8 -13    0.19    0.16
   6  -8 -13    2.83    0.28
  -6  -8  13    2.72    0.25
   6   8 -13    2.93    0.29
   5  -8 -13    0.22    0.15
  -5  -8  13    0.28    0.15
   5   8 -13    0.17    0.17
  -4  -8  13   14.47    0.54
   4  -8 -13   14.17    0.56
   4   8 -13   14.51    0.59
  -4   8  13   14.06    0.49
   3  -8 -13    3.16    0.27
  -3  -8  13    3.32    0.28
   3   8 -13    3.23    0.31
  -3   8  13    3.51    0.24
   2  -8 -13    0.82    0.16
  -2  -8  13    1.07    0.17
  -2   8  13    0.91    0.15
   2   8 -13    1.57    0.22
   1  -8 -13    3.45    0.25
  -1  -8  13    3.85    0.28
   1   8 -13    3.32    0.31
  -1   8  13    3.24    0.27
   0  -8  13    8.39    0.41
   0  -8 -13    7.91    0.35
   0   8 -13    7.81    0.42
   0   8  13    8.11    0.38
   1  -8  13   46.45    1.32
  -1   8 -13   47.08    1.36
   1   8  13   45.87    1.30
   2  -8  13   25.02    0.81
   2   8  13   24.67    0.80
  -2   8 -13   24.56    0.83
   3  -8  13    6.73    0.38
   3   8  13    7.54    0.39
  -3   8 -13    7.06    0.40
   4  -8  13   11.68    0.49
  -4   8 -13   11.79    0.52
   4   8  13   11.37    0.49
   5  -8  13   15.29    0.59
  -5   8 -13   15.42    0.61
   6  -8  13    2.02    0.24
  -6   8 -13    2.01    0.25
   7  -8  13    3.55    0.33
   8   8  13    5.29    0.39
   9   8  13    4.85    0.39
  11  -9 -13    4.32    0.41
  11   9 -13    3.69    0.34
  10  -9 -13    0.18    0.19
 -10  -9  13    0.12    0.15
  10   9 -13    0.02    0.17
   9  -9 -13    0.44    0.20
  -9  -9  13    0.44    0.16
   9   9 -13    0.35    0.18
  -8  -9  13    2.45    0.25
   8  -9 -13    2.62    0.29
   8   9 -13    2.64    0.29
  -7  -9  13    0.21    0.15
   7  -9 -13    0.53    0.17
   7   9 -13    0.29    0.16
   6  -9 -13   17.32    0.68
  -6  -9  13   17.96    0.64
   6   9 -13   17.31    0.68
   5  -9 -13   14.92    0.62
  -5  -9  13   16.41    0.60
   5   9 -13   16.02    0.64
  -4  -9  13    3.65    0.30
   4  -9 -13    3.39    0.30
  -4   9  13    3.71    0.25
   4   9 -13    3.73    0.31
   3  -9 -13   21.16    0.73
  -3  -9  13   20.97    0.72
  -3   9  13   21.84    0.67
   3   9 -13   20.78    0.76
   2  -9 -13    9.51    0.42
  -2  -9  13    9.86    0.44
  -2   9  13    9.66    0.40
   2   9 -13    9.12    0.45
  -1  -9  13    1.25    0.20
   1  -9 -13    1.05    0.17
   1   9 -13    1.36    0.22
  -1   9  13    1.23    0.18
   0  -9  13   12.07    0.50
   0  -9 -13   11.82    0.46
   0   9  13   11.98    0.48
   0   9 -13   12.01    0.52
   1  -9  13   19.81    0.70
  -1   9 -13   19.80    0.73
   1   9  13   20.54    0.69
   2  -9  13   32.91    1.02
   2   9  13   33.56    1.01
  -2   9 -13   34.13    1.06
   3  -9  13   10.03    0.46
  -3   9 -13   10.57    0.50
   4  -9  13    4.34    0.33
  -4   9 -13    4.60    0.35
  -5  -9 -13    4.33    0.31
   5  -9  13    4.29    0.33
  -5   9 -13    4.22    0.34
  -6  -9 -13    0.68    0.18
   6  -9  13    0.98    0.20
  -6   9 -13    0.84    0.20
  -7   9 -13    1.49    0.24
 -11 -10  13    2.52    0.29
 -10 -10  13    3.73    0.33
  10 -10 -13    3.82    0.38
  10  10 -13    3.82    0.35
   9 -10 -13    2.77    0.31
  -9 -10  13    3.09    0.28
   9  10 -13    2.86    0.30
  -8 -10  13   13.99    0.56
   8 -10 -13   13.39    0.60
   8  10 -13   13.16    0.60
  -7 -10  13   11.86    0.51
   7 -10 -13   11.65    0.56
   7  10 -13   11.45    0.55
   6 -10 -13   11.45    0.52
  -6 -10  13   11.83    0.50
   6  10 -13   11.34    0.54
   5 -10 -13    6.31    0.39
  -5 -10  13    6.75    0.38
   5  10 -13    5.92    0.40
   4 -10 -13    6.07    0.37
  -4 -10  13    6.45    0.37
   4  10 -13    6.41    0.41
   3 -10 -13    0.47    0.15
  -3 -10  13    0.47    0.16
   3  10 -13    0.72    0.20
  -3  10  13    0.33    0.13
   2 -10 -13    0.81    0.17
  -2 -10  13    0.82    0.18
  -2  10  13    0.94    0.16
   2  10 -13    0.73    0.19
  -1 -10  13    1.55    0.21
   1 -10 -13    1.79    0.20
  -1  10  13    1.56    0.19
   1  10 -13    1.72    0.24
   0 -10 -13    3.62    0.26
   0 -10  13    3.45    0.30
   0  10  13    3.72    0.29
   0  10 -13    3.70    0.31
   1 -10  13   11.00    0.48
  -1  10 -13   10.49    0.50
   2 -10  13   16.76    0.61
  -2  10 -13   16.16    0.65
  -3 -10 -13   16.28    0.61
   3 -10  13   16.04    0.61
  -3  10 -13   15.60    0.65
  -4 -10 -13    0.63    0.19
   4 -10  13    0.60    0.18
  -4  10 -13    0.73    0.20
   5 -10  13    1.52    0.22
  -5 -10 -13    1.53    0.21
  -5  10 -13    1.65    0.24
   6 -10  13    8.72    0.45
  -6 -10 -13    8.53    0.46
  -6  10 -13    8.79    0.47
  -7 -10 -13    8.73    0.48
  -7  10 -13    9.50    0.49
  -8 -10 -13    2.77    0.30
 -11 -11  13    4.29    0.35
 -10 -11  13   12.06    0.53
  10 -11 -13   10.86    0.60
  10  11 -13   11.54    0.56
   9 -11 -13    1.34    0.26
  -9 -11  13    1.31    0.22
   9  11 -13    1.22    0.23
   8 -11 -13    4.72    0.39
  -8 -11  13    4.25    0.34
   8  11 -13    4.46    0.38
  -7 -11  13    3.32    0.31
   7 -11 -13    3.62    0.35
   7  11 -13    3.58    0.35
   6 -11 -13   10.13    0.51
  -6 -11  13    9.87    0.47
   6  11 -13    9.89    0.51
   5 -11 -13    8.83    0.46
  -5 -11  13    8.97    0.45
   5  11 -13    8.78    0.48
  -4 -11  13    5.95    0.35
   4 -11 -13    5.98    0.37
   4  11 -13    5.61    0.40
  -3 -11  13    3.29    0.27
   3 -11 -13    2.92    0.29
   3  11 -13    2.88    0.29
  -3  11  13    3.24    0.25
  -2 -11  13    7.60    0.41
   2 -11 -13    8.53    0.40
  -2  11  13    7.11    0.35
   2  11 -13    7.50    0.44
  -1 -11  13    5.53    0.34
   1 -11 -13    6.75    0.35
   1  11 -13    6.57    0.40
  -1  11  13    6.12    0.34
   0 -11  13   12.99    0.53
   0  11 -13   12.81    0.58
   0  11  13   13.24    0.52
   1 -11  13    6.20    0.37
  -1  11 -13    6.38    0.41
  -2 -11 -13    1.63    0.22
   2 -11  13    1.55    0.22
  -2  11 -13    1.20    0.22
  -3 -11 -13    6.74    0.39
   3 -11  13    6.86    0.39
  -3  11 -13    6.62    0.43
  -4 -11 -13    7.01    0.41
   4 -11  13    7.52    0.41
  -4  11 -13    7.80    0.45
   5 -11  13   16.13    0.62
  -5 -11 -13   17.27    0.65
  -5  11 -13   15.92    0.67
   6 -11  13    2.01    0.25
  -6 -11 -13    2.43    0.27
  -6  11 -13    2.94    0.31
  -7 -11 -13   13.02    0.59
  -7  11 -13   14.09    0.63
  -8 -11 -13    3.67    0.34
 -11 -12  13    1.20    0.23
 -10 -12  13    2.54    0.29
  10  12 -13    2.38    0.31
  -9 -12  13    0.75    0.20
   9 -12 -13    1.00    0.24
   9  12 -13    0.76    0.22
  -8 -12  13   11.81    0.55
   8 -12 -13   13.16    0.62
   8  12 -13   11.44    0.57
  -7 -12  13    1.62    0.24
   7 -12 -13    1.72    0.27
   7  12 -13    1.19    0.23
   6 -12 -13    0.96    0.21
  -6 -12  13    1.27    0.21
   6  12 -13    1.07    0.23
  -5 -12  13    4.66    0.35
   5 -12 -13    4.79    0.36
   5  12 -13    5.00    0.39
  -4 -12  13    1.26    0.21
   4 -12 -13    2.30    0.26
   4  12 -13    1.59    0.25
  -3 -12  13   11.15    0.50
   3 -12 -13   11.30    0.50
   3  12 -13   10.91    0.54
  -3  12  13   10.63    0.51
  -2 -12  13    4.63    0.32
   2 -12 -13    4.04    0.32
  -2  12  13    4.30    0.28
   2  12 -13    4.32    0.37
   1 -12 -13   10.96    0.47
  -1 -12  13   10.18    0.48
   1  12 -13   10.29    0.51
  -1  12  13   10.61    0.45
   0 -12  13    0.46    0.17
   0  12 -13    0.46    0.20
  -1 -12 -13   12.96    0.52
   1 -12  13   12.71    0.54
  -1  12 -13   13.15    0.60
   2 -12  13   11.24    0.51
  -2 -12 -13   11.79    0.51
  -2  12 -13   12.52    0.58
  -3 -12 -13    3.40    0.30
   3 -12  13    3.32    0.31
  -3  12 -13    3.65    0.36
   4 -12  13    3.03    0.28
  -4 -12 -13    3.10    0.29
  -4  12 -13    2.77    0.30
   5 -12  13    5.44    0.36
  -5 -12 -13    5.57    0.38
  -5  12 -13    5.03    0.41
  -6 -12 -13    1.80    0.26
  -6  12 -13    1.61    0.26
  -7 -12 -13    0.34    0.20
  -7  12 -13    0.29    0.20
 -10 -13  13    0.01    0.17
   9 -13 -13    0.92    0.26
  -9 -13  13    0.59    0.20
   9  13 -13    0.64    0.21
   8 -13 -13    0.73    0.23
  -8 -13  13    0.38    0.20
   8  13 -13    0.55    0.21
   7 -13 -13   15.36    0.67
  -7 -13  13   15.97    0.63
   7  13 -13   13.65    0.64
   6 -13 -13    5.96    0.42
  -6 -13  13    5.36    0.38
   6  13 -13    5.84    0.42
   5 -13 -13    3.13    0.32
  -5 -13  13    2.38    0.25
   5  13 -13    2.60    0.31
  -4 -13  13    0.98    0.20
   4 -13 -13    1.30    0.23
   4  13 -13    0.96    0.23
  -3 -13  13    2.50    0.26
   3 -13 -13    2.33    0.25
   3  13 -13    2.60    0.30
  -2 -13  13   13.45    0.57
   2 -13 -13   14.16    0.56
   2  13 -13   12.85    0.59
  -2  13  13   14.26    0.52
  -1 -13  13   13.92    0.56
   1  13 -13   13.90    0.61
   0 -13 -13   12.59    0.51
   0 -13  13   12.73    0.54
   0  13 -13   12.60    0.59
   1 -13  13    9.84    0.48
  -1 -13 -13   10.25    0.46
  -1  13 -13   10.24    0.54
   2 -13  13    2.58    0.27
  -2 -13 -13    2.66    0.25
  -2  13 -13    2.47    0.28
  -3 -13 -13    2.18    0.25
   3 -13  13    2.31    0.26
  -3  13 -13    2.67    0.31
  -4 -13 -13    6.51    0.41
   4 -13  13    7.15    0.40
  -4  13 -13    6.69    0.46
   5 -13  13    3.32    0.31
  -5 -13 -13    3.44    0.31
  -5  13 -13    3.29    0.35
  -6 -13 -13    7.73    0.46
  -6  13 -13    7.14    0.48
  -7  13 -13    2.44    0.31
  -8  13 -13    5.20    0.44
  -9 -14  13   -0.09    0.20
   9  14 -13    0.09    0.19
  -8 -14  13    1.36    0.24
   8 -14 -13    2.05    0.29
   8  14 -13    1.21    0.25
   7 -14 -13    1.08    0.25
  -7 -14  13    1.29    0.24
   7  14 -13    1.48    0.26
   6 -14 -13    0.37    0.20
  -6 -14  13    0.52    0.20
   6  14 -13    0.41    0.21
   5 -14 -13    0.29    0.17
  -5 -14  13    0.04    0.17
   5  14 -13    0.25    0.20
   4 -14 -13   22.78    0.81
  -4 -14  13   21.44    0.78
   4  14 -13   22.19    0.84
  -3 -14  13    1.43    0.23
   3 -14 -13    2.03    0.25
   3  14 -13    1.66    0.27
   2 -14 -13    9.79    0.47
  -2 -14  13    9.42    0.48
   2  14 -13    9.75    0.54
  -2  14  13    9.89    0.46
  -1 -14  13    1.15    0.21
   1  14 -13    1.03    0.25
   0 -14 -13    3.65    0.32
   0 -14  13    2.99    0.28
   0  14 -13    3.17    0.34
   1 -14  13    0.92    0.20
  -1 -14 -13    0.77    0.19
  -1  14 -13    0.75    0.21
   2 -14  13    6.89    0.41
  -2 -14 -13    7.37    0.41
  -2  14 -13    6.46    0.44
   3 -14  13    0.15    0.17
  -3 -14 -13    0.49    0.19
  -3  14 -13    0.16    0.20
  -4 -14 -13    4.13    0.36
   4 -14  13    3.99    0.35
  -4  14 -13    3.61    0.36
  -5 -14 -13    1.71    0.26
  -5  14 -13    1.86    0.29
  -6 -14 -13    0.18    0.19
  -6  14 -13    0.44    0.22
  -7  14 -13    2.06    0.31
   8  15 -13    1.51    0.27
   7 -15 -13    0.20    0.20
  -7 -15  13    0.10    0.19
   7  15 -13    0.18    0.20
   6 -15 -13    8.09    0.50
  -6 -15  13    8.28    0.48
   6  15 -13    8.40    0.51
   5 -15 -13    2.16    0.29
  -5 -15  13    1.96    0.25
   5  15 -13    1.51    0.27
   4 -15 -13    5.84    0.42
  -4 -15  13    5.75    0.40
   4  15 -13    5.54    0.43
  -3 -15  13    7.50    0.43
   3 -15 -13    8.14    0.46
   3  15 -13    7.92    0.50
  -2 -15  13    3.16    0.31
   2  15 -13    2.52    0.32
   1 -15 -13    3.22    0.28
  -1 -15  13    3.07    0.30
   1  15 -13    3.12    0.34
   0 -15  13    1.66    0.24
   0 -15 -13    1.79    0.24
   0  15 -13    2.07    0.30
   1 -15  13   14.32    0.59
  -1 -15 -13   13.73    0.57
  -1  15 -13   13.69    0.65
  -2 -15 -13    1.98    0.25
   2 -15  13    2.17    0.26
  -2  15 -13    2.56    0.33
  -3 -15 -13    5.54    0.39
   3 -15  13    5.48    0.38
  -3  15 -13    6.70    0.45
   4 -15  13   12.39    0.55
  -4 -15 -13   13.30    0.59
  -4  15 -13   12.68    0.65
  -5 -15 -13    2.73    0.30
  -5  15 -13    2.43    0.33
  -6  15 -13    0.38    0.37
   8  16 -13    0.61    0.23
   7 -16 -13    9.55    0.83
   7  16 -13    8.02    0.51
  -6 -16  13    8.47    0.51
   6 -16 -13    8.92    0.53
   6  16 -13    8.53    0.53
  -5 -16  13    9.11    0.50
   5 -16 -13    8.81    0.51
   5  16 -13    8.54    0.55
   4 -16 -13    4.96    0.39
  -4 -16  13    4.87    0.39
   4  16 -13    3.43    0.36
   3 -16 -13    9.58    0.50
  -3 -16  13    8.83    0.47
   3  16 -13    9.18    0.55
  -2 -16  13    2.04    0.27
   2  16 -13    2.43    0.33
  -1 -16  13    0.38    0.18
   1  16 -13    0.58    0.22
   0 -16 -13    8.54    0.45
   0 -16  13    8.57    0.47
   0  16 -13    8.22    0.50
   1 -16  13    0.74    0.20
  -1 -16 -13    0.40    0.19
  -1  16 -13    0.90    0.25
   2 -16  13    4.75    0.37
  -2 -16 -13    5.17    0.38
  -2  16 -13    5.07    0.45
  -3 -16 -13    2.97    0.30
   3 -16  13    3.26    0.31
  -3  16 -13    3.32    0.37
  -4 -16 -13    5.85    0.41
  -4  16 -13    6.05    0.49
   7  17 -13    0.09    0.31
   6 -17 -13    1.33    0.32
   6  17 -13    1.03    0.27
   5 -17 -13    2.28    0.30
   5  17 -13    1.55    0.28
  -4 -17  13    2.69    0.31
   4 -17 -13    2.76    0.32
   4  17 -13    2.57    0.33
  -3 -17  13   10.78    0.54
   3  17 -13   10.39    0.60
  -2 -17  13    1.42    0.23
   2  17 -13    2.08    0.31
  -1 -17  13    1.76    0.26
   1  17 -13    1.92    0.31
   0 -17  13   -0.04    0.18
   0 -17 -13    0.29    0.18
   0  17 -13   -0.05    0.21
   1 -17  13    0.79    0.21
  -1 -17 -13    0.36    0.19
  -1  17 -13    0.76    0.26
   2 -17  13    0.91    0.22
  -2 -17 -13    0.94    0.22
  -2  17 -13    1.22    0.28
   3 -17  13    3.23    0.31
  -3 -17 -13    3.81    0.35
   5 -18 -13    3.86    0.50
   4 -18 -13    0.70    0.23
   3  18 -13   11.35    0.90
  -2 -18  13    2.34    0.37
   2  18 -13    3.00    0.55
  -1 -18  13    0.79    0.23
   0 -18  13    1.66    0.26
   1 -18  13    7.71    0.46
  -1 -18 -13    7.62    0.45
  -2 -18 -13   11.19    0.56
   2 -18  13   11.41    0.55
  -1 -19 -13    4.17    0.41
  13   0 -14    0.17    0.20
  12   0 -14    0.11    0.19
  11   0 -14   16.78    0.70
  10   0 -14    2.38    0.28
   9   0 -14    0.16    0.17
   8   0 -14    3.38    0.30
  -7   0  14   10.53    0.41
   7   0 -14   10.47    0.50
  -6   0  14    4.10    0.28
   6   0 -14    4.33    0.33
   5   0 -14    0.51    0.17
  -5   0  14    0.28    0.14
   4   0 -14   20.68    0.71
  -4   0  14   20.30    0.66
  -3   0  14    6.80    0.35
   3   0 -14    6.84    0.36
  -2   0  14   41.40    1.17
   2   0 -14   41.11    1.19
   1   0 -14   23.95    0.77
  -1   0  14   23.93    0.76
   0   0 -14   13.44    0.52
   0   0  14   13.85    0.53
  -1   0 -14   63.72    1.71
   1   0  14   63.73    1.71
   2   0  14    1.64    0.22
  -2   0 -14    1.65    0.19
  -3   0 -14   59.32    1.62
   3   0  14   62.30    1.66
   4   0  14    2.35    0.25
   5   0  14    1.36    0.22
   6   0  14   28.84    0.93
   7   0  14   23.49    0.81
   8   0  14    6.01    0.39
   9   0  14   15.82    0.64
  10   0  14    5.36    0.40
  13  -1 -14    2.55    0.37
  13   1 -14    2.23    0.31
  12  -1 -14    2.73    0.32
  12   1 -14    2.72    0.31
  11  -1 -14    7.57    0.48
  11   1 -14    7.77    0.47
  10  -1 -14   10.51    0.54
  10   1 -14   10.93    0.54
   9  -1 -14    5.36    0.39
   9   1 -14    5.15    0.38
   8  -1 -14    4.17    0.35
  -8  -1  14    4.31    0.29
   8   1 -14    5.04    0.36
  -7  -1  14   21.58    0.68
   7  -1 -14   21.65    0.77
   7   1 -14   21.21    0.76
  -7   1  14   21.42    0.67
   6  -1 -14    3.23    0.30
  -6  -1  14    3.34    0.27
   6   1 -14    3.41    0.30
  -6   1  14    3.43    0.25
  -5  -1  14    9.82    0.41
   5  -1 -14    9.28    0.43
  -5   1  14    8.98    0.39
   5   1 -14    9.07    0.43
   4  -1 -14   11.85    0.50
  -4  -1  14   12.16    0.47
   4   1 -14   12.06    0.50
  -4   1  14   11.88    0.46
  -3  -1  14    0.00    0.13
   3  -1 -14   -0.03    0.13
   3   1 -14   -0.04    0.11
  -3   1  14    0.08    0.12
  -2  -1  14    6.70    0.35
   2  -1 -14    6.59    0.35
  -2   1  14    6.72    0.35
   2   1 -14    6.81    0.37
  -1  -1  14   20.42    0.68
   1  -1 -14   20.45    0.69
   1   1 -14   21.90    0.71
  -1   1  14   20.73    0.68
   0  -1 -14   94.83    2.49
   0  -1  14   95.53    2.49
   0   1 -14   97.61    2.50
   0   1  14   97.82    2.49
  -1  -1 -14  142.80    3.61
   1  -1  14  146.57    3.63
  -1   1 -14  143.20    3.62
   1   1  14  142.76    3.62
  -2  -1 -14   13.88    0.50
   2  -1  14   13.92    0.53
   2   1  14   14.50    0.55
  -2   1 -14   13.37    0.51
  -3  -1 -14    2.18    0.20
   3  -1  14    1.92    0.23
   3   1  14    1.78    0.21
  -3   1 -14    1.83    0.20
   4  -1  14   23.49    0.77
   4   1  14   22.70    0.77
   5  -1  14    2.09    0.23
   5   1  14    2.53    0.26
   6  -1  14   45.42    1.33
   6   1  14   46.76    1.34
   7  -1  14    6.86    0.41
   7   1  14    7.37    0.42
   8  -1  14    9.80    0.49
   8   1  14   10.28    0.49
   9  -1  14    0.62    0.19
   9   1  14    0.69    0.20
  10   1  14   10.22    0.53
  13   2 -14    8.63    0.52
  12  -2 -14    0.21    0.20
  12   2 -14    0.26    0.19
  11  -2 -14    4.98    0.42
  11   2 -14    5.37    0.41
  10  -2 -14    0.19    0.18
  10   2 -14    0.25    0.19
   9  -2 -14    7.48    0.45
   9   2 -14    8.20    0.46
   8  -2 -14    1.74    0.25
  -8  -2  14    1.42    0.18
   8   2 -14    2.24    0.26
   7  -2 -14    4.85    0.35
  -7  -2  14    4.14    0.27
   7   2 -14    3.87    0.33
   6  -2 -14    0.14    0.14
  -6  -2  14   -0.04    0.12
  -6   2  14    0.00    0.13
   6   2 -14    0.13    0.15
  -5  -2  14    3.61    0.27
   5  -2 -14    3.63    0.28
   5   2 -14    3.32    0.28
  -5   2  14    3.63    0.26
   4  -2 -14    6.76    0.38
  -4  -2  14    7.19    0.36
  -4   2  14    7.75    0.35
   4   2 -14    7.64    0.40
  -3  -2  14   11.74    0.47
   3  -2 -14   11.96    0.49
   3   2 -14   12.15    0.50
  -3   2  14   11.61    0.45
   2  -2 -14    3.01    0.26
  -2  -2  14    2.86    0.27
   2   2 -14    2.33    0.24
  -2   2  14    2.76    0.25
   1  -2 -14   11.74    0.47
  -1  -2  14   11.90    0.48
   1   2 -14   12.11    0.49
  -1   2  14   11.91    0.47
   0  -2 -14    0.98    0.16
   0  -2  14    1.00    0.19
   0   2  14    1.11    0.19
   0   2 -14    0.74    0.16
  -1  -2 -14   10.12    0.42
   1  -2  14   11.17    0.45
  -1   2 -14   10.92    0.45
   1   2  14    9.89    0.45
  -2  -2 -14    6.72    0.32
   2  -2  14    6.76    0.37
  -2   2 -14    5.84    0.33
   2   2  14    5.68    0.35
   3  -2  14   56.65    1.55
   3   2  14   55.71    1.55
  -3   2 -14   56.44    1.54
   4  -2  14   10.51    0.47
  -4   2 -14    9.54    0.42
   4   2  14    9.48    0.46
   5  -2  14   13.73    0.56
   5   2  14   13.98    0.55
   6  -2  14   15.88    0.62
   6   2  14   16.17    0.63
   7  -2  14    3.79    0.34
   7   2  14    3.91    0.35
   8  -2  14    5.21    0.39
   8   2  14    5.74    0.39
   9  -2  14    2.45    0.28
   9   2  14    2.23    0.27
  10   2  14    2.03    0.27
  13   3 -14    1.95    0.30
  12  -3 -14   13.38    0.64
  12   3 -14   13.53    0.63
  11  -3 -14   15.68    0.68
  11   3 -14   14.11    0.64
  10  -3 -14   11.68    0.58
  10   3 -14   11.32    0.55
   9  -3 -14    4.27    0.36
   9   3 -14    4.30    0.36
  -8  -3  14   12.29    0.48
   8  -3 -14   12.57    0.56
   8   3 -14   14.09    0.59
  -7  -3  14   11.44    0.45
   7  -3 -14   11.09    0.51
   7   3 -14   10.66    0.50
  -6  -3  14    6.92    0.35
   6  -3 -14    7.56    0.41
  -6   3  14    7.12    0.34
   6   3 -14    7.61    0.40
  -5  -3  14   13.87    0.52
   5  -3 -14   13.98    0.56
  -5   3  14   13.69    0.50
   5   3 -14   14.55    0.58
  -4  -3  14   10.81    0.45
   4  -3 -14   10.84    0.48
  -4   3  14   10.49    0.42
   4   3 -14   11.48    0.50
  -3  -3  14   38.46    1.10
   3  -3 -14   36.45    1.11
   3   3 -14   38.92    1.14
  -3   3  14   38.02    1.07
  -2  -3  14    4.52    0.31
   2  -3 -14    4.64    0.30
  -2   3  14    4.11    0.28
   2   3 -14    4.31    0.31
   1  -3 -14    9.70    0.42
  -1  -3  14    9.62    0.44
  -1   3  14   10.00    0.42
   1   3 -14    9.43    0.44
   0  -3  14   11.37    0.48
   0  -3 -14   11.65    0.45
   0   3  14   11.71    0.47
   0   3 -14   11.70    0.48
  -1  -3 -14    2.00    0.19
   1  -3  14    1.31    0.19
  -1   3 -14    1.58    0.20
   1   3  14    1.74    0.22
  -2  -3 -14    4.00    0.25
   2  -3  14    3.52    0.31
   2   3  14    4.17    0.31
  -2   3 -14    3.73    0.28
   3  -3  14    2.62    0.25
  -3   3 -14    3.00    0.26
   3   3  14    2.87    0.27
   4  -3  14   33.02    1.00
  -4   3 -14   32.12    0.98
   4   3  14   32.74    1.01
   5  -3  14   21.99    0.76
   5   3  14   23.02    0.78
   6  -3  14    8.78    0.45
   6   3  14    8.88    0.44
   7  -3  14   24.66    0.82
   7   3  14   23.61    0.83
   8  -3  14    4.48    0.36
   8   3  14    4.41    0.37
   9  -3  14    0.45    0.20
   9   3  14    0.64    0.21
  10   3  14   14.67    0.64
  13   4 -14    0.79    0.23
  12  -4 -14    1.71    0.28
  12   4 -14    1.98    0.28
  11  -4 -14    7.06    0.45
  11   4 -14    7.02    0.45
  10  -4 -14    0.34    0.20
  10   4 -14    0.50    0.19
   9  -4 -14    1.66    0.24
  -9  -4  14    1.64    0.19
   9   4 -14    0.92    0.21
  -8  -4  14    3.05    0.26
   8  -4 -14    3.21    0.30
   8   4 -14    3.52    0.33
   7  -4 -14    2.14    0.24
  -7  -4  14    2.51    0.23
   7   4 -14    2.09    0.23
   6  -4 -14    0.15    0.15
  -6  -4  14    0.21    0.13
  -6   4  14    0.31    0.13
   6   4 -14   -0.11    0.14
  -5  -4  14   12.71    0.50
   5  -4 -14   12.45    0.52
  -5   4  14   12.77    0.46
   5   4 -14   13.09    0.55
   4  -4 -14    9.79    0.45
  -4  -4  14    9.60    0.43
   4   4 -14    9.74    0.45
  -4   4  14    9.48    0.40
  -3  -4  14   44.18    1.25
   3  -4 -14   43.60    1.26
   3   4 -14   45.13    1.30
  -3   4  14   43.60    1.22
  -2  -4  14   16.55    0.61
   2  -4 -14   17.89    0.62
   2   4 -14   17.43    0.64
  -2   4  14   18.14    0.60
   1  -4 -14    3.03    0.24
  -1  -4  14    2.76    0.25
  -1   4  14    2.71    0.23
   1   4 -14    3.19    0.28
   0  -4  14    5.65    0.32
   0  -4 -14    5.17    0.30
   0   4 -14    5.04    0.31
   0   4  14    4.59    0.31
  -1  -4 -14   20.05    0.64
   1  -4  14   20.08    0.68
   1   4  14   18.75    0.65
  -1   4 -14   19.50    0.68
  -2  -4 -14    9.38    0.43
   2  -4  14    9.34    0.44
   2   4  14    9.09    0.42
  -2   4 -14    9.58    0.43
   3  -4  14   10.46    0.48
   3   4  14   11.12    0.47
  -3   4 -14   10.58    0.47
   4  -4  14    3.72    0.30
   4   4  14    3.75    0.30
  -4   4 -14    3.97    0.30
   5  -4  14    8.18    0.43
  -5   4 -14    9.33    0.46
   5   4  14    8.91    0.45
   6  -4  14    4.00    0.34
   6   4  14    4.39    0.35
   7  -4  14    8.35    0.46
   7   4  14    8.15    0.45
   8  -4  14    8.53    0.46
   8   4  14    9.68    0.50
   9   4  14    1.80    0.26
  10   4  14    1.46    0.25
  12  -5 -14    9.13    0.55
  12   5 -14    8.41    0.51
  11  -5 -14    0.63    0.22
  11   5 -14    0.73    0.21
  10  -5 -14    4.99    0.40
  10   5 -14    5.08    0.39
   9  -5 -14    9.60    0.51
  -9  -5  14    9.86    0.43
   9   5 -14    9.17    0.50
  -8  -5  14    8.54    0.40
   8  -5 -14    9.17    0.49
   8   5 -14    9.53    0.48
  -7  -5  14    1.10    0.17
   7  -5 -14    0.89    0.19
   7   5 -14    0.61    0.19
   6  -5 -14    2.28    0.24
  -6  -5  14    2.48    0.22
   6   5 -14    2.20    0.25
   5  -5 -14    1.52    0.21
  -5  -5  14    1.84    0.20
   5   5 -14    1.88    0.24
  -5   5  14    1.76    0.18
  -4  -5  14   36.33    1.07
   4  -5 -14   37.73    1.12
   4   5 -14   37.48    1.13
  -4   5  14   35.88    1.04
  -3  -5  14    2.51    0.24
   3  -5 -14    2.24    0.22
   3   5 -14    2.17    0.23
  -3   5  14    2.90    0.26
   2  -5 -14   17.75    0.62
  -2  -5  14   16.89    0.62
   2   5 -14   18.63    0.66
  -2   5  14   17.54    0.60
  -1  -5  14    2.10    0.23
   1  -5 -14    2.09    0.21
   1   5 -14    2.16    0.23
  -1   5  14    2.04    0.21
   0  -5 -14   37.30    1.09
   0  -5  14   39.05    1.12
   0   5  14   38.36    1.10
   0   5 -14   37.48    1.14
   1  -5  14    1.70    0.21
  -1  -5 -14    1.82    0.18
  -1   5 -14    1.35    0.20
   1   5  14    1.61    0.20
   2  -5  14    1.83    0.23
   2   5  14    1.21    0.18
  -2   5 -14    1.67    0.21
   3  -5  14   45.84    1.30
  -3   5 -14   45.68    1.31
   3   5  14   44.53    1.30
   4  -5  14   10.71    0.46
  -4   5 -14   10.28    0.46
   4   5  14   10.84    0.49
   5  -5  14    4.83    0.34
  -5   5 -14    4.63    0.33
   5   5  14    5.04    0.34
   6  -5  14    1.00    0.21
   6   5  14    0.84    0.22
   7  -5  14   13.50    0.58
   7   5  14   13.28    0.58
   8  -5  14    0.31    0.18
   8   5  14    0.82    0.22
   9   5  14    0.43    0.20
  10   5  14    1.02    0.25
  12   6 -14    3.86    0.37
  11  -6 -14    5.64    0.44
  11   6 -14    5.65    0.43
  10  -6 -14   16.25    0.70
  10   6 -14   16.07    0.68
   9  -6 -14    2.91    0.31
  -9  -6  14    2.71    0.25
   9   6 -14    2.92    0.31
  -8  -6  14    1.10    0.18
   8  -6 -14    1.46    0.24
   8   6 -14    1.88    0.25
   7  -6 -14    3.12    0.30
  -7  -6  14    2.67    0.24
   7   6 -14    2.42    0.27
  -6  -6  14    0.35    0.14
   6  -6 -14    0.30    0.17
   6   6 -14    0.30    0.16
  -5  -6  14   19.72    0.67
   5  -6 -14   19.76    0.71
  -5   6  14   19.14    0.61
   5   6 -14   18.39    0.71
   4  -6 -14    5.35    0.33
  -4  -6  14    5.64    0.34
   4   6 -14    6.55    0.39
  -4   6  14    5.78    0.31
   3  -6 -14    2.42    0.24
  -3  -6  14    2.64    0.25
  -3   6  14    2.47    0.23
   3   6 -14    2.69    0.27
   2  -6 -14    2.75    0.25
  -2  -6  14    3.16    0.27
  -2   6  14    2.80    0.25
   2   6 -14    2.48    0.26
   1  -6 -14    4.46    0.29
  -1  -6  14    4.38    0.32
  -1   6  14    4.71    0.30
   1   6 -14    4.60    0.33
   0  -6 -14    4.49    0.29
   0  -6  14    5.56    0.35
   0   6 -14    4.64    0.34
   0   6  14    4.76    0.31
  -1  -6 -14    2.20    0.20
   1  -6  14    2.70    0.26
   1   6  14    1.75    0.21
  -1   6 -14    2.42    0.25
   2  -6  14   19.14    0.67
  -2   6 -14   19.24    0.69
   2   6  14   18.47    0.67
   3  -6  14   13.30    0.54
   3   6  14   12.85    0.54
  -3   6 -14   12.61    0.53
   4  -6  14    0.25    0.16
   4   6  14    0.46    0.17
  -4   6 -14    0.08    0.14
   5  -6  14    1.19    0.21
  -5   6 -14    1.32    0.20
   5   6  14    1.32    0.21
   6  -6  14    6.18    0.38
   6   6  14    6.25    0.40
   7  -6  14    7.71    0.43
   7   6  14    7.65    0.45
   8  -6  14    4.99    0.37
   8   6  14    5.47    0.40
   9   6  14    9.08    0.50
  12   7 -14   11.35    0.58
  11  -7 -14    4.33    0.41
  11   7 -14    3.90    0.37
  10  -7 -14   20.33    0.81
 -10  -7  14   21.36    0.78
  10   7 -14   20.97    0.81
   9  -7 -14    2.64    0.31
  -9  -7  14    3.07    0.28
   9   7 -14    2.90    0.31
  -8  -7  14    7.18    0.38
   8  -7 -14    6.41    0.43
   8   7 -14    6.72    0.43
  -7  -7  14   13.62    0.53
   7  -7 -14   13.76    0.60
   7   7 -14   12.84    0.58
  -6  -7  14   15.16    0.57
   6  -7 -14   14.85    0.62
   6   7 -14   16.12    0.64
   5  -7 -14    1.61    0.23
  -5  -7  14    2.17    0.23
   5   7 -14    2.27    0.27
   4  -7 -14    1.22    0.20
  -4  -7  14    0.80    0.18
  -4   7  14    1.19    0.16
   4   7 -14    0.96    0.20
  -3  -7  14    9.87    0.45
   3  -7 -14   10.20    0.46
  -3   7  14    9.82    0.41
   3   7 -14   10.17    0.49
   2  -7 -14   14.60    0.56
  -2  -7  14   14.36    0.57
   2   7 -14   15.88    0.62
  -2   7  14   15.42    0.54
   1  -7 -14   13.95    0.53
  -1  -7  14   13.27    0.55
  -1   7  14   14.37    0.53
   1   7 -14   14.56    0.59
   0  -7 -14    9.41    0.41
   0  -7  14   10.08    0.46
   0   7  14   10.00    0.43
   0   7 -14    9.66    0.47
   1  -7  14   25.80    0.85
  -1   7 -14   26.68    0.88
   1   7  14   26.31    0.84
   2  -7  14    3.05    0.27
  -2   7 -14    3.45    0.30
   2   7  14    3.16    0.27
   3  -7  14    2.69    0.26
  -3   7 -14    3.66    0.31
   3   7  14    3.37    0.30
   4  -7  14    1.00    0.20
   4   7  14    1.27    0.21
  -4   7 -14    1.34    0.21
   5  -7  14   10.18    0.48
   5   7  14   10.57    0.50
  -5   7 -14   10.85    0.49
   6  -7  14   12.58    0.56
  -6   7 -14   13.93    0.62
   6   7  14   12.91    0.57
   7  -7  14    3.60    0.31
   7   7  14    3.45    0.32
   8   7  14    4.44    0.35
   9   7  14    0.27    0.20
  11  -8 -14    0.16    0.21
  11   8 -14    0.43    0.20
 -10  -8  14    8.21    0.43
  10  -8 -14    8.13    0.50
  10   8 -14    7.60    0.47
  -9  -8  14    0.81    0.19
   9  -8 -14    0.62    0.21
   9   8 -14    0.68    0.20
  -8  -8  14   10.84    0.48
   8  -8 -14   10.69    0.55
   8   8 -14   10.35    0.53
   7  -8 -14    3.24    0.31
  -7  -8  14    3.16    0.29
   7   8 -14    3.50    0.34
   6  -8 -14   11.69    0.53
  -6  -8  14   11.56    0.50
   6   8 -14   11.89    0.54
  -5  -8  14   10.45    0.47
   5  -8 -14   10.30    0.50
   5   8 -14   11.16    0.53
   4  -8 -14    6.07    0.37
  -4  -8  14    5.91    0.34
   4   8 -14    5.71    0.39
  -4   8  14    6.06    0.31
   3  -8 -14    4.28    0.31
  -3  -8  14    4.08    0.31
  -3   8  14    4.39    0.28
   3   8 -14    4.39    0.35
  -2  -8  14    2.28    0.24
   2  -8 -14    2.21    0.23
  -2   8  14    2.13    0.21
   2   8 -14    2.04    0.25
  -1  -8  14    6.51    0.35
   1  -8 -14    6.02    0.34
  -1   8  14    5.93    0.33
   1   8 -14    6.22    0.39
   0  -8  14    3.37    0.30
   0  -8 -14    2.78    0.24
   0   8 -14    2.43    0.26
   0   8  14    2.88    0.25
   1  -8  14    3.69    0.32
   1   8  14    3.97    0.31
  -1   8 -14    4.20    0.32
   2  -8  14    4.50    0.34
  -2   8 -14    4.18    0.34
   2   8  14    4.33    0.30
   3  -8  14    1.64    0.21
   3   8  14    2.57    0.26
  -3   8 -14    2.09    0.25
   4  -8  14    2.81    0.27
  -4   8 -14    3.35    0.33
   4   8  14    3.23    0.29
   5  -8  14    0.21    0.17
  -5   8 -14    0.13    0.16
   5   8  14    0.43    0.17
   6  -8  14   -0.05    0.17
  -6   8 -14   -0.11    0.15
   6   8  14   -0.05    0.16
   7  -8  14    2.39    0.27
   7   8  14    2.60    0.30
   8   8  14    0.57    0.20
  11   9 -14    9.82    0.55
  10  -9 -14    0.28    0.21
 -10  -9  14    0.47    0.17
  10   9 -14    0.19    0.18
   9  -9 -14    0.33    0.20
  -9  -9  14    0.49    0.17
   9   9 -14    0.33    0.20
   8  -9 -14   13.30    0.61
  -8  -9  14   12.56    0.53
   8   9 -14   12.38    0.59
   7  -9 -14   13.60    0.61
  -7  -9  14   13.32    0.55
   7   9 -14   13.77    0.60
  -6  -9  14    5.92    0.35
   6  -9 -14    6.57    0.41
   6   9 -14    5.74    0.40
  -5  -9  14   16.83    0.63
   5  -9 -14   16.15    0.65
   5   9 -14   16.62    0.67
  -4  -9  14    0.92    0.20
   4  -9 -14    1.08    0.20
  -4   9  14    0.88    0.16
   4   9 -14    1.18    0.22
   3  -9 -14    1.98    0.23
  -3  -9  14    1.39    0.21
   3   9 -14    1.70    0.23
  -3   9  14    1.58    0.19
  -2  -9  14    6.61    0.38
   2  -9 -14    7.20    0.38
   2   9 -14    6.41    0.42
  -2   9  14    7.18    0.35
   1  -9 -14   10.35    0.44
  -1  -9  14   10.34    0.48
  -1   9  14   10.38    0.45
   1   9 -14   10.79    0.52
   0  -9  14    6.52    0.38
   0  -9 -14    6.67    0.35
   0   9  14    6.17    0.36
   0   9 -14    6.23    0.41
   1  -9  14   10.73    0.48
   1   9  14    9.81    0.46
  -1   9 -14    9.91    0.50
   2  -9  14    1.85    0.23
   2   9  14    2.14    0.24
  -2   9 -14    2.12    0.26
   3  -9  14    2.41    0.24
   3   9  14    2.49    0.26
  -3   9 -14    2.52    0.27
   4  -9  14   10.03    0.48
   4   9  14   10.23    0.49
  -4   9 -14    9.76    0.49
   5  -9  14    1.15    0.21
  -5   9 -14    1.14    0.22
   6  -9  14    1.77    0.24
  -6   9 -14    1.37    0.23
   6   9  14    1.47    0.22
   7   9  14    2.99    0.32
   8   9  14    2.96    0.31
  11  10 -14    5.64    0.45
  10 -10 -14    1.51    0.28
 -10 -10  14    1.54    0.24
  10  10 -14    1.66    0.26
  -9 -10  14    4.08    0.35
   9 -10 -14    4.12    0.39
   9  10 -14    3.89    0.37
  -8 -10  14    0.47    0.18
   8 -10 -14    0.38    0.20
   8  10 -14    0.37    0.19
  -7 -10  14    1.57    0.22
   7 -10 -14    1.88    0.27
   7  10 -14    1.92    0.26
  -6 -10  14    1.67    0.23
   6 -10 -14    1.52    0.24
   6  10 -14    1.43    0.23
   5 -10 -14    2.08    0.26
  -5 -10  14    1.66    0.23
   5  10 -14    1.95    0.26
  -4 -10  14    7.24    0.40
   4 -10 -14    6.26    0.38
   4  10 -14    5.93    0.42
   3 -10 -14    1.44    0.21
  -3 -10  14    1.39    0.22
  -3  10  14    1.54    0.18
   3  10 -14    1.45    0.23
   2 -10 -14    0.26    0.14
  -2 -10  14    0.26    0.16
   2  10 -14    0.43    0.19
  -2  10  14    0.51    0.15
  -1 -10  14    3.33    0.31
   1 -10 -14    3.06    0.26
   1  10 -14    3.53    0.34
  -1  10  14    3.64    0.30
   0 -10  14   13.81    0.56
   0  10 -14   14.04    0.60
   0  10  14   12.95    0.54
   1 -10  14    0.29    0.17
  -1  10 -14    0.42    0.18
   1  10  14    0.38    0.15
   2 -10  14    5.84    0.37
  -2  10 -14    5.99    0.41
   2  10  14    6.12    0.37
   3 -10  14    2.58    0.26
   3  10  14    3.10    0.29
  -3  10 -14    2.34    0.27
   4 -10  14    3.96    0.34
  -4  10 -14    4.47    0.37
   5 -10  14    0.45    0.19
  -5  10 -14    0.05    0.18
   6 -10  14    2.05    0.26
  -6  10 -14    2.68    0.30
 -11 -11  14    0.30    0.20
 -10 -11  14    0.74    0.21
  10  11 -14    0.93    0.23
  -9 -11  14    4.06    0.35
   9 -11 -14    4.03    0.38
   9  11 -14    3.66    0.36
  -8 -11  14    9.26    0.47
   8 -11 -14    9.14    0.52
   8  11 -14    8.46    0.50
   7 -11 -14    4.74    0.39
  -7 -11  14    4.09    0.34
   7  11 -14    4.29    0.37
   6 -11 -14    6.13    0.41
  -6 -11  14    5.66    0.37
   6  11 -14    5.33    0.40
   5 -11 -14    0.81    0.19
  -5 -11  14    0.39    0.17
   5  11 -14    0.64    0.21
  -4 -11  14   14.80    0.60
   4 -11 -14   15.02    0.61
   4  11 -14   14.95    0.65
   3 -11 -14    5.08    0.36
  -3 -11  14    6.10    0.38
   3  11 -14    5.61    0.39
  -3  11  14    5.51    0.31
   2 -11 -14    1.34    0.20
  -2 -11  14    1.30    0.21
  -2  11  14    1.48    0.20
   2  11 -14    1.24    0.23
   1 -11 -14    1.25    0.19
  -1 -11  14    1.34    0.22
   1  11 -14    0.96    0.22
  -1  11  14    1.40    0.20
   0 -11  14    3.73    0.32
   0  11 -14    3.63    0.33
   0  11  14    4.07    0.31
   1 -11  14    4.39    0.32
   1  11  14    4.54    0.33
  -1  11 -14    4.44    0.38
   2 -11  14    3.10    0.29
  -2  11 -14    3.58    0.35
   2  11  14    3.58    0.32
   3 -11  14   10.52    0.49
  -3  11 -14   10.10    0.53
   4 -11  14    0.41    0.18
  -4  11 -14    0.31    0.19
   5 -11  14    0.78    0.20
  -5  11 -14    0.54    0.21
   6 -11  14    8.24    0.44
  -6  11 -14    7.51    0.48
  -7  11 -14    5.46    0.42
 -10 -12  14    2.66    0.30
  10  12 -14    1.91    0.29
   9 -12 -14   11.42    0.65
  -9 -12  14   10.17    0.52
   9  12 -14   10.88    0.57
  -8 -12  14    6.99    0.43
   8 -12 -14    7.39    0.49
   8  12 -14    7.03    0.46
  -7 -12  14    3.98    0.35
   7 -12 -14    4.34    0.39
   7  12 -14    3.95    0.38
  -6 -12  14    0.15    0.17
   6 -12 -14    0.12    0.17
   6  12 -14    0.12    0.19
   5 -12 -14   14.19    0.61
  -5 -12  14   13.66    0.58
   5  12 -14   14.11    0.64
  -4 -12  14    6.21    0.40
   4 -12 -14    6.78    0.41
   4  12 -14    6.71    0.45
   3 -12 -14    4.02    0.33
  -3 -12  14    4.17    0.34
   3  12 -14    4.57    0.39
   2 -12 -14    2.63    0.26
  -2 -12  14    2.61    0.26
  -2  12  14    3.09    0.28
   2  12 -14    2.82    0.32
  -1 -12  14    3.51    0.33
   1  12 -14    3.57    0.34
  -1  12  14    3.94    0.30
   0 -12  14   11.62    0.53
   0  12 -14   11.41    0.56
   0  12  14   11.85    0.50
   1 -12  14    5.71    0.39
  -1  12 -14    6.33    0.44
   1  12  14    6.88    0.39
   2 -12  14    3.54    0.33
  -2  12 -14    3.79    0.37
  -3 -12 -14   13.87    0.58
   3 -12  14   13.99    0.58
  -3  12 -14   13.77    0.64
  -4 -12 -14    6.27    0.41
   4 -12  14    7.00    0.41
  -4  12 -14    6.80    0.46
   5 -12  14    1.71    0.24
  -5 -12 -14    1.44    0.24
  -5  12 -14    1.42    0.26
  -6 -12 -14    5.59    0.42
  -6  12 -14    5.53    0.43
  -7  12 -14    0.58    0.22
  -9 -13  14    0.22    0.19
   9  13 -14    0.32    0.20
   8 -13 -14    1.40    0.27
  -8 -13  14    1.58    0.25
   8  13 -14    0.88    0.24
  -7 -13  14    0.32    0.18
   7 -13 -14    0.58    0.22
   7  13 -14    0.56    0.22
   6 -13 -14    3.64    0.35
  -6 -13  14    4.04    0.35
   6  13 -14    2.81    0.33
   5 -13 -14    3.71    0.35
  -5 -13  14    3.64    0.33
   5  13 -14    2.75    0.31
   4 -13 -14    9.38    0.49
  -4 -13  14    9.05    0.48
   4  13 -14    8.88    0.52
   3 -13 -14    5.49    0.39
  -3 -13  14    5.57    0.39
   3  13 -14    5.11    0.42
   2 -13 -14   17.48    0.66
  -2 -13  14   17.66    0.68
   2  13 -14   17.43    0.73
  -2  13  14   17.60    0.63
  -1 -13  14    4.80    0.36
  -1  13  14    4.14    0.32
   1  13 -14    4.33    0.39
   0 -13  14    0.54    0.18
   0  13  14    0.77    0.18
   0  13 -14    0.77    0.23
   1 -13  14   11.62    0.54
  -1  13 -14   11.89    0.59
  -2 -13 -14    5.00    0.37
   2 -13  14    4.97    0.38
  -2  13 -14    4.76    0.41
   3 -13  14   24.13    0.84
  -3 -13 -14   24.24    0.85
  -3  13 -14   25.66    0.93
   4 -13  14   11.37    0.52
  -4 -13 -14   11.67    0.54
  -4  13 -14   10.38    0.57
  -5 -13 -14    9.34    0.50
   5 -13  14    9.10    0.47
  -5  13 -14    9.32    0.54
  -6 -13 -14    1.50    0.39
  -6  13 -14    1.25    0.27
  -7  13 -14    2.47    0.33
   9  14 -14    2.95    0.34
  -8 -14  14    2.51    0.36
   8  14 -14    2.90    0.34
  -7 -14  14    2.21    0.28
   7 -14 -14    2.67    0.33
   7  14 -14    2.31    0.31
  -6 -14  14    4.24    0.37
   6 -14 -14    4.19    0.39
   6  14 -14    4.30    0.41
  -5 -14  14    1.93    0.25
   5 -14 -14    2.28    0.29
   5  14 -14    2.58    0.32
  -4 -14  14    0.29    0.19
   4 -14 -14    0.20    0.18
   4  14 -14    0.46    0.23
   3 -14 -14    1.68    0.24
  -3 -14  14    2.06    0.27
   3  14 -14    1.93    0.27
  -2 -14  14    0.95    0.20
   2  14 -14    1.55    0.26
  -1 -14  14    8.10    0.45
   1  14 -14    7.77    0.50
  -1  14  14    7.19    0.41
   0 -14  14    0.32    0.18
   0  14 -14    0.35    0.21
   1 -14  14    6.65    0.42
  -1  14 -14    7.66    0.50
   2 -14  14    7.77    0.44
  -2 -14 -14    6.93    0.42
  -2  14 -14    7.14    0.50
  -3 -14 -14    6.74    0.42
   3 -14  14    6.48    0.43
  -3  14 -14    6.04    0.47
   4 -14  14    1.43    0.25
  -4 -14 -14    1.25    0.23
  -4  14 -14    1.32    0.26
  -5 -14 -14    2.02    0.28
  -5  14 -14    1.88    0.29
  -6  14 -14    0.36    0.26
   8  15 -14    0.90    0.25
   7 -15 -14   12.15    0.72
   7  15 -14   10.38    0.58
   6 -15 -14    3.74    0.38
  -6 -15  14    3.78    0.35
   6  15 -14    3.25    0.36
   5 -15 -14    6.25    0.44
  -5 -15  14    5.32    0.41
   5  15 -14    5.74    0.46
  -4 -15  14    4.32    0.37
   4 -15 -14    5.03    0.40
   4  15 -14    3.63    0.37
   3 -15 -14    4.84    0.38
  -3 -15  14    4.88    0.39
   3  15 -14    5.07    0.44
  -2 -15  14    1.34    0.24
   2  15 -14    1.41    0.27
  -1 -15  14    2.44    0.29
  -1  15  14    2.22    0.24
   1  15 -14    2.58    0.33
   0 -15  14    0.13    0.18
   0  15 -14    0.32    0.21
  -1 -15 -14   13.99    0.59
   1 -15  14   14.07    0.60
  -1  15 -14   13.98    0.68
   2 -15  14    6.69    0.43
  -2 -15 -14    6.61    0.42
  -2  15 -14    7.33    0.51
  -3 -15 -14    7.52    0.45
   3 -15  14    6.91    0.44
  -3  15 -14    7.77    0.52
  -4 -15 -14    0.32    0.20
   4 -15  14    0.40    0.20
  -4  15 -14    0.44    0.24
   6 -16 -14    8.45    0.54
   6  16 -14    8.18    0.54
   5 -16 -14    3.13    0.34
  -5 -16  14    2.29    0.42
   5  16 -14    2.88    0.35
   4 -16 -14   16.00    0.70
  -4 -16  14   16.97    0.70
   4  16 -14   17.76    0.77
  -3 -16  14    0.55    0.21
   3  16 -14    0.51    0.24
  -2 -16  14    7.42    0.46
   2  16 -14    7.45    0.51
  -1 -16  14    2.38    0.28
   1  16 -14    3.15    0.36
   0 -16  14    2.40    0.29
   0  16 -14    2.05    0.31
   1 -16  14    6.63    0.43
  -1 -16 -14    6.47    0.42
  -1  16 -14    7.07    0.48
  -2 -16 -14    2.32    0.27
   2 -16  14    1.91    0.28
  -2  16 -14    2.53    0.35
   3 -16  14    8.56    0.47
  -3 -16 -14    8.28    0.48
   5 -17 -14    5.63    0.45
   4 -17 -14    1.51    0.27
   3  17 -14    0.70    0.41
  -2 -17  14    3.97    0.41
   2  17 -14    2.95    0.52
  -1 -17  14   11.31    0.58
   0 -17 -14    3.16    0.33
   0 -17  14    3.06    0.32
   1 -17  14    0.11    0.19
  -1 -17 -14   -0.16    0.17
   2 -17  14    3.52    0.34
  -2 -17 -14    3.30    0.33
   3 -17  14    1.65    0.27
  -1 -18 -14    0.10    0.22
  12   0 -15    1.45    0.26
  11   0 -15    5.43    0.43
  10   0 -15    0.24    0.19
   9   0 -15    0.15    0.18
   8   0 -15    3.66    0.31
  -7   0  15    0.65    0.15
   7   0 -15    0.44    0.16
  -6   0  15    6.81    0.36
   6   0 -15    7.95    0.43
   5   0 -15   21.41    0.76
  -5   0  15   21.21    0.69
  -4   0  15    0.34    0.15
   4   0 -15    0.28    0.15
   3   0 -15    0.53    0.15
  -3   0  15    0.87    0.17
  -2   0  15    0.10    0.14
   2   0 -15    0.01    0.13
   1   0 -15    2.22    0.22
  -1   0  15    1.78    0.20
   0   0 -15    4.60    0.30
   0   0  15    3.91    0.29
   1   0  15    6.45    0.36
  -1   0 -15    6.89    0.35
  -2   0 -15    0.66    0.15
   2   0  15    0.66    0.17
   3   0  15    0.05    0.16
  -3   0 -15    0.42    0.14
   4   0  15   21.56    0.75
   5   0  15    2.94    0.29
   6   0  15    4.43    0.37
   7   0  15    0.35    0.19
   8   0  15   12.44    0.57
   9   0  15    4.90    0.39
  10   0  15    2.33    0.29
  12  -1 -15    1.90    0.29
  12   1 -15    1.49    0.27
  11  -1 -15    5.63    0.44
  11   1 -15    6.06    0.44
  10  -1 -15    1.27    0.25
  10   1 -15    1.28    0.23
   9  -1 -15    9.39    0.50
   9   1 -15    8.43    0.48
   8  -1 -15    0.08    0.17
   8   1 -15    0.14    0.16
   7  -1 -15    0.64    0.19
  -7  -1  15    0.65    0.15
   7   1 -15    0.65    0.19
  -7   1  15    0.61    0.15
   6  -1 -15   -0.05    0.12
  -6  -1  15   -0.09    0.13
  -6   1  15    0.03    0.13
   6   1 -15   -0.04    0.14
  -5  -1  15    5.62    0.32
   5  -1 -15    5.21    0.35
  -5   1  15    5.18    0.32
   5   1 -15    5.50    0.36
  -4  -1  15    7.73    0.37
   4  -1 -15    7.19    0.40
  -4   1  15    7.41    0.37
   4   1 -15    7.55    0.41
  -3  -1  15   14.95    0.56
   3  -1 -15   15.56    0.59
  -3   1  15   15.10    0.55
   3   1 -15   15.75    0.60
   2  -1 -15    6.62    0.37
  -2  -1  15    6.61    0.37
  -2   1  15    7.24    0.37
   2   1 -15    6.91    0.38
   1  -1 -15   19.83    0.68
  -1  -1  15   18.90    0.66
  -1   1  15   19.79    0.66
   1   1 -15   18.89    0.68
   0  -1 -15   33.46    0.99
   0  -1  15   33.25    0.99
   0   1 -15   32.06    0.99
   0   1  15   31.49    0.97
  -1  -1 -15    1.07    0.17
   1  -1  15    0.78    0.18
  -1   1 -15    0.73    0.16
   1   1  15    0.93    0.18
   2  -1  15   36.12    1.06
  -2  -1 -15   35.71    1.04
  -2   1 -15   34.79    1.05
   2   1  15   35.03    1.06
   3  -1  15    5.02    0.36
   3   1  15    5.75    0.35
  -3   1 -15    5.96    0.32
   4  -1  15   11.10    0.51
   4   1  15   11.31    0.51
   5  -1  15    9.27    0.47
   5   1  15    9.14    0.45
   6  -1  15   10.82    0.51
   6   1  15    9.62    0.49
   7  -1  15    0.56    0.20
   7   1  15    0.17    0.17
   8  -1  15    1.84    0.27
   8   1  15    1.50    0.25
   9  -1  15    0.97    0.24
   9   1  15    1.09    0.24
  10   1  15    0.65    0.22
  12  -2 -15    6.21    0.47
  12   2 -15    6.00    0.45
  11  -2 -15    7.61    0.50
  11   2 -15    7.37    0.48
  10  -2 -15    7.78    0.48
  10   2 -15    8.13    0.49
   9  -2 -15    5.32    0.41
   9   2 -15    5.10    0.39
   8  -2 -15    1.32    0.22
  -8  -2  15    1.23    0.18
   8   2 -15    1.12    0.22
   7  -2 -15    7.18    0.42
  -7  -2  15    7.05    0.35
   7   2 -15    6.99    0.42
  -6  -2  15   14.22    0.53
   6  -2 -15   14.41    0.59
   6   2 -15   13.98    0.59
  -6   2  15   13.69    0.51
  -5  -2  15    0.65    0.16
   5  -2 -15    0.96    0.19
   5   2 -15    0.86    0.19
  -5   2  15    0.99    0.17
  -4  -2  15    6.43    0.36
   4  -2 -15    6.70    0.39
  -4   2  15    7.08    0.35
   4   2 -15    7.14    0.40
   3  -2 -15    5.18    0.34
  -3  -2  15    4.82    0.33
   3   2 -15    5.60    0.34
  -3   2  15    5.21    0.32
  -2  -2  15    8.55    0.41
   2  -2 -15    8.70    0.41
  -2   2  15    8.36    0.40
   2   2 -15    8.29    0.42
  -1  -2  15   15.10    0.58
   1  -2 -15   15.66    0.58
   1   2 -15   15.29    0.59
  -1   2  15   16.27    0.58
   0  -2  15    5.00    0.34
   0  -2 -15    4.75    0.30
   0   2 -15    4.89    0.32
   0   2  15    4.59    0.33
   1  -2  15   24.53    0.80
  -1  -2 -15   24.32    0.77
   1   2  15   23.27    0.78
  -1   2 -15   23.65    0.78
   2  -2  15   23.20    0.77
  -2  -2 -15   22.37    0.72
  -2   2 -15   23.32    0.75
   2   2  15   22.08    0.76
   3  -2  15    5.77    0.36
  -3   2 -15    6.35    0.35
   3   2  15    6.13    0.38
   4  -2  15    4.78    0.36
   4   2  15    5.52    0.37
   5  -2  15   51.26    1.48
   5   2  15   52.81    1.49
   6  -2  15    0.86    0.22
   6   2  15    0.51    0.19
   7  -2  15    1.54    0.24
   7   2  15    1.35    0.24
   8  -2  15   17.20    0.68
   8   2  15   17.58    0.69
   9  -2  15   19.65    0.75
   9   2  15   20.17    0.76
  10   2  15   12.63    0.70
  12  -3 -15    0.67    0.38
  12   3 -15    0.30    0.21
  11  -3 -15    0.63    0.21
  11   3 -15    0.83    0.23
  10  -3 -15    3.17    0.34
  10   3 -15    3.64    0.36
   9  -3 -15    3.38    0.33
   9   3 -15    3.28    0.32
   8  -3 -15    5.78    0.41
  -8  -3  15    5.54    0.33
   8   3 -15    6.08    0.39
  -7  -3  15    0.57    0.15
   7  -3 -15    0.66    0.19
   7   3 -15    0.53    0.18
   6  -3 -15    1.00    0.20
  -6  -3  15    1.21    0.18
   6   3 -15    1.09    0.21
  -6   3  15    0.89    0.16
  -5  -3  15   14.34    0.54
   5  -3 -15   14.52    0.58
   5   3 -15   14.34    0.58
  -5   3  15   14.04    0.52
  -4  -3  15    1.29    0.20
   4  -3 -15    1.27    0.20
   4   3 -15    1.08    0.19
  -4   3  15    1.34    0.18
  -3  -3  15    0.35    0.17
   3  -3 -15    0.40    0.16
  -3   3  15    0.41    0.15
   3   3 -15    0.43    0.15
  -2  -3  15    1.67    0.20
   2  -3 -15    2.01    0.22
  -2   3  15    1.75    0.21
   2   3 -15    2.00    0.24
   1  -3 -15    2.08    0.21
  -1  -3  15    2.04    0.24
   1   3 -15    2.46    0.25
  -1   3  15    2.56    0.24
   0  -3  15   13.16    0.54
   0  -3 -15   13.86    0.52
   0   3  15   12.70    0.52
   0   3 -15   13.64    0.54
  -1  -3 -15   45.89    1.27
   1  -3  15   45.10    1.30
  -1   3 -15   44.62    1.30
   1   3  15   45.30    1.29
   2  -3  15    5.31    0.36
  -2  -3 -15    4.85    0.41
  -2   3 -15    4.90    0.32
   2   3  15    4.47    0.31
   3  -3  15    5.81    0.38
   3   3  15    5.70    0.35
  -3   3 -15    5.71    0.34
   4  -3  15    6.54    0.40
   4   3  15    7.82    0.41
  -4   3 -15    7.01    0.38
   5  -3  15   12.86    0.56
   5   3  15   13.46    0.57
   6  -3  15    3.95    0.35
   6   3  15    4.41    0.37
   7  -3  15    6.12    0.41
   7   3  15    5.73    0.41
   8  -3  15    4.71    0.38
   8   3  15    4.99    0.40
   9  -3  15   13.63    0.60
   9   3  15   13.56    0.62
  12   4 -15    2.46    0.31
  11  -4 -15    5.14    0.43
  11   4 -15    4.69    0.41
  10  -4 -15    2.65    0.31
  10   4 -15    2.32    0.29
   9  -4 -15    8.84    0.50
   9   4 -15    8.72    0.49
   8  -4 -15   18.82    0.73
  -8  -4  15   18.48    0.64
   8   4 -15   17.80    0.72
  -7  -4  15   13.36    0.52
   7  -4 -15   14.33    0.60
   7   4 -15   12.26    0.58
  -6  -4  15    1.24    0.19
   6  -4 -15    1.18    0.20
   6   4 -15    1.73    0.25
  -6   4  15    1.46    0.27
   5  -4 -15    2.14    0.25
  -5  -4  15    1.91    0.22
  -5   4  15    1.91    0.20
   5   4 -15    1.97    0.23
   4  -4 -15   16.80    0.64
  -4  -4  15   16.94    0.60
   4   4 -15   16.39    0.65
  -4   4  15   16.08    0.57
   3  -4 -15    1.09    0.19
  -3  -4  15    1.04    0.19
   3   4 -15    1.19    0.21
  -3   4  15    0.76    0.17
  -2  -4  15    5.42    0.33
   2  -4 -15    6.05    0.34
   2   4 -15    6.54    0.38
  -2   4  15    5.56    0.33
   1  -4 -15   13.82    0.52
  -1  -4  15   13.34    0.54
   1   4 -15   12.73    0.54
  -1   4  15   13.14    0.52
   0  -4 -15    0.63    0.15
   0  -4  15    0.28    0.15
   0   4  15    0.48    0.17
   0   4 -15    0.22    0.15
   1  -4  15    2.39    0.25
  -1  -4 -15    2.55    0.23
  -1   4 -15    2.35    0.25
   1   4  15    2.65    0.25
   2  -4  15   15.24    0.58
   2   4  15   13.55    0.55
  -2   4 -15   14.75    0.57
   3  -4  15    1.53    0.23
   3   4  15    1.76    0.23
  -3   4 -15    1.66    0.21
   4  -4  15   19.76    0.72
  -4   4 -15   20.61    0.71
   4   4  15   20.39    0.72
   5  -4  15    4.36    0.35
   5   4  15    3.87    0.35
   6  -4  15   13.93    0.59
   6   4  15   14.95    0.61
   7  -4  15   10.90    0.53
   7   4  15   10.91    0.54
   8  -4  15    2.32    0.28
   8   4  15    2.61    0.29
   9   4  15    2.74    0.32
  12   5 -15    3.93    0.38
  11  -5 -15    1.59    0.29
  11   5 -15    0.77    0.22
  10  -5 -15    3.21    0.34
  10   5 -15    2.91    0.31
   9  -5 -15    1.20    0.24
  -9  -5  15    1.17    0.19
   9   5 -15    1.25    0.24
   8  -5 -15    0.66    0.20
  -8  -5  15    0.73    0.17
   8   5 -15    0.67    0.18
  -7  -5  15    2.76    0.25
   7  -5 -15    2.68    0.29
   7   5 -15    2.44    0.28
  -6  -5  15    5.76    0.34
   6  -5 -15    5.79    0.39
   6   5 -15    6.06    0.40
  -5  -5  15    0.46    0.17
   5  -5 -15    1.00    0.20
  -5   5  15    0.70    0.15
   5   5 -15    0.81    0.18
  -4  -5  15    6.56    0.37
   4  -5 -15    7.00    0.40
  -4   5  15    7.03    0.36
   4   5 -15    7.04    0.42
  -3  -5  15   17.78    0.63
   3  -5 -15   17.50    0.65
  -3   5  15   17.74    0.61
   3   5 -15   17.60    0.68
  -2  -5  15   16.56    0.60
   2  -5 -15   16.23    0.60
  -2   5  15   15.31    0.57
   2   5 -15   16.15    0.63
   1  -5 -15    6.70    0.36
  -1  -5  15    6.88    0.37
  -1   5  15    6.93    0.36
   1   5 -15    7.19    0.40
   0  -5 -15   14.26    0.53
   0  -5  15   13.18    0.55
   0   5  15   12.76    0.53
   0   5 -15   13.69    0.56
  -1  -5 -15   10.15    0.42
   1  -5  15   10.12    0.48
   1   5  15   10.61    0.47
  -1   5 -15   10.40    0.48
   2  -5  15    2.27    0.25
  -2   5 -15    2.28    0.24
   2   5  15    2.34    0.24
   3  -5  15    9.73    0.47
  -3   5 -15    9.38    0.45
   3   5  15    9.22    0.46
   4  -5  15    9.21    0.47
   4   5  15    9.47    0.48
  -4   5 -15   10.13    0.47
   5  -5  15    9.98    0.49
   5   5  15   10.51    0.50
   6  -5  15    7.76    0.44
   6   5  15    7.72    0.45
   7  -5  15    8.41    0.46
   7   5  15    8.41    0.46
   8  -5  15    1.95    0.26
   8   5  15    1.59    0.26
   9   5  15    6.54    0.46
  12   6 -15    0.65    0.23
  11  -6 -15    0.32    0.22
  11   6 -15    0.27    0.20
  10  -6 -15    1.16    0.26
  10   6 -15    0.90    0.22
  -9  -6  15    3.26    0.28
   9  -6 -15    3.04    0.31
   9   6 -15    3.51    0.34
  -8  -6  15   -0.05    0.14
   8  -6 -15   -0.02    0.17
   8   6 -15   -0.12    0.15
  -7  -6  15    0.50    0.17
   7  -6 -15    0.69    0.21
   7   6 -15    0.58    0.20
  -6  -6  15    2.19    0.23
   6  -6 -15    2.83    0.28
   6   6 -15    2.75    0.29
  -5  -6  15   15.59    0.58
   5  -6 -15   14.90    0.62
  -5   6  15   14.88    0.54
   5   6 -15   15.48    0.64
   4  -6 -15    4.84    0.35
  -4  -6  15    4.58    0.33
  -4   6  15    5.10    0.31
   4   6 -15    5.07    0.35
   3  -6 -15    0.88    0.18
  -3  -6  15    0.98    0.20
  -3   6  15    0.99    0.17
   3   6 -15    1.18    0.21
   2  -6 -15    3.83    0.29
  -2  -6  15    3.90    0.30
   2   6 -15    4.00    0.33
  -2   6  15    4.26    0.30
  -1  -6  15    4.53    0.34
   1  -6 -15    5.04    0.31
  -1   6  15    4.50    0.31
   1   6 -15    4.97    0.36
   0  -6 -15   11.88    0.47
   0  -6  15   11.80    0.51
   0   6 -15   10.57    0.51
   0   6  15   11.41    0.49
   1  -6  15    8.03    0.43
  -1   6 -15    7.48    0.42
   1   6  15    7.78    0.41
   2  -6  15   17.38    0.66
  -2   6 -15   18.40    0.68
   2   6  15   17.72    0.66
   3  -6  15    0.53    0.17
   3   6  15    0.87    0.19
  -3   6 -15    0.57    0.18
   4  -6  15    5.70    0.38
   4   6  15    6.18    0.40
  -4   6 -15    5.61    0.37
   5  -6  15    8.74    0.46
   5   6  15    8.04    0.46
  -5   6 -15    8.51    0.45
   6  -6  15    5.19    0.39
   6   6  15    6.31    0.42
   7  -6  15    1.30    0.24
   7   6  15    1.41    0.25
   8  -6  15    1.14    0.25
   8   6  15    1.06    0.23
  11   7 -15    0.01    0.19
  10  -7 -15    1.65    0.28
  10   7 -15    2.08    0.29
   9  -7 -15    6.93    0.46
  -9  -7  15    6.50    0.38
   9   7 -15    7.00    0.45
  -8  -7  15    0.93    0.19
   8  -7 -15    1.30    0.25
   8   7 -15    1.08    0.22
   7  -7 -15    1.15    0.23
  -7  -7  15    1.16    0.20
   7   7 -15    1.73    0.26
   6  -7 -15    0.54    0.19
  -6  -7  15    0.41    0.17
   6   7 -15    0.48    0.19
  -5  -7  15   11.32    0.50
   5  -7 -15   12.18    0.54
   5   7 -15   11.29    0.55
  -4  -7  15   12.02    0.52
   4  -7 -15   12.82    0.55
   4   7 -15   13.09    0.57
  -4   7  15   12.31    0.48
   3  -7 -15   36.85    1.10
  -3  -7  15   35.64    1.08
   3   7 -15   36.46    1.13
  -3   7  15   34.07    1.03
   2  -7 -15    0.71    0.17
  -2  -7  15    0.47    0.16
   2   7 -15    1.03    0.21
  -2   7  15    0.84    0.16
   1  -7 -15    9.23    0.42
  -1  -7  15    9.26    0.45
   1   7 -15    9.33    0.46
  -1   7  15    9.89    0.44
   0  -7  15   24.20    0.81
   0  -7 -15   24.94    0.77
   0   7  15   23.51    0.78
   0   7 -15   22.50    0.81
   1  -7  15    5.02    0.36
   1   7  15    4.74    0.33
  -1   7 -15    4.26    0.35
   2  -7  15    1.38    0.22
  -2   7 -15    2.46    0.27
   2   7  15    2.59    0.26
   3  -7  15    2.74    0.28
   3   7  15    2.59    0.27
  -3   7 -15    3.14    0.31
   4  -7  15    3.76    0.34
  -4   7 -15    4.07    0.33
   4   7  15    4.29    0.35
   5  -7  15    1.69    0.25
  -5   7 -15    1.53    0.24
   5   7  15    2.31    0.28
   6  -7  15    5.64    0.39
   6   7  15    5.57    0.41
   7  -7  15    4.79    0.39
   7   7  15    5.63    0.42
   8   7  15    1.85    0.28
  11   8 -15    1.32    0.26
 -10  -8  15    3.91    0.35
  10  -8 -15    4.36    0.41
  10   8 -15    4.39    0.39
   9  -8 -15    3.70    0.36
  -9  -8  15    3.87    0.31
   9   8 -15    4.00    0.38
   8  -8 -15    1.49    0.25
  -8  -8  15    1.07    0.20
   8   8 -15    1.12    0.23
   7  -8 -15    1.46    0.24
  -7  -8  15    1.42    0.22
   7   8 -15    1.67    0.25
   6  -8 -15    4.19    0.36
  -6  -8  15    4.63    0.34
   6   8 -15    4.64    0.38
   5  -8 -15    3.07    0.30
  -5  -8  15    3.35    0.31
   5   8 -15    3.09    0.32
   4  -8 -15    4.36    0.33
  -4  -8  15    4.23    0.33
   4   8 -15    4.18    0.36
  -4   8  15    4.09    0.29
  -3  -8  15   11.76    0.50
   3  -8 -15   11.75    0.52
  -3   8  15   12.83    0.48
   3   8 -15   11.61    0.56
  -2  -8  15    1.61    0.21
   2  -8 -15    2.29    0.24
  -2   8  15    1.96    0.21
   2   8 -15    1.85    0.26
   1  -8 -15   11.78    0.48
  -1  -8  15   11.91    0.52
  -1   8  15   11.20    0.48
   1   8 -15   11.56    0.54
   0  -8  15    1.34    0.22
   0  -8 -15    1.78    0.23
   0   8 -15    1.50    0.23
   0   8  15    1.46    0.21
   1  -8  15    1.09    0.21
  -1   8 -15    1.41    0.23
   1   8  15    1.49    0.20
   2  -8  15    1.71    0.24
  -2   8 -15    2.03    0.25
   2   8  15    1.84    0.24
   3  -8  15   12.02    0.54
   3   8  15   11.82    0.54
  -3   8 -15   12.87    0.56
   4  -8  15    4.11    0.36
  -4   8 -15    4.17    0.35
   4   8  15    4.29    0.35
   5  -8  15   15.51    0.63
  -5   8 -15   16.33    0.65
   5   8  15   14.82    0.62
   6  -8  15    8.28    0.46
   6   8  15    8.97    0.49
   7  -8  15    3.72    0.33
   7   8  15    3.96    0.37
  11   9 -15    7.80    0.50
 -10  -9  15    8.43    0.46
  10  -9 -15    9.29    0.82
  10   9 -15    8.35    0.52
   9  -9 -15    0.74    0.23
  -9  -9  15    0.64    0.19
   8  -9 -15    0.50    0.20
  -8  -9  15    0.44    0.18
   8   9 -15    0.22    0.18
   7  -9 -15    1.51    0.24
  -7  -9  15    2.09    0.25
   7   9 -15    2.22    0.29
  -6  -9  15    2.03    0.25
   6  -9 -15    2.12    0.27
   6   9 -15    1.54    0.24
  -5  -9  15   10.24    0.48
   5  -9 -15   10.35    0.51
   5   9 -15    9.94    0.51
   4  -9 -15    1.53    0.23
  -4  -9  15    1.35    0.22
   4   9 -15    1.07    0.22
   3  -9 -15    4.74    0.34
  -3  -9  15    4.13    0.34
   3   9 -15    4.75    0.36
  -3   9  15    4.66    0.30
   2  -9 -15   11.67    0.51
  -2  -9  15   11.47    0.51
   2   9 -15   11.42    0.56
  -2   9  15   12.05    0.48
   1  -9 -15    4.76    0.32
  -1  -9  15    4.37    0.35
  -1   9  15    4.20    0.31
   1   9 -15    5.03    0.38
   0  -9  15    0.41    0.18
   0   9 -15    0.60    0.20
   0   9  15    0.92    0.19
   1  -9  15    2.03    0.26
   1   9  15    1.86    0.24
  -1   9 -15    1.79    0.26
   2  -9  15    2.13    0.24
  -2   9 -15    2.67    0.29
   2   9  15    2.63    0.27
   3  -9  15    1.47    0.22
   3   9  15    1.40    0.22
  -3   9 -15    1.32    0.23
   4  -9  15    1.10    0.22
  -4   9 -15    1.71    0.25
   4   9  15    1.56    0.24
   5  -9  15    0.76    0.21
   5   9  15    1.05    0.21
  -5   9 -15    0.81    0.21
   6  -9  15    0.52    0.20
   6   9  15    0.90    0.22
  -6   9 -15    0.63    0.21
   7   9  15    0.51    0.21
 -10 -10  15    3.95    0.35
  10  10 -15    4.90    0.41
   9 -10 -15    4.93    0.43
  -9 -10  15    5.20    0.38
   9  10 -15    4.42    0.40
  -8 -10  15    1.40    0.23
   8 -10 -15    1.81    0.28
   8  10 -15    1.42    0.25
  -7 -10  15    3.12    0.30
   7 -10 -15    2.57    0.29
   7  10 -15    3.03    0.33
  -6 -10  15    6.91    0.41
   6 -10 -15    7.46    0.45
   6  10 -15    6.93    0.44
   5 -10 -15    3.06    0.30
  -5 -10  15    3.48    0.32
   5  10 -15    3.25    0.32
  -4 -10  15    2.95    0.28
   4 -10 -15    4.32    0.34
   4  10 -15    3.38    0.33
   3 -10 -15    2.49    0.26
  -3 -10  15    2.63    0.26
   3  10 -15    2.08    0.26
  -3  10  15    2.57    0.23
   2 -10 -15    1.99    0.23
  -2 -10  15    1.86    0.24
  -2  10  15    1.74    0.21
   2  10 -15    1.44    0.24
  -1 -10  15    8.11    0.44
   1 -10 -15    7.53    0.40
   1  10 -15    7.72    0.46
  -1  10  15    7.50    0.41
   0 -10  15    7.01    0.41
   0  10 -15    6.77    0.44
   0  10  15    6.44    0.38
   1 -10  15    7.15    0.42
  -1  10 -15    7.04    0.45
   1  10  15    7.74    0.41
   2 -10  15   10.11    0.49
   2  10  15    9.70    0.48
  -2  10 -15    9.68    0.52
   3 -10  15    0.22    0.18
  -3  10 -15    0.32    0.20
   3  10  15    0.60    0.18
   4 -10  15    7.55    0.44
   4  10  15    8.22    0.46
  -4  10 -15    7.57    0.46
   5 -10  15    6.56    0.44
   5  10  15    6.69    0.42
  -5  10 -15    7.24    0.45
   6 -10  15    8.98    0.49
  -6  10 -15    8.73    0.51
   6  10  15    9.58    0.50
 -10 -11  15    2.70    0.30
  10  11 -15    2.09    0.30
  -9 -11  15    0.61    0.21
   9  11 -15    0.47    0.22
   8 -11 -15    2.57    0.32
  -8 -11  15    2.05    0.26
   8  11 -15    2.46    0.31
  -7 -11  15    0.38    0.19
   7 -11 -15    0.61    0.19
   7  11 -15    0.38    0.21
  -6 -11  15   10.72    0.51
   6 -11 -15   10.18    0.53
   6  11 -15    9.88    0.54
   5 -11 -15    3.83    0.35
  -5 -11  15    3.81    0.34
   5  11 -15    3.93    0.38
  -4 -11  15    0.26    0.16
   4 -11 -15    0.15    0.15
   4  11 -15    0.39    0.21
   3 -11 -15    0.11    0.15
  -3 -11  15    0.30    0.17
  -3  11  15    0.27    0.16
   3  11 -15   -0.02    0.17
  -2 -11  15    4.47    0.33
   2 -11 -15    4.69    0.35
   2  11 -15    4.64    0.40
  -2  11  15    4.82    0.33
  -1 -11  15    5.07    0.37
  -1  11  15    5.61    0.35
   1  11 -15    5.56    0.42
   0 -11  15    2.90    0.28
   0  11 -15    2.99    0.32
   0  11  15    2.83    0.27
   1 -11  15   11.04    0.53
   1  11  15   11.82    0.52
  -1  11 -15   11.88    0.57
   2 -11  15    5.23    0.38
  -2  11 -15    6.35    0.44
   2  11  15    6.06    0.40
   3 -11  15    6.70    0.42
   3  11  15    7.44    0.44
  -3  11 -15    7.26    0.47
   4 -11  15    6.23    0.41
  -4  11 -15    5.92    0.44
   4  11  15    7.70    0.45
   5 -11  15   19.75    0.76
   5  11  15   21.69    0.80
  -5  11 -15   21.51    0.82
   6 -11  15    5.43    0.43
   6  11  15    6.38    0.44
  -6  11 -15    6.14    0.44
  -9 -12  15    1.24    0.24
   9  12 -15    1.87    0.28
  -8 -12  15    1.38    0.24
   8 -12 -15    1.48    0.26
   8  12 -15    1.37    0.26
   7 -12 -15    7.38    0.46
  -7 -12  15    7.29    0.44
   7  12 -15    7.23    0.48
   6 -12 -15    3.24    0.34
  -6 -12  15    2.74    0.28
   6  12 -15    3.12    0.33
  -5 -12  15    3.79    0.36
   5 -12 -15    4.23    0.37
   5  12 -15    3.80    0.37
  -4 -12  15    0.50    0.19
   4 -12 -15    0.40    0.18
   4  12 -15    0.30    0.19
   3 -12 -15    0.03    0.15
  -3 -12  15    0.45    0.20
   3  12 -15    0.32    0.18
   2 -12 -15    7.12    0.41
  -2 -12  15    7.21    0.43
   2  12 -15    8.31    0.49
  -2  12  15    7.72    0.41
  -1 -12  15    6.97    0.42
   1  12 -15    6.39    0.43
  -1  12  15    6.77    0.40
   0 -12  15    7.28    0.43
   0  12 -15    6.48    0.46
   0  12  15    7.00    0.40
   1 -12  15    0.08    0.17
  -1  12 -15    0.24    0.18
   1  12  15    0.43    0.18
   2 -12  15    3.89    0.36
   2  12  15    4.98    0.37
  -2  12 -15    4.84    0.41
   3 -12  15    6.41    0.42
  -3  12 -15    7.19    0.47
   3  12  15    6.66    0.43
   4 -12  15    1.13    0.23
   4  12  15    1.70    0.25
  -4  12 -15    1.71    0.28
   5 -12  15    4.58    0.38
  -5  12 -15    4.42    0.41
   5  12  15    5.21    0.42
  -6  12 -15    4.34    0.42
  -8 -13  15    0.62    0.24
   8  13 -15    0.38    0.22
  -7 -13  15    1.15    0.24
   7 -13 -15    1.15    0.25
   7  13 -15    0.64    0.24
  -6 -13  15   11.06    0.55
   6 -13 -15   11.23    0.58
   6  13 -15   11.16    0.59
   5 -13 -15   22.34    0.85
  -5 -13  15   23.35    0.83
   5  13 -15   21.99    0.87
   4 -13 -15    1.98    0.27
  -4 -13  15    1.70    0.25
   4  13 -15    1.67    0.26
   3 -13 -15   -0.05    0.15
  -3 -13  15   -0.38    0.16
   3  13 -15    0.08    0.18
  -2 -13  15    7.52    0.45
  -2  13  15    8.12    0.43
   2  13 -15    7.44    0.50
  -1 -13  15   19.06    0.73
   1  13 -15   18.70    0.78
  -1  13  15   19.44    0.69
   0 -13  15    8.11    0.46
   0  13 -15    7.38    0.49
   0  13  15    7.38    0.43
   1 -13  15    3.89    0.34
   1  13  15    3.41    0.32
  -1  13 -15    2.92    0.35
   2 -13  15    0.57    0.21
  -2  13 -15    0.77    0.24
   2  13  15    0.95    0.21
   3 -13  15    4.78    0.39
  -3  13 -15    4.79    0.43
   3  13  15    5.00    0.39
   4 -13  15    1.80    0.26
  -4  13 -15    1.27    0.26
   5 -13  15    8.74    0.48
  -5  13 -15    8.39    0.54
  -6  13 -15    4.13    0.43
   7 -14 -15    0.25    0.25
   7  14 -15   -0.02    0.20
   6 -14 -15    7.48    0.49
  -6 -14  15    7.17    0.47
   6  14 -15    7.92    0.51
  -5 -14  15    0.86    0.23
   5 -14 -15    1.29    0.25
   5  14 -15    1.10    0.26
  -4 -14  15    5.03    0.41
   4 -14 -15    5.83    0.41
   4  14 -15    6.26    0.47
   3 -14 -15    4.70    0.37
  -3 -14  15    4.95    0.39
   3  14 -15    3.88    0.38
  -2 -14  15    2.18    0.28
   2  14 -15    1.73    0.30
  -1 -14  15    2.41    0.28
   1  14 -15    2.29    0.32
  -1  14  15    2.62    0.27
   0 -14  15   21.44    0.79
   0  14 -15   20.78    0.84
   0  14  15   21.02    0.76
   1 -14  15    0.51    0.21
   1  14  15    0.68    0.20
  -1  14 -15    0.35    0.21
   2 -14  15    4.84    0.39
  -2  14 -15    4.92    0.44
   2  14  15    4.46    0.38
   3 -14  15    1.29    0.25
  -3  14 -15    1.53    0.29
   4 -14  15   30.60    1.01
  -4  14 -15   29.64    1.09
   6 -15 -15    6.26    0.47
   6  15 -15    4.92    0.54
  -5 -15  15    2.79    0.47
   5 -15 -15    3.25    0.35
   5  15 -15    2.79    0.35
   4 -15 -15    9.13    0.51
  -4 -15  15    9.19    0.52
   4  15 -15    9.43    0.57
  -3 -15  15   13.91    0.62
   3  15 -15   13.30    0.67
  -2 -15  15    0.04    0.19
   2  15 -15    0.13    0.22
  -1 -15  15    0.16    0.19
  -1  15  15    0.36    0.18
   1  15 -15    0.53    0.24
   0 -15  15    2.33    0.29
   0  15  15    2.21    0.27
   0  15 -15    1.93    0.30
   1 -15  15    0.24    0.19
   1  15  15    0.65    0.20
  -1  15 -15    0.22    0.22
   2 -15  15    9.50    0.53
  -2  15 -15   10.79    0.62
   3 -15  15   -0.04    0.19
   4 -15  15    4.53    0.39
   5 -16 -15    0.85    0.24
   4 -16 -15    1.89    0.29
  -2 -16  15    1.18    0.30
   2  16 -15    0.81    0.41
  -1 -16  15    8.27    0.50
   0 -16  15    1.53    0.26
   0  16  15    1.62    0.24
   1 -16  15    1.36    0.25
   2 -16  15    0.99    0.24
   3 -16  15    4.07    0.42
   0  17  15    1.66    0.38
  11   0 -16    3.41    0.36
  10   0 -16    0.27    0.21
   9   0 -16    0.82    0.22
   8   0 -16   48.54    1.47
   7   0 -16    1.67    0.25
  -7   0  16    1.28    0.19
  -6   0  16    0.97    0.18
   6   0 -16    0.96    0.19
  -5   0  16    0.18    0.15
   5   0 -16    0.67    0.18
  -4   0  16    0.02    0.15
   4   0 -16    0.36    0.16
   3   0 -16    1.29    0.20
  -3   0  16    1.47    0.20
   2   0 -16   11.30    0.49
  -2   0  16   10.37    0.47
  -1   0  16    0.97    0.20
   1   0 -16    0.57    0.16
   0   0  16    6.37    0.36
   0   0 -16    6.56    0.37
   1   0  16    0.24    0.17
  -1   0 -16    0.25    0.14
   2   0  16    3.48    0.32
  -2   0 -16    3.01    0.27
   3   0  16    4.16    0.35
   4   0  16    4.58    0.34
   5   0  16    3.74    0.33
   6   0  16    1.08    0.24
   7   0  16    0.08    0.19
   8   0  16    0.50    0.22
   9   0  16   14.06    0.63
  11  -1 -16    0.24    0.21
  11   1 -16    0.67    0.24
  10  -1 -16    1.33    0.24
  10   1 -16    1.22    0.24
   9  -1 -16    9.15    0.52
   9   1 -16   10.16    0.53
   8  -1 -16    1.30    0.25
   8   1 -16    0.93    0.22
  -7  -1  16    9.63    0.44
   7  -1 -16    9.86    0.49
   7   1 -16   10.29    0.52
  -6  -1  16    3.06    0.28
   6  -1 -16    3.78    0.33
  -6   1  16    3.48    0.29
   6   1 -16    3.15    0.31
   5  -1 -16    2.58    0.27
  -5  -1  16    3.00    0.28
  -5   1  16    3.03    0.27
   5   1 -16    3.01    0.29
  -4  -1  16   20.01    0.69
   4  -1 -16   19.79    0.73
  -4   1  16   20.21    0.68
   4   1 -16   20.11    0.74
  -3  -1  16   13.67    0.54
   3  -1 -16   13.99    0.57
   3   1 -16   12.89    0.56
  -3   1  16   12.81    0.52
  -2  -1  16    0.98    0.20
   2  -1 -16    1.02    0.19
  -2   1  16    1.00    0.20
   2   1 -16    1.15    0.20
   1  -1 -16   13.03    0.53
  -1  -1  16   13.01    0.53
   1   1 -16   12.57    0.53
  -1   1  16   12.58    0.52
   0  -1  16    6.02    0.38
   0  -1 -16    6.53    0.36
   0   1 -16    6.79    0.38
   0   1  16    6.70    0.39
   1  -1  16    0.07    0.14
  -1  -1 -16    0.33    0.14
   1   1  16    0.05    0.16
  -1   1 -16    0.42    0.15
   2  -1  16   14.49    0.58
  -2  -1 -16   14.82    0.55
   2   1  16   14.67    0.59
  -2   1 -16   14.72    0.57
   3  -1  16    4.13    0.32
   3   1  16    4.23    0.35
  -3   1 -16    3.94    0.34
   4  -1  16    4.61    0.37
   4   1  16    4.51    0.37
   5  -1  16    2.28    0.26
   5   1  16    2.30    0.27
   6  -1  16    2.43    0.27
   6   1  16    2.55    0.29
   7  -1  16   16.28    0.67
   7   1  16   16.26    0.67
   8  -1  16    1.94    0.28
   8   1  16    2.47    0.30
   9  -1  16    1.28    0.26
   9   1  16    1.71    0.28
  11  -2 -16    4.18    0.42
  11   2 -16    4.30    0.41
  10  -2 -16    8.30    0.51
  10   2 -16    7.68    0.50
   9  -2 -16    2.85    0.32
   9   2 -16    2.47    0.29
  -8  -2  16    4.08    0.35
   8  -2 -16    4.12    0.37
   8   2 -16    3.88    0.37
   7  -2 -16    2.35    0.28
  -7  -2  16    2.17    0.22
   7   2 -16    2.14    0.27
  -6  -2  16    1.52    0.20
   6  -2 -16    1.90    0.25
  -6   2  16    1.90    0.21
   6   2 -16    1.70    0.24
  -5  -2  16    0.29    0.16
   5  -2 -16    0.52    0.16
   5   2 -16    0.71    0.19
  -5   2  16    0.47    0.16
   4  -2 -16    8.39    0.45
  -4  -2  16    8.62    0.42
   4   2 -16    8.00    0.43
  -4   2  16    8.57    0.41
  -3  -2  16   15.71    0.60
   3  -2 -16   16.38    0.63
  -3   2  16   16.37    0.60
   3   2 -16   16.11    0.64
  -2  -2  16   16.66    0.62
   2  -2 -16   16.43    0.62
  -2   2  16   16.26    0.60
   2   2 -16   16.01    0.63
  -1  -2  16   23.41    0.79
   1  -2 -16   24.26    0.80
  -1   2  16   24.32    0.80
   1   2 -16   25.07    0.83
   0  -2 -16    0.27    0.14
   0  -2  16    0.74    0.19
   0   2  16    0.22    0.15
   0   2 -16    0.26    0.15
  -1  -2 -16    8.54    0.40
   1  -2  16    8.19    0.43
   1   2  16    7.60    0.42
  -1   2 -16    7.45    0.40
   2  -2  16    2.00    0.24
   2   2  16    2.56    0.27
  -2   2 -16    2.59    0.26
   3  -2  16    6.42    0.41
  -3   2 -16    7.62    0.39
   3   2  16    7.10    0.42
   4  -2  16   19.12    0.72
   4   2  16   20.36    0.73
   5  -2  16    0.52    0.20
   5   2  16    0.71    0.18
   6  -2  16    5.19    0.40
   6   2  16    4.75    0.39
   7  -2  16    9.26    0.51
   7   2  16   10.16    0.51
   8  -2  16   11.49    0.56
   8   2  16   11.45    0.56
   9  -2  16    0.70    0.23
   9   2  16    0.58    0.35
  11  -3 -16    0.72    0.25
  11   3 -16    0.78    0.24
  10  -3 -16   27.50    1.01
  10   3 -16   27.88    0.99
   9  -3 -16    0.89    0.23
   9   3 -16    0.72    0.22
   8  -3 -16    2.97    0.31
  -8  -3  16    2.63    0.24
   8   3 -16    2.85    0.30
   7  -3 -16    5.21    0.39
  -7  -3  16    4.86    0.32
   7   3 -16    4.49    0.38
  -6  -3  16    2.93    0.28
   6  -3 -16    3.03    0.30
   6   3 -16    3.31    0.33
  -6   3  16    2.65    0.24
  -5  -3  16    7.23    0.39
   5  -3 -16    7.26    0.43
  -5   3  16    6.94    0.36
   5   3 -16    7.59    0.44
  -4  -3  16    4.80    0.34
   4  -3 -16    4.92    0.35
   4   3 -16    4.81    0.36
  -4   3  16    4.53    0.31
  -3  -3  16   12.05    0.51
   3  -3 -16   11.63    0.52
  -3   3  16   11.66    0.48
   3   3 -16   12.05    0.53
   2  -3 -16    3.26    0.29
  -2  -3  16    3.44    0.31
   2   3 -16    2.38    0.25
  -2   3  16    3.19    0.30
  -1  -3  16   22.18    0.77
   1  -3 -16   22.67    0.77
  -1   3  16   23.65    0.77
   1   3 -16   22.87    0.80
   0  -3  16    2.12    0.25
   0  -3 -16    1.77    0.20
   0   3 -16    2.01    0.23
   0   3  16    1.94    0.23
  -1  -3 -16    1.02    0.17
   1  -3  16    0.76    0.19
  -1   3 -16    0.94    0.19
   1   3  16    1.02    0.20
   2  -3  16    3.80    0.32
   2   3  16    3.51    0.33
  -2   3 -16    4.78    0.33
   3  -3  16    0.73    0.20
   3   3  16    1.09    0.21
  -3   3 -16    1.21    0.19
   4  -3  16   -0.01    0.18
   4   3  16    0.47    0.19
   5  -3  16    0.93    0.22
   5   3  16    1.34    0.23
   6  -3  16    8.75    0.49
   6   3  16    9.50    0.50
   7  -3  16    2.37    0.29
   7   3  16    2.68    0.31
   8  -3  16    3.03    0.32
   8   3  16    2.89    0.31
   9  -3  16    2.43    0.31
  11   4 -16    4.24    0.41
  10  -4 -16    4.39    0.41
  10   4 -16    3.17    0.34
   9  -4 -16    3.22    0.35
   9   4 -16    3.20    0.33
   8  -4 -16    4.85    0.39
  -8  -4  16    4.24    0.32
   8   4 -16    4.21    0.38
  -7  -4  16    4.48    0.32
   7  -4 -16    5.10    0.39
   7   4 -16    4.92    0.39
  -6  -4  16    0.07    0.14
   6  -4 -16   -0.15    0.15
   6   4 -16    0.19    0.18
  -5  -4  16    3.97    0.31
   5  -4 -16    3.56    0.33
   5   4 -16    4.66    0.36
  -5   4  16    3.83    0.29
  -4  -4  16    7.92    0.41
   4  -4 -16    7.13    0.42
   4   4 -16    7.60    0.44
  -4   4  16    7.20    0.38
  -3  -4  16    5.90    0.37
   3  -4 -16    6.45    0.38
  -3   4  16    5.53    0.34
   3   4 -16    5.51    0.38
   2  -4 -16   18.47    0.67
  -2  -4  16   19.13    0.69
  -2   4  16   19.34    0.66
   2   4 -16   18.52    0.71
   1  -4 -16    3.53    0.28
  -1  -4  16    3.10    0.29
   1   4 -16    2.95    0.29
  -1   4  16    3.22    0.30
   0  -4 -16    5.90    0.35
   0  -4  16    5.89    0.38
   0   4  16    6.18    0.37
   0   4 -16    6.10    0.38
  -1  -4 -16    1.07    0.18
   1  -4  16    1.08    0.21
  -1   4 -16    1.14    0.20
   1   4  16    1.02    0.20
   2  -4  16    6.68    0.39
   2   4  16    6.76    0.40
  -2   4 -16    6.18    0.38
   3  -4  16   24.21    0.82
  -3   4 -16   24.08    0.81
   3   4  16   23.96    0.81
   4  -4  16    8.21    0.46
   4   4  16    7.89    0.43
  -4   4 -16    8.28    0.44
   5  -4  16    2.90    0.29
   5   4  16    3.04    0.31
   6  -4  16   12.24    0.56
   6   4  16   11.70    0.57
   7  -4  16    0.61    0.22
   7   4  16    0.97    0.22
   8  -4  16    8.69    0.50
   8   4  16    8.73    0.51
  11   5 -16    1.96    0.28
  10  -5 -16    4.66    0.43
  10   5 -16    4.83    0.42
   9  -5 -16    1.10    0.24
  -9  -5  16    0.92    0.23
   9   5 -16    0.68    0.22
   8  -5 -16   11.03    0.56
  -8  -5  16    9.54    0.46
   8   5 -16   10.40    0.54
  -7  -5  16    0.54    0.17
   7  -5 -16    0.34    0.17
   7   5 -16    0.62    0.21
   6  -5 -16    7.96    0.46
  -6  -5  16    7.95    0.41
   6   5 -16    7.69    0.44
   5  -5 -16    4.40    0.35
  -5  -5  16    3.62    0.31
  -5   5  16    3.83    0.29
   5   5 -16    3.90    0.35
   4  -5 -16    5.54    0.38
  -4  -5  16    5.98    0.35
  -4   5  16    6.22    0.35
   4   5 -16    6.12    0.41
  -3  -5  16   14.82    0.59
   3  -5 -16   14.98    0.60
   3   5 -16   14.75    0.61
  -3   5  16   15.14    0.56
   2  -5 -16    0.08    0.14
  -2  -5  16    0.09    0.17
  -2   5  16   -0.17    0.14
   2   5 -16   -0.06    0.15
   1  -5 -16    1.83    0.22
  -1  -5  16    1.82    0.24
  -1   5  16    2.59    0.25
   1   5 -16    2.25    0.26
   0  -5  16    9.26    0.47
   0  -5 -16    9.73    0.44
   0   5 -16    9.18    0.47
   0   5  16    9.56    0.43
   1  -5  16   29.77    0.96
   1   5  16   31.49    0.97
  -1   5 -16   30.58    0.99
   2  -5  16   13.26    0.58
   2   5  16   14.06    0.58
  -2   5 -16   13.88    0.57
   3  -5  16    6.24    0.41
   3   5  16    7.01    0.42
  -3   5 -16    6.57    0.39
   4  -5  16    0.69    0.21
  -4   5 -16    0.91    0.20
   4   5  16    0.80    0.21
   5  -5  16    1.84    0.26
   5   5  16    2.75    0.30
   6  -5  16    6.77    0.46
   6   5  16    6.92    0.45
   7  -5  16    2.13    0.29
   7   5  16    1.71    0.26
   8  -5  16   15.59    0.68
   8   5  16   17.14    0.80
  11   6 -16    4.68    0.46
  10  -6 -16    1.05    0.26
  10   6 -16    1.10    0.25
   9  -6 -16    4.22    0.38
  -9  -6  16    5.03    0.36
   9   6 -16    4.75    0.41
  -8  -6  16    4.02    0.32
   8  -6 -16    4.88    0.40
   8   6 -16    4.59    0.39
   7  -6 -16    1.57    0.24
  -7  -6  16    1.81    0.23
   7   6 -16    1.79    0.27
  -6  -6  16    1.99    0.24
   6  -6 -16    2.39    0.29
   6   6 -16    1.94    0.27
   5  -6 -16    1.97    0.25
  -5  -6  16    1.77    0.23
  -5   6  16    1.68    0.29
   5   6 -16    1.90    0.26
   4  -6 -16    6.65    0.40
  -4  -6  16    5.78    0.38
  -4   6  16    6.45    0.35
   4   6 -16    6.23    0.42
   3  -6 -16   20.94    0.76
  -3  -6  16   21.61    0.75
  -3   6  16   22.07    0.72
   3   6 -16   21.51    0.80
   2  -6 -16   17.52    0.65
  -2  -6  16   16.96    0.65
   2   6 -16   16.91    0.67
  -2   6  16   17.77    0.63
   1  -6 -16    2.34    0.23
  -1  -6  16    2.16    0.26
  -1   6  16    1.74    0.22
   1   6 -16    1.58    0.22
   0  -6 -16    3.76    0.29
   0  -6  16    3.56    0.34
   0   6 -16    3.56    0.33
   0   6  16    3.35    0.29
   1  -6  16    9.83    0.48
   1   6  16    9.44    0.47
  -1   6 -16    9.22    0.48
   2  -6  16    6.24    0.41
   2   6  16    6.79    0.39
  -2   6 -16    7.08    0.42
   3  -6  16    5.65    0.39
  -3   6 -16    6.13    0.39
   3   6  16    6.26    0.40
   4  -6  16    3.35    0.31
  -4   6 -16    4.20    0.34
   4   6  16    4.55    0.37
   5  -6  16    1.86    0.27
   5   6  16    2.11    0.28
   6  -6  16   12.76    0.58
   6   6  16   13.48    0.61
   7  -6  16    3.21    0.33
   7   6  16    3.36    0.34
   8  -6  16   -0.12    0.22
  10  -7 -16   15.98    1.03
  10   7 -16   16.02    0.71
   9  -7 -16   23.14    0.87
  -9  -7  16   21.04    0.76
   9   7 -16   21.25    0.84
   8  -7 -16   -0.09    0.17
  -8  -7  16    0.38    0.18
   8   7 -16    0.25    0.20
  -7  -7  16    1.55    0.23
   7  -7 -16    1.13    0.23
   7   7 -16    1.06    0.24
   6  -7 -16   22.44    0.83
  -6  -7  16   22.30    0.77
   6   7 -16   21.66    0.83
   5  -7 -16    4.24    0.35
  -5  -7  16    3.47    0.32
   5   7 -16    3.91    0.37
   4  -7 -16    2.79    0.29
  -4  -7  16    2.93    0.28
   4   7 -16    2.44    0.27
  -4   7  16    2.09    0.22
  -3  -7  16    9.94    0.49
   3  -7 -16   10.28    0.49
  -3   7  16   10.25    0.46
   3   7 -16   11.62    0.55
   2  -7 -16    9.36    0.46
  -2  -7  16    9.05    0.46
  -2   7  16    8.99    0.43
   2   7 -16    9.55    0.49
  -1  -7  16    1.20    0.22
   1  -7 -16    1.05    0.18
   1   7 -16    1.20    0.22
  -1   7  16    1.26    0.21
   0  -7  16    1.92    0.25
   0   7  16    2.16    0.25
   0   7 -16    2.07    0.25
   1  -7  16    3.09    0.30
  -1   7 -16    3.44    0.33
   1   7  16    3.50    0.32
   2  -7  16    8.22    0.45
   2   7  16    8.04    0.42
  -2   7 -16    8.09    0.46
   3  -7  16   14.82    0.63
  -3   7 -16   15.69    0.64
   3   7  16   15.92    0.64
   4  -7  16    5.87    0.41
   4   7  16    5.14    0.39
  -4   7 -16    5.28    0.40
   5  -7  16   11.89    0.56
   5   7  16   12.78    0.58
  -5   7 -16   12.66    0.63
   6  -7  16    4.73    0.39
   6   7  16    5.68    0.43
   7  -7  16    1.21    0.25
   7   7  16    1.27    0.26
  10   8 -16    0.19    0.20
  -9  -8  16    1.21    0.22
   9  -8 -16    1.58    0.28
   9   8 -16    1.60    0.28
  -8  -8  16    0.32    0.17
   8  -8 -16    0.29    0.20
   8   8 -16    0.19    0.19
  -7  -8  16    0.86    0.21
   7  -8 -16    0.75    0.21
   7   8 -16    0.53    0.20
  -6  -8  16    1.82    0.24
   6  -8 -16    1.89    0.25
   6   8 -16    1.99    0.27
   5  -8 -16    4.75    0.37
  -5  -8  16    5.39    0.37
   5   8 -16    4.64    0.40
   4  -8 -16    5.41    0.38
  -4  -8  16    5.99    0.38
  -4   8  16    5.29    0.34
   4   8 -16    5.90    0.42
  -3  -8  16   10.06    0.49
   3  -8 -16    9.89    0.49
  -3   8  16   10.36    0.46
   3   8 -16    9.76    0.52
  -2  -8  16    0.49    0.19
   2  -8 -16    0.27    0.16
  -2   8  16    0.33    0.16
   2   8 -16    0.45    0.17
   1  -8 -16    3.59    0.30
  -1  -8  16    3.50    0.33
   1   8 -16    3.45    0.32
  -1   8  16    3.34    0.30
   0  -8  16    2.89    0.29
   0   8 -16    2.69    0.30
   0   8  16    2.80    0.27
   1  -8  16    2.68    0.29
  -1   8 -16    2.94    0.31
   1   8  16    3.79    0.33
   2  -8  16    4.23    0.34
   2   8  16    5.37    0.38
  -2   8 -16    5.02    0.38
   3  -8  16    2.68    0.29
  -3   8 -16    2.39    0.29
   3   8  16    2.64    0.27
   4  -8  16    2.42    0.28
  -4   8 -16    2.49    0.29
   4   8  16    2.26    0.29
   5  -8  16    6.46    0.43
  -5   8 -16    6.88    0.43
   5   8  16    7.59    0.47
   6  -8  16    0.66    0.22
   6   8  16    1.08    0.25
   7  -8  16    0.21    0.21
 -10  -9  16    0.17    0.18
  10   9 -16    0.40    0.24
  -9  -9  16   13.23    0.58
   9  -9 -16   14.34    0.69
   9   9 -16   14.33    0.67
  -8  -9  16   19.30    0.72
   8  -9 -16   19.54    0.80
   8   9 -16   19.29    0.79
   7  -9 -16   14.59    0.66
  -7  -9  16   13.72    0.59
   7   9 -16   14.59    0.66
  -6  -9  16    7.95    0.45
   6  -9 -16    8.34    0.49
   6   9 -16    8.49    0.50
  -5  -9  16    2.82    0.27
   5  -9 -16    2.86    0.30
   5   9 -16    3.16    0.32
   4  -9 -16   10.74    0.52
  -4  -9  16   10.69    0.51
   4   9 -16   10.84    0.54
   3  -9 -16   13.74    0.58
  -3  -9  16   14.01    0.58
   3   9 -16   13.05    0.61
  -3   9  16   13.95    0.54
  -2  -9  16    1.83    0.23
   2  -9 -16    2.09    0.24
   2   9 -16    2.05    0.28
  -2   9  16    2.01    0.23
  -1  -9  16    1.44    0.21
   1  -9 -16    1.12    0.20
   1   9 -16    1.22    0.24
  -1   9  16    1.13    0.20
   0  -9  16    5.56    0.39
   0   9  16    5.43    0.36
   0   9 -16    5.88    0.40
   1  -9  16   13.26    0.59
   1   9  16   13.67    0.57
  -1   9 -16   13.49    0.61
   2  -9  16   15.71    0.65
   2   9  16   16.44    0.65
  -2   9 -16   16.01    0.68
   3  -9  16    0.52    0.21
   3   9  16    0.94    0.21
  -3   9 -16    0.56    0.21
   4  -9  16    4.14    0.38
   4   9  16    4.52    0.39
  -4   9 -16    4.09    0.39
   5  -9  16    2.23    0.28
  -5   9 -16    2.08    0.28
   5   9  16    2.58    0.31
   6  -9  16    3.78    0.35
   6   9  16    5.07    0.41
 -10 -10  16    0.40    0.19
  -9 -10  16    3.19    0.31
   9  10 -16    3.39    0.37
   8 -10 -16   17.15    0.74
  -8 -10  16   15.78    0.66
   8  10 -16   17.07    0.73
  -7 -10  16    0.79    0.21
   7 -10 -16    0.65    0.22
   7  10 -16    0.38    0.21
   6 -10 -16   -0.02    0.18
  -6 -10  16    0.15    0.18
   6  10 -16   -0.22    0.17
  -5 -10  16    3.23    0.30
   5 -10 -16    4.34    0.36
   5  10 -16    3.41    0.34
   4 -10 -16    4.29    0.36
  -4 -10  16    4.15    0.35
   4  10 -16    4.50    0.37
   3 -10 -16    3.72    0.34
  -3 -10  16    3.10    0.30
   3  10 -16    3.35    0.33
  -3  10  16    3.97    0.30
  -2 -10  16    8.81    0.47
   2 -10 -16    8.84    0.45
   2  10 -16    8.96    0.51
  -2  10  16    8.61    0.43
  -1 -10  16    3.33    0.31
   1  10 -16    3.61    0.35
  -1  10  16    3.86    0.32
   0 -10  16    8.11    0.46
   0  10 -16    8.37    0.49
   0  10  16    9.00    0.45
   1 -10  16    0.12    0.18
  -1  10 -16    0.33    0.19
   1  10  16    0.14    0.17
   2 -10  16    5.85    0.41
  -2  10 -16    5.98    0.43
   2  10  16    5.40    0.40
   3 -10  16   10.09    0.52
  -3  10 -16   10.27    0.54
   3  10  16   10.18    0.52
   4 -10  16    0.48    0.20
  -4  10 -16    0.22    0.20
   4  10  16    0.52    0.21
   5 -10  16   11.86    0.57
  -5  10 -16   12.59    0.60
   5  10  16   11.54    0.58
   6 -10  16    3.46    0.34
  -9 -11  16    0.43    0.20
   9  11 -16    0.40    0.35
  -8 -11  16    3.40    0.32
   8 -11 -16    2.89    0.37
   8  11 -16    3.57    0.37
  -7 -11  16    0.42    0.20
   7 -11 -16    0.42    0.21
   7  11 -16    0.33    0.21
  -6 -11  16    2.84    0.30
   6 -11 -16    2.64    0.30
   6  11 -16    2.69    0.32
   5 -11 -16    0.27    0.19
  -5 -11  16    0.13    0.19
   5  11 -16    0.07    0.20
   4 -11 -16    6.95    0.43
  -4 -11  16    6.50    0.42
   4  11 -16    6.97    0.47
   3 -11 -16    3.72    0.33
  -3 -11  16    2.83    0.28
   3  11 -16    3.06    0.34
  -2 -11  16    6.55    0.42
   2 -11 -16    7.10    0.41
  -2  11  16    6.06    0.37
   2  11 -16    6.51    0.44
  -1 -11  16    0.70    0.21
  -1  11  16    0.57    0.19
   1  11 -16    0.66    0.21
   0 -11  16    2.43    0.28
   0  11  16    2.23    0.26
   0  11 -16    2.01    0.30
   1 -11  16    2.68    0.29
  -1  11 -16    2.28    0.31
   1  11  16    2.53    0.28
   2 -11  16    2.71    0.30
   2  11  16    3.11    0.31
  -2  11 -16    2.33    0.30
   3 -11  16    5.50    0.41
   3  11  16    5.29    0.41
  -3  11 -16    4.76    0.42
   4 -11  16    3.01    0.31
   4  11  16    2.49    0.28
  -4  11 -16    2.94    0.33
   5 -11  16    7.75    0.49
  -5  11 -16    8.37    0.53
   5  11  16    8.43    0.57
   6 -11  16   16.63    0.74
  -6  11 -16   17.00    0.76
  -8 -12  16    2.25    0.43
   8  12 -16    1.56    0.37
   7 -12 -16   10.77    0.59
  -7 -12  16   11.75    0.56
   7  12 -16   11.54    0.61
  -6 -12  16    6.55    0.44
   6 -12 -16    8.34    0.49
   6  12 -16    6.85    0.49
  -5 -12  16    8.65    0.48
   5 -12 -16    8.47    0.49
   5  12 -16    8.68    0.53
  -4 -12  16    0.34    0.21
   4 -12 -16    0.11    0.17
   4  12 -16    0.02    0.17
  -3 -12  16    7.88    0.47
   3 -12 -16    8.54    0.46
   3  12 -16    8.88    0.53
  -2 -12  16   10.00    0.51
  -2  12  16    9.96    0.46
   2  12 -16    9.38    0.55
  -1 -12  16    2.66    0.29
   1  12 -16    2.74    0.33
  -1  12  16    3.01    0.28
   0 -12  16    9.03    0.48
   0  12  16   10.27    0.49
   0  12 -16    9.14    0.55
   1 -12  16    6.89    0.44
   1  12  16    7.11    0.43
  -1  12 -16    7.11    0.49
   2 -12  16    0.29    0.20
   2  12  16    0.56    0.20
  -2  12 -16    0.31    0.21
   3 -12  16   -0.08    0.18
  -3  12 -16    0.03    0.19
   3  12  16   -0.02    0.17
   4 -12  16    7.61    0.47
   4  12  16    7.84    0.48
  -4  12 -16    7.43    0.50
   5 -12  16    2.20    0.30
  -5  12 -16    2.37    0.32
  -6  12 -16    8.96    0.65
   7  13 -16    0.81    0.39
   6 -13 -16    3.53    0.37
  -6 -13  16    3.86    0.37
   6  13 -16    3.61    0.39
  -5 -13  16   11.60    0.57
   5 -13 -16   12.07    0.59
   5  13 -16   11.61    0.62
   4 -13 -16    1.41    0.25
  -4 -13  16    1.28    0.25
   4  13 -16    1.34    0.27
  -3 -13  16    1.22    0.24
   3 -13 -16    1.20    0.23
   3  13 -16    1.10    0.25
  -2 -13  16    1.85    0.27
   2  13 -16    1.58    0.29
  -1 -13  16    1.27    0.25
  -1  13  16    1.06    0.22
   1  13 -16    0.64    0.22
   0 -13  16    3.73    0.34
   0  13  16    3.63    0.32
   0  13 -16    4.23    0.40
   1 -13  16    0.06    0.19
  -1  13 -16    0.12    0.20
   1  13  16    0.10    0.18
   2 -13  16    5.62    0.42
  -2  13 -16    6.13    0.48
   2  13  16    6.33    0.43
   3 -13  16   13.25    0.61
  -3  13 -16   14.43    0.69
   3  13  16   13.00    0.61
   4 -13  16    4.39    0.39
  -4  13 -16    4.38    0.44
   5 -13  16    0.15    0.21
   6 -14 -16    8.88    0.62
   5 -14 -16    0.30    0.21
   5  14 -16    0.08    0.25
   4 -14 -16    1.89    0.28
  -4 -14  16    1.71    0.26
   4  14 -16    1.71    0.30
  -3 -14  16   10.35    0.54
   3  14 -16   10.32    0.59
  -2 -14  16    4.20    0.38
   2  14 -16    3.72    0.38
  -1 -14  16    2.50    0.29
   1  14 -16    2.17    0.33
  -1  14  16    2.98    0.29
   0 -14  16   11.92    0.57
   0  14 -16   11.43    0.63
   0  14  16   11.72    0.54
   1 -14  16    3.52    0.35
   1  14  16    3.21    0.31
  -1  14 -16    2.85    0.35
   2 -14  16   13.57    0.63
  -2  14 -16   12.74    0.71
   2  14  16   12.90    0.60
   3 -14  16    0.81    0.24
   4 -14  16    5.82    0.50
   5 -15 -16    4.63    0.42
   4 -15 -16    3.30    0.35
  -1 -15  16    0.26    0.32
   0 -15  16    3.80    0.45
   0  15  16    4.83    0.37
   1 -15  16    1.88    0.36
   1  15  16    2.59    0.29
   2  15  16    8.00    0.72
   0  16  16    2.45    0.29
  10   0 -17    3.67    0.38
   9   0 -17    8.59    0.52
   8   0 -17    2.72    0.29
   7   0 -17   -0.09    0.16
  -7   0  17   -0.11    0.15
  -6   0  17    0.22    0.16
   6   0 -17    0.58    0.19
   5   0 -17    8.22    0.46
  -5   0  17    7.84    0.41
   4   0 -17    0.00    0.16
  -4   0  17    0.00    0.16
   3   0 -17    8.28    0.44
  -3   0  17    7.62    0.41
  -2   0  17    3.42    0.31
   2   0 -17    2.78    0.27
   1   0 -17    0.65    0.18
  -1   0  17    0.51    0.17
   0   0 -17   -0.08    0.13
   0   0  17   -0.25    0.15
  -1   0 -17    0.60    0.17
   1   0  17    0.51    0.19
   2   0  17   10.25    0.51
  -2   0 -17   11.34    0.48
   3   0  17    0.13    0.17
   4   0  17    2.70    0.30
   5   0  17    5.84    0.42
   6   0  17    0.32    0.21
   7   0  17    8.06    0.49
   8   0  17    1.34    0.32
  10  -1 -17    3.41    0.35
  10   1 -17    3.70    0.37
   9  -1 -17    9.63    0.54
   9   1 -17    9.17    0.51
   8  -1 -17    5.46    0.39
   8   1 -17    4.77    0.40
   7  -1 -17    3.18    0.32
  -7  -1  17    3.11    0.26
   7   1 -17    3.42    0.34
  -6  -1  17    0.71    0.18
   6  -1 -17    1.08    0.22
  -6   1  17    0.87    0.18
   6   1 -17    0.93    0.20
  -5  -1  17    0.09    0.16
   5  -1 -17   -0.12    0.14
   5   1 -17    0.21    0.17
  -5   1  17    0.03    0.15
   4  -1 -17   21.31    0.79
  -4  -1  17   22.36    0.75
  -4   1  17   22.25    0.74
   4   1 -17   21.83    0.80
   3  -1 -17    5.87    0.38
  -3  -1  17    5.99    0.37
   3   1 -17    5.44    0.38
  -3   1  17    5.56    0.36
   2  -1 -17    9.57    0.47
  -2  -1  17    9.46    0.46
   2   1 -17    9.39    0.46
  -2   1  17    9.26    0.46
   1  -1 -17    2.51    0.26
  -1  -1  17    2.29    0.26
  -1   1  17    2.05    0.24
   1   1 -17    2.18    0.25
   0  -1 -17    1.44    0.20
   0  -1  17    1.28    0.22
   0   1  17    1.31    0.23
   0   1 -17    1.24    0.21
  -1  -1 -17   10.36    0.46
   1  -1  17    9.76    0.49
  -1   1 -17    9.86    0.46
   1   1  17    9.57    0.48
   2  -1  17    1.23    0.22
  -2   1 -17    1.36    0.21
   2   1  17    1.17    0.23
   3  -1  17    5.54    0.40
   3   1  17    5.88    0.40
   4  -1  17   11.38    0.54
   4   1  17   12.99    0.58
   5  -1  17   -0.05    0.19
   5   1  17   -0.14    0.17
   6  -1  17    2.26    0.30
   6   1  17    2.30    0.29
   7  -1  17    1.05    0.25
   7   1  17    0.77    0.23
   8  -1  17    6.99    0.49
   8   1  17    8.14    0.75
  10  -2 -17    3.74    0.38
  10   2 -17    4.22    0.41
   9  -2 -17    0.88    0.24
   9   2 -17    0.63    0.22
   8  -2 -17    4.99    0.38
   8   2 -17    4.50    0.40
   7  -2 -17    1.72    0.26
  -7  -2  17    2.35    0.24
   7   2 -17    2.47    0.30
   6  -2 -17    9.74    0.51
  -6  -2  17    8.85    0.44
   6   2 -17    8.92    0.48
  -6   2  17    9.74    0.44
   5  -2 -17    6.41    0.40
  -5  -2  17    6.32    0.38
  -5   2  17    6.36    0.38
   5   2 -17    6.84    0.43
   4  -2 -17    1.96    0.25
  -4  -2  17    2.05    0.25
   4   2 -17    2.42    0.28
  -4   2  17    2.04    0.23
  -3  -2  17    0.86    0.20
   3  -2 -17    0.82    0.19
   3   2 -17    0.52    0.19
  -3   2  17    0.74    0.18
   2  -2 -17   14.10    0.58
  -2  -2  17   14.05    0.57
   2   2 -17   14.11    0.58
  -2   2  17   13.81    0.56
   1  -2 -17    1.00    0.19
  -1  -2  17    1.13    0.21
   1   2 -17    1.24    0.20
  -1   2  17    1.07    0.21
   0  -2  17   11.46    0.53
   0  -2 -17   11.91    0.51
   0   2 -17   11.82    0.52
   0   2  17   12.07    0.53
   1  -2  17    0.10    0.18
  -1  -2 -17    0.36    0.15
   1   2  17    0.07    0.16
  -1   2 -17    0.29    0.16
   2  -2  17    6.83    0.43
  -2   2 -17    7.51    0.40
   2   2  17    6.95    0.42
   3  -2  17    9.38    0.49
   3   2  17    8.57    0.47
   4  -2  17    3.24    0.32
   4   2  17    2.96    0.30
   5  -2  17    4.73    0.40
   5   2  17    4.85    0.40
   6  -2  17    4.29    0.40
   6   2  17    5.16    0.42
   7  -2  17    3.48    0.35
   7   2  17    3.69    0.36
   8  -2  17    0.79    0.25
  10  -3 -17    0.14    0.21
  10   3 -17   -0.02    0.18
   9  -3 -17    3.50    0.35
   9   3 -17    4.13    0.40
  -8  -3  17   12.46    0.52
   8  -3 -17   12.50    0.61
   8   3 -17   13.58    0.61
   7  -3 -17    8.51    0.49
  -7  -3  17    8.15    0.42
   7   3 -17    9.29    0.49
  -6  -3  17    8.59    0.42
   6  -3 -17    8.52    0.48
   6   3 -17    7.39    0.44
  -6   3  17    7.21    0.52
   5  -3 -17    2.14    0.27
  -5  -3  17    2.63    0.27
  -5   3  17    2.68    0.25
   5   3 -17    3.32    0.32
   4  -3 -17    1.51    0.23
  -4  -3  17    1.50    0.23
  -4   3  17    1.23    0.20
   4   3 -17    1.35    0.23
   3  -3 -17    0.69    0.18
  -3  -3  17    0.65    0.20
  -3   3  17    0.68    0.18
   3   3 -17    0.71    0.20
   2  -3 -17    5.96    0.38
  -2  -3  17    5.96    0.39
  -2   3  17    5.96    0.37
   2   3 -17    6.17    0.40
  -1  -3  17    6.68    0.41
   1  -3 -17    6.89    0.39
   1   3 -17    6.41    0.40
  -1   3  17    6.43    0.39
   0  -3 -17   11.66    0.49
   0  -3  17   10.78    0.51
   0   3  17   11.16    0.51
   0   3 -17   10.89    0.51
  -1  -3 -17   13.83    0.61
   1  -3  17   12.76    0.55
   1   3  17   12.40    0.55
  -1   3 -17   12.87    0.56
   2  -3  17    0.99    0.22
  -2   3 -17    1.07    0.20
   2   3  17    0.80    0.20
   3  -3  17    3.33    0.32
   3   3  17    2.74    0.27
  -3   3 -17    3.52    0.31
   4  -3  17    3.58    0.33
   4   3  17    3.72    0.33
   5  -3  17   18.16    0.73
   5   3  17   19.25    0.74
   6  -3  17    4.39    0.40
   6   3  17    4.77    0.40
   7  -3  17    8.58    0.50
   7   3  17    8.41    0.50
   8  -3  17    9.65    0.55
  10  -4 -17    6.47    0.53
  10   4 -17    6.00    0.46
   9  -4 -17    4.05    0.40
   9   4 -17    3.54    0.36
   8  -4 -17    4.05    0.37
  -8  -4  17    3.36    0.29
   8   4 -17    3.25    0.34
   7  -4 -17    0.68    0.22
  -7  -4  17    0.63    0.18
   7   4 -17    0.84    0.23
   6  -4 -17   13.87    0.63
  -6  -4  17   14.54    0.57
   6   4 -17   13.84    0.63
   5  -4 -17    1.37    0.24
  -5  -4  17    1.30    0.22
   5   4 -17    1.52    0.24
  -5   4  17    1.51    0.21
   4  -4 -17   16.76    0.67
  -4  -4  17   16.64    0.64
   4   4 -17   17.60    0.70
  -4   4  17   16.56    0.61
  -3  -4  17    4.97    0.36
   3  -4 -17    4.66    0.35
   3   4 -17    5.25    0.36
  -3   4  17    5.05    0.34
  -2  -4  17    4.69    0.36
   2  -4 -17    4.12    0.32
  -2   4  17    4.53    0.33
   2   4 -17    4.15    0.36
   1  -4 -17    2.07    0.23
  -1  -4  17    2.12    0.25
   1   4 -17    1.80    0.24
  -1   4  17    2.03    0.24
   0  -4  17    4.38    0.33
   0  -4 -17    5.31    0.33
   0   4  17    4.43    0.35
   0   4 -17    4.54    0.35
   1  -4  17    9.51    0.49
  -1   4 -17    9.44    0.48
   1   4  17   10.05    0.49
   2  -4  17   22.68    0.81
  -2   4 -17   23.71    0.81
   2   4  17   23.03    0.81
   3  -4  17    3.68    0.33
  -3   4 -17    3.19    0.32
   3   4  17    3.85    0.35
   4  -4  17    5.88    0.42
   4   4  17    6.36    0.42
   5  -4  17   13.91    0.62
   5   4  17   13.85    0.62
   6  -4  17    2.79    0.32
   6   4  17    2.72    0.30
   7  -4  17    1.04    0.25
   7   4  17    0.83    0.24
   8  -4  17    1.57    0.28
  10   5 -17    1.76    0.30
   9  -5 -17   14.27    0.68
   9   5 -17   14.09    0.67
  -8  -5  17    4.68    0.36
   8  -5 -17    4.88    0.39
   8   5 -17    4.90    0.42
  -7  -5  17    0.20    0.16
   7  -5 -17    0.21    0.17
   7   5 -17    0.31    0.20
  -6  -5  17    2.62    0.26
   6  -5 -17    2.95    0.31
   6   5 -17    2.85    0.31
   5  -5 -17    6.23    0.41
  -5  -5  17    6.18    0.39
  -5   5  17    5.79    0.34
   5   5 -17    6.09    0.42
   4  -5 -17    1.46    0.24
  -4  -5  17    1.06    0.21
  -4   5  17    0.89    0.19
   4   5 -17    1.33    0.24
  -3  -5  17    6.23    0.40
   3  -5 -17    5.93    0.40
  -3   5  17    6.47    0.37
   3   5 -17    6.31    0.42
  -2  -5  17    0.23    0.16
   2  -5 -17    0.39    0.16
   2   5 -17    0.40    0.19
  -2   5  17    0.25    0.17
   1  -5 -17    0.99    0.18
  -1  -5  17    0.88    0.22
  -1   5  17    0.44    0.18
   1   5 -17    0.90    0.20
   0  -5 -17   10.67    0.47
   0  -5  17   10.31    0.51
   0   5 -17   10.14    0.50
   0   5  17   10.11    0.49
   1  -5  17   16.58    0.65
  -1   5 -17   15.45    0.64
   1   5  17   16.45    0.64
   2  -5  17    2.54    0.27
   2   5  17    3.89    0.32
  -2   5 -17    3.37    0.33
   3  -5  17    7.25    0.45
  -3   5 -17    7.85    0.43
   3   5  17    7.52    0.45
   4  -5  17    2.41    0.29
   4   5  17    2.31    0.29
   5  -5  17    0.90    0.23
   5   5  17    0.70    0.23
   6  -5  17    4.43    0.40
   6   5  17    5.00    0.42
   7  -5  17    0.26    0.22
   7   5  17    0.74    0.39
   8  -5  17    0.10    0.25
  10   6 -17    3.61    0.56
   9  -6 -17    5.83    0.46
  -9  -6  17    5.17    0.40
   9   6 -17    5.42    0.45
   8  -6 -17   -0.05    0.19
  -8  -6  17   -0.23    0.16
   8   6 -17   -0.02    0.18
   7  -6 -17    9.48    0.54
  -7  -6  17   10.53    0.48
   7   6 -17    9.47    0.54
  -6  -6  17   12.78    0.55
   6  -6 -17   12.54    0.59
   6   6 -17   11.81    0.59
  -5  -6  17   16.93    0.65
   5  -6 -17   17.73    0.71
   5   6 -17   17.78    0.72
   4  -6 -17    2.50    0.28
  -4  -6  17    2.16    0.25
   4   6 -17    2.81    0.31
  -4   6  17    2.25    0.24
   3  -6 -17    0.16    0.16
  -3  -6  17    0.19    0.18
  -3   6  17    0.14    0.16
   3   6 -17    0.35    0.17
  -2  -6  17    4.82    0.37
   2  -6 -17    5.35    0.36
  -2   6  17    4.86    0.35
   2   6 -17    5.61    0.38
  -1  -6  17    2.31    0.26
   1  -6 -17    2.56    0.26
  -1   6  17    2.71    0.27
   1   6 -17    2.81    0.30
   0  -6  17    2.27    0.27
   0   6  17    2.21    0.26
   0   6 -17    2.15    0.27
   1  -6  17    2.79    0.29
   1   6  17    2.82    0.28
  -1   6 -17    2.22    0.28
   2  -6  17    3.37    0.32
  -2   6 -17    4.55    0.36
   2   6  17    3.81    0.33
   3  -6  17    2.59    0.28
  -3   6 -17    2.73    0.29
   3   6  17    4.08    0.37
   4  -6  17    1.30    0.24
   4   6  17    1.46    0.25
  -4   6 -17    1.23    0.22
   5  -6  17   10.01    0.53
   5   6  17   10.68    0.55
   6  -6  17    8.77    0.51
   6   6  17    9.20    0.52
   7  -6  17    4.52    0.42
  -9  -7  17    6.77    0.42
   9  -7 -17    6.48    0.56
   9   7 -17    6.38    0.48
   8  -7 -17    2.11    0.28
  -8  -7  17    2.14    0.26
   8   7 -17    3.01    0.34
  -7  -7  17    5.20    0.39
   7  -7 -17    5.13    0.42
   7   7 -17    5.13    0.42
   6  -7 -17    1.56    0.26
  -6  -7  17    0.99    0.20
   6   7 -17    1.42    0.26
  -5  -7  17    6.90    0.41
   5  -7 -17    6.72    0.44
   5   7 -17    6.46    0.45
   4  -7 -17   17.30    0.70
  -4  -7  17   17.47    0.68
  -4   7  17   18.49    0.64
   4   7 -17   18.73    0.75
   3  -7 -17    6.76    0.41
  -3  -7  17    6.96    0.42
  -3   7  17    6.73    0.38
   3   7 -17    6.59    0.42
  -2  -7  17    4.60    0.37
   2  -7 -17    5.03    0.35
   2   7 -17    5.56    0.38
  -2   7  17    4.74    0.34
   1  -7 -17    1.27    0.20
  -1  -7  17    1.59    0.24
   1   7 -17    1.28    0.24
  -1   7  17    1.62    0.23
   0  -7  17    2.26    0.27
   0   7 -17    2.46    0.28
   0   7  17    2.94    0.28
   1  -7  17    5.00    0.39
   1   7  17    5.39    0.39
  -1   7 -17    5.14    0.39
   2  -7  17    4.71    0.39
   2   7  17    4.42    0.37
  -2   7 -17    4.94    0.38
   3  -7  17   11.52    0.54
  -3   7 -17    9.83    0.52
   3   7  17   10.20    0.53
   4  -7  17    4.55    0.40
   4   7  17    5.45    0.41
  -4   7 -17    4.71    0.38
   5  -7  17    0.62    0.23
   5   7  17    0.57    0.22
   6  -7  17    1.09    0.26
   6   7  17    1.56    0.32
   7  -7  17    2.85    0.32
  -9  -8  17    3.16    0.31
   9   8 -17    3.06    0.34
  -8  -8  17    4.19    0.37
   8  -8 -17    4.73    0.43
   8   8 -17    4.29    0.42
   7  -8 -17    4.70    0.42
  -7  -8  17    5.24    0.40
   7   8 -17    4.90    0.43
  -6  -8  17   11.93    0.55
   6  -8 -17   11.59    0.59
   6   8 -17   12.86    0.61
   5  -8 -17   12.08    0.58
  -5  -8  17   12.54    0.56
   5   8 -17   11.78    0.60
   4  -8 -17    4.40    0.36
  -4  -8  17    3.71    0.34
   4   8 -17    3.39    0.34
   3  -8 -17    0.25    0.16
  -3  -8  17    0.01    0.17
  -3   8  17    0.26    0.16
   3   8 -17    0.28    0.20
  -2  -8  17    0.41    0.20
   2  -8 -17    0.60    0.18
   2   8 -17    0.37    0.20
  -2   8  17    0.49    0.18
   1  -8 -17   11.86    0.72
  -1  -8  17   11.63    0.55
  -1   8  17   12.08    0.53
   1   8 -17   12.33    0.59
   0  -8  17    2.25    0.27
   0   8 -17    2.25    0.30
   0   8  17    2.81    0.28
   1  -8  17   15.40    0.64
   1   8  17   15.70    0.64
  -1   8 -17   16.81    0.69
   2  -8  17    6.54    0.44
   2   8  17    6.90    0.43
  -2   8 -17    6.62    0.44
   3  -8  17    3.38    0.33
   3   8  17    3.50    0.34
  -3   8 -17    3.56    0.34
   4  -8  17    2.52    0.30
  -4   8 -17    2.58    0.30
   4   8  17    2.41    0.29
   5  -8  17    1.59    0.28
   5   8  17    1.99    0.27
   6  -8  17    3.04    0.33
   7  -8  17    0.57    0.24
  -9  -9  17    0.72    0.20
  -8  -9  17    3.11    0.31
   8  -9 -17    3.40    0.36
   8   9 -17    2.35    0.31
  -7  -9  17    0.17    0.19
   7  -9 -17    0.80    0.24
   7   9 -17    0.59    0.23
   6  -9 -17    1.09    0.24
  -6  -9  17    0.90    0.22
   6   9 -17    1.14    0.25
   5  -9 -17    0.34    0.19
  -5  -9  17    0.32    0.18
   5   9 -17    0.58    0.22
   4  -9 -17    5.08    0.38
  -4  -9  17    4.98    0.39
   4   9 -17    5.13    0.43
   3  -9 -17    0.19    0.17
  -3  -9  17    0.57    0.18
  -3   9  17    0.59    0.18
   3   9 -17    0.44    0.20
  -2  -9  17    7.61    0.45
   2  -9 -17    7.52    0.44
  -2   9  17    8.10    0.43
   2   9 -17    7.45    0.46
  -1  -9  17    1.09    0.22
  -1   9  17    0.99    0.20
   1   9 -17    0.91    0.24
   0  -9  17    7.79    0.46
   0   9 -17    8.36    0.49
   0   9  17    7.48    0.44
   1  -9  17    3.97    0.37
   1   9  17    3.93    0.36
  -1   9 -17    3.97    0.39
   2  -9  17   12.07    0.58
  -2   9 -17   12.80    0.61
   2   9  17   12.51    0.58
   3  -9  17    0.42    0.21
  -3   9 -17    0.83    0.24
   3   9  17    0.85    0.23
   4  -9  17    3.09    0.32
  -4   9 -17    3.60    0.35
   4   9  17    3.57    0.34
   5  -9  17    7.73    0.48
  -5   9 -17    8.04    0.53
   5   9  17    8.25    0.54
   6  -9  17    3.23    0.34
  -8 -10  17    6.27    0.43
   8  10 -17    6.45    0.61
  -7 -10  17    2.12    0.27
   7 -10 -17    2.29    0.31
   7  10 -17    2.18    0.32
  -6 -10  17    0.10    0.18
   6 -10 -17    0.23    0.18
   6  10 -17    0.01    0.20
   5 -10 -17    4.07    0.38
  -5 -10  17    4.06    0.37
   5  10 -17    4.19    0.42
   4 -10 -17    8.33    0.48
  -4 -10  17    7.92    0.46
   4  10 -17    7.54    0.50
   3 -10 -17    5.75    0.39
  -3 -10  17    4.64    0.36
   3  10 -17    4.96    0.42
  -3  10  17    5.64    0.42
  -2 -10  17    1.86    0.25
   2 -10 -17    2.56    0.29
   2  10 -17    2.05    0.29
  -2  10  17    2.46    0.26
  -1 -10  17   11.32    0.55
  -1  10  17   10.91    0.52
   1  10 -17   10.65    0.58
   0 -10  17    6.90    0.44
   0  10  17    5.86    0.40
   0  10 -17    6.11    0.46
   1 -10  17    0.25    0.20
   1  10  17    0.64    0.21
  -1  10 -17    0.79    0.24
   2 -10  17    6.24    0.44
  -2  10 -17    5.76    0.45
   2  10  17    6.72    0.44
   3 -10  17   13.01    0.62
  -3  10 -17   13.25    0.64
   3  10  17   14.39    0.64
   4 -10  17    3.44    0.35
   4  10  17    3.55    0.35
  -4  10 -17    4.02    0.38
   5 -10  17   10.50    0.55
  -5  10 -17   10.99    0.59
   6 -10  17    2.19    0.35
   7 -11 -17    2.82    0.34
  -7 -11  17    2.36    0.28
   7  11 -17    2.45    0.38
  -6 -11  17    0.31    0.21
   6 -11 -17    0.38    0.21
   6  11 -17    0.36    0.23
   5 -11 -17    0.10    0.18
  -5 -11  17    0.30    0.20
   5  11 -17    0.73    0.22
  -4 -11  17    8.55    0.49
   4 -11 -17    9.76    0.52
   4  11 -17    8.74    0.54
   3 -11 -17    6.11    0.41
  -3 -11  17    5.82    0.42
   3  11 -17    6.96    0.49
  -2 -11  17    1.90    0.27
   2  11 -17    2.26    0.32
  -2  11  17    2.28    0.26
  -1 -11  17    6.99    0.45
   1  11 -17    6.64    0.48
  -1  11  17    6.67    0.41
   0 -11  17    6.33    0.43
   0  11 -17    6.59    0.48
   0  11  17    6.60    0.42
   1 -11  17    0.75    0.23
  -1  11 -17    0.42    0.20
   1  11  17    0.52    0.20
   2 -11  17    3.82    0.35
   2  11  17    4.34    0.39
  -2  11 -17    3.66    0.37
   3 -11  17    0.47    0.23
   3  11  17    0.94    0.23
  -3  11 -17    0.64    0.23
   4 -11  17    0.20    0.21
  -4  11 -17   -0.03    0.20
   5 -11  17    0.09    0.21
  -5  11 -17    0.27    0.21
   6 -12 -17   11.27    0.59
  -6 -12  17   10.42    0.64
   6  12 -17   11.40    0.90
   5 -12 -17    2.36    0.30
  -5 -12  17    1.93    0.28
   5  12 -17    1.89    0.32
  -4 -12  17    2.11    0.29
   4 -12 -17    2.09    0.28
   4  12 -17    2.62    0.33
   3 -12 -17    0.87    0.22
  -3 -12  17    0.93    0.23
   3  12 -17    1.20    0.28
  -2 -12  17    5.66    0.42
  -2  12  17    5.08    0.41
   2  12 -17    5.82    0.47
  -1 -12  17    1.96    0.28
   1  12 -17    2.41    0.33
  -1  12  17    2.49    0.27
   0 -12  17    9.27    0.52
   0  12 -17    9.57    0.57
   0  12  17   10.06    0.50
   1 -12  17    5.19    0.42
   1  12  17    4.84    0.40
  -1  12 -17    5.70    0.46
   2 -12  17    4.76    0.41
  -2  12 -17    4.49    0.43
   2  12  17    5.48    0.42
   3 -12  17    0.45    0.23
   3  12  17    0.65    0.26
  -3  12 -17    0.01    0.20
   4 -12  17   12.87    0.64
  -4  12 -17   12.57    0.74
   5 -13 -17    1.53    0.27
   4 -13 -17   11.86    0.58
  -4 -13  17   10.83    0.76
   4  13 -17   12.11    0.93
  -3 -13  17    5.14    0.42
   3  13 -17    4.73    0.46
  -2 -13  17    9.71    0.52
   2  13 -17    8.85    0.57
  -1 -13  17    4.20    0.39
  -1  13  17    4.66    0.36
   1  13 -17    4.83    0.45
   0 -13  17    5.50    0.43
   0  13 -17    5.90    0.48
   0  13  17    5.68    0.42
   1 -13  17    2.17    0.29
  -1  13 -17    2.40    0.33
   1  13  17    2.70    0.31
   2 -13  17    4.35    0.43
   2  13  17    4.96    0.42
  -2  13 -17    4.76    0.65
   5 -14 -17    1.07    0.30
   4 -14 -17    1.06    0.28
  -1  14  17    1.35    0.28
   0  14  17    1.46    0.25
   1  14  17    7.93    0.48
   0  15  17    1.75    0.27
   9   0 -18    3.36    0.36
   8   0 -18    3.23    0.34
   7   0 -18    4.17    0.38
   6   0 -18    0.12    0.18
  -6   0  18   -0.14    0.15
   5   0 -18   25.39    0.90
  -5   0  18   25.04    0.83
  -4   0  18    4.34    0.35
   4   0 -18    4.49    0.38
  -3   0  18    1.52    0.23
   3   0 -18    1.56    0.25
  -2   0  18    4.32    0.36
   2   0 -18    4.57    0.37
  -1   0  18    6.43    0.41
   1   0 -18    6.81    0.40
   0   0  18    0.06    0.18
   0   0 -18    0.06    0.15
  -1   0 -18   -0.15    0.13
   1   0  18   -0.14    0.17
   2   0  18    4.77    0.39
   3   0  18    0.54    0.22
   4   0  18    0.57    0.22
   5   0  18    1.55    0.26
   6   0  18    7.48    0.48
   9  -1 -18    8.99    0.55
   9   1 -18    9.32    0.55
   8  -1 -18   10.69    0.57
   8   1 -18   10.80    0.57
  -7  -1  18    1.42    0.22
   7  -1 -18    1.78    0.27
   7   1 -18    1.21    0.25
   6  -1 -18    1.10    0.22
  -6  -1  18    1.29    0.22
  -6   1  18    1.14    0.21
   6   1 -18    1.32    0.25
   5  -1 -18    4.01    0.37
  -5  -1  18    3.44    0.30
   5   1 -18    4.03    0.37
  -5   1  18    3.96    0.33
   4  -1 -18   19.85    0.76
  -4  -1  18   19.18    0.70
  -4   1  18   19.11    0.70
   4   1 -18   19.36    0.76
   3  -1 -18    5.67    0.39
  -3  -1  18    5.53    0.38
   3   1 -18    5.81    0.40
  -3   1  18    5.52    0.37
   2  -1 -18    2.72    0.28
  -2  -1  18    2.60    0.28
  -2   1  18    2.66    0.28
   2   1 -18    2.03    0.25
  -1  -1  18    1.83    0.25
   1  -1 -18    1.35    0.22
   1   1 -18    1.58    0.23
  -1   1  18    1.52    0.24
   0  -1  18    0.43    0.19
   0  -1 -18    0.29    0.16
   0   1 -18    0.07    0.16
   0   1  18    0.58    0.20
  -1  -1 -18    2.66    0.26
   1  -1  18    2.51    0.28
  -1   1 -18    2.24    0.26
   1   1  18    2.66    0.29
   2  -1  18    5.59    0.41
   2   1  18    5.61    0.41
  -2   1 -18    5.47    0.47
   3  -1  18   11.25    0.55
   3   1  18   10.67    0.54
   4  -1  18    2.90    0.33
   4   1  18    3.22    0.33
   5  -1  18    5.45    0.43
   5   1  18    6.34    0.44
   6  -1  18    0.58    0.23
   6   1  18    0.43    0.23
   9  -2 -18    4.33    0.42
   9   2 -18    4.50    0.42
   8  -2 -18    1.61    0.28
   8   2 -18    1.45    0.27
   7  -2 -18    0.09    0.17
  -7  -2  18   -0.05    0.15
   7   2 -18    0.08    0.17
   6  -2 -18    0.42    0.20
  -6  -2  18    0.47    0.18
   6   2 -18    0.53    0.20
  -6   2  18    0.58    0.18
  -5  -2  18    2.26    0.26
   5  -2 -18    2.32    0.29
  -5   2  18    2.78    0.27
   5   2 -18    2.17    0.29
   4  -2 -18    3.66    0.35
  -4  -2  18    3.92    0.34
   4   2 -18    3.94    0.36
  -4   2  18    3.30    0.29
   3  -2 -18    9.06    0.48
  -3  -2  18    8.87    0.47
  -3   2  18    9.10    0.46
   3   2 -18    8.73    0.49
  -2  -2  18    2.54    0.28
   2  -2 -18    2.58    0.27
  -2   2  18    2.57    0.27
   2   2 -18    2.37    0.28
   1  -2 -18    2.41    0.26
  -1  -2  18    2.61    0.28
  -1   2  18    2.66    0.26
   1   2 -18    3.28    0.31
   0  -2  18    5.28    0.36
   0  -2 -18    4.25    0.34
   0   2 -18    4.70    0.35
   0   2  18    4.83    0.35
   1  -2  18    3.69    0.32
   1   2  18    3.88    0.35
  -1   2 -18    3.86    0.32
   2  -2  18    6.87    0.45
   2   2  18    6.93    0.44
  -2   2 -18    6.57    0.39
   3  -2  18    0.51    0.22
   3   2  18    1.13    0.23
   4  -2  18    0.64    0.24
   4   2  18    0.60    0.22
   5  -2  18    5.93    0.44
   5   2  18    5.97    0.45
   6  -2  18    0.84    0.24
   6   2  18    1.05    0.25
   9  -3 -18    2.29    0.33
   9   3 -18    2.68    0.34
   8  -3 -18    1.05    0.26
   8   3 -18    1.70    0.29
   7  -3 -18    4.41    0.40
  -7  -3  18    4.04    0.34
   7   3 -18    4.20    0.39
   6  -3 -18    9.59    0.51
  -6  -3  18    9.03    0.47
   6   3 -18   10.13    0.54
  -5  -3  18    3.75    0.33
   5  -3 -18    3.25    0.32
  -5   3  18    3.64    0.33
   5   3 -18    3.11    0.32
   4  -3 -18    8.58    0.47
  -4  -3  18    7.29    0.43
  -4   3  18    7.69    0.42
   4   3 -18    7.73    0.47
   3  -3 -18    3.50    0.32
  -3  -3  18    2.86    0.30
  -3   3  18    2.62    0.27
   3   3 -18    2.79    0.31
   2  -3 -18    5.32    0.37
  -2  -3  18    5.66    0.40
  -2   3  18    5.40    0.37
   2   3 -18    5.58    0.40
   1  -3 -18    1.99    0.25
  -1  -3  18    1.52    0.23
  -1   3  18    1.84    0.25
   1   3 -18    1.39    0.23
   0  -3 -18    3.71    0.32
   0  -3  18    3.65    0.32
   0   3  18    3.82    0.33
   0   3 -18    3.72    0.33
   1  -3  18    7.23    0.44
   1   3  18    6.50    0.43
  -1   3 -18    7.21    0.42
   2  -3  18   10.36    0.53
  -2   3 -18   10.79    0.52
   2   3  18   10.78    0.51
   3  -3  18    8.30    0.46
   3   3  18    8.73    0.49
   4  -3  18    2.87    0.32
   4   3  18    3.35    0.34
   5  -3  18    1.80    0.29
   5   3  18    1.55    0.27
   6  -3  18    1.89    0.30
   6   3  18    2.32    0.32
   9  -4 -18    2.95    0.46
   9   4 -18    3.22    0.38
   8  -4 -18    2.81    0.33
  -8  -4  18    3.17    0.29
   8   4 -18    3.60    0.36
   7  -4 -18    0.25    0.21
  -7  -4  18    0.17    0.17
   7   4 -18   -0.12    0.18
   6  -4 -18    9.26    0.52
  -6  -4  18    9.16    0.47
   6   4 -18    9.56    0.53
  -5  -4  18    0.04    0.18
   5  -4 -18    0.05    0.17
  -5   4  18    0.15    0.17
   5   4 -18    0.24    0.19
   4  -4 -18   13.42    0.59
  -4  -4  18   12.45    0.56
   4   4 -18   13.30    0.62
  -4   4  18   12.61    0.54
   3  -4 -18    1.54    0.24
  -3  -4  18    1.93    0.26
   3   4 -18    1.76    0.27
  -3   4  18    1.67    0.24
   2  -4 -18    2.74    0.28
  -2  -4  18    2.46    0.28
   2   4 -18    1.91    0.26
  -2   4  18    2.53    0.27
   1  -4 -18   20.79    0.75
  -1  -4  18   20.92    0.76
  -1   4  18   20.86    0.74
   1   4 -18   19.61    0.77
   0  -4 -18    1.38    0.21
   0  -4  18    0.88    0.22
   0   4 -18    0.90    0.21
   0   4  18    0.92    0.21
   1  -4  18    3.33    0.33
  -1   4 -18    3.89    0.34
   1   4  18    3.85    0.33
   2  -4  18    9.23    0.51
  -2   4 -18   10.05    0.50
   2   4  18   10.22    0.52
   3  -4  18    0.33    0.22
  -3   4 -18    0.77    0.23
   3   4  18    0.62    0.21
   4  -4  18    2.07    0.30
   4   4  18    2.18    0.29
   5  -4  18    5.22    0.43
   5   4  18    5.68    0.43
   6  -4  18    1.73    0.29
   9   5 -18    3.65    0.57
   8  -5 -18    2.04    0.29
  -8  -5  18    2.63    0.28
   8   5 -18    2.34    0.32
   7  -5 -18    6.35    0.46
  -7  -5  18    6.66    0.42
   7   5 -18    6.56    0.47
   6  -5 -18    5.55    0.42
  -6  -5  18    5.40    0.38
   6   5 -18    5.39    0.43
   5  -5 -18    0.41    0.20
  -5  -5  18    0.23    0.17
   5   5 -18    0.23    0.18
  -4  -5  18    1.22    0.22
   4  -5 -18    2.03    0.27
  -4   5  18    1.58    0.23
   4   5 -18    1.48    0.26
   3  -5 -18    1.72    0.25
  -3  -5  18    1.74    0.25
  -3   5  18    1.66    0.23
   3   5 -18    1.57    0.25
  -2  -5  18   10.28    0.52
   2  -5 -18   10.90    0.52
   2   5 -18   11.51    0.56
  -2   5  18   10.47    0.50
  -1  -5  18    1.56    0.26
   1  -5 -18    1.87    0.24
   1   5 -18    1.63    0.25
  -1   5  18    1.65    0.24
   0  -5  18    3.78    0.34
   0   5  18    4.15    0.35
   0   5 -18    3.65    0.35
   1  -5  18   -0.10    0.18
   1   5  18    0.87    0.21
  -1   5 -18    0.29    0.18
   2  -5  18    6.77    0.45
   2   5  18    6.90    0.44
  -2   5 -18    6.58    0.42
   3  -5  18    5.82    0.43
   3   5  18    5.24    0.40
  -3   5 -18    5.59    0.38
   4  -5  18    1.45    0.26
   4   5  18    2.07    0.29
   5  -5  18    3.31    0.35
   5   5  18    3.09    0.33
   6  -5  18    0.60    0.24
   8  -6 -18    6.74    0.49
  -8  -6  18    6.14    0.41
   8   6 -18    6.59    0.49
   7  -6 -18    1.63    0.28
  -7  -6  18    0.87    0.22
   7   6 -18    1.02    0.26
   6  -6 -18    3.33    0.35
  -6  -6  18    3.11    0.30
   6   6 -18    3.10    0.34
   5  -6 -18    1.78    0.27
  -5  -6  18    1.37    0.23
   5   6 -18    1.72    0.26
  -4  -6  18   16.49    0.66
   4  -6 -18   16.43    0.69
   4   6 -18   16.64    0.71
  -4   6  18   16.26    0.63
   3  -6 -18    1.31    0.23
  -3  -6  18    1.13    0.23
   3   6 -18    1.33    0.26
  -3   6  18    1.30    0.22
  -2  -6  18    2.54    0.27
   2  -6 -18    3.28    0.32
  -2   6  18    3.07    0.30
   2   6 -18    2.72    0.30
  -1  -6  18    4.70    0.36
   1  -6 -18    4.54    0.34
   1   6 -18    4.59    0.39
  -1   6  18    4.81    0.37
   0  -6  18    8.28    0.48
   0   6 -18    7.97    0.48
   0   6  18    8.20    0.46
   1  -6  18    8.75    0.50
  -1   6 -18    9.53    0.50
   1   6  18    8.71    0.46
   2  -6  18    1.22    0.26
   2   6  18    1.51    0.25
  -2   6 -18    1.39    0.24
   3  -6  18    1.45    0.27
   3   6  18    1.80    0.27
  -3   6 -18    1.62    0.26
   4  -6  18    5.14    0.42
   4   6  18    5.34    0.43
   5  -6  18    4.40    0.40
   5   6  18    4.32    0.40
   6  -6  18    1.96    0.31
  -9  -7  18    5.48    0.40
   8  -7 -18    5.52    0.53
  -8  -7  18    5.16    0.41
   8   7 -18    5.00    0.45
   7  -7 -18    0.58    0.24
  -7  -7  18    0.41    0.20
   7   7 -18    0.36    0.20
   6  -7 -18    3.04    0.33
  -6  -7  18    3.14    0.31
   6   7 -18    2.69    0.31
  -5  -7  18    1.80    0.26
   5  -7 -18    2.32    0.29
   5   7 -18    2.22    0.30
   4  -7 -18    4.01    0.37
  -4  -7  18    3.46    0.32
  -4   7  18    4.12    0.35
   4   7 -18    4.21    0.40
   3  -7 -18   10.84    0.54
  -3  -7  18   10.94    0.54
  -3   7  18   11.41    0.51
   3   7 -18   11.30    0.58
  -2  -7  18   13.74    0.61
   2  -7 -18   14.55    0.61
  -2   7  18   13.64    0.58
   2   7 -18   14.02    0.65
  -1  -7  18    0.43    0.21
  -1   7  18    0.48    0.20
   1   7 -18    0.42    0.20
   0  -7  18   13.79    0.60
   0   7  18   14.94    0.61
   0   7 -18   13.86    0.63
   1  -7  18    5.42    0.42
  -1   7 -18    4.59    0.40
   1   7  18    5.12    0.40
   2  -7  18    5.06    0.42
  -2   7 -18    5.51    0.41
   2   7  18    5.43    0.41
   3  -7  18   21.74    0.83
   3   7  18   23.21    0.84
  -3   7 -18   22.89    0.85
   4  -7  18    3.44    0.36
   4   7  18    3.61    0.35
  -4   7 -18    3.57    0.52
   5  -7  18    0.73    0.24
  -9  -8  18    9.23    0.51
  -8  -8  18    3.57    0.33
  -7  -8  18   22.45    0.82
   7  -8 -18   22.74    0.89
   7   8 -18   22.58    0.89
   6  -8 -18    3.53    0.36
  -6  -8  18    3.13    0.32
   6   8 -18    3.49    0.36
  -5  -8  18    8.86    0.49
   5  -8 -18    9.23    0.51
   5   8 -18    9.64    0.55
   4  -8 -18    1.36    0.24
  -4  -8  18    0.93    0.23
   4   8 -18    1.00    0.26
   3  -8 -18    0.85    0.21
  -3  -8  18    0.58    0.21
   3   8 -18    1.22    0.26
  -3   8  18    1.16    0.21
   2  -8 -18    7.89    0.44
  -2  -8  18    7.78    0.47
  -2   8  18    7.69    0.45
   2   8 -18    7.64    0.50
  -1  -8  18    4.07    0.38
   1   8 -18    3.42    0.35
  -1   8  18    3.76    0.35
   0  -8  18   14.30    0.64
   0   8  18   15.56    0.63
   0   8 -18   14.22    0.66
   1  -8  18    3.60    0.34
  -1   8 -18    4.25    0.39
   1   8  18    4.57    0.38
   2  -8  18    0.94    0.24
   2   8  18    1.12    0.24
  -2   8 -18    0.86    0.23
   3  -8  18    3.48    0.35
  -3   8 -18    3.72    0.36
   3   8  18    4.35    0.38
   4  -8  18    3.88    0.37
   4   8  18    4.47    0.41
  -4   8 -18    3.78    0.38
   5  -8  18    0.44    0.24
  -8  -9  18    3.26    0.33
  -7  -9  18    5.30    0.41
   7  -9 -18    7.01    0.50
   7   9 -18    6.79    0.73
  -6  -9  18    0.30    0.19
   6  -9 -18    0.27    0.21
   6   9 -18    0.40    0.23
   5  -9 -18    1.71    0.27
  -5  -9  18    0.93    0.24
   5   9 -18    0.86    0.25
  -4  -9  18    6.09    0.43
   4  -9 -18    5.82    0.43
   4   9 -18    5.80    0.46
  -3  -9  18    5.55    0.41
   3  -9 -18    5.39    0.39
  -3   9  18    5.16    0.37
   3   9 -18    5.89    0.46
  -2  -9  18    7.14    0.46
   2  -9 -18    8.16    0.67
  -2   9  18    7.58    0.43
   2   9 -18    7.39    0.50
  -1  -9  18    1.55    0.26
  -1   9  18    1.64    0.24
   1   9 -18    1.32    0.25
   0  -9  18    4.04    0.36
   0   9 -18    4.75    0.41
   0   9  18    4.66    0.38
   1  -9  18    4.18    0.37
   1   9  18    3.39    0.33
  -1   9 -18    4.13    0.40
   2  -9  18    3.13    0.34
  -2   9 -18    3.58    0.36
   2   9  18    2.98    0.31
   3  -9  18   14.19    0.66
   3   9  18   16.20    0.68
  -3   9 -18   15.02    0.69
   4  -9  18   16.96    0.72
  -4   9 -18   17.22    0.74
  -7 -10  18    4.29    0.43
  -6 -10  18    0.74    0.22
   6 -10 -18    0.93    0.25
   6  10 -18    0.76    0.28
   5 -10 -18    4.04    0.40
  -5 -10  18    3.00    0.32
   5  10 -18    3.05    0.35
  -4 -10  18    4.60    0.40
   4 -10 -18    5.25    0.41
   4  10 -18    4.47    0.45
   3 -10 -18    3.05    0.32
  -3 -10  18    3.07    0.33
   3  10 -18    2.91    0.35
  -2 -10  18    1.80    0.27
  -2  10  18    1.79    0.25
   2  10 -18    1.51    0.29
  -1 -10  18    1.56    0.27
  -1  10  18    1.62    0.24
   1  10 -18    1.36    0.27
   0 -10  18    0.83    0.24
   0  10 -18    1.11    0.26
   0  10  18    1.26    0.24
   1 -10  18    9.35    0.52
  -1  10 -18    9.56    0.56
   1  10  18    9.02    0.52
   2 -10  18    2.44    0.31
  -2  10 -18    2.49    0.32
   2  10  18    2.46    0.30
   3 -10  18    0.14    0.22
   3  10  18    0.67    0.25
  -3  10 -18    0.34    0.22
  -4  10 -18    4.40    0.41
   6 -11 -18    1.82    0.34
   5 -11 -18    5.55    0.43
  -5 -11  18    5.42    0.49
  -4 -11  18   11.34    0.57
   4 -11 -18   11.04    0.56
   4  11 -18   10.99    0.63
   3 -11 -18   19.48    0.95
  -3 -11  18   19.18    0.76
   3  11 -18   18.84    0.81
  -2 -11  18    4.27    0.40
  -2  11  18    5.38    0.39
   2  11 -18    4.50    0.41
  -1 -11  18    5.43    0.43
   1  11 -18    6.30    0.48
  -1  11  18    6.17    0.41
   0 -11  18    2.86    0.30
   0  11  18    2.99    0.31
   0  11 -18    3.31    0.37
   1 -11  18    3.56    0.35
  -1  11 -18    3.76    0.39
   1  11  18    3.68    0.35
   2 -11  18   13.83    0.69
  -2  11 -18   14.43    0.70
   2  11  18   15.12    0.66
  -3  11 -18    5.39    0.51
   5 -12 -18    1.41    0.26
   4 -12 -18    3.64    0.36
  -2 -12  18    0.02    0.27
   2  12 -18    0.16    0.37
  -1 -12  18    3.00    0.46
   1  12 -18    2.91    0.53
  -1  12  18    2.71    0.29
   0  12 -18    1.63    0.47
   0  12  18    2.57    0.30
   1  12  18    8.75    0.50
  -1  13  18    1.96    0.27
   0  13  18    4.21    0.38
   8   0 -19    1.63    0.29
   7   0 -19    1.02    0.23
  -6   0  19    0.67    0.20
   6   0 -19    0.79    0.23
  -5   0  19    1.20    0.23
   5   0 -19    1.30    0.24
  -4   0  19    2.12    0.26
   4   0 -19    2.35    0.29
   3   0 -19   10.34    0.53
  -3   0  19   10.19    0.50
   2   0 -19    4.03    0.36
  -2   0  19    4.13    0.37
   1   0 -19    0.12    0.15
  -1   0  19    0.11    0.20
   0   0  19    1.70    0.26
   0   0 -19    1.98    0.25
  -1   0 -19    1.17    0.22
   1   0  19    1.23    0.25
   2   0  19    3.12    0.33
   3   0  19    0.36    0.22
   4   0  19    8.66    0.52
   5   0  19    1.85    0.34
   8  -1 -19    5.35    0.45
   8   1 -19    5.31    0.45
   7  -1 -19    2.99    0.33
   7   1 -19    2.89    0.34
  -6  -1  19    7.46    0.45
   6  -1 -19    8.35    0.50
  -6   1  19    7.02    0.43
   6   1 -19    8.35    0.50
   5  -1 -19    2.45    0.31
  -5  -1  19    2.63    0.28
   5   1 -19    2.31    0.30
  -5   1  19    2.62    0.28
   4  -1 -19    5.07    0.41
  -4  -1  19    5.28    0.39
   4   1 -19    4.74    0.40
  -4   1  19    4.56    0.37
   3  -1 -19    5.57    0.40
  -3  -1  19    5.10    0.40
  -3   1  19    5.29    0.40
   3   1 -19    5.56    0.41
   2  -1 -19    4.35    0.36
  -2  -1  19    3.88    0.36
  -2   1  19    3.29    0.31
   2   1 -19    3.49    0.34
   1  -1 -19    2.92    0.29
  -1  -1  19    2.23    0.28
   1   1 -19    2.90    0.30
  -1   1  19    2.82    0.30
   0  -1 -19    3.29    0.30
   0  -1  19    3.35    0.33
   0   1  19    2.74    0.29
   0   1 -19    2.90    0.29
   1  -1  19    6.83    0.46
   1   1  19    7.50    0.46
  -1   1 -19    8.39    0.46
   2  -1  19    4.82    0.41
   2   1  19    4.82    0.41
   3  -1  19    1.51    0.27
   3   1  19    1.68    0.28
   4  -1  19    3.54    0.36
   4   1  19    3.70    0.36
   5  -1  19    4.01    0.43
   5   1  19    3.91    0.46
   8  -2 -19   10.88    0.67
   8   2 -19   10.88    0.63
   7  -2 -19    8.19    0.51
  -7  -2  19    8.30    0.46
   7   2 -19    9.14    0.53
   6  -2 -19    0.14    0.19
  -6  -2  19   -0.04    0.17
   6   2 -19    0.04    0.18
   5  -2 -19    4.31    0.39
  -5  -2  19    3.49    0.31
   5   2 -19    4.26    0.37
  -5   2  19    4.14    0.36
   4  -2 -19    2.60    0.30
  -4  -2  19    2.53    0.28
  -4   2  19    2.08    0.26
   4   2 -19    2.60    0.32
   3  -2 -19    0.70    0.21
  -3  -2  19    0.88    0.22
  -3   2  19    0.87    0.22
   3   2 -19    0.59    0.21
  -2  -2  19    9.30    0.51
   2  -2 -19    9.72    0.51
   2   2 -19   10.49    0.53
  -2   2  19   10.24    0.51
   1  -2 -19    4.56    0.36
  -1  -2  19    3.93    0.35
   1   2 -19    4.42    0.37
  -1   2  19    4.30    0.38
   0  -2 -19    1.37    0.22
   0  -2  19    1.24    0.25
   0   2  19    1.11    0.24
   0   2 -19    1.10    0.22
   1  -2  19   -0.05    0.20
  -1   2 -19    0.05    0.17
   1   2  19    0.15    0.20
   2  -2  19    0.30    0.22
   2   2  19    0.77    0.24
   3  -2  19   14.79    0.66
   3   2  19   13.78    0.64
   4  -2  19    0.85    0.25
   4   2  19    1.11    0.25
   5  -2  19    0.38    0.27
   8  -3 -19    1.66    0.39
   8   3 -19    0.99    0.29
   7  -3 -19    0.11    0.18
  -7  -3  19    0.05    0.17
   7   3 -19    0.23    0.20
  -6  -3  19    1.04    0.22
   6  -3 -19    0.87    0.23
   6   3 -19    1.25    0.26
  -5  -3  19    3.05    0.31
   5  -3 -19    4.06    0.38
   5   3 -19    3.08    0.34
  -5   3  19    2.54    0.28
  -4  -3  19    0.67    0.22
   4  -3 -19    0.22    0.19
  -4   3  19    0.24    0.19
   4   3 -19    0.50    0.21
  -3  -3  19    0.27    0.19
   3  -3 -19    0.07    0.17
   3   3 -19    0.11    0.19
  -3   3  19    0.20    0.18
  -2  -3  19    4.60    0.39
   2  -3 -19    4.74    0.37
  -2   3  19    4.42    0.38
   2   3 -19    4.85    0.40
  -1  -3  19    0.95    0.23
   1  -3 -19    0.96    0.21
   1   3 -19    0.70    0.21
  -1   3  19    0.65    0.21
   0  -3  19   10.04    0.53
   0   3 -19   10.59    0.53
   0   3  19   10.50    0.53
   1  -3  19    2.24    0.30
  -1   3 -19    1.93    0.26
   1   3  19    2.42    0.29
   2  -3  19    1.98    0.30
   2   3  19    1.69    0.26
  -2   3 -19    2.20    0.27
   3  -3  19    4.08    0.37
   3   3  19    4.29    0.38
   4  -3  19    3.95    0.37
   4   3  19    4.23    0.38
   5  -3  19    5.09    0.49
  -7  -4  19    1.15    0.23
   7  -4 -19    1.13    0.26
   7   4 -19    1.55    0.29
   6  -4 -19    2.18    0.30
  -6  -4  19    2.23    0.27
   6   4 -19    1.79    0.27
  -5  -4  19    7.60    0.45
   5  -4 -19    7.53    0.48
   5   4 -19    8.18    0.48
  -5   4  19    6.95    0.46
  -4  -4  19    0.82    0.21
   4  -4 -19    1.03    0.23
  -4   4  19    0.69    0.20
   4   4 -19    0.75    0.22
   3  -4 -19    2.64    0.30
  -3  -4  19    3.10    0.32
   3   4 -19    2.72    0.32
  -3   4  19    2.67    0.28
  -2  -4  19    0.10    0.18
   2  -4 -19    0.18    0.19
  -2   4  19    0.41    0.19
   2   4 -19    0.47    0.21
   1  -4 -19    4.71    0.37
  -1  -4  19    4.55    0.37
  -1   4  19    4.99    0.39
   1   4 -19    4.89    0.39
   0  -4  19    0.74    0.24
   0   4  19    0.62    0.21
   0   4 -19    0.92    0.22
   1  -4  19    0.19    0.21
   1   4  19    0.54    0.21
  -1   4 -19    0.73    0.21
   2  -4  19    0.72    0.24
   2   4  19    0.74    0.21
  -2   4 -19    0.77    0.21
   3  -4  19   10.30    0.56
   3   4  19   11.23    0.57
   4  -4  19    7.07    0.48
   4   4  19    6.48    0.47
  -8  -5  19    0.07    0.18
  -7  -5  19    9.38    0.50
   7  -5 -19   10.09    0.57
   7   5 -19   10.76    0.59
  -6  -5  19    4.59    0.37
   6  -5 -19    4.92    0.42
   6   5 -19    4.76    0.40
  -5  -5  19    5.59    0.41
   5  -5 -19    6.10    0.44
   5   5 -19    5.80    0.45
   4  -5 -19    3.92    0.36
  -4  -5  19    2.77    0.30
   4   5 -19    2.72    0.31
  -4   5  19    2.56    0.28
  -3  -5  19   17.29    0.71
   3  -5 -19   19.89    0.75
  -3   5  19   17.84    0.69
   3   5 -19   18.14    0.76
  -2  -5  19   32.98    1.10
   2  -5 -19   34.69    1.11
  -2   5  19   35.66    1.09
   2   5 -19   34.68    1.15
  -1  -5  19    2.04    0.27
   1  -5 -19    2.63    0.29
   1   5 -19    2.30    0.31
  -1   5  19    2.49    0.28
   0  -5  19    2.00    0.28
   0   5 -19    2.00    0.28
   0   5  19    2.52    0.29
   1  -5  19    7.34    0.46
   1   5  19    8.17    0.48
  -1   5 -19    8.27    0.49
   2  -5  19    2.51    0.31
   2   5  19    2.37    0.30
  -2   5 -19    3.02    0.32
   3  -5  19    1.33    0.27
   3   5  19    1.39    0.27
   4  -5  19    1.64    0.28
   4   5  19    1.31    0.28
  -8  -6  19   19.65    0.75
   7  -6 -19    1.11    0.26
  -7  -6  19    1.73    0.26
   7   6 -19    0.92    0.30
  -6  -6  19    1.81    0.26
   6  -6 -19    1.83    0.28
   6   6 -19    1.91    0.30
   5  -6 -19    5.98    0.44
  -5  -6  19    6.31    0.42
   5   6 -19    5.72    0.43
  -4  -6  19    0.76    0.23
   4  -6 -19    0.98    0.22
   4   6 -19    0.78    0.22
  -4   6  19    0.90    0.21
  -3  -6  19    4.60    0.40
   3  -6 -19    5.50    0.42
   3   6 -19    5.09    0.43
  -3   6  19    5.15    0.40
  -2  -6  19    4.29    0.39
   2  -6 -19    4.00    0.36
  -2   6  19    4.19    0.37
   2   6 -19    4.23    0.40
  -1  -6  19    3.48    0.33
   1   6 -19    3.76    0.36
  -1   6  19    4.36    0.39
   0  -6  19    0.07    0.20
   0   6  19    0.25    0.20
   0   6 -19    0.28    0.20
   1  -6  19    1.05    0.26
   1   6  19    1.85    0.28
  -1   6 -19    1.46    0.26
   2  -6  19    1.98    0.29
   2   6  19    2.30    0.30
  -2   6 -19    1.74    0.26
   3  -6  19    5.05    0.44
  -3   6 -19    4.41    0.41
   3   6  19    4.49    0.40
   4  -6  19    0.48    0.27
  -8  -7  19   18.59    0.74
  -7  -7  19    0.12    0.19
  -6  -7  19    2.38    0.28
   6  -7 -19    3.20    0.34
   6   7 -19    2.97    0.36
  -5  -7  19    8.11    0.48
   5  -7 -19    9.05    0.52
   5   7 -19    9.21    0.55
   4  -7 -19    1.04    0.24
  -4  -7  19    0.74    0.22
   4   7 -19    1.09    0.26
   3  -7 -19   23.41    0.85
  -3  -7  19   23.43    0.85
   3   7 -19   23.09    0.90
  -3   7  19   22.27    0.80
  -2  -7  19    1.29    0.25
   2  -7 -19    1.73    0.25
  -2   7  19    1.34    0.24
   2   7 -19    1.51    0.28
  -1  -7  19    9.73    0.52
   1   7 -19    8.70    0.53
  -1   7  19    9.37    0.50
   0  -7  19    5.09    0.42
   0   7  19    5.14    0.41
   0   7 -19    5.07    0.42
   1  -7  19    9.49    0.54
   1   7  19    9.61    0.52
  -1   7 -19    9.17    0.53
   2  -7  19    0.00    0.22
  -2   7 -19   -0.11    0.17
   2   7  19    0.09    0.19
   3  -7  19   -0.02    0.21
  -3   7 -19   -0.17    0.18
   3   7  19    0.19    0.22
  -7  -8  19    3.83    0.35
  -6  -8  19    6.63    0.45
   6  -8 -19    7.40    0.50
  -5  -8  19    0.86    0.23
   5  -8 -19    1.28    0.27
   5   8 -19    0.94    0.25
  -4  -8  19   11.34    0.57
   4  -8 -19   11.90    0.58
   4   8 -19   11.68    0.60
  -3  -8  19    1.27    0.25
   3  -8 -19    1.67    0.26
  -3   8  19    1.81    0.25
   3   8 -19    1.57    0.29
  -2  -8  19   -0.02    0.19
   2   8 -19    0.19    0.21
  -2   8  19    0.27    0.20
  -1  -8  19    1.76    0.28
  -1   8  19    1.73    0.26
   1   8 -19    1.65    0.29
   0  -8  19    2.81    0.33
   0   8  19    3.46    0.33
   0   8 -19    2.47    0.31
   1  -8  19    3.68    0.35
  -1   8 -19    4.20    0.40
   1   8  19    4.61    0.40
   2  -8  19    0.71    0.24
   2   8  19    0.72    0.22
  -2   8 -19    0.91    0.25
   3  -8  19   11.08    0.85
  -3   8 -19   11.88    0.60
   6  -9 -19    6.06    0.71
  -5  -9  19    2.64    0.31
   5  -9 -19    3.32    0.35
   4  -9 -19    2.16    0.29
  -4  -9  19    1.33    0.26
   4   9 -19    1.54    0.29
   3  -9 -19    4.79    0.39
  -3  -9  19    4.70    0.41
   3   9 -19    4.81    0.45
  -2  -9  19    1.73    0.27
   2   9 -19    2.16    0.32
  -2   9  19    2.39    0.28
  -1  -9  19    2.55    0.32
   1   9 -19    2.72    0.34
  -1   9  19    2.42    0.29
   0  -9  19    3.08    0.33
   0   9  19    3.54    0.34
   0   9 -19    3.58    0.36
   1  -9  19    5.63    0.46
  -1   9 -19    5.98    0.46
   1   9  19    4.77    0.42
  -2   9 -19    1.45    0.28
   2   9  19    1.92    0.33
  -3   9 -19    2.35    0.31
   5 -10 -19    7.86    0.51
   4 -10 -19    0.66    0.23
  -3 -10  19    2.15    0.46
  -2 -10  19    4.90    0.46
   2  10 -19    4.82    0.49
  -2  10  19    5.58    0.40
  -1 -10  19    0.08    0.33
   1  10 -19   -0.29    0.19
  -1  10  19    0.08    0.18
   0  10  19    0.50    0.21
   0  10 -19   -0.17    0.20
   1  10  19    7.69    0.49
  -1  10 -19    7.09    0.56
  -2  10 -19    1.91    0.48
   4 -11 -19    1.72    0.28
  -1  11  19    1.86    0.27
   0  11  19    3.31    0.33
  -1  12  19    0.29    0.20
  -6   0  20    0.19    0.20
   6   0 -20    0.41    0.21
  -5   0  20    3.31    0.31
   5   0 -20    4.05    0.37
   4   0 -20    9.85    0.55
  -4   0  20    9.90    0.51
   3   0 -20    4.86    0.41
  -3   0  20    5.12    0.40
  -2   0  20   12.05    0.58
   2   0 -20   11.58    0.58
   1   0 -20   -0.05    0.17
  -1   0  20    0.32    0.21
   0   0 -20   -0.14    0.16
   0   0  20    0.03    0.20
   1   0  20   -0.10    0.18
   2   0  20   22.60    0.86
   3   0  20    0.49    0.27
  -6  -1  20   -0.17    0.18
   6  -1 -20    0.09    0.18
   6   1 -20    0.07    0.20
   5  -1 -20    2.36    0.31
  -5  -1  20    2.98    0.30
   5   1 -20    2.68    0.32
  -5   1  20    2.35    0.28
  -4  -1  20    1.49    0.26
   4  -1 -20    2.11    0.30
  -4   1  20    1.55    0.26
   4   1 -20    1.59    0.27
   3  -1 -20    2.51    0.31
  -3  -1  20    1.99    0.29
   3   1 -20    2.70    0.32
  -3   1  20    2.02    0.28
   2  -1 -20   14.13    0.63
  -2  -1  20   14.57    0.63
   2   1 -20   13.32    0.63
  -2   1  20   14.16    0.62
  -1  -1  20    0.94    0.25
   1  -1 -20    0.55    0.20
   1   1 -20    0.53    0.20
  -1   1  20    0.64    0.22
   0  -1  20   13.96    0.64
   0  -1 -20   14.01    0.63
   0   1 -20   14.06    0.63
   0   1  20   14.25    0.64
   1  -1  20    0.04    0.22
   1   1  20    0.07    0.21
   2  -1  20    0.56    0.25
   2   1  20    0.56    0.24
   3  -1  20    5.53    0.47
   3   1  20    5.05    0.47
  -7  -2  20    1.54    0.33
   6  -2 -20    2.26    0.31
  -6  -2  20    2.55    0.30
   6   2 -20    2.70    0.33
  -5  -2  20    6.63    0.43
   5  -2 -20    6.24    0.45
  -5   2  20    5.91    0.42
   5   2 -20    6.20    0.47
  -4  -2  20   10.14    0.53
   4  -2 -20   10.06    0.54
  -4   2  20    9.94    0.51
   4   2 -20   10.43    0.57
  -3  -2  20    0.69    0.23
   3  -2 -20    0.91    0.23
   3   2 -20    0.64    0.22
  -3   2  20    0.60    0.22
  -2  -2  20    3.77    0.35
   2  -2 -20    4.07    0.38
   2   2 -20    3.73    0.37
  -2   2  20    3.49    0.34
   1  -2 -20    1.76    0.26
  -1  -2  20    1.56    0.27
  -1   2  20    1.73    0.28
   1   2 -20    1.46    0.25
   0  -2  20   13.42    0.63
   0   2  20   14.33    0.64
   0   2 -20   13.98    0.62
   1  -2  20    2.84    0.33
  -1   2 -20    3.00    0.31
   1   2  20    3.10    0.33
   2  -2  20    4.19    0.38
   2   2  20    3.72    0.36
   3  -2  20    1.95    0.35
   3   2  20    1.45    0.35
  -7  -3  20    2.80    0.29
  -6  -3  20   16.08    0.67
   6  -3 -20   17.53    0.75
   6   3 -20   16.80    0.76
   5  -3 -20    0.14    0.19
  -5  -3  20    0.14    0.20
  -5   3  20    0.16    0.20
   5   3 -20   -0.05    0.18
   4  -3 -20    2.01    0.29
  -4  -3  20    1.36    0.26
   4   3 -20    2.09    0.30
  -4   3  20    1.52    0.26
  -3  -3  20    2.31    0.30
   3  -3 -20    2.60    0.30
   3   3 -20    3.40    0.36
  -3   3  20    2.51    0.30
   2  -3 -20   16.36    0.70
  -2  -3  20   15.94    0.69
   2   3 -20   16.21    0.72
  -2   3  20   17.50    0.69
   1  -3 -20    1.96    0.26
  -1  -3  20    1.72    0.28
  -1   3  20    1.86    0.29
   1   3 -20    1.79    0.28
   0  -3  20    1.85    0.28
   0   3 -20    1.50    0.26
   0   3  20    1.69    0.27
   1  -3  20    5.07    0.40
   1   3  20    4.88    0.43
  -1   3 -20    5.08    0.40
   2  -3  20    1.17    0.25
   2   3  20    1.37    0.27
  -7  -4  20    0.26    0.20
   6  -4 -20    1.53    0.28
  -6  -4  20    0.99    0.23
   6   4 -20    0.72    0.40
   5  -4 -20    1.55    0.28
  -5  -4  20    1.31    0.26
   5   4 -20    1.66    0.29
  -4  -4  20    1.14    0.24
   4  -4 -20    1.11    0.24
  -4   4  20    0.85    0.23
   4   4 -20    1.06    0.26
  -3  -4  20   23.22    0.84
   3  -4 -20   22.58    0.85
  -3   4  20   23.02    0.81
   3   4 -20   21.56    0.87
   2  -4 -20    2.19    0.29
  -2  -4  20    1.50    0.28
   2   4 -20    1.82    0.29
  -2   4  20    2.30    0.29
  -1  -4  20    7.39    0.49
  -1   4  20    7.31    0.47
   1   4 -20    7.65    0.50
   0  -4  20    1.34    0.28
   0   4  20    1.18    0.25
   0   4 -20    1.19    0.25
   1  -4  20    3.11    0.33
  -1   4 -20    3.74    0.36
   1   4  20    3.07    0.34
   2  -4  20    3.90    0.37
   2   4  20    4.26    0.38
  -7  -5  20    8.16    0.48
   6  -5 -20    0.50    0.24
  -6  -5  20    0.41    0.20
   5  -5 -20    0.33    0.21
  -5  -5  20   -0.12    0.19
   5   5 -20    0.02    0.21
   4  -5 -20    4.81    0.41
  -4  -5  20    4.74    0.41
  -4   5  20    5.34    0.41
   4   5 -20    4.90    0.44
   3  -5 -20    4.86    0.41
  -3  -5  20    5.22    0.44
  -3   5  20    5.63    0.43
   3   5 -20    5.61    0.45
  -2  -5  20    1.20    0.26
   2  -5 -20    1.23    0.25
   2   5 -20    0.70    0.23
  -2   5  20    0.94    0.24
  -1  -5  20    0.97    0.26
  -1   5  20    0.61    0.23
   1   5 -20    0.81    0.24
   0  -5  20    0.32    0.23
   0   5 -20    0.09    0.20
   0   5  20    0.31    0.22
   1  -5  20    4.94    0.44
   1   5  20    5.74    0.45
  -1   5 -20    5.22    0.44
   2  -5  20    0.26    0.26
  -2   5 -20    0.50    0.21
   2   5  20    0.31    0.27
  -7  -6  20    2.30    0.33
  -6  -6  20    2.79    0.31
   5  -6 -20    4.43    0.41
  -5  -6  20    3.33    0.33
  -4  -6  20    9.86    0.54
   4  -6 -20   10.63    0.57
   4   6 -20   10.43    0.59
  -3  -6  20   16.79    0.70
   3  -6 -20   16.72    0.70
  -3   6  20   16.62    0.66
   3   6 -20   15.17    0.70
  -2  -6  20    4.42    0.39
   2  -6 -20    5.27    0.45
  -2   6  20    4.64    0.40
   2   6 -20    4.80    0.43
  -1  -6  20   10.59    0.57
  -1   6  20   10.10    0.54
   1   6 -20   11.12    0.59
   0  -6  20    6.22    0.47
   0   6 -20    5.99    0.46
   0   6  20    6.79    0.46
   1  -6  20   14.30    0.72
   1   6  20   13.51    0.64
  -1   6 -20   14.22    0.66
  -2   6 -20    3.00    0.34
  -5  -7  20   36.74    1.27
   5  -7 -20   37.13    1.24
  -4  -7  20    1.20    0.26
   4  -7 -20    1.09    0.24
   4   7 -20    1.38    0.45
  -3  -7  20    0.99    0.25
   3  -7 -20    1.17    0.25
  -3   7  20    0.94    0.23
   3   7 -20    0.65    0.25
  -2  -7  20    0.08    0.21
   2   7 -20   -0.03    0.21
  -2   7  20   -0.21    0.19
  -1  -7  20    4.24    0.40
   1   7 -20    4.19    0.40
  -1   7  20    4.18    0.39
   0  -7  20    3.56    0.54
   0   7 -20    3.89    0.40
   0   7  20    3.66    0.36
  -1   7 -20    0.88    0.24
   1   7  20    1.15    0.26
  -2   7 -20    5.77    0.44
   5  -8 -20    4.15    0.45
   4  -8 -20    1.44    0.27
   3  -8 -20    0.11    0.19
  -3   8  20    0.43    0.24
   2   8 -20   -0.12    0.20
  -2   8  20    0.03    0.20
   1   8 -20    3.95    0.40
  -1   8  20    3.73    0.35
   0   8  20    5.50    0.43
   0   8 -20    5.16    0.48
  -1   8 -20    0.46    0.22
  -2   8 -20    1.53    0.31
   4  -9 -20    0.76    0.23
  -2   9  20    2.63    0.30
  -1   9  20    7.09    0.46
   0   9  20    1.71    0.42
   4 -10 -20   10.99    0.83
  -2  10  20    2.39    0.31
  -1  10  20    2.51    0.33
  -6   0  21   -0.05    0.26
  -5   0  21    5.78    0.43
  -4   0  21    9.08    0.52
   4   0 -21   10.14    0.57
  -3   0  21    9.67    0.54
   3   0 -21    9.56    0.55
   2   0 -21   -0.15    0.19
  -2   0  21    0.08    0.21
  -1   0  21    0.18    0.21
   1   0 -21    0.39    0.21
   0   0  21   12.07    0.63
  -6  -1  21    1.06    0.24
   5  -1 -21    3.91    0.48
  -5  -1  21    4.60    0.40
  -5   1  21    3.55    0.34
  -4  -1  21   19.16    0.75
   4  -1 -21   19.25    0.80
  -4   1  21   18.73    0.74
   4   1 -21   19.32    0.80
   3  -1 -21   24.98    0.91
  -3  -1  21   24.70    0.88
  -3   1  21   21.82    0.85
   3   1 -21   23.85    0.91
  -2  -1  21    8.98    0.53
   2  -1 -21    9.18    0.53
  -2   1  21    9.53    0.53
   2   1 -21    9.16    0.54
   1  -1 -21    2.16    0.29
  -1  -1  21    1.89    0.30
  -1   1  21    2.18    0.30
   1   1 -21    1.89    0.29
   0  -1  21   12.09    0.63
   0   1  21   12.71    0.62
   0   1 -21   12.33    0.60
  -6  -2  21    9.92    0.53
   5  -2 -21    5.22    0.63
  -5  -2  21    4.69    0.41
  -5   2  21    4.62    0.41
   4  -2 -21    2.73    0.33
  -4  -2  21    2.97    0.33
   4   2 -21    3.14    0.35
  -4   2  21    2.70    0.31
  -3  -2  21    2.96    0.33
   3  -2 -21    3.23    0.35
   3   2 -21    3.28    0.37
  -3   2  21    2.43    0.32
  -2  -2  21   12.31    0.61
   2  -2 -21   11.18    0.59
   2   2 -21   12.51    0.62
  -2   2  21   12.59    0.60
  -1  -2  21   14.71    0.69
   1  -2 -21   16.67    0.71
  -1   2  21   15.89    0.69
   1   2 -21   16.02    0.70
   0  -2  21    9.54    0.65
   0   2  21    9.93    0.57
   0   2 -21    9.84    0.54
  -7  -3  21   -0.13    0.27
  -6  -3  21    2.03    0.29
   5  -3 -21    2.08    0.48
  -5  -3  21    1.30    0.26
   4  -3 -21    1.78    0.29
  -4  -3  21    1.23    0.26
  -4   3  21    1.77    0.27
   4   3 -21    1.79    0.36
   3  -3 -21    4.78    0.42
  -3  -3  21    4.08    0.37
   3   3 -21    4.79    0.43
  -3   3  21    4.35    0.38
   2  -3 -21    4.50    0.39
  -2  -3  21    4.42    0.39
   2   3 -21    4.88    0.44
  -2   3  21    3.96    0.36
  -1  -3  21    2.61    0.35
  -1   3  21    2.53    0.32
   1   3 -21    3.66    0.37
   0   3  21    0.77    0.26
   0   3 -21    0.52    0.22
  -6  -4  21    6.00    0.63
  -5  -4  21    3.20    0.39
   4  -4 -21    2.40    0.33
  -4  -4  21    1.78    0.29
  -4   4  21    2.04    0.29
  -3  -4  21    3.58    0.37
   3  -4 -21    3.56    0.36
   3   4 -21    3.67    0.40
  -3   4  21    3.74    0.35
  -2  -4  21    7.45    0.57
   2  -4 -21    7.55    0.48
   2   4 -21    7.20    0.50
  -2   4  21    6.51    0.47
   1   4 -21    3.89    0.38
  -1   4  21    4.45    0.42
   0   4  21    1.34    0.31
   0   4 -21    1.63    0.29
  -1   4 -21    3.30    0.35
   4  -5 -21    9.81    0.56
  -4   5  21    9.99    0.63
   3  -5 -21    2.08    0.30
  -3   5  21    1.52    0.27
  -2   5  21   11.81    0.59
   2   5 -21   11.97    0.70
   1   5 -21    3.64    0.38
  -1   5  21    3.59    0.36
   0   5 -21   10.54    0.59
  -1   5 -21    0.09    0.20
   4  -6 -21    2.56    0.36
   3  -6 -21   10.54    0.56
  -3   6  21    9.83    0.55
  -2   6  21    6.23    0.45
  -1   6  21    1.24    0.31
   0   6 -21   -0.26    0.21
  -1   6 -21    0.91    0.30
   3  -7 -21    1.08    0.39
  -3   7  21    1.25    0.26
  -2   7  21    3.70    0.35
  -2   8  21    4.63    0.56
   2   0 -22   10.03    0.62
   1   0 -22    9.61    0.56
  -5   1  22   12.09    0.85
   2  -1 -22    0.04    0.20
   2   1 -22    0.43    0.35
   1   1 -22   16.70    0.73
  -4   2  22   -0.16    0.32
   2  -2 -22    2.15    0.30
   1   2 -22    4.78    0.49
   2  -3 -22   12.14    0.71
  -4   4  22   -0.44    0.31
   0   0   0    0.00    0.00
;
_shelx_hkl_checksum              85283
loop_
_space_group_symop_operation_xyz
'x, y, z'
'-x, y+1/2, -z'
loop_
_atom_site_label
_atom_site_type_symbol
_atom_site_fract_x
_atom_site_fract_y
_atom_site_fract_z
_atom_site_U_iso_or_equiv
_atom_site_adp_type
_atom_site_occupancy
_atom_site_site_symmetry_order
_atom_site_calc_flag
_atom_site_refinement_flags_posn
_atom_site_refinement_flags_adp
S1 S 0.45564(4) 0.31556(3) 0.24409(3) 0.01751(9) Uani 1 1 d . .
S2 S -0.08597(4) 0.68715(3) 0.08675(3) 0.01652(8) Uani 1 1 d . .
O1 O 0.33109(13) 0.29104(10) 0.22025(11) 0.0289(3) Uani 1 1 d . .
O2 O 0.43817(12) 0.07193(8) 0.52594(8) 0.0157(2) Uani 1 1 d . .
O3 O 0.26712(14) 0.01002(9) 0.46166(9) 0.0244(3) Uani 1 1 d . .
O4 O 0.26818(13) 0.19493(9) 0.45017(9) 0.0212(3) Uani 1 1 d . .
O5 O 0.24023(11) 0.15529(8) 0.31004(8) 0.0158(2) Uani 1 1 d . .
O6 O 0.78244(13) 0.11415(10) 0.22095(10) 0.0263(3) Uani 1 1 d . .
O7 O 0.59263(13) 0.10434(8) 0.16243(8) 0.0205(3) Uani 1 1 d . .
O8 O 0.48199(15) 0.39496(9) 0.27971(10) 0.0261(3) Uani 1 1 d . .
O9 O -0.13869(13) 0.48568(9) 0.23280(10) 0.0233(3) Uani 1 1 d . .
O10 O -0.02100(13) 0.38044(8) 0.23148(10) 0.0226(3) Uani 1 1 d . .
O11 O 0.32289(11) 0.67004(7) 0.35882(8) 0.0156(2) Uani 1 1 d . .
O12 O 0.46899(14) 0.67009(9) 0.26879(10) 0.0270(3) Uani 1 1 d . .
O13 O 0.16708(12) 0.79126(8) 0.28301(9) 0.0188(3) Uani 1 1 d . .
O14 O 0.00549(13) 0.73808(9) 0.34169(9) 0.0210(3) Uani 1 1 d . .
O15 O -0.09896(13) 0.74321(8) 0.15581(10) 0.0230(3) Uani 1 1 d . .
O16 O -0.05881(14) 0.71595(8) 0.00404(9) 0.0226(3) Uani 1 1 d . .
N1 N 0.51318(14) 0.25116(9) 0.32185(10) 0.0147(3) Uani 1 1 d . .
C24 C 0.7455(3) 0.2569(3) -0.05626(17) 0.0574(10) Uani 1 1 d . .
H24A H 0.7019 0.2177 -0.0965 0.086 Uiso 1 1 calc R U
H24B H 0.8262 0.2349 -0.0336 0.086 Uiso 1 1 calc R U
H24C H 0.7563 0.3080 -0.0870 0.086 Uiso 1 1 calc R U
N3 N 0.03050(13) 0.62714(9) 0.12474(9) 0.0138(3) Uani 1 1 d . .
N4 N -0.03897(14) 0.45358(9) 0.22835(10) 0.0152(3) Uani 1 1 d . .
C1 C 0.5244(2) -0.15505(12) 0.18791(13) 0.0245(4) Uani 1 1 d . .
H1 H 0.4974 -0.1987 0.1502 0.029 Uiso 1 1 calc R U
C2 C 0.4393(2) -0.10874(12) 0.22585(13) 0.0237(4) Uani 1 1 d . .
H10 H 0.3542 -0.1205 0.2133 0.028 Uiso 1 1 calc R U
C3 C 0.47802(17) -0.04514(11) 0.28226(12) 0.0180(3) Uani 1 1 d . .
H7 H 0.4194 -0.0142 0.3084 0.022 Uiso 1 1 calc R U
C4 C 0.60300(16) -0.02697(10) 0.30027(11) 0.0138(3) Uani 1 1 d . .
C5 C 0.65317(15) 0.04285(10) 0.35849(11) 0.0128(3) Uani 1 1 d . .
H11 H 0.7443 0.0353 0.3686 0.015 Uiso 1 1 calc R U
C6 C 0.63089(15) 0.12728(10) 0.31548(10) 0.0122(3) Uani 1 1 d . .
C7 C 0.49803(15) 0.16038(10) 0.30944(10) 0.0120(3) Uani 1 1 d . .
H19 H 0.4496 0.1469 0.2523 0.014 Uiso 1 1 calc R U
C8 C 0.53808(16) 0.30120(10) 0.15536(11) 0.0166(3) Uani 1 1 d . .
C9 C 0.4861(2) 0.25522(12) 0.08546(13) 0.0252(4) Uani 1 1 d . .
H26 H 0.4055 0.2339 0.0842 0.030 Uiso 1 1 calc R U
C10 C 0.5546(2) 0.24105(13) 0.01730(13) 0.0312(5) Uani 1 1 d . .
H27 H 0.5203 0.2092 -0.0308 0.037 Uiso 1 1 calc R U
C11 C 0.6720(2) 0.27247(16) 0.01816(14) 0.0337(5) Uani 1 1 d . .
C12 C 0.63520(16) 0.26401(10) 0.36423(11) 0.0150(3) Uani 1 1 d . .
C13 C 0.70556(15) 0.19409(10) 0.36281(11) 0.0144(3) Uani 1 1 d . .
C14 C 0.43324(15) 0.13261(10) 0.38498(11) 0.0125(3) Uani 1 1 d . .
C15 C 0.48796(15) 0.08552(10) 0.44861(10) 0.0127(3) Uani 1 1 d . .
C16 C 0.32204(17) 0.04023(11) 0.52486(12) 0.0181(3) Uani 1 1 d . .
C17 C 0.2807(2) 0.04963(14) 0.61262(14) 0.0275(4) Uani 1 1 d . .
H6 H 0.2523 0.1055 0.6196 0.041 Uiso 1 1 calc R U
H5 H 0.3493 0.0379 0.6575 0.041 Uiso 1 1 calc R U
H4 H 0.2132 0.0117 0.6183 0.041 Uiso 1 1 calc R U
C18 C 0.60914(16) 0.04450(10) 0.44867(11) 0.0149(3) Uani 1 1 d . .
H12 H 0.6028 -0.0120 0.4697 0.018 Uiso 1 1 calc R U
H13 H 0.6710 0.0731 0.4897 0.018 Uiso 1 1 calc R U
C19 C 0.6490(2) -0.13754(12) 0.20521(13) 0.0237(4) Uani 1 1 d . .
H8 H 0.7075 -0.1688 0.1793 0.028 Uiso 1 1 calc R U
C20 C 0.68709(18) -0.07357(11) 0.26102(12) 0.0198(3) Uani 1 1 d . .
H9 H 0.7722 -0.0614 0.2726 0.024 Uiso 1 1 calc R U
C21 C 0.30622(15) 0.16500(10) 0.38746(11) 0.0134(3) Uani 1 1 d . .
C22 C 0.11573(16) 0.18869(13) 0.30135(12) 0.0207(3) Uani 1 1 d . .
H14 H 0.1179 0.2468 0.3182 0.025 Uiso 1 1 calc R U
H18 H 0.0649 0.1588 0.3394 0.025 Uiso 1 1 calc R U
C23 C 0.06305(18) 0.17951(13) 0.20811(13) 0.0240(4) Uani 1 1 d . .
H16 H 0.1133 0.2101 0.1713 0.036 Uiso 1 1 calc R U
H17 H -0.0212 0.2005 0.2000 0.036 Uiso 1 1 calc R U
H15 H 0.0625 0.1219 0.1920 0.036 Uiso 1 1 calc R U
N2 N 0.67109(14) 0.11615(9) 0.22385(10) 0.0154(3) Uani 1 1 d . .
C25 C 0.82591(17) 0.19204(12) 0.40375(12) 0.0197(3) Uani 1 1 d . .
H23 H 0.8736 0.1438 0.4038 0.024 Uiso 1 1 calc R U
C26 C 0.87467(19) 0.26219(13) 0.44451(14) 0.0242(4) Uani 1 1 d . .
H20 H 0.9570 0.2624 0.4719 0.029 Uiso 1 1 calc R U
C27 C 0.8033(2) 0.33214(12) 0.44528(14) 0.0254(4) Uani 1 1 d . .
H22 H 0.8381 0.3796 0.4731 0.030 Uiso 1 1 calc R U
C28 C 0.68178(19) 0.33411(11) 0.40623(13) 0.0221(4) Uani 1 1 d . .
H21 H 0.6328 0.3815 0.4082 0.027 Uiso 1 1 calc R U
C29 C 0.65532(18) 0.33381(13) 0.15836(13) 0.0234(4) Uani 1 1 d . .
H25 H 0.6893 0.3656 0.2065 0.028 Uiso 1 1 calc R U
C30 C 0.7218(2) 0.31877(19) 0.08920(14) 0.0349(5) Uani 1 1 d . .
H24 H 0.8023 0.3404 0.0904 0.042 Uiso 1 1 calc R U
C31 C -0.5447(2) 0.48112(14) 0.02457(16) 0.0304(5) Uani 1 1 d . .
H55 H -0.5762 0.4695 0.0797 0.046 Uiso 1 1 calc R U
H30 H -0.5271 0.4299 -0.0038 0.046 Uiso 1 1 calc R U
H28 H -0.6064 0.5118 -0.0133 0.046 Uiso 1 1 calc R U
C32 C -0.42882(18) 0.53044(12) 0.04162(14) 0.0223(4) Uani 1 1 d . .
C33 C -0.40046(18) 0.57245(13) 0.11944(13) 0.0242(4) Uani 1 1 d . .
H31 H -0.4531 0.5677 0.1634 0.029 Uiso 1 1 calc R U
C34 C -0.29644(18) 0.62124(13) 0.13396(13) 0.0219(4) Uani 1 1 d . .
H32 H -0.2787 0.6503 0.1870 0.026 Uiso 1 1 calc R U
C35 C -0.21862(16) 0.62698(11) 0.06974(12) 0.0173(3) Uani 1 1 d . .
C36 C 0.04056(15) 0.59917(10) 0.21755(11) 0.0129(3) Uani 1 1 d . .
H48 H -0.0408 0.6054 0.2396 0.016 Uiso 1 1 calc R U
C37 C 0.07394(15) 0.50710(10) 0.21450(11) 0.0127(3) Uani 1 1 d . .
C38 C 0.18136(15) 0.47776(10) 0.28130(11) 0.0132(3) Uani 1 1 d . .
H40 H 0.2097 0.4248 0.2593 0.016 Uiso 1 1 calc R U
C39 C 0.15003(16) 0.46219(10) 0.37259(11) 0.0148(3) Uani 1 1 d . .
C40 C 0.06976(17) 0.51055(11) 0.41431(12) 0.0183(3) Uani 1 1 d . .
H36 H 0.0324 0.5570 0.3858 0.022 Uiso 1 1 calc R U
C41 C 0.04479(18) 0.49040(13) 0.49787(13) 0.0223(4) Uani 1 1 d . .
H39 H -0.0102 0.5231 0.5257 0.027 Uiso 1 1 calc R U
C42 C 0.09945(19) 0.42316(14) 0.54062(12) 0.0240(4) Uani 1 1 d . .
H29 H 0.0819 0.4099 0.5974 0.029 Uiso 1 1 calc R U
C43 C 0.07043(15) 0.56341(10) 0.07281(11) 0.0140(3) Uani 1 1 d . .
C44 C 0.09643(15) 0.49325(10) 0.12163(11) 0.0133(3) Uani 1 1 d . .
C45 C 0.13548(15) 0.65028(10) 0.27224(11) 0.0129(3) Uani 1 1 d . .
C46 C 0.24755(15) 0.62226(10) 0.29983(11) 0.0132(3) Uani 1 1 d . .
C47 C 0.43350(16) 0.69390(11) 0.33418(12) 0.0172(3) Uani 1 1 d . .
C48 C 0.49703(19) 0.75253(12) 0.39878(13) 0.0233(4) Uani 1 1 d . .
H35 H 0.5379 0.7225 0.4487 0.035 Uiso 1 1 calc R U
H33 H 0.4365 0.7899 0.4183 0.035 Uiso 1 1 calc R U
H34 H 0.5582 0.7836 0.3715 0.035 Uiso 1 1 calc R U
C49 C 0.28956(15) 0.53800(10) 0.28117(11) 0.0139(3) Uani 1 1 d . .
H42 H 0.3575 0.5217 0.3259 0.017 Uiso 1 1 calc R U
H41 H 0.3205 0.5369 0.2238 0.017 Uiso 1 1 calc R U
C50 C 0.1800(2) 0.37517(12) 0.50023(13) 0.0233(4) Uani 1 1 d . .
H37 H 0.2181 0.3293 0.5294 0.028 Uiso 1 1 calc R U
C51 C 0.20437(17) 0.39477(11) 0.41675(12) 0.0181(3) Uani 1 1 d . .
H38 H 0.2591 0.3616 0.3892 0.022 Uiso 1 1 calc R U
C52 C 0.09362(16) 0.73078(10) 0.30266(11) 0.0151(3) Uani 1 1 d . .
C53 C 0.1412(2) 0.87176(11) 0.31579(14) 0.0236(4) Uani 1 1 d . .
H47 H 0.2191 0.9017 0.3315 0.028 Uiso 1 1 calc R U
H46 H 0.0995 0.8665 0.3686 0.028 Uiso 1 1 calc R U
C54 C 0.0601(2) 0.91818(14) 0.24689(17) 0.0343(5) Uani 1 1 d . .
H45 H 0.1021 0.9239 0.1950 0.051 Uiso 1 1 calc R U
H44 H 0.0428 0.9722 0.2691 0.051 Uiso 1 1 calc R U
H43 H -0.0171 0.8886 0.2319 0.051 Uiso 1 1 calc R U
C55 C 0.13603(17) 0.42270(11) 0.08403(12) 0.0176(3) Uani 1 1 d . .
H52 H 0.1530 0.3748 0.1176 0.021 Uiso 1 1 calc R U
C56 C 0.15007(18) 0.42420(12) -0.00417(12) 0.0202(3) Uani 1 1 d . .
H51 H 0.1748 0.3764 -0.0318 0.024 Uiso 1 1 calc R U
C57 C 0.12795(18) 0.49555(12) -0.05186(12) 0.0205(3) Uani 1 1 d . .
H50 H 0.1400 0.4960 -0.1115 0.025 Uiso 1 1 calc R U
C58 C 0.08868(17) 0.56632(11) -0.01445(12) 0.0179(3) Uani 1 1 d . .
H49 H 0.0748 0.6149 -0.0473 0.021 Uiso 1 1 calc R U
C59 C -0.24434(18) 0.58469(12) -0.00872(13) 0.0212(4) Uani 1 1 d . .
H53 H -0.1908 0.5887 -0.0522 0.025 Uiso 1 1 calc R U
C60 C -0.34927(18) 0.53684(13) -0.02205(13) 0.0235(4) Uani 1 1 d . .
H54 H -0.3673 0.5080 -0.0752 0.028 Uiso 1 1 calc R U
loop_
_atom_site_aniso_label
_atom_site_aniso_U_11
_atom_site_aniso_U_22
_atom_site_aniso_U_33
_atom_site_aniso_U_23
_atom_site_aniso_U_13
_atom_site_aniso_U_12
S1 0.01496(19) 0.01429(17) 0.0237(2) 0.00686(15) 0.00422(15) 0.00267(14)
S2 0.01706(19) 0.01335(17) 0.01761(19) -0.00098(15) -0.00398(14) 0.00268(15)
O1 0.0130(6) 0.0314(8) 0.0420(9) 0.0182(7) 0.0017(6) 0.0025(5)
O2 0.0173(6) 0.0187(6) 0.0111(5) 0.0013(4) 0.0021(4) -0.0012(5)
O3 0.0287(7) 0.0255(7) 0.0194(6) -0.0010(5) 0.0042(5) -0.0117(6)
O4 0.0199(6) 0.0259(7) 0.0175(6) -0.0033(5) 0.0018(5) 0.0060(5)
O5 0.0112(5) 0.0217(6) 0.0141(5) -0.0010(5) 0.0001(4) 0.0013(4)
O6 0.0198(7) 0.0320(8) 0.0294(7) -0.0077(6) 0.0124(6) -0.0035(6)
O7 0.0271(7) 0.0210(6) 0.0130(6) -0.0003(5) 0.0003(5) 0.0035(5)
O8 0.0340(8) 0.0146(6) 0.0316(8) 0.0039(5) 0.0113(6) 0.0065(5)
O9 0.0144(6) 0.0239(7) 0.0324(7) -0.0013(6) 0.0057(5) -0.0011(5)
O10 0.0236(7) 0.0145(6) 0.0298(7) 0.0006(5) 0.0033(6) -0.0034(5)
O11 0.0141(6) 0.0179(6) 0.0143(5) -0.0027(4) -0.0007(4) -0.0011(4)
O12 0.0265(7) 0.0251(7) 0.0314(8) -0.0057(6) 0.0115(6) -0.0096(6)
O13 0.0207(6) 0.0131(5) 0.0231(6) -0.0042(5) 0.0044(5) 0.0002(5)
O14 0.0192(6) 0.0226(6) 0.0221(6) -0.0040(5) 0.0059(5) 0.0029(5)
O15 0.0255(7) 0.0161(6) 0.0254(7) -0.0056(5) -0.0045(5) 0.0065(5)
O16 0.0245(7) 0.0197(6) 0.0216(7) 0.0054(5) -0.0048(5) 0.0009(5)
N1 0.0160(7) 0.0107(6) 0.0171(7) 0.0026(5) 0.0011(5) -0.0001(5)
C24 0.0579(18) 0.095(3) 0.0212(11) 0.0086(13) 0.0103(11) 0.0485(18)
N3 0.0132(6) 0.0147(6) 0.0127(6) -0.0002(5) -0.0014(5) 0.0020(5)
N4 0.0145(7) 0.0170(6) 0.0140(6) -0.0008(5) 0.0014(5) -0.0021(5)
C1 0.0376(11) 0.0182(8) 0.0176(8) -0.0055(7) 0.0025(8) -0.0044(8)
C2 0.0269(10) 0.0227(9) 0.0216(9) -0.0051(7) 0.0027(7) -0.0081(7)
C3 0.0193(8) 0.0161(7) 0.0186(8) -0.0026(6) 0.0021(6) -0.0026(6)
C4 0.0181(8) 0.0101(6) 0.0129(7) 0.0005(5) 0.0005(6) 0.0007(5)
C5 0.0132(7) 0.0119(6) 0.0129(7) -0.0012(5) -0.0003(6) 0.0016(5)
C6 0.0129(7) 0.0121(6) 0.0118(7) -0.0018(5) 0.0023(6) -0.0005(5)
C7 0.0135(7) 0.0103(6) 0.0123(7) 0.0010(5) 0.0021(6) -0.0002(5)
C8 0.0186(8) 0.0138(7) 0.0168(8) 0.0041(6) 0.0003(6) 0.0004(6)
C9 0.0340(11) 0.0189(8) 0.0203(9) 0.0061(7) -0.0057(8) -0.0084(7)
C10 0.0569(15) 0.0187(8) 0.0159(8) 0.0029(7) -0.0043(9) 0.0043(9)
C11 0.0415(13) 0.0415(12) 0.0184(9) 0.0077(9) 0.0052(9) 0.0245(10)
C12 0.0161(8) 0.0146(7) 0.0147(7) -0.0008(6) 0.0032(6) -0.0015(6)
C13 0.0143(7) 0.0143(7) 0.0147(7) -0.0024(6) 0.0022(6) -0.0035(6)
C14 0.0125(7) 0.0125(6) 0.0125(7) -0.0008(5) 0.0023(6) -0.0012(5)
C15 0.0136(7) 0.0131(7) 0.0113(7) -0.0010(5) 0.0018(5) -0.0021(5)
C16 0.0206(8) 0.0160(7) 0.0185(8) 0.0031(6) 0.0054(6) -0.0027(6)
C17 0.0313(11) 0.0334(11) 0.0199(9) -0.0021(8) 0.0119(8) -0.0081(8)
C18 0.0165(7) 0.0155(7) 0.0124(7) 0.0006(6) 0.0000(6) 0.0033(6)
C19 0.0337(10) 0.0183(8) 0.0197(8) -0.0048(7) 0.0064(8) 0.0033(7)
C20 0.0220(9) 0.0182(8) 0.0188(8) -0.0031(6) 0.0012(7) 0.0038(6)
C21 0.0130(7) 0.0130(7) 0.0143(7) 0.0015(5) 0.0021(6) -0.0011(5)
C22 0.0109(7) 0.0300(9) 0.0210(8) -0.0013(7) 0.0013(6) 0.0027(7)
C23 0.0182(8) 0.0288(9) 0.0232(9) 0.0005(7) -0.0049(7) -0.0001(7)
N2 0.0200(7) 0.0120(6) 0.0152(7) -0.0010(5) 0.0058(5) 0.0000(5)
C25 0.0151(8) 0.0200(8) 0.0236(8) -0.0022(7) 0.0012(6) -0.0020(7)
C26 0.0203(9) 0.0250(9) 0.0259(9) -0.0048(7) -0.0025(7) -0.0069(7)
C27 0.0305(10) 0.0202(9) 0.0248(9) -0.0067(7) 0.0007(8) -0.0085(7)
C28 0.0277(10) 0.0148(8) 0.0238(9) -0.0041(6) 0.0029(7) -0.0020(7)
C29 0.0182(8) 0.0323(10) 0.0189(8) 0.0014(7) -0.0007(7) -0.0029(7)
C30 0.0195(9) 0.0624(16) 0.0229(10) 0.0076(10) 0.0024(7) 0.0057(10)
C31 0.0238(10) 0.0299(10) 0.0357(11) 0.0077(9) -0.0036(9) -0.0066(8)
C32 0.0171(8) 0.0203(8) 0.0281(10) 0.0036(7) -0.0032(7) 0.0022(7)
C33 0.0180(9) 0.0310(10) 0.0234(9) 0.0021(8) 0.0022(7) 0.0038(7)
C34 0.0195(8) 0.0271(9) 0.0185(8) -0.0029(7) -0.0008(7) 0.0054(7)
C35 0.0144(7) 0.0169(7) 0.0189(8) -0.0018(6) -0.0039(6) 0.0032(6)
C36 0.0128(7) 0.0134(7) 0.0124(7) -0.0003(5) 0.0004(5) 0.0012(5)
C37 0.0117(7) 0.0124(7) 0.0142(7) -0.0013(5) 0.0023(5) -0.0012(5)
C38 0.0128(7) 0.0132(7) 0.0136(7) 0.0000(5) 0.0014(6) -0.0001(5)
C39 0.0144(7) 0.0160(7) 0.0134(7) -0.0013(6) -0.0003(6) -0.0041(6)
C40 0.0174(8) 0.0211(8) 0.0160(8) -0.0027(6) 0.0007(6) -0.0025(6)
C41 0.0172(8) 0.0319(10) 0.0185(8) -0.0053(7) 0.0044(7) -0.0073(7)
C42 0.0239(9) 0.0333(10) 0.0145(8) 0.0001(7) 0.0011(7) -0.0142(8)
C43 0.0126(7) 0.0144(7) 0.0144(7) -0.0016(6) -0.0009(6) -0.0012(5)
C44 0.0130(7) 0.0144(7) 0.0123(7) -0.0007(6) 0.0007(6) -0.0008(6)
C45 0.0148(7) 0.0116(7) 0.0122(7) -0.0018(5) 0.0018(6) 0.0001(5)
C46 0.0144(7) 0.0138(7) 0.0115(7) -0.0014(6) 0.0015(6) -0.0018(6)
C47 0.0163(8) 0.0143(7) 0.0204(8) 0.0016(6) -0.0005(6) -0.0021(6)
C48 0.0243(9) 0.0190(8) 0.0245(9) -0.0018(7) -0.0055(7) -0.0064(7)
C49 0.0121(7) 0.0124(7) 0.0173(7) -0.0006(6) 0.0017(6) 0.0010(5)
C50 0.0272(10) 0.0235(9) 0.0179(8) 0.0046(7) -0.0027(7) -0.0088(7)
C51 0.0194(8) 0.0176(8) 0.0163(8) 0.0012(6) -0.0015(6) -0.0032(6)
C52 0.0160(8) 0.0151(7) 0.0132(7) -0.0026(6) -0.0016(6) 0.0022(6)
C53 0.0270(10) 0.0144(8) 0.0297(10) -0.0071(7) 0.0043(8) 0.0015(7)
C54 0.0429(13) 0.0227(10) 0.0377(12) 0.0038(9) 0.0065(10) 0.0107(9)
C55 0.0197(8) 0.0153(7) 0.0179(8) -0.0016(6) 0.0026(6) 0.0002(6)
C56 0.0227(9) 0.0198(8) 0.0184(8) -0.0055(6) 0.0038(7) -0.0006(7)
C57 0.0228(9) 0.0250(9) 0.0137(8) -0.0027(7) 0.0024(6) -0.0023(7)
C58 0.0191(8) 0.0204(8) 0.0136(7) 0.0007(6) 0.0001(6) -0.0001(6)
C59 0.0190(8) 0.0253(9) 0.0190(8) -0.0042(7) 0.0012(7) 0.0004(7)
C60 0.0220(9) 0.0255(9) 0.0216(9) -0.0050(7) -0.0028(7) -0.0028(7)
loop_
_atom_type_symbol
_atom_type_description
_atom_type_scat_dispersion_real
_atom_type_scat_dispersion_imag
_atom_type_scat_source
C C 0.0033 0.0016 'International Tables Vol C Tables 4.2.6.8 and 6.1.1.4'
H H 0.0000 0.0000 'International Tables Vol C Tables 4.2.6.8 and 6.1.1.4'
N N 0.0061 0.0033 'International Tables Vol C Tables 4.2.6.8 and 6.1.1.4'
O O 0.0106 0.0060 'International Tables Vol C Tables 4.2.6.8 and 6.1.1.4'
S S 0.1246 0.1234 'International Tables Vol C Tables 4.2.6.8 and 6.1.1.4'
loop_
_geom_angle_atom_site_label_1
_geom_angle_atom_site_label_2
_geom_angle_atom_site_label_3
_geom_angle
O1 S1 O8 119.85(10)
O1 S1 N1 105.78(8)
O8 S1 N1 105.05(9)
O1 S1 C8 109.17(10)
O8 S1 C8 109.04(9)
N1 S1 C8 107.20(8)
O16 S2 O15 120.45(9)
O16 S2 N3 106.13(8)
O15 S2 N3 105.06(8)
O16 S2 C35 108.21(9)
O15 S2 C35 108.57(9)
N3 S2 C35 107.78(8)
C16 O2 C15 120.70(13)
C21 O5 C22 115.80(13)
C47 O11 C46 116.77(13)
C52 O13 C53 116.53(15)
C12 N1 C7 106.62(13)
C12 N1 S1 119.11(12)
C7 N1 S1 120.59(11)
C11 C24 H24A 109.5
C11 C24 H24B 109.5
H24A C24 H24B 109.5
C11 C24 H24C 109.5
H24A C24 H24C 109.5
H24B C24 H24C 109.5
C43 N3 C36 108.97(13)
C43 N3 S2 120.86(11)
C36 N3 S2 118.91(11)
O10 N4 O9 124.38(16)
O10 N4 C37 115.87(14)
O9 N4 C37 119.72(14)
C19 C1 C2 120.02(18)
C19 C1 H1 120.0
C2 C1 H1 120.0
C1 C2 C3 120.49(19)
C1 C2 H10 119.8
C3 C2 H10 119.8
C2 C3 C4 120.04(18)
C2 C3 H7 120.0
C4 C3 H7 120.0
C20 C4 C3 118.71(16)
C20 C4 C5 117.60(16)
C3 C4 C5 123.66(15)
C4 C5 C18 114.99(14)
C4 C5 C6 113.31(13)
C18 C5 C6 109.03(13)
C4 C5 H11 106.3
C18 C5 H11 106.3
C6 C5 H11 106.3
C13 C6 C5 113.42(13)
C13 C6 C7 102.96(13)
C5 C6 C7 116.08(13)
C13 C6 N2 109.49(13)
C5 C6 N2 103.97(12)
C7 C6 N2 111.00(13)
N1 C7 C14 104.73(13)
N1 C7 C6 104.59(13)
C14 C7 C6 112.05(13)
N1 C7 H19 111.7
C14 C7 H19 111.7
C6 C7 H19 111.7
C9 C8 C29 121.80(19)
C9 C8 S1 119.03(15)
C29 C8 S1 119.13(14)
C8 C9 C10 118.5(2)
C8 C9 H26 120.7
C10 C9 H26 120.7
C11 C10 C9 121.3(2)
C11 C10 H27 119.4
C9 C10 H27 119.4
C10 C11 C30 118.9(2)
C10 C11 C24 120.9(3)
C30 C11 C24 120.2(3)
C13 C12 C28 121.48(17)
C13 C12 N1 111.15(14)
C28 C12 N1 127.31(16)
C12 C13 C25 120.73(16)
C12 C13 C6 110.03(14)
C25 C13 C6 129.22(16)
C15 C14 C21 121.46(15)
C15 C14 C7 122.34(15)
C21 C14 C7 116.09(13)
C14 C15 O2 122.63(15)
C14 C15 C18 125.58(15)
O2 C15 C18 111.74(14)
O3 C16 O2 122.76(17)
O3 C16 C17 127.69(18)
O2 C16 C17 109.55(16)
C16 C17 H6 109.5
C16 C17 H5 109.5
H6 C17 H5 109.5
C16 C17 H4 109.5
H6 C17 H4 109.5
H5 C17 H4 109.5
C15 C18 C5 112.84(13)
C15 C18 H12 109.0
C5 C18 H12 109.0
C15 C18 H13 109.0
C5 C18 H13 109.0
H12 C18 H13 107.8
C1 C19 C20 119.26(18)
C1 C19 H8 120.4
C20 C19 H8 120.4
C19 C20 C4 121.46(18)
C19 C20 H9 119.3
C4 C20 H9 119.3
O4 C21 O5 124.76(16)
O4 C21 C14 125.47(15)
O5 C21 C14 109.76(14)
O5 C22 C23 107.21(15)
O5 C22 H14 110.3
C23 C22 H14 110.3
O5 C22 H18 110.3
C23 C22 H18 110.3
H14 C22 H18 108.5
C22 C23 H16 109.5
C22 C23 H17 109.5
H16 C23 H17 109.5
C22 C23 H15 109.5
H16 C23 H15 109.5
H17 C23 H15 109.5
O7 N2 O6 125.25(15)
O7 N2 C6 118.83(14)
O6 N2 C6 115.69(14)
C26 C25 C13 118.48(18)
C26 C25 H23 120.8
C13 C25 H23 120.8
C25 C26 C27 120.28(18)
C25 C26 H20 119.9
C27 C26 H20 119.9
C26 C27 C28 121.59(18)
C26 C27 H22 119.2
C28 C27 H22 119.2
C12 C28 C27 117.41(17)
C12 C28 H21 121.3
C27 C28 H21 121.3
C8 C29 C30 118.5(2)
C8 C29 H25 120.8
C30 C29 H25 120.8
C29 C30 C11 121.0(2)
C29 C30 H24 119.5
C11 C30 H24 119.5
C32 C31 H55 109.5
C32 C31 H30 109.5
H55 C31 H30 109.5
C32 C31 H28 109.5
H55 C31 H28 109.5
H30 C31 H28 109.5
C33 C32 C60 118.81(18)
C33 C32 C31 120.9(2)
C60 C32 C31 120.24(19)
C34 C33 C32 121.21(19)
C34 C33 H31 119.4
C32 C33 H31 119.4
C33 C34 C35 119.11(18)
C33 C34 H32 120.4
C35 C34 H32 120.4
C34 C35 C59 120.81(17)
C34 C35 S2 120.10(14)
C59 C35 S2 119.08(15)
N3 C36 C45 109.31(13)
N3 C36 C37 104.96(13)
C45 C36 C37 114.09(13)
N3 C36 H48 109.4
C45 C36 H48 109.4
C37 C36 H48 109.4
C44 C37 C38 113.04(13)
C44 C37 N4 105.85(13)
C38 C37 N4 106.54(13)
C44 C37 C36 104.02(13)
C38 C37 C36 116.41(13)
N4 C37 C36 110.56(13)
C39 C38 C49 111.79(13)
C39 C38 C37 115.80(14)
C49 C38 C37 108.70(13)
C39 C38 H40 106.7
C49 C38 H40 106.7
C37 C38 H40 106.7
C51 C39 C40 118.56(16)
C51 C39 C38 117.29(16)
C40 C39 C38 124.15(16)
C41 C40 C39 119.96(18)
C41 C40 H36 120.0
C39 C40 H36 120.0
C42 C41 C40 120.65(18)
C42 C41 H39 119.7
C40 C41 H39 119.7
C41 C42 C50 119.92(18)
C41 C42 H29 120.0
C50 C42 H29 120.0
C44 C43 C58 120.86(16)
C44 C43 N3 111.11(14)
C58 C43 N3 127.98(16)
C43 C44 C55 121.18(16)
C43 C44 C37 110.35(14)
C55 C44 C37 128.47(15)
C46 C45 C52 120.76(15)
C46 C45 C36 122.08(15)
C52 C45 C36 116.82(14)
C45 C46 O11 117.61(14)
C45 C46 C49 123.41(15)
O11 C46 C49 118.37(14)
O12 C47 O11 122.23(16)
O12 C47 C48 127.16(18)
O11 C47 C48 110.60(16)
C47 C48 H35 109.5
C47 C48 H33 109.5
H35 C48 H33 109.5
C47 C48 H34 109.5
H35 C48 H34 109.5
H33 C48 H34 109.5
C46 C49 C38 109.73(13)
C46 C49 H42 109.7
C38 C49 H42 109.7
C46 C49 H41 109.7
C38 C49 H41 109.7
H42 C49 H41 108.2
C42 C50 C51 119.57(19)
C42 C50 H37 120.2
C51 C50 H37 120.2
C50 C51 C39 121.34(18)
C50 C51 H38 119.3
C39 C51 H38 119.3
O14 C52 O13 125.56(16)
O14 C52 C45 122.78(16)
O13 C52 C45 111.65(14)
O13 C53 C54 109.60(17)
O13 C53 H47 109.8
C54 C53 H47 109.8
O13 C53 H46 109.8
C54 C53 H46 109.8
H47 C53 H46 108.2
C53 C54 H45 109.5
C53 C54 H44 109.5
H45 C54 H44 109.5
C53 C54 H43 109.5
H45 C54 H43 109.5
H44 C54 H43 109.5
C44 C55 C56 118.27(17)
C44 C55 H52 120.9
C56 C55 H52 120.9
C57 C56 C55 120.15(17)
C57 C56 H51 119.9
C55 C56 H51 119.9
C56 C57 C58 121.74(17)
C56 C57 H50 119.1
C58 C57 H50 119.1
C57 C58 C43 117.70(17)
C57 C58 H49 121.2
C43 C58 H49 121.2
C60 C59 C35 119.05(18)
C60 C59 H53 120.5
C35 C59 H53 120.5
C59 C60 C32 121.00(18)
C59 C60 H54 119.5
C32 C60 H54 119.5
loop_
_geom_bond_atom_site_label_1
_geom_bond_atom_site_label_2
_geom_bond_distance
S1 O1 1.4291(15)
S1 O8 1.4338(15)
S1 N1 1.6696(15)
S1 C8 1.7533(19)
S2 O16 1.4328(15)
S2 O15 1.4339(14)
S2 N3 1.6640(15)
S2 C35 1.7529(19)
O2 C16 1.375(2)
O2 C15 1.396(2)
O3 C16 1.194(2)
O4 C21 1.209(2)
O5 C21 1.333(2)
O5 C22 1.463(2)
O6 N2 1.228(2)
O7 N2 1.218(2)
O9 N4 1.224(2)
O10 N4 1.219(2)
O11 C47 1.374(2)
O11 C46 1.397(2)
O12 C47 1.196(2)
O13 C52 1.339(2)
O13 C53 1.459(2)
O14 C52 1.208(2)
N1 C12 1.432(2)
N1 C7 1.512(2)
C24 C11 1.509(3)
C24 H24A 0.9800
C24 H24B 0.9800
C24 H24C 0.9800
N3 C43 1.424(2)
N3 C36 1.502(2)
N4 C37 1.556(2)
C1 C19 1.390(3)
C1 C2 1.391(3)
C1 H1 0.9500
C2 C3 1.396(3)
C2 H10 0.9500
C3 C4 1.398(2)
C3 H7 0.9500
C4 C20 1.396(2)
C4 C5 1.522(2)
C5 C18 1.535(2)
C5 C6 1.547(2)
C5 H11 1.0000
C6 C13 1.507(2)
C6 C7 1.548(2)
C6 N2 1.550(2)
C7 C14 1.514(2)
C7 H19 1.0000
C8 C9 1.386(3)
C8 C29 1.389(3)
C9 C10 1.390(3)
C9 H26 0.9500
C10 C11 1.387(4)
C10 H27 0.9500
C11 C30 1.394(4)
C12 C13 1.387(2)
C12 C28 1.391(2)
C13 C25 1.393(2)
C14 C15 1.337(2)
C14 C21 1.497(2)
C15 C18 1.491(2)
C16 C17 1.495(3)
C17 H6 0.9800
C17 H5 0.9800
C17 H4 0.9800
C18 H12 0.9900
C18 H13 0.9900
C19 C20 1.394(3)
C19 H8 0.9500
C20 H9 0.9500
C22 C23 1.497(3)
C22 H14 0.9900
C22 H18 0.9900
C23 H16 0.9800
C23 H17 0.9800
C23 H15 0.9800
C25 C26 1.391(3)
C25 H23 0.9500
C26 C27 1.393(3)
C26 H20 0.9500
C27 C28 1.395(3)
C27 H22 0.9500
C28 H21 0.9500
C29 C30 1.391(3)
C29 H25 0.9500
C30 H24 0.9500
C31 C32 1.504(3)
C31 H55 0.9800
C31 H30 0.9800
C31 H28 0.9800
C32 C33 1.392(3)
C32 C60 1.400(3)
C33 C34 1.391(3)
C33 H31 0.9500
C34 C35 1.393(3)
C34 H32 0.9500
C35 C59 1.400(3)
C36 C45 1.514(2)
C36 C37 1.560(2)
C36 H48 1.0000
C37 C44 1.508(2)
C37 C38 1.547(2)
C38 C39 1.519(2)
C38 C49 1.547(2)
C38 H40 1.0000
C39 C51 1.398(2)
C39 C40 1.403(2)
C40 C41 1.397(3)
C40 H36 0.9500
C41 C42 1.387(3)
C41 H39 0.9500
C42 C50 1.390(3)
C42 H29 0.9500
C43 C44 1.391(2)
C43 C58 1.393(2)
C44 C55 1.392(2)
C45 C46 1.333(2)
C45 C52 1.497(2)
C46 C49 1.500(2)
C47 C48 1.499(2)
C48 H35 0.9800
C48 H33 0.9800
C48 H34 0.9800
C49 H42 0.9900
C49 H41 0.9900
C50 C51 1.392(3)
C50 H37 0.9500
C51 H38 0.9500
C53 C54 1.511(3)
C53 H47 0.9900
C53 H46 0.9900
C54 H45 0.9800
C54 H44 0.9800
C54 H43 0.9800
C55 C56 1.395(3)
C55 H52 0.9500
C56 C57 1.393(3)
C56 H51 0.9500
C57 C58 1.393(3)
C57 H50 0.9500
C58 H49 0.9500
C59 C60 1.389(3)
C59 H53 0.9500
C60 H54 0.9500
loop_
_geom_hbond_atom_site_label_D
_geom_hbond_atom_site_label_H
_geom_hbond_atom_site_label_A
_geom_hbond_distance_DH
_geom_hbond_distance_HA
_geom_hbond_distance_DA
_geom_hbond_angle_DHA
_geom_hbond_site_symmetry_A
C58 H49 O16 0.95 2.42 2.979(2) 117.8 .
C49 H42 O8 0.99 2.64 3.163(2) 113.2 .
C48 H35 O4 0.98 2.52 3.396(2) 148.2 2_656
C48 H35 O2 0.98 2.52 3.239(2) 130.5 2_656
C28 H21 O8 0.95 2.44 2.932(3) 112.2 .
C23 H17 O6 0.98 2.63 3.290(3) 124.5 1_455
C17 H4 O9 0.98 2.58 3.194(2) 120.8 2_546
C58 H49 O16 0.95 2.42 2.979(2) 117.8 .
C49 H42 O8 0.99 2.64 3.163(2) 113.2 .
C48 H35 O4 0.98 2.52 3.396(2) 148.2 2_656
C48 H35 O2 0.98 2.52 3.239(2) 130.5 2_656
C28 H21 O8 0.95 2.44 2.932(3) 112.2 .
C23 H17 O6 0.98 2.63 3.290(3) 124.5 1_455
C17 H4 O9 0.98 2.58 3.194(2) 120.8 2_546
C58 H49 O16 0.95 2.42 2.979(2) 117.8 .
C49 H42 O8 0.99 2.64 3.163(2) 113.2 .
C48 H35 O4 0.98 2.52 3.396(2) 148.2 2_656
C48 H35 O2 0.98 2.52 3.239(2) 130.5 2_656
C28 H21 O8 0.95 2.44 2.932(3) 112.2 .
C23 H17 O6 0.98 2.63 3.290(3) 124.5 1_455
C17 H4 O9 0.98 2.58 3.194(2) 120.8 2_546
C58 H49 O16 0.95 2.42 2.979(2) 117.8 .
C49 H42 O8 0.99 2.64 3.163(2) 113.2 .
C48 H35 O4 0.98 2.52 3.396(2) 148.2 2_656
C48 H35 O2 0.98 2.52 3.239(2) 130.5 2_656
C28 H21 O8 0.95 2.44 2.932(3) 112.2 .
C23 H17 O6 0.98 2.63 3.290(3) 124.5 1_455
C17 H4 O9 0.98 2.58 3.194(2) 120.8 2_546
C17 H4 O9 0.98 2.58 3.194(2) 120.8 2_546
C23 H17 O6 0.98 2.63 3.290(3) 124.5 1_455
C28 H21 O8 0.95 2.44 2.932(3) 112.2 .
C48 H35 O2 0.98 2.52 3.239(2) 130.5 2_656
C48 H35 O4 0.98 2.52 3.396(2) 148.2 2_656
C49 H42 O8 0.99 2.64 3.163(2) 113.2 .
C58 H49 O16 0.95 2.42 2.979(2) 117.8 .
C17 H4 O9 0.98 2.58 3.194(2) 120.8 2_546
C23 H17 O6 0.98 2.63 3.290(3) 124.5 1_455
C28 H21 O8 0.95 2.44 2.932(3) 112.2 .
C48 H35 O2 0.98 2.52 3.239(2) 130.5 2_656
C48 H35 O4 0.98 2.52 3.396(2) 148.2 2_656
C49 H42 O8 0.99 2.64 3.163(2) 113.2 .
C58 H49 O16 0.95 2.42 2.979(2) 117.8 .
C17 H4 O9 0.98 2.58 3.194(2) 120.8 2_546
C23 H17 O6 0.98 2.63 3.290(3) 124.5 1_455
C28 H21 O8 0.95 2.44 2.932(3) 112.2 .
C48 H35 O2 0.98 2.52 3.239(2) 130.5 2_656
C48 H35 O4 0.98 2.52 3.396(2) 148.2 2_656
C49 H42 O8 0.99 2.64 3.163(2) 113.2 .
C58 H49 O16 0.95 2.42 2.979(2) 117.8 .
loop_
_geom_torsion_atom_site_label_1
_geom_torsion_atom_site_label_2
_geom_torsion_atom_site_label_3
_geom_torsion_atom_site_label_4
_geom_torsion
O1 S1 N1 C12 -175.19(14)
O8 S1 N1 C12 -47.49(15)
C8 S1 N1 C12 68.41(14)
O1 S1 N1 C7 49.62(15)
O8 S1 N1 C7 177.32(12)
C8 S1 N1 C7 -66.78(14)
O16 S2 N3 C43 -51.09(15)
O15 S2 N3 C43 -179.71(13)
C35 S2 N3 C43 64.65(15)
O16 S2 N3 C36 169.20(12)
O15 S2 N3 C36 40.58(14)
C35 S2 N3 C36 -75.06(14)
C19 C1 C2 C3 -0.8(3)
C1 C2 C3 C4 0.7(3)
C2 C3 C4 C20 -0.1(3)
C2 C3 C4 C5 177.92(17)
C20 C4 C5 C18 -129.46(16)
C3 C4 C5 C18 52.5(2)
C20 C4 C5 C6 104.20(17)
C3 C4 C5 C6 -73.9(2)
C4 C5 C6 C13 -166.03(14)
C18 C5 C6 C13 64.53(17)
C4 C5 C6 C7 75.02(17)
C18 C5 C6 C7 -54.42(18)
C4 C5 C6 N2 -47.18(17)
C18 C5 C6 N2 -176.62(13)
C12 N1 C7 C14 97.32(15)
S1 N1 C7 C14 -122.66(13)
C12 N1 C7 C6 -20.68(16)
S1 N1 C7 C6 119.34(13)
C13 C6 C7 N1 20.47(16)
C5 C6 C7 N1 144.99(13)
N2 C6 C7 N1 -96.60(14)
C13 C6 C7 C14 -92.41(15)
C5 C6 C7 C14 32.10(19)
N2 C6 C7 C14 150.51(13)
O1 S1 C8 C9 -13.27(17)
O8 S1 C8 C9 -145.91(15)
N1 S1 C8 C9 100.87(15)
O1 S1 C8 C29 168.95(15)
O8 S1 C8 C29 36.31(17)
N1 S1 C8 C29 -76.91(16)
C29 C8 C9 C10 0.7(3)
S1 C8 C9 C10 -177.03(15)
C8 C9 C10 C11 -0.5(3)
C9 C10 C11 C30 0.3(3)
C9 C10 C11 C24 -179.9(2)
C7 N1 C12 C13 12.79(19)
S1 N1 C12 C13 -127.93(14)
C7 N1 C12 C28 -164.27(17)
S1 N1 C12 C28 55.0(2)
C28 C12 C13 C25 0.0(3)
N1 C12 C13 C25 -177.26(16)
C28 C12 C13 C6 178.22(16)
N1 C12 C13 C6 1.0(2)
C5 C6 C13 C12 -139.98(15)
C7 C6 C13 C12 -13.74(18)
N2 C6 C13 C12 104.40(16)
C5 C6 C13 C25 38.0(2)
C7 C6 C13 C25 164.28(17)
N2 C6 C13 C25 -77.6(2)
N1 C7 C14 C15 -112.29(17)
C6 C7 C14 C15 0.5(2)
N1 C7 C14 C21 64.16(17)
C6 C7 C14 C21 176.95(13)
C21 C14 C15 O2 -8.4(2)
C7 C14 C15 O2 167.87(14)
C21 C14 C15 C18 174.39(15)
C7 C14 C15 C18 -9.4(3)
C16 O2 C15 C14 56.9(2)
C16 O2 C15 C18 -125.54(16)
C15 O2 C16 O3 13.3(3)
C15 O2 C16 C17 -167.09(16)
C14 C15 C18 C5 -14.7(2)
O2 C15 C18 C5 167.77(13)
C4 C5 C18 C15 -84.51(17)
C6 C5 C18 C15 44.00(18)
C2 C1 C19 C20 0.3(3)
C1 C19 C20 C4 0.3(3)
C3 C4 C20 C19 -0.4(3)
C5 C4 C20 C19 -178.56(17)
C22 O5 C21 O4 4.1(2)
C22 O5 C21 C14 -176.52(14)
C15 C14 C21 O4 44.9(3)
C7 C14 C21 O4 -131.62(18)
C15 C14 C21 O5 -134.56(16)
C7 C14 C21 O5 48.96(18)
C21 O5 C22 C23 174.00(16)
C13 C6 N2 O7 -139.27(15)
C5 C6 N2 O7 99.23(16)
C7 C6 N2 O7 -26.3(2)
C13 C6 N2 O6 45.93(19)
C5 C6 N2 O6 -75.57(17)
C7 C6 N2 O6 158.93(15)
C12 C13 C25 C26 -1.3(3)
C6 C13 C25 C26 -179.14(18)
C13 C25 C26 C27 1.1(3)
C25 C26 C27 C28 0.4(3)
C13 C12 C28 C27 1.5(3)
N1 C12 C28 C27 178.25(17)
C26 C27 C28 C12 -1.7(3)
C9 C8 C29 C30 -0.6(3)
S1 C8 C29 C30 177.11(17)
C8 C29 C30 C11 0.4(3)
C10 C11 C30 C29 -0.2(4)
C24 C11 C30 C29 180.0(2)
C60 C32 C33 C34 1.1(3)
C31 C32 C33 C34 -176.92(19)
C32 C33 C34 C35 -1.0(3)
C33 C34 C35 C59 0.3(3)
C33 C34 C35 S2 -179.31(15)
O16 S2 C35 C34 -151.09(15)
O15 S2 C35 C34 -18.77(17)
N3 S2 C35 C34 94.53(16)
O16 S2 C35 C59 29.32(17)
O15 S2 C35 C59 161.64(15)
N3 S2 C35 C59 -85.05(16)
C43 N3 C36 C45 115.19(15)
S2 N3 C36 C45 -100.75(14)
C43 N3 C36 C37 -7.58(17)
S2 N3 C36 C37 136.48(12)
O10 N4 C37 C44 71.48(18)
O9 N4 C37 C44 -106.41(17)
O10 N4 C37 C38 -49.10(19)
O9 N4 C37 C38 133.01(16)
O10 N4 C37 C36 -176.47(15)
O9 N4 C37 C36 5.6(2)
N3 C36 C37 C44 7.23(16)
C45 C36 C37 C44 -112.41(15)
N3 C36 C37 C38 132.28(14)
C45 C36 C37 C38 12.7(2)
N3 C36 C37 N4 -106.00(14)
C45 C36 C37 N4 134.37(14)
C44 C37 C38 C39 -159.60(14)
N4 C37 C38 C39 -43.75(18)
C36 C37 C38 C39 80.06(18)
C44 C37 C38 C49 73.61(17)
N4 C37 C38 C49 -170.55(13)
C36 C37 C38 C49 -46.73(18)
C49 C38 C39 C51 -94.02(18)
C37 C38 C39 C51 140.75(16)
C49 C38 C39 C40 86.6(2)
C37 C38 C39 C40 -38.6(2)
C51 C39 C40 C41 -0.6(3)
C38 C39 C40 C41 178.76(16)
C39 C40 C41 C42 0.5(3)
C40 C41 C42 C50 0.0(3)
C36 N3 C43 C44 4.97(18)
S2 N3 C43 C44 -138.26(13)
C36 N3 C43 C58 -172.43(17)
S2 N3 C43 C58 44.3(2)
C58 C43 C44 C55 -3.0(3)
N3 C43 C44 C55 179.40(15)
C58 C43 C44 C37 177.61(15)
N3 C43 C44 C37 0.00(19)
C38 C37 C44 C43 -131.84(15)
N4 C37 C44 C43 111.90(15)
C36 C37 C44 C43 -4.66(18)
C38 C37 C44 C55 48.8(2)
N4 C37 C44 C55 -67.4(2)
C36 C37 C44 C55 176.00(17)
N3 C36 C45 C46 -104.01(18)
C37 C36 C45 C46 13.1(2)
N3 C36 C45 C52 82.68(17)
C37 C36 C45 C52 -160.18(14)
C52 C45 C46 O11 1.0(2)
C36 C45 C46 O11 -172.06(14)
C52 C45 C46 C49 171.90(15)
C36 C45 C46 C49 -1.2(3)
C47 O11 C46 C45 -121.60(17)
C47 O11 C46 C49 67.03(19)
C46 O11 C47 O12 -5.8(2)
C46 O11 C47 C48 173.24(14)
C45 C46 C49 C38 -35.3(2)
O11 C46 C49 C38 135.58(15)
C39 C38 C49 C46 -72.72(17)
C37 C38 C49 C46 56.34(17)
C41 C42 C50 C51 -0.5(3)
C42 C50 C51 C39 0.4(3)
C40 C39 C51 C50 0.2(3)
C38 C39 C51 C50 -179.24(16)
C53 O13 C52 O14 3.3(3)
C53 O13 C52 C45 -175.11(15)
C46 C45 C52 O14 -119.9(2)
C36 C45 C52 O14 53.5(2)
C46 C45 C52 O13 58.6(2)
C36 C45 C52 O13 -127.97(16)
C52 O13 C53 C54 -94.7(2)
C43 C44 C55 C56 0.5(3)
C37 C44 C55 C56 179.79(17)
C44 C55 C56 C57 1.7(3)
C55 C56 C57 C58 -1.6(3)
C56 C57 C58 C43 -0.8(3)
C44 C43 C58 C57 3.1(3)
N3 C43 C58 C57 -179.75(17)
C34 C35 C59 C60 0.2(3)
S2 C35 C59 C60 179.81(15)
C35 C59 C60 C32 -0.1(3)
C33 C32 C60 C59 -0.6(3)
C31 C32 C60 C59 177.46(19)
