#------------------------------------------------------------------------------
#$Date: 2017-11-07 03:23:43 +0200 (Tue, 07 Nov 2017) $
#$Revision: 202831 $
#$URL: file:///home/coder/svn-repositories/cod/cif/1/54/75/1547511.cif $
#------------------------------------------------------------------------------
#
# This file is available in the Crystallography Open Database (COD),
# http://www.crystallography.net/
#
# All data on this site have been placed in the public domain by the
# contributors.
#
data_1547511
loop_
_publ_author_name
'Mandal, Debdeep'
'Dolai, Ramapada'
'Chrysochos, Nicolas'
'Kalita, Pankaj'
'Kumar, Ravi'
'Dhara, Debabrata'
'Maiti, Avijit'
'Narayanan, Ramakirushnan Suriya'
'Rajaraman, Gopalan'
'Schulzke, Carola'
'Chandrasekhar, Vadapalli'
'Jana, Anukul'
_publ_section_title
;
 Stepwise Reversible Oxidation of N-Peralkyl-Substituted NHC-CAAC Derived
 Triazaalkenes: Isolation of Radical Cations and Dications.
;
_journal_issue                   20
_journal_name_full               'Organic letters'
_journal_page_first              5605
_journal_page_last               5608
_journal_paper_doi               10.1021/acs.orglett.7b02721
_journal_volume                  19
_journal_year                    2017
_chemical_formula_sum            'C23 H41 F3 N3 O3 S'
_chemical_formula_weight         496.65
_chemical_name_systematic
;
 ?
;
_space_group_crystal_system      orthorhombic
_space_group_IT_number           61
_space_group_name_Hall           '-P 2ac 2ab'
_space_group_name_H-M_alt        'P b c a'
_symmetry_space_group_name_Hall  '-P 2ac 2ab'
_symmetry_space_group_name_H-M   'P b c a'
_atom_sites_solution_hydrogens   geom
_audit_creation_method           SHELXL-2013
_cell_angle_alpha                90
_cell_angle_beta                 90
_cell_angle_gamma                90
_cell_formula_units_Z            16
_cell_length_a                   17.684(4)
_cell_length_b                   17.465(4)
_cell_length_c                   33.978(7)
_cell_measurement_reflns_used    23320
_cell_measurement_temperature    170(2)
_cell_measurement_theta_max      49.5
_cell_measurement_theta_min      6.3
_cell_volume                     10494(4)
_computing_cell_refinement       'X-Area by STOE & Cie GmbH 2010'
_computing_data_collection       'X-Area by STOE & Cie GmbH 2010'
_computing_data_reduction        'X-Area by STOE & Cie GmbH 2010'
_computing_molecular_graphics    'XP Version 5.1 by Bruker AXS 1998'
_computing_publication_material  'CIFTAB (Sheldrick, 2013)'
_computing_structure_refinement  'SHELXL-2013 (Sheldrick, 2013)'
_computing_structure_solution    'SHELXT-2014 (Sheldrick, 2013)'
_diffrn_ambient_temperature      170(2)
_diffrn_detector_area_resol_mean 6.67
_diffrn_measured_fraction_theta_full 0.794
_diffrn_measured_fraction_theta_max 0.840
_diffrn_measurement_device_type  'STOE IPDS2T'
_diffrn_measurement_method       \w
_diffrn_radiation_type           MoK\a
_diffrn_radiation_wavelength     0.71073
_diffrn_reflns_av_R_equivalents  0.1565
_diffrn_reflns_av_unetI/netI     0.1433
_diffrn_reflns_Laue_measured_fraction_full 0.794
_diffrn_reflns_Laue_measured_fraction_max 0.840
_diffrn_reflns_limit_h_max       18
_diffrn_reflns_limit_h_min       -19
_diffrn_reflns_limit_k_max       18
_diffrn_reflns_limit_k_min       -19
_diffrn_reflns_limit_l_max       34
_diffrn_reflns_limit_l_min       -39
_diffrn_reflns_number            21686
_diffrn_reflns_point_group_measured_fraction_full 0.794
_diffrn_reflns_point_group_measured_fraction_max 0.840
_diffrn_reflns_theta_full        25.242
_diffrn_reflns_theta_max         24.733
_diffrn_reflns_theta_min         3.147
_diffrn_source                   'fine-focus sealed tube'
_exptl_absorpt_coefficient_mu    0.173
_exptl_absorpt_correction_T_max  0.9801
_exptl_absorpt_correction_T_min  0.6985
_exptl_absorpt_correction_type   numerical
_exptl_absorpt_process_details   'face indexed'
_exptl_crystal_colour            red
_exptl_crystal_density_diffrn    1.257
_exptl_crystal_description       block
_exptl_crystal_F_000             4272
_exptl_crystal_size_max          0.392
_exptl_crystal_size_mid          0.260
_exptl_crystal_size_min          0.217
_refine_diff_density_max         0.726
_refine_diff_density_min         -0.366
_refine_diff_density_rms         0.082
_refine_ls_extinction_method     none
_refine_ls_goodness_of_fit_ref   0.886
_refine_ls_hydrogen_treatment    constr
_refine_ls_matrix_type           full
_refine_ls_number_parameters     619
_refine_ls_number_reflns         7538
_refine_ls_number_restraints     0
_refine_ls_restrained_S_all      0.886
_refine_ls_R_factor_all          0.1783
_refine_ls_R_factor_gt           0.0911
_refine_ls_shift/su_max          0.000
_refine_ls_shift/su_mean         0.000
_refine_ls_structure_factor_coef Fsqd
_refine_ls_weighting_details
'w=1/[\s^2^(Fo^2^)+(0.1453P)^2^] where P=(Fo^2^+2Fc^2^)/3'
_refine_ls_weighting_scheme      calc
_refine_ls_wR_factor_gt          0.2157
_refine_ls_wR_factor_ref         0.2621
_reflns_Friedel_coverage         0.000
_reflns_number_gt                3207
_reflns_number_total             7538
_reflns_threshold_expression     'I > 2\s(I)'
_cod_data_source_file            ol7b02721_si_002.cif
_cod_data_source_block           DM-493
_cod_depositor_comments
'Adding full bibliography for 1547507--1547513.cif.'
_cod_database_code               1547511
_shelx_space_group_comment
;
The symmetry employed for this shelxl refinement is uniquely defined
by the following loop, which should always be used as a source of
symmetry information in preference to the above space-group names.
They are only intended as comments.
;
_shelx_estimated_absorpt_t_min   0.935
_shelx_estimated_absorpt_t_max   0.963
_shelxl_version_number           2013-3
_shelx_res_file
;
TITL DM-493 in Pbca
CELL  0.71073  17.6843  17.4647  33.9784   90.000   90.000   90.000
ZERR    16.00   0.0035   0.0035   0.0068    0.000    0.000    0.000
LATT   1
SYMM  1/2 - X, - Y, 1/2 + Z
SYMM  - X, 1/2 + Y, 1/2 - Z
SYMM  1/2 + X, 1/2 - Y, - Z
SFAC  C    H    N    O    F    S
UNIT  368 656 48 48 48 16
MERG   2
FMAP   2
SIZE     0.217   0.260   0.392
ACTA
PLAN -5
BOND
LIST   6
L.S.  24
TEMP  -103.00
WGHT    0.145300
FVAR       0.11589
N1    3    0.740993    0.776332    0.616596    11.00000    0.02604    0.04581 =
         0.05512    0.00000   -0.00585    0.00654
N2    3    0.730929    0.901355    0.533573    11.00000    0.02395    0.04124 =
         0.06889   -0.00064   -0.00140   -0.00209
N3    3    0.643682    0.815939    0.543952    11.00000    0.01744    0.05356 =
         0.06109    0.00550    0.00024   -0.00473
C1    1    0.788524    0.716289    0.634739    11.00000    0.03227    0.04264 =
         0.06277    0.00429   -0.00356    0.00346
C2    1    0.834261    0.688313    0.599290    11.00000    0.03916    0.05654 =
         0.06980   -0.00184   -0.00705    0.00240
AFIX  23
H2A   2    0.809000    0.643656    0.587075    11.00000   -1.20000
H2B   2    0.885485    0.672515    0.607789    11.00000   -1.20000
AFIX   0
C3    1    0.839838    0.754818    0.569235    11.00000    0.01781    0.04768 =
         0.06730   -0.00200    0.00067    0.00710
C4    1    0.766546    0.797274    0.580029    11.00000    0.02682    0.03960 =
         0.05744    0.00474   -0.00555    0.00237
C5    1    0.717032    0.836320    0.552830    11.00000    0.02587    0.04132 =
         0.05604   -0.00076    0.00771   -0.00292
C6    1    0.667032    0.924022    0.511986    11.00000    0.03400    0.06080 =
         0.05088    0.00371   -0.00093    0.00870
C7    1    0.613194    0.870760    0.519071    11.00000    0.02543    0.05302 =
         0.06045    0.00138   -0.00367    0.00461
C8    1    0.690534    0.830156    0.638399    11.00000    0.03829    0.05315 =
         0.05611    0.00065    0.00222    0.00866
AFIX  13
H8    2    0.656648    0.853660    0.618171    11.00000   -1.20000
AFIX   0
C9    1    0.732302    0.896051    0.657545    11.00000    0.05132    0.07103 =
         0.07210   -0.01090   -0.00075    0.00737
AFIX 137
H9A   2    0.755970    0.878392    0.681994    11.00000   -1.50000
H9B   2    0.696578    0.937377    0.663458    11.00000   -1.50000
H9C   2    0.771387    0.915026    0.639575    11.00000   -1.50000
AFIX   0
C10   1    0.638736    0.789259    0.667299    11.00000    0.04781    0.07982 =
         0.06185   -0.00164    0.01208    0.00543
AFIX 137
H10A  2    0.614299    0.745911    0.654120    11.00000   -1.50000
H10B  2    0.600036    0.824965    0.676750    11.00000   -1.50000
H10C  2    0.668501    0.770550    0.689646    11.00000   -1.50000
AFIX   0
C11   1    0.743451    0.649629    0.651114    11.00000    0.05012    0.05257 =
         0.07968    0.00777   -0.00361    0.00369
AFIX 137
H11A  2    0.723054    0.663448    0.676974    11.00000   -1.50000
H11B  2    0.776452    0.604847    0.653765    11.00000   -1.50000
H11C  2    0.701722    0.637520    0.633185    11.00000   -1.50000
AFIX   0
C12   1    0.839731    0.748959    0.667535    11.00000    0.04737    0.08229 =
         0.07020    0.00331   -0.01389    0.00737
AFIX 137
H12A  2    0.868517    0.792514    0.657228    11.00000   -1.50000
H12B  2    0.874776    0.709160    0.676518    11.00000   -1.50000
H12C  2    0.808378    0.765927    0.689660    11.00000   -1.50000
AFIX   0
C13   1    0.838016    0.726731    0.527615    11.00000    0.02817    0.06643 =
         0.06998   -0.00674    0.00635    0.00675
AFIX 137
H13A  2    0.792238    0.696175    0.523427    11.00000   -1.50000
H13B  2    0.882710    0.695050    0.522555    11.00000   -1.50000
H13C  2    0.837908    0.770582    0.509620    11.00000   -1.50000
AFIX   0
C14   1    0.913294    0.801621    0.575542    11.00000    0.02196    0.06532 =
         0.07187   -0.00375    0.00111    0.00320
AFIX 137
H14A  2    0.920162    0.837249    0.553549    11.00000   -1.50000
H14B  2    0.956604    0.766710    0.576872    11.00000   -1.50000
H14C  2    0.909569    0.830501    0.600195    11.00000   -1.50000
AFIX   0
C15   1    0.800890    0.947759    0.540776    11.00000    0.03311    0.05023 =
         0.07809   -0.00039    0.00217   -0.00989
AFIX  13
H15   2    0.831797    0.918699    0.560379    11.00000   -1.20000
AFIX   0
C16   1    0.781521    1.023519    0.559673    11.00000    0.04439    0.05322 =
         0.08944   -0.00527   -0.00303   -0.00368
AFIX 137
H16A  2    0.762727    1.058935    0.539554    11.00000   -1.50000
H16B  2    0.826848    1.045091    0.572018    11.00000   -1.50000
H16C  2    0.742420    1.015697    0.579712    11.00000   -1.50000
AFIX   0
C17   1    0.848880    0.954483    0.503697    11.00000    0.04882    0.07101 =
         0.07681    0.00525    0.00487   -0.01202
AFIX 137
H17A  2    0.858445    0.903302    0.492972    11.00000   -1.50000
H17B  2    0.897104    0.979106    0.510157    11.00000   -1.50000
H17C  2    0.821959    0.985366    0.484112    11.00000   -1.50000
AFIX   0
C18   1    0.660384    0.996174    0.489113    11.00000    0.05028    0.06531 =
         0.09059    0.01349   -0.01178    0.01383
AFIX 137
H18A  2    0.618023    0.992051    0.470640    11.00000   -1.50000
H18B  2    0.707299    1.005065    0.474458    11.00000   -1.50000
H18C  2    0.651445    1.039016    0.507149    11.00000   -1.50000
AFIX   0
C19   1    0.533450    0.871773    0.504855    11.00000    0.02727    0.07468 =
         0.08448    0.00617   -0.00837    0.00994
AFIX 137
H19A  2    0.528562    0.908744    0.483308    11.00000   -1.50000
H19B  2    0.499862    0.886573    0.526497    11.00000   -1.50000
H19C  2    0.519503    0.820666    0.495413    11.00000   -1.50000
AFIX   0
C20   1    0.609426    0.741943    0.555310    11.00000    0.02236    0.06271 =
         0.05997    0.01293   -0.00112    0.00118
AFIX  13
H20   2    0.644500    0.717592    0.574707    11.00000   -1.20000
AFIX   0
C21   1    0.604835    0.688378    0.520137    11.00000    0.03397    0.08003 =
         0.06967    0.00968   -0.00451   -0.01000
AFIX 137
H21A  2    0.571839    0.710831    0.500043    11.00000   -1.50000
H21B  2    0.584174    0.638939    0.528532    11.00000   -1.50000
H21C  2    0.655533    0.680827    0.509156    11.00000   -1.50000
AFIX   0
C22   1    0.533355    0.751634    0.576026    11.00000    0.02185    0.09538 =
         0.07689    0.00842    0.00162   -0.00814
AFIX 137
H22A  2    0.536892    0.793293    0.595261    11.00000   -1.50000
H22B  2    0.520059    0.703945    0.589559    11.00000   -1.50000
H22C  2    0.494317    0.763880    0.556547    11.00000   -1.50000
AFIX   0
MOLE    2
N4    3    0.734070    0.749739    0.366998    11.00000    0.02863    0.04978 =
         0.05009    0.00167   -0.00307    0.00684
N5    3    0.729559    0.869187    0.281321    11.00000    0.02423    0.04971 =
         0.06285    0.00181    0.00020    0.00030
N6    3    0.645136    0.780322    0.290000    11.00000    0.01776    0.04926 =
         0.06373    0.00600   -0.00270   -0.00446
C23   1    0.780357    0.690135    0.386909    11.00000    0.03125    0.05358 =
         0.05651    0.00365   -0.00086    0.00279
C24   1    0.831158    0.663252    0.352685    11.00000    0.03834    0.04930 =
         0.06227    0.00223   -0.00594    0.00326
AFIX  23
H24A  2    0.881485    0.648172    0.362821    11.00000   -1.20000
H24B  2    0.808176    0.618335    0.339537    11.00000   -1.20000
AFIX   0
C25   1    0.839258    0.728959    0.323532    11.00000    0.01730    0.05355 =
         0.06189    0.00116   -0.00394    0.00592
C26   1    0.762837    0.768864    0.330827    11.00000    0.02875    0.04645 =
         0.05232    0.00089   -0.00500    0.00934
C27   1    0.716097    0.805405    0.301738    11.00000    0.02579    0.04612 =
         0.05193    0.00481    0.00287    0.00097
C28   1    0.668224    0.888124    0.256980    11.00000    0.02268    0.04978 =
         0.06439   -0.00150   -0.00478    0.00601
C29   1    0.616561    0.831648    0.263220    11.00000    0.02423    0.05499 =
         0.05935    0.00862   -0.00017    0.00063
C30   1    0.682189    0.805402    0.386802    11.00000    0.02472    0.05654 =
         0.05657   -0.00223    0.00169    0.00716
AFIX  13
H30   2    0.647761    0.825636    0.365899    11.00000   -1.20000
AFIX   0
C31   1    0.631760    0.768367    0.417704    11.00000    0.04164    0.09400 =
         0.06597    0.00669    0.01335    0.01020
AFIX 137
H31A  2    0.605385    0.724495    0.406088    11.00000   -1.50000
H31B  2    0.594609    0.805804    0.427070    11.00000   -1.50000
H31C  2    0.662813    0.750954    0.439852    11.00000   -1.50000
AFIX   0
C32   1    0.724273    0.874507    0.403660    11.00000    0.06089    0.05875 =
         0.07725   -0.01506    0.00459    0.00709
AFIX 137
H32A  2    0.750201    0.859573    0.427967    11.00000   -1.50000
H32B  2    0.688089    0.915532    0.409366    11.00000   -1.50000
H32C  2    0.761499    0.892701    0.384450    11.00000   -1.50000
AFIX   0
C33   1    0.732751    0.622309    0.400833    11.00000    0.05216    0.05605 =
         0.08276    0.01123    0.00687    0.00568
AFIX 137
H33A  2    0.703599    0.637257    0.424128    11.00000   -1.50000
H33B  2    0.766064    0.579383    0.407500    11.00000   -1.50000
H33C  2    0.698063    0.606796    0.379801    11.00000   -1.50000
AFIX   0
C34   1    0.825392    0.721472    0.421674    11.00000    0.04673    0.09725 =
         0.05341    0.00132   -0.00353    0.00410
AFIX 137
H34A  2    0.857587    0.763707    0.412740    11.00000   -1.50000
H34B  2    0.857043    0.680708    0.432696    11.00000   -1.50000
H34C  2    0.790463    0.740123    0.441910    11.00000   -1.50000
AFIX   0
C35   1    0.907659    0.780272    0.333327    11.00000    0.01658    0.06688 =
         0.08503   -0.00082   -0.00654   -0.00083
AFIX 137
H35A  2    0.912449    0.820370    0.313305    11.00000   -1.50000
H35B  2    0.953770    0.749158    0.333702    11.00000   -1.50000
H35C  2    0.900235    0.803904    0.359199    11.00000   -1.50000
AFIX   0
C36   1    0.846751    0.701846    0.281392    11.00000    0.02928    0.06484 =
         0.06945   -0.00569   -0.00036    0.01375
AFIX 137
H36A  2    0.800976    0.673908    0.273772    11.00000   -1.50000
H36B  2    0.890696    0.667951    0.279106    11.00000   -1.50000
H36C  2    0.853431    0.746127    0.264022    11.00000   -1.50000
AFIX   0
C37   1    0.795618    0.918728    0.290304    11.00000    0.02630    0.03830 =
         0.07330   -0.00111    0.00113   -0.00455
AFIX  13
H37   2    0.825308    0.891928    0.311223    11.00000   -1.20000
AFIX   0
C38   1    0.771177    0.994671    0.307477    11.00000    0.04046    0.04647 =
         0.08014   -0.00607    0.00210   -0.00480
AFIX 137
H38A  2    0.743804    1.024088    0.287470    11.00000   -1.50000
H38B  2    0.815853    1.023472    0.315966    11.00000   -1.50000
H38C  2    0.738034    0.985674    0.330125    11.00000   -1.50000
AFIX   0
C39   1    0.848767    0.928049    0.254788    11.00000    0.03741    0.06179 =
         0.07815    0.00467    0.00894   -0.00577
AFIX 137
H39A  2    0.861437    0.877483    0.244163    11.00000   -1.50000
H39B  2    0.895161    0.954078    0.263144    11.00000   -1.50000
H39C  2    0.823565    0.958522    0.234430    11.00000   -1.50000
AFIX   0
C40   1    0.661423    0.956738    0.231694    11.00000    0.04604    0.05570 =
         0.07686    0.00533   -0.00054    0.01102
AFIX 137
H40A  2    0.623971    0.947174    0.211012    11.00000   -1.50000
H40B  2    0.710522    0.968005    0.219640    11.00000   -1.50000
H40C  2    0.645270    1.000486    0.247679    11.00000   -1.50000
AFIX   0
C41   1    0.539252    0.827099    0.244119    11.00000    0.02388    0.06544 =
         0.08556    0.00506   -0.00994    0.00120
AFIX 137
H41A  2    0.500239    0.838734    0.263710    11.00000   -1.50000
H41B  2    0.531210    0.775382    0.233741    11.00000   -1.50000
H41C  2    0.536315    0.864241    0.222554    11.00000   -1.50000
AFIX   0
C42   1    0.611415    0.706291    0.302995    11.00000    0.02824    0.05679 =
         0.06165    0.00686   -0.00650   -0.00394
AFIX  13
H42   2    0.645882    0.684187    0.323373    11.00000   -1.20000
AFIX   0
C43   1    0.607715    0.649512    0.269359    11.00000    0.03070    0.06542 =
         0.07268    0.00841   -0.00383   -0.00152
AFIX 137
H43A  2    0.574091    0.669277    0.248806    11.00000   -1.50000
H43B  2    0.588183    0.600506    0.279055    11.00000   -1.50000
H43C  2    0.658477    0.642015    0.258449    11.00000   -1.50000
AFIX   0
C44   1    0.534490    0.717533    0.322294    11.00000    0.03272    0.08899 =
         0.07819    0.00327    0.00842   -0.00629
AFIX 137
H44A  2    0.538052    0.757865    0.342260    11.00000   -1.50000
H44B  2    0.518527    0.669588    0.334764    11.00000   -1.50000
H44C  2    0.497387    0.732382    0.302276    11.00000   -1.50000
AFIX   0
MOLE    3
S1    6    0.479340    0.482807    0.358045    11.00000    0.04453    0.06549 =
         0.07715   -0.00185   -0.00090    0.00559
O1    4    0.535892    0.494925    0.328679    11.00000    0.10505    0.16302 =
         0.07380    0.02207    0.03519    0.01511
O2    4    0.424226    0.541749    0.361988    11.00000    0.05666    0.07291 =
         0.14658   -0.01860   -0.02082    0.03322
O3    4    0.451203    0.406897    0.359250    11.00000    0.06119    0.06496 =
         0.12930   -0.01177   -0.02052   -0.00790
F1    5    0.490947    0.475790    0.434698    11.00000    0.09905    0.18124 =
         0.07051   -0.00359    0.01372   -0.02983
F2    5    0.559676    0.560151    0.409108    11.00000    0.06489    0.10156 =
         0.17040   -0.03254   -0.00907   -0.03067
F3    5    0.590013    0.443721    0.404486    11.00000    0.06176    0.13661 =
         0.14116   -0.02186   -0.03649    0.04525
C45   1    0.532163    0.491336    0.403204    11.00000    0.05287    0.06165 =
         0.09253   -0.00554    0.00005    0.00051
MOLE    4
S2    6    0.490340    0.995501    0.394743    11.00000    0.04831    0.06919 =
         0.08046    0.00383   -0.00251   -0.00427
O4    4    0.544671    1.049259    0.406442    11.00000    0.11978    0.12444 =
         0.10362   -0.02156    0.01044   -0.08028
O5    4    0.503940    0.920765    0.409006    11.00000    0.07749    0.09680 =
         0.14381    0.04940   -0.01564    0.00185
O6    4    0.412131    1.017035    0.397117    11.00000    0.04800    0.14601 =
         0.13141    0.01325    0.01769    0.03966
F4    5    0.459870    0.936251    0.326682    11.00000    0.11507    0.16941 =
         0.12048   -0.04568   -0.01131   -0.05491
F5    5    0.576309    0.964314    0.334611    11.00000    0.06519    0.16945 =
         0.13679   -0.02068    0.02586    0.02266
F6    5    0.497573    1.050201    0.323709    11.00000    0.12860    0.15236 =
         0.10864    0.04604    0.00343    0.02011
C46   1    0.504626    0.985845    0.344239    11.00000    0.04122    0.07077 =
         0.11450    0.01386   -0.02682   -0.01316
HKLF    4

REM  DM-493 in Pbca
REM R1 =  0.0911 for    3207 Fo > 4sig(Fo)  and  0.1783 for all    7538 data
REM    619 parameters refined using      0 restraints

END

WGHT      0.1420      0.0000

REM Highest difference peak  0.726,  deepest hole -0.366,  1-sigma level  0.082
Q1    1   0.4912  0.9948  0.4278  11.00000  0.05    0.73
Q2    1   0.4821  0.4830  0.3291  11.00000  0.05    0.68
Q3    1   0.4824  0.4800  0.3906  11.00000  0.05    0.68
Q4    1   0.5030  1.0834  0.3819  11.00000  0.05    0.49
Q5    1   0.4944  0.9859  0.3686  11.00000  0.05    0.47
;
_shelx_res_checksum              19361
_shelx_hkl_file
;
   0  -6   0   56.99   12.20
  -1  -4   0    0.10    5.00
  -1  -6   0   -0.30    4.30
  -1  -8   0    0.50    4.60
  -1 -10   0   -0.20    4.90
  -2   2   0 9816.22   42.70
  -2  -2   0 8883.21   38.30
  -2  -4   0 1222.78   13.20
  -2   4   0 1094.29   16.30
  -2  -6   0  246.08    6.70
  -2   6   0  268.97   12.20
  -2  -8   0    1.30    3.70
  -2 -10   0   -0.10    3.40
  -2 -12   0   54.29    5.90
  -3  -2   0    1.50    4.70
  -3   2   0    1.40    4.40
  -3   4   0   -0.30    3.90
  -3  -4   0    0.90    4.00
  -3  -6   0   -1.70    4.00
  -3   6   0    0.60    4.30
  -3  -8   0    0.70    3.30
  -3   8   0   -0.80    5.60
  -3 -10   0    0.20    3.40
  -3 -12   0   -0.60    3.40
  -3 -14   0    1.80    4.50
  -4   0   0 1752.92   12.80
  -4   2   0 5145.19   21.90
  -4  -2   0 5292.77   21.40
  -4   4   0    1.70    3.50
  -4  -4   0    2.60    3.20
  -4   6   0   29.90    4.00
  -4  -6   0   44.60    4.10
  -4  -8   0  671.33    7.90
  -4   8   0  584.74    9.90
  -4  10   0  110.59   10.60
  -4 -10   0  129.39    4.60
  -4 -12   0   70.89    4.40
  -4 -14   0   26.00    4.30
  -4 -16   0   35.10    5.50
  -5  -2   0    1.00    4.00
  -5   2   0   -1.00    3.10
  -5   4   0    1.30    3.70
  -5  -4   0    3.00    4.10
  -5  -6   0    0.90    3.20
  -5   6   0    0.50    3.50
  -5  -8   0   -0.40    3.20
  -5   8   0   -0.80    3.60
  -5  10   0   -1.00    4.10
  -5 -10   0    0.10    3.30
  -5 -12   0   -1.10    3.40
  -5 -14   0    0.20    3.70
  -5 -16   0    1.70    4.10
  -5 -18   0    1.00    5.90
  -6   0   0  768.32    7.40
  -6   2   0  109.09    4.00
  -6  -2   0  104.79    4.60
  -6   4   0  922.41    8.50
  -6  -4   0  637.44    6.70
  -6  -6   0   10.40    3.30
  -6   6   0   16.90    3.60
  -6   8   0    6.30    3.30
  -6  -8   0    6.90    3.40
  -6  10   0   53.09    4.00
  -6 -10   0   61.09    3.50
  -6  12   0   90.89    7.90
  -6 -12   0  136.99    5.10
  -6 -14   0   10.50    3.70
  -6 -16   0   10.90    4.10
  -6 -18   0    3.90    4.70
  -7  -2   0    1.30    3.50
  -7   2   0    0.20    2.90
  -7  -4   0   -0.30    2.70
  -7   4   0    0.60    3.50
  -7   6   0   -0.90    3.20
  -7  -6   0   -3.10    3.60
  -7   8   0    0.90    3.20
  -7  -8   0    1.40    3.50
  -7  10   0    0.70    3.80
  -7 -10   0   19.70    3.50
  -7  12   0   -0.40    4.00
  -7 -12   0   -3.30    3.10
  -7 -14   0    1.70    3.20
  -7 -16   0    0.50    3.50
  -7 -18   0   -2.30    4.40
  -8   0   0  729.83    6.50
  -8   2   0   69.99    3.30
  -8  -2   0   73.59    3.10
  -8   4   0  148.59    4.40
  -8  -4   0  135.19    3.50
  -8   6   0  122.89    4.10
  -8  -6   0   76.29    3.30
  -8   8   0  545.25    6.60
  -8  -8   0  376.36    7.60
  -8  10   0   54.09    4.60
  -8 -10   0   87.69    3.90
  -8  12   0   11.10    3.90
  -8 -12   0   10.70    3.30
  -8  14   0   17.40    5.40
  -8 -14   0   29.90    3.60
  -8 -18   0    0.80    4.00
  -9  -2   0    0.70    2.30
  -9   2   0    0.60    2.70
  -9  -4   0    0.20    2.50
  -9   4   0   -1.50    3.10
  -9   6   0   -0.30    2.70
  -9  -6   0    2.90    2.50
  -9   8   0    0.90    3.00
  -9  -8   0  -10.40    3.40
  -9  10   0    2.50    3.60
  -9 -10   0    1.90    3.60
  -9 -12   0    2.00    3.00
  -9  12   0   -0.30    3.70
  -9  14   0   -0.40    4.00
  -9 -14   0    2.10    3.40
  -9 -18   0   -0.40    3.90
 -10   0   0   79.89    3.00
 -10   2   0  387.76    4.70
 -10  -2   0  393.96    4.50
 -10   4   0   -1.00    2.50
 -10  -4   0    1.70    2.40
 -10   6   0  497.95    5.80
 -10  -6   0  454.85    5.30
 -10  -8   0    3.70    3.20
 -10   8   0    2.60    3.00
 -10 -10   0   27.60    3.70
 -10  10   0   36.30    3.70
 -10  12   0    3.00    3.60
 -10 -12   0    6.30    3.40
 -10  14   0    4.90    4.30
 -10 -14   0    4.50    3.80
 -10  16   0   -0.80    6.10
 -11   2   0    0.20    2.50
 -11  -2   0    0.80    2.30
 -11   4   0    1.90    2.60
 -11  -4   0   -2.30    2.50
 -11  -6   0   -0.90    3.30
 -11   6   0    0.60    3.00
 -11   8   0   -0.30    3.00
 -11  -8   0    2.20    2.70
 -11 -10   0   -0.50    2.80
 -11  10   0   -2.20    3.40
 -11  12   0   -0.60    3.30
 -11 -12   0    3.10    3.20
 -11  14   0   -1.70    4.10
 -11 -16   0    7.00    3.50
 -11  16   0    0.70    4.90
 -12   0   0  286.37    4.20
 -12  -2   0   67.19    2.80
 -12   2   0   67.89    3.30
 -12  -4   0  205.38    3.60
 -12   4   0  216.78    3.80
 -12   6   0    4.30    2.60
 -12  -6   0    1.60    3.20
 -12   8   0   22.80    2.60
 -12  10   0   -1.20    3.60
 -12  12   0    0.40    3.10
 -12  14   0    1.10    3.80
 -12  16   0    1.20    4.70
 -13  -2   0    2.00    2.90
 -13   2   0   -1.50    3.00
 -13  -4   0    0.60    2.40
 -13   4   0    1.10    2.50
 -13   6   0   -1.40    2.90
 -13   8   0    0.90    3.10
 -13  10   0   -0.50    3.40
 -13  14   0    0.10    4.00
 -14   0   0    0.00    2.40
 -14  -2   0  110.69    3.00
 -14  -4   0   16.00    2.60
 -14   6   0    0.60    2.80
 -14   8   0   31.40    3.20
 -14 -10   0   13.40    2.70
 -14 -12   0    7.10    3.30
 -15  -2   0    0.00    2.70
 -15   2   0    4.20    2.50
 -15   8   0    1.10    2.60
 -16  -2   0   38.10    3.00
 -16   2   0   36.10    2.80
 -16  10   0    2.10    3.30
 -16  12   0    0.20    3.60
   1   3  -1  161.58    7.20
  -1   3   1  212.48   10.20
  -1  -3   1  151.88    6.50
  -1  -4   1   81.89    5.70
   1   4  -1   69.19    5.80
   1  -4  -1   80.19    9.30
  -1  -5   1    5.10    4.40
  -1  -6   1    6.30    4.70
  -1  -6  -1    5.60    5.50
  -1  -7   1   26.10    4.80
  -1  -7  -1   25.20    5.10
  -1  -8   1   19.00    4.80
  -1  -8  -1   16.50    4.80
  -1  -9  -1   15.60    4.70
  -1  -9   1   13.80    4.90
  -1 -10   1    1.40    4.90
  -1 -10  -1    2.10    4.60
  -2  -2   1    5.90    3.40
  -2   2   1    7.10    3.90
   2   2  -1    7.10    4.20
  -2   3   1   26.20    4.70
  -2  -3   1   17.00    4.50
   2   3  -1   21.60    3.70
  -2  -4   1    5.10    4.40
  -2   4   1    6.90    4.60
  -2   5  -1   37.80    6.70
  -2   5   1   54.29    6.30
  -2  -5   1   32.00    4.80
  -2  -6  -1   10.30    4.90
  -2   6   1   11.10    6.20
  -2  -6   1    8.60    4.00
  -2   6  -1    7.10    6.50
  -2  -7   1    1.80    3.50
  -2  -7  -1    3.50    3.80
  -2  -8   1    6.20    3.70
  -2  -8  -1    4.50    3.90
  -2  -9   1   -0.60    3.50
  -2  -9  -1    0.00    3.50
  -2 -10  -1    1.30    3.50
  -2 -10   1    2.10    3.40
  -2 -11  -1    6.10    3.90
  -2 -11   1    8.90    4.10
  -2 -12  -1   70.09    5.80
  -2 -12   1   72.69    6.40
  -2 -13   1   23.20    6.60
  -2 -13  -1   19.50    6.30
   3   1  -1   55.89    4.60
  -3   1   1   56.89    4.00
   3  -1  -1   53.59    4.60
  -3  -1   1   42.80    4.70
  -3  -2   1   21.80    4.30
  -3   2   1   23.40    4.20
   3   2  -1   15.40    3.50
  -3  -3   1  806.52    9.40
  -3   3   1  942.21   11.30
  -3   4   1   -0.10    3.90
  -3  -4   1   -1.10    3.60
  -3   5  -1  660.63   11.30
  -3   5   1  641.84   10.20
  -3  -5   1  600.74    8.00
  -3  -6   1    3.40    3.80
  -3   6   1    5.70    4.40
  -3  -6  -1    3.90    4.20
  -3   6  -1    3.80    4.50
  -3   7  -1    3.90    4.70
  -3   7   1    5.20    4.50
  -3  -7  -1    3.40    4.20
  -3  -7   1    3.90    3.50
  -3  -8  -1  123.19    5.00
  -3   8   1  130.29    9.00
  -3  -8   1  101.39    4.80
  -3   8  -1   99.29    7.60
  -3  -9  -1   36.40    4.30
  -3  -9   1   38.80    4.20
  -3 -10   1   28.70    3.40
  -3 -10  -1   24.70    3.90
  -3 -11   1   20.70    3.60
  -3 -11  -1   20.40    4.00
  -3 -12   1    1.50    3.60
  -3 -12  -1    0.70    3.70
  -3 -13   1    1.60    4.10
  -3 -13  -1    1.50    4.00
  -3 -14   1    4.90    4.60
  -3 -14  -1   11.60    4.90
  -3 -15  -1    3.00    5.50
  -3 -15   1    1.60    5.60
  -4   0   1    0.30    4.20
   4   0  -1   -0.80    3.60
  -4  -1   1   14.30    3.70
  -4   1   1   14.40    4.10
   4  -1  -1   14.10    3.50
  -4   2   1  109.99    4.30
  -4  -2   1  115.39    5.10
  -4   3   1   58.49    4.10
  -4  -3   1   35.40    3.50
  -4   4   1   78.99    4.30
  -4   4  -1   67.99    4.70
  -4  -4   1   70.49    4.30
  -4   5   1   91.49    4.50
  -4  -5  -1  128.49    4.90
  -4  -5   1   72.19    4.90
  -4   5  -1  139.99    5.90
  -4   6   1    5.10    3.60
  -4  -6  -1    4.40    3.30
  -4  -6   1    4.40    3.50
  -4   6  -1    4.70    3.90
  -4   7   1    4.70    3.70
  -4  -7   1    1.90    3.70
  -4  -7  -1    6.20    4.40
  -4   7  -1    5.90    3.90
  -4   8  -1   89.39    5.40
  -4  -8   1   68.99    4.50
  -4  -8  -1  109.79    5.10
  -4   8   1   93.19    5.80
  -4  -9  -1   19.50    3.40
  -4  -9   1   24.40    3.60
  -4   9   1   27.60    4.70
  -4   9  -1   20.20    4.40
  -4  10  -1   41.90    7.50
  -4 -10  -1   33.70    3.70
  -4 -10   1   33.00    3.80
  -4 -11   1   27.30    3.80
  -4 -11  -1   31.80    3.80
  -4 -12  -1   23.70    4.00
  -4 -12   1   45.20    4.50
  -4 -13   1   -0.60    4.10
  -4 -13  -1    6.70    4.00
  -4 -14  -1   19.00    4.10
  -4 -14   1   28.10    4.30
  -4 -15  -1   24.00    4.50
  -4 -15   1   14.00    4.40
  -4 -16  -1   53.69    5.80
  -4 -16   1   46.80    5.70
  -5   1   1  279.47    5.30
  -5  -1   1  290.47    5.50
  -5   2   1    4.00    2.80
  -5  -2   1    4.10    3.10
  -5   3  -1  926.91    8.90
  -5   3   1  900.11    8.50
  -5  -3   1  914.61    8.20
  -5   4   1  349.57    5.90
  -5   4  -1  306.17    6.10
  -5  -4   1  289.07    5.20
  -5  -4  -1  247.88    5.10
  -5   5  -1   20.60    4.20
  -5  -5   1   23.80    3.80
  -5   5   1   22.40    3.90
  -5  -5  -1   17.80    3.80
  -5   6   1   29.60    3.70
  -5   6  -1   27.50    4.10
  -5  -6   1   20.20    3.00
  -5  -6  -1   24.30    3.70
  -5  -7  -1  326.07    6.20
  -5   7  -1  205.58    5.50
  -5  -7   1  192.98    6.00
  -5   7   1  313.97    6.20
  -5  -8  -1   39.30    4.00
  -5   8  -1   39.70    4.20
  -5  -8   1   39.20    3.30
  -5   8   1   35.70    3.70
  -5   9   1    1.20    3.40
  -5  -9   1    2.50    2.90
  -5  -9  -1    2.00    3.20
  -5   9  -1    0.00    3.50
  -5  10   1   16.60    4.20
  -5 -10   1   17.60    2.90
  -5 -10  -1   14.40    3.50
  -5  10  -1   13.10    4.00
  -5 -11   1   20.50    3.70
  -5  11  -1   24.20    5.60
  -5 -11  -1   19.50    3.80
  -5  11   1   15.60    5.50
  -5 -12  -1    0.10    3.60
  -5 -12   1    1.20    3.50
  -5 -13  -1   21.00    3.80
  -5 -13   1    7.40    3.70
  -5 -14   1   -0.30    3.70
  -5 -14  -1    3.90    3.70
  -5 -15   1    1.10    3.80
  -5 -15  -1    3.60    4.00
  -5 -16  -1   38.90    4.50
  -5 -16   1    2.50    4.10
  -5 -17  -1    4.00    4.80
  -5 -17   1    1.50    4.90
  -5 -18  -1    3.00    5.80
  -5 -18   1    1.50    5.80
  -6   0   1   -4.90    3.50
  -6  -1   1   13.10    3.50
  -6   1   1   12.40    3.40
  -6   2  -1   35.90    4.00
  -6  -2   1   31.70    3.80
  -6   2   1   37.80    3.50
  -6  -3   1  110.39    4.30
  -6   3   1   99.99    4.30
  -6  -3  -1  100.89    4.30
  -6   3  -1  105.49    4.40
  -6   4   1  252.67    5.20
  -6  -4  -1  242.48    5.10
  -6  -4   1  268.57    5.20
  -6   4  -1  262.47    5.50
  -6   5   1    1.10    3.30
  -6   5  -1   -0.40    3.40
  -6  -5   1    0.90    3.00
  -6  -5  -1    1.00    2.90
  -6   6   1   12.50    3.30
  -6  -6   1   11.10    3.80
  -6  -6  -1   11.60    3.40
  -6   6  -1   12.00    3.90
  -6   7  -1   18.20    3.80
  -6  -7  -1   20.20    3.60
  -6   7   1   17.00    3.40
  -6  -7   1   11.00    3.50
  -6  -8  -1    0.80    2.90
  -6   8   1    1.20    3.20
  -6   8  -1    0.70    3.40
  -6  -8   1    2.30    3.10
  -6  -9  -1   22.00    3.60
  -6   9   1   18.00    3.30
  -6   9  -1   20.50    3.60
  -6  -9   1   27.20    3.30
  -6 -10   1   17.50    3.20
  -6  10   1   11.20    3.40
  -6  10  -1   10.50    3.50
  -6 -10  -1   10.90    3.30
  -6 -11   1    3.60    3.00
  -6 -11  -1   -0.10    3.20
  -6  11   1   -1.10    3.70
  -6  11  -1   -1.70    3.90
  -6 -12   1  102.79    4.80
  -6 -12  -1   79.99    4.40
  -6  12   1   48.50    6.80
  -6 -13   1   71.19    3.80
  -6 -13  -1   71.29    4.20
  -6 -14  -1    1.00    3.60
  -6 -14   1    1.70    3.50
  -6 -15  -1    8.00    3.90
  -6 -15   1    7.60    3.60
  -6 -16  -1    5.80    3.90
  -6 -16   1   12.20    3.90
  -6 -17  -1    9.80    4.50
  -6 -17   1    9.70    4.50
  -6 -18   1   -0.10    4.70
  -6 -18  -1    0.00    4.70
  -6 -19   1    0.80    5.70
  -6 -19  -1    0.90    5.70
  -7  -1  -1  273.87    4.60
  -7   1   1  285.97    5.10
  -7  -1   1  296.97    5.30
  -7   1  -1  272.47    5.10
  -7   2   1  133.79    3.90
  -7  -2  -1  126.59    4.20
  -7  -2   1  137.09    4.10
  -7   2  -1  124.29    4.30
  -7   3   1    2.50    3.50
  -7   3  -1    3.30    3.50
  -7  -3  -1    1.40    2.70
  -7  -3   1    1.20    2.80
  -7  -4  -1    4.90    2.80
  -7  -4   1    6.30    3.00
  -7   4  -1    5.60    3.00
  -7   4   1    4.80    3.50
  -7   5  -1   27.60    3.50
  -7  -5   1   26.60    3.40
  -7  -5  -1   16.20    3.50
  -7   5   1   31.60    3.50
  -7   6   1  135.19    4.10
  -7   6  -1  144.49    4.40
  -7  -6  -1  120.69    4.10
  -7  -6   1  156.48    4.80
  -7   7   1   92.99    3.80
  -7   7  -1   91.39    4.30
  -7  -7  -1   85.59    4.10
  -7  -7   1   70.49    3.60
  -7   8  -1   20.70    3.20
  -7  -8  -1   31.00    3.70
  -7   8   1   22.50    3.40
  -7  -8   1   18.40    3.30
  -7   9   1    1.80    3.20
  -7  -9  -1    5.30    4.00
  -7   9  -1    1.60    3.20
  -7  -9   1    1.50    2.60
  -7 -10   1   72.69    3.60
  -7  10   1   83.59    4.80
  -7  10  -1   60.49    4.20
  -7 -10  -1   49.40    4.30
  -7 -11   1    3.40    3.10
  -7  11  -1    3.40    3.80
  -7  11   1    3.30    4.00
  -7 -11  -1   -0.50    3.30
  -7 -12  -1    1.00    3.60
  -7 -12   1   -0.90    3.40
  -7  12   1   -1.60    3.90
  -7  12  -1   -0.10    3.90
  -7 -13   1   12.50    3.70
  -7  13  -1   12.10    5.20
  -7  13   1    8.60    5.70
  -7 -13  -1   36.20    3.70
  -7 -14   1   11.90    3.50
  -7 -14  -1    8.80    3.80
  -7 -15   1   20.60    3.40
  -7 -15  -1   20.00    4.10
  -7 -16  -1    1.70    3.80
  -7 -16   1    0.00    3.40
  -7 -17  -1    3.90    4.10
  -7 -17   1    1.50    4.10
  -7 -18  -1    0.10    4.30
  -7 -18   1    0.50    4.20
  -7 -19   1    2.30    4.80
  -7 -19  -1    1.80    4.90
  -8   0   1    0.70    3.30
  -8   0  -1   -0.50    2.60
  -8   1  -1   55.69    3.10
  -8  -1  -1   49.60    3.10
  -8   1   1   54.29    3.10
  -8  -1   1   53.59    3.20
  -8   2   1   -0.10    3.20
  -8  -2   1    1.60    3.10
  -8   2  -1    2.70    2.70
  -8  -2  -1    1.70    2.50
  -8  -3  -1   12.20    3.10
  -8   3  -1   11.40    2.90
  -8  -3   1    7.90    2.70
  -8   3   1   10.70    2.90
  -8   4   1   -0.80    3.50
  -8  -4   1    2.80    3.30
  -8  -4  -1    2.00    3.10
  -8   4  -1   -0.40    3.40
  -8   5   1    6.60    3.40
  -8  -5   1    3.50    3.60
  -8   5  -1    4.70    3.10
  -8  -5  -1    3.20    3.30
  -8  -6   1    6.30    3.70
  -8  -6  -1    4.10    2.70
  -8   6   1    5.20    3.10
  -8   6  -1    4.00    3.20
  -8  -7   1   25.60    3.40
  -8   7  -1   24.10    3.30
  -8   7   1   29.00    3.20
  -8  -7  -1   18.60    3.50
  -8  -8  -1   86.49    3.40
  -8   8  -1  109.39    4.10
  -8   8   1   80.49    4.30
  -8  -8   1  205.38    5.00
  -8   9   1   60.89    3.90
  -8  -9  -1   47.00    3.30
  -8   9  -1   33.50    4.00
  -8  -9   1   76.09    3.90
  -8  10  -1   11.40    3.80
  -8 -10  -1   12.00    3.70
  -8  10   1   11.30    3.70
  -8 -10   1   31.30    3.30
  -8  11  -1   13.40    4.30
  -8 -11   1   16.50    3.10
  -8  11   1   10.10    4.00
  -8 -11  -1   13.80    3.30
  -8 -12   1    5.50    3.20
  -8  12   1    2.40    4.00
  -8 -12  -1    3.40    3.30
  -8  12  -1    1.20    4.00
  -8  13  -1   13.10    4.40
  -8 -13   1   14.10    3.50
  -8 -13  -1   18.70    3.70
  -8  13   1   11.00    4.50
  -8 -14   1   33.30    3.70
  -8  14   1   14.90    5.30
  -8 -14  -1   29.90    3.70
  -8  14  -1   18.10    5.40
  -8 -15   1   37.60    4.10
  -8 -15  -1   34.50    3.90
  -8 -16  -1    0.30    3.70
  -8 -17  -1   -1.20    3.90
  -8 -18  -1   10.50    4.30
  -8 -18   1    6.60    3.90
  -9   1  -1   19.50    2.70
  -9  -1  -1   18.10    3.00
  -9  -1   1   23.20    2.60
  -9   1   1   21.80    3.30
  -9   2  -1    4.40    3.30
  -9  -2  -1    3.30    2.80
  -9   2   1    0.90    3.30
  -9  -2   1    4.00    2.50
  -9   3  -1    4.20    3.10
  -9  -3  -1    2.50    2.50
  -9   3   1    2.00    3.30
  -9  -3   1   -0.40    3.20
  -9   4   1  146.09    3.80
  -9  -4   1  122.29    3.40
  -9   4  -1  135.09    4.00
  -9  -4  -1  129.09    3.40
  -9  -5  -1  225.48    4.30
  -9  -5   1  212.08    4.00
  -9   5   1  238.28    4.80
  -9   5  -1  231.48    4.70
  -9   6   1   67.89    3.70
  -9  -6  -1   51.79    2.90
  -9  -6   1   52.09    3.10
  -9   6  -1   66.29    3.70
  -9  -7   1   17.50    3.50
  -9   7   1   25.40    3.20
  -9  -7  -1   12.40    2.80
  -9   7  -1   28.00    3.40
  -9   8  -1  117.19    4.00
  -9  -8  -1   91.79    3.70
  -9  -8   1  123.39    4.30
  -9   8   1   96.09    3.70
  -9  -9  -1    0.00    3.40
  -9  -9   1    1.40    3.60
  -9   9  -1    0.90    3.50
  -9   9   1    0.50    2.90
  -9 -10  -1    8.90    3.60
  -9  10   1    7.40    3.70
  -9  10  -1    9.40    3.60
  -9 -10   1    5.50    3.30
  -9  11   1    9.30    3.50
  -9 -11  -1   10.00    3.40
  -9 -11   1   10.00    3.20
  -9  11  -1    5.60    3.60
  -9  12   1    3.40    3.80
  -9  12  -1    3.90    3.50
  -9 -12  -1    4.00    3.30
  -9 -12   1    1.90    3.00
  -9  13  -1    2.40    4.00
  -9 -13   1    1.30    3.50
  -9 -13  -1   -0.40    3.70
  -9  13   1    2.60    4.00
  -9  14   1   -1.60    3.90
  -9 -14   1   -1.90    3.40
  -9  14  -1   -0.60    4.00
  -9 -15   1   -1.50    3.10
  -9  15   1   -0.20    5.50
  -9  15  -1    0.30    5.60
  -9 -16  -1    3.40    3.30
  -9 -18   1   -0.30    3.70
 -10   0   1   -1.80    2.50
 -10   0  -1   -1.90    2.40
 -10   1   1   12.40    3.20
 -10  -1  -1   16.80    2.60
 -10   1  -1   13.20    2.90
 -10  -1   1   14.90    2.60
 -10   2  -1    7.60    2.60
 -10   2   1    8.10    2.60
 -10  -2  -1   10.30    2.50
 -10  -2   1    5.50    2.40
 -10  -3   1    8.20    2.70
 -10   3  -1   11.00    2.60
 -10   3   1   15.70    2.50
 -10  -3  -1   15.00    3.00
 -10   4   1   -0.70    3.00
 -10  -4  -1    2.70    2.50
 -10  -4   1    2.00    2.50
 -10   4  -1    3.20    2.50
 -10   5  -1    1.80    3.20
 -10  -5   1    1.20    2.90
 -10   5   1    1.70    2.60
 -10  -5  -1   -1.80    2.50
 -10  -6   1   90.09    3.80
 -10  -6  -1   49.20    2.90
 -10   6   1   52.19    3.60
 -10   6  -1   63.79    3.60
 -10   7   1   20.80    3.10
 -10   7  -1   22.20    3.40
 -10  -7   1   23.80    3.50
 -10  -7  -1   16.30    2.70
 -10  -8   1   18.80    3.00
 -10  -8  -1   22.50    3.40
 -10   8   1   22.00    3.20
 -10   8  -1   16.90    3.20
 -10   9  -1   49.40    3.90
 -10  -9   1  104.39    4.30
 -10   9   1   46.50    3.40
 -10  -9  -1   30.50    3.40
 -10 -10   1   12.30    3.90
 -10 -10  -1    5.60    2.70
 -10  10   1    6.40    3.10
 -10  10  -1    4.60    3.20
 -10  11  -1    1.70    3.20
 -10  11   1    1.80    3.20
 -10 -11  -1    0.90    2.70
 -10 -11   1    0.50    3.30
 -10  12  -1    1.50    3.50
 -10  12   1    5.30    3.80
 -10 -12   1    8.40    3.40
 -10 -12  -1    4.90    3.80
 -10 -13   1    9.10    3.30
 -10  13  -1    3.40    3.70
 -10  13   1    2.50    3.80
 -10 -14  -1   -2.20    3.70
 -10 -14   1    2.40    3.70
 -10  14   1    0.30    4.00
 -10  14  -1   -1.00    4.20
 -10  15  -1    1.60    4.50
 -10  15   1    0.90    4.70
 -10  16  -1    1.30    6.50
 -10  16   1    2.00    5.90
 -11   1  -1   10.70    2.30
 -11   1   1   12.10    2.60
 -11  -1   1    9.70    2.40
 -11  -1  -1   12.30    2.80
 -11   2  -1    1.20    2.90
 -11   2   1    0.00    2.50
 -11  -2   1    2.70    2.40
 -11  -2  -1    1.70    2.80
 -11  -3   1  122.59    3.30
 -11   3   1  140.79    3.50
 -11  -3  -1  129.99    3.20
 -11   3  -1  131.99    3.50
 -11   4   1    3.30    2.70
 -11  -4  -1    0.90    2.90
 -11  -4   1    3.00    3.10
 -11   4  -1    3.00    3.00
 -11  -5   1    7.60    2.60
 -11   5   1    9.30    3.20
 -11  -5  -1    8.10    2.50
 -11   5  -1   10.10    3.10
 -11   6   1   85.59    3.70
 -11  -6  -1   69.29    3.00
 -11  -6   1   75.29    3.10
 -11   6  -1   95.19    3.70
 -11  -7   1   20.60    2.80
 -11   7  -1   33.20    3.00
 -11  -7  -1   20.10    2.70
 -11   7   1   31.70    3.40
 -11   8  -1    4.80    3.10
 -11  -8   1    0.70    3.30
 -11   8   1    0.10    3.10
 -11  -8  -1    4.70    3.40
 -11  -9  -1    9.50    2.70
 -11   9  -1    8.90    3.20
 -11  -9   1   10.90    2.70
 -11   9   1    9.90    3.30
 -11  10  -1    7.80    3.50
 -11 -10   1    5.40    3.60
 -11 -10  -1    9.50    3.30
 -11  10   1    7.40    3.40
 -11 -11  -1   24.60    3.50
 -11  11   1    9.60    3.40
 -11  11  -1   20.50    3.80
 -11  12   1   19.10    3.40
 -11 -12  -1   24.40    3.90
 -11  12  -1   18.00    3.90
 -11  13   1   19.70    4.00
 -11  13  -1   17.70    3.80
 -11  14  -1    5.70    3.90
 -11 -14   1    6.40    3.20
 -11  14   1    5.90    4.30
 -11  15   1    1.10    4.50
 -11  15  -1    2.20    4.60
 -11 -15  -1    7.10    3.50
 -11  16   1    2.40    5.00
 -11  16  -1    2.50    4.90
 -12   0   1    2.90    2.40
 -12   0  -1    0.60    2.40
 -12   1  -1    3.20    2.40
 -12  -1  -1   -1.00    2.30
 -12   1   1    1.60    2.50
 -12  -1   1    5.20    2.40
 -12   2   1    4.60    2.50
 -12   2  -1    3.50    2.60
 -12  -2  -1    2.70    2.40
 -12  -2   1    3.40    2.40
 -12  -3  -1   33.70    2.60
 -12  -3   1   35.00    2.60
 -12   3  -1   34.60    3.30
 -12   3   1   38.90    3.20
 -12   4   1   10.10    3.10
 -12  -4  -1    8.60    2.90
 -12  -4   1   12.90    3.00
 -12   4  -1   10.10    3.20
 -12  -5   1    6.90    2.50
 -12   5  -1    9.00    3.10
 -12  -5  -1    4.60    2.90
 -12   5   1    7.80    2.70
 -12   6  -1    3.20    2.90
 -12   6   1    1.40    3.20
 -12  -6  -1    0.90    2.60
 -12  -6   1   -2.10    2.70
 -12  -7   1    7.30    2.70
 -12   7   1   -0.30    3.10
 -12   7  -1    1.50    2.50
 -12  -7  -1    4.80    2.70
 -12  -8   1    1.20    2.70
 -12   8  -1    2.20    3.10
 -12   8   1   -2.70    3.10
 -12   9   1    2.00    3.10
 -12  -9  -1   -2.90    2.60
 -12   9  -1   -1.40    3.10
 -12  10   1    0.00    3.70
 -12 -10   1    9.00    2.70
 -12  10  -1    9.20    3.70
 -12 -11  -1   15.30    2.70
 -12  11  -1   12.00    4.00
 -12  11   1   17.60    3.50
 -12  12  -1    1.60    3.50
 -12 -12  -1    5.80    2.90
 -12  13  -1    0.70    3.40
 -12  13   1   -0.70    3.40
 -12 -13  -1   -3.00    3.40
 -12  14  -1    3.60    4.00
 -12  14   1    3.70    4.00
 -12  15  -1    4.50    4.50
 -12  15   1    3.40    4.30
 -12 -15   1    4.50    3.20
 -12  16  -1    1.90    4.90
 -12  16   1    2.00    4.70
 -13  -1  -1   44.40    2.70
 -13   1  -1   47.10    3.20
 -13   1   1   43.70    2.70
 -13  -1   1   47.10    2.70
 -13   2   1    3.20    2.50
 -13   2  -1    0.60    2.50
 -13  -2   1    2.60    2.30
 -13  -2  -1   -0.40    2.30
 -13  -3  -1   10.20    3.00
 -13  -3   1   10.50    2.40
 -13   3  -1   11.90    2.70
 -13   3   1   13.60    3.30
 -13   4   1   36.10    3.40
 -13  -4   1   27.20    3.00
 -13   4  -1   38.40    2.80
 -13  -4  -1   33.60    2.60
 -13   5  -1   19.90    2.60
 -13   5   1   20.10    2.60
 -13  -5   1   16.10    2.60
 -13   6  -1    2.50    3.10
 -13   7  -1    0.70    2.40
 -13   7   1    0.80    2.50
 -13   8  -1   13.10    2.80
 -13  -9   1   28.80    2.80
 -13   9  -1   35.30    3.60
 -13   9   1   35.00    3.70
 -13  10  -1   -0.80    3.30
 -13  10   1    1.70    3.60
 -13 -10  -1    5.50    2.70
 -13 -11   1   43.60    3.10
 -13  14  -1    3.80    4.00
 -13  14   1    2.00    4.00
 -13  15   1   -0.60    4.20
 -13  15  -1   -1.30    4.20
 -14   0   1   -1.30    2.50
 -14  -1   1    5.00    2.30
 -14   1   1    8.60    2.50
 -14   1  -1    5.10    2.40
 -14  -2   1    0.20    2.40
 -14   2   1   -0.40    2.50
 -14   3  -1    0.10    2.60
 -14  -3   1    0.50    2.50
 -14  -3  -1    3.10    2.50
 -14  -4  -1   -4.10    2.50
 -14   4  -1    3.40    2.50
 -14  -5  -1    3.60    2.40
 -14   5  -1    0.10    2.50
 -14  -5   1    2.60    2.40
 -14   6  -1    1.70    3.00
 -14   6   1   -1.10    2.50
 -14   7  -1    1.50    2.40
 -14   8   1   19.10    3.30
 -14   8  -1   15.60    3.10
 -14 -10  -1    9.80    2.70
 -14 -10   1   12.50    2.80
 -14  11   1    3.90    3.80
 -14 -12   1   11.40    3.40
 -14  14  -1    3.30    4.00
 -14  15   1    0.00    4.10
 -15  -1   1   -0.90    2.50
 -15  -1  -1    0.00    2.50
 -15   2  -1   28.60    2.60
 -15  -2   1   24.40    2.90
 -15   2   1   24.30    2.60
 -15  -2  -1   30.50    2.90
 -15  -3  -1    3.50    2.60
 -15  -3   1    8.80    2.70
 -15  -5   1   85.79    3.10
 -15  -5  -1   86.89    3.00
 -15   6   1    3.10    2.40
 -15   7  -1    4.40    2.40
 -15   8  -1   -0.70    3.10
 -15   9  -1    5.40    3.10
 -15  10  -1   16.10    3.20
 -15  12   1    2.90    3.30
 -15  13  -1   -1.50    3.70
 -16   0   1    1.30    2.50
 -16  -1   1   -0.50    2.60
 -16   2  -1    3.50    2.60
 -16   2   1    8.30    2.60
 -16  -2   1    3.80    2.70
 -16  -3   1   23.40    2.90
 -16  10  -1    1.20    3.30
 -16  12   1    1.30    3.40
 -16  12  -1    4.80    3.60
 -17   1  -1   32.90    2.70
 -17   2   1    3.80    2.50
 -17   3  -1   17.70    2.70
 -17   6  -1   39.10    3.00
 -17  11  -1   -1.40    3.20
   0  -3   2   -0.20    4.60
   0   3  -2   -0.20    4.60
   0   4  -2   48.30    6.20
   0  -4   2   76.99    6.80
   0   5  -2   -0.90    5.10
   0  -5   2    0.20    5.40
   0   6  -2   14.70    6.30
   0  -8  -2    2.70    6.50
   0  -8  -2    1.60    6.10
  -1   3   2   43.40    5.60
   1   3  -2   22.90    4.10
  -1  -3   2   36.00    4.80
  -1  -4   2    0.10    4.10
   1  -4  -2   -0.20    5.00
   1   4  -2    0.30    4.20
  -1   5  -2    3.80    5.70
   1  -5  -2    3.30    5.40
   1   5  -2    3.20    4.60
  -1  -5   2    3.00    4.30
   1  -6  -2   10.20    6.90
  -1  -6   2   10.00    4.40
  -1   6  -2   12.30    8.00
   1   6  -2   11.30    4.60
  -1  -7   2    8.50    4.40
  -1  -8   2   21.20    4.70
  -1  -8  -2   21.90    5.50
  -1  -9   2   41.10    5.80
  -1  -9  -2   51.59    5.50
  -1 -10  -2    0.30    4.20
  -1 -10   2    0.10    4.40
  -1 -11  -2    5.50    5.30
  -2   2   2    7.50    3.90
  -2  -2   2    3.40    4.10
   2   2  -2    2.80    3.30
  -2  -3   2    2.60    3.90
  -2   3   2    4.70    4.20
   2   3  -2    2.20    3.90
  -2  -4   2   15.00    3.90
   2   4  -2   18.20    4.40
  -2   4   2   24.90    4.40
   2   5  -2   -0.40    3.50
  -2  -5   2    0.00    3.30
  -2   5   2   -1.10    4.80
   2  -5  -2    0.80    4.60
  -2   6   2   15.50    5.30
   2  -6  -2   13.70    5.30
  -2  -6   2   12.20    3.50
  -2   7  -2   68.49    8.50
  -2   7  -2   78.49    9.90
  -2  -7   2   81.99    4.60
  -2  -8   2   69.39    4.30
  -2  -8  -2   79.69    5.50
  -2  -9   2   12.60    3.70
  -2  -9  -2   13.00    4.00
  -2 -10   2    0.60    3.40
  -2 -10  -2   -0.10    3.20
  -2 -11   2    9.00    4.00
  -2 -11  -2   12.60    3.80
  -2 -12  -2    0.50    4.30
  -2 -12   2   13.80    5.00
  -2 -13   2   10.70    6.10
  -2 -13  -2    7.80    5.40
  -3   1   2   11.00    3.30
   3   1  -2   13.70    4.00
   3  -1  -2   11.30    3.30
  -3  -1   2    7.60    4.00
  -3   2   2    5.70    3.80
  -3  -2   2    5.50    3.90
   3  -2  -2    6.20    3.20
   3   2  -2    4.60    4.00
   3   3  -2   46.50    3.80
  -3  -3   2   58.49    3.80
  -3   3   2   79.99    4.70
  -3   4   2    2.20    3.50
  -3  -4   2    0.70    3.60
   3   4  -2    2.10    3.50
  -3  -5   2  161.08    4.90
  -3   5   2  156.78    5.80
   3   5  -2  140.19    5.40
  -3   6   2    6.60    4.10
  -3  -6   2    6.00    3.30
   3  -6  -2    4.50    4.40
  -3  -7   2    8.40    3.50
  -3   7  -2    5.20    5.00
  -3   7   2    7.90    4.30
  -3   8  -2  133.59    7.60
  -3  -8  -2  152.88    6.90
  -3  -8   2  154.38    4.90
  -3   8   2  132.69    9.90
  -3  -9   2   68.39    4.00
  -3  -9  -2   63.09    4.40
  -3 -10   2   15.20    3.50
  -3 -10  -2   14.30    3.70
  -3 -11   2   48.40    3.70
  -3 -11  -2   47.10    3.80
  -3 -12   2   14.10    3.70
  -3 -12  -2   16.10    3.80
  -3 -13   2    2.10    4.20
  -3 -13  -2    2.10    4.00
  -3 -14   2   20.60    4.90
  -3 -14  -2   16.00    4.70
  -3 -15   2    3.30    5.50
  -3 -15  -2    4.20    5.30
   4   0  -2    3.10    3.10
  -4   0   2    2.10    3.20
   4  -1  -2    5.10    3.20
   4   1  -2    5.70    3.50
  -4   1   2    5.30    3.20
  -4  -1   2    6.90    3.50
   4  -2  -2   -0.90    3.20
  -4  -2   2    2.10    3.90
   4   2  -2    0.70    3.20
  -4   2   2   -2.90    3.40
   4   3  -2   21.00    3.30
  -4   3   2   31.30    4.30
  -4  -3   2   26.80    3.30
   4  -3  -2   27.90    4.00
   4   4  -2   54.49    3.50
  -4  -4   2   66.09    3.70
  -4   4   2   96.29    4.70
  -4  -5   2   47.00    3.80
  -4   5   2   48.00    3.80
  -4   6   2    8.00    3.60
  -4  -6   2    4.20    3.40
  -4   7   2   17.70    3.90
  -4   7  -2   13.00    4.30
  -4  -7   2   13.40    3.30
  -4   8  -2    7.30    4.10
  -4   8   2    5.60    3.70
  -4  -8   2    6.60    3.20
  -4  -8  -2    8.30    3.80
  -4  -9   2   38.60    3.30
  -4   9   2   47.80    5.00
  -4   9  -2   37.40    4.80
  -4  -9  -2   39.20    4.50
  -4 -10   2    3.60    3.20
  -4  10  -2   -0.10    5.20
  -4 -10  -2   -2.30    3.50
  -4 -11   2   17.10    3.50
  -4 -11  -2   11.50    3.80
  -4 -12  -2    5.20    4.20
  -4 -12   2   14.50    4.00
  -4 -13  -2   43.00    4.40
  -4 -14   2   11.70    4.30
  -4 -14  -2    4.90    4.20
  -4 -15   2   29.10    4.60
  -4 -15  -2   24.30    4.70
  -4 -16   2   34.00    5.90
  -4 -16  -2   17.50    4.70
   5   1  -2    4.10    3.80
  -5   1   2    3.10    3.10
  -5  -1   2    3.10    3.20
   5  -1  -2    3.30    2.90
  -5   2   2   -0.70    3.60
   5   2  -2    1.80    3.90
  -5  -2   2    3.50    3.20
   5  -2  -2   -3.20    3.80
  -5  -3   2   48.30    3.50
  -5   3   2   71.79    4.00
   5   3  -2   46.90    3.60
   5  -3  -2   71.39    4.40
   5  -4  -2   18.80    3.70
  -5   4   2   19.10    3.50
  -5  -4   2   12.80    3.70
  -5  -5   2    0.70    3.30
  -5   5   2    2.60    3.20
  -5   6   2   26.10    3.70
  -5   6  -2   24.00    3.50
  -5  -6   2   14.70    3.40
  -5  -7  -2  259.37    5.40
  -5  -7   2  247.48    4.90
  -5   7  -2  223.08    5.90
  -5   7   2  272.97    5.80
  -5   8   2    0.40    3.50
  -5  -8  -2    2.00    3.60
  -5  -8   2    0.60    3.00
  -5   8  -2   -0.40    3.80
  -5  -9  -2   23.10    4.50
  -5   9   2   29.90    3.60
  -5  -9   2   20.30    3.50
  -5   9  -2   22.70    3.60
  -5 -10   2   43.40    3.70
  -5 -10  -2   54.29    3.60
  -5  10  -2   48.20    4.60
  -5  10   2   60.99    4.70
  -5  11  -2    2.80    5.00
  -5 -11   2   -0.10    3.10
  -5 -11  -2    2.60    3.70
  -5  11   2   -0.80    4.50
  -5 -12  -2    2.00    3.60
  -5 -12   2    0.50    3.50
  -5 -13   2   21.60    3.90
  -5 -13  -2   25.70    4.00
  -5 -14  -2    6.10    3.90
  -5 -14   2    5.70    3.50
  -5 -15   2    8.00    3.80
  -5 -15  -2    8.90    3.80
  -5 -16  -2   56.19    5.00
  -5 -17  -2    2.30    4.40
  -5 -17   2    4.40    4.80
  -5 -18  -2    0.30    5.60
  -5 -18   2    1.80    5.90
  -6   0   2    0.90    3.10
   6   0  -2    2.40    3.20
   6  -1  -2    7.10    3.20
  -6   1   2    7.50    3.10
  -6  -1   2    7.90    3.10
  -6  -2   2   13.90    3.20
  -6   2   2   18.80    3.00
  -6  -3   2  119.59    4.30
  -6   3   2  112.39    3.80
  -6  -4   2   25.00    3.80
  -6   4   2   49.60    3.20
  -6   5   2    8.30    3.30
  -6  -5   2    5.10    3.40
  -6   5  -2    5.80    3.70
  -6   6   2   33.30    3.40
  -6  -6  -2   35.50    3.80
  -6   6  -2   30.10    3.70
  -6  -6   2   28.10    3.10
  -6   7  -2   11.30    3.80
  -6   7   2    8.60    3.00
  -6  -7  -2    9.80    3.50
  -6  -7   2   10.10    3.30
  -6   8  -2   22.50    3.80
  -6  -8   2   18.00    3.20
  -6   8   2   19.00    3.00
  -6  -8  -2   17.90    3.20
  -6   9  -2    1.90    3.20
  -6  -9   2    2.20    3.10
  -6  -9  -2    1.20    3.50
  -6   9   2    2.40    3.30
  -6 -10   2    2.00    3.00
  -6 -10  -2    8.60    3.70
  -6  10  -2    0.20    3.50
  -6  10   2    1.70    3.60
  -6  11   2    6.40    3.80
  -6 -11  -2    6.90    3.30
  -6 -11   2    8.90    3.00
  -6  11  -2    8.20    4.20
  -6 -12   2   42.00    3.50
  -6 -12  -2   23.40    4.00
  -6  12   2   10.10    5.60
  -6 -13   2    8.80    3.80
  -6 -13  -2    7.60    3.90
  -6 -14  -2    4.00    3.70
  -6 -14   2    6.30    3.50
  -6 -15   2   12.40    3.80
  -6 -15  -2    8.30    3.70
  -6 -16  -2    3.90    4.00
  -6 -16   2    4.30    3.90
  -6 -17  -2    8.80    4.40
  -6 -17   2    7.10    4.50
  -6 -18   2    0.50    4.70
  -6 -18  -2   -0.20    4.80
  -6 -19   2   -1.20    5.60
  -6 -19  -2   -0.70    5.30
  -7  -1   2    2.50    2.90
  -7   1   2    3.30    2.80
  -7  -2   2   27.30    3.10
  -7   2   2   25.90    3.40
  -7   3   2   20.80    2.80
  -7  -3   2   20.00    2.90
  -7  -4   2   45.30    3.10
  -7   4  -2   45.60    3.80
  -7   4   2   44.40    3.10
  -7  -5   2   17.00    2.90
  -7  -5  -2   19.20    3.40
  -7   5   2   19.60    3.30
  -7   5  -2   25.10    3.50
  -7   6  -2   16.50    3.40
  -7  -6   2    6.60    3.00
  -7  -6  -2    9.30    2.90
  -7   6   2   12.60    3.10
  -7  -7   2   94.69    3.80
  -7   7  -2  117.39    4.20
  -7   7   2  111.79    3.90
  -7  -7  -2   85.79    3.80
  -7  -8  -2   37.10    3.50
  -7   8   2   48.30    3.60
  -7   8  -2   38.50    3.50
  -7  -8   2   45.20    3.50
  -7   9  -2   19.10    3.50
  -7   9   2   17.00    3.00
  -7  -9   2   16.90    3.20
  -7  -9  -2   16.00    3.40
  -7 -10  -2    9.20    3.80
  -7  10   2    9.60    4.10
  -7  10  -2   13.30    4.00
  -7 -10   2    9.90    3.20
  -7  11   2   14.10    4.20
  -7 -11  -2   15.80    3.60
  -7 -11   2   19.30    3.00
  -7  11  -2   14.90    4.30
  -7  12   2    9.00    4.00
  -7 -12  -2   14.20    3.20
  -7  12  -2   12.10    3.90
  -7 -12   2   12.40    3.10
  -7 -13   2   50.39    3.70
  -7  13  -2   40.30    5.90
  -7  13   2   25.20    5.90
  -7 -13  -2   41.00    4.60
  -7 -14  -2   10.80    3.40
  -7 -15  -2   13.40    3.70
  -7 -16   2    9.40    3.50
  -7 -16  -2    9.90    3.70
  -7 -17   2    1.10    4.10
  -7 -17  -2    0.90    3.80
  -7 -18   2   -0.80    4.30
  -7 -18  -2   -0.90    4.40
  -7 -19   2   -0.80    4.90
  -7 -19  -2    1.90    5.00
  -8   0   2    1.40    2.70
  -8  -1   2    2.20    2.80
  -8   1   2    5.10    2.70
  -8   2  -2   15.10    2.80
  -8   2   2   10.00    3.40
  -8  -2   2   15.20    2.90
  -8  -3  -2   10.30    2.60
  -8  -3   2    8.80    3.40
  -8   3  -2   11.50    2.80
  -8   3   2    8.30    2.90
  -8   4  -2   12.90    3.50
  -8  -4   2   12.70    3.20
  -8   4   2   15.90    3.40
  -8  -4  -2   10.80    2.70
  -8   5  -2   43.80    3.40
  -8  -5  -2   31.50    2.90
  -8   5   2   44.20    3.40
  -8  -5   2   42.50    3.30
  -8  -6  -2    2.30    3.30
  -8   6  -2    1.80    3.20
  -8  -6   2    0.00    2.90
  -8   6   2    1.20    2.80
  -8   7   2   12.90    3.00
  -8  -7   2    7.60    3.60
  -8   7  -2   11.60    3.20
  -8  -7  -2   10.50    2.70
  -8   8  -2    7.50    3.50
  -8  -8  -2    1.70    3.30
  -8   8   2    5.30    2.90
  -8  -8   2    5.00    2.70
  -8   9   2   32.30    3.30
  -8  -9   2   29.80    3.40
  -8  -9  -2   28.20    3.40
  -8   9  -2   37.00    3.90
  -8 -10   2   11.00    2.90
  -8  10   2   13.90    3.70
  -8  10  -2   10.60    3.80
  -8 -10  -2   12.20    3.20
  -8  11   2   10.60    3.70
  -8  11  -2    7.40    4.00
  -8 -11  -2   10.90    3.70
  -8 -11   2    9.30    3.10
  -8  12  -2    0.10    3.90
  -8  12   2   -0.80    3.80
  -8 -12  -2    3.40    3.40
  -8 -12   2   -0.30    3.10
  -8  13   2    8.70    4.20
  -8 -13   2   22.30    3.50
  -8  13  -2   10.30    4.50
  -8 -13  -2   15.80    3.60
  -8  14  -2   10.20    5.10
  -8  14   2   10.60    4.90
  -8 -14   2   27.70    3.50
  -8 -14  -2   15.00    3.50
  -8 -15  -2   -1.20    3.60
  -8 -15   2   12.60    4.00
  -8 -16  -2    2.00    3.60
  -8 -16   2    2.00    3.30
  -8 -17   2   15.10    4.00
  -8 -17  -2   17.90    3.80
  -8 -18   2    2.50    4.30
  -8 -18  -2   -1.80    4.10
  -9  -1   2    0.90    2.60
  -9   1   2   -0.20    2.60
  -9   1  -2   -2.30    3.10
  -9  -1  -2    1.80    2.40
  -9   2   2   36.20    3.00
  -9  -2   2   33.60    3.30
  -9  -2  -2   33.40    3.20
  -9   2  -2   34.00    2.80
  -9   3   2    6.00    2.80
  -9   3  -2    5.90    2.70
  -9  -3  -2    4.20    2.50
  -9  -3   2    5.60    3.20
  -9  -4   2    5.60    2.80
  -9   4   2    4.00    3.40
  -9  -4  -2    4.70    3.00
  -9   4  -2    7.10    2.80
  -9   5   2  132.19    3.60
  -9   5  -2  132.29    4.20
  -9  -5  -2  129.29    3.80
  -9  -5   2  122.89    3.80
  -9  -6  -2   -0.10    2.50
  -9   6   2   -2.20    3.20
  -9   6  -2   -1.00    3.30
  -9  -6   2    2.90    3.00
  -9  -7   2   23.80    3.80
  -9  -7  -2   20.10    3.30
  -9   7  -2   28.70    3.30
  -9   7   2   27.30    3.20
  -9   8  -2    1.60    3.20
  -9   8   2    1.30    2.90
  -9  -8   2   30.10    3.70
  -9  -8  -2    2.30    2.60
  -9   9  -2    6.80    3.60
  -9  -9  -2    3.00    3.20
  -9  -9   2    2.10    3.40
  -9   9   2    3.70    3.00
  -9  10   2   32.30    3.40
  -9 -10  -2   35.10    3.40
  -9 -10   2   19.20    3.40
  -9  10  -2   35.50    4.10
  -9 -11  -2   10.20    2.80
  -9  11  -2    2.50    3.90
  -9  11   2    5.40    3.50
  -9 -11   2    7.90    3.20
  -9  12   2    2.80    3.60
  -9 -12  -2   17.40    3.70
  -9 -12   2    4.20    3.00
  -9  12  -2    0.20    3.50
  -9 -13   2    4.80    3.50
  -9 -13  -2    4.30    3.60
  -9  13   2    0.90    4.00
  -9  13  -2    2.20    4.10
  -9  14  -2    2.10    4.20
  -9 -14   2    0.80    3.50
  -9  14   2    0.20    3.90
  -9 -15  -2    6.90    3.40
  -9  15   2    2.10    5.40
  -9  15  -2    2.30    5.60
  -9 -18   2    0.40    3.90
 -10   0   2   45.30    2.90
 -10   0  -2   45.60    2.80
 -10  -1   2    7.10    2.50
 -10   1  -2   15.40    3.00
 -10  -1  -2    9.20    2.60
 -10   1   2    2.40    3.20
 -10   2   2    0.70    2.60
 -10  -2  -2    0.80    2.60
 -10   2  -2    1.90    2.50
 -10  -2   2    1.20    2.70
 -10  -3  -2   24.10    3.00
 -10  -3   2   23.10    2.80
 -10   3  -2   26.60    3.00
 -10   3   2   27.40    2.70
 -10   4   2    8.10    3.20
 -10  -4  -2    7.00    2.80
 -10  -4   2   10.70    3.10
 -10   4  -2    9.60    2.60
 -10   5   2   10.90    2.70
 -10  -5  -2   13.00    2.50
 -10  -5   2   10.60    3.30
 -10   5  -2   14.00    3.10
 -10  -6  -2    2.80    2.60
 -10   6   2    1.40    2.60
 -10  -6   2    1.50    2.80
 -10   6  -2    1.40    2.70
 -10  -7   2   36.20    4.00
 -10  -7  -2   51.39    3.50
 -10   7  -2   45.40    3.30
 -10   7   2   45.60    3.50
 -10   8  -2    5.10    3.10
 -10  -8   2    2.40    3.80
 -10  -8  -2    2.20    2.70
 -10   8   2    3.60    2.70
 -10  -9   2   17.00    3.60
 -10  -9  -2   15.00    3.30
 -10   9  -2   15.60    3.20
 -10   9   2   12.70    3.00
 -10  10  -2   -1.40    3.60
 -10 -10  -2    1.20    3.10
 -10 -10   2    0.20    2.70
 -10  10   2    1.40    3.00
 -10 -11  -2    3.20    3.20
 -10 -11   2    1.30    2.50
 -10  11  -2    1.40    3.70
 -10  11   2   -0.30    3.50
 -10  12  -2    1.60    3.50
 -10  12   2    4.40    3.50
 -10  13   2    4.90    3.80
 -10  13  -2    3.30    3.70
 -10 -13   2    2.70    3.50
 -10  14  -2    1.10    4.10
 -10  14   2    0.10    4.00
 -10 -14   2    2.10    3.30
 -10 -14  -2   -4.40    3.80
 -10  15  -2    2.90    4.80
 -10  15   2    0.90    4.70
 -10  16   2    0.80    5.40
 -10  16  -2   -0.40    6.30
 -11   1  -2    1.00    2.30
 -11  -1   2   -2.10    2.90
 -11  -1  -2    2.00    2.40
 -11   1   2    0.40    2.50
 -11   2   2  126.59    3.40
 -11  -2   2  115.59    3.60
 -11  -2  -2  111.19    3.10
 -11   2  -2  110.79    3.50
 -11  -3   2    3.50    2.50
 -11  -3  -2    6.90    2.30
 -11   3   2    2.10    3.10
 -11   3  -2    7.60    3.20
 -11   4   2   90.79    3.20
 -11   4  -2   87.79    3.60
 -11  -4   2   73.09    3.00
 -11  -4  -2   83.89    3.00
 -11  -5  -2    5.30    2.90
 -11  -5   2    4.70    2.50
 -11   5   2    4.40    3.10
 -11   5  -2    1.20    2.90
 -11   6   2   34.00    2.90
 -11   6  -2   36.10    3.40
 -11  -6   2   34.60    3.50
 -11  -6  -2   34.30    3.30
 -11  -7  -2    9.10    3.10
 -11   7  -2   10.00    3.10
 -11  -7   2   12.00    2.80
 -11   7   2   11.30    3.00
 -11   8  -2   63.79    3.50
 -11  -8   2   59.99    3.20
 -11  -8  -2   43.50    2.90
 -11   8   2   61.69    3.40
 -11  -9   2   16.20    3.90
 -11  -9  -2    8.70    3.20
 -11   9   2   11.00    3.10
 -11   9  -2   10.10    3.40
 -11  10  -2   -0.50    3.50
 -11 -10  -2   43.10    3.30
 -11 -10   2    0.60    3.20
 -11  10   2   -1.70    3.30
 -11  11  -2   19.80    3.80
 -11 -11  -2   33.30    3.30
 -11  11   2   16.60    3.40
 -11  12  -2    7.90    4.00
 -11  12   2    9.60    3.40
 -11 -12  -2   12.70    3.50
 -11  13  -2   24.50    4.00
 -11  13   2   27.90    4.00
 -11  14  -2   -1.20    4.30
 -11 -14   2    5.00    3.20
 -11 -14  -2    5.60    3.80
 -11  14   2    0.60    4.00
 -11  15   2    1.60    4.40
 -11  15  -2    1.40    4.60
 -11  16  -2   -1.00    4.90
 -11  16   2   -0.70    5.00
 -12   0  -2   11.50    3.00
 -12   0   2   13.50    3.00
 -12   1  -2   -0.80    2.50
 -12  -1  -2   -2.50    2.80
 -12  -1   2    0.60    2.40
 -12   1   2   -0.30    2.30
 -12  -2  -2    1.30    2.80
 -12   2   2    3.00    3.10
 -12   2  -2    1.80    2.50
 -12  -2   2   -1.30    2.30
 -12  -3   2   11.10    3.00
 -12  -3  -2    5.60    2.40
 -12   3   2    7.10    3.00
 -12   3  -2    6.90    2.60
 -12   4  -2   11.90    2.60
 -12  -4  -2   11.10    2.80
 -12   4   2   11.80    3.10
 -12  -4   2   12.10    2.50
 -12   5   2    0.30    3.10
 -12  -5  -2   -1.40    2.50
 -12   5  -2    0.30    2.60
 -12  -5   2   -5.40    3.00
 -12   6  -2    6.60    3.20
 -12  -6  -2    7.60    2.70
 -12  -6   2    0.80    2.70
 -12   6   2    3.20    3.20
 -12   7  -2   17.40    3.10
 -12   7   2   18.40    3.10
 -12  -7   2   13.90    2.80
 -12  -7  -2   18.90    2.70
 -12  -8  -2   28.80    2.80
 -12   8  -2   31.60    3.30
 -12   8   2   33.20    3.40
 -12   9  -2    1.80    3.20
 -12   9   2    2.40    3.40
 -12  10  -2   29.60    3.80
 -12 -10   2   30.50    3.00
 -12 -10  -2   50.69    2.90
 -12  11  -2    1.50    3.80
 -12  12  -2   14.00    3.40
 -12 -12  -2    8.50    3.30
 -12  13  -2    7.20    3.70
 -12  13   2   11.90    3.40
 -12 -13  -2    9.80    3.40
 -12  14  -2    7.50    4.00
 -12  14   2    3.50    3.90
 -12  15  -2    1.50    4.30
 -12  15   2    1.40    4.10
 -12  16  -2   -1.20    4.70
 -12  16   2    1.40    4.90
 -13  -1   2    5.70    2.50
 -13   1   2    8.30    3.10
 -13   1  -2    9.40    2.50
 -13  -1  -2    6.90    2.50
 -13  -2  -2   74.19    2.80
 -13   2   2   76.89    3.10
 -13   2  -2   70.59    2.90
 -13  -2   2   74.49    2.80
 -13  -3  -2    1.70    2.40
 -13   3  -2   -1.00    3.20
 -13  -3   2    3.50    2.40
 -13   3   2    0.40    2.70
 -13  -4  -2   64.59    2.90
 -13   4   2   69.89    3.10
 -13  -4   2   73.69    3.30
 -13   4  -2   71.79    3.40
 -13   5  -2    5.40    3.10
 -13  -5   2    7.60    2.60
 -13   5   2   12.20    3.00
 -13  -6   2   36.70    2.80
 -13  -6  -2   33.20    2.70
 -13   6  -2   39.50    2.80
 -13  -7  -2    2.10    2.60
 -13  -7   2    3.00    2.70
 -13   7  -2    2.40    3.00
 -13   7   2    5.80    3.00
 -13  -8   2   30.00    2.80
 -13   8  -2   35.80    3.40
 -13  -9   2   40.10    3.00
 -13   9   2   37.80    3.50
 -13 -10  -2    7.10    2.70
 -13  10  -2   15.00    3.60
 -13  10   2   10.30    3.60
 -13 -11   2   11.30    3.10
 -13  12  -2    6.80    3.40
 -13  14   2   -1.70    4.00
 -13  14  -2   -0.50    3.90
 -13  15  -2    3.70    4.00
 -13  15   2    2.10    4.30
 -14   0   2    1.40    2.40
 -14   1   2   -0.70    3.00
 -14  -1   2    3.20    2.30
 -14   1  -2    3.30    2.50
 -14   2   2    5.60    2.50
 -14  -2   2    6.50    2.40
 -14   3  -2   -1.70    2.50
 -14  -3  -2   -2.00    2.40
 -14   3   2   -1.00    2.50
 -14  -3   2   -1.60    2.40
 -14   4  -2    5.20    2.50
 -14   4   2    5.30    2.60
 -14  -4  -2    3.80    2.40
 -14   5  -2    1.00    2.40
 -14  -5  -2    0.30    2.40
 -14   5   2    1.60    2.50
 -14  -5   2    4.30    2.40
 -14   6  -2   47.90    3.20
 -14   7  -2    2.20    2.70
 -14   7   2    5.20    2.50
 -14   8   2    1.20    3.00
 -14   8  -2    0.20    3.20
 -14 -10  -2    1.20    2.80
 -14 -10   2    0.60    2.80
 -14  10  -2    0.50    3.20
 -14 -13  -2    1.40    3.00
 -14  14   2    3.40    3.90
 -14  14  -2    4.70    3.60
 -15  -1  -2    3.10    2.60
 -15  -1   2    8.60    2.60
 -15   2   2   48.30    2.80
 -15  -2  -2   57.19    3.00
 -15   2  -2   50.69    2.70
 -15  -2   2   48.20    3.00
 -15  -3   2    2.10    2.70
 -15  -3  -2    4.20    2.70
 -15   4  -2   94.79    3.10
 -15  -5  -2   48.60    2.80
 -15  -5   2   40.60    2.80
 -15   6   2   49.20    3.00
 -15   7  -2    8.20    2.60
 -15  -8   2   11.30    2.60
 -15  10  -2    6.50    3.20
 -16   0   2   -0.60    2.50
 -16  -1   2    4.00    2.50
 -16  -2   2    3.20    2.70
 -16   2   2   -1.20    2.50
 -16  -3   2   -1.10    2.80
 -16  -4  -2    3.30    2.70
 -16   7  -2    1.80    3.00
 -16  -7   2    1.50    2.60
 -16   8  -2    3.20    3.10
 -16  10  -2    2.50    3.30
 -16  12  -2    3.00    3.60
 -17   2   2   24.70    2.70
 -17  -3   2   -0.50    2.70
 -17   4  -2   13.00    2.70
 -17   5  -2    2.10    2.70
 -17   6  -2   67.59    3.10
 -17  11  -2    0.10    3.30
   1   2  -3   73.59    4.50
  -1   2   3  111.49    5.60
  -1  -3   3   11.20    3.90
  -1   3   3   12.70    3.80
   1   3  -3   10.30    4.40
  -1  -4   3   26.70    5.10
   1   4  -3   30.20    4.10
   1   5  -3   17.90    4.10
   1  -5  -3   12.20    5.60
  -1   5  -3   29.00    5.30
  -1  -5   3   17.90    4.70
   1  -6  -3   49.80    7.20
  -1   6  -3   68.79    7.60
   1   6  -3   63.79    5.20
  -1  -6   3   87.79    5.00
   1   7  -3   50.19    4.80
   1  -7  -3   40.30    7.10
  -1  -7   3   48.10    5.20
  -1   7  -3   50.89    7.00
   1  -8  -3   45.20    7.50
  -1  -8   3   56.29    5.10
  -1  -9   3   80.59    6.20
  -1 -10   3   28.20    4.90
  -1 -10  -3   37.20    5.00
  -1 -11  -3    3.20    4.60
  -1 -12  -3    0.30    6.30
  -1 -12  -3    0.80    6.10
   2   1  -3   36.00    3.70
   2  -1  -3   38.10    3.80
  -2   1   3   39.20    4.40
  -2   2   3  713.23   10.10
   2   2  -3  522.35    9.20
  -2  -2   3  596.14    8.40
  -2   3   3    5.50    3.80
  -2  -3   3    3.60    3.20
   2   3  -3    4.40    3.10
   2   4  -3   44.30    4.20
  -2  -4   3   45.90    4.30
  -2   4   3   76.49    5.10
   2   5  -3    4.70    3.80
  -2   5   3    6.00    4.40
  -2  -5   3    3.30    3.40
   2  -5  -3    4.40    4.50
   2   6  -3    4.90    4.00
  -2  -6   3    3.90    3.80
  -2   6   3    4.60    4.50
   2  -6  -3    3.40    4.60
  -2  -7   3   16.50    4.00
  -2   7  -3   21.50    6.10
   2   7  -3   19.10    4.00
   2  -7  -3   23.20    5.10
   2  -8  -3   33.10    6.60
  -2  -8   3   39.10    3.90
  -2   8  -3   36.80    7.80
  -2  -9   3    7.50    3.50
  -2 -10   3   11.20    3.40
  -2 -10  -3   10.60    3.80
  -2 -11   3    4.40    3.80
  -2 -11  -3    5.70    3.70
  -2 -12  -3   14.30    4.40
  -2 -12   3   13.90    4.50
  -2 -13  -3    6.70    4.70
   3  -1  -3    1.40    3.10
  -3  -1   3   -0.90    3.10
  -3   1   3   -0.60    3.10
   3   1  -3    1.00    3.80
   3   2  -3   95.69    4.80
  -3   2   3   99.09    4.90
   3  -2  -3   94.69    4.30
  -3  -2   3   94.09    4.90
  -3  -3   3  646.64    7.70
  -3   3   3  822.62    9.70
   3   3  -3  535.95    7.60
  -3   4   3   10.90    3.60
  -3  -4   3    8.90    3.60
   3   4  -3    8.10    3.40
  -3   5   3  339.67    7.30
  -3  -5   3  168.18    6.50
   3   5  -3  230.38    5.50
  -3   6   3   96.29    5.20
   3   6  -3   57.69    4.00
   3  -6  -3   79.69    5.10
  -3  -6   3   79.69    4.00
  -3  -7   3    3.00    3.10
   3  -7  -3    1.10    4.30
  -3   7   3    1.00    4.10
  -3   8   3   45.00    6.40
  -3  -8   3   56.99    3.60
  -3  -9   3   26.30    3.80
  -3   9  -3   19.60    5.90
  -3   9  -3   19.90    6.20
  -3 -10  -3    5.60    3.70
  -3 -10   3    4.90    3.10
  -3 -11  -3    9.50    3.60
  -3 -11   3   19.40    3.90
  -3 -12  -3    0.30    3.70
  -3 -12   3    5.70    3.50
  -3 -13   3    8.90    4.10
  -3 -13  -3   10.60    4.10
  -3 -14   3    6.00    4.70
  -3 -14  -3   -0.90    4.30
  -3 -15  -3    6.90    4.90
   4   0  -3   24.40    4.80
  -4   0   3  -17.40    4.10
   4  -1  -3   29.70    3.70
  -4   1   3   34.20    3.60
   4   1  -3  -19.40    6.10
  -4  -1   3   64.99    3.80
  -4  -2   3   26.00    3.40
   4   2  -3   16.90    3.10
   4  -2  -3   22.60    3.20
  -4   2   3   25.60    3.20
   4  -3  -3  477.35    7.10
  -4   3   3  488.75    7.10
  -4  -3   3  480.45    6.60
   4   3  -3  469.55    6.60
  -4  -4   3  406.06    5.80
   4   4  -3  371.96    5.80
  -4   4   3  659.53    8.10
   4   5  -3    1.70    3.40
  -4   5   3    1.10    3.70
  -4  -5   3    1.70    3.20
  -4   6   3    7.50    3.50
  -4  -6   3    4.20    3.30
   4   6  -3    6.80    3.50
  -4   7   3    3.20    3.80
   4  -7  -3    1.50    3.70
  -4  -7   3    2.20    3.20
  -4   8   3  184.68    6.40
  -4  -8   3  120.89    4.10
  -4   8  -3  124.29    5.70
  -4   9  -3   11.70    4.20
  -4  -9  -3   15.40    3.60
  -4   9   3   11.40    4.10
  -4  -9   3   11.20    3.00
  -4 -10  -3   16.60    3.70
  -4  10  -3    8.80    4.80
  -4 -10   3    9.70    3.30
  -4 -11  -3    0.80    3.80
  -4 -11   3    4.60    3.40
  -4 -12   3   25.40    4.00
  -4 -12  -3   41.60    4.30
  -4 -13  -3   25.20    4.50
  -4 -14  -3   23.50    4.50
  -4 -14   3   20.30    4.20
  -4 -15  -3   11.50    4.20
  -4 -15   3   19.30    4.60
  -4 -16   3   10.80    4.60
  -4 -16  -3    3.90    4.30
  -4 -17  -3    1.60    6.30
  -5  -1   3   42.10    4.10
  -5   1   3   44.00    3.10
   5  -1  -3   42.90    3.20
   5   1  -3   42.30    3.60
   5   2  -3    4.40    3.20
  -5   2   3    3.60    3.30
   5  -2  -3    2.20    3.50
  -5  -2   3    3.40    3.10
  -5  -3   3  106.19    4.20
   5   3  -3  109.59    4.30
  -5   3   3  108.89    4.30
   5  -3  -3   96.59    4.30
   5   4  -3   23.80    3.80
   5  -4  -3   29.70    3.70
  -5  -4   3   26.70    3.70
  -5   4   3   28.40    3.50
  -5  -5   3    3.70    3.30
  -5   5   3    4.40    3.40
   5   5  -3    4.10    3.40
  -5  -6   3   46.10    3.10
  -5   6   3   74.59    4.20
  -5   7   3   93.19    4.20
  -5  -7   3   59.39    3.40
  -5   8  -3   22.60    4.30
  -5  -8   3   17.00    3.40
  -5   8   3   30.80    3.90
  -5   9   3   15.40    3.50
  -5  -9   3   13.40    3.10
  -5  -9  -3   17.10    3.40
  -5   9  -3   13.90    3.60
  -5 -10   3    4.60    2.80
  -5  10  -3    2.00    3.70
  -5 -10  -3    0.50    3.90
  -5  10   3    1.10    3.50
  -5 -11   3   23.00    3.20
  -5  11   3   16.20    4.70
  -5 -11  -3   25.20    3.70
  -5  11  -3   25.40    5.00
  -5 -12  -3    1.70    3.60
  -5 -12   3    3.00    3.40
  -5 -13   3   24.50    3.90
  -5 -13  -3   15.10    3.90
  -5 -14  -3    4.10    3.70
  -5 -14   3    6.60    3.80
  -5 -15  -3    2.80    3.80
  -5 -15   3    7.00    4.10
  -5 -16  -3    5.00    4.20
  -5 -17  -3    0.60    4.40
  -5 -17   3    1.50    4.70
  -5 -18  -3   -0.70    5.20
   6   0  -3    3.10    3.70
  -6   0   3   -0.10    3.00
  -6  -1   3   51.09    3.40
   6   1  -3   50.29    3.40
  -6   1   3   44.10    3.30
   6  -1  -3   44.50    3.40
  -6   2   3   39.00    3.60
  -6  -2   3   35.40    3.20
   6  -2  -3   33.70    3.80
   6   2  -3   28.30    3.20
  -6  -3   3  135.59    3.80
   6  -3  -3  152.98    4.70
  -6   3   3  159.48    4.10
   6   3  -3  104.29    3.60
  -6   4   3   34.50    3.50
  -6  -4   3   31.10    2.90
   6  -4  -3   33.70    3.60
   6   4  -3   29.40    3.60
  -6  -5   3   15.90    2.80
   6  -5  -3   14.70    3.60
  -6   5   3   17.90    3.40
  -6   6   3  228.18    4.90
  -6  -6   3  103.99    4.80
  -6  -7   3   21.00    3.10
  -6   7   3   30.70    3.30
  -6   7  -3   28.90    4.10
  -6  -8   3    1.70    3.00
  -6   8  -3    3.70    3.60
  -6  -8  -3   -0.90    3.40
  -6   8   3    0.90    3.10
  -6   9   3    6.70    3.40
  -6  -9   3    7.00    2.80
  -6   9  -3    7.70    3.70
  -6  -9  -3    7.20    3.30
  -6  10  -3   34.80    4.10
  -6 -10  -3   52.29    3.90
  -6 -10   3   25.00    3.20
  -6  10   3   37.10    4.10
  -6 -11   3    1.30    3.00
  -6  11   3    0.20    3.60
  -6  11  -3    1.00    3.80
  -6 -11  -3   -0.40    3.50
  -6 -12  -3   68.59    4.60
  -6 -12   3   48.50    3.70
  -6  12   3   28.30    6.20
  -6  12  -3   46.10    5.80
  -6 -13  -3   26.90    4.20
  -6 -13   3   19.50    3.70
  -6 -14  -3   -0.10    3.50
  -6 -14   3    3.60    3.50
  -6 -15  -3   -1.50    3.60
  -6 -15   3    4.20    3.60
  -6 -16  -3   16.50    3.70
  -6 -16   3   14.10    3.90
  -6 -17   3    4.70    4.30
  -6 -17  -3    1.60    4.30
  -6 -18  -3    1.80    4.50
  -6 -18   3    0.30    4.90
  -6 -19  -3    1.40    5.20
  -6 -19   3   -0.60    5.40
   7   1  -3   16.80    2.90
  -7  -1   3   19.10    2.90
  -7   1   3   19.00    2.70
   7  -1  -3   17.00    3.40
  -7   2   3  262.97    4.40
   7  -2  -3  253.67    4.70
  -7  -2   3  273.77    4.40
   7   2  -3  260.07    4.80
  -7   3   3    2.50    3.20
   7  -3  -3    2.10    3.30
  -7  -3   3    2.10    2.60
  -7  -4   3   55.49    3.00
  -7   4   3   59.39    3.70
  -7   5   3   20.80    3.10
  -7  -5   3   15.70    2.70
  -7   6   3  259.17    4.80
  -7  -6   3  179.58    4.00
  -7   6  -3  201.18    4.70
  -7   7   3   37.70    3.20
  -7   7  -3   43.20    4.00
  -7  -7   3   36.10    3.50
  -7  -7  -3   22.10    3.50
  -7   8   3    8.70    2.90
  -7   8  -3    6.30    3.20
  -7  -8   3    2.70    3.00
  -7  -8  -3    4.90    3.40
  -7   9   3    0.80    3.20
  -7   9  -3    1.80    3.50
  -7  -9   3    3.20    3.10
  -7  -9  -3    4.80    3.40
  -7 -10  -3   21.70    3.60
  -7  10  -3   24.90    4.00
  -7 -10   3   19.70    3.40
  -7  10   3   33.00    4.00
  -7 -11   3    3.80    3.00
  -7  11  -3    2.60    3.90
  -7 -11  -3   -0.60    3.60
  -7  11   3    1.80    3.80
  -7 -12  -3    0.60    4.10
  -7  12   3    0.60    3.80
  -7 -12   3    5.30    3.00
  -7  12  -3   -1.20    4.10
  -7  13   3   15.80    5.00
  -7  13  -3   22.20    5.50
  -7 -13   3   50.99    3.70
  -7 -13  -3   28.70    3.80
  -7 -14  -3   16.50    3.70
  -7 -15  -3    4.60    3.60
  -7 -16   3    3.90    3.50
  -7 -16  -3    3.60    3.50
  -7 -17  -3   -1.70    4.10
  -7 -17   3   -0.90    4.00
  -7 -18  -3    6.70    4.30
  -7 -18   3    3.20    4.30
  -7 -19  -3    4.00    4.80
  -7 -19   3    0.90    5.00
  -8   0   3   -1.10    2.50
  -8   1   3   -0.60    3.10
  -8  -1   3    1.40    3.10
  -8   2   3   49.10    3.40
  -8  -2   3   41.40    3.30
  -8  -3   3   81.69    3.10
  -8   3   3   76.79    3.20
  -8  -4   3  310.07    4.80
  -8   4   3  294.17    4.90
  -8  -5   3  115.99    4.50
  -8   5  -3  202.08    4.20
  -8   5   3  198.58    4.40
  -8   6   3  122.79    3.40
  -8  -6  -3   86.59    3.30
  -8   6  -3  119.29    4.00
  -8  -6   3   75.49    4.50
  -8  -7   3    1.50    3.10
  -8  -7  -3   -1.00    3.10
  -8   7   3   -1.40    3.20
  -8   7  -3    3.60    3.10
  -8  -8   3   40.90    3.50
  -8  -8  -3   49.80    4.30
  -8   8   3   78.49    3.60
  -8   8  -3   77.09    3.80
  -8  -9   3    5.10    2.60
  -8   9  -3    3.40    3.60
  -8   9   3    5.90    3.10
  -8  -9  -3   -0.90    3.50
  -8 -10  -3    6.70    2.60
  -8 -10   3    6.00    2.50
  -8  10  -3    4.70    3.70
  -8  10   3    2.10    3.60
  -8 -11   3   11.00    3.20
  -8  11   3   22.00    3.90
  -8  11  -3   18.50    3.80
  -8 -11  -3   13.50    3.70
  -8 -12  -3    4.30    3.60
  -8  12  -3    0.70    3.90
  -8  12   3    1.30    3.80
  -8 -12   3    2.50    3.10
  -8 -13   3   17.30    3.50
  -8 -13  -3   11.70    4.00
  -8  13  -3    8.20    4.20
  -8  13   3    7.00    4.20
  -8  14  -3    5.50    4.90
  -8 -14   3   11.00    3.40
  -8 -14  -3    8.80    3.50
  -8  14   3    2.40    4.40
  -8 -15  -3   11.60    3.80
  -8 -16   3   -2.20    3.10
  -8 -16  -3   -0.10    3.70
  -8 -17   3    7.60    4.30
  -8 -17  -3    0.40    3.90
  -8 -18   3   -0.10    4.10
  -8 -18  -3   -0.40    4.20
  -9   1   3   43.10    3.50
  -9  -1   3   47.50    3.40
  -9   2   3  255.07    4.20
  -9  -2   3  283.17    4.70
  -9   3   3   63.99    3.50
  -9  -3   3   66.99    3.40
  -9   4  -3   29.10    3.60
  -9  -4   3   18.80    3.60
  -9   4   3   27.60    2.80
  -9   5  -3    0.90    3.20
  -9   5   3    0.00    3.10
  -9  -5   3    1.20    2.70
  -9  -5  -3    0.00    3.10
  -9  -6   3   34.50    3.00
  -9   6   3   40.80    3.20
  -9  -6  -3   36.20    2.80
  -9   6  -3   41.40    3.40
  -9   7  -3    1.10    3.20
  -9  -7   3   -0.30    3.10
  -9  -7  -3    0.20    3.10
  -9   7   3    3.70    3.00
  -9  -8  -3   50.19    2.90
  -9   8  -3   66.19    3.80
  -9   8   3   68.29    3.40
  -9  -8   3   62.29    3.40
  -9  -9   3    5.10    3.10
  -9   9  -3   -0.10    3.40
  -9   9   3    4.60    3.20
  -9  -9  -3    5.60    2.50
  -9 -10   3    7.40    2.80
  -9  10   3   -1.20    3.50
  -9 -10  -3   -0.10    2.50
  -9  10  -3   -3.90    3.80
  -9 -11  -3   12.00    3.30
  -9  11   3   12.80    3.80
  -9  11  -3   14.20    3.90
  -9 -11   3   10.40    3.20
  -9  12   3   28.80    4.20
  -9 -12  -3   32.10    3.60
  -9  12  -3   22.40    4.20
  -9 -12   3   19.20    3.30
  -9  13   3    0.20    4.10
  -9 -13   3    0.70    3.50
  -9 -13  -3    6.20    4.00
  -9  13  -3    2.10    4.00
  -9 -14  -3    4.00    3.70
  -9  14  -3    1.60    4.10
  -9 -14   3    3.40    3.40
  -9  14   3    0.10    4.00
  -9  15  -3    4.40    5.50
  -9  15   3    2.90    5.10
  -9 -15  -3    4.20    3.30
  -9 -18   3   -1.10    4.10
  -9 -18  -3    4.20    4.10
 -10   0  -3   -1.40    2.50
 -10   0   3    1.70    2.60
 -10  -1   3   15.30    2.80
 -10  -1  -3   11.00    2.70
 -10   1   3   11.20    3.20
 -10   1  -3   14.30    3.10
 -10  -2  -3  146.39    3.80
 -10  -2   3  170.98    3.80
 -10   2   3  155.38    4.00
 -10   2  -3  141.49    3.40
 -10   3   3  126.59    3.80
 -10   3  -3  116.59    3.80
 -10  -3  -3  112.09    3.30
 -10  -3   3  133.79    3.60
 -10   4   3   66.89    3.40
 -10  -4  -3   60.69    3.30
 -10   4  -3   64.59    3.40
 -10  -4   3   71.29    3.70
 -10  -5  -3   -2.60    3.00
 -10   5   3    1.70    3.10
 -10  -5   3    1.40    2.90
 -10   5  -3    3.10    2.60
 -10  -6   3   69.89    3.70
 -10   6  -3   63.69    3.50
 -10   6   3   72.79    3.50
 -10  -6  -3   64.79    3.70
 -10   7  -3   16.80    3.20
 -10  -7  -3   20.60    2.80
 -10  -7   3   13.90    3.00
 -10   7   3   21.50    3.20
 -10  -8   3    3.20    3.50
 -10  -8  -3   -0.20    3.30
 -10   8   3   -0.80    2.90
 -10   8  -3    0.60    3.10
 -10   9   3    3.70    3.00
 -10  -9  -3    9.70    2.70
 -10   9  -3    4.30    3.40
 -10  -9   3    4.10    2.70
 -10  10   3    2.90    3.70
 -10  10  -3    5.10    3.30
 -10 -10  -3   15.60    2.70
 -10 -10   3    3.50    3.20
 -10  11  -3    3.70    3.70
 -10 -11   3   -0.10    3.10
 -10  11   3    5.00    3.50
 -10 -11  -3    5.70    2.60
 -10  12  -3    4.40    3.70
 -10  12   3    5.00    3.60
 -10  13   3    3.70    3.80
 -10  13  -3    4.30    4.00
 -10 -13   3    4.90    3.20
 -10 -14  -3   -3.00    4.10
 -10  14   3    3.20    4.30
 -10  14  -3   -0.20    4.00
 -10  15   3   -1.40    4.70
 -10  15  -3   -0.50    4.90
 -10  16  -3   -1.00    5.70
 -11   1   3   88.79    3.00
 -11  -1  -3   90.59    3.10
 -11   1  -3   93.39    3.40
 -11  -1   3   90.49    3.10
 -11   2  -3    1.60    2.30
 -11   2   3    2.00    3.00
 -11  -2   3    5.30    2.60
 -11  -2  -3    1.70    2.80
 -11  -3  -3    9.20    2.50
 -11  -3   3    7.60    3.20
 -11   3  -3   10.20    3.40
 -11   3   3    6.80    3.20
 -11  -4   3    1.10    2.60
 -11   4   3    4.80    2.70
 -11  -4  -3    4.40    2.90
 -11   4  -3    2.20    3.20
 -11  -5  -3    8.60    2.50
 -11  -5   3    5.40    3.20
 -11   5   3    8.80    3.00
 -11   5  -3    6.70    2.50
 -11   6   3    9.70    2.60
 -11  -6  -3    6.80    2.60
 -11  -6   3    9.60    3.30
 -11   6  -3    9.10    3.20
 -11   7   3   76.89    3.40
 -11   7  -3   80.89    3.60
 -11  -7  -3   42.10    3.40
 -11  -7   3   50.19    3.90
 -11  -8   3   17.10    3.90
 -11   8   3    1.40    2.90
 -11   8  -3   -0.70    3.10
 -11  -8  -3    3.00    3.00
 -11   9   3   -0.10    3.10
 -11  -9  -3    6.90    2.70
 -11  -9   3   -0.90    3.00
 -11   9  -3   -1.00    3.00
 -11  10   3  122.39    4.40
 -11  10  -3   76.29    4.90
 -11 -10  -3  103.99    3.30
 -11 -11   3   42.80    2.90
 -11  11  -3   41.60    3.80
 -11  11   3   47.80    4.00
 -11 -11  -3   47.30    3.20
 -11  12  -3    2.90    3.70
 -11 -12  -3    2.50    3.30
 -11 -12   3    2.10    2.70
 -11  12   3    1.70    3.50
 -11  13   3   -0.60    3.70
 -11  13  -3    1.80    3.80
 -11 -13  -3    0.00    3.20
 -11  14   3   -1.20    4.00
 -11  14  -3    0.60    3.80
 -11  15   3   -0.80    4.70
 -11  15  -3    2.50    4.60
 -11 -15   3    0.30    3.40
 -11  16  -3    0.90    4.90
 -11  16   3    1.40    5.00
 -12   0  -3   -0.20    2.40
 -12   0   3    2.90    2.50
 -12   1  -3    4.70    2.50
 -12  -1  -3    6.80    2.30
 -12  -1   3    2.30    2.50
 -12   1   3    6.40    3.10
 -12  -2  -3   15.30    2.50
 -12  -2   3   22.10    2.50
 -12   2  -3   20.30    2.60
 -12   2   3   17.60    2.70
 -12  -3   3   68.99    2.90
 -12   3   3   75.99    3.10
 -12   3  -3   70.69    3.50
 -12  -3  -3   69.29    3.30
 -12  -4   3   -1.20    2.90
 -12   4   3    1.60    2.60
 -12   4  -3    2.00    3.10
 -12  -4  -3   -1.40    2.40
 -12   5   3    4.10    3.20
 -12  -5  -3   -1.40    2.60
 -12  -5   3    0.20    2.50
 -12   5  -3    3.40    3.10
 -12   6  -3   10.60    2.60
 -12  -6   3    1.80    3.20
 -12   6   3    2.70    2.60
 -12  -7   3   61.39    3.80
 -12   7   3   49.10    3.00
 -12  -7  -3   49.10    3.00
 -12   7  -3   50.19    3.40
 -12  -8  -3   22.60    2.70
 -12   8  -3   19.40    3.20
 -12   8   3   19.10    3.20
 -12   9   3   -1.80    3.10
 -12  -9   3   -0.90    2.80
 -12   9  -3   -3.30    3.00
 -12 -10  -3   60.09    2.90
 -12  11  -3    4.50    4.00
 -12 -11   3   18.60    2.90
 -12  12   3   -0.70    3.40
 -12  12  -3   -1.20    3.60
 -12  13   3    0.20    3.50
 -12 -13  -3   -1.40    3.30
 -12  13  -3   -1.40    3.60
 -12 -14  -3    0.00    3.30
 -12  14   3    0.70    3.80
 -12  14  -3    3.10    4.00
 -12  15   3    0.00    4.20
 -12  15  -3   -0.60    4.20
 -12  16  -3   -0.60    4.70
 -12  16   3    1.20    5.00
 -13  -1  -3   43.30    2.70
 -13   1   3   50.49    2.90
 -13   1  -3   44.70    2.80
 -13  -1   3   48.20    3.10
 -13   2   3    0.50    3.10
 -13   2  -3    0.50    3.10
 -13  -2  -3    5.50    2.30
 -13  -2   3    2.90    2.70
 -13  -3   3   -1.00    3.00
 -13   3  -3   -3.20    2.60
 -13   3   3   -2.50    3.20
 -13  -3  -3   -1.00    2.40
 -13   4  -3    5.70    2.60
 -13  -4   3    4.80    2.50
 -13  -4  -3    0.60    2.80
 -13   4   3    5.70    3.20
 -13   5  -3    6.00    2.50
 -13   5   3    8.60    3.00
 -13  -5  -3    5.40    2.90
 -13   6  -3    1.30    3.10
 -13  -6  -3    2.70    2.50
 -13  -6   3    1.40    2.50
 -13  -7   3    3.70    2.60
 -13   7  -3    3.80    2.80
 -13  -7  -3    0.60    2.60
 -13   7   3    0.40    2.50
 -13   8  -3   15.20    2.80
 -13  -8  -3   13.70    2.60
 -13  -8   3   20.20    2.80
 -13   9   3   37.60    3.70
 -13  -9   3   47.60    3.20
 -13 -10  -3   -0.50    2.60
 -13  10   3   -2.80    3.20
 -13 -11   3   11.20    3.20
 -13  11  -3    7.70    3.80
 -13  12  -3   -1.00    3.50
 -13  13   3    0.70    3.70
 -13  14  -3    2.50    3.80
 -13  14   3   -0.40    4.00
 -13  15  -3   -0.70    4.30
 -13  15   3   -0.50    3.90
 -13 -15  -3    3.60    3.40
 -14   1   3   21.00    2.60
 -14   1  -3   17.90    2.60
 -14  -1   3   21.30    2.50
 -14  -2   3    5.90    2.50
 -14   2  -3    3.90    2.60
 -14  -3   3    4.10    2.50
 -14   3   3    5.40    2.60
 -14   3  -3    7.10    2.50
 -14  -3  -3    4.60    2.50
 -14  -4  -3   11.90    2.50
 -14   4   3    5.20    2.70
 -14   4  -3    8.90    3.00
 -14  -5  -3    7.00    2.50
 -14   5  -3   -0.40    2.80
 -14  -5   3    5.80    2.50
 -14   6  -3   14.30    2.60
 -14   8  -3    4.80    3.00
 -14  10   3    5.10    3.30
 -14 -10  -3    4.20    2.70
 -14  14   3    0.20    3.80
 -14  14  -3    2.40    4.30
 -15  -1  -3   67.09    2.80
 -15  -1   3   69.99    3.10
 -15   2   3    3.40    2.50
 -15  -2  -3    2.40    2.70
 -15   2  -3    1.20    2.50
 -15  -2   3    1.70    2.80
 -15   3   3   22.30    2.80
 -15  -3   3   22.80    2.70
 -15   4  -3    4.90    2.80
 -15   5  -3   21.80    3.10
 -15  -5   3   22.00    2.70
 -15   5   3   25.20    2.70
 -15   6   3   10.70    2.50
 -15  -6  -3    8.80    2.60
 -15   7  -3   -1.50    2.50
 -15  -7   3    1.40    2.50
 -15  -8   3    5.10    2.70
 -15  -9   3   29.00    3.00
 -16   0   3   -2.20    2.50
 -16   1  -3    4.00    2.50
 -16   2   3    8.80    2.60
 -16   3  -3    4.60    2.50
 -16  -3   3   -1.40    2.80
 -16  -4   3   -1.60    2.70
 -16  -6   3   -2.30    2.50
 -16   7  -3   -3.80    3.00
 -16   8  -3   -1.30    3.10
 -16  11  -3   -2.40    3.20
 -17  -4   3    3.00    2.60
 -17  10  -3    2.20    3.30
   0   2  -4  172.48    6.10
   0  -2   4  174.68    5.70
   0   3  -4    0.40    3.50
   0  -3   4    0.00    4.30
   0  -4   4 3132.89   22.30
   0   4  -4 3113.99   21.30
   0   5  -4    0.30    3.80
   0   6  -4    0.60    4.10
   0   7  -4    0.10    4.20
   0   8  -4   71.39    5.60
   0  -8  -4   44.30    6.70
   0  -9  -4   -0.40    4.00
   0   9  -4    0.30    4.90
   0 -10  -4   28.60    5.50
  -1  -2   4  378.86    7.30
  -1   2   4  399.36    8.10
   1   2  -4  342.87    7.30
  -1   3   4    6.80    4.30
  -1  -3   4    3.80    3.90
   1   3  -4    5.50    3.70
  -1  -4   4  379.46    7.40
   1   4  -4  230.18    6.30
  -1   5  -4   36.10    4.90
  -1  -5   4   28.50    4.40
   1   5  -4   27.20    4.30
  -1   6  -4   83.29    5.50
  -1  -6   4   60.89    4.90
   1   6  -4   53.59    4.40
   1  -6  -4   33.40    6.40
   1  -7  -4    8.80    4.70
   1   7  -4   11.80    4.00
  -1   7  -4   11.30    4.90
  -1  -7   4   12.50    4.00
  -1  -8   4    7.90    3.80
  -1   8  -4    6.60    5.20
   1  -8  -4    5.00    4.80
   1   8  -4    5.70    3.90
   1  -9  -4   36.50    6.10
  -1   9  -4   38.90    7.60
  -1 -10   4   28.60    5.10
  -1 -11  -4   -0.30    4.40
  -1 -12  -4   38.00    5.70
  -1 -12  -4   38.20    5.40
  -2   0   4 1246.48   11.40
   2   0  -4 1228.88   11.70
   2   1  -4  679.23    8.90
  -2   1   4  684.73    8.80
  -2  -1   4  649.83    8.40
   2  -1  -4  654.73    8.90
  -2  -2   4 7366.16   26.10
   2   2  -4 9043.10   29.20
   2  -2  -4 9999.00   33.90
   2   3  -4    0.90    3.10
  -2   3   4    2.80    3.70
  -2  -3   4    1.70    3.10
  -2   4   4 1294.07   13.30
  -2  -4   4 1084.49   10.40
   2   4  -4  738.03    8.90
  -2  -5   4  219.38    5.50
   2   5  -4  223.58    5.60
  -2   5   4  308.27    8.10
   2  -6  -4    2.30    4.10
  -2  -6   4    2.80    3.20
   2   6  -4    1.70    3.80
  -2   6   4    3.70    4.10
   2   7  -4   34.50    3.90
   2  -7  -4   28.10    5.00
  -2   7  -4   31.80    5.30
  -2  -7   4   43.70    3.90
  -2   8  -4    2.40    4.70
   2   8  -4    1.60    3.80
   2  -8  -4    1.90    4.60
  -2  -8   4    2.90    3.30
   2  -9  -4    1.20    4.70
  -2   9  -4    2.50    5.30
  -2  -9   4    0.80    3.20
  -2 -11  -4    0.20    3.80
  -2 -11   4    1.70    3.40
  -2 -12   4   30.80    5.00
  -2 -12  -4   31.40    4.80
  -2 -13  -4    0.20    4.50
  -2 -14  -4   14.80    6.00
  -2 -14  -4   18.40    5.90
   3   1  -4  112.39    4.30
  -3   1   4  153.88    5.10
  -3  -1   4  138.69    4.60
   3  -1  -4  141.79    4.70
  -3   2   4 1055.19    9.90
  -3  -2   4 1070.29    9.40
   3   2  -4  690.53    7.90
   3  -2  -4  990.40   10.30
   3   3  -4   43.40    4.00
  -3  -3   4   44.50    3.30
  -3   3   4   53.79    4.10
  -3  -4   4   10.20    3.30
   3   4  -4   10.00    3.60
  -3   4   4   12.50    3.50
  -3  -5   4   83.99    3.90
   3   5  -4   92.69    4.40
  -3   5   4  113.39    5.10
   3   6  -4   69.19    4.00
  -3  -6   4   81.59    4.00
  -3   6   4  100.59    5.00
   3   7  -4   10.00    3.70
  -3  -7   4    9.20    3.30
  -3   7   4    8.70    4.00
   3  -7  -4    8.60    4.00
  -3  -8   4   88.59    4.20
   3   8  -4   71.89    4.20
   3  -8  -4   70.99    5.50
  -3   8   4   56.19    6.10
   3  -9  -4    8.80    4.50
  -3  -9   4    8.90    3.60
  -3   9  -4    9.30    4.60
  -3  10  -4    7.70    6.70
  -3  10  -4    7.10    6.40
  -3 -10   4    7.30    3.20
  -3 -11  -4    2.70    4.20
  -3 -11   4    4.20    3.50
  -3 -12  -4    0.20    4.20
  -3 -12   4    3.50    3.70
  -3 -13  -4    8.30    4.30
  -3 -13   4    8.00    4.00
  -3 -14  -4    2.10    4.20
  -3 -14   4   -0.10    4.30
  -3 -15  -4    1.90    4.50
  -4   0   4 6699.93   21.10
   4   0  -4 6464.05   21.40
   4  -1  -4   75.79    3.90
   4   1  -4   78.29    4.40
  -4   1   4   78.89    4.40
  -4  -1   4   65.89    4.40
  -4   2   4  294.77    5.70
   4  -2  -4  284.17    5.50
   4   2  -4  241.48    4.90
  -4  -2   4  263.77    5.00
   4  -3  -4    1.90    3.20
  -4   3   4    1.10    3.20
   4   3  -4    0.10    2.80
  -4  -3   4    0.00    2.90
  -4   4   4  340.87    6.00
   4   4  -4  247.98    5.20
  -4  -4   4  247.18    4.80
   4   5  -4   15.20    2.80
  -4  -5   4   13.10    2.80
  -4   5   4   23.20    3.40
   4   6  -4   19.00    3.60
  -4   6   4   33.50    3.80
  -4  -6   4   25.30    3.50
  -4   7   4   39.20    3.90
  -4  -7   4   34.80    3.40
   4   7  -4   25.40    3.50
   4  -7  -4   25.50    4.20
  -4   8   4  109.89    5.50
  -4  -8   4   90.99    3.80
   4  -8  -4   90.89    5.50
  -4  -9   4    2.80    3.00
  -4   9   4    1.30    3.50
  -4 -10   4   51.39    3.70
  -4  10  -4   53.99    5.20
  -4  11  -4   15.90    6.80
  -4 -11  -4   25.60    4.50
  -4 -11   4   13.50    3.60
  -4  11  -4   12.00    7.00
  -4 -12   4   39.20    4.10
  -4 -12  -4   26.70    4.40
  -4 -13  -4   25.20    4.40
  -4 -14   4   31.40    4.70
  -4 -14  -4   35.80    4.80
  -4 -15  -4    6.90    4.10
  -4 -15   4   13.90    4.30
  -4 -16   4    5.10    4.30
  -4 -16  -4    4.70    4.30
  -4 -17  -4    0.40    5.40
   5   1  -4    7.40    3.20
  -5  -1   4   10.20    3.20
  -5   1   4    8.70    3.40
   5  -1  -4    9.30    2.90
  -5   2   4   39.40    3.30
   5  -2  -4   47.70    3.20
   5   2  -4   30.10    3.90
  -5  -2   4   30.90    3.90
   5   3  -4  299.07    4.90
  -5  -3   4  473.25    5.80
  -5   3   4  483.15    6.40
   5  -3  -4  459.25    6.40
   5  -4  -4  672.33    7.60
  -5   4   4  671.43    7.10
  -5  -4   4  698.83    7.00
   5   4  -4  659.43    6.90
  -5   5   4   31.10    3.60
  -5  -5   4   31.50    3.40
   5   5  -4   17.70    2.90
   5   6  -4   32.40    3.60
  -5  -6   4   34.50    3.30
  -5   6   4   46.10    3.50
   5   7  -4    7.20    3.30
  -5  -7   4   11.50    3.10
  -5   7   4   11.00    3.50
  -5  -8   4  143.69    4.10
  -5   8   4  186.08    5.30
   5  -8  -4  158.58    5.20
  -5  -9   4    4.70    3.20
  -5   9   4    2.90    3.00
  -5   9  -4    3.20    3.60
  -5  10   4   14.80    4.00
  -5  10  -4   19.50    4.10
  -5 -10  -4   23.00    3.40
  -5 -10   4   21.90    2.90
  -5 -11   4   11.00    3.50
  -5  11  -4    4.40    4.40
  -5 -11  -4    6.40    4.10
  -5  11   4    2.50    4.10
  -5 -12   4    2.80    3.40
  -5 -12  -4    2.00    4.00
  -5  12  -4   -0.60    6.60
  -5  12  -4    0.10    6.80
  -5 -13   4    8.10    3.60
  -5 -13  -4   -0.10    4.00
  -5 -14  -4    1.40    3.90
  -5 -14   4    3.70    3.70
  -5 -15  -4    2.30    3.80
  -5 -15   4    1.90    3.90
  -5 -16   4    4.00    3.80
  -5 -16  -4   -1.00    3.80
  -5 -17   4    0.00    4.70
  -5 -17  -4    2.50    4.30
  -5 -18  -4    0.40    5.00
  -6   0   4  612.74    6.20
   6   0  -4  573.34    6.40
  -6  -1   4   82.19    4.10
   6   1  -4   59.19    4.40
  -6   1   4   85.49    3.50
   6  -1  -4   77.69    3.60
  -6  -2   4    4.90    3.40
   6   2  -4    8.80    3.50
   6  -2  -4    5.90    2.90
  -6   2   4    9.60    2.90
  -6   3   4   24.70    3.00
   6   3  -4   14.60    2.80
   6  -3  -4   19.90    3.50
  -6  -3   4   28.80    3.40
  -6  -4   4    7.20    2.70
   6   4  -4    7.20    2.80
   6  -4  -4   12.10    3.30
  -6   4   4   11.70    3.20
  -6   5   4   -0.50    3.10
   6  -5  -4    0.10    3.30
   6   5  -4    0.50    2.70
  -6  -5   4    0.10    2.70
   6   6  -4  389.36    5.60
  -6   6   4  625.14    6.90
  -6  -6   4  600.24    6.40
  -6  -7   4    1.00    2.50
  -6   7   4    0.20    2.90
  -6   8   4   53.89    3.40
  -6  -8   4   37.80    3.30
  -6  -9   4   13.90    3.10
  -6   9  -4   15.00    3.40
  -6   9   4   17.50    3.40
  -6 -10  -4   79.89    3.90
  -6  10   4   71.49    4.70
  -6  10  -4   59.79    5.00
  -6 -10   4   55.49    3.90
  -6  11   4    0.50    3.60
  -6 -11   4   -5.50    3.30
  -6 -11  -4   -0.10    3.40
  -6  11  -4    0.00    3.90
  -6 -12  -4  109.39    4.70
  -6  12  -4   81.79    6.10
  -6  12   4   59.29    6.00
  -6 -12   4  105.99    4.60
  -6 -13  -4   16.40    4.00
  -6 -13   4   22.00    3.80
  -6  13  -4   16.10    7.60
  -6 -14  -4    3.00    3.80
  -6 -14   4    1.50    3.50
  -6 -15  -4    1.10    3.70
  -6 -15   4    1.90    3.50
  -6 -16  -4    0.90    3.90
  -6 -16   4   13.70    3.90
  -6 -17   4    3.20    4.50
  -6 -17  -4    2.00    4.00
  -6 -18   4    0.80    4.50
  -6 -18  -4   -0.20    4.50
  -6 -19  -4    0.00    4.90
  -6 -19   4   -0.20    5.20
  -7  -1   4   -2.40    2.70
   7   1  -4   -2.20    2.70
  -7   1   4    0.90    2.50
   7  -1  -4    1.50    3.20
  -7   2   4    4.30    3.20
   7  -2  -4    2.00    2.70
   7   2  -4    3.30    2.50
  -7  -2   4    3.40    2.50
  -7   3   4   35.50    2.80
   7   3  -4   25.80    2.70
   7  -3  -4   32.70    3.40
  -7  -3   4   27.40    2.70
  -7  -4   4   17.30    2.70
   7  -4  -4   15.60    3.60
  -7   4   4   20.40    3.20
   7   4  -4   13.10    2.70
  -7   5   4  118.09    4.00
   7   5  -4  122.59    4.00
  -7  -5   4  117.89    3.90
   7  -5  -4  115.99    4.00
  -7  -6   4    0.40    2.70
  -7   6   4   -0.10    3.00
   7  -6  -4    1.40    3.20
  -7   7   4   27.60    3.10
  -7  -7   4   15.90    2.70
  -7   8  -4   12.50    3.20
  -7  -8   4   12.70    3.10
  -7   8   4   16.90    2.90
  -7  -9   4   28.60    3.20
  -7   9  -4   24.90    3.20
  -7  -9  -4   20.90    3.60
  -7   9   4   31.50    3.50
  -7  10  -4    4.30    4.10
  -7 -10   4   11.00    3.00
  -7 -10  -4    4.10    3.20
  -7  10   4    3.30    3.50
  -7 -11  -4   -0.40    3.30
  -7  11   4   -0.20    3.80
  -7 -11   4   -3.00    2.90
  -7  11  -4   -0.70    4.00
  -7  12  -4    0.10    4.10
  -7 -12  -4    0.90    3.50
  -7 -12   4   -2.30    3.30
  -7  12   4    3.30    4.10
  -7  13  -4    1.80    4.70
  -7 -13   4   24.10    3.70
  -7 -13  -4    4.70    4.30
  -7  13   4    1.60    4.30
  -7 -14   4    8.60    3.40
  -7 -14  -4    3.20    3.80
  -7 -15  -4   -4.10    3.90
  -7 -15   4    5.90    3.50
  -7 -16  -4    3.50    3.70
  -7 -16   4    2.10    3.40
  -7 -17   4    0.10    4.00
  -7 -17  -4    1.00    4.00
  -7 -18   4    2.30    4.10
  -7 -18  -4   -0.70    4.10
  -7 -19   4    1.20    4.90
  -8   0   4    1.30    2.80
   8   0  -4    0.40    2.50
   8  -1  -4   27.50    2.80
  -8   1   4   28.50    3.10
   8   1  -4   28.30    2.80
  -8  -1   4   30.30    2.70
   8   2  -4   34.30    2.80
   8  -2  -4   39.00    3.00
  -8  -2   4   41.30    2.80
  -8   2   4   43.00    2.90
   8   3  -4    0.50    3.10
  -8  -3   4    3.10    3.00
   8  -3  -4    3.30    3.10
  -8   3   4    3.10    3.10
   8  -4  -4  213.68    4.80
  -8  -4   4  203.18    3.90
  -8   4   4  231.48    4.40
  -8   5   4   27.10    3.20
  -8  -5   4   21.20    2.80
  -8   6   4    0.90    2.80
  -8  -6   4    4.20    3.00
  -8   7  -4   60.39    3.70
  -8  -7   4   48.80    2.80
  -8   7   4   47.70    3.50
  -8   8  -4  208.48    4.80
  -8   8   4  230.68    4.70
  -8  -8   4  227.88    4.50
  -8  -8  -4  213.38    4.60
  -8  -9  -4   20.40    3.60
  -8   9  -4   23.10    3.90
  -8   9   4   22.90    3.30
  -8  -9   4   13.80    3.00
  -8 -10   4   21.90    2.90
  -8  10   4   29.50    3.90
  -8  10  -4   35.50    4.20
  -8 -10  -4   29.60    2.80
  -8  11   4   17.70    4.00
  -8  11  -4   25.50    4.10
  -8 -11  -4   31.90    3.50
  -8 -11   4   22.20    3.30
  -8  12   4   16.70    4.10
  -8  12  -4   21.50    4.00
  -8 -12  -4   17.50    3.80
  -8 -12   4   20.80    3.20
  -8  13   4    0.90    3.90
  -8  13  -4    2.60    4.20
  -8 -13  -4   -0.70    4.00
  -8 -13   4    7.50    3.50
  -8 -14  -4   13.30    3.70
  -8  14   4   10.20    4.40
  -8 -14   4   15.50    3.40
  -8  14  -4    8.50    4.70
  -8 -15  -4   12.70    3.70
  -8 -16  -4   -1.20    3.80
  -8 -17   4    0.40    3.80
  -8 -17  -4    1.10    4.00
  -8 -18   4    0.00    3.80
  -8 -18  -4    0.50    4.20
  -9  -1   4  138.79    3.20
  -9   1   4  141.69    3.40
  -9  -2   4  140.59    3.30
  -9   2   4  134.19    3.70
  -9  -3   4   48.80    2.80
  -9   3   4   48.60    2.80
  -9  -4   4   94.79    3.60
  -9   4   4   90.19    3.70
  -9  -5   4   21.50    2.70
  -9   5   4   29.10    3.10
  -9  -6   4   -0.60    2.50
  -9   6   4   -0.30    3.10
  -9   6  -4    2.30    3.20
  -9   7  -4    2.00    3.20
  -9   7   4    2.30    2.80
  -9  -7  -4    3.90    3.20
  -9  -7   4   -0.90    3.00
  -9   8  -4   14.40    3.20
  -9   8   4   12.00    2.80
  -9  -8  -4   10.60    3.20
  -9  -8   4   24.70    3.30
  -9  -9   4    1.20    2.80
  -9  -9  -4    3.50    2.80
  -9   9  -4   -1.10    3.10
  -9   9   4   -0.20    2.90
  -9 -10  -4   -2.40    3.00
  -9  10  -4    0.50    3.70
  -9  10   4    2.80    2.90
  -9 -10   4    3.30    2.40
  -9 -11  -4    4.60    3.30
  -9 -11   4    4.30    2.50
  -9  11  -4   -1.00    3.70
  -9  11   4   -0.70    3.40
  -9  12  -4    1.20    4.00
  -9  12   4    0.40    3.60
  -9 -12  -4    2.30    3.20
  -9  13   4    2.90    4.70
  -9 -13   4    8.60    3.50
  -9 -13  -4   28.10    4.60
  -9  13  -4    5.70    4.00
  -9 -14  -4   -1.00    3.90
  -9  14   4    0.60    3.90
  -9  14  -4   -0.60    3.80
  -9  15   4    0.70    4.90
  -9 -15  -4    2.00    4.00
  -9  15  -4    1.20    5.20
  -9 -16  -4    0.40    3.40
  -9 -17  -4    1.30    3.80
  -9 -17   4    0.80    3.80
  -9 -18   4    2.90    4.00
  -9 -18  -4    1.40    3.80
 -10   0   4  106.69    3.30
 -10  -1   4    1.20    2.70
 -10   1   4    2.20    2.90
 -10  -2   4  262.67    4.30
 -10   2   4  244.78    4.40
 -10  -3   4    1.90    2.70
 -10   3   4    0.40    2.90
 -10  -4   4   63.79    3.70
 -10   4   4   77.39    3.00
 -10  -5   4  129.29    3.50
 -10   5   4  138.59    3.90
 -10   5  -4  141.29    3.70
 -10   6  -4   89.29    3.80
 -10  -6  -4   79.69    3.20
 -10   6   4   86.89    3.60
 -10  -6   4   90.09    3.30
 -10   7   4   29.00    3.20
 -10  -7   4   31.30    3.00
 -10  -7  -4   22.60    3.30
 -10   7  -4   36.30    3.40
 -10  -8  -4    1.80    2.70
 -10   8   4    0.50    2.80
 -10  -8   4    6.00    2.70
 -10   8  -4    1.20    3.20
 -10  -9  -4   39.30    3.40
 -10   9  -4   47.10    3.60
 -10   9   4   45.00    3.40
 -10  -9   4   44.80    3.40
 -10 -10  -4   51.29    3.70
 -10  10  -4   63.09    4.20
 -10  10   4   53.29    3.60
 -10 -11   4    1.40    2.50
 -10  11   4   -0.50    3.40
 -10  11  -4    0.90    3.60
 -10 -11  -4    1.90    3.20
 -10  12  -4   -2.20    3.80
 -10  12   4    2.30    3.50
 -10  13   4    8.30    3.70
 -10  13  -4    4.00    4.10
 -10  14  -4    1.80    4.30
 -10 -14  -4    4.70    4.00
 -10  14   4    2.00    4.10
 -10  15   4    0.60    4.50
 -10  15  -4   -0.40    4.40
 -10  16  -4    0.80    5.50
 -10 -17  -4    1.00    3.80
 -11  -1   4   67.59    2.90
 -11   1  -4   61.89    3.00
 -11   1   4   69.29    3.00
 -11  -2   4   21.80    2.80
 -11   2   4   24.60    3.30
 -11  -2  -4   21.10    2.50
 -11   2  -4   20.90    2.60
 -11  -3   4    7.50    2.70
 -11   3  -4    3.60    2.60
 -11  -3  -4    1.60    2.50
 -11   3   4    3.20    3.30
 -11  -4  -4    5.50    2.60
 -11   4  -4    7.40    2.60
 -11  -4   4    9.40    3.50
 -11   4   4    4.90    3.10
 -11  -5  -4    6.00    2.90
 -11   5   4    9.40    2.60
 -11  -5   4    9.20    3.10
 -11   5  -4    6.90    2.60
 -11   6   4    2.70    2.50
 -11  -6   4    4.00    3.30
 -11   6  -4    3.90    3.20
 -11  -6  -4    0.40    2.70
 -11  -7   4   21.00    3.00
 -11   7  -4   20.20    3.20
 -11  -7  -4   15.20    2.70
 -11   7   4   19.30    2.60
 -11  -8   4    0.30    2.80
 -11   8  -4    3.10    3.10
 -11  -8  -4    1.20    3.10
 -11   8   4   -0.70    2.90
 -11   9  -4   16.20    3.80
 -11  -9   4    9.40    3.30
 -11   9   4   20.40    3.20
 -11  -9  -4   23.40    2.90
 -11  10   4    7.10    3.30
 -11  10  -4    5.80    3.70
 -11 -11  -4    1.00    3.20
 -11  11  -4   -2.00    3.50
 -11  12   4    1.30    3.10
 -11  12  -4   -0.40    3.70
 -11  13  -4   -2.00    3.80
 -11  13   4    0.20    3.60
 -11 -13  -4   -0.40    3.20
 -11  14  -4    3.10    4.10
 -11  14   4   -0.20    4.00
 -11  15   4   -0.10    4.50
 -11  15  -4    0.80    4.50
 -11 -16  -4   -1.70    3.40
 -11  16   4    0.00    4.70
 -11 -16   4    2.50    3.40
 -11  16  -4   -1.10    5.00
 -12   0   4  157.48    3.90
 -12   0  -4  141.39    3.70
 -12   1   4   23.80    2.70
 -12   1  -4   22.50    2.60
 -12  -1   4   21.60    2.60
 -12  -1  -4   15.20    2.90
 -12   2   4    1.00    3.00
 -12   2  -4    5.30    2.90
 -12  -2  -4   -1.30    2.30
 -12  -2   4    1.40    2.50
 -12  -3  -4    5.10    2.40
 -12  -3   4    9.90    3.00
 -12   3   4    3.20    3.20
 -12   3  -4    4.10    2.70
 -12   4   4   13.80    3.10
 -12   4  -4   10.60    2.60
 -12  -4  -4   10.50    2.40
 -12  -4   4    8.00    2.60
 -12   5   4    2.40    2.70
 -12   5  -4   -1.60    2.60
 -12  -5  -4    1.70    3.10
 -12  -5   4    1.50    3.00
 -12   6   4   85.29    3.70
 -12   6  -4   96.89    3.70
 -12  -6   4   88.19    3.50
 -12  -7  -4   42.40    3.60
 -12  -7   4   47.40    3.30
 -12   7   4   37.70    3.30
 -12   7  -4   49.40    2.90
 -12   8   4    3.80    2.80
 -12  -8   4    2.00    3.20
 -12  -8  -4    0.60    2.50
 -12   8  -4    2.30    2.90
 -12  -9   4    0.30    3.00
 -12  -9  -4   25.20    2.70
 -12   9  -4   -0.80    3.10
 -12   9   4    1.30    3.00
 -12 -10  -4    0.60    2.50
 -12  10   4    2.40    3.50
 -12  11  -4   18.30    4.10
 -12 -12   4   10.00    2.80
 -12  12  -4    4.70    3.60
 -12  12   4    6.80    3.20
 -12  13  -4   12.30    3.90
 -12  13   4    9.80    3.70
 -12  14  -4    4.00    3.90
 -12  14   4    2.20    3.90
 -12 -14   4    1.90    2.80
 -12 -14  -4    4.10    3.10
 -12  15  -4   -0.20    4.10
 -12  15   4    2.20    4.20
 -12  16  -4    0.20    4.80
 -12  16   4    0.50    4.80
 -13  -1   4   77.09    3.00
 -13   1   4   76.99    3.50
 -13   1  -4   81.39    3.00
 -13  -2  -4   30.80    2.50
 -13   2   4   33.80    2.90
 -13   2  -4   30.30    2.80
 -13  -2   4   29.00    2.60
 -13   3  -4   99.79    3.30
 -13  -3   4  118.39    3.20
 -13   3   4  110.19    3.50
 -13  -3  -4  104.99    3.00
 -13  -4   4   22.10    2.70
 -13  -4  -4   19.40    3.00
 -13   4   4   27.90    2.90
 -13   4  -4   24.20    2.80
 -13   5  -4    7.80    2.60
 -13  -5  -4    4.70    2.50
 -13   5   4    8.50    2.70
 -13   6  -4    9.20    2.60
 -13  -6  -4   17.00    2.70
 -13   7   4   17.10    3.20
 -13   7  -4   11.60    3.10
 -13  -7  -4   28.60    2.80
 -13  -7   4   11.20    2.80
 -13  -8   4    8.50    2.80
 -13  -8  -4    7.70    2.80
 -13   8  -4   10.20    3.20
 -13   9   4    1.90    2.70
 -13 -10  -4    0.30    2.80
 -13 -11   4    5.20    2.90
 -13  11  -4   -0.30    3.90
 -13  12  -4    1.40    3.30
 -13  13  -4    2.60    3.80
 -13  13   4    4.40    3.70
 -13  14  -4    1.30    4.20
 -13  14   4   -2.20    4.00
 -13  15   4    1.20    3.90
 -13  15  -4    1.40    4.10
 -13 -15  -4    1.60    3.00
 -14   1  -4   13.10    2.90
 -14   1   4    9.50    2.60
 -14   2  -4   16.40    2.60
 -14  -2   4   14.40    2.60
 -14  -3  -4    4.70    2.50
 -14   3  -4   10.50    2.60
 -14  -4  -4   13.30    2.60
 -14  -5  -4   -0.10    2.50
 -14  -5   4   -0.90    2.60
 -14   6   4    7.30    2.60
 -14   6  -4    6.20    2.90
 -14  -6   4    9.40    2.60
 -14   8  -4    8.00    2.60
 -14   9  -4   43.70    3.10
 -14  11   4    2.80    3.50
 -14  11  -4    0.00    3.60
 -14  13   4   -0.10    3.90
 -14  14   4   -1.80    4.00
 -14  14  -4   -3.00    3.90
 -15  -1  -4   -2.90    2.60
 -15  -1   4   -1.80    2.60
 -15  -2   4   -1.20    2.70
 -15   2   4    2.10    2.50
 -15   2  -4    0.30    2.50
 -15   3   4   27.30    2.70
 -15  -3   4   21.30    2.80
 -15   4   4   10.40    2.60
 -15   4  -4   12.30    2.50
 -15  -4  -4   15.20    2.60
 -15   5  -4    7.90    2.50
 -15   5   4    8.80    2.60
 -15  -7   4   13.10    2.70
 -15  -7  -4    9.40    2.60
 -15   7  -4    8.30    2.90
 -15  -8   4    5.40    2.60
 -15  -9   4    7.00    2.80
 -15  10   4    6.90    2.80
 -15  11  -4    6.80    3.50
 -16   0   4   33.70    2.70
 -16   2   4    4.80    2.50
 -16   3  -4   44.10    2.80
 -16  -4   4   11.20    2.60
 -16  -6   4   -3.40    2.60
 -16   6  -4    1.30    2.70
 -16   8  -4    5.80    3.20
 -16   8   4   -1.50    2.80
 -16  11  -4   -0.90    3.10
 -17   1   4    1.70    2.50
 -17   4   4    2.50    2.80
 -17   5   4    1.70    2.60
 -17   9  -4   -1.40    2.90
 -17  10  -4   -1.80    2.90
 -18   3   4   15.70    2.70
  -1   1   5   40.60    3.90
  -1  -1   5   43.80    3.70
   1   1  -5   45.80    3.70
   1  -1  -5   37.80    3.90
   1   2  -5  291.07    6.20
   1  -2  -5  332.97    7.30
  -1   2   5  348.97    6.80
  -1  -2   5  359.76    6.90
  -1   3   5    1.70    3.70
   1   3  -5    0.30    3.70
  -1  -3   5    1.50    3.10
  -1  -4   5  156.98    6.30
   1   4  -5  205.08    5.70
  -1  -5   5  180.18    6.90
   1   5  -5  165.28    5.20
  -1   5  -5  235.68    7.10
   1  -6  -5   33.80    5.00
  -1   6  -5   63.69    4.60
   1   6  -5   42.10    4.30
  -1  -6   5   60.69    4.70
   1   7  -5   25.20    3.80
  -1   7  -5   22.10    5.00
   1  -7  -5   13.70    4.70
  -1  -7   5   23.80    4.10
  -1   8  -5    5.60    4.10
  -1  -8   5    4.80    3.70
   1  -8  -5    5.70    4.30
   1   8  -5    5.80    3.60
  -1   9  -5   28.20    4.80
   1   9  -5   27.30    3.90
   1  -9  -5   20.40    4.60
   1 -10  -5    0.50    4.30
  -1  10  -5   -0.40    5.30
   1  10  -5   -0.10    3.90
   1 -11  -5   53.69    8.50
  -1 -12  -5    1.60    4.40
  -1 -12  -5    3.50    4.60
  -1 -13  -5    7.90    5.70
  -1 -13  -5    9.30    6.10
   2   0  -5    0.40    3.00
  -2   0   5   -1.20    3.00
   2   1  -5    2.40    3.80
  -2  -1   5    3.70    3.10
  -2   1   5    3.00    3.10
   2  -1  -5    3.20    3.70
  -2  -2   5   20.30    3.30
   2   2  -5   18.80    3.90
  -2   2   5   20.50    3.90
   2  -2  -5   18.90    4.00
  -2   3   5   67.89    4.40
   2   3  -5   67.89    4.30
  -2  -3   5   69.09    4.50
   2   4  -5  313.17    6.10
  -2   4   5  368.26    7.30
  -2  -4   5  288.37    5.80
  -2  -5   5  336.87    6.20
  -2   5   5  458.35    8.80
   2   5  -5  409.06    6.90
   2   6  -5    9.10    3.70
  -2  -6   5    6.40    3.30
   2   7  -5   54.69    4.00
  -2  -7   5   49.99    4.10
   2  -7  -5   30.60    5.20
  -2   7  -5   52.39    5.20
  -2  -8   5    6.30    3.40
  -2   8  -5    1.80    4.30
   2   8  -5    4.80    3.30
   2  -8  -5    2.90    4.00
  -2  -9   5   71.89    4.40
  -2   9  -5   68.29    6.10
   2  -9  -5   66.29    5.70
   2   9  -5   72.79    4.20
   2 -10  -5   57.29    5.80
  -2  10  -5   51.59    6.90
  -2 -11   5    2.60    3.50
  -2 -12  -5   47.80    5.20
  -2 -13  -5    0.90    4.30
  -2 -14  -5    9.40    5.00
  -2 -14  -5   14.40    5.10
   3   1  -5   21.00    3.20
  -3   1   5   22.30    3.50
   3  -1  -5   23.20    3.50
  -3  -1   5   23.00    3.30
   3  -2  -5  182.78    5.60
  -3  -2   5  171.98    4.70
  -3   2   5  194.88    5.30
   3   2  -5  165.78    4.60
  -3   3   5   11.80    3.40
   3   3  -5   12.00    3.50
  -3  -3   5    9.60    2.80
   3  -3  -5   12.50    3.40
   3   4  -5   26.20    3.50
  -3  -4   5   27.90    3.60
  -3   4   5   30.20    3.60
   3   5  -5   10.00    3.30
  -3   5   5   19.40    3.60
  -3  -5   5   12.00    3.40
   3   6  -5   26.50    3.60
  -3   6   5   31.40    4.10
  -3  -6   5   22.40    3.40
   3   7  -5    3.90    3.60
  -3  -7   5    4.70    3.50
   3  -7  -5    3.40    3.50
  -3   7   5    3.90    3.80
  -3  -8   5   10.40    3.40
   3  -8  -5    7.10    3.80
   3   8  -5    9.40    3.10
  -3  -9   5  246.58    5.50
   3   9  -5  170.48    4.80
   3  -9  -5  187.78    6.20
  -3   9  -5  130.79    8.00
   3 -10  -5    0.30    4.10
  -3  10  -5   -0.40    4.20
  -3 -10   5    2.50    3.10
  -3 -11   5    8.30    3.50
  -3 -12   5   10.80    4.10
  -3 -12  -5   11.40    4.90
  -3 -13  -5   43.30    4.90
  -3 -14  -5    0.30    4.30
  -3 -14   5   -0.10    4.10
  -3 -15  -5    2.20    4.30
  -3 -16  -5    0.60    5.40
  -3 -16  -5    2.50    5.40
  -3 -17  -5    0.00    2.30
  -4   0   5   -0.70    3.00
   4   0  -5    0.60    3.00
  -4   1   5  339.37    5.80
   4   1  -5  339.97    5.50
  -4  -1   5  333.47    5.30
   4  -1  -5  322.17    6.10
   4  -2  -5   50.69    4.00
  -4   2   5   54.49    3.90
   4   2  -5   43.80    3.20
  -4  -2   5   56.49    3.30
   4  -3  -5  465.95    7.70
  -4   3   5  581.84    7.20
  -4  -3   5  541.35    6.30
   4   3  -5  355.46    5.40
   4  -4  -5    2.40    3.30
   4   4  -5    2.80    3.30
  -4   4   5    3.90    3.20
  -4  -4   5    2.90    3.20
  -4   5   5   35.30    4.00
   4   5  -5   18.20    3.10
  -4  -5   5   15.30    3.80
   4   6  -5   27.90    3.00
  -4  -6   5   39.90    3.60
  -4   6   5   45.50    3.90
  -4  -7   5   -0.20    3.10
   4   7  -5    0.60    3.20
  -4   7   5    0.40    3.20
   4   8  -5    1.10    3.50
   4  -8  -5   -1.30    3.60
  -4  -8   5    1.50    3.00
  -4   8   5    1.60    3.20
   4   9  -5   26.20    3.80
   4  -9  -5   26.20    3.70
  -4  -9   5   16.30    3.50
  -4   9   5   19.80    3.80
  -4 -10   5   26.90    3.60
   4 -10  -5   14.70    4.00
  -4 -11   5   40.90    4.00
  -4  11  -5   29.20    5.70
  -4  11  -5   36.30    5.60
  -4 -12  -5   -0.80    4.50
  -4 -12   5   12.20    3.80
  -4 -13  -5   17.90    4.40
  -4 -14   5   56.19    4.80
  -4 -14  -5   49.50    4.80
  -4 -15  -5    1.80    4.20
  -4 -15   5    5.10    4.10
  -4 -16   5    3.20    4.10
  -4 -16  -5    0.10    4.00
  -4 -17  -5    1.00    5.00
  -5   1   5  121.79    4.40
   5  -1  -5  110.89    4.40
  -5  -1   5  124.19    4.00
   5   1  -5   89.09    4.70
  -5   2   5   31.60    3.50
   5  -2  -5   29.00    3.80
   5   2  -5   22.50    3.20
  -5  -2   5   32.70    3.90
   5  -3  -5   17.10    3.60
   5   3  -5   18.70    3.60
  -5   3   5   19.60    3.60
  -5  -3   5   23.70    3.50
  -5  -4   5   25.40    3.00
  -5   4   5   39.00    3.20
   5  -4  -5   36.20    3.30
   5   4  -5   31.70    3.50
   5   5  -5   10.80    3.30
   5  -5  -5    9.80    3.40
  -5  -5   5    8.50    2.70
  -5   5   5   13.00    3.40
  -5   6   5   26.30    3.50
   5   6  -5   16.00    2.80
  -5  -6   5   20.10    3.50
   5   7  -5   16.40    3.30
  -5  -7   5   15.20    3.00
  -5   7   5   14.00    3.30
  -5  -8   5   15.70    3.10
  -5   8   5   14.80    3.40
   5   8  -5   10.30    3.10
  -5  -9   5    3.20    3.20
  -5   9   5    3.40    3.00
   5  -9  -5    2.70    3.20
  -5 -10   5    9.60    2.80
  -5  10   5    4.70    3.30
  -5  10  -5    4.30    3.70
  -5  11  -5    8.30    4.40
  -5 -11  -5   10.50    4.20
  -5 -11   5   10.80    3.20
  -5  11   5    7.40    3.80
  -5 -12   5    2.00    3.40
  -5  12  -5    2.50    5.40
  -5 -12  -5    3.60    4.10
  -5  12  -5    1.00    5.40
  -5 -13   5   15.60    3.80
  -5 -13  -5   16.40    4.30
  -5 -14   5   -0.10    3.40
  -5 -14  -5   -2.10    3.70
  -5 -15  -5    6.20    4.20
  -5 -15   5    1.40    3.90
  -5 -16  -5    2.50    4.00
  -5 -16   5   -0.10    3.90
  -5 -17  -5    4.80    4.60
  -5 -17   5    4.60    4.60
  -5 -18  -5    0.90    4.90
   6   0  -5   -3.00    2.90
  -6   0   5    0.60    3.50
   6   1  -5   19.90    3.60
   6  -1  -5   17.60    3.60
  -6   1   5   20.20    3.50
  -6  -1   5   21.60    3.00
   6   2  -5  303.87    5.20
  -6   2   5  316.67    4.80
   6  -2  -5  269.47    5.50
  -6  -2   5  309.87    4.70
  -6  -3   5    0.10    2.50
   6   3  -5    1.70    2.60
  -6   3   5    0.20    3.20
   6  -3  -5   -1.10    2.70
   6  -4  -5    6.00    2.70
   6   4  -5    5.40    3.30
  -6   4   5    7.30    2.60
  -6  -4   5    3.30    3.20
  -6  -5   5   -1.50    3.00
   6   5  -5    3.80    2.70
   6  -5  -5   -1.30    3.30
  -6   5   5    2.70    3.20
  -6   6   5    5.20    3.10
   6  -6  -5    3.90    3.20
  -6  -6   5    2.70    3.30
   6   6  -5    2.50    3.30
   6   7  -5    2.10    3.20
  -6  -7   5    0.90    2.90
  -6   7   5    0.50    3.20
  -6  -8   5    5.10    3.10
  -6   8   5    7.50    3.40
  -6   9   5    0.50    3.30
  -6  -9   5    2.60    3.00
  -6  10   5    0.80    3.40
  -6  10  -5    0.40    4.10
  -6 -10   5   21.60    3.20
  -6 -11   5   13.70    3.10
  -6 -11  -5   12.90    3.70
  -6  11   5   10.10    4.30
  -6  11  -5   11.40    4.30
  -6 -12   5   57.59    3.70
  -6 -12  -5   46.40    3.90
  -6  12   5   27.90    4.80
  -6  12  -5   35.60    5.40
  -6 -13  -5    0.40    3.90
  -6  13  -5   -1.10    5.50
  -6 -13   5   12.90    3.20
  -6  13  -5   -1.50    5.40
  -6 -14  -5    3.90    3.80
  -6 -14   5    0.50    3.40
  -6 -15  -5    4.00    3.80
  -6 -15   5    4.30    3.80
  -6 -16  -5    8.60    3.80
  -6 -16   5   10.20    3.40
  -6 -17   5    2.10    4.20
  -6 -17  -5    0.70    4.10
  -6 -18   5    6.80    4.70
  -6 -18  -5    7.80    4.60
  -6 -19   5    0.90    5.10
  -6 -19  -5   -0.20    5.00
  -7   1   5   72.49    3.10
  -7  -1   5   67.69    3.00
   7   1  -5   45.30    3.70
   7  -1  -5   59.09    3.20
  -7   2   5   76.89    3.70
   7   2  -5   77.49    3.10
   7  -2  -5   65.99    3.30
  -7  -2   5   81.29    3.20
   7   3  -5   32.00    3.20
  -7  -3   5   33.40    2.70
  -7   3   5   30.10    2.90
   7  -3  -5   30.50    3.50
  -7   4   5   42.80    3.00
   7   4  -5   42.60    3.20
   7  -4  -5   35.00    3.70
  -7  -4   5   44.40    3.40
   7   5  -5   87.49    3.60
  -7   5   5  102.99    3.80
  -7  -5   5   48.80    3.80
   7  -5  -5  100.39    3.90
   7  -6  -5   83.99    4.30
  -7   6   5  127.39    4.00
   7   6  -5   83.19    3.30
  -7  -6   5   62.39    4.40
  -7  -7   5    2.70    3.10
  -7   7   5    3.00    2.90
   7  -7  -5    3.00    3.10
  -7   8   5    2.50    2.70
  -7  -8   5    0.60    2.90
  -7   9   5   34.90    3.50
  -7   9  -5   25.90    3.60
  -7  -9   5   19.00    2.70
  -7  10  -5    1.80    3.90
  -7  10   5    1.70    3.50
  -7 -10  -5   -0.10    3.40
  -7 -10   5    2.10    2.80
  -7  11   5    7.60    4.00
  -7 -11  -5    9.10    3.30
  -7  11  -5    7.60    4.30
  -7 -11   5    9.40    3.00
  -7  12   5   -2.30    4.20
  -7 -12  -5   -2.80    3.50
  -7  12  -5   -0.20    4.00
  -7 -12   5   -0.90    3.30
  -7 -13  -5    1.20    4.20
  -7  13  -5    5.00    4.60
  -7  13   5    6.20    4.10
  -7 -14  -5    0.20    3.80
  -7  14  -5    1.90    5.70
  -7 -15   5    7.20    3.50
  -7 -15  -5    5.90    3.80
  -7 -16  -5    5.90    3.80
  -7 -16   5    8.00    3.60
  -7 -17  -5    1.50    4.00
  -7 -17   5    2.20    4.20
  -7 -18  -5   -0.10    4.30
  -7 -18   5    1.70    4.30
  -7 -19  -5   -0.70    5.00
  -7 -19   5    1.60    5.10
  -8   0   5   -0.10    2.40
   8   0  -5   -1.30    2.90
  -8  -1   5    0.10    2.40
   8   1  -5    2.20    2.40
   8  -1  -5    1.30    3.00
  -8   1   5    0.20    2.40
   8  -2  -5    1.10    3.00
   8   2  -5    0.90    3.00
  -8  -2   5    1.00    2.40
  -8   2   5    2.50    2.50
  -8   3   5    6.20    3.10
   8   3  -5    4.80    3.00
   8  -3  -5    5.40    2.60
  -8  -3   5    6.00    2.50
  -8   4   5   39.80    2.80
   8   4  -5   35.50    3.30
   8  -4  -5   36.80    3.00
  -8  -4   5   21.00    3.10
  -8  -5   5   44.80    2.80
   8   5  -5   33.90    2.90
   8  -5  -5   44.50    3.70
  -8   5   5   52.99    3.30
  -8   6   5   70.19    3.60
  -8  -6   5   56.39    2.90
   8  -6  -5   66.29    3.70
  -8   7   5   17.80    3.10
  -8  -7   5   13.80    2.50
  -8  -8   5   82.89    3.60
  -8   8   5   52.39    3.60
  -8   9  -5   31.70    3.90
  -8   9   5   24.40    3.70
  -8  -9   5   22.80    3.10
  -8  10  -5   -0.50    3.70
  -8  10   5    2.00    3.40
  -8 -10  -5    1.00    2.50
  -8 -10   5    4.20    2.80
  -8  11   5    3.30    3.60
  -8 -11   5    8.10    3.00
  -8  11  -5   -1.10    4.40
  -8 -11  -5   -0.40    3.30
  -8  12   5   12.20    4.30
  -8 -12   5   24.30    3.30
  -8  12  -5   14.30    4.30
  -8 -12  -5   15.60    3.60
  -8 -13  -5    3.10    3.90
  -8  13   5    0.30    4.00
  -8  13  -5    1.80    4.20
  -8  14   5    3.80    4.30
  -8  14  -5    4.40    4.30
  -8 -14  -5    6.00    4.00
  -8 -15   5    9.10    3.20
  -8 -15  -5    4.10    4.00
  -8 -16  -5   -2.00    3.70
  -8 -17  -5   -0.20    3.80
  -8 -17   5   -2.80    3.80
  -8 -18   5   -1.00    4.10
  -8 -18  -5   -0.90    3.90
   9   1  -5   67.29    2.90
  -9   1   5   73.99    3.00
   9  -1  -5   62.79    3.60
  -9  -1   5   76.09    2.80
  -9  -2   5   52.99    2.70
   9   2  -5   54.29    3.20
  -9   2   5   51.99    2.90
   9  -2  -5   47.50    3.00
  -9  -3   5   62.19    2.80
  -9   3   5   63.29    3.00
   9  -3  -5   56.39    3.50
   9   3  -5   63.69    3.00
   9   4  -5   16.30    2.60
   9  -4  -5   13.50    2.70
  -9  -4   5   17.00    3.00
  -9   4   5   18.50    3.10
  -9   5   5   29.30    3.30
  -9  -5   5   22.20    2.60
  -9   6   5    3.00    2.90
  -9  -6   5    2.00    2.50
  -9   7   5   18.60    3.20
  -9  -7   5   12.90    2.70
  -9   8   5   52.79    3.50
  -9  -8   5   29.80    3.50
  -9   8  -5   51.19    3.50
  -9  -9   5   56.29    2.90
  -9  -9  -5   89.49    3.90
  -9   9  -5   77.79    3.80
  -9   9   5   64.69    3.90
  -9  10   5    1.10    3.50
  -9 -10  -5    1.90    3.10
  -9 -10   5    2.70    2.80
  -9  10  -5    0.70    3.60
  -9  11  -5   15.00    4.10
  -9 -11   5   20.30    3.00
  -9  11   5   17.70    3.70
  -9 -11  -5   18.50    3.30
  -9  12  -5   12.70    3.90
  -9  12   5    8.80    3.80
  -9 -12  -5   11.90    3.50
  -9  13  -5  116.09    5.20
  -9 -13  -5  110.09    4.90
  -9  13   5   99.49    5.70
  -9  14   5    6.50    4.20
  -9 -14  -5   14.50    4.10
  -9  14  -5    1.20    4.20
  -9  15  -5    3.30    5.30
  -9 -15  -5    6.10    3.80
  -9  15   5    1.50    4.80
  -9 -16  -5    3.30    3.60
  -9 -17  -5    7.50    3.90
  -9 -17   5    4.00    3.70
  -9 -18   5    1.50    3.70
  -9 -18  -5    2.80    4.10
  10   0  -5    0.50    2.40
 -10   0   5    4.10    2.30
 -10   1   5    9.30    2.90
  10  -1  -5    6.10    2.60
 -10  -1   5   11.90    2.50
 -10  -2   5   -0.10    2.30
 -10   2   5    2.60    2.80
 -10  -3   5   -1.00    2.40
 -10   3   5    1.10    2.80
 -10  -4   5   13.90    2.60
 -10   4   5   17.90    2.50
 -10   5   5   25.60    3.10
 -10  -5   5   31.10    2.60
 -10   6   5    4.20    3.00
 -10  -6   5   11.50    3.40
 -10   7   5   60.59    3.10
 -10  -7   5   71.39    3.60
 -10   7  -5   67.99    3.70
 -10   8  -5    3.50    3.10
 -10  -8  -5    7.40    3.20
 -10  -8   5    2.30    2.70
 -10   8   5    1.00    2.90
 -10   9  -5   -0.80    3.20
 -10  -9  -5    1.40    2.60
 -10   9   5   -0.70    2.90
 -10  -9   5    8.40    2.90
 -10  10  -5   53.29    3.70
 -10  10   5   47.40    3.50
 -10 -10  -5   44.30    2.90
 -10  11   5   19.60    3.50
 -10  11  -5   13.60    3.90
 -10 -11   5   16.80    3.10
 -10 -11  -5   23.50    2.90
 -10  12  -5    6.20    4.10
 -10  12   5   10.00    3.90
 -10  13   5   -0.60    3.60
 -10  13  -5    2.50    4.20
 -10  14   5    0.60    4.00
 -10  14  -5    0.40    4.30
 -10  15  -5    0.20    4.40
 -10  15   5    1.10    4.60
 -10  16  -5    0.40    5.60
 -10 -17  -5   -1.50    4.30
 -11  -1   5   57.59    2.90
 -11   1   5   58.79    3.40
 -11  -2   5    1.50    3.10
 -11   2   5   -2.40    2.30
 -11   3   5   33.50    2.80
 -11  -3   5   36.50    2.90
 -11   4   5    2.70    3.00
 -11  -4   5    2.70    2.70
 -11  -5   5    8.10    3.10
 -11   5   5    8.80    2.50
 -11   5  -5   12.10    3.20
 -11   6  -5   -1.60    2.90
 -11  -6   5   -1.20    3.20
 -11  -6  -5    2.30    3.30
 -11   6   5    1.40    2.80
 -11  -7   5   11.50    3.30
 -11   7   5    7.20    2.40
 -11   7  -5    3.70    3.10
 -11  -7  -5    5.10    3.20
 -11  -8  -5   -0.60    2.70
 -11   8  -5   -1.10    3.00
 -11  -8   5    1.50    3.30
 -11   8   5    1.40    2.80
 -11  -9   5   60.99    3.50
 -11   9  -5   52.99    3.50
 -11  10   5    6.20    3.30
 -11  10  -5   10.00    3.90
 -11 -11  -5   23.60    3.20
 -11  11  -5   20.00    3.60
 -11  12  -5   -0.20    3.80
 -11  12   5    2.80    3.50
 -11  13   5    3.20    3.60
 -11  13  -5    0.80    3.60
 -11  14  -5    1.30    4.00
 -11  14   5    0.00    3.80
 -11 -15  -5    7.20    3.60
 -11  15  -5    4.40    4.30
 -11  15   5    7.90    4.60
 -11  16   5   -0.10    4.50
 -11  16  -5   -1.10    4.90
 -12   0   5    0.70    2.60
 -12   1   5    2.40    3.10
 -12  -1   5    1.60    2.50
 -12   2  -5   14.10    2.70
 -12   2   5   15.30    2.70
 -12  -2   5   13.60    2.70
 -12   3  -5   39.60    3.40
 -12  -3   5   53.19    3.00
 -12  -3  -5   39.00    2.80
 -12   3   5   42.90    3.00
 -12   4   5  100.49    3.60
 -12  -4  -5   85.59    3.60
 -12   4  -5   87.79    3.70
 -12  -4   5   98.09    3.40
 -12  -5   5   10.10    3.20
 -12  -5  -5    5.90    3.10
 -12   5   5    9.50    3.20
 -12   5  -5   10.90    3.20
 -12  -6  -5   -0.60    3.00
 -12   6  -5    0.30    2.60
 -12   6   5    2.40    3.00
 -12   7  -5   36.00    3.40
 -12  -7   5   37.00    3.30
 -12  -7  -5   21.50    3.20
 -12   7   5   34.10    3.20
 -12  -8   5    2.00    2.80
 -12   8  -5    0.40    3.10
 -12   8   5    0.40    2.90
 -12  -8  -5    5.20    2.90
 -12   9  -5   77.89    3.80
 -12  -9  -5   60.39    3.00
 -12 -10   5   -2.20    2.50
 -12  10  -5   -0.20    3.60
 -12  11  -5   13.80    3.70
 -12  12  -5    8.00    3.60
 -12  13   5    0.20    3.40
 -12  13  -5   -5.30    3.90
 -12 -13   5    1.90    2.70
 -12  14   5    2.50    3.70
 -12 -14  -5    0.80    3.40
 -12  14  -5    0.70    4.10
 -12  15   5    4.10    4.20
 -12  15  -5    2.70    4.30
 -12  16   5    3.80    4.90
 -12  16  -5    4.30    4.90
 -13  -1   5    1.80    2.50
 -13   1  -5   -2.80    2.90
 -13   1   5   -3.10    2.60
 -13   2  -5   37.20    2.90
 -13  -2   5   44.00    2.80
 -13   2   5   45.20    3.40
 -13  -2  -5   37.00    3.00
 -13  -3   5   96.99    3.20
 -13   3   5   87.59    3.40
 -13  -3  -5   85.99    2.90
 -13   3  -5   83.89    3.50
 -13   4  -5    3.30    3.20
 -13  -5  -5    2.00    2.40
 -13  -5   5    4.30    2.60
 -13   5   5    6.40    3.20
 -13   6  -5   69.89    3.20
 -13   6   5   72.19    3.30
 -13  -6  -5   82.99    3.10
 -13   7   5   87.19    3.20
 -13  -7  -5   93.59    3.20
 -13   7  -5  103.29    3.70
 -13   8   5    9.50    2.60
 -13   8  -5   12.30    3.10
 -13 -10  -5   -0.30    2.70
 -13 -11   5    5.60    2.70
 -13  11  -5    4.30    3.70
 -13  12  -5    1.80    3.30
 -13  13  -5    5.40    3.60
 -13  13   5    1.50    3.80
 -13  14  -5    3.60    4.20
 -13  14   5    2.40    4.00
 -13  15   5   -1.20    4.00
 -13  15  -5   -0.60    4.10
 -13 -15  -5   -0.70    3.30
 -14   0   5    1.10    2.50
 -14   1  -5   16.20    3.00
 -14   1   5   13.50    2.60
 -14   2  -5    0.60    2.50
 -14   2   5   -0.50    2.60
 -14   3  -5   17.10    3.00
 -14  -3  -5   19.90    2.70
 -14  -4   5   75.49    3.20
 -14  -5  -5   13.80    2.70
 -14  -5   5   20.70    2.70
 -14  -6  -5    1.10    2.50
 -14  -6   5    1.70    2.60
 -14   6  -5    0.20    2.80
 -14   7   5    7.20    2.60
 -14   7  -5    9.90    2.60
 -14   8  -5    0.10    3.00
 -14  -8  -5    1.90    2.70
 -14  -9  -5   26.20    2.80
 -14   9   5   21.90    2.90
 -14  10  -5    5.80    3.20
 -14  11  -5    3.40    3.50
 -14 -11  -5    3.20    2.80
 -14 -11   5    7.60    3.40
 -14  12  -5    6.20    3.40
 -14  14   5    2.00    3.80
 -14  14  -5    1.70    4.10
 -15  -1   5   30.30    2.90
 -15   2  -5    1.50    2.60
 -15  -2   5    0.10    2.90
 -15   2   5    0.90    2.60
 -15  -3   5    8.00    2.60
 -15   3   5    3.30    2.70
 -15  -4   5   27.90    2.80
 -15   4   5   23.40    2.80
 -15   5  -5   37.40    2.80
 -15   5   5   26.00    2.80
 -15  -6   5   26.20    3.00
 -15   7  -5    1.80    2.90
 -15   7   5   15.70    2.60
 -15  -7   5   10.70    2.80
 -15 -10   5   -1.70    3.00
 -15  13  -5    3.00    3.90
 -15  13   5    1.40    3.80
 -16   0   5   -2.40    2.50
 -16   1   5   17.70    2.70
 -16   4  -5    9.40    2.60
 -16   5  -5   17.00    2.80
 -16   6  -5   -1.70    2.60
 -16   8   5    2.50    2.80
 -16   8  -5   -0.70    2.70
 -16  11  -5    4.00    3.10
 -17   3   5    1.40    2.70
 -17   3  -5    0.30    2.60
 -17   4   5    2.90    2.60
 -17   5   5   63.49    3.40
 -17   7  -5   -0.50    2.70
 -18  -1   5    4.70    2.70
 -18   8  -5    1.20    3.10
   0   0  -6   11.70    3.20
   0   1  -6   -0.70    3.00
   0   2  -6   41.40    4.20
   0   3  -6   -0.60    2.90
   0   4  -6   95.49    4.50
   0   5  -6   -0.10    3.10
   0   6  -6    9.30    3.90
   0  -7  -6    0.80    3.40
   0   7  -6    0.10    3.60
   0   8  -6   39.30    4.40
   0  -8  -6   33.90    4.60
   0  -9  -6    0.70    3.20
   0   9  -6    0.40    3.80
   0 -10  -6    6.70    3.60
   0  10  -6    9.10    4.00
   0 -11  -6    0.10    3.80
   0  11  -6    0.40    4.50
   0 -12  -6    0.60    4.40
  -1  -1   6    0.30    3.00
  -1   1   6    1.70    3.00
   1  -1  -6    1.70    3.70
   1   1  -6    1.40    3.00
  -1  -2   6    6.20    3.10
   1  -2  -6    5.20    3.10
   1   2  -6    4.80    3.70
  -1   2   6    4.20    3.10
   1  -3  -6    2.60    3.50
  -1  -3   6    1.00    3.60
   1   3  -6    0.90    3.60
  -1  -4   6   16.50    3.70
   1   4  -6   11.70    3.40
  -1  -5   6    0.80    3.10
   1   5  -6    0.80    3.20
  -1   5  -6    0.30    3.70
   1   6  -6   56.59    4.30
  -1   6  -6   75.39    4.70
  -1  -6   6   77.89    4.50
  -1  -7   6    2.00    3.40
   1   7  -6    2.30    3.40
  -1   7  -6    1.20    3.40
   1  -7  -6    2.70    3.60
  -1   8  -6   18.50    4.10
   1   8  -6   19.10    3.60
   1  -8  -6   14.00    4.10
  -1  -8   6   17.00    4.10
   1   9  -6   -0.60    3.40
  -1   9  -6    0.30    3.80
   1  -9  -6   -0.20    3.30
  -1  -9   6   -4.60    3.50
  -1  10  -6   59.79    5.10
   1 -10  -6   51.69    5.00
   1  10  -6   63.19    4.20
   1  11  -6    4.10    4.20
  -1  11  -6    4.20    5.50
   1 -11  -6    2.90    4.60
  -1 -12  -6    3.00    3.80
   1 -12  -6    4.00    6.70
  -1 -13  -6   -0.20    4.40
  -1 -13  -6   -0.10    4.90
  -1 -14  -6   73.29    9.00
  -1 -14  -6   65.49    8.70
  -2   0   6   -0.50    3.30
   2   0  -6    0.30    3.20
  -2  -1   6   16.50    3.40
   2   1  -6   16.40    3.30
   2  -1  -6   21.30    3.30
  -2   1   6   21.40    3.90
  -2   2   6    4.60    3.70
   2  -2  -6    2.20    3.20
  -2  -2   6    2.30    3.70
   2   2  -6    1.90    3.70
   2  -3  -6   34.90    4.00
  -2  -3   6   39.10    3.30
  -2   3   6   41.90    3.90
   2   3  -6   45.70    3.90
   2   4  -6   86.29    4.10
  -2   4   6  108.89    4.60
  -2  -4   6   57.89    4.60
  -2  -5   6    6.60    3.70
  -2   5   6    9.10    3.60
   2   5  -6    6.80    3.20
   2   6  -6    4.10    3.70
  -2  -6   6    6.90    3.30
   2   7  -6   31.50    3.70
   2  -7  -6   16.60    4.30
  -2  -7   6   20.30    3.40
  -2   7  -6   21.90    4.00
  -2   8  -6    1.00    3.50
   2  -8  -6    0.40    3.50
   2   8  -6    0.70    2.80
  -2  -8   6    0.70    3.10
   2   9  -6  154.68    5.10
   2  -9  -6  105.49    6.20
  -2  -9   6  161.68    5.50
  -2   9  -6  138.69    6.70
   2 -10  -6    4.70    3.80
   2  10  -6    3.60    3.50
  -2  10  -6    4.40    4.00
  -2 -10   6    5.60    3.60
  -2  11  -6   22.60    6.30
   2 -11  -6   21.70    5.10
  -2 -11   6   23.30    3.80
  -2 -13  -6    1.50    4.50
  -2 -14  -6    0.80    4.50
  -2 -14  -6    1.20    4.80
  -2 -15  -6    1.90    5.20
  -2 -15  -6    1.50    5.00
   3  -1  -6    9.00    3.80
  -3   1   6    9.80    3.70
   3   1  -6   10.40    3.10
  -3  -1   6    6.60    3.10
   3   2  -6  150.08    4.40
  -3   2   6  155.98    4.50
  -3  -2   6  155.68    4.80
   3  -2  -6  139.19    4.60
   3  -3  -6   28.20    3.00
   3   3  -6   19.00    3.10
  -3   3   6   32.50    3.50
  -3  -3   6   18.90    3.80
  -3   4   6    6.60    3.30
   3   4  -6    5.60    3.40
  -3  -4   6    5.40    3.20
   3   5  -6    4.50    2.80
  -3   5   6    6.70    3.80
  -3  -5   6    4.90    3.30
  -3   6   6    1.30    3.00
   3   6  -6    2.10    3.30
  -3  -6   6    2.00    3.30
   3   7  -6    3.60    3.10
  -3   7   6    0.70    3.30
  -3  -7   6    1.40    3.10
  -3  -8   6    2.70    3.30
   3  -8  -6   -0.80    3.50
   3   8  -6    1.50    3.50
   3   9  -6   35.70    4.00
  -3  -9   6   32.00    3.50
   3  -9  -6   27.30    4.20
  -3   9  -6   25.30    4.60
   3  10  -6    8.10    3.40
   3 -10  -6    4.40    3.80
  -3  10  -6    3.90    3.90
  -3 -10   6    6.90    3.20
  -3 -11   6   13.30    3.80
  -3  11  -6    8.40    4.90
   3 -11  -6   11.40    4.60
  -3 -12   6    6.50    3.90
  -3 -13  -6   18.50    5.10
  -3 -14   6   11.20    4.30
  -3 -14  -6   21.00    4.80
  -3 -15  -6    1.30    4.10
  -3 -16  -6    4.00    4.90
  -3 -16  -6    6.60    4.90
   4   0  -6   17.60    3.60
  -4   0   6   22.60    3.00
  -4  -1   6    4.50    3.00
   4   1  -6    4.40    2.80
  -4   1   6    3.90    2.80
   4  -1  -6    3.00    3.00
   4   2  -6    7.20    3.30
   4  -2  -6    5.70    3.40
  -4  -2   6    7.20    2.90
  -4   2   6    2.50    2.90
   4   3  -6   73.69    4.10
   4  -3  -6   67.49    4.20
  -4   3   6   78.29    4.00
  -4  -3   6   77.39    3.50
  -4   4   6    8.70    3.30
   4   4  -6    2.90    3.60
   4  -4  -6    6.50    3.30
  -4  -4   6    5.00    2.80
  -4   5   6   -1.30    3.30
   4   5  -6    0.00    3.30
  -4  -5   6    1.10    2.60
  -4   6   6   33.70    3.60
  -4  -6   6   18.80    3.70
   4   6  -6   23.10    3.50
  -4  -7   6    6.20    3.10
   4   7  -6    5.60    3.10
  -4   7   6    5.50    3.40
  -4  -8   6   -0.80    2.90
  -4   8   6    0.10    3.40
   4  -8  -6    0.60    3.20
   4   8  -6   -0.50    3.00
  -4   9   6   73.39    5.10
   4  -9  -6  101.99    4.40
  -4  -9   6   76.59    4.40
   4   9  -6   88.99    3.90
   4  10  -6   18.70    3.50
  -4 -10   6   22.50    3.50
   4 -10  -6   19.80    3.70
  -4 -11   6   69.89    4.30
   4 -11  -6   61.29    5.30
  -4  11  -6   40.00    5.60
  -4  12  -6    4.80    6.60
  -4  12  -6    5.40    6.30
  -4 -12   6    6.90    3.50
  -4 -13  -6    1.50    4.10
  -4 -13   6    8.20    3.60
  -4 -14   6   24.40    4.40
  -4 -14  -6    7.10    4.30
  -4 -15   6    0.50    3.80
  -4 -15  -6    0.70    4.10
  -4 -16   6    6.00    4.10
  -4 -16  -6    7.00    4.30
  -4 -17  -6   -0.30    4.90
   5  -1  -6    8.30    3.10
   5   1  -6    6.70    3.70
  -5  -1   6    8.30    3.70
  -5   1   6   15.00    3.70
  -5   2   6   90.59    3.50
   5   2  -6   57.09    3.40
  -5  -2   6   76.79    3.50
   5  -2  -6   76.09    3.70
  -5   3   6   31.20    3.60
   5  -3  -6   28.00    3.60
  -5  -3   6   20.90    3.00
   5   3  -6   30.30    3.00
  -5   4   6   26.10    3.00
   5  -4  -6   25.00    3.10
  -5  -4   6   23.70    3.50
   5   4  -6   21.80    2.90
  -5   5   6   25.60    3.50
   5   5  -6   21.70    3.40
  -5  -5   6    9.60    3.50
   5  -5  -6   17.00    3.60
  -5   6   6   29.00    3.40
  -5  -6   6   27.30    3.40
   5   6  -6   17.20    2.70
   5   7  -6    5.70    3.20
  -5  -7   6    6.70    2.50
  -5   7   6    6.00    3.40
  -5  -8   6    4.70    2.90
  -5   8   6    2.70    3.30
   5   8  -6    3.30    2.90
   5  -9  -6    7.50    3.40
  -5  -9   6    9.50    3.20
   5   9  -6    6.20    3.00
  -5   9   6    7.80    3.40
  -5 -10   6    0.50    2.80
   5 -10  -6    0.10    3.80
  -5  10   6    1.50    3.40
  -5 -11   6    4.60    3.50
  -5 -12  -6   -2.40    4.10
  -5  12  -6    0.60    4.80
  -5 -12   6   -1.00    3.40
  -5  12  -6   -0.30    4.70
  -5 -13   6    8.90    3.70
  -5 -13  -6    3.40    4.10
  -5 -14   6    0.60    3.50
  -5 -14  -6    1.60    3.90
  -5 -15   6   13.40    4.10
  -5 -15  -6   16.90    4.20
  -5 -16   6    0.80    4.00
  -5 -16  -6    1.20    4.40
  -5 -17  -6   -1.00    4.30
  -5 -17   6    1.30    4.50
  -5 -18  -6    0.60    4.80
  -5 -19  -6   -0.60    7.00
  -6   0   6    3.00    2.80
   6   0  -6    2.50    2.80
   6   1  -6   -0.80    2.80
  -6   1   6    2.90    2.70
   6  -1  -6    0.50    2.70
  -6  -1   6   -0.70    2.80
   6   2  -6   15.00    2.80
   6  -2  -6   24.80    3.00
  -6  -2   6   21.00    2.80
  -6   2   6   25.90    2.90
   6  -3  -6   13.20    2.80
  -6   3   6   16.00    2.70
   6   3  -6   14.70    2.60
  -6  -3   6   15.60    2.60
  -6   4   6   -1.10    3.00
   6   4  -6    0.30    3.10
   6  -4  -6   -0.90    2.50
  -6  -4   6   -0.20    3.10
   6   5  -6   -0.40    3.10
  -6  -5   6    1.60    2.50
   6  -5  -6    0.10    3.00
  -6   5   6   -0.80    2.60
   6  -6  -6   33.80    3.50
   6   6  -6   31.30    3.50
  -6   6   6   37.50    3.40
  -6  -6   6   17.50    3.30
  -6  -7   6   -0.50    3.00
  -6   7   6    0.90    2.90
   6   7  -6    0.50    2.50
  -6   8   6   14.20    3.40
  -6  -8   6    9.40    3.20
   6   8  -6   14.90    3.30
   6   9  -6    4.20    3.40
  -6  -9   6    3.00    2.80
  -6   9   6    6.70    3.20
  -6  10   6   16.40    4.10
  -6 -10   6   15.90    3.10
  -6 -11   6    9.10    2.90
  -6  11  -6    2.90    4.20
  -6  11   6    2.80    3.90
  -6 -12   6   15.40    3.20
  -6 -12  -6    3.20    3.90
  -6  12   6   -1.90    3.80
  -6  12  -6   -1.20    4.50
  -6  13  -6    7.10    5.10
  -6 -13  -6    7.70    4.00
  -6 -13   6    8.00    3.60
  -6  13  -6    6.80    5.30
  -6 -14   6    1.80    3.30
  -6 -14  -6   -2.60    4.20
  -6 -15   6    6.70    3.70
  -6 -15  -6   12.00    4.20
  -6 -16   6    4.00    3.40
  -6 -16  -6    0.90    3.80
  -6 -17  -6    1.80    4.50
  -6 -17   6    1.70    4.30
  -6 -18   6    2.10    4.50
  -6 -18  -6    0.00    4.50
  -6 -19  -6    1.30    5.10
   7   1  -6    0.80    2.60
   7  -1  -6    2.10    3.10
  -7   1   6   -0.10    2.50
  -7  -1   6    0.90    2.50
   7  -2  -6    5.40    3.20
   7   2  -6    6.00    2.50
  -7  -2   6    9.10    2.50
  -7   2   6    4.10    3.10
  -7  -3   6    6.90    2.50
  -7   3   6    7.80    2.50
   7  -3  -6    7.40    2.50
   7   3  -6    7.80    2.50
  -7  -4   6    1.00    2.40
   7  -4  -6    0.30    3.30
   7   4  -6    0.20    3.00
  -7   4   6   -1.50    2.60
   7   5  -6   30.10    2.80
   7  -5  -6   38.00    3.40
  -7   5   6   42.20    3.40
  -7  -5   6   35.50    2.80
   7  -6  -6    5.80    3.10
  -7   6   6    3.80    3.00
   7   6  -6    4.10    2.60
  -7  -6   6    2.90    2.70
  -7  -7   6   54.19    2.90
   7   7  -6   48.30    3.00
   7  -7  -6   45.80    3.80
  -7   7   6   75.69    3.60
  -7   8   6   30.10    3.10
   7   8  -6   21.50    3.30
  -7  -8   6   20.90    3.30
  -7   9   6   37.50    3.80
  -7  -9   6   25.00    3.50
  -7  10   6   32.40    4.10
  -7 -10   6   22.30    3.40
  -7  11  -6    4.60    4.30
  -7 -11   6    6.20    2.90
  -7  11   6    3.00    3.80
  -7 -12  -6    9.80    3.60
  -7  12   6    7.00    4.10
  -7 -12   6    6.30    3.50
  -7  12  -6    8.20    4.40
  -7  13  -6    6.10    4.20
  -7  13   6    5.40    4.10
  -7 -13  -6   10.60    3.60
  -7 -14  -6   20.30    4.60
  -7  14  -6    6.00    5.20
  -7  14  -6    6.10    5.10
  -7 -15  -6   22.90    4.00
  -7 -15   6   20.40    3.70
  -7 -16   6    2.30    3.70
  -7 -16  -6    2.30    3.70
  -7 -17  -6    2.30    3.80
  -7 -17   6    2.30    3.90
  -7 -18  -6    1.90    4.20
  -7 -18   6    1.60    4.20
  -8   0   6    0.70    2.40
   8   0  -6    0.80    2.90
   8  -1  -6    1.40    2.50
  -8  -1   6    5.60    2.30
  -8   1   6    3.30    3.00
   8   1  -6    2.90    2.30
   8  -2  -6    2.80    3.00
   8   2  -6    4.10    2.90
  -8   2   6    3.70    3.00
  -8  -2   6    6.90    2.30
   8  -3  -6    1.00    2.50
  -8   3   6    1.30    2.50
  -8  -3   6   -0.60    2.40
   8   3  -6    0.20    2.90
   8   4  -6    4.70    3.00
   8  -4  -6   -0.40    3.30
  -8   4   6    5.60    3.10
  -8  -4   6    2.20    2.90
  -8  -5   6    5.80    2.90
  -8   5   6    6.10    3.10
   8  -5  -6    4.80    3.20
   8   5  -6    3.10    2.60
  -8   6   6    3.70    3.00
   8   6  -6    1.90    3.10
   8  -6  -6    2.40    3.10
  -8  -6   6    5.10    2.40
   8  -7  -6    2.50    3.20
   8   7  -6    0.40    3.20
  -8  -7   6   -2.40    3.00
  -8   7   6    3.20    2.80
   8  -8  -6    7.80    3.10
  -8  -8   6   20.60    3.20
  -8   8   6    8.50    3.00
  -8   9   6   23.40    3.20
  -8  -9   6   13.90    3.30
  -8  10  -6    1.10    3.60
  -8 -10   6   -0.30    2.70
  -8  10   6   -1.00    3.40
  -8  11   6   14.40    3.80
  -8 -11  -6   12.40    3.50
  -8  11  -6   17.30    4.00
  -8 -11   6   13.10    2.90
  -8  12  -6   11.90    4.40
  -8 -12  -6   15.00    3.50
  -8  12   6   12.10    4.10
  -8 -12   6   17.80    3.30
  -8 -13  -6   -1.40    4.00
  -8  13   6   -0.50    4.00
  -8  13  -6   -1.80    4.40
  -8  14  -6    3.60    4.40
  -8  14   6    2.30    4.10
  -8 -14  -6    7.40    3.80
  -8  15  -6   21.10    7.00
  -8  15  -6   28.40    7.10
  -8 -15  -6   38.90    3.90
  -8 -16  -6    2.00    3.80
  -8 -16   6   -0.50    3.50
  -8 -17  -6    6.10    4.00
  -8 -17   6    7.20    4.00
  -8 -18   6    1.00    3.90
  -8 -18  -6    0.40    4.30
  -9   1   6    6.20    2.80
  -9  -1   6    5.10    2.20
   9  -1  -6   10.10    2.90
   9   1  -6    3.10    2.30
  -9   2   6    4.70    2.50
   9   2  -6    0.40    2.70
   9  -2  -6   -0.30    2.50
  -9  -2   6    4.90    2.30
   9  -3  -6   12.10    3.00
   9   3  -6   10.10    3.10
  -9  -3   6    8.90    2.50
  -9   3   6   16.50    3.00
   9  -4  -6   53.49    3.10
   9   4  -6   59.49    3.30
  -9   4   6   60.09    3.00
  -9  -4   6   65.49    3.20
   9   5  -6   27.60    3.30
  -9  -5   6   38.60    2.70
   9  -5  -6   40.00    3.00
  -9   5   6   48.40    2.90
   9  -6  -6   12.60    3.40
  -9  -6   6   18.60    2.60
  -9   6   6   22.00    2.60
   9   6  -6   13.50    2.60
  -9   7   6  102.39    4.10
  -9  -7   6   89.49    3.10
  -9   8   6    7.50    3.10
  -9  -8   6    9.30    3.10
  -9   9  -6   32.20    4.10
  -9   9   6   50.29    3.70
  -9  -9   6   80.79    3.50
  -9 -10   6    8.70    3.10
  -9  10   6    7.00    3.40
  -9 -10  -6    9.90    3.00
  -9  10  -6   11.60    3.30
  -9  11   6    3.50    3.50
  -9 -11   6   10.40    3.10
  -9  11  -6    5.00    3.80
  -9 -11  -6    3.40    3.10
  -9  12  -6    4.60    3.90
  -9  12   6    0.10    3.70
  -9 -12  -6    4.10    3.40
  -9 -12   6    9.90    3.20
  -9  13  -6   47.60    5.10
  -9 -13  -6   48.60    4.10
  -9  13   6   26.70    4.40
  -9  14   6   20.90    4.70
  -9  14  -6   18.80    4.60
  -9 -14  -6   19.30    4.40
  -9 -15   6    4.70    3.30
  -9  15  -6    0.30    4.90
  -9 -15  -6    1.70    3.60
  -9 -16  -6    0.00    4.10
  -9 -17  -6    6.20    4.20
  -9 -17   6    5.90    3.90
  -9 -18  -6    4.40    3.90
  -9 -18   6    3.00    4.00
 -10   0   6   56.29    2.70
  10   0  -6   40.20    3.20
 -10  -1   6   -1.50    2.40
  10   1  -6    1.80    2.40
  10  -1  -6    2.50    2.90
 -10   1   6    4.30    2.90
  10  -2  -6   28.50    2.70
 -10   2   6   34.50    3.10
  10   2  -6   39.00    3.10
 -10  -2   6   29.80    3.20
 -10   3   6    7.40    2.80
  10  -3  -6    5.90    2.80
  10   3  -6    4.70    2.50
 -10  -3   6    6.90    2.50
  10   4  -6   12.20    2.50
  10  -4  -6    6.70    2.60
 -10  -4   6   11.40    2.50
 -10   4   6   10.80    2.50
  10  -5  -6   -0.60    2.50
 -10   5   6    2.00    2.90
 -10  -5   6    2.20    2.90
 -10   6   6    0.50    3.00
 -10  -6   6    3.10    2.90
 -10  -7   6    3.30    2.90
 -10   7   6   -0.60    2.80
 -10   8  -6   31.80    3.40
 -10  -8   6   17.50    3.40
 -10   8   6   23.60    3.10
 -10  -9   6    2.40    2.80
 -10  -9  -6   -6.90    3.30
 -10   9  -6    0.00    3.20
 -10   9   6    2.80    3.10
 -10  10   6    0.50    3.20
 -10  10  -6   -4.20    3.40
 -10 -10  -6   -0.20    3.10
 -10 -10   6   16.00    3.00
 -10 -11   6   41.50    2.80
 -10 -11  -6   52.39    3.40
 -10  11   6   43.30    3.80
 -10  11  -6   56.89    4.20
 -10 -12  -6   25.10    3.10
 -10  12  -6   15.10    4.20
 -10  13   6    1.60    3.60
 -10  13  -6   -0.80    3.70
 -10  14  -6    3.30    4.30
 -10  14   6    0.30    4.10
 -10  15   6    2.30    4.30
 -10  15  -6    0.50    4.40
 -10  16  -6    1.00    5.40
 -10 -17  -6   -1.30    4.10
 -10 -17   6    0.10    3.90
  11  -1  -6    0.90    2.50
 -11  -1   6   -0.90    2.30
 -11   1   6    0.20    2.40
 -11   2   6   13.20    2.40
 -11  -2   6    8.80    2.40
 -11  -3   6   -0.60    2.80
 -11   3   6   -0.90    2.50
 -11  -4   6   10.60    2.90
 -11   4   6   10.60    2.90
 -11  -5   6    3.40    2.50
 -11   5   6    3.00    2.80
 -11   6   6   11.50    3.10
 -11  -6   6   16.20    2.90
 -11   7  -6   -0.20    3.10
 -11  -7   6    1.30    2.70
 -11   7   6   -0.40    3.00
 -11  -8   6    3.10    2.60
 -11   8   6   -0.60    2.70
 -11   8  -6   -2.00    3.00
 -11  -8  -6    2.30    3.00
 -11   9  -6   -0.40    3.30
 -11  -9   6   11.80    2.70
 -11  10  -6   11.60    3.70
 -11 -10  -6   11.70    2.50
 -11 -11  -6   15.00    2.70
 -11  11  -6    6.60    4.00
 -11  12  -6   17.30    4.10
 -11 -12   6   16.20    2.70
 -11  12   6   17.90    4.00
 -11 -12  -6   19.80    3.30
 -11  13  -6    8.90    3.70
 -11 -13   6   12.50    2.70
 -11  13   6   11.10    3.70
 -11 -14  -6   -0.30    3.60
 -11  14   6    1.50    4.00
 -11  14  -6    1.10    4.30
 -11  15   6    0.10    4.40
 -11  15  -6    2.90    4.80
 -11  16  -6    0.10    4.90
 -11  16   6   -0.30    4.30
 -12   0   6    2.80    3.00
 -12   1   6    0.50    2.50
 -12  -1   6    0.40    2.50
 -12   2   6   16.50    2.60
 -12  -2   6   20.80    2.70
 -12  -3   6   15.40    2.70
 -12   3   6   16.20    3.00
 -12   4   6    6.00    2.60
 -12  -4   6   18.50    3.30
 -12  -5   6   12.60    2.80
 -12   5   6    8.40    2.90
 -12   5  -6   11.40    2.70
 -12  -6  -6   -1.10    2.60
 -12   6   6    0.00    2.50
 -12   6  -6   -2.50    3.20
 -12   7  -6   13.30    2.70
 -12  -7  -6    2.90    3.20
 -12   7   6   11.50    2.50
 -12  -7   6   16.70    3.50
 -12  -8   6    3.70    3.30
 -12  -8  -6    3.70    3.20
 -12   8  -6   -0.80    3.00
 -12   9  -6   54.59    3.50
 -12  -9  -6   50.59    2.90
 -12  10  -6   73.09    4.10
 -12 -10   6   58.79    2.90
 -12  11  -6    2.50    3.70
 -12  13  -6    2.60    3.80
 -12  13   6   -0.60    3.70
 -12 -14  -6    2.20    3.30
 -12  14  -6    1.60    4.00
 -12  14   6    1.50    3.90
 -12  15  -6   -1.60    4.50
 -12  15   6    0.30    3.80
 -12  16  -6    3.50    4.70
 -12  16   6    1.90    4.80
 -13   1   6    0.90    2.60
 -13   2  -6   56.99    3.10
 -13  -2   6   70.49    3.10
 -13   2   6   66.49    3.20
 -13   3   6   45.00    3.50
 -13   3  -6   46.40    3.60
 -13  -3  -6   44.90    2.80
 -13   4  -6   19.60    3.10
 -13  -5   6    9.60    2.90
 -13  -5  -6   12.40    2.50
 -13   5   6    9.40    2.60
 -13   6   6  110.79    4.10
 -13  -6  -6  121.39    3.20
 -13  -7  -6   30.50    2.90
 -13   7  -6   40.00    2.90
 -13   8  -6   15.80    3.10
 -13   9  -6    0.00    3.10
 -13 -10  -6    2.50    2.70
 -13 -11  -6   -2.30    3.00
 -13  11  -6   -0.10    3.70
 -13  12   6    3.70    3.80
 -13  12  -6    4.40    3.70
 -13  13   6    0.60    4.00
 -13  13  -6    4.30    3.90
 -13  14  -6   -4.00    4.20
 -13  14   6   -1.10    3.40
 -13  15   6   -0.90    4.20
 -13  15  -6    2.40    4.10
 -14   0   6   11.70    2.60
 -14   1  -6    0.10    2.80
 -14   1   6    0.60    2.50
 -14   2   6   13.40    2.60
 -14   2  -6    8.20    2.50
 -14   3  -6    1.20    2.90
 -14  -3  -6    4.70    2.50
 -14  -4   6    2.80    2.80
 -14  -5   6    5.30    2.70
 -14  -5  -6    2.20    2.70
 -14   5   6    0.70    2.60
 -14  -6   6    2.20    2.70
 -14  -6  -6    2.90    2.60
 -14   7  -6   28.70    2.80
 -14   7   6   22.50    2.80
 -14  -7  -6   32.00    2.80
 -14  -8  -6    2.20    2.70
 -14   8   6    1.10    2.70
 -14  10  -6    2.30    3.50
 -14 -11   6   -0.10    3.00
 -14  11  -6   -2.20    3.40
 -14  12  -6    0.10    3.40
 -14  13  -6    0.50    4.20
 -14  14  -6    6.80    4.00
 -14  14   6    1.70    3.60
 -15  -1   6   -0.10    2.70
 -15  -2   6   22.80    3.10
 -15   2  -6   25.80    2.70
 -15   2   6   25.50    2.80
 -15  -3   6    5.20    2.70
 -15  -3  -6    0.30    2.70
 -15   3   6    3.80    2.60
 -15   4   6   56.29    3.10
 -15  -4   6   51.69    3.10
 -15  -5  -6    1.70    2.50
 -15   5   6   -1.20    2.80
 -15  -6   6    3.30    2.80
 -15   7   6   -0.50    2.60
 -15  -7   6    4.30    2.80
 -15   7  -6    2.90    2.90
 -15   8   6   11.40    3.00
 -15  13   6    0.80    3.80
 -15  13  -6   -1.10    3.60
 -16   1   6    1.50    2.70
 -16   2  -6   -2.50    2.50
 -16  -5   6   -2.60    2.60
 -16   8  -6    5.10    2.90
 -16  -8   6    4.50    2.80
 -16  11  -6    4.00    3.60
 -17  -1   6   -1.60    2.60
 -17  -2   6    6.40    2.80
 -17  -3   6   -0.10    2.70
 -17   3   6   -1.10    2.80
 -17   6  -6    2.00    2.70
  -1   1   7   25.40    3.50
   1   1  -7   24.90    3.50
   1  -1  -7   21.90    3.50
  -1  -1   7   23.90    4.10
  -1  -2   7   42.10    3.40
  -1   2   7   65.39    4.00
   1  -2  -7   23.40    4.60
   1   2  -7   35.10    3.40
   1   3  -7   33.80    3.80
   1  -3  -7   29.00    3.30
  -1  -3   7   33.70    4.00
   1   4  -7  417.76    6.60
  -1   4  -7  385.66    7.10
  -1  -4   7  216.88    7.70
   1   5  -7   26.10    3.40
  -1  -5   7   23.10    3.70
  -1   5  -7   40.70    3.90
  -1   6  -7   46.10    4.70
   1   6  -7   56.09    3.70
  -1  -6   7   92.49    4.20
  -1  -7   7    2.60    2.90
   1   7  -7    3.30    3.30
  -1   7  -7    2.50    3.40
   1   8  -7   22.80    3.50
  -1   8  -7   18.20    4.00
   1  -8  -7   19.20    3.90
  -1  -8   7   21.70    3.90
   1   9  -7   17.10    3.60
  -1   9  -7   13.40    3.60
  -1  -9   7   14.80    3.70
   1  -9  -7   10.30    3.40
   1  10  -7    7.20    3.40
   1 -10  -7    6.30    3.50
  -1  10  -7    7.30    3.60
   1  11  -7   11.00    4.00
   1 -11  -7    8.70    3.90
  -1  11  -7   10.60    4.40
   1 -12  -7    1.80    4.40
  -1 -12  -7    2.00    3.70
  -1  12  -7    1.00    5.60
  -1 -13  -7   -0.10    4.10
  -1 -14  -7    0.70    4.90
  -1 -14  -7   -0.20    5.20
  -2   0   7   -0.60    3.70
   2   0  -7    0.70    3.70
   2   1  -7   18.70    3.80
  -2  -1   7   16.00    3.20
   2  -1  -7   10.90    3.50
  -2   1   7   14.50    4.10
   2   2  -7   44.60    3.50
   2  -2  -7   60.89    3.90
  -2  -2   7   66.49    3.60
  -2   2   7   68.79    4.30
   2   3  -7  461.05    6.30
   2  -3  -7  635.24    9.30
  -2  -3   7  463.55    9.50
  -2   3   7  819.22    8.40
   2   4  -7  345.97    5.80
  -2  -4   7  503.25    6.60
  -2   4   7  479.95    7.20
   2   5  -7   15.30    2.80
  -2   5   7   25.80    3.60
  -2  -5   7   10.30    3.50
  -2  -6   7   12.90    3.60
   2   6  -7   17.20    3.40
  -2  -7   7   25.60    3.70
  -2   7  -7   31.50    4.10
   2   7  -7   37.80    3.80
   2  -8  -7    3.70    3.70
  -2  -8   7    4.30    3.00
   2   8  -7    6.10    3.40
  -2   8  -7    3.50    3.20
  -2  -9   7    6.30    4.60
   2   9  -7   22.70    3.50
   2  -9  -7   17.70    3.80
  -2   9  -7   16.40    4.20
  -2  10  -7   10.90    3.70
   2  10  -7   18.30    3.50
   2 -10  -7   11.90    3.70
  -2 -10   7   11.20    3.50
   2 -11  -7    2.00    4.00
   2  11  -7   -0.70    3.70
  -2  11  -7    1.70    4.30
  -2 -11   7    0.60    3.60
  -2 -12   7   59.79    5.40
   2 -12  -7    0.90    4.90
  -2  12  -7   -4.70    7.80
  -2 -14  -7    7.40    4.60
  -2 -14  -7    5.20    4.00
  -2 -15  -7    0.70    4.70
  -2 -15  -7    0.80    4.40
  -3   1   7  344.17    5.50
  -3  -1   7  347.27    5.50
   3  -1  -7  281.77    6.30
   3   1  -7  341.37    5.60
   3   2  -7  261.77    5.10
  -3  -2   7  178.08    5.90
   3  -2  -7  223.28    5.40
  -3   2   7  287.77    5.50
  -3   3   7  295.47    5.60
   3  -3  -7  245.38    5.90
   3   3  -7  293.57    5.40
  -3  -3   7  215.38    4.50
   3  -4  -7    7.30    3.30
  -3  -4   7    4.10    3.40
   3   4  -7    7.80    3.30
  -3   4   7    9.70    3.10
  -3  -5   7    7.00    2.70
   3   5  -7    6.60    3.00
  -3   5   7    8.80    3.40
   3   6  -7    0.60    3.30
  -3  -6   7    1.10    3.30
  -3   6   7    1.50    2.90
  -3  -7   7    4.80    3.10
   3   7  -7    2.50    3.50
  -3   7   7    2.80    2.90
   3  -8  -7   28.80    4.00
   3   8  -7   33.40    3.40
  -3  -8   7   40.20    3.70
   3  -9  -7    2.20    3.30
   3   9  -7    1.70    3.40
  -3  -9   7   -0.60    2.90
  -3   9  -7   -1.20    3.20
  -3 -10   7   13.20    3.10
   3 -10  -7    8.60    3.40
  -3  10  -7    6.80    3.60
   3  10  -7    7.30    3.40
  -3 -11   7   36.60    4.00
  -3  11  -7   25.90    4.80
   3  11  -7   31.30    4.10
   3 -11  -7   24.90    4.40
  -3  12  -7   26.90    6.60
   3 -12  -7   29.10    5.40
  -3 -13   7   30.70    4.40
  -3 -14  -7   38.80    5.00
  -3 -14   7   34.70    4.80
  -3 -15  -7    1.60    4.40
  -3 -16  -7    0.10    4.40
  -3 -16  -7    1.70    4.30
  -3 -17  -7    0.20    6.60
  -3 -17  -7    0.60    6.60
  -4   0   7    1.90    3.10
   4   0  -7   -0.80    3.70
   4  -1  -7  105.89    4.20
  -4   1   7  128.09    4.40
  -4  -1   7  128.59    4.10
   4   1  -7  103.99    4.00
  -4   2   7   43.10    3.60
  -4  -2   7   27.50    4.20
   4   2  -7   45.30    4.00
   4  -2  -7   32.30    3.70
  -4   3   7   20.20    2.90
   4   3  -7   20.00    3.60
  -4  -3   7    6.70    3.70
   4  -3  -7   17.60    3.60
   4  -4  -7   75.39    3.70
   4   4  -7   87.69    4.00
  -4   4   7   80.89    4.00
  -4  -4   7   82.69    3.90
   4  -5  -7    0.80    3.30
  -4   5   7    2.20    3.30
  -4  -5   7   -3.90    3.30
   4   5  -7   -0.20    3.20
  -4   6   7  124.09    4.70
   4   6  -7   91.49    4.00
  -4  -6   7  140.79    4.20
   4   7  -7    6.70    3.10
  -4  -7   7    5.60    2.90
  -4   7   7    5.40    3.10
   4   8  -7    7.00    3.10
  -4  -8   7    9.40    3.00
  -4   8   7    7.10    3.50
  -4   9   7    5.40    3.30
   4  -9  -7    8.20    3.20
   4   9  -7    5.40    3.50
  -4  -9   7   31.10    3.60
   4  10  -7    1.50    3.10
  -4 -10   7    7.40    2.90
   4 -10  -7    6.30    3.50
  -4  11  -7    7.00    4.40
   4  11  -7    9.80    4.20
  -4 -11   7   35.20    3.50
   4 -11  -7   14.60    4.20
   4 -12  -7    3.90    4.50
  -4  12  -7    1.80    5.10
  -4 -12   7    5.10    3.50
  -4 -13   7    0.60    3.50
  -4 -14   7   11.70    4.10
  -4 -14  -7   10.80    4.60
  -4 -15   7   -1.40    3.80
  -4 -15  -7    0.10    4.20
  -4 -16  -7    0.00    4.00
  -4 -16   7    2.80    4.20
  -4 -17  -7   -0.50    4.60
  -4 -18  -7    2.80    5.90
  -4 -18  -7    1.00    5.70
   5  -1  -7   81.49    3.70
  -5   1   7    7.10    3.90
   5   1  -7   24.00    3.20
  -5  -1   7   33.50    3.10
   5  -2  -7   89.09    3.90
  -5   2   7  112.89    4.20
   5   2  -7   88.79    3.70
  -5  -2   7   65.99    4.50
   5  -3  -7   14.20    3.30
  -5  -3   7    7.30    3.40
   5   3  -7   10.70    3.40
  -5   3   7   15.60    3.40
  -5  -4   7   26.20    2.90
   5  -4  -7   31.60    3.00
  -5   4   7   31.80    3.50
   5   4  -7   29.40    3.40
  -5  -5   7    7.40    3.30
  -5   5   7   16.80    3.40
   5  -5  -7   16.40    2.80
   5   5  -7   17.20    3.20
   5   6  -7    0.50    3.30
   5  -6  -7   -0.30    3.10
  -5   6   7   -0.10    3.00
  -5  -6   7    2.30    3.20
  -5   7   7   20.00    3.20
   5   7  -7   15.30    2.60
  -5  -7   7   16.60    3.00
  -5   8   7   -0.70    3.10
   5   8  -7    0.60    2.80
  -5  -8   7    2.30    2.80
   5   9  -7    1.80    3.00
  -5  -9   7    1.30    2.90
  -5   9   7    1.70    3.20
   5  -9  -7    1.20    3.20
   5 -10  -7    1.90    3.50
  -5 -10   7    3.90    2.90
  -5  10   7   -0.30    3.60
   5  10  -7    0.90    3.40
   5 -11  -7    5.70    4.20
  -5 -11   7    6.40    3.00
  -5  12  -7   13.40    4.60
  -5  12  -7   17.00    5.10
  -5 -12   7   19.40    3.20
  -5  13  -7    0.30    5.40
  -5  13  -7    0.90    5.60
  -5 -13  -7   -1.40    4.20
  -5 -13   7    0.30    3.50
  -5 -14   7    5.60    3.50
  -5 -14  -7    4.40    4.00
  -5 -15   7   12.00    4.00
  -5 -15  -7    9.60    3.90
  -5 -16  -7   45.70    4.70
  -5 -16   7   32.80    4.40
  -5 -17   7    0.80    4.50
  -5 -17  -7    0.40    4.50
  -5 -18  -7    1.30    4.70
  -5 -19  -7   -0.70    5.90
  -5 -19  -7   -1.10    5.80
  -6   0   7   -1.30    2.70
   6   0  -7   -1.60    3.30
  -6  -1   7   83.89    3.30
   6   1  -7   75.99    3.20
   6  -1  -7   67.39    3.30
  -6   1   7   79.69    3.20
  -6  -2   7  621.14    5.80
   6  -2  -7  448.16    6.50
   6   2  -7  583.94    6.10
  -6   2   7  595.84    6.00
  -6   3   7    5.40    2.60
  -6  -3   7    4.90    2.50
   6   3  -7    3.80    3.10
   6  -3  -7    4.80    3.20
  -6   4   7   11.20    3.20
  -6  -4   7    4.10    2.50
   6   4  -7   11.30    3.00
   6  -4  -7    7.60    2.70
   6  -5  -7   24.00    3.40
  -6   5   7   28.30    2.80
   6   5  -7   20.80    2.80
  -6  -5   7   27.20    2.80
  -6   6   7  641.24    7.20
   6  -6  -7  648.14    7.30
   6   6  -7  491.15    5.80
  -6  -6   7  524.45    5.60
  -6  -7   7    0.80    2.50
  -6   7   7   -0.90    3.20
   6   7  -7    2.90    3.20
   6   8  -7   -0.70    3.10
  -6   8   7   -0.70    2.80
  -6  -8   7    2.90    3.00
   6   9  -7    2.50    3.10
  -6  -9   7    3.60    3.00
  -6   9   7    2.60    2.70
   6  10  -7    9.90    3.30
  -6 -10   7   14.10    3.10
   6 -10  -7    8.60    4.10
  -6  10   7    2.50    4.20
   6 -11  -7    1.90    3.80
  -6  11   7    2.40    3.90
  -6 -11   7    1.80    3.10
  -6  12  -7    0.10    4.30
  -6 -12   7    1.40    2.90
  -6  13  -7   -1.50    4.90
  -6 -13  -7    1.00    3.50
  -6  13  -7    0.80    4.80
  -6 -13   7    6.90    3.40
  -6 -14  -7   -4.40    3.70
  -6  14  -7    0.30    7.00
  -6 -14   7    0.00    3.50
  -6  14  -7    0.40    6.50
  -6 -15   7    4.20    3.60
  -6 -15  -7    1.60    4.30
  -6 -16  -7    0.40    3.70
  -6 -16   7   -2.70    3.70
  -6 -17   7    0.60    4.30
  -6 -17  -7   -0.30    4.30
  -6 -18  -7    4.80    4.60
  -6 -18   7    2.20    4.40
  -6 -19  -7    0.60    4.90
   7   1  -7   24.30    2.80
  -7  -1   7   23.30    3.30
  -7   1   7   30.40    2.70
   7  -1  -7   28.80    2.70
  -7   2   7   29.70    2.80
   7   2  -7   21.30    2.60
   7  -2  -7   18.60    2.80
  -7  -2   7   23.50    2.60
   7  -3  -7   -1.10    3.00
   7   3  -7   -0.70    2.40
  -7  -3   7   -0.70    2.90
  -7   3   7    1.60    3.00
   7  -4  -7   48.90    3.70
   7   4  -7   62.39    3.30
  -7  -4   7   68.89    2.90
  -7   4   7   65.89    3.70
   7  -5  -7   54.59    3.80
   7   5  -7   49.60    2.90
  -7  -5   7   39.00    3.70
  -7   5   7   73.59    3.20
   7   6  -7    5.10    2.60
  -7   6   7    7.30    2.80
   7  -6  -7    4.40    3.00
  -7  -6   7    2.70    2.60
   7   7  -7   70.09    3.10
  -7   7   7  118.59    4.00
  -7  -7   7   59.39    3.90
   7  -7  -7  121.59    4.10
   7   8  -7   22.60    3.10
  -7  -8   7   28.40    3.10
  -7   8   7   22.30    3.40
   7   9  -7    4.50    3.40
  -7  -9   7   12.80    3.10
  -7   9   7    5.80    3.00
  -7  10   7   35.70    3.90
  -7 -10   7   32.20    3.40
  -7 -11   7    5.30    3.00
  -7  11   7    4.20    3.80
  -7  12  -7    3.80    4.50
  -7  12   7    2.00    3.80
  -7 -12   7    3.20    3.40
  -7  13  -7    1.00    4.50
  -7 -13  -7   -2.00    3.60
  -7 -13   7    1.70    3.30
  -7  13   7   -0.40    3.80
  -7  14  -7   35.40    5.50
  -7  14  -7   46.80    5.50
  -7 -14  -7   54.29    4.60
  -7 -15   7    8.30    3.50
  -7 -15  -7    2.50    4.10
  -7 -16   7    0.20    3.60
  -7 -16  -7    1.70    3.90
  -7 -17   7    7.40    4.30
  -7 -17  -7    1.80    4.30
  -7 -18  -7   -1.00    4.30
  -7 -18   7    0.90    4.00
   8   0  -7   -1.40    2.80
  -8   0   7   -2.20    2.30
   8   1  -7   57.49    2.80
   8  -1  -7   44.40    3.00
  -8  -1   7   69.59    2.80
  -8   1   7   71.99    3.00
  -8  -2   7   61.39    3.20
   8   2  -7   35.10    3.10
  -8   2   7   58.19    2.80
   8  -2  -7   36.50    3.40
  -8  -3   7   15.20    3.00
   8  -3  -7    9.80    2.70
  -8   3   7   16.00    3.00
   8   3  -7    9.60    3.00
  -8  -4   7  118.49    3.20
  -8   4   7  122.99    3.50
   8  -4  -7   91.09    4.20
   8   4  -7   76.99    3.00
  -8  -5   7    3.90    3.00
  -8   5   7    6.40    2.90
   8   5  -7    2.90    2.50
   8  -5  -7    1.40    3.20
  -8   6   7    4.70    3.10
   8   6  -7    2.30    2.50
   8  -6  -7    4.40    3.00
  -8  -6   7    6.70    2.90
   8  -7  -7   24.50    3.50
  -8   7   7   36.60    3.40
   8   7  -7   25.50    3.20
  -8  -7   7   21.50    3.40
   8  -8  -7   12.20    3.20
  -8   8   7   15.00    3.10
  -8  -8   7   12.00    3.10
   8   8  -7    6.50    3.10
  -8   9   7   31.90    3.40
  -8  -9   7   25.30    3.20
  -8 -10   7    0.00    2.40
  -8  10   7    2.00    3.30
  -8  11   7   28.40    4.10
  -8  11  -7   27.60    4.50
  -8 -11   7   38.50    3.10
  -8  12   7    3.60    3.60
  -8 -12  -7    2.90    3.30
  -8  12  -7    1.40    4.00
  -8  13   7   16.10    4.40
  -8  13  -7   13.70    4.40
  -8 -13  -7   21.60    4.10
  -8  14  -7    0.60    4.10
  -8 -14  -7    0.20    4.00
  -8 -15  -7    1.40    3.40
  -8  15  -7   -1.10    5.90
  -8  15  -7    2.70    5.80
  -8 -16  -7    0.60    3.70
  -8 -16   7    0.90    3.60
  -8 -17  -7    0.90    4.20
  -8 -17   7    1.50    3.90
  -8 -18   7    1.50    4.10
  -8 -18  -7    2.20    4.00
   9   1  -7    2.60    2.70
  -9  -1   7    0.70    2.70
   9  -1  -7    5.20    2.40
  -9   1   7    5.40    2.90
   9  -2  -7    1.70    2.50
  -9  -2   7    2.50    2.20
  -9   2   7   -1.70    3.10
   9   2  -7    2.30    2.20
  -9  -3   7    7.60    2.30
   9   3  -7    7.50    2.40
   9  -3  -7    6.30    2.90
  -9   3   7   10.40    2.80
   9  -4  -7    2.20    2.50
   9   4  -7    1.50    2.40
  -9   4   7   -0.70    2.40
  -9  -4   7    1.60    2.80
   9  -5  -7   11.20    2.60
   9   5  -7    4.40    2.50
  -9   5   7   13.00    2.60
  -9  -5   7    9.50    2.40
   9   6  -7    6.40    3.20
  -9   6   7    5.80    3.00
   9  -6  -7    5.50    3.20
  -9  -6   7    8.60    2.50
   9   7  -7   32.20    3.20
   9  -7  -7   29.00    3.40
  -9  -7   7   34.30    2.70
  -9   7   7   35.70    3.50
  -9   8   7   39.30    3.40
   9  -8  -7   36.80    3.40
  -9  -8   7   35.40    2.70
  -9   9   7   48.70    3.40
  -9  -9   7   73.59    3.50
  -9  10  -7   26.20    3.90
  -9  10   7   23.90    3.60
  -9  11   7    2.70    3.20
  -9 -11   7    3.10    2.60
  -9  11  -7    6.60    3.80
  -9 -11  -7    3.10    3.30
  -9  12   7    3.10    3.50
  -9  12  -7    0.60    3.80
  -9 -12  -7   -0.10    3.20
  -9  13  -7    9.20    4.40
  -9 -13  -7   14.90    3.40
  -9  13   7   13.20    3.80
  -9  14  -7   14.20    4.80
  -9  14   7   14.60    4.10
  -9 -14  -7   18.90    4.00
  -9  15  -7   -0.60    4.70
  -9 -15   7    1.70    3.20
  -9 -15  -7    4.10    3.90
  -9 -16   7    0.10    3.70
  -9  16  -7    0.10    6.80
  -9 -16  -7   -0.80    4.20
  -9  16  -7    0.10    6.60
  -9 -17  -7    9.60    3.90
  -9 -17   7    8.50    3.80
  -9 -18  -7   -3.30    3.80
  -9 -18   7    1.30    4.00
 -10   0   7    0.40    2.30
  10   0  -7    2.20    2.40
 -10  -1   7   70.89    3.30
 -10   1   7   77.39    3.30
  10   1  -7   52.39    3.40
  10  -1  -7   68.29    3.00
 -10   2   7    2.20    2.90
  10  -2  -7    1.40    2.50
  10   2  -7   -0.10    2.40
 -10  -2   7   -2.00    2.60
  10   3  -7   38.30    3.10
 -10   3   7   59.59    3.20
 -10  -3   7   39.80    3.40
  10  -3  -7   40.60    3.20
 -10  -4   7  122.39    3.30
 -10   4   7  113.79    3.40
  10  -4  -7   80.09    4.00
  10   4  -7   73.39    3.70
  10  -5  -7   -0.70    3.10
 -10   5   7    0.20    2.90
  10   5  -7   -1.30    2.40
 -10  -5   7   -1.00    2.30
 -10   6   7    5.60    3.10
  10   6  -7    5.50    2.60
  10  -6  -7    3.40    3.30
 -10  -6   7    6.00    2.50
  10  -7  -7   12.40    2.80
 -10   7   7   14.20    2.90
 -10  -7   7   14.40    2.60
 -10  -8   7    6.90    2.50
 -10   8   7    4.80    2.90
 -10   9  -7   21.50    3.50
 -10   9   7   15.40    3.30
 -10  -9   7   17.20    3.20
 -10 -10  -7    6.20    3.00
 -10  10  -7    3.30    3.70
 -10 -10   7    3.40    2.50
 -10 -11   7   25.70    3.20
 -10  11  -7   -2.40    3.50
 -10  11   7    0.70    3.50
 -10 -11  -7   -0.20    3.20
 -10  12  -7   25.60    4.10
 -10 -13  -7    0.70    3.30
 -10  13   7    0.40    3.50
 -10  13  -7    0.90    3.80
 -10 -14  -7    1.60    3.40
 -10  14  -7    1.30    4.20
 -10  14   7   -2.40    3.90
 -10  15   7    2.10    4.30
 -10  15  -7    2.80    4.70
 -10 -15  -7    2.80    3.40
 -10  16  -7   -0.30    5.00
 -10 -17   7    1.90    3.60
 -10 -17  -7   -0.60    4.00
  11  -1  -7   12.40    2.50
  11   1  -7   18.30    2.60
 -11  -1   7   27.70    2.50
 -11   1   7   25.30    2.50
 -11   2   7    0.90    2.80
  11   2  -7    2.30    2.40
 -11  -2   7    4.00    2.30
  11  -2  -7    2.20    2.50
 -11  -3   7   31.70    2.60
  11  -3  -7   17.80    3.40
 -11   3   7   26.40    3.00
  11   3  -7   16.50    2.70
 -11   4   7   78.29    3.10
  11   4  -7   74.89    3.10
 -11  -4   7   70.79    2.90
  11  -4  -7   50.79    3.60
 -11   5   7    0.40    2.90
  11  -5  -7    1.70    2.50
 -11  -5   7   -1.60    2.90
 -11   6   7  137.19    4.10
 -11  -6   7   92.79    3.80
 -11   7   7    2.00    2.90
 -11  -7   7    1.30    2.50
 -11   8  -7    1.30    2.90
 -11   8   7    1.30    2.80
 -11  -9   7   15.00    3.30
 -11  -9  -7   17.10    3.20
 -11   9  -7   24.30    3.40
 -11   9   7   16.40    3.20
 -11 -10   7    0.60    2.30
 -11 -10  -7    1.30    2.50
 -11  10  -7   -2.80    3.50
 -11  11  -7    1.40    3.40
 -11 -11  -7    3.20    2.70
 -11  12   7   14.80    3.40
 -11 -12  -7   13.70    2.80
 -11  12  -7    9.80    4.10
 -11  13  -7   -3.40    3.80
 -11 -13  -7    1.20    3.40
 -11  13   7    0.50    3.40
 -11  14   7    0.60    3.80
 -11 -14  -7    2.10    3.20
 -11  14  -7    2.30    4.30
 -11  15  -7    1.00    4.60
 -11  15   7    0.70    4.40
 -11  16   7    0.30    4.50
 -11  16  -7   -1.00    4.70
 -12   0   7    2.80    2.50
 -12   1   7   36.00    3.20
 -12  -1   7   24.00    2.70
 -12  -2   7    1.30    2.80
 -12   2   7    2.00    2.40
 -12  -3   7   12.10    2.90
 -12   3   7   13.40    2.60
 -12   4   7   82.59    3.70
 -12  -4   7  101.19    3.20
 -12   5   7   24.30    2.70
 -12  -5   7   14.10    3.20
 -12  -6   7   10.60    2.60
 -12   6   7    0.40    2.90
 -12   7  -7   44.70    3.50
 -12  -7   7   35.80    3.00
 -12   7   7   31.80    3.20
 -12   8  -7    0.70    3.20
 -12  -8   7    3.50    2.60
 -12  -9   7   17.10    2.70
 -12   9  -7    2.90    3.50
 -12  -9  -7   10.00    2.70
 -12  10  -7   26.70    3.70
 -12  11  -7   14.50    4.20
 -12  12   7    2.00    3.50
 -12  13   7    3.10    3.10
 -12  13  -7   -2.90    3.80
 -12 -14  -7    4.50    3.40
 -12  14  -7    3.10    3.90
 -12  14   7    0.00    3.80
 -12  15  -7   -3.00    4.40
 -12  15   7   -0.40    4.10
 -12  16  -7    0.10    4.60
 -12  16   7   -1.00    4.60
 -13   1   7    1.20    3.10
 -13  -2   7   13.10    3.40
 -13   2   7   16.00    2.70
 -13   3   7   66.89    3.10
 -13   4   7   14.70    2.80
 -13  -4   7   22.00    2.90
 -13   5  -7    2.90    2.60
 -13  -5   7    3.30    2.60
 -13  -6   7   -1.40    2.70
 -13   6   7   -1.30    2.50
 -13  -6  -7   -0.20    2.50
 -13  -7  -7   -0.90    2.80
 -13   7  -7    0.80    2.90
 -13  -9  -7    0.80    2.80
 -13   9  -7    0.50    3.40
 -13  10  -7    0.10    3.20
 -13 -10   7   -0.70    2.70
 -13 -11  -7   11.70    2.90
 -13  11  -7    8.50    3.80
 -13  12   7    6.90    3.30
 -13  12  -7    8.30    3.50
 -13  13   7   -1.00    3.70
 -13  13  -7    0.20    4.10
 -13 -14  -7   -0.80    3.00
 -13  14  -7   -0.40    3.90
 -13  14   7   -0.20    3.70
 -13  15  -7    1.50    4.20
 -13  15   7    2.00    4.00
 -14   0   7    2.70    2.50
 -14  -1   7    8.00    2.80
 -14   1  -7   10.60    2.50
 -14   2   7    3.20    2.50
 -14  -2  -7    2.40    2.50
 -14   2  -7   -0.90    2.50
 -14  -3  -7   21.60    2.80
 -14   3   7   12.80    2.80
 -14   3  -7   21.40    3.10
 -14  -3   7    9.80    3.10
 -14   4   7   -3.20    2.60
 -14  -4   7    2.30    2.90
 -14  -6   7    2.40    3.00
 -14  -6  -7   -1.20    2.70
 -14   7  -7   28.50    2.70
 -14  10  -7   -0.80    3.40
 -14 -11   7    2.90    3.00
 -14  11  -7    1.60    3.50
 -14  12  -7    9.60    3.60
 -14  13  -7    1.70    4.00
 -14  13   7    1.60    3.60
 -14  14  -7    6.60    4.30
 -14  14   7    1.10    3.80
 -15   1  -7   -3.10    2.50
 -15  -1   7    1.80    2.50
 -15  -2  -7   17.00    3.00
 -15  -2   7   21.60    3.20
 -15   3  -7    5.70    2.60
 -15  -3   7    2.00    2.80
 -15   3   7    7.10    2.60
 -15   4   7   21.70    3.00
 -15  -4   7   30.10    3.00
 -15  -6  -7   10.80    2.70
 -15  -6   7   15.40    2.90
 -15   7   7    2.10    2.50
 -15   7  -7    0.80    2.60
 -15  -7  -7    0.80    2.60
 -15  -8  -7    4.40    2.70
 -15   8   7    3.20    2.70
 -15   9  -7    1.50    3.10
 -15   9   7    0.50    2.50
 -15  13  -7   -0.50    3.60
 -15  13   7   -2.30    3.50
 -16   1  -7   73.79    3.00
 -16   1   7   65.19    3.10
 -16  -5   7   -2.80    2.70
 -16  -7   7    0.60    2.70
 -16   9  -7    7.00    3.40
 -16  10  -7    2.80    3.20
 -17   2   7   -1.40    2.60
 -17  -4   7    7.00    2.80
 -17   8  -7   -1.40    3.10
   0   0  -8    8.70    3.20
   0  -1  -8    0.60    3.20
   0   1  -8    1.70    3.20
   0   2  -8  692.13    8.70
   0   3  -8   -0.10    3.30
   0   4  -8 1496.95   11.40
   0   5  -8   -0.90    3.10
   0   6  -8  213.48    7.50
   0   7  -8    2.80    3.30
   0   8  -8    5.90    3.30
   0  -9  -8    1.30    3.20
   0   9  -8    0.80    3.10
   0 -10  -8   13.10    3.20
   0  10  -8   13.90    3.50
   0  11  -8    0.10    3.60
   0 -11  -8   -0.30    3.30
   0 -12  -8   10.10    3.90
   0  12  -8   12.80    4.70
   0 -13  -8   -0.60    4.20
   0 -14  -8   -0.60    5.40
  -1  -1   8  558.24    6.90
   1  -1  -8  446.86    7.10
   1   1  -8  549.15    7.10
  -1   2   8   72.39    4.80
  -1  -2   8   76.69    3.90
   1  -2  -8   51.19    4.30
   1   2  -8   68.19    3.70
   1   3  -8    9.40    3.40
  -1  -3   8    4.90    3.30
   1  -3  -8    9.20    3.40
  -1   4  -8  732.63   10.30
   1   4  -8  615.74    7.30
  -1  -4   8  577.14   10.30
   1  -4  -8  830.82    9.70
   1   5  -8  262.57    5.40
  -1  -5   8  405.76    6.70
  -1   5  -8  414.66    6.90
   1   6  -8  112.89    4.30
  -1  -6   8  112.49    4.80
  -1   6  -8   75.39    5.10
  -1   7  -8   23.30    3.90
   1   7  -8   37.10    3.50
  -1   8  -8   18.20    3.60
   1   8  -8   18.50    3.50
  -1  -8   8   20.30    3.80
  -1   9  -8   28.40    4.10
   1  -9  -8   22.70    4.00
   1   9  -8   30.60    3.60
   1  10  -8    4.40    3.20
  -1  10  -8    5.70    3.40
   1 -10  -8    3.20    3.20
  -1 -11  -8    1.40    3.70
  -1  11  -8    4.20    4.00
   1 -11  -8    2.20    3.60
   1  11  -8    4.30    3.70
  -1 -12  -8    8.10    3.80
   1 -12  -8   11.40    4.20
  -1  12  -8   15.00    4.60
   1  12  -8   14.30    4.10
   1 -13  -8    4.40    5.00
  -1 -13  -8    2.20    4.00
  -1 -14  -8    1.30    4.60
  -1 -15  -8    7.40    5.50
  -1 -15  -8   10.40    6.00
   2   0  -8    8.70    3.20
  -2   0   8    9.70    3.00
   2   1  -8   61.89    3.50
   2  -1  -8   62.19    4.40
  -2  -1   8   55.29    4.60
  -2   1   8   95.89    3.70
   2  -2  -8  110.89    4.90
   2   2  -8  109.39    4.00
  -2  -2   8   75.89    5.00
  -2   2   8  114.99    4.70
   2   3  -8   21.40    3.80
   2  -3  -8   34.60    3.50
  -2   3   8   41.80    3.60
  -2  -3   8   28.40    3.70
  -2  -4   8   15.40    3.40
  -2   4   8   23.70    3.50
   2  -4  -8   23.70    3.60
   2   4  -8   18.10    2.70
  -2   5   8  114.69    5.40
  -2  -5   8  158.28    4.60
   2   5  -8  130.59    4.30
   2   6  -8  198.08    4.90
  -2  -6   8  252.17    5.70
   2   7  -8   67.49    3.70
  -2  -7   8   46.20    4.00
  -2   7  -8   44.60    4.30
   2   8  -8   49.80    3.50
  -2   8  -8   54.39    4.60
  -2  -8   8   83.39    3.90
   2  -9  -8   -1.60    3.40
   2   9  -8    1.00    3.20
  -2  -9   8   -0.90    3.50
  -2   9  -8    0.80    3.00
   2  10  -8   48.70    3.70
   2 -10  -8   34.80    4.00
  -2  10  -8   43.90    4.30
  -2 -10   8   45.70    4.00
   2 -11  -8    2.40    3.50
  -2 -11   8    3.30    3.40
   2  11  -8    3.20    3.70
  -2  11  -8    4.30    3.60
   2  12  -8   20.90    4.40
   2 -12  -8   15.60    4.70
  -2  12  -8   18.70    5.20
   2 -13  -8    7.10    5.50
  -2 -14  -8    0.60    4.00
  -2 -15  -8   -0.80    3.80
  -2 -15  -8   -1.00    4.30
  -2 -16  -8   -0.80    5.20
  -2 -16  -8    0.40    5.40
  -2 -17  -8    0.00    1.30
   3  -1  -8  633.44    7.40
   3   1  -8  575.34    7.30
  -3   1   8  679.53    7.00
  -3  -1   8  576.94    6.40
  -3   2   8   32.00    3.80
   3   2  -8   23.70    3.10
   3  -2  -8   24.60    3.20
  -3  -2   8   15.40    3.70
   3  -3  -8   94.19    4.70
   3   3  -8  107.49    3.80
  -3  -3   8   63.89    4.40
  -3   3   8  128.39    4.40
  -3  -4   8  127.99    6.20
   3  -4  -8  237.78    5.60
   3   4  -8  181.48    4.20
  -3   4   8  292.37    5.90
  -3  -5   8  426.56    5.70
  -3   5   8  491.85    7.80
   3   5  -8  311.97    7.10
  -3   6   8   68.59    4.20
  -3  -6   8   48.40    3.70
   3   6  -8   52.39    3.60
  -3  -7   8    0.20    3.00
   3   7  -8   -3.00    3.10
  -3   7   8   -0.80    3.00
  -3  -8   8   86.19    4.50
   3   8  -8  132.59    4.40
  -3   9  -8    4.80    3.40
  -3  -9   8    5.50    2.90
   3  -9  -8    6.30    3.20
   3   9  -8    5.80    2.90
   3  10  -8   48.80    3.70
   3 -10  -8   32.90    4.10
  -3  10  -8   33.20    4.10
  -3 -11   8    8.00    3.40
   3 -11  -8    0.20    3.70
   3  11  -8   -0.50    3.60
  -3  11  -8   -0.40    4.00
   3 -12  -8    0.70    4.20
   3  12  -8   -3.20    3.80
  -3  12  -8   -0.80    4.60
   3 -13  -8    1.30    5.50
  -3 -13   8   11.50    4.00
  -3 -14   8   13.70    4.60
  -3 -15  -8    7.60    4.50
  -3 -16  -8   -2.50    4.10
  -3 -16  -8   -1.00    4.50
  -3 -17  -8    1.70    5.30
  -3 -17  -8    1.60    5.20
  -4   0   8  119.49    3.90
   4   0  -8  115.09    4.00
   4   1  -8    0.50    3.60
  -4  -1   8   -0.10    3.00
   4  -1  -8   -2.30    3.50
  -4   1   8   -0.20    2.90
   4   2  -8 1334.67    9.60
  -4   2   8 1624.94   10.20
  -4  -2   8 1686.63   10.00
   4  -2  -8 1258.47   11.20
  -4   3   8   79.09    3.50
  -4  -3   8   38.60    4.30
   4  -3  -8   57.99    3.80
   4   3  -8   51.39    3.30
   4   4  -8   87.99    3.40
   4  -4  -8   83.09    4.50
  -4  -4   8  114.49    4.00
  -4   4   8  118.59    3.90
  -4  -5   8   92.79    4.70
   4   5  -8  197.78    4.50
   4  -5  -8  141.39    5.30
  -4   5   8  194.58    5.20
  -4   6   8   68.59    4.10
   4   6  -8   66.99    3.70
  -4  -6   8   38.50    4.00
  -4  -7   8  143.99    4.10
  -4   7   8  125.79    5.20
   4   7  -8  142.09    4.10
  -4  -8   8   64.59    4.10
  -4   8   8   83.59    4.50
   4   8  -8   78.59    3.60
  -4   9   8   28.90    3.60
   4   9  -8   35.10    3.60
  -4  -9   8   25.20    3.20
   4  -9  -8   32.00    3.60
   4 -10  -8   25.30    3.70
   4  10  -8   27.80    3.60
   4  11  -8    9.30    3.30
  -4 -11   8   15.70    3.50
   4 -11  -8    6.20    3.50
  -4  11  -8    4.90    4.00
   4 -12  -8    3.00    4.10
   4  12  -8   -0.60    3.80
  -4  12  -8    2.10    4.30
  -4 -12   8    3.50    3.60
  -4  13  -8    0.80    5.20
  -4 -13   8    0.40    3.50
  -4 -14   8    4.40    3.70
  -4 -15   8    7.10    3.80
  -4 -15  -8    5.90    4.50
  -4 -16  -8    1.00    4.30
  -4 -17  -8   -0.80    4.70
  -4 -18  -8    0.80    5.10
  -4 -18  -8   -0.10    5.10
   5   1  -8   32.30    3.90
  -5   1   8   55.49    3.20
   5  -1  -8   41.00    3.40
  -5  -1   8   52.19    3.20
  -5   2   8 2143.59   11.30
  -5  -2   8 1266.87   13.10
   5   2  -8 1323.07    9.00
   5  -2  -8 1611.64   12.40
  -5  -3   8  403.56    8.40
  -5   3   8  825.82    7.50
   5   3  -8  783.32    6.70
   5  -3  -8  591.54    8.40
   5   4  -8  916.91    7.20
   5  -4  -8  862.51    9.80
  -5   4   8 1168.68    8.90
  -5  -4   8 1216.58    8.20
   5  -5  -8   -0.40    3.20
  -5  -5   8   -1.60    2.90
  -5   5   8    1.00    3.10
   5   5  -8    0.70    2.90
  -5  -6   8    1.00    3.00
   5  -6  -8    2.50    3.00
   5   6  -8    3.10    3.10
  -5   6   8    2.50    3.00
  -5   7   8   25.40    3.50
  -5  -7   8   13.70    3.30
   5   7  -8   25.00    3.20
   5   8  -8    0.40    2.90
  -5  -8   8    1.90    2.40
  -5   8   8    2.70    3.10
  -5  -9   8   23.50    3.10
   5   9  -8   24.90    3.20
  -5   9   8   19.70    3.50
   5 -10  -8   11.40    3.70
   5  10  -8   14.30    3.00
  -5 -10   8   10.80    3.30
  -5  10   8    9.70    3.90
   5  11  -8   10.10    3.20
   5 -11  -8   12.30    4.20
  -5 -11   8   18.60    3.10
  -5  12  -8   -1.50    4.20
   5 -12  -8   -0.20    4.10
  -5 -12   8   10.50    3.00
  -5  13  -8   13.50    5.60
  -5  13  -8   11.60    4.90
  -5 -13   8   16.90    3.70
  -5 -14   8    7.00    3.60
  -5 -14  -8    4.30    4.10
  -5 -15  -8    9.50    4.30
  -5 -15   8    5.70    3.50
  -5 -16  -8   -2.20    4.20
  -5 -16   8   14.70    4.20
  -5 -17   8    1.60    4.40
  -5 -17  -8    2.00    4.70
  -5 -18  -8   -1.30    4.60
  -5 -19  -8    0.90    5.50
  -5 -19  -8   -0.20    5.40
   6   0  -8   17.60    3.40
  -6   0   8   26.10    2.70
   6  -1  -8  104.09    3.80
   6   1  -8  128.29    3.70
  -6   1   8  138.69    3.50
  -6  -1   8  139.29    3.60
  -6  -2   8  367.46    4.90
   6  -2  -8  244.68    5.40
   6   2  -8  344.97    4.70
  -6   2   8  354.06    4.90
  -6  -3   8   17.60    3.20
  -6   3   8   32.70    2.90
   6  -3  -8   26.00    2.90
   6   3  -8   16.40    3.30
   6  -4  -8   25.50    3.50
  -6  -4   8   36.20    2.70
   6   4  -8   32.20    2.70
  -6   4   8   38.90    2.90
  -6   5   8   92.99    3.90
   6  -5  -8   58.29    3.80
  -6  -5   8   46.20    3.80
   6   5  -8   68.19    3.10
  -6   6   8  253.17    5.30
  -6  -6   8  133.59    5.60
   6  -6  -8  245.38    5.20
   6   6  -8  204.78    4.00
   6   7  -8   32.10    3.30
  -6  -7   8   19.30    3.40
  -6   7   8   24.70    3.20
   6  -7  -8   31.50    3.50
   6   8  -8   -0.20    3.10
  -6  -8   8   -1.60    2.50
  -6   8   8    2.20    2.60
  -6  -9   8    5.40    2.90
   6   9  -8   -0.60    3.00
  -6   9   8   -0.30    2.80
   6  10  -8   85.79    3.80
  -6  10   8   73.79    4.90
   6 -10  -8   66.79    4.60
  -6 -10   8  109.89    3.80
   6  11  -8    0.80    3.10
  -6 -11   8    0.80    3.00
   6 -11  -8   -0.10    3.60
  -6  11   8   -0.70    3.70
  -6 -12   8    3.80    3.00
  -6 -13   8    2.00    3.10
  -6  13  -8    0.40    4.30
  -6  13  -8    0.70    4.20
  -6  14  -8    8.80    5.20
  -6  14  -8    6.20    5.20
  -6 -14  -8   12.40    4.00
  -6 -14   8   12.20    3.60
  -6 -15   8    0.20    3.40
  -6 -15  -8    0.70    3.80
  -6 -16   8    4.70    3.50
  -6 -16  -8    2.90    4.10
  -6 -17   8    0.30    4.30
  -6 -17  -8    1.70    4.40
  -6 -18  -8   -0.10    4.30
  -6 -18   8    0.90    4.60
  -6 -19  -8    2.40    5.00
  -7  -1   8   -0.10    2.40
   7   1  -8    2.00    2.40
   7  -1  -8   -0.10    2.30
  -7   1   8    2.80    2.90
  -7   2   8   54.69    2.80
  -7  -2   8   59.29    2.80
   7  -2  -8   37.30    3.00
   7   2  -8   39.60    2.80
  -7   3   8    6.50    3.00
  -7  -3   8    6.70    2.40
   7  -3  -8    6.80    3.10
   7   3  -8    5.90    2.50
  -7   4   8  210.58    4.50
   7  -4  -8  185.78    4.40
  -7  -4   8  184.68    3.60
   7   4  -8  206.18    4.30
  -7  -5   8  267.27    4.40
  -7   5   8  227.98    4.90
   7  -5  -8  246.68    4.60
   7   5  -8  181.78    3.80
   7  -6  -8   90.79    4.20
  -7  -6   8   71.59    4.40
  -7   6   8  125.19    4.20
   7   6  -8   83.89    3.10
  -7   7   8  107.59    4.20
  -7  -7   8  139.59    3.90
   7   7  -8   84.69    3.10
   7  -7  -8  113.49    4.00
   7   8  -8   46.40    3.40
  -7   8   8   50.49    3.50
  -7  -8   8   53.79    2.80
  -7   9   8    1.30    2.90
   7   9  -8    3.10    3.00
  -7  -9   8    2.30    3.00
  -7 -10   8   12.10    3.00
   7  10  -8    5.40    3.20
  -7  10   8    1.30    3.50
  -7  11   8    2.70    3.80
   7 -11  -8    0.90    3.80
  -7 -11   8    2.60    2.90
  -7 -12   8    2.90    3.10
  -7  12   8   -1.10    3.80
  -7  13  -8    3.10    4.20
  -7 -13   8    4.50    3.20
  -7 -13  -8    1.40    4.00
  -7  14  -8   -1.10    4.70
  -7 -14   8   28.90    3.80
  -7 -14  -8    5.20    4.00
  -7  14  -8   -1.50    5.00
  -7  15  -8    2.70    7.40
  -7  15  -8    2.10    7.00
  -7 -15  -8    1.20    3.80
  -7 -15   8    2.60    3.30
  -7 -16   8    2.00    3.40
  -7 -16  -8    2.50    4.00
  -7 -17  -8    1.90    4.10
  -7 -17   8    0.50    4.10
  -7 -18  -8   -0.20    4.10
  -7 -18   8   -0.30    4.30
   8   0  -8    4.60    2.30
  -8   0   8    5.50    2.80
  -8   1   8   12.10    2.50
  -8  -1   8   15.20    2.40
   8   1  -8   10.90    2.40
   8  -1  -8   10.10    3.00
   8   2  -8   11.20    2.40
  -8  -2   8   10.90    2.40
   8  -2  -8   10.70    3.10
  -8   2   8   17.80    2.50
   8  -3  -8   46.80    3.10
  -8   3   8   63.79    3.40
  -8  -3   8   68.39    2.90
   8   3  -8   45.60    2.90
   8   4  -8    1.40    2.40
   8  -4  -8    4.70    3.20
  -8   4   8    6.70    3.10
  -8  -4   8    4.20    2.40
  -8  -5   8    0.40    2.90
   8  -5  -8    0.20    3.10
  -8   5   8   -0.40    3.00
   8   5  -8    1.00    2.90
   8   6  -8    3.30    2.50
  -8  -6   8    1.00    2.70
   8  -6  -8   -0.20    3.00
  -8   6   8    4.80    2.80
  -8   7   8    5.50    3.10
   8   7  -8    1.00    2.60
   8  -7  -8    6.30    3.10
  -8  -7   8    6.30    3.10
   8  -8  -8   33.10    3.60
   8   8  -8   37.80    2.90
  -8  -8   8   59.69    3.30
  -8   8   8   46.80    3.70
   8   9  -8    4.10    3.30
  -8   9   8    6.40    2.90
  -8  -9   8    5.40    2.50
  -8 -10   8    1.30    2.90
  -8  10   8    3.50    3.50
  -8 -11   8   26.80    3.30
  -8  11   8    7.20    3.80
  -8  12  -8    8.60    3.90
  -8  12   8    7.80    3.90
  -8 -13  -8   19.70    4.30
  -8  13   8   10.10    4.10
  -8  13  -8   14.90    4.50
  -8 -14  -8    3.70    3.70
  -8  14  -8    0.40    4.30
  -8 -15   8    1.70    3.50
  -8  15  -8   -0.20    5.10
  -8  15  -8   -0.30    5.20
  -8 -15  -8   -1.60    3.60
  -8 -16   8    2.30    3.10
  -8 -16  -8    1.30    3.90
  -8 -17   8   -2.10    3.90
  -8 -17  -8    1.90    4.40
  -8 -18  -8   -0.40    4.00
  -8 -18   8   -1.00    4.10
   9   1  -8  232.88    4.60
   9  -1  -8  217.68    4.80
  -9  -1   8  307.47    4.60
  -9   1   8  340.97    4.80
  -9   2   8   -0.10    2.90
   9   2  -8    2.90    2.70
   9  -2  -8   -0.10    2.90
  -9  -2   8   -0.20    2.30
  -9  -3   8   11.10    2.50
   9  -3  -8    5.60    2.50
  -9   3   8    9.50    2.90
   9   3  -8    7.00    2.90
   9  -4  -8    4.90    3.00
  -9   4   8    4.60    2.80
   9   4  -8    3.60    2.70
  -9  -4   8    3.90    2.90
  -9  -5   8    1.70    2.30
   9   5  -8    0.40    2.70
   9  -5  -8    2.40    3.10
  -9   5   8   -0.80    2.50
  -9  -6   8   10.40    2.50
   9  -6  -8    5.50    3.10
   9   6  -8    5.40    2.60
  -9   6   8    4.70    3.00
  -9  -7   8   13.50    2.90
   9  -7  -8    5.80    3.00
  -9   7   8    5.40    2.90
   9   7  -8    1.20    2.60
  -9   8   8   17.10    3.10
   9   8  -8   11.40    3.40
   9  -8  -8   16.90    3.30
  -9  -8   8   12.30    2.60
  -9   9   8   44.90    3.50
   9  -9  -8   38.80    3.60
  -9  10   8   15.50    3.70
  -9  11   8   14.50    3.60
  -9  11  -8   13.50    4.20
  -9 -11   8   17.70    3.20
  -9  12   8    3.00    3.50
  -9 -12  -8    5.00    3.50
  -9  12  -8    4.00    3.80
  -9 -13  -8    3.40    3.60
  -9  13  -8    3.70    4.20
  -9  13   8    4.50    3.60
  -9 -14  -8   -1.30    3.80
  -9  14  -8   -1.90    4.20
  -9  14   8    0.00    3.80
  -9 -15   8    0.40    3.50
  -9  15  -8   -1.80    4.90
  -9 -15  -8    0.40    3.50
  -9 -16  -8    2.40    4.10
  -9  16  -8    3.20    5.40
  -9 -16   8    3.70    3.80
  -9  16  -8    2.60    5.70
  -9 -17   8    2.60    3.50
  -9 -17  -8    0.30    4.30
  10   0  -8    3.30    2.40
 -10   0   8    3.60    2.30
  10   1  -8   90.19    3.20
  10  -1  -8   71.29    3.10
 -10  -1   8   97.99    3.00
 -10   1   8   98.89    3.40
 -10  -2   8   30.20    2.60
 -10   2   8   29.90    2.70
  10   2  -8   20.00    2.80
  10  -2  -8   17.70    2.70
  10  -3  -8   45.90    3.10
  10   3  -8   41.60    3.30
 -10   3   8   64.09    2.90
 -10  -3   8   66.89    2.80
  10   4  -8   40.00    3.00
  10  -4  -8   26.70    2.90
 -10  -4   8   25.00    3.20
 -10   4   8   42.60    3.10
  10   5  -8   -0.30    3.00
 -10   5   8    1.60    3.00
  10  -5  -8    3.10    3.10
 -10  -5   8    2.80    2.30
 -10   6   8   49.10    3.50
  10  -6  -8   36.30    3.40
 -10  -6   8   60.39    3.40
  10   6  -8   32.30    2.80
 -10   7   8    3.00    2.90
  10   7  -8    0.00    3.00
  10  -7  -8    0.70    3.20
 -10  -7   8    1.70    3.10
 -10   8   8   14.60    3.10
 -10  -8   8   23.30    3.20
  10  -8  -8   17.70    3.10
 -10   9   8   36.50    3.50
 -10  -9   8   36.50    2.80
 -10  11  -8    2.10    3.80
 -10  11   8   -0.90    3.50
 -10 -11   8   -0.10    2.40
 -10  12  -8   -1.60    4.00
 -10  12   8    1.40    3.60
 -10  13  -8    0.60    4.10
 -10  13   8   -1.40    3.80
 -10 -13  -8   14.30    3.40
 -10  14   8    1.80    4.10
 -10 -14  -8    1.90    3.60
 -10  14  -8    0.80    4.30
 -10 -15  -8    1.90    3.40
 -10  15   8    1.20    4.40
 -10  15  -8   -0.40    4.50
 -10 -16  -8    0.60    3.60
 -10  16  -8    0.40    4.70
 -10 -17  -8    1.50    4.20
 -10 -17   8   -1.30    3.80
 -11  -1   8    5.80    2.80
  11  -1  -8    5.60    2.50
  11   1  -8    4.20    2.40
 -11   1   8   11.50    2.90
  11   2  -8   -0.40    2.70
 -11  -2   8   -0.80    2.70
 -11   2   8    3.30    2.80
  11  -2  -8    0.70    2.30
  11   3  -8   43.40    2.80
  11  -3  -8   29.60    3.30
 -11  -3   8   38.50    3.20
 -11   3   8   43.90    3.20
  11  -4  -8    3.40    2.50
 -11   4   8   -0.10    3.00
  11   4  -8   -0.40    2.40
 -11  -4   8   -1.80    2.40
  11   5  -8    1.00    2.50
  11  -5  -8   -0.80    2.90
 -11   5   8    0.60    2.40
 -11  -5   8    0.40    2.40
  11   6  -8   27.10    3.00
  11  -6  -8   32.40    3.00
 -11  -6   8   34.30    2.80
 -11   6   8   30.70    2.90
 -11  -7   8   24.20    3.10
 -11   7   8   21.30    2.60
 -11   8   8    8.20    2.90
 -11  -9   8    6.50    2.50
 -11  10  -8   -0.80    3.50
 -11  11  -8   10.70    3.70
 -11 -11  -8   28.60    3.40
 -11  12   8    3.40    3.70
 -11 -12  -8    1.90    2.70
 -11  12  -8   -0.90    3.70
 -11  13  -8    3.70    3.80
 -11 -13  -8    1.60    3.40
 -11  13   8    1.80    3.40
 -11  14  -8    1.70    4.00
 -11  14   8    1.30    3.80
 -11  15   8   -2.30    4.40
 -11  15  -8   -0.70    4.40
 -11  16  -8   -0.20    4.90
 -11  16   8    2.60    4.40
  12   0  -8   26.10    3.10
 -12   0   8   36.60    3.10
  12  -1  -8   14.40    3.00
  12   1  -8    8.70    2.40
 -12   1   8   11.10    2.60
 -12  -1   8   10.60    2.40
  12   2  -8   55.09    2.90
  12  -2  -8   42.40    3.00
 -12  -2   8   68.59    2.80
 -12   2   8   59.99    3.00
  12  -3  -8   41.00    3.30
 -12  -3   8   76.29    3.00
 -12   3   8   57.99    3.50
  12   3  -8   47.30    2.90
 -12  -4   8   22.10    2.60
  12  -4  -8   15.10    3.30
 -12   4   8   22.70    2.70
 -12  -5   8   34.50    2.80
 -12   5   8   24.30    2.70
 -12   6   8    1.30    2.50
 -12  -7   8   88.09    3.30
 -12   7   8   79.89    3.40
 -12   8  -8   -1.20    2.80
 -12  -8   8    1.20    2.50
 -12   9  -8   13.30    3.30
 -12  -9  -8   22.10    2.80
 -12  -9   8   11.30    2.60
 -12  10  -8    1.10    3.60
 -12  10   8    1.80    3.20
 -12 -10  -8    0.90    2.90
 -12  11  -8    1.30    3.70
 -12 -11  -8    8.40    3.10
 -12 -11   8    4.90    2.60
 -12  12   8    1.90    3.20
 -12  12  -8    1.80    3.20
 -12  13  -8   -1.80    3.60
 -12  13   8   -2.20    3.40
 -12  14  -8    2.50    4.30
 -12  14   8    0.90    4.10
 -12 -14  -8   -1.90    2.90
 -12  15   8   -0.90    4.20
 -12  15  -8    1.30    4.10
 -12  16   8    0.20    4.60
 -13   1   8   19.70    2.70
 -13  -1   8   17.50    2.50
 -13   2   8   21.10    3.10
 -13  -2   8   28.80    2.60
 -13  -3   8    9.70    2.60
 -13  -4   8   26.70    2.70
 -13  -6   8   -1.20    2.50
 -13   7   8   15.60    2.50
 -13   7  -8   17.00    3.20
 -13  -7   8   19.40    2.80
 -13   9  -8    5.00    3.50
 -13  -9  -8   13.30    2.90
 -13  10  -8    6.90    3.50
 -13 -10   8    4.00    2.70
 -13  11   8    2.70    3.50
 -13  11  -8    1.20    3.70
 -13 -12  -8    4.90    2.90
 -13  12  -8    0.00    3.60
 -13  12   8   -2.00    3.20
 -13  13   8    1.60    3.50
 -13  13  -8    1.90    3.60
 -13 -13  -8   -2.00    2.90
 -13  14   8   -1.00    3.70
 -13  14  -8    3.80    3.80
 -13  15  -8   -0.10    4.20
 -13  15   8    1.00    4.10
 -14   0   8   44.70    3.00
 -14  -1   8   45.30    3.00
 -14  -2   8    2.40    2.70
 -14   3   8   62.99    3.10
 -14  -3   8   78.69    3.60
 -14  -4   8   39.80    3.30
 -14   4   8   26.10    2.80
 -14  -6   8   50.69    3.30
 -14   6  -8   37.20    3.40
 -14   6   8   33.50    2.90
 -14   7  -8   28.80    3.10
 -14   9  -8    8.20    3.40
 -14  10  -8   -0.80    3.40
 -14  11  -8    3.60    3.80
 -14  12   8    0.10    3.60
 -14  12  -8    4.60    3.50
 -14  13   8    1.20    3.50
 -14  13  -8    0.60    4.00
 -14  14   8    1.90    3.80
 -14  14  -8    1.20    3.90
 -15   1   8   10.40    2.70
 -15  -1  -8    6.80    2.80
 -15  -1   8   17.00    2.80
 -15  -2   8    5.30    3.10
 -15  -3   8   45.70    3.30
 -15   3  -8   45.70    2.90
 -15   3   8   40.50    3.10
 -15  -4   8    0.00    2.70
 -15  -4  -8   -0.60    2.70
 -15   4   8    5.50    2.70
 -15  -6   8    6.00    3.10
 -15   7  -8    2.40    2.60
 -15   8   8    1.40    2.70
 -15   9   8   -0.80    2.60
 -15  13  -8    0.70    3.90
 -15  13   8    1.70    3.40
 -16   1   8   62.79    3.30
 -16  -2   8   46.10    3.40
 -16   7  -8    1.00    2.90
 -16   7   8    1.90    2.90
 -16  10  -8    3.40    3.40
 -17   2   8    1.50    2.70
  -1  -1   9  106.29    3.90
   1  -1  -9   85.69    3.90
   1   1  -9  108.69    4.40
   1  -2  -9   -0.30    2.90
  -1  -2   9   -1.00    3.00
   1   2  -9    0.50    2.80
  -1  -3   9    3.00    2.70
   1  -3  -9    2.30    3.30
   1   3  -9    4.30    3.30
   1   4  -9   94.59    3.90
  -1   4  -9   87.19    4.80
   1  -4  -9   95.09    4.90
  -1  -4   9   61.59    4.60
  -1   5  -9  247.38    7.00
   1   5  -9  199.88    6.20
   1  -5  -9  321.37    6.60
  -1  -5   9  305.07    6.40
   1   6  -9   23.90    4.10
  -1  -6   9   38.60    3.80
  -1   6  -9   27.40    3.80
  -1   7  -9   92.69    5.40
   1   7  -9  140.99    4.40
  -1   8  -9    1.30    3.30
  -1  -8   9   -0.90    3.40
   1   8  -9   -0.20    2.80
  -1   9  -9  243.58    6.70
   1  -9  -9  274.27    7.00
   1   9  -9  333.57    6.10
  -1  10  -9   31.70    3.70
   1  10  -9   28.40    3.60
   1 -10  -9   24.40    3.70
   1 -11  -9   23.80    4.00
  -1 -11  -9   22.90    3.80
   1  11  -9   31.80    3.80
  -1  11  -9   27.50    3.90
   1  12  -9   21.40    4.30
  -1  12  -9   21.30    4.30
  -1 -12  -9   17.50    4.30
   1 -12  -9   17.80    4.00
  -1  13  -9   13.30    5.20
   1 -13  -9   10.70    4.50
   1  13  -9   13.10    4.30
  -1 -13  -9    8.70    3.80
  -1 -14  -9    5.00    3.90
   1 -14  -9    5.20    5.40
  -1 -15  -9    7.90    4.60
  -2   0   9   -0.30    2.90
   2   0  -9    0.20    2.90
  -2   1   9  434.76    5.80
   2  -1  -9  285.17    6.60
  -2  -1   9  437.06    5.70
   2   1  -9  238.58    6.80
   2  -2  -9  243.28    5.90
  -2  -2   9  343.77    5.30
  -2   2   9  325.47    5.30
   2   2  -9  182.88    5.90
   2   3  -9  365.76    5.50
   2  -3  -9  274.57    6.70
  -2   3   9  426.76    5.90
  -2  -3   9  208.68    6.80
   2   4  -9    8.80    2.80
  -2   4   9    8.00    3.30
   2  -4  -9    7.20    3.30
  -2  -4   9    3.40    3.40
  -2  -5   9    1.00    2.60
   2   5  -9    0.60    3.20
   2  -5  -9    1.10    3.20
   2   6  -9   31.30    3.30
  -2  -6   9   43.90    3.50
  -2   7  -9   66.09    4.70
  -2  -7   9   58.39    4.20
   2   7  -9   69.69    3.70
  -2   8  -9   12.70    3.50
  -2  -8   9    9.70    3.10
   2   8  -9   13.20    3.10
   2   9  -9   53.99    3.40
   2  -9  -9   39.40    4.10
  -2  -9   9   48.20    3.60
  -2   9  -9   39.90    4.00
  -2  10  -9    2.00    3.40
   2 -10  -9    3.90    3.10
   2  10  -9    5.30    3.20
  -2 -10   9    2.50    3.00
  -2  11  -9   20.70    3.90
  -2 -11   9   18.90    3.80
   2 -11  -9   19.10    3.90
   2  11  -9   24.00    4.10
  -2  12  -9   45.10    5.10
   2  12  -9   52.69    4.40
   2 -12  -9   42.30    4.80
   2 -13  -9    9.90    4.90
   2  13  -9   11.50    4.50
  -2  13  -9    8.20    5.40
  -2 -14  -9   11.30    4.00
   2 -14  -9   13.50    6.30
  -2 -15  -9   -1.20    4.00
  -2 -16  -9    0.20    4.30
  -2 -16  -9    0.10    4.60
   3   1  -9  109.69    4.00
   3  -1  -9   78.09    4.20
  -3   1   9  117.19    3.90
  -3  -1   9  111.59    3.90
  -3  -2   9    2.90    3.00
   3  -2  -9   -1.00    3.10
   3   2  -9    1.20    3.00
  -3   2   9    2.80    2.90
  -3  -3   9  155.88    4.00
   3   3  -9  148.89    4.00
   3  -3  -9  116.99    4.70
  -3   3   9  156.78    4.80
  -3   4   9   82.49    4.20
   3   4  -9   42.80    4.00
  -3  -4   9   73.49    3.30
   3  -4  -9   61.59    4.20
   3  -5  -9    3.00    2.80
  -3  -5   9    3.80    3.10
  -3   5   9    5.20    3.30
   3   5  -9    2.70    3.10
  -3   6   9    3.60    3.20
  -3  -6   9    1.80    3.30
   3   6  -9    6.50    3.20
  -3  -7   9  114.39    3.80
   3   7  -9   90.59    3.80
  -3   7   9   92.69    4.90
   3   8  -9   -0.90    3.00
  -3  -8   9    6.40    3.10
  -3  -9   9    5.20    2.90
   3   9  -9    4.60    2.80
   3  -9  -9    3.80    3.20
  -3   9  -9    5.00    3.10
   3  10  -9   -1.40    3.30
  -3  10  -9   -0.30    3.60
   3 -10  -9    2.40    3.10
  -3  11  -9    4.10    3.70
  -3 -11   9    3.00    3.40
   3  11  -9    4.30    3.70
   3 -11  -9    3.50    3.80
  -3  12  -9    0.20    4.10
   3 -12  -9    1.70    3.80
  -3 -12   9   -0.90    3.40
   3  12  -9    1.80    3.80
   3  13  -9   12.40    4.20
   3 -13  -9    9.10    4.70
  -3  13  -9    8.10    5.30
  -3 -13   9    8.70    3.90
   3 -14  -9    1.40    5.80
  -3 -15  -9    0.90    5.00
  -3 -16  -9    5.80    4.30
  -3 -16  -9   10.20    4.40
  -3 -17  -9   -0.50    5.20
  -3 -17  -9   -1.10    5.10
  -4   0   9    2.00    2.90
   4   0  -9   -1.10    3.40
   4   1  -9  606.44    6.70
  -4  -1   9  617.54    6.30
  -4   1   9  591.44    6.90
   4  -1  -9  411.16    7.50
  -4   2   9    6.30    2.90
  -4  -2   9    3.00    3.50
   4  -2  -9    4.00    2.80
   4   2  -9    3.60    2.90
  -4   3   9    5.80    3.30
   4  -3  -9    4.90    2.70
   4   3  -9    4.70    2.60
  -4  -3   9    3.30    2.70
  -4  -4   9    2.60    3.20
   4   4  -9    4.20    2.60
  -4   4   9    9.00    3.20
   4  -4  -9    4.20    3.20
   4   5  -9  135.59    4.10
   4  -5  -9  103.09    4.70
  -4  -5   9  128.59    3.70
  -4   5   9  126.89    4.60
   4   6  -9   -0.70    3.20
  -4  -6   9    3.20    2.70
   4  -6  -9    1.40    3.00
  -4   6   9    3.60    3.10
  -4  -7   9  173.38    4.30
   4   7  -9  194.58    4.40
  -4   7   9  191.18    5.60
   4   8  -9   64.69    3.50
  -4  -8   9   86.39    3.70
  -4   8   9   51.59    3.80
  -4  -9   9   15.90    3.00
   4   9  -9   13.50    2.80
   4  10  -9   17.00    3.20
   4 -10  -9   18.30    3.60
  -4  10  -9   15.50    3.70
   4 -11  -9   -0.10    3.80
   4  11  -9    1.40    3.50
  -4  11  -9   -2.30    4.00
  -4 -11   9   -0.80    3.10
   4  12  -9    2.20    3.50
  -4 -12   9    4.30    3.40
   4 -12  -9    2.90    3.70
  -4  12  -9    1.70    4.10
  -4  13  -9    5.10    4.80
  -4 -13   9    6.80    3.60
   4 -13  -9    5.60    4.50
  -4 -14   9    1.60    3.70
  -4 -15   9    6.00    3.80
  -4 -15  -9    3.50    4.40
  -4 -16  -9   -6.40    4.90
  -4 -17  -9    1.20    4.70
  -4 -18  -9   -0.70    5.00
  -4 -18  -9   -0.30    4.70
  -5   1   9  516.45    5.60
   5   1  -9  511.25    6.00
   5  -1  -9  353.26    6.30
  -5  -1   9  525.65    5.80
   5   2  -9    0.00    2.60
  -5   2   9   -0.80    2.70
  -5  -2   9    1.00    2.60
   5  -2  -9   -0.90    3.20
  -5   3   9   53.49    3.50
  -5  -3   9   47.80    3.00
   5  -3  -9   34.60    3.60
   5   3  -9   54.59    3.00
   5   4  -9   27.90    2.80
  -5   4   9   28.80    3.50
  -5  -4   9   20.40    2.70
   5  -4  -9   25.40    3.00
  -5   5   9  183.48    4.90
  -5  -5   9  195.88    3.90
   5  -5  -9  189.08    4.50
   5   5  -9  163.48    4.10
  -5  -6   9    3.10    3.10
   5  -6  -9    2.80    3.00
   5   6  -9   -0.50    3.10
  -5   6   9    1.10    2.40
  -5  -7   9   22.20    2.90
  -5   7   9   15.80    3.40
   5   7  -9   13.80    3.10
  -5  -8   9    4.40    3.00
   5   8  -9    5.00    3.00
  -5   8   9    7.10    2.80
   5   9  -9    3.80    3.00
  -5  -9   9    4.60    2.90
  -5   9   9    6.00    2.80
   5 -10  -9   -0.30    3.30
  -5 -10   9   -1.30    2.90
   5  10  -9    0.90    3.20
  -5  10   9   -0.10    3.50
   5 -11  -9    4.60    3.70
  -5 -11   9    9.90    3.10
   5  11  -9    6.70    3.40
  -5 -12   9    3.60    3.00
   5 -12  -9    1.10    4.00
  -5  12  -9    0.00    3.70
   5  12  -9    3.40    3.50
   5 -13  -9    1.70    4.30
  -5  13  -9   -0.20    4.30
  -5 -13   9    9.70    3.50
  -5  14  -9    6.70    5.70
  -5  14  -9    7.00    5.40
  -5 -14   9    9.30    3.60
  -5 -15   9   22.50    4.10
  -5 -15  -9   28.50    4.50
  -5 -16  -9   13.90    4.60
  -5 -16   9    8.90    3.70
  -5 -17   9    0.60    4.50
  -5 -17  -9    2.40    4.50
  -5 -18  -9   -2.00    4.60
  -5 -19  -9   -0.50    5.20
  -5 -19  -9   -0.10    5.20
   6   0  -9   -3.10    3.10
  -6   0   9    2.00    2.50
   6   1  -9  269.77    4.30
  -6   1   9  260.27    4.30
   6  -1  -9  214.88    4.60
  -6  -1   9  175.08    5.00
  -6   2   9    7.60    3.10
   6  -2  -9    3.00    2.50
   6   2  -9    7.00    2.80
  -6  -2   9    6.00    2.50
  -6   3   9  203.68    4.50
  -6  -3   9  186.98    3.80
   6  -3  -9  133.19    4.40
   6   3  -9  114.39    4.30
  -6   4   9  164.58    4.40
  -6  -4   9   99.09    4.00
   6   4  -9  157.08    3.60
   6  -4  -9  117.79    4.60
  -6   5   9    8.50    3.00
   6   5  -9    6.60    2.50
   6  -5  -9    5.90    3.20
  -6  -5   9    8.00    2.50
   6  -6  -9    1.60    2.90
  -6   6   9   -0.20    2.70
  -6  -6   9    2.90    3.10
   6   6  -9   -0.50    3.00
  -6   7   9    7.30    3.00
  -6  -7   9   12.40    3.00
   6  -7  -9    8.10    3.00
   6   7  -9   14.50    3.20
   6   8  -9    0.70    2.90
  -6  -8   9   -0.80    2.40
  -6   8   9   -0.70    2.70
  -6  -9   9    1.00    3.00
  -6   9   9    4.00    3.30
   6   9  -9    2.80    2.90
   6  10  -9   90.69    4.00
  -6 -10   9  169.68    4.20
  -6  10   9   89.39    4.70
  -6 -11   9   -1.30    2.90
   6 -11  -9   -0.90    3.80
  -6  11   9   -0.90    3.40
   6  11  -9   -1.10    3.10
  -6 -12   9    3.80    3.00
   6 -12  -9    2.40    3.90
  -6  13  -9   19.10    4.60
  -6 -14   9    9.30    3.40
  -6  14  -9   11.00    5.00
  -6  14  -9    7.80    4.50
  -6 -15  -9   -2.00    4.20
  -6 -15   9    0.50    3.50
  -6 -16   9    2.00    3.50
  -6 -16  -9    6.90    4.10
  -6 -17   9    0.70    3.90
  -6 -17  -9    4.40    4.40
  -6 -18  -9    3.60    4.10
  -6 -18   9    3.40    4.20
  -6 -19  -9    2.50    5.20
  -7  -1   9   63.19    3.40
   7   1  -9   40.90    2.90
   7  -1  -9   46.40    3.30
  -7   1   9   72.89    2.90
   7   2  -9   70.89    3.00
   7  -2  -9   43.90    3.10
  -7   2   9   67.09    3.00
  -7  -2   9   69.09    2.90
   7   3  -9   94.69    3.40
  -7  -3   9   90.89    3.00
  -7   3   9   90.69    3.60
   7  -3  -9   56.79    3.70
  -7   4   9   21.20    3.30
   7  -4  -9   12.30    2.80
  -7  -4   9   12.20    2.90
   7   4  -9    9.70    2.50
  -7   5   9   26.10    2.80
   7   5  -9   24.00    3.10
  -7  -5   9   27.60    2.60
   7  -5  -9   20.20    2.80
  -7   6   9    0.90    3.00
   7   6  -9    0.70    2.40
  -7  -6   9    3.50    3.00
   7  -6  -9    2.80    3.00
  -7   7   9   27.50    3.40
   7   7  -9   29.00    3.30
  -7  -7   9   33.10    3.50
   7  -7  -9   35.20    3.50
   7   8  -9   52.29    3.40
   7  -8  -9   58.09    3.50
  -7  -8   9   50.39    2.80
  -7   8   9   48.40    3.50
  -7   9   9    9.10    3.00
  -7  -9   9    5.70    3.20
   7   9  -9    9.40    3.00
  -7 -10   9    2.50    2.70
  -7  10   9    1.80    3.40
   7  10  -9    2.60    2.80
   7  11  -9   62.59    3.80
  -7  11   9   41.10    4.20
   7 -11  -9   48.20    4.40
   7 -12  -9    1.40    4.00
  -7  12   9    0.10    3.60
  -7  13  -9   17.60    4.90
  -7 -14   9    2.80    3.50
  -7 -14  -9    4.70    3.90
  -7  14  -9    1.60    4.60
  -7  14  -9    1.70    4.30
  -7  15  -9    0.60    5.30
  -7 -15   9    0.50    3.30
  -7  15  -9    0.30    5.70
  -7 -15  -9    3.10    3.80
  -7 -16  -9    1.60    3.90
  -7 -16   9    3.30    3.70
  -7 -17  -9    1.60    4.40
  -7 -17   9    0.10    3.80
  -7 -18  -9   -0.80    4.20
  -7 -18   9    0.40    4.10
  -8   0   9    2.10    2.80
   8   0  -9    2.00    2.30
  -8   1   9   51.89    3.20
   8  -1  -9   37.20    3.00
  -8  -1   9   57.49    2.70
   8   1  -9   38.30    2.60
   8   2  -9    0.70    2.70
  -8   2   9    1.60    2.80
  -8  -2   9    2.30    2.20
   8  -2  -9    1.90    2.40
   8   3  -9   11.60    3.00
  -8   3   9   21.30    2.70
   8  -3  -9   13.60    2.70
  -8  -3   9   25.60    2.50
   8   4  -9   11.00    3.00
  -8  -4   9   12.10    2.40
   8  -4  -9    8.90    2.70
  -8   4   9   14.90    3.10
   8  -5  -9   13.70    3.20
  -8   5   9   19.20    3.20
  -8  -5   9   14.40    3.00
   8   5  -9   17.00    2.60
  -8   6   9    8.60    2.50
  -8  -6   9    6.10    2.30
   8   6  -9    3.30    2.90
   8  -6  -9    6.50    3.00
  -8   7   9   72.19    4.00
   8  -7  -9   60.99    3.90
  -8  -7   9   54.39    3.30
   8   7  -9   53.19    3.60
  -8   8   9   85.79    4.00
  -8  -8   9   67.89    4.00
   8  -8  -9   76.29    4.00
   8   8  -9  106.29    3.80
  -8   9   9   23.90    3.20
  -8  -9   9   38.60    3.10
   8   9  -9   27.80    2.70
   8  -9  -9   23.60    3.20
  -8  10   9   17.50    3.20
  -8 -10   9   16.90    3.00
   8  10  -9   22.20    3.20
  -8  11   9   30.20    4.00
  -8  12   9    3.80    3.60
  -8  13   9    8.20    3.70
  -8  13  -9    9.30    4.60
  -8  14  -9    0.60    4.30
  -8 -14  -9   -1.50    3.70
  -8  15  -9    0.30    4.70
  -8 -15  -9    3.70    3.70
  -8  15  -9   -0.10    4.90
  -8 -15   9    0.20    3.10
  -8 -16  -9    2.70    4.10
  -8 -16   9    3.90    3.60
  -8 -17  -9    5.80    4.30
  -8 -17   9    3.70    4.00
  -8 -18  -9    1.00    4.40
  -8 -18   9   -3.00    3.90
   9  -1  -9   31.50    2.80
   9   1  -9   28.60    3.20
  -9  -1   9   47.20    2.80
  -9   1   9   53.19    3.20
  -9   2   9   19.70    3.00
   9  -2  -9   15.90    2.70
   9   2  -9   16.60    2.50
  -9  -2   9   18.80    2.50
   9  -3  -9   14.00    2.60
  -9   3   9   19.20    2.90
   9   3  -9   17.30    2.60
  -9  -3   9   24.50    2.50
   9  -4  -9    0.70    2.40
   9   4  -9    2.40    2.30
  -9  -4   9    2.90    2.30
  -9   4   9    2.50    2.30
   9  -5  -9   58.29    3.70
  -9   5   9   83.39    3.30
  -9  -5   9   93.09    3.10
   9   5  -9   51.39    3.30
  -9  -6   9    0.60    3.00
   9  -6  -9    2.70    2.80
  -9   6   9   -1.50    2.80
   9   6  -9    2.40    2.50
   9   7  -9    3.10    3.20
  -9  -7   9    7.40    3.00
  -9   7   9    8.00    3.10
   9  -7  -9    3.50    3.20
   9   8  -9    1.60    3.20
   9  -8  -9    0.50    2.90
  -9   8   9    2.80    2.80
  -9  -8   9    4.60    3.10
   9  -9  -9    9.90    3.20
  -9  10   9   10.00    3.00
  -9 -11   9    9.40    2.60
  -9 -12   9   12.70    2.80
  -9  12  -9   14.40    4.00
  -9  12   9   11.20    3.70
  -9 -13  -9    7.40    3.70
  -9  13  -9    6.60    4.10
  -9  13   9    1.90    4.00
  -9  14   9    1.50    3.80
  -9  14  -9    0.30    4.00
  -9 -14  -9    2.50    3.40
  -9 -15   9   -1.10    3.20
  -9 -15  -9   -1.10    3.60
  -9  15  -9    1.30    4.70
  -9 -16  -9   -0.20    3.70
  -9 -16   9    0.40    3.40
  -9  16  -9    0.10    5.30
  -9  16  -9    1.30    5.40
  -9  17  -9    0.00    1.40
  -9 -17  -9    6.30    3.90
  -9 -17   9   -0.80    3.80
 -10   0   9    0.40    2.70
  10   0  -9   -0.30    2.80
 -10   1   9    0.60    2.30
  10   1  -9   -1.60    2.30
  10  -1  -9    0.60    2.90
 -10  -1   9    1.20    2.20
  10   2  -9   46.30    3.30
  10  -2  -9   48.90    3.50
 -10   2   9   87.19    3.00
 -10  -2   9   92.99    2.90
 -10   3   9   62.49    3.00
  10  -3  -9   43.60    3.00
 -10  -3   9   74.39    2.80
  10   3  -9   57.89    2.90
  10   4  -9  102.09    3.30
  10  -4  -9   72.19    3.80
 -10  -4   9  100.59    3.20
 -10   4   9   99.99    3.90
  10  -5  -9   91.59    3.90
  10   5  -9  128.69    3.50
 -10   5   9  118.39    3.60
 -10  -5   9   70.39    3.90
  10   6  -9    6.40    3.10
 -10  -6   9    5.90    2.50
 -10   6   9    4.30    2.50
  10  -6  -9    5.20    3.10
  10  -7  -9   23.00    3.30
 -10  -7   9   26.70    2.80
  10   7  -9   30.00    2.70
 -10   7   9   20.50    3.30
  10   8  -9   -1.00    2.60
 -10   8   9    3.00    2.70
  10  -8  -9    3.00    3.00
 -10  -8   9    2.30    2.50
  10  -9  -9    4.50    3.30
 -10   9   9    5.80    3.40
 -10  10   9   10.00    3.30
 -10  11   9   10.10    3.60
 -10  12  -9    8.00    4.10
 -10  12   9   10.30    3.30
 -10  13  -9   22.50    4.20
 -10  13   9   17.00    4.10
 -10 -14  -9   -3.70    3.50
 -10  14  -9   -1.40    4.20
 -10  14   9   -1.40    3.70
 -10  15  -9    1.90    4.70
 -10 -15  -9    2.60    3.60
 -10  15   9    2.10    4.40
 -10  16  -9    1.00    4.90
 -10 -16   9    0.20    3.40
 -10 -16  -9    3.80    3.60
 -10 -17  -9   -0.40    4.10
 -10 -17   9    2.00    3.80
  11   1  -9   10.90    2.30
  11  -1  -9   11.00    3.00
 -11   1   9   17.00    2.50
 -11  -1   9   11.60    2.30
 -11   2   9    8.10    2.50
  11  -2  -9   -0.20    2.50
  11   2  -9    0.60    2.80
 -11  -2   9    3.60    2.30
 -11   3   9    5.80    2.60
 -11  -3   9    8.60    2.40
  11   3  -9    4.00    2.40
  11  -3  -9    8.20    2.60
  11  -4  -9    6.60    3.10
 -11   4   9    9.40    2.50
 -11  -4   9    4.90    2.50
  11   4  -9    4.90    2.40
 -11  -5   9    2.40    2.80
  11   5  -9    1.40    2.50
 -11   5   9    2.80    2.90
  11  -5  -9   -4.20    3.20
  11   6  -9    1.00    2.60
  11  -6  -9   -0.40    3.10
 -11   6   9   -0.50    3.00
 -11  -6   9    0.00    2.50
 -11   7   9   -0.30    2.80
  11   7  -9   -0.90    3.30
  11  -7  -9    1.50    2.90
 -11  -7   9   -0.30    2.60
  11  -8  -9   -1.00    3.10
 -11   8   9    1.60    2.40
 -11  -8   9    0.80    2.50
 -11  -9   9   -2.20    2.50
 -11  11  -9   47.10    4.40
 -11 -11   9   60.49    3.00
 -11  12   9    4.20    3.40
 -11  12  -9    2.40    4.10
 -11 -12  -9   11.80    2.80
 -11  13  -9    0.30    3.70
 -11 -13  -9    5.20    3.40
 -11  13   9    0.40    3.50
 -11  14  -9    0.10    4.10
 -11  14   9    1.30    3.80
 -11  15  -9    0.10    4.40
 -11  15   9   -0.90    4.10
 -11 -15  -9    3.70    3.50
 -11  16   9    2.50    4.60
 -11  16  -9   -0.30    5.10
 -11 -16  -9    2.20    3.80
  12   0  -9    2.70    2.80
 -12   0   9   -0.50    2.20
  12   1  -9   44.60    3.00
  12  -1  -9   51.59    3.40
 -12  -1   9   55.59    3.30
 -12   1   9   60.49    3.30
  12   2  -9   -0.60    2.40
  12  -2  -9    0.50    2.80
 -12   2   9   -0.50    2.40
 -12  -2   9    1.90    2.70
  12  -3  -9    0.90    2.70
  12   3  -9    2.10    2.40
 -12  -3   9    0.20    2.70
 -12   3   9   -0.50    2.50
  12   4  -9    2.60    3.10
  12  -4  -9    5.80    3.10
 -12  -4   9    4.10    2.90
  12  -5  -9   58.99    3.80
  12   5  -9   54.69    3.70
 -12   5   9   69.49    3.70
 -12  -5   9   92.99    3.20
  12  -6  -9    0.40    3.10
 -12  -8   9    0.80    2.50
 -12  10  -9   25.30    4.00
 -12  11   9    3.70    3.50
 -12 -11  -9    5.20    3.20
 -12  11  -9    7.30    3.70
 -12 -11   9   10.00    2.60
 -12  12   9   -0.50    3.30
 -12  12  -9    1.00    3.70
 -12  13  -9    1.70    3.30
 -12  13   9   -1.40    3.40
 -12  14  -9   -1.60    4.10
 -12  14   9    1.90    3.70
 -12  15  -9   -0.50    4.10
 -12  15   9   -0.90    4.20
 -13   1   9    0.20    2.40
  13  -1  -9   -0.50    2.50
 -13  -1   9    1.60    2.30
  13   1  -9   -2.50    2.70
 -13  -2   9   23.10    2.50
  13   2  -9   15.30    2.50
  13  -2  -9   11.90    3.00
 -13   2   9   17.40    2.50
 -13  -3   9    0.80    2.40
  13  -3  -9    1.20    2.50
  13   3  -9   -1.70    2.50
  13  -4  -9    0.70    2.70
 -13  -4   9    5.30    2.40
 -13   5   9   23.80    2.70
 -13  -6   9    4.10    2.60
 -13  -7   9    3.50    2.70
 -13   8  -9    1.40    3.00
 -13  -8   9    3.40    2.60
 -13   9  -9   27.30    3.50
 -13 -10   9   -0.10    2.70
 -13  10  -9    0.40    3.60
 -13  11   9    1.00    3.50
 -13  11  -9    1.30    3.70
 -13  12   9    0.90    3.10
 -13  12  -9    0.70    3.30
 -13  13   9    2.40    3.60
 -13  13  -9   11.50    4.00
 -13  14  -9    0.10    4.10
 -13  14   9    0.20    4.00
 -13  15   9    1.10    4.10
 -13  15  -9    3.70    4.40
 -14   0   9    5.10    2.60
 -14   1   9   12.50    2.70
 -14  -1   9   17.80    2.80
 -14  -2   9   37.10    2.90
 -14  -3   9   79.09    3.20
 -14   3   9   68.49    3.10
 -14  -4   9   13.50    2.70
 -14   4   9    9.60    2.60
 -14   6   9   18.70    2.60
 -14  -6   9   24.90    3.00
 -14   7  -9  104.69    3.70
 -14   9  -9    5.70    3.30
 -14  10  -9   -0.40    3.30
 -14  11  -9   -0.20    3.40
 -14  12   9    5.00    3.40
 -14  12  -9    4.60    3.50
 -14  13  -9    1.60    3.70
 -14  13   9    1.20    3.40
 -14  14   9    3.30    3.70
 -14  14  -9   -1.20    4.00
 -15   1   9    0.40    2.50
 -15  -1   9    2.70    2.90
 -15  -2   9    4.80    3.10
 -15   3   9   17.70    2.90
 -15  -3   9   29.90    3.20
 -15  -4   9   55.39    3.40
 -15   4   9   38.00    3.10
 -15   4  -9   45.80    3.20
 -15   6  -9    7.60    2.70
 -15  -6   9    1.60    3.30
 -15   8   9    1.80    2.60
 -15  12  -9    0.80    3.50
 -15  12   9    0.30    3.40
 -15  13   9    0.30    3.40
 -15  13  -9    0.90    3.90
 -16  -1   9   10.10    2.90
 -16   1   9   10.00    2.70
 -16  -2   9    0.40    3.10
 -16  -3   9   53.89    3.50
 -16   4   9   -0.80    2.60
 -16  -6   9    7.00    3.00
 -16   7   9    0.20    2.80
   0   0 -10   42.20    3.40
   0  -1 -10    1.70    2.90
   0   1 -10    0.60    2.70
   0   2 -10  155.48    4.50
   0  -2 -10  130.49    4.50
   0   3 -10   -0.80    2.50
   0  -3 -10   -1.70    3.30
   0   4 -10   65.69    3.80
   0  -4 -10   43.60    4.50
   0  -5 -10    0.20    2.60
   0   5 -10    0.60    3.30
   0  -6 -10    0.00    3.10
   0   6 -10   -1.40    3.20
   0   7 -10   -0.50    3.00
   0   8 -10    7.90    3.00
   0   9 -10   -2.20    3.20
   0  10 -10  156.48    5.60
   0 -10 -10  131.59    5.10
   0 -11 -10   -0.30    3.40
   0  11 -10   -0.90    3.90
   0  12 -10   65.59    4.90
   0 -12 -10   49.20    4.80
   0  13 -10    1.30    3.90
   0 -13 -10    0.60    3.80
   0 -14 -10   84.19    6.00
   0  14 -10  101.99    6.80
   0 -15 -10   -0.70    4.50
   1  -1 -10   29.20    3.20
   1   1 -10   26.40    3.30
  -1   1  10   39.80    3.10
  -1  -1  10   39.40    3.40
  -1  -2  10   93.19    3.80
   1   2 -10   71.39    3.70
   1  -2 -10   61.59    4.00
   1  -3 -10   63.19    4.60
  -1  -3  10  119.09    3.80
   1   3 -10  119.59    4.30
   1   4 -10   77.39    3.90
   1  -4 -10   38.50    4.10
  -1   4 -10   71.89    3.80
  -1  -4  10   39.10    3.80
   1   5 -10    6.40    3.20
  -1  -5  10    9.00    3.40
  -1   5 -10   10.30    3.20
   1  -5 -10    8.20    3.00
   1   6 -10   23.10    3.50
  -1   6 -10   32.50    3.60
  -1  -6  10   32.00    3.70
   1  -6 -10   24.00    3.50
   1   7 -10    1.90    3.20
  -1   7 -10   -0.80    3.40
   1   8 -10    2.70    2.90
  -1   8 -10    2.00    2.90
  -1   9 -10   34.10    4.30
   1   9 -10   46.10    3.80
   1 -10 -10   -0.30    3.10
  -1  10 -10   -0.60    3.00
   1  10 -10    0.50    3.10
   1 -11 -10    0.70    3.60
   1  11 -10    1.60    3.70
  -1  11 -10    1.70    3.80
  -1 -11 -10    0.30    3.40
   1 -12 -10    8.10    4.00
   1  12 -10    7.80    4.30
  -1  12 -10    8.10    4.10
  -1 -12 -10    5.60    3.80
   1  13 -10    1.40    4.20
   1 -13 -10    1.40    3.80
  -1  13 -10    0.60    4.40
  -1 -13 -10    0.10    3.80
  -1  14 -10    3.70    5.60
   1 -14 -10    3.20    4.40
   1  14 -10    4.10    4.30
  -1 -14 -10    1.70    3.90
   1 -15 -10    0.20    5.60
  -1 -15 -10   -0.30    3.80
  -1 -16 -10   14.20    5.90
  -1 -16 -10   10.90    5.30
   2   0 -10   36.90    3.30
  -2   0  10   37.00    3.30
   2  -1 -10    0.20    3.00
   2   1 -10    0.90    3.00
  -2  -1  10    0.40    3.70
   2  -2 -10   22.90    3.90
   2   2 -10   26.40    3.30
  -2  -2  10   21.50    3.50
   2   3 -10   50.29    3.20
  -2   3  10   54.29    3.40
  -2  -3  10   40.40    3.60
   2  -3 -10   38.30    3.50
  -2  -4  10   10.70    3.40
   2   4 -10   11.00    2.90
  -2   4  10   15.60    2.90
   2  -4 -10    8.40    3.40
   2   5 -10   12.60    2.80
  -2  -5  10   10.30    3.30
   2  -5 -10   13.60    3.50
   2  -6 -10   14.40    3.40
  -2  -6  10   13.00    3.50
   2   6 -10   15.20    3.40
  -2  -7  10   71.49    4.40
   2   7 -10   61.39    3.60
  -2  -8  10    0.20    2.90
   2   8 -10    0.00    2.90
  -2   8 -10    0.90    3.30
  -2  -9  10   -6.90    3.40
   2   9 -10    2.00    3.20
  -2   9 -10    0.60    3.20
  -2 -10  10   33.20    3.30
   2 -10 -10   33.10    3.70
  -2  10 -10   37.60    4.00
   2  10 -10   43.80    3.60
  -2  11 -10   -1.10    3.80
   2 -11 -10   -1.40    3.50
   2  11 -10    0.20    3.40
  -2 -11  10   -1.00    3.80
   2  12 -10   18.10    4.40
   2 -12 -10   19.00    4.30
  -2  12 -10   18.80    4.30
   2  13 -10   48.90    4.60
   2 -13 -10   44.10    4.60
  -2  13 -10   43.80    5.40
  -2 -14 -10    0.50    3.90
  -2  14 -10    0.80    5.80
   2 -14 -10    1.80    4.50
   2  14 -10    0.20    4.30
  -2 -15 -10    3.60    3.80
  -2 -16 -10    1.10    4.80
  -2 -16 -10    0.20    4.30
  -2 -17 -10    0.20    5.30
  -2 -17 -10   -0.50    5.80
   3  -1 -10   22.40    3.30
   3   1 -10   26.20    3.30
  -3   1  10   37.10    3.20
  -3  -1  10   32.60    3.20
   3  -2 -10  169.78    4.90
   3   2 -10  147.09    4.20
  -3   2  10  236.88    4.50
  -3  -2  10  113.19    5.60
   3  -3 -10   20.30    3.10
   3   3 -10   17.80    2.80
  -3  -3  10   24.80    2.90
  -3   3  10   31.10    3.00
  -3  -4  10    6.10    3.20
   3  -4 -10    7.50    2.70
   3   4 -10    8.50    2.70
  -3   4  10    8.00    2.70
  -3  -5  10   -1.00    3.00
   3  -5 -10    1.30    3.20
   3   5 -10   -1.90    2.50
  -3   5  10   -0.70    3.20
   3   6 -10   27.70    2.80
   3  -6 -10   24.10    3.50
  -3   6  10   31.10    3.60
  -3  -6  10   24.90    3.60
  -3  -7  10    6.20    3.60
   3   7 -10   17.20    3.10
   3   8 -10    0.40    3.10
  -3  -8  10    0.20    2.80
  -3   9 -10    0.00    3.10
   3   9 -10   -0.20    3.00
  -3  -9  10   -1.40    2.70
  -3  10 -10    0.80    3.30
   3  10 -10   -0.20    2.90
  -3 -10  10   -0.40    3.10
   3 -10 -10    0.50    3.20
   3 -11 -10   16.10    4.30
  -3 -11  10   14.70    3.60
   3  11 -10   20.30    3.90
  -3  11 -10   19.00    4.30
   3 -12 -10    6.50    4.00
   3  12 -10    7.10    3.60
  -3  12 -10    5.70    3.90
  -3 -12  10    5.40    3.60
  -3 -13  10    7.70    4.00
   3  13 -10    6.70    3.90
   3 -13 -10    5.60    4.40
  -3  13 -10    6.30    4.50
   3 -14 -10    4.60    4.80
  -3  14 -10    4.40    5.70
  -3 -16 -10    6.40    4.50
  -3 -16 -10    5.70    4.00
  -3 -17 -10    6.20    5.00
  -3 -17 -10    4.00    4.40
  -3 -18 -10    3.30    5.80
  -3 -18 -10    5.60    5.60
  -4   0  10    2.50    3.50
   4   0 -10    0.90    2.80
  -4  -1  10    1.00    3.40
   4  -1 -10    1.10    2.80
   4   1 -10    1.40    2.80
  -4   1  10    1.50    2.80
  -4  -2  10   32.50    2.90
  -4   2  10   28.50    3.40
   4   2 -10   11.90    3.50
   4  -2 -10   18.20    3.50
   4   3 -10   -0.70    2.50
   4  -3 -10    0.40    3.10
  -4   3  10    1.40    3.00
  -4  -3  10    0.60    3.00
   4   4 -10   46.90    3.80
  -4  -4  10   24.80    3.30
   4  -4 -10   36.50    3.20
  -4   4  10   51.89    3.70
   4  -5 -10   30.10    3.60
   4   5 -10   22.50    3.30
  -4  -5  10   28.00    3.50
  -4   5  10   32.60    3.50
   4  -6 -10   -0.40    2.90
  -4   6  10    1.40    2.70
  -4  -6  10    1.70    2.50
   4   6 -10   -2.30    3.20
  -4  -7  10    0.60    3.00
   4   7 -10    1.60    3.00
  -4   7  10   -1.80    2.90
  -4   8  10    6.40    2.80
   4   8 -10    7.30    2.90
  -4  -8  10    3.30    3.20
   4   9 -10    5.70    3.00
  -4  -9  10    5.10    3.00
   4 -10 -10    3.20    3.40
   4  10 -10    3.20    3.30
  -4  10 -10   -1.10    3.80
  -4 -10  10   14.20    3.10
   4 -11 -10    0.80    3.80
   4  11 -10    0.10    3.30
  -4  11 -10    0.40    3.80
  -4 -11  10    0.10    3.20
   4 -12 -10    2.00    3.80
  -4  12 -10    2.90    3.80
   4  12 -10    2.70    3.50
  -4 -12  10    2.30    3.40
  -4 -13  10   -0.70    3.40
   4 -13 -10    0.60    4.10
  -4  13 -10    0.10    4.20
   4  13 -10   -0.70    3.60
  -4 -14  10    4.00    3.60
   4 -14 -10    4.40    4.60
  -4  14 -10    5.20    5.00
  -4 -15  10    2.90    3.80
  -4 -16 -10   37.10    5.00
  -4 -17 -10   -0.80    4.80
  -4 -17 -10    0.00    4.30
  -4 -18 -10    1.30    4.60
  -4 -18 -10    0.70    4.80
  -4 -19 -10   -0.10    6.20
  -4 -19 -10    1.90    6.20
  -5  -1  10   14.70    2.70
   5  -1 -10    5.80    2.70
   5   1 -10    6.80    2.70
  -5   1  10   12.80    2.70
  -5  -2  10   32.10    3.80
   5   2 -10   52.09    3.20
   5  -2 -10   39.80    3.30
  -5   2  10   51.59    3.60
   5  -3 -10   18.60    2.80
  -5  -3  10   11.20    3.30
  -5   3  10   25.90    3.30
   5   3 -10   18.30    3.30
  -5   4  10   91.39    3.50
  -5  -4  10   45.30    3.90
   5  -4 -10   56.09    4.00
   5   4 -10   88.89    3.70
   5   5 -10   41.10    3.30
  -5  -5  10   33.60    2.80
  -5   5  10   34.70    3.50
   5  -5 -10   28.20    3.40
   5  -6 -10    5.80    3.10
   5   6 -10    6.00    2.50
  -5  -6  10    6.70    2.60
  -5   6  10   10.10    3.00
   5  -7 -10   -0.90    2.90
   5   7 -10   -0.30    3.10
  -5  -7  10    0.30    2.50
  -5   7  10   -0.20    2.80
  -5  -8  10    8.00    3.10
  -5   8  10    7.80    2.90
   5   8 -10   12.50    3.10
   5   9 -10   11.60    3.10
  -5   9  10    9.30    3.00
  -5  10  10   19.10    3.80
   5  10 -10   21.80    3.10
  -5 -10  10   23.60    3.20
   5 -11 -10   17.00    4.00
   5  11 -10   22.30    3.20
  -5 -12  10    2.20    3.50
   5 -12 -10    1.60    3.80
   5  12 -10    2.30    3.10
  -5  12 -10   -0.80    4.00
   5  13 -10   16.10    4.00
   5 -13 -10   11.10    4.40
  -5 -13  10   12.60    3.70
  -5  13 -10   10.20    4.30
  -5  14 -10    4.40    4.70
  -5 -14  10    4.20    3.60
   5 -14 -10    4.90    4.40
  -5 -15  10   13.70    4.30
  -5 -16  10    3.20    3.70
  -5 -16 -10    3.10    4.00
  -5 -17 -10    1.00    4.70
  -5 -18 -10   -0.40    4.80
  -5 -19 -10    1.60    5.20
  -5 -19 -10   -1.10    5.30
   6   0 -10    3.90    2.40
  -6   0  10    6.20    2.90
   6   1 -10    3.20    2.40
  -6  -1  10    1.90    2.40
  -6   1  10    0.80    2.90
   6  -1 -10    0.30    2.90
   6  -2 -10   10.00    3.10
   6   2 -10   13.30    2.50
  -6   2  10   16.80    2.60
  -6  -2  10    9.80    3.10
   6   3 -10   12.80    2.50
  -6   3  10   12.60    3.10
   6  -3 -10   10.10    3.10
  -6  -3  10    8.40    2.90
   6  -4 -10    3.60    2.50
  -6  -4  10    0.90    3.00
  -6   4  10    6.70    3.00
   6   4 -10    4.90    2.80
   6  -5 -10    8.80    3.10
   6   5 -10    8.80    3.10
  -6  -5  10   12.30    2.70
  -6   5  10    9.50    3.10
   6   6 -10   12.40    3.20
   6  -6 -10   20.30    3.00
  -6  -6  10   17.40    3.10
   6  -7 -10    6.40    3.00
  -6  -7  10   15.90    2.90
   6   7 -10    9.20    2.50
  -6   7  10    8.60    3.00
  -6  -8  10   -0.40    2.40
  -6   8  10    1.20    2.80
   6  -8 -10    1.90    2.80
   6   8 -10   -1.00    3.00
  -6  -9  10    0.20    3.00
   6   9 -10    0.10    3.10
  -6   9  10   -1.60    3.00
  -6  10  10    4.20    3.10
   6  10 -10    0.80    3.00
  -6 -10  10   41.70    3.30
  -6 -11  10    5.30    2.90
   6  11 -10    5.60    3.10
  -6  11  10    3.30    3.70
   6 -11 -10    4.70    3.50
  -6 -12  10   15.30    3.60
   6  12 -10   15.20    3.70
   6 -12 -10   11.10    4.20
   6 -13 -10   56.99    5.20
  -6  13 -10   45.50    5.00
  -6  14 -10    2.90    4.30
  -6  14 -10    3.60    4.80
  -6 -14  10    9.50    3.80
  -6  15 -10   23.10    6.50
  -6  15 -10   29.00    6.70
  -6 -15  10   24.80    3.70
  -6 -15 -10   35.30    4.40
  -6 -16 -10    0.60    3.80
  -6 -16  10    0.70    3.70
  -6 -17  10    1.20    3.90
  -6 -17 -10   -1.40    4.30
  -6 -18  10    0.60    4.30
  -6 -18 -10   -1.30    4.30
   7  -1 -10   -1.30    2.30
   7   1 -10    2.30    2.20
  -7   1  10    1.70    2.40
  -7  -1  10   -3.80    2.70
   7  -2 -10   12.00    2.50
  -7   2  10   14.50    2.50
   7   2 -10   14.80    2.50
  -7  -2  10   15.40    2.50
  -7  -3  10    4.20    2.40
   7  -3 -10    6.70    2.50
  -7   3  10    5.90    2.50
   7   3 -10    7.40    2.40
   7   4 -10   -0.10    2.30
  -7   4  10    0.70    2.90
  -7  -4  10    0.10    2.90
   7  -4 -10    0.20    3.10
   7   5 -10    3.00    2.40
   7  -5 -10    1.40    2.90
  -7  -5  10   -0.70    2.40
  -7   5  10    0.70    2.50
  -7   6  10   45.10    3.60
  -7  -6  10   28.60    3.40
   7  -6 -10   40.90    3.60
   7   6 -10   40.80    3.30
   7   7 -10   19.40    3.10
  -7   7  10   21.60    3.30
   7  -7 -10   29.90    3.30
  -7  -7  10   21.70    3.30
  -7   8  10    0.40    2.80
   7   8 -10    1.20    2.40
  -7  -8  10   16.60    3.00
   7  -8 -10    1.60    2.90
   7   9 -10   23.50    3.20
  -7   9  10   19.10    3.40
  -7  10  10    1.60    3.20
   7  10 -10    3.20    3.00
  -7 -10  10    4.70    2.80
   7  11 -10    0.30    3.40
  -7  11  10    5.00    3.50
   7  12 -10   -2.10    3.30
  -7  12  10    0.60    3.90
   7 -12 -10   -0.70    3.70
   7 -13 -10   -1.50    3.90
  -7  14 -10    1.40    4.10
  -7  14 -10    1.20    4.50
  -7 -14  10    3.60    3.30
  -7 -15  10    2.10    3.10
  -7  15 -10    1.20    5.30
  -7 -15 -10    0.40    3.40
  -7  15 -10    0.50    4.60
  -7 -16 -10    2.70    3.70
  -7 -16  10    0.60    3.70
  -7 -17 -10    0.80    4.40
  -7 -17  10    2.90    3.90
  -7 -18 -10    1.20    4.20
  -7 -18  10   -0.60    4.10
  -8   0  10    0.80    2.70
   8   0 -10    1.50    2.30
   8   1 -10    3.20    2.10
  -8   1  10   -0.60    2.80
  -8  -1  10    0.50    2.20
   8  -1 -10   -2.30    2.90
   8  -2 -10    3.80    2.80
  -8   2  10    2.30    2.80
  -8  -2  10    2.60    2.20
   8   2 -10    0.40    2.20
   8   3 -10   -0.30    2.30
   8  -3 -10   -0.40    2.80
  -8  -3  10   -0.60    2.30
  -8   3  10   -1.30    2.30
  -8  -4  10   -2.30    2.30
   8  -4 -10   -0.60    2.80
  -8   4  10   -2.20    2.90
   8   4 -10    0.90    2.30
   8   5 -10   -1.50    2.70
   8  -5 -10    0.00    2.40
  -8  -5  10    0.20    2.80
  -8   5  10   -2.40    2.90
  -8   6  10    1.40    2.50
   8   6 -10    1.50    2.80
   8  -6 -10    0.30    2.90
  -8  -6  10    0.90    2.40
  -8   7  10   50.39    3.70
   8  -7 -10   45.80    3.70
   8   7 -10   53.49    2.90
  -8  -7  10   59.19    2.90
  -8   8  10    8.20    2.90
   8  -8 -10    6.80    3.00
  -8  -8  10    5.20    2.60
   8   8 -10    5.60    2.90
   8   9 -10    0.40    3.20
  -8  -9  10   14.80    3.10
  -8   9  10    1.20    2.80
   8  -9 -10    5.00    2.80
  -8 -10  10    3.30    2.70
  -8  10  10    4.60    3.30
   8  10 -10    6.00    2.60
   8  11 -10  143.59    4.40
  -8  11  10  114.89    4.90
  -8  12  10   -0.60    3.50
   8 -12 -10    0.60    3.70
  -8  13  10    0.90    3.50
  -8  14 -10    4.60    4.20
  -8  15 -10    2.40    4.60
  -8  15 -10    2.30    4.70
  -8 -15 -10    2.50    3.50
  -8 -15  10   -0.80    3.20
  -8 -16  10    2.70    3.60
  -8  16 -10   -0.20    6.10
  -8 -16 -10   -0.50    3.60
  -8  16 -10    0.00    5.80
  -8 -17  10    1.20    3.90
  -8 -17 -10    0.50    4.10
  -8 -18 -10   12.90    4.60
  -8 -18  10   10.90    4.10
   9   1 -10    2.50    2.40
   9  -1 -10    4.20    2.80
  -9  -1  10    6.30    2.40
  -9   1  10    7.20    2.40
   9  -2 -10   10.50    2.80
  -9   2  10    8.30    2.30
  -9  -2  10    7.20    2.30
   9   2 -10    4.00    2.30
   9  -3 -10   19.10    2.50
   9   3 -10   17.30    2.60
  -9  -3  10   30.50    2.70
  -9   3  10   26.50    3.00
   9  -4 -10   -2.30    2.90
   9   4 -10    1.00    2.30
  -9   4  10    4.40    2.40
  -9  -4  10   -1.90    2.30
   9   5 -10   17.00    2.60
  -9  -5  10   15.10    3.00
  -9   5  10   21.20    2.70
   9  -5 -10   17.40    3.00
   9   6 -10   12.90    3.20
  -9   6  10   13.60    2.60
  -9  -6  10   15.70    2.50
   9  -6 -10   10.00    3.20
   9   7 -10    6.60    2.90
  -9  -7  10    6.70    2.40
  -9   7  10    4.40    3.10
   9  -7 -10    6.70    3.20
   9   8 -10    3.00    2.60
  -9  -8  10    3.00    2.50
   9  -8 -10    6.90    3.00
   9   9 -10   36.30    2.80
   9  -9 -10   32.70    3.50
  -9  10  10   18.40    3.60
   9 -10 -10   14.20    3.80
   9  10 -10   18.30    3.20
  -9  12  10    3.80    3.70
  -9  13 -10    1.60    4.20
  -9  13  10    4.90    3.60
  -9 -14  10   -0.70    3.50
  -9  14  10    1.20    3.80
  -9 -14 -10    5.40    3.80
  -9  14 -10    2.50    4.10
  -9  15 -10    1.60    4.80
  -9 -15  10    0.50    3.20
  -9 -15 -10    2.10    3.60
  -9 -16  10   -0.20    3.60
  -9  16 -10   -0.50    5.10
  -9  16 -10    1.70    4.80
  -9 -16 -10    0.30    3.80
  -9 -17 -10   -0.60    4.50
  -9 -17  10    2.80    3.90
  10   0 -10    3.70    2.80
 -10   0  10   10.50    2.30
  10   1 -10    2.30    2.30
 -10   1  10    2.60    2.40
  10  -1 -10    4.40    2.40
 -10  -1  10    5.10    2.60
  10   2 -10    3.30    2.60
 -10   2  10    0.70    2.70
 -10  -2  10    1.80    2.70
  10  -2 -10   -5.70    2.70
 -10   3  10   11.30    2.60
  10  -3 -10   12.50    3.10
  10   3 -10    5.50    2.50
 -10  -3  10   11.10    3.00
  10  -4 -10   15.60    2.70
 -10   4  10   20.90    2.70
 -10  -4  10   23.10    3.00
  10   4 -10   22.00    2.60
  10  -5 -10   29.50    2.80
 -10   5  10   27.40    2.90
  10   5 -10   41.10    2.90
 -10  -5  10   39.40    2.80
  10   6 -10    1.30    3.00
 -10   6  10    2.00    2.80
  10  -6 -10    1.20    2.40
 -10  -6  10    1.60    2.80
  10  -7 -10   58.79    4.00
 -10   7  10   66.09    3.40
  10   7 -10   71.39    3.20
 -10  -7  10   62.99    3.80
  10   8 -10    0.90    2.90
 -10   8  10    1.10    2.80
  10  -8 -10    1.40    2.80
 -10  -8  10    3.80    3.00
  10  -9 -10   16.30    3.60
  10   9 -10   11.00    3.40
 -10  10  10   19.20    3.40
 -10 -10  10   17.70    2.60
  10 -10 -10   12.40    3.70
 -10  11  10    2.60    3.30
 -10  12 -10   15.60    4.20
 -10  12  10   13.70    3.70
 -10  13  10   44.30    4.20
 -10  13 -10   52.49    4.70
 -10 -14 -10    3.20    3.40
 -10  14  10    1.70    3.70
 -10  14 -10   -0.10    4.00
 -10  15 -10    7.90    4.90
 -10 -15  10    9.80    3.50
 -10  15  10    9.40    4.40
 -10 -15 -10   13.60    3.60
 -10 -16  10   -0.60    3.40
 -10  16 -10    1.90    4.80
 -10 -16 -10    4.50    3.70
 -10 -17  10    0.80    3.80
 -10 -17 -10    0.80    4.00
 -10  17 -10   -1.00    6.20
 -11  -1  10    5.90    2.60
  11   1 -10    2.90    2.30
 -11   1  10    6.30    2.80
  11  -1 -10    3.90    2.90
 -11   2  10    0.10    2.90
 -11  -2  10    3.40    2.60
  11   2 -10    1.00    2.80
  11  -2 -10   -0.50    2.80
 -11   3  10    6.40    3.10
 -11  -3  10    6.70    2.70
  11  -3 -10    3.70    2.60
  11   3 -10    5.00    2.40
  11   4 -10    4.10    2.50
 -11   4  10    3.40    2.80
 -11  -4  10    5.90    2.80
  11  -4 -10    3.80    3.00
  11  -5 -10   -0.10    3.00
  11   5 -10    4.10    2.70
 -11  -5  10    2.50    2.40
  11  -6 -10   17.30    3.20
 -11   6  10   19.90    2.70
 -11  -6  10   22.80    3.30
  11   6 -10   18.60    2.80
 -11   7  10    1.20    2.30
  11   7 -10   -2.00    3.20
  11  -7 -10    3.70    3.00
  11   8 -10   15.90    2.80
  11  -8 -10   15.20    3.00
  11  -9 -10   26.60    3.00
 -11  11  10    3.10    3.40
 -11  12  10   -0.60    3.10
 -11  12 -10   -1.80    3.60
 -11  13 -10    0.40    3.80
 -11  13  10    6.80    3.60
 -11 -13 -10    2.40    3.40
 -11  14 -10    1.60    4.40
 -11  14  10   -0.30    3.90
 -11 -14 -10    1.50    3.20
 -11 -15 -10    4.10    3.70
 -11  15  10    1.30    3.90
 -11  15 -10    1.60    4.30
 -11  16 -10    9.30    5.20
 -11 -16 -10    6.70    3.90
  12   0 -10    6.20    2.80
 -12   0  10    7.80    2.40
 -12   1  10    0.20    2.40
 -12  -1  10   -1.00    2.40
  12   1 -10    1.40    2.30
  12  -1 -10    1.00    2.90
 -12   2  10    8.50    3.00
 -12  -2  10    5.70    2.50
  12  -2 -10    7.60    3.00
  12   2 -10    6.10    2.70
 -12   3  10    3.00    3.10
  12  -3 -10    3.70    2.60
 -12  -3  10    2.90    2.40
  12   3 -10    1.70    2.40
  12   4 -10    6.70    2.90
  12  -4 -10    8.90    3.20
 -12  -4  10    9.00    2.60
 -12   5  10   22.00    2.70
  12  -5 -10   13.10    3.30
 -12  -5  10   19.00    2.70
  12   5 -10   15.60    3.00
  12   6 -10   10.40    2.60
 -12  -6  10    6.50    2.50
  12  -6 -10   10.20    3.30
  12   7 -10    3.00    2.60
  12  -7 -10   -1.50    3.10
  12  -8 -10    0.80    2.60
 -12  11 -10   -2.90    3.80
 -12 -11  10   -0.80    2.50
 -12  11  10    1.30    3.50
 -12  12  10    4.70    3.70
 -12  12 -10    7.50    3.50
 -12 -12 -10   13.50    3.20
 -12  13 -10    0.20    3.70
 -12  13  10    1.70    3.60
 -12  14 -10    0.20    4.20
 -12  14  10    0.40    3.60
 -12  15 -10    3.90    4.20
 -12  15  10    0.70    4.00
  13   1 -10   -0.10    2.70
  13  -1 -10    1.60    2.90
 -13  -1  10    1.20    2.30
 -13   1  10    1.70    2.40
 -13  -2  10    2.00    2.30
  13   2 -10    1.50    2.40
 -13   2  10    2.10    2.40
  13  -2 -10    3.20    3.10
  13  -3 -10    1.00    2.50
  13   3 -10    3.20    3.10
 -13  -3  10    0.90    2.40
 -13   3  10    4.30    2.40
  13   4 -10   18.80    2.60
  13  -4 -10   12.50    3.30
 -13   4  10   17.00    2.70
  13  -5 -10   -1.80    2.50
  13   5 -10    0.00    2.50
 -13  -5  10   -0.40    2.40
  13  -6 -10    0.50    2.70
 -13  -6  10    1.90    2.50
 -13  -7  10    1.60    2.50
 -13  -8  10    2.20    2.60
 -13   9  10    8.20    2.70
 -13 -10 -10    1.20    2.90
 -13  10 -10    4.50    3.30
 -13 -10  10    0.70    2.60
 -13  11 -10   -2.90    3.70
 -13  11  10    0.60    3.40
 -13  12  10   -2.00    3.40
 -13  12 -10   -0.10    3.30
 -13  13  10   -1.10    3.50
 -13  13 -10   -0.30    4.20
 -13  14 -10    3.30    3.70
 -13  14  10   -0.40    4.10
  14   0 -10   -1.60    2.50
  14  -1 -10    0.20    2.60
 -14   1  10    0.60    2.50
 -14  -1  10   -1.60    2.60
 -14  -2  10   -3.10    2.70
 -14  -3  10   10.60    2.70
 -14  -4  10   -3.30    2.50
 -14  -6  10   -2.50    2.60
 -14   6  10   -2.30    2.40
 -14   8 -10    2.60    3.40
 -14   9 -10    0.90    3.30
 -14  10 -10   -0.70    3.30
 -14  11 -10   14.40    3.60
 -14  12  10    5.70    3.40
 -14  12 -10    3.80    3.40
 -14  13 -10    4.60    3.60
 -14  13  10    3.50    3.40
 -15  -1  10   -0.70    2.80
 -15  -2  10   28.00    3.20
 -15   3  10    4.00    2.60
 -15  -3  10    3.40    2.80
 -15  -4  10    5.40    2.80
 -15   4  10    4.20    2.70
 -15   6 -10    9.50    2.70
 -15   8  10    2.70    2.60
 -15  -9  10    8.20    3.10
 -15   9 -10   13.80    3.40
 -15  10 -10   -0.90    3.50
 -15  11 -10    4.90    3.50
 -15  12 -10   -0.80    3.80
 -15  12  10   -1.30    3.40
 -15  13 -10    1.40    3.90
 -16  -1  10    4.50    2.80
 -16  -2  10   -1.60    3.00
 -16  -3  10   -3.50    3.10
 -16   3  10    0.70    2.70
 -16  -4  10    1.90    3.00
 -16   4  10   -0.40    2.80
 -16   7  10    5.20    2.80
 -16  -9  10   -7.00    3.10
 -17   4  10    4.10    2.80
   1   1 -11 1101.19    9.40
  -1  -1  11  581.44   10.90
   1  -1 -11  515.35   10.30
  -1  -2  11    5.10    3.10
   1   2 -11    4.10    3.00
   1  -2 -11    5.90    3.50
  -1   3 -11  540.95    7.80
   1  -3 -11  622.14    7.50
  -1  -3  11  343.57    8.40
   1   3 -11  710.23    7.50
   1   4 -11    4.70    3.10
   1  -4 -11    2.50    3.30
  -1   4 -11    3.50    2.70
  -1  -4  11    0.90    3.20
   1   5 -11   22.50    3.20
   1  -5 -11   17.10    3.60
  -1  -5  11   21.50    2.80
  -1   5 -11   20.50    3.40
   1   6 -11   28.30    2.90
  -1  -6  11   19.30    3.40
  -1   6 -11   37.80    3.60
   1  -6 -11   27.30    3.50
  -1   7 -11   13.90    3.20
   1   7 -11   13.30    3.20
   1   8 -11   -1.50    2.80
  -1   8 -11   -0.40    2.80
   1   9 -11    3.60    3.20
  -1   9 -11    3.40    3.30
   1 -10 -11   40.80    3.60
  -1  10 -11   56.69    3.90
   1  10 -11   59.69    3.90
   1 -11 -11   -2.10    3.50
  -1 -11 -11    1.20    3.20
  -1  11 -11    2.00    3.90
   1  11 -11    1.00    3.50
   1 -12 -11    0.40    3.80
   1  12 -11    1.50    3.60
  -1  12 -11    1.70    3.80
  -1 -12 -11    1.60    3.40
  -1  13 -11    4.70    4.30
   1 -13 -11    3.70    4.00
   1  13 -11    3.90    4.00
  -1 -13 -11    2.10    3.60
   1 -14 -11   -0.90    4.10
  -1  14 -11    0.00    4.30
  -1 -14 -11    1.40    3.80
   1  14 -11    1.10    4.20
  -1 -15 -11   -0.20    4.00
   1 -15 -11    0.20    4.50
  -1 -16 -11    7.60    4.50
   2   0 -11   -1.00    2.90
  -2   0  11   -0.40    2.90
   2  -1 -11  133.69    5.10
   2   1 -11  100.29    5.20
  -2  -1  11  217.38    4.40
   2   2 -11  126.39    4.40
  -2  -2  11  122.99    3.90
   2  -2 -11   65.99    4.70
   2   3 -11   -0.10    3.30
  -2  -3  11    0.00    2.70
   2  -3 -11   -0.40    2.70
  -2   3  11    1.30    2.70
   2   4 -11   -0.40    2.70
  -2   4  11   -1.20    3.20
  -2  -4  11    1.70    2.60
   2  -4 -11   -0.80    2.60
   2  -5 -11   -1.10    3.20
   2   5 -11    0.10    2.30
  -2  -5  11    1.30    3.00
  -2   6 -11   13.10    3.30
  -2  -6  11   20.00    2.80
   2   6 -11   21.00    3.20
   2  -6 -11   16.30    3.30
   2   7 -11    9.30    3.10
  -2  -7  11    8.00    3.00
   2   8 -11    2.00    2.80
  -2  -8  11    2.50    2.80
  -2   8 -11    2.20    3.30
   2   9 -11    8.20    3.20
  -2  -9  11    9.10    2.80
  -2   9 -11    5.90    3.10
   2 -10 -11    0.60    3.20
  -2  10 -11   -0.50    3.30
  -2 -10  11   -3.10    3.40
   2  10 -11   -1.40    2.90
  -2  11 -11    0.80    3.80
   2  11 -11   -0.90    3.40
   2 -11 -11    0.20    3.70
   2  12 -11    5.60    3.70
  -2  12 -11    6.70    4.20
   2 -12 -11    7.80    3.90
   2  13 -11   -1.40    4.40
   2 -13 -11    1.80    4.10
  -2  13 -11   -0.30    4.40
  -2 -13 -11    2.10    3.50
   2  14 -11    1.20    4.10
  -2  14 -11   -0.20    4.50
   2 -14 -11    0.60    3.90
  -2 -14 -11   -0.60    3.80
  -2 -15 -11    6.50    3.80
   2 -15 -11    5.40    5.00
  -2 -16 -11    2.30    4.10
  -2 -17 -11   -0.50    5.00
  -2 -17 -11   -0.10    5.30
   3  -1 -11  446.36    7.60
   3   1 -11  646.14    6.90
  -3   1  11  449.56    7.70
  -3  -1  11  671.63    6.80
   3  -2 -11   76.39    4.30
  -3   2  11  116.79    4.20
   3   2 -11   83.49    3.60
  -3  -2  11   75.69    4.30
   3  -3 -11   11.20    2.90
   3   3 -11   10.10    2.80
  -3   3  11   12.70    3.40
  -3  -3  11   18.00    2.80
   3   4 -11   14.20    2.70
  -3   4  11   18.40    3.30
   3  -4 -11   13.10    3.30
  -3  -4  11   13.90    2.70
   3  -5 -11   21.50    3.00
   3   5 -11   19.30    3.40
  -3   5  11   25.10    3.50
  -3  -5  11   16.00    3.40
   3  -6 -11  112.59    4.30
  -3   6  11  156.28    4.50
  -3  -6  11   88.09    4.70
   3   6 -11  152.58    4.20
   3   7 -11   21.90    3.20
  -3  -7  11   19.70    3.30
   3  -7 -11   21.90    3.30
   3   8 -11   -0.30    2.80
  -3   8 -11    2.10    2.80
  -3  -8  11    2.90    2.70
  -3  -9  11    3.60    3.20
   3   9 -11    2.90    3.10
  -3   9 -11    1.80    3.10
  -3  10 -11    3.20    3.40
  -3 -10  11    1.70    3.20
   3  10 -11    3.10    3.30
   3  11 -11   26.40    3.70
  -3 -11  11   22.20    3.70
   3 -11 -11   22.50    4.00
  -3  11 -11   16.50    4.50
   3  12 -11    2.70    3.40
   3 -12 -11    3.90    4.00
  -3  12 -11    0.50    3.90
  -3 -12  11    2.50    3.40
   3  13 -11    0.90    3.80
   3 -13 -11   -0.10    4.20
  -3  13 -11   -0.70    4.10
  -3 -13  11    0.60    3.80
   3  14 -11   12.40    3.90
  -3  14 -11    9.30    4.80
   3 -14 -11   11.10    4.20
  -3 -15 -11   -2.50    3.60
   3 -15 -11    0.00    5.00
  -3 -16 -11    0.50    3.90
  -3 -17 -11   -1.20    4.90
  -3 -17 -11    1.40    4.40
  -3 -18 -11    0.40    4.80
  -3 -18 -11    0.80    5.30
  -4   0  11    2.50    3.20
   4   0 -11    0.80    2.70
  -4   1  11   24.60    3.10
  -4  -1  11   22.70    3.70
   4  -1 -11   29.90    3.20
   4   1 -11   31.10    3.10
  -4  -2  11    3.30    2.60
   4  -2 -11    3.20    3.20
   4   2 -11    4.90    2.50
  -4   2  11    6.10    3.20
  -4  -3  11    2.20    2.60
   4  -3 -11    2.30    3.10
   4   3 -11    0.70    2.60
  -4   3  11    2.00    3.20
   4   4 -11   41.30    2.90
  -4   4  11   54.39    3.10
   4  -4 -11   33.10    3.70
  -4  -4  11   55.19    3.10
  -4  -5  11   78.79    3.80
   4  -5 -11   79.59    4.30
   4   5 -11  109.19    3.80
  -4   5  11  135.79    4.10
   4  -6 -11   55.69    3.80
  -4   6  11   77.49    4.00
   4   6 -11   58.39    3.00
  -4  -6  11   81.59    3.30
  -4   7  11   18.00    3.10
   4  -7 -11   14.10    3.10
   4   7 -11   14.70    3.10
  -4  -8  11   -0.20    2.90
   4   8 -11    0.10    3.00
  -4   8  11    1.50    3.10
   4   9 -11    4.00    2.90
  -4  -9  11    4.30    2.90
  -4 -10  11    8.60    2.90
   4  10 -11   11.10    3.40
  -4  10 -11    7.80    3.60
  -4  11 -11    2.50    3.60
   4 -11 -11    4.40    3.80
   4  11 -11    6.10    3.50
  -4 -11  11    5.80    3.10
   4  12 -11   -2.10    3.10
  -4 -12  11    0.10    3.00
  -4  12 -11   -0.30    3.90
   4 -12 -11   -1.50    3.50
  -4  13 -11    7.80    4.40
   4  13 -11   10.00    3.90
   4 -13 -11   10.10    4.10
  -4 -13  11   12.50    3.50
   4  14 -11   17.30    4.00
  -4 -14  11   14.30    3.80
  -4  14 -11   13.00    4.50
   4 -14 -11   13.40    4.30
  -4 -15  11   11.10    4.00
   4 -15 -11   11.00    5.30
  -4 -17 -11   -0.10    4.90
  -4 -17 -11    1.10    4.20
  -4 -18 -11    0.90    4.90
  -4 -18 -11    0.00    4.50
  -4 -19 -11    0.40    5.50
  -4 -19 -11    0.70    5.40
  -5   1  11  282.27    4.70
   5   1 -11  161.68    5.00
  -5  -1  11  266.77    4.60
   5  -1 -11  200.28    4.90
  -5   2  11    1.30    2.40
   5  -2 -11    0.60    2.90
   5   2 -11    3.40    2.50
  -5  -2  11    0.30    2.50
  -5   3  11  208.28    5.00
  -5  -3  11  123.69    4.70
   5   3 -11  247.78    4.40
   5  -3 -11  164.38    5.10
  -5   4  11  175.08    4.70
   5   4 -11  198.08    4.00
  -5  -4  11  135.89    4.70
   5  -4 -11  164.98    4.80
   5   5 -11    1.20    2.50
  -5  -5  11   -0.40    2.40
   5  -5 -11    0.60    3.10
  -5   5  11   -2.20    3.00
   5   6 -11    0.40    3.10
  -5  -6  11   -1.30    2.50
   5  -6 -11    0.50    3.00
  -5   6  11    0.10    2.90
  -5  -7  11   63.39    3.00
   5   7 -11   44.50    2.90
  -5   7  11   53.89    3.50
   5  -7 -11   45.90    3.50
   5   8 -11    0.60    3.00
  -5   8  11   -0.50    3.10
   5   9 -11    8.80    3.10
  -5   9  11    3.70    3.10
  -5 -10  11    6.20    3.10
   5  10 -11    5.30    3.30
   5  11 -11    5.30    3.00
   5 -11 -11    6.00    3.60
  -5  12 -11   34.90    4.20
   5  12 -11   55.29    3.60
   5 -12 -11   42.90    4.30
  -5 -12  11   38.70    3.40
   5  13 -11   -1.90    3.70
  -5 -13  11    1.80    3.50
   5 -13 -11   -0.60    3.70
  -5  13 -11   -1.60    4.20
  -5 -14  11   12.20    3.70
  -5  14 -11    9.20    4.40
   5 -14 -11   11.60    4.30
  -5  15 -11   13.90    6.40
  -5 -15  11   12.10    3.70
  -5  15 -11   11.00    5.80
  -5 -16 -11    6.20    4.30
  -5 -16  11    4.00    3.90
  -5 -17 -11   -0.30    4.70
  -5 -18 -11    9.70    4.80
  -5 -19 -11   -0.40    5.30
   6   0 -11    2.40    2.80
  -6   0  11    1.00    2.30
   6   1 -11   20.20    3.10
  -6   1  11   28.20    2.70
   6  -1 -11   31.40    2.70
  -6  -1  11   41.80    2.70
   6   2 -11    4.30    2.90
  -6   2  11    6.00    2.40
  -6  -2  11    3.30    2.90
   6  -2 -11    4.30    2.50
   6   3 -11   81.09    3.20
  -6  -3  11   73.39    3.90
  -6   3  11  106.49    4.00
   6  -3 -11   77.49    3.70
  -6  -4  11   79.79    4.20
  -6   4  11  133.29    4.30
   6   4 -11  153.78    3.90
   6  -4 -11   93.39    4.20
  -6   5  11    3.30    2.60
  -6  -5  11    4.30    2.50
   6   5 -11    3.30    2.50
   6  -5 -11    5.10    2.90
  -6  -6  11   49.40    3.60
   6  -6 -11   51.09    3.70
   6   6 -11   60.79    3.10
  -6  -7  11    4.90    2.90
  -6   7  11    3.10    2.80
   6  -7 -11    0.50    3.00
   6   7 -11    4.30    3.00
   6   8 -11   14.30    2.50
   6  -8 -11   11.60    3.10
  -6   8  11   12.00    3.20
  -6  -8  11   14.40    2.60
  -6  -9  11   14.40    3.20
  -6   9  11   17.10    3.10
   6   9 -11   19.30    3.20
   6  10 -11   36.70    3.30
  -6  10  11   25.70    3.40
  -6 -10  11   28.50    2.90
  -6 -11  11    8.70    3.10
  -6  11  11    5.70    3.20
   6  11 -11    7.70    3.20
   6 -11 -11    7.90    3.70
  -6 -12  11   19.90    3.40
   6 -12 -11   18.30    4.00
   6  12 -11   17.60    3.50
  -6  13 -11    4.50    4.60
   6  13 -11    2.20    4.10
   6 -13 -11    9.70    4.20
   6 -14 -11   19.50    4.50
  -6  14 -11   17.40    4.50
  -6 -14  11   23.40    3.90
  -6  15 -11   -1.80    5.70
  -6  15 -11   -3.30    5.10
  -6 -15  11    2.10    3.40
  -6 -16  11    3.80    3.70
  -6 -16 -11    2.80    3.90
  -6 -17 -11    2.70    4.30
  -6 -17  11    2.90    4.00
  -6 -18 -11    1.70    4.50
   7   1 -11   50.79    3.40
  -7  -1  11   52.59    3.40
   7  -1 -11   56.19    3.50
  -7   1  11   85.69    3.20
   7  -2 -11   -3.20    2.90
   7   2 -11    0.60    2.70
  -7   2  11   -0.80    2.70
  -7  -2  11   -0.90    2.20
   7  -3 -11    3.40    3.00
  -7   3  11    5.20    2.50
   7   3 -11    2.90    2.90
  -7  -3  11    5.80    2.40
   7  -4 -11    9.50    2.70
  -7  -4  11   12.30    2.40
   7   4 -11   10.50    2.40
  -7   4  11   13.30    3.20
   7  -5 -11    6.50    3.00
   7   5 -11    4.90    3.00
  -7  -5  11    5.50    2.40
  -7   5  11    9.20    3.00
  -7   6  11   37.40    3.50
   7  -6 -11   24.30    3.20
   7   6 -11   42.50    3.20
  -7  -6  11   25.50    3.30
  -7   7  11    0.40    3.00
  -7  -7  11    0.10    2.80
   7  -7 -11    2.40    2.90
   7   7 -11   -0.70    3.00
   7   8 -11    6.80    3.10
  -7  -8  11    6.80    3.00
   7  -8 -11   12.30    3.20
  -7   8  11    9.90    3.00
   7   9 -11   41.20    3.20
   7  -9 -11   38.10    3.50
  -7   9  11   32.20    3.30
  -7 -10  11    5.20    2.80
   7  10 -11    1.80    3.10
  -7  10  11    0.10    3.00
   7  11 -11    6.80    3.10
  -7  11  11   -1.20    3.50
   7  12 -11   60.69    3.80
   7 -12 -11   42.50    3.90
  -7  12  11   41.70    4.20
  -7 -13  11   44.90    4.20
   7 -13 -11   39.20    4.40
  -7 -14  11    2.30    3.40
  -7  14 -11    3.70    4.20
  -7  15 -11    3.40    5.20
  -7  15 -11    4.10    4.80
  -7 -15  11    4.40    3.30
  -7 -16 -11    1.30    3.80
  -7  16 -11    1.60    6.70
  -7 -16  11    1.70    3.80
  -7  16 -11    3.10    7.10
  -7 -17 -11    2.80    4.10
  -7 -17  11    3.10    3.90
  -7 -18 -11    2.90    4.40
  -7 -18  11    0.30    3.80
  -8   0  11    2.60    2.70
   8   0 -11   -1.30    2.70
  -8   1  11    1.50    2.30
   8  -1 -11   -1.30    2.30
  -8  -1  11   -0.30    2.20
   8   1 -11   -0.30    2.30
   8   2 -11   21.30    2.60
  -8  -2  11   24.60    3.00
   8  -2 -11   20.60    2.70
  -8   2  11   31.90    3.10
  -8   3  11   52.39    3.30
  -8  -3  11   29.40    3.40
   8  -3 -11   34.30    3.30
   8   3 -11   35.10    2.80
  -8   4  11   57.69    3.50
  -8  -4  11   41.10    3.00
   8  -4 -11   43.40    3.00
   8   4 -11   57.79    2.90
  -8  -5  11    7.40    2.40
  -8   5  11    9.70    3.10
   8  -5 -11   11.70    3.10
   8   5 -11    6.10    2.90
  -8   6  11    5.30    3.00
   8   6 -11    1.30    2.50
  -8  -6  11    2.40    2.50
   8  -6 -11    2.50    3.10
   8   7 -11   21.80    2.70
  -8  -7  11   39.00    3.40
   8  -7 -11   22.70    2.80
  -8   8  11    4.10    2.90
   8   8 -11    0.20    2.50
  -8  -8  11    2.70    2.90
   8  -8 -11    1.00    2.80
   8  -9 -11    0.80    2.80
  -8   9  11   -0.50    2.90
  -8  -9  11   -2.50    2.40
   8   9 -11   -1.50    3.10
  -8  10  11    3.10    3.00
   8  10 -11    3.10    3.10
  -8 -10  11    5.10    3.00
   8  11 -11  -10.00    3.50
  -8  11  11    2.20    3.70
   8  12 -11    2.50    3.50
  -8  12  11    2.80    3.50
   8 -12 -11    1.60    3.60
   8 -13 -11   -1.10    3.80
  -8  13  11   -1.40    3.40
  -8 -14  11    2.10    3.70
  -8  14 -11    3.30    4.60
  -8 -15  11    5.10    3.40
  -8  15 -11    0.90    5.00
  -8  15 -11    3.30    4.40
  -8 -15 -11    2.30    3.90
  -8 -16  11    0.40    3.90
  -8  16 -11   -0.30    5.10
  -8 -16 -11    5.00    4.00
  -8  16 -11    0.90    5.40
  -8 -17  11    8.20    3.80
  -8 -17 -11    8.10    4.20
  -8 -18 -11   -0.90    4.10
  -9  -1  11    0.00    2.20
  -9   1  11   -1.00    2.30
   9   1 -11    0.80    2.30
   9  -1 -11   -1.80    2.80
  -9   2  11    0.70    2.30
   9  -2 -11   -3.50    2.70
   9   2 -11    0.90    2.20
  -9  -2  11   -0.10    2.70
   9   3 -11   36.20    2.60
  -9  -3  11   39.00    3.20
  -9   3  11   47.70    2.80
   9  -3 -11   36.30    3.10
  -9   4  11    8.70    2.60
  -9  -4  11    8.90    2.50
   9   4 -11   10.10    2.40
   9  -4 -11    8.50    2.60
   9   5 -11    1.00    2.40
  -9   5  11    2.40    2.90
  -9  -5  11   -0.50    2.30
   9  -5 -11   -1.10    2.40
   9  -6 -11    1.40    2.50
  -9   6  11    0.80    3.00
   9   6 -11   -0.20    3.00
  -9  -6  11    2.50    2.40
  -9  -7  11   16.50    3.20
   9  -7 -11   17.60    3.20
   9   7 -11   22.70    2.70
  -9   7  11   21.50    2.70
   9  -8 -11   37.70    3.30
  -9  -8  11   35.40    3.40
   9   8 -11   35.70    2.90
  -9   9  11   -1.10    2.90
   9  -9 -11    1.60    3.10
   9   9 -11    0.20    2.60
   9  10 -11   20.10    3.00
   9 -10 -11   17.10    3.40
  -9  10  11   16.80    3.30
   9  11 -11   -0.30    3.30
  -9  11  11    4.60    3.30
  -9  12  11    2.10    3.60
  -9  13  11    1.70    3.60
  -9  14 -11    3.90    4.20
  -9 -14  11    3.20    3.50
  -9  14  11    2.50    3.50
  -9 -15  11    4.10    3.20
  -9  15 -11    2.00    4.90
  -9 -15 -11    1.60    3.40
  -9 -16  11   -0.20    3.40
  -9 -16 -11    2.00    3.70
  -9  16 -11   -0.30    5.10
  -9  16 -11   -1.60    4.90
  -9 -17  11    0.00    3.90
  -9 -17 -11    1.70    4.20
  10   0 -11    3.70    2.70
 -10   0  11   -1.90    2.70
  10  -1 -11    0.90    2.40
  10   1 -11    3.30    2.30
 -10  -1  11    4.60    2.30
 -10   1  11    5.20    2.70
  10  -2 -11   16.20    2.70
  10   2 -11   24.50    2.90
 -10   2  11   27.70    2.70
 -10  -2  11   39.30    2.50
  10   3 -11   53.99    3.00
 -10   3  11   55.89    3.50
  10  -3 -11   43.80    3.40
 -10  -3  11   69.49    2.90
 -10  -4  11    4.20    2.40
  10   4 -11    0.40    2.40
 -10   4  11    4.70    2.80
  10  -4 -11    4.60    2.40
  10  -5 -11   21.30    3.00
 -10   5  11   22.80    3.20
  10   5 -11   23.90    2.70
 -10  -5  11   16.50    3.20
 -10  -6  11    2.60    2.50
  10  -6 -11    1.90    2.90
  10   6 -11    1.90    3.20
 -10   7  11   47.60    3.50
 -10  -7  11   61.59    3.00
  10   7 -11   41.30    3.10
  10  -7 -11   37.30    3.10
  10   8 -11   -1.70    3.00
 -10  -8  11    1.90    2.50
  10  -8 -11   -2.80    3.00
  10   9 -11    9.10    3.30
  10  -9 -11    9.30    3.20
 -10  -9  11   15.20    2.60
 -10  10  11   36.60    3.70
  10  10 -11   36.20    3.50
  10 -10 -11   33.80    3.70
 -10 -11  11    4.80    2.60
  10 -11 -11   10.40    3.70
 -10  11  11   12.20    3.80
 -10  12  11   -0.50    3.70
 -10  13 -11   -3.50    4.30
 -10  13  11    1.70    3.50
 -10  14 -11   -0.60    4.10
 -10  14  11    0.30    3.60
 -10 -14 -11    1.20    3.40
 -10 -15  11   -0.50    3.40
 -10  15 -11    2.80    4.50
 -10 -15 -11    4.90    3.60
 -10 -16 -11    2.90    3.70
 -10  16 -11    0.70    5.10
 -10 -16  11   -1.10    3.70
 -10  17 -11    2.30    5.60
  11  -1 -11   40.20    3.20
 -11   1  11   61.29    2.90
 -11  -1  11   63.99    2.90
  11   1 -11   50.89    2.80
  11  -2 -11   -0.30    2.40
 -11  -2  11    5.10    2.20
 -11   2  11    0.60    2.30
  11   2 -11    0.60    2.70
  11  -3 -11    4.20    2.70
 -11   3  11    4.80    2.60
 -11  -3  11    6.30    2.30
  11   3 -11    5.60    2.30
 -11   4  11   -2.30    2.50
 -11  -4  11   -2.10    2.50
  11  -4 -11    1.00    3.00
  11   4 -11   -2.50    2.50
  11   5 -11   36.30    2.90
  11  -5 -11   24.70    3.20
  11  -6 -11    2.30    2.80
 -11   6  11   -0.60    2.90
  11   6 -11    3.10    2.90
 -11  -6  11    0.10    2.40
  11   7 -11    4.80    2.50
 -11   7  11    7.00    2.90
  11  -7 -11    1.10    2.90
  11   8 -11    0.20    2.80
  11  -8 -11    1.00    2.80
  11  -9 -11   12.90    3.30
  11   9 -11   20.10    2.60
  11 -10 -11   47.30    4.10
 -11 -10  11   44.30    2.90
 -11  11  11    1.40    3.70
 -11 -12  11    2.00    2.60
 -11  12 -11    3.50    3.50
 -11  12  11    2.20    3.30
 -11  13 -11    4.40    4.00
 -11 -13 -11    3.90    3.50
 -11  13  11    4.10    3.40
 -11  14 -11    0.30    4.10
 -11 -14 -11    2.00    3.40
 -11  14  11    0.90    3.90
 -11  15 -11    5.20    4.20
 -11  15  11    1.70    4.00
 -11 -15 -11   -0.60    3.60
 -11 -16  11    3.40    3.60
 -11 -16 -11    1.90    3.80
 -11  16 -11    0.30    4.80
 -12   0  11    0.00    2.80
  12   0 -11   -1.60    2.30
 -12  -1  11   53.09    2.80
  12  -1 -11   39.20    2.90
 -12   1  11   55.49    2.90
  12   1 -11   42.20    2.80
  12   2 -11    0.20    2.90
 -12   2  11   -0.90    2.40
 -12  -2  11    1.60    2.30
  12  -2 -11   -0.90    2.60
  12   3 -11    0.10    2.30
 -12   3  11    5.70    2.50
 -12  -3  11    2.50    2.30
  12  -3 -11    1.70    2.50
  12  -4 -11   13.10    3.20
  12   4 -11   26.50    2.60
 -12   4  11   24.50    2.80
 -12  -4  11   22.80    2.60
  12  -5 -11   10.30    3.10
  12   5 -11   10.60    2.50
 -12  -6  11   -1.50    2.40
 -12   6  11   -1.60    2.40
  12   6 -11    3.40    2.50
  12  -6 -11   -2.40    3.10
  12  -7 -11    8.50    3.10
 -12   7  11    5.50    2.50
  12   7 -11   13.90    3.00
  12  -8 -11   -2.60    2.70
  12   8 -11    2.00    2.90
  12  -9 -11   10.50    3.60
 -12  11  11   -1.70    3.50
 -12 -11  11   -1.00    2.50
 -12  12  11    2.40    3.40
 -12  12 -11    2.60    3.80
 -12  13 -11    0.20    3.50
 -12 -13 -11   -0.70    3.30
 -12  13  11    2.60    3.70
 -12  14 -11   -1.00    4.00
 -12  14  11   -0.50    3.60
 -12 -14 -11    0.90    3.60
 -12  15 -11    5.20    4.20
 -12  15  11   -1.70    4.00
  13   1 -11    2.80    2.30
  13  -1 -11    2.90    2.80
 -13   2  11   20.10    2.50
  13  -2 -11   11.60    2.50
  13   2 -11   12.70    2.50
  13   3 -11   39.90    2.90
 -13   3  11   52.99    3.00
  13  -3 -11   36.50    3.00
  13  -4 -11   12.60    3.20
 -13   4  11   13.30    2.60
  13   4 -11   14.10    3.10
  13  -5 -11   16.00    3.00
 -13  -5  11   19.70    2.70
 -13   6  11    4.90    2.40
  13   6 -11    6.60    3.20
  13  -6 -11    4.30    2.80
 -13  -7  11    6.30    2.50
  13  -7 -11    7.30    3.10
 -13  -8  11   56.69    3.20
 -13  -9  11   -1.40    2.70
 -13 -10  11   -0.10    2.60
 -13  11  11   10.90    3.50
 -13  11 -11    9.40    3.70
 -13  12  11    0.90    3.40
 -13  12 -11   -1.30    3.70
 -13  13 -11   -0.20    3.80
 -13  13  11    2.90    3.50
 -13  14 -11    3.90    4.20
 -13  14  11   -0.80    3.80
  14   0 -11   -2.60    3.00
 -14   1  11   42.00    2.90
 -14  -1  11   43.60    3.00
 -14  -2  11    5.00    2.80
  14  -3 -11   22.40    3.00
 -14  -3  11   32.50    3.00
  14  -4 -11    2.00    3.00
 -14  -4  11    7.50    2.60
  14   4 -11    3.00    2.60
  14  -5 -11   30.40    2.90
 -14  -6  11    5.60    2.70
 -14   7  11   10.70    2.50
 -14   9  11    7.60    2.60
 -14   9 -11    6.00    3.40
 -14  10 -11    4.80    3.40
 -14  11 -11    0.90    3.50
 -14  12  11    2.00    3.30
 -14  12 -11    2.30    3.40
 -14  13  11    1.60    3.40
 -14  13 -11   -0.60    3.70
 -15  -1  11    3.10    2.70
 -15   3  11    6.20    2.50
 -15   4  11    3.30    2.60
 -15  -4  11    0.30    2.60
 -15  -5  11    4.90    2.70
 -15   8 -11   -1.50    2.80
 -15   8  11    0.30    2.70
 -15  -8  11    1.10    2.80
 -15   9 -11    5.00    3.50
 -15  10 -11    1.70    3.60
 -15  11 -11   -2.20    3.40
 -15  12  11    1.90    3.50
 -15  12 -11   -3.40    3.70
 -16   0  11    3.40    2.70
 -16  -1  11    3.40    2.80
 -16   3  11   39.40    3.20
 -16   4  11    3.20    2.70
 -16   5  11    1.80    2.70
 -17  -1  11    4.90    2.80
 -17   3  11   -1.60    2.80
 -17   5  11    4.40    2.80
   0   0 -12 1666.93   16.30
   0   1 -12    0.30    2.80
   0  -1 -12    0.00    2.80
   0   2 -12  147.89    5.30
   0  -2 -12  109.69    5.30
   0  -3 -12   -0.60    2.60
   0   3 -12   -1.20    2.60
   0  -4 -12  140.89    4.90
   0   4 -12  124.29    4.90
   0  -5 -12    1.70    3.00
   0   5 -12   -1.90    3.10
   0   6 -12   84.09    3.80
   0  -6 -12   78.89    4.20
   0   7 -12    1.10    3.10
   0  -7 -12    1.40    2.80
   0   8 -12    1.60    2.90
   0  -8 -12    4.00    3.10
   0   9 -12   -0.10    3.10
   0  10 -12   49.00    4.00
   0  11 -12   -0.10    3.50
   0 -11 -12    1.60    3.20
   0 -12 -12   -1.70    3.40
   0  12 -12    1.30    3.80
   0  13 -12    2.20    3.90
   0 -13 -12    2.20    3.40
   0 -14 -12    3.40    3.90
   0  14 -12    2.70    4.00
   0  15 -12    0.50    4.40
   0 -15 -12    0.60    3.80
   0 -16 -12    0.90    4.50
  -1  -1  12   52.59    3.40
   1   1 -12   37.60    3.50
   1  -1 -12   29.80    3.50
   1   2 -12   88.89    4.60
  -1  -2  12  114.89    4.80
   1  -2 -12   91.99    4.70
   1   3 -12   18.90    3.00
  -1   3 -12   23.40    3.10
  -1  -3  12   30.70    3.10
   1  -3 -12   14.80    3.10
  -1  -4  12  113.19    4.30
  -1   4 -12   83.29    4.40
   1  -4 -12   61.89    4.50
   1   4 -12   71.49    4.40
   1   5 -12   64.99    3.70
  -1  -5  12   41.00    3.80
  -1   5 -12   40.30    3.60
   1  -5 -12   39.80    3.80
   1   6 -12   12.00    3.20
  -1   6 -12   19.00    3.20
   1  -6 -12   12.50    3.20
   1   7 -12    5.70    2.90
  -1   7 -12   -0.60    2.90
   1  -7 -12    0.90    2.90
   1   8 -12   -2.40    2.90
  -1   8 -12   -1.20    2.80
  -1   9 -12    2.90    2.80
   1   9 -12    2.50    2.70
   1  10 -12    7.10    3.00
  -1  10 -12    5.40    3.50
   1 -11 -12    9.60    3.60
  -1  11 -12    8.30    3.70
   1  11 -12   10.70    3.60
   1 -12 -12    0.00    3.70
  -1  12 -12    0.60    3.70
   1  12 -12   -0.40    3.70
  -1 -12 -12    0.30    3.50
  -1 -13 -12   24.50    3.90
   1 -13 -12   25.00    3.90
  -1  13 -12   28.60    4.40
   1  13 -12   31.30    4.00
   1  14 -12    0.70    4.10
  -1 -14 -12   -0.50    3.80
  -1  14 -12    1.30    4.00
   1 -14 -12    0.40    3.80
  -1 -15 -12   13.70    4.10
  -1  15 -12   15.60    5.00
   1  15 -12   17.00    4.60
   1 -15 -12   12.90    4.30
  -1 -16 -12    0.00    4.20
   1 -16 -12    0.20    5.30
  -1 -17 -12    2.80    5.30
   2   0 -12 1090.89   13.00
  -2   0  12 2394.06   12.10
   2   1 -12  116.99    5.30
  -2  -1  12  224.08    4.50
   2  -1 -12   95.09    4.70
   2   2 -12   43.30    3.00
   2  -2 -12   24.60    3.60
  -2  -3  12  181.68    4.10
   2   3 -12  179.18    4.40
  -2   3  12  121.19    4.50
   2  -3 -12   86.09    4.60
   2   4 -12   48.70    3.70
  -2  -4  12   91.99    3.40
   2  -4 -12   48.10    4.10
   2   5 -12   65.29    3.60
  -2  -5  12   47.30    3.70
   2  -5 -12   40.60    3.60
   2  -6 -12    1.20    3.00
   2   6 -12   -1.90    3.20
  -2  -6  12    3.40    2.90
  -2   6 -12    3.40    3.00
  -2   7 -12    0.70    2.90
   2   7 -12    0.40    2.90
   2  -7 -12    0.40    2.70
  -2  -7  12    3.90    2.90
   2   8 -12  107.29    3.70
  -2  -8  12   78.59    4.00
  -2   8 -12   76.29    4.40
   2   9 -12    0.60    2.80
  -2  -9  12    1.00    2.80
  -2   9 -12    3.20    3.10
  -2  10 -12    4.30    3.30
  -2 -10  12    4.40    3.20
   2  10 -12    4.70    3.30
  -2  11 -12    0.60    3.80
   2 -11 -12   -0.20    3.30
   2  11 -12    1.90    3.10
   2 -12 -12    2.60    3.50
   2  12 -12    1.40    3.60
  -2  12 -12   -0.40    3.90
  -2 -13 -12    2.10    3.40
  -2  13 -12    0.20    4.10
   2 -13 -12    1.40    3.70
   2  13 -12   -1.10    4.00
  -2 -14 -12    0.30    3.30
   2  14 -12    0.30    3.70
   2 -14 -12    0.30    3.80
  -2  14 -12    0.80    4.00
   2  15 -12    1.40    4.10
   2 -15 -12   -2.00    4.00
  -2  15 -12   -0.20    4.90
  -2 -15 -12    0.30    3.70
   2 -16 -12    1.50    6.20
  -2 -16 -12    0.90    4.20
  -2 -17 -12   -0.70    4.60
  -2 -18 -12   -0.40    5.80
  -2 -18 -12    1.10    6.00
   3  -1 -12    3.20    3.20
   3   1 -12   -0.90    2.70
  -3   1  12    4.60    2.60
  -3  -1  12    2.50    2.70
   3  -2 -12    0.70    2.60
   3   2 -12    2.10    2.60
  -3   2  12    3.60    2.60
  -3  -2  12    6.20    2.60
   3  -3 -12   21.00    3.00
   3   3 -12   21.50    2.90
  -3   3  12   32.50    2.80
  -3  -3  12   14.50    2.90
   3  -4 -12  114.39    4.60
  -3   4  12  172.98    4.80
  -3  -4  12  103.19    4.50
   3   4 -12  179.28    4.10
   3  -5 -12   39.10    3.90
   3   5 -12   35.70    3.60
  -3   5  12   58.39    3.50
   3  -6 -12  257.87    6.00
  -3   6  12  303.17    6.20
  -3  -6  12  457.05    5.80
   3   6 -12  415.06    5.70
   3  -7 -12   83.19    4.10
   3   7 -12  137.79    4.00
  -3  -7  12  132.29    4.00
  -3  -8  12    1.00    2.90
  -3   8 -12    0.90    2.80
   3   8 -12    1.30    2.90
  -3  -9  12   16.70    3.00
  -3   9 -12   16.90    3.20
   3   9 -12   16.90    3.00
   3  10 -12   10.30    3.00
  -3 -10  12   14.10    2.90
  -3  10 -12    8.50    3.40
   3  11 -12    2.40    3.00
   3 -11 -12    1.50    3.40
  -3  11 -12   -0.70    3.50
  -3 -11  12   -1.90    3.20
   3  12 -12    1.50    3.40
  -3  12 -12   -0.20    3.70
  -3 -12  12    1.30    3.00
   3 -12 -12    0.30    3.70
   3  13 -12   16.80    4.00
   3 -13 -12   16.50    4.10
  -3  13 -12   15.30    4.50
   3 -14 -12    0.50    3.90
  -3  14 -12   -1.00    4.00
   3  14 -12   -0.20    3.60
  -3 -15 -12   11.80    3.70
  -3  15 -12   14.60    5.30
   3 -15 -12   17.00    4.40
   3  15 -12   16.70    4.40
  -3 -16 -12   -0.80    3.90
   3 -16 -12    0.90    6.60
  -3 -17 -12    8.60    5.30
  -3 -17 -12    5.60    4.60
  -3 -18 -12    0.20    4.70
  -3 -18 -12    0.70    5.10
   4   0 -12   33.40    3.10
  -4   0  12   41.00    3.00
  -4  -1  12  196.28    5.00
  -4   1  12  212.28    5.00
   4  -1 -12  269.57    4.60
   4   1 -12  196.38    4.90
  -4  -2  12   13.90    2.80
   4  -2 -12   15.10    2.90
   4   2 -12   13.40    3.10
  -4   2  12   23.10    2.80
  -4  -3  12  116.99    4.90
   4  -3 -12  140.29    5.00
   4   3 -12  175.68    4.20
  -4   3  12  226.38    4.60
  -4  -4  12   23.00    3.30
   4  -4 -12   23.10    2.90
   4   4 -12   29.90    2.80
  -4  -5  12    2.30    2.40
   4   5 -12   -0.70    2.40
   4  -5 -12    0.00    3.10
  -4   5  12    2.80    2.50
   4  -6 -12   15.40    3.20
  -4   6  12   19.70    3.10
   4   6 -12   16.50    3.20
  -4  -6  12    7.90    3.30
   4   7 -12    7.80    3.10
  -4   7  12    6.10    2.90
   4  -7 -12    6.10    2.90
   4   8 -12   11.80    3.20
   4  -8 -12   12.30    2.90
  -4   8  12   11.50    2.90
  -4  -8  12   16.10    3.00
  -4  -9  12   22.50    3.30
   4   9 -12   28.20    3.20
  -4 -10  12    1.10    2.80
   4  10 -12    2.00    2.80
  -4  10 -12    0.30    3.50
  -4 -11  12    8.20    3.40
   4 -11 -12    4.80    3.40
  -4  11 -12    5.10    3.50
   4  11 -12    2.80    3.40
   4 -12 -12    0.10    3.90
   4  12 -12    1.10    3.10
  -4 -12  12    1.60    3.10
  -4  12 -12    3.00    3.60
   4  13 -12    4.40    3.80
  -4  13 -12    2.20    4.30
   4 -13 -12    1.90    3.80
  -4 -13  12    3.30    3.20
  -4  14 -12    0.80    4.10
  -4 -14  12    2.80    3.80
   4 -14 -12   -0.20    3.90
   4  14 -12    0.60    3.90
  -4  15 -12    3.40    5.20
   4 -15 -12    5.30    4.30
  -4 -17 -12    1.20    4.30
  -4 -17 -12    1.70    4.80
  -4 -18 -12    2.30    4.20
  -4 -18 -12    0.00    4.80
  -4 -19 -12    1.10    5.30
  -4 -19 -12    0.40    5.10
  -5   1  12  206.08    4.20
  -5  -1  12  197.78    4.20
   5   1 -12  125.59    4.50
   5  -1 -12  148.29    4.20
  -5   2  12   11.10    3.10
   5   2 -12    7.60    2.40
  -5  -2  12    7.40    2.50
   5  -2 -12    7.20    2.60
  -5   3  12  129.89    4.20
  -5  -3  12   75.49    4.10
   5  -3 -12   84.59    4.20
   5   3 -12  134.79    3.60
   5   4 -12   18.20    2.50
   5  -4 -12   15.50    2.70
  -5  -4  12   19.60    3.30
  -5   4  12   24.10    3.30
   5  -5 -12   12.40    3.20
  -5  -5  12   18.40    2.80
  -5   5  12   16.00    2.70
   5   5 -12   12.80    2.50
  -5  -6  12   49.00    3.40
   5  -6 -12   26.10    3.30
  -5   6  12   30.00    3.30
   5   6 -12   32.20    2.70
   5   7 -12  298.97    4.90
  -5  -7  12  346.67    5.30
  -5   7  12  204.18    5.40
   5  -7 -12  269.17    5.50
   5  -8 -12   14.90    3.10
   5   8 -12   21.70    3.20
  -5   8  12   18.20    3.10
   5   9 -12   22.00    3.20
  -5   9  12   18.50    3.40
   5  10 -12    8.80    3.00
  -5 -10  12    8.10    3.00
   5  11 -12   15.50    3.70
   5 -11 -12   14.00    3.30
  -5  11 -12    9.40    3.80
  -5 -11  12   14.80    3.20
   5  12 -12   -0.60    3.20
   5 -12 -12    5.10    3.80
  -5  12 -12   -5.70    4.20
  -5 -12  12   -2.70    3.60
  -5 -13  12   19.00    3.40
   5  13 -12   18.20    3.80
  -5  13 -12   14.60    4.10
   5 -13 -12   16.80    3.70
  -5  14 -12   -0.50    4.00
   5  14 -12    0.10    3.80
  -5 -14  12   -2.80    3.70
   5 -14 -12   -0.60    3.90
  -5  15 -12    0.60    4.90
   5 -15 -12    3.00    4.40
  -5 -15  12    6.00    3.70
  -5 -16  12    1.70    3.90
  -5 -17 -12    3.70    4.30
  -5 -18 -12   -0.40    4.10
  -5 -18 -12    1.00    4.80
  -6   0  12  120.69    4.20
   6   0 -12  114.99    4.00
  -6   1  12    9.20    2.90
  -6  -1  12    9.40    2.40
   6  -1 -12   11.10    2.40
   6   1 -12    9.00    2.80
  -6   2  12    4.90    2.40
  -6  -2  12    4.50    2.80
   6  -2 -12    2.90    2.40
   6   2 -12    1.90    2.90
   6   3 -12    3.00    2.80
  -6  -3  12    5.90    2.40
  -6   3  12    3.00    3.00
   6  -3 -12    1.90    2.40
  -6   4  12    3.50    3.20
  -6  -4  12    5.30    3.00
   6  -4 -12    3.70    3.00
   6   4 -12    4.50    2.50
  -6   5  12   14.80    3.10
   6   5 -12   12.10    2.40
  -6  -5  12   12.20    2.50
   6  -5 -12   11.20    2.60
   6   6 -12   97.99    3.20
  -6  -6  12   81.09    4.00
   6  -6 -12  121.59    4.20
  -6  -7  12    0.10    2.90
   6   7 -12   -2.10    2.40
  -6   7  12    2.00    2.90
   6  -7 -12   -0.30    3.00
   6  -8 -12   46.50    3.70
  -6  -8  12   30.00    3.40
  -6   8  12   35.00    3.40
   6   8 -12   34.90    3.30
  -6  -9  12    3.10    2.40
   6  -9 -12    3.10    2.90
   6   9 -12    0.20    3.00
  -6   9  12    4.20    2.70
  -6  10  12    3.80    3.50
   6  10 -12    4.30    2.90
  -6 -10  12    5.10    3.20
   6  11 -12    3.80    3.20
   6  12 -12   19.50    3.60
   6 -12 -12   18.70    3.90
   6 -13 -12    3.00    3.90
  -6  13 -12    3.00    4.10
   6  13 -12    4.70    3.70
  -6 -13  12    3.70    3.60
   6 -14 -12   -0.50    4.00
   6  14 -12    0.20    3.60
  -6 -14  12   -1.10    3.60
  -6  14 -12   -4.50    4.00
  -6  15 -12    1.10    4.70
  -6 -15  12   -1.80    3.40
  -6 -16  12    3.60    3.40
  -6  16 -12    1.70    7.00
  -6  16 -12    1.80    7.10
  -6 -17 -12    1.90    4.00
  -6 -17  12    5.10    4.10
  -6 -18 -12   -1.50    4.40
  -7   1  12   16.70    2.50
   7  -1 -12   10.00    3.00
  -7  -1  12   13.80    2.80
   7   1 -12    6.70    2.80
   7   2 -12   19.60    2.90
   7  -2 -12   20.10    3.00
  -7  -2  12   28.70    2.50
  -7   2  12   30.30    2.70
   7  -3 -12    2.00    2.90
   7   3 -12    5.00    2.90
  -7  -3  12    1.10    2.40
  -7   3  12    1.30    2.90
   7  -4 -12    8.50    2.60
  -7  -4  12   12.60    2.40
   7   4 -12   10.00    2.40
  -7   4  12   11.30    3.10
  -7   5  12   85.09    4.00
   7  -5 -12   70.79    3.80
   7   5 -12   62.49    3.60
  -7  -5  12   69.29    3.60
  -7   6  12   24.50    2.70
   7  -6 -12   17.60    3.20
   7   6 -12   17.90    2.60
  -7  -6  12   26.90    2.60
   7   7 -12   62.99    3.20
  -7  -7  12   51.19    2.90
   7  -7 -12   37.70    3.40
  -7   7  12   45.80    3.60
  -7  -8  12    7.30    2.60
   7   8 -12    6.60    3.00
   7  -8 -12    8.30    2.90
  -7   8  12    4.10    3.00
   7  -9 -12    1.70    2.80
  -7   9  12    2.10    2.70
   7   9 -12    1.60    2.90
  -7 -10  12   -0.20    2.40
   7  10 -12    0.20    3.00
  -7  10  12    0.00    2.90
  -7  11  12   17.60    3.90
   7  11 -12   21.00    3.30
   7 -12 -12    3.80    3.70
   7  12 -12   -0.30    3.40
  -7  12  12    1.80    3.70
  -7 -13  12   -2.00    3.70
   7 -13 -12    0.30    4.00
   7  13 -12   -7.80    3.80
  -7  14 -12    1.50    3.90
  -7 -14  12    1.90    3.70
   7 -14 -12    2.20    4.10
  -7  15 -12    2.90    4.50
  -7 -15  12    4.30    3.40
  -7  15 -12    1.30    5.10
  -7  16 -12   -0.70    5.60
  -7  16 -12   -1.00    5.90
  -7 -16  12   -0.10    3.70
  -7 -16 -12    0.70    4.30
  -7 -17  12    2.30    3.90
  -7 -17 -12    3.50    3.80
  -7 -18  12    2.50    3.90
  -7 -18 -12    1.60    4.20
  -8   0  12   11.60    2.30
   8   0 -12    8.30    2.90
  -8  -1  12   28.60    3.00
   8  -1 -12   25.80    2.70
  -8   1  12   41.20    2.80
   8   1 -12   36.40    2.60
  -8   2  12   -1.60    2.30
   8  -2 -12    1.00    2.30
  -8  -2  12    3.00    2.20
   8   2 -12   -1.00    2.30
  -8   3  12   45.10    3.40
   8  -3 -12   37.70    3.20
  -8  -3  12   44.00    2.80
   8   3 -12   36.00    2.80
  -8  -4  12   26.50    3.00
  -8   4  12   35.70    2.80
   8   4 -12   30.70    2.70
   8  -4 -12   21.40    3.10
   8   5 -12   29.20    3.00
  -8   5  12   28.60    2.70
  -8  -5  12   35.40    2.70
   8  -5 -12   18.20    3.20
  -8  -6  12    5.30    2.80
   8  -6 -12    0.70    2.90
   8   6 -12    0.20    2.40
   8  -7 -12   21.30    3.30
  -8  -7  12   19.60    2.70
   8   7 -12   23.70    2.60
   8   8 -12    9.50    2.60
   8  -8 -12    8.40    2.90
  -8  -9  12    5.80    3.00
   8   9 -12    5.20    2.50
   8  -9 -12    2.30    3.00
  -8   9  12    4.60    3.10
  -8 -10  12    3.20    2.40
   8 -10 -12   -0.20    3.10
   8  10 -12   -1.40    3.00
  -8  10  12    0.80    2.90
   8  11 -12    4.90    3.00
  -8  11  12   11.80    3.70
   8  12 -12   -1.40    3.20
  -8  12  12   -0.60    3.20
   8 -13 -12    2.00    3.90
  -8  13  12    4.90    3.80
  -8 -14  12    0.70    3.50
  -8  15 -12    0.10    4.80
  -8  15 -12    1.80    4.50
  -8 -15  12   -1.30    3.50
  -8 -16 -12   -1.20    3.80
  -8  16 -12    0.80    5.30
  -8 -16  12    0.90    3.90
  -8  16 -12    0.90    4.80
  -8 -17 -12    0.40    3.80
  -8 -17  12   -1.30    3.80
   9   1 -12   33.80    2.80
  -9   1  12   49.30    3.30
  -9  -1  12   45.70    3.20
   9  -1 -12   29.80    3.20
   9  -2 -12   24.70    3.20
  -9   2  12   29.80    3.10
  -9  -2  12   34.10    2.70
   9   2 -12   26.90    2.60
  -9   3  12    0.50    2.20
  -9  -3  12    1.50    2.20
   9   3 -12   -0.50    2.30
   9  -3 -12    0.70    2.70
  -9   4  12    8.60    3.00
  -9  -4  12   10.40    2.40
   9  -4 -12    4.20    2.50
   9   4 -12    7.20    2.40
   9   5 -12   27.60    2.60
  -9   5  12   23.20    2.70
  -9  -5  12   19.70    2.90
   9  -5 -12   19.70    2.70
   9  -6 -12    4.10    2.90
   9   6 -12    5.70    3.00
  -9  -6  12    5.90    2.50
  -9   7  12   16.50    3.30
   9   7 -12   20.60    2.70
  -9  -7  12   23.10    2.70
   9  -7 -12   15.80    2.70
   9  -8 -12   21.00    3.30
  -9  -8  12   32.80    2.80
   9   8 -12   25.80    2.90
   9   9 -12   21.70    2.70
  -9  -9  12   20.70    2.50
  -9   9  12   20.00    3.30
   9  -9 -12   18.80    3.30
   9 -10 -12    0.40    3.20
   9  10 -12    2.30    2.90
  -9  10  12    3.40    3.20
   9  11 -12    4.80    3.20
  -9  11  12    2.80    3.20
   9  12 -12    1.00    3.50
  -9  12  12    4.00    3.70
   9 -13 -12    4.20    3.80
  -9  13  12    4.20    3.60
  -9 -14  12    2.60    3.50
  -9 -15 -12    2.40    3.50
  -9 -15  12    0.10    3.10
  -9  15 -12    2.80    4.50
  -9 -16  12   -0.80    3.50
  -9  16 -12    1.30    4.90
  -9 -16 -12    1.30    4.00
  -9  16 -12   -0.80    4.80
  -9 -17 -12    3.20    3.80
  -9  17 -12    0.60    6.40
  -9  17 -12    0.60    6.10
  -9 -17  12    0.30    3.90
  10   0 -12  139.59    4.20
 -10   0  12  191.28    4.10
  10   1 -12    6.80    2.30
  10  -1 -12    7.00    2.80
 -10   1  12   10.50    2.40
 -10  -1  12    8.90    2.30
  10  -2 -12    6.30    2.70
  10   2 -12    4.10    2.80
 -10   2  12    6.00    2.40
 -10  -2  12    7.60    2.80
  10  -3 -12   26.60    3.40
  10   3 -12   47.60    2.80
 -10  -3  12   32.70    3.10
 -10   3  12   45.10    2.90
  10  -4 -12    7.20    2.50
  10   4 -12   12.10    2.50
 -10   4  12   12.70    2.60
 -10  -4  12    9.50    2.80
  10  -5 -12    8.80    2.90
 -10   5  12   10.20    2.60
  10   5 -12    9.00    2.90
 -10  -5  12   13.80    2.50
  10  -6 -12    3.80    3.10
 -10  -6  12    3.30    3.10
  10   6 -12    3.90    3.00
  10  -7 -12    2.90    2.90
 -10   7  12    2.70    2.40
 -10  -7  12    0.50    2.70
  10   7 -12    1.30    2.60
 -10  -8  12   -0.20    2.50
  10  -8 -12   -1.20    2.90
  10   8 -12   -2.50    2.50
  10   9 -12    4.80    2.80
  10  -9 -12    3.30    2.90
  10  10 -12    6.60    2.80
  10 -10 -12    8.10    3.40
 -10  10  12    5.30    3.30
 -10 -11  12    4.60    2.50
  10  11 -12   -0.70    2.70
  10 -11 -12    5.10    3.60
 -10  11  12    2.10    3.70
 -10  12  12    2.10    3.70
 -10  13  12   -0.20    3.30
 -10  14  12   -0.80    3.50
 -10  14 -12   -0.80    4.40
 -10 -15  12    4.10    3.40
 -10  15 -12    0.60    4.50
 -10 -15 -12   -0.50    3.60
 -10  16 -12    2.00    4.80
 -10 -16  12    1.30    3.40
 -10 -16 -12    2.30    3.70
 -10  16 -12    0.80    5.00
  11  -1 -12    2.90    2.20
 -11   1  12    0.10    2.80
  11   1 -12    1.30    2.20
 -11  -1  12    0.00    2.60
  11  -2 -12   10.60    2.50
  11   2 -12   12.60    2.40
 -11   2  12   13.70    2.50
 -11  -2  12   12.50    2.30
  11  -3 -12   28.60    3.00
  11   3 -12   29.90    3.10
 -11  -3  12   43.30    2.80
 -11   4  12   38.10    3.40
  11  -4 -12   28.80    3.40
  11   4 -12   50.99    3.20
 -11   5  12   -1.70    2.40
  11  -5 -12    1.00    2.90
  11   5 -12   -1.90    3.00
  11   6 -12   -2.00    2.80
 -11   6  12    0.70    2.40
  11  -6 -12   -1.60    2.90
 -11  -6  12    1.00    2.30
  11   7 -12    1.60    2.50
 -11   7  12    0.40    2.40
 -11  -7  12    2.60    2.50
  11  -7 -12   -2.90    2.90
  11   8 -12   -2.20    3.10
 -11  -8  12   -0.10    2.40
  11  -8 -12    0.40    2.80
 -11  -9  12    0.00    2.50
  11   9 -12   -2.00    2.80
  11  -9 -12   -0.30    3.10
  11  10 -12    6.40    2.70
  11 -10 -12    8.80    3.40
 -11 -10  12   10.00    2.50
  11 -11 -12   -2.00    3.80
 -11  11  12    0.70    3.50
 -11 -12  12   -1.70    2.50
 -11  12  12   -2.80    3.20
 -11  13 -12    0.70    3.40
 -11  13  12    2.10    3.50
 -11  14 -12    1.00    3.90
 -11  14  12   -1.80    3.70
 -11 -14 -12    1.50    3.40
 -11  15  12    1.60    3.90
 -11 -15 -12   -0.20    3.50
 -11  15 -12    2.00    4.30
 -11 -16  12    0.90    3.60
 -11 -16 -12    3.70    3.80
 -11  16 -12    1.10    4.90
 -12   0  12   65.49    3.10
  12   0 -12   72.19    3.10
  12  -1 -12   33.60    2.80
  12   1 -12   32.90    2.90
 -12  -2  12    3.80    2.30
 -12   2  12    1.20    2.50
  12   2 -12   -2.30    2.30
  12  -2 -12   -3.00    2.50
 -12  -3  12    0.50    2.40
 -12   3  12    0.60    2.40
  12   3 -12    3.10    2.90
  12  -3 -12   -3.00    2.80
  12   4 -12    1.10    2.30
  12  -4 -12   -0.60    2.60
  12  -5 -12   -2.00    3.10
  12   5 -12    6.00    2.50
 -12  -6  12    6.90    2.40
  12   6 -12    1.40    2.90
  12  -6 -12    6.70    3.10
  12   7 -12    9.40    3.10
 -12  -7  12   12.70    2.60
  12  -7 -12    7.10    3.00
  12   8 -12    9.80    2.60
  12  -8 -12   10.00    2.80
  12   9 -12    0.30    3.30
  12  -9 -12   -2.30    3.30
 -12 -10  12   -1.30    2.50
  12 -10 -12   -1.00    3.40
 -12  11  12    3.30    3.60
 -12 -11  12    5.60    2.60
 -12  12 -12    0.10    3.40
 -12  12  12    3.00    3.30
 -12  13 -12   -2.20    3.90
 -12 -13 -12    1.00    3.40
 -12  13  12    1.50    3.70
 -12  14 -12    0.80    3.90
 -12  14  12   -1.50    3.70
 -12 -14 -12    1.60    3.50
 -12  15  12    2.80    4.00
 -12  15 -12    0.30    4.30
 -12 -15 -12    2.80    3.60
  13  -1 -12   17.40    2.50
  13   1 -12   15.80    2.60
 -13   2  12    8.30    2.40
  13  -2 -12    8.90    2.40
  13   2 -12    5.80    2.80
  13   3 -12   15.00    2.80
 -13   3  12   19.60    2.80
  13  -3 -12   16.50    3.00
  13  -4 -12    7.10    2.60
  13   4 -12    4.70    2.70
  13  -5 -12   31.70    3.40
 -13  -5  12   36.20    2.80
  13  -6 -12    0.60    3.00
 -13   6  12    4.30    2.50
  13   6 -12    3.30    2.60
 -13  -7  12   11.40    2.60
  13   7 -12   13.10    2.70
 -13   7  12    7.90    2.40
  13  -7 -12   14.10    3.10
 -13   8  12    3.90    2.50
 -13  -8  12    1.80    2.70
  13  -8 -12    3.60    2.50
 -13 -10  12    4.40    2.60
 -13  11  12    5.70    3.40
 -13  11 -12    2.00    3.60
 -13  12  12    0.70    3.10
 -13  12 -12   -1.40    3.50
 -13  13  12    0.10    3.40
 -13  13 -12    2.10    4.10
 -13  14 -12    2.60    4.00
 -13  14  12   -1.40    3.80
  14   0 -12   37.70    3.00
  14   1 -12   67.59    3.30
 -14  -1  12   72.39    3.40
 -14   1  12   78.39    3.20
  14   2 -12   13.40    3.50
 -14  -2  12   19.60    3.00
 -14  -3  12   24.90    2.70
  14  -3 -12   18.30    2.80
  14   4 -12    0.00    3.00
 -14  -4  12    1.80    2.50
  14  -4 -12    0.30    2.90
  14   5 -12   35.50    3.00
 -14   5  12   30.30    3.10
  14  -5 -12   27.00    3.60
 -14  -6  12    1.00    2.70
  14  -6 -12    0.70    3.20
 -14   7  12    2.60    2.40
 -14   9  12    1.80    2.50
 -14  10 -12    2.50    3.40
 -14  11 -12    1.40    3.50
 -14  12 -12    0.30    3.30
 -14  12  12   -0.60    2.90
 -14  13 -12   -2.10    3.90
 -14  13  12   -0.10    3.40
  15  -1 -12    2.50    2.90
 -15  -1  12    0.10    2.50
 -15   3  12    3.30    2.50
  15  -4 -12   -0.20    2.60
 -15   4  12    1.30    2.50
 -15  -4  12   -1.80    2.50
 -15  -5  12    0.20    2.50
 -15  -7  12    0.70    2.80
 -15   8  12   -2.20    2.70
 -15   9 -12   -0.80    3.30
 -15  10 -12   -1.80    3.30
 -15  11 -12    1.20    3.50
 -15  12 -12    5.70    3.60
 -15  12  12    4.50    3.40
 -16   0  12    4.40    2.70
 -16   2  12    3.70    2.60
 -16   3  12   10.20    2.70
 -16  -5  12   31.70    3.10
 -16   5  12   29.30    3.10
 -16  11 -12   -1.50    3.30
   1   1 -13  136.59    5.20
   1  -1 -13  133.49    5.00
   1   2 -13   11.80    3.30
  -1   2 -13   14.10    2.80
   1  -2 -13   17.20    3.20
   1   3 -13   80.49    4.60
   1  -3 -13   82.79    4.40
  -1   3 -13  101.99    4.30
   1  -4 -13    1.90    3.10
   1   4 -13   -0.10    3.00
  -1   4 -13   -0.40    3.10
   1   5 -13  179.58    4.60
  -1   5 -13  147.99    4.80
   1  -5 -13   90.69    4.60
   1  -6 -13    4.30    2.90
   1   6 -13    3.40    3.10
  -1   6 -13    0.70    3.00
   1   7 -13   11.30    2.80
   1  -7 -13    6.60    3.00
  -1   7 -13    8.90    3.00
   1   8 -13   30.90    3.20
   1  -8 -13   27.80    3.20
  -1   8 -13   32.60    3.20
   1   9 -13    2.00    2.80
  -1   9 -13    2.30    2.80
  -1  10 -13    0.10    3.30
   1  10 -13    0.70    3.20
  -1  11 -13    8.90    3.60
   1  11 -13    8.80    3.60
   1 -12 -13   -1.70    3.30
  -1  12 -13    0.90    3.70
   1  12 -13    0.70    3.40
   1 -13 -13    0.40    3.70
   1  13 -13   -2.00    3.80
  -1  13 -13   -1.70    3.90
  -1 -13 -13   -0.90    3.60
  -1  14 -13    4.80    4.00
   1 -14 -13    5.10    4.00
   1  14 -13    4.80    3.90
  -1 -14 -13    2.40    3.40
  -1 -15 -13    1.50    3.60
   1  15 -13   -0.90    4.30
   1 -15 -13    0.90    3.90
  -1  15 -13   -0.60    4.30
  -1 -16 -13    0.10    4.10
  -1  16 -13   -0.70    5.90
   1 -16 -13   -0.60    4.50
  -1 -17 -13    1.10    4.80
   1 -17 -13   -1.00    7.00
   2   0 -13   -0.60    3.20
  -2   0  13   -1.30    2.70
   2   1 -13  284.47    6.00
  -2  -1  13  534.65    5.90
   2  -1 -13  251.47    6.50
   2   2 -13    1.90    3.10
  -2   2  13    0.40    2.60
   2  -2 -13    0.90    2.50
  -2  -3  13    6.70    2.70
   2   3 -13   10.80    2.70
  -2   3  13    7.70    2.80
   2  -3 -13   10.90    2.70
   2   4 -13    4.50    3.00
  -2  -4  13    3.40    2.50
   2  -4 -13    2.60    2.50
   2   5 -13    9.00    2.60
  -2  -5  13   11.60    3.10
   2  -5 -13    6.40    3.10
   2   6 -13    7.20    2.60
  -2   6 -13    6.90    3.00
   2  -6 -13    6.40    2.50
  -2  -6  13    7.80    2.60
   2  -7 -13   50.89    3.50
   2   7 -13   59.49    3.00
  -2  -7  13   63.49    3.40
  -2   7 -13   50.09    3.50
   2  -8 -13   29.50    3.20
  -2   8 -13   33.00    3.30
   2   8 -13   32.10    3.30
  -2  -8  13   29.80    3.50
   2   9 -13   17.10    3.00
  -2   9 -13   10.60    2.90
  -2  -9  13   14.10    3.00
   2  10 -13    4.50    2.80
  -2  10 -13    1.80    3.30
  -2  11 -13   21.40    3.60
   2  11 -13   26.10    3.70
   2  12 -13    2.50    3.60
  -2  12 -13   -0.50    3.50
   2 -12 -13   -0.70    3.50
   2  13 -13    1.60    3.60
  -2  13 -13    2.70    3.80
   2 -13 -13    3.30    3.80
  -2 -13 -13    3.20    3.30
   2  14 -13    4.00    3.80
  -2 -14 -13    0.80    3.50
   2 -14 -13    1.30    3.90
  -2  14 -13    1.50    4.20
   2 -15 -13    2.50    4.00
   2  15 -13    7.20    4.20
  -2 -15 -13    3.20    3.80
  -2  15 -13    4.00    4.40
  -2  16 -13    6.00    7.30
   2 -16 -13    3.60    4.90
  -2 -16 -13    4.90    4.20
  -2 -17 -13    0.20    4.30
  -2 -18 -13   -0.60    5.20
  -2 -18 -13    2.20    4.80
   3  -1 -13   81.19    4.30
   3   1 -13   75.39    4.40
  -3  -1  13  169.28    4.00
  -3   1  13  145.19    4.00
   3  -2 -13   17.50    2.80
   3   2 -13   18.20    2.80
  -3   2  13   34.30    2.80
   3  -3 -13  114.79    4.60
   3   3 -13  122.99    4.40
  -3  -3  13  192.38    4.40
   3  -4 -13    7.70    2.70
   3   4 -13    9.60    3.00
  -3   4  13   14.00    2.70
  -3  -4  13   13.90    2.70
   3  -5 -13   -0.50    3.20
   3   5 -13    3.30    2.30
  -3   5  13    1.90    2.90
   3  -6 -13   40.60    3.50
  -3  -6  13   46.20    3.50
   3   6 -13   35.80    3.50
   3   7 -13   98.19    3.90
   3  -7 -13   57.89    3.70
  -3  -7  13   72.99    4.00
   3  -8 -13   14.70    3.00
   3   8 -13   16.90    3.20
  -3  -8  13   11.40    3.20
  -3   8 -13   14.60    3.00
  -3   9 -13   17.40    3.20
  -3  -9  13   23.10    3.30
   3   9 -13   20.60    3.10
   3  10 -13    5.60    3.10
  -3 -10  13    5.90    3.20
  -3  10 -13    4.00    3.40
  -3 -11  13   12.90    3.10
  -3  11 -13    9.50    3.60
   3  11 -13    9.10    3.40
  -3  12 -13    7.80    3.90
   3 -12 -13    5.70    3.60
   3  12 -13    7.50    3.20
  -3 -12  13    6.40    3.60
  -3  13 -13   10.80    4.20
   3  13 -13   13.20    3.80
   3 -13 -13   15.40    3.70
  -3  14 -13    0.80    3.70
   3  14 -13    1.50    3.60
   3 -14 -13    1.00    3.80
  -3 -15 -13   -0.30    3.60
   3 -15 -13    2.10    4.10
   3  15 -13   -2.00    4.10
  -3  15 -13   -0.80    4.40
   3 -16 -13   -2.00    5.10
  -3 -16 -13   -1.00    3.80
  -3 -17 -13    1.00    4.30
  -3 -18 -13   -0.20    4.60
  -3 -18 -13    2.50    5.00
  -3 -19 -13    2.50    6.20
  -3 -19 -13    3.20    5.60
  -4   0  13   -0.10    2.40
   4   0 -13   -0.10    2.90
  -4  -1  13  386.76    5.10
   4  -1 -13  230.78    5.20
   4   1 -13  207.58    5.50
  -4   1  13  381.56    5.20
   4  -2 -13  118.09    4.30
   4   2 -13  138.09    4.00
  -4   2  13  167.38    4.70
  -4  -2  13  145.59    4.40
   4  -3 -13   66.09    3.80
   4   3 -13   68.39    3.80
  -4  -3  13  115.19    3.50
   4  -4 -13   11.00    3.20
   4   4 -13   12.20    2.60
   4   5 -13    3.20    3.00
   4  -5 -13    4.20    2.50
  -4   5  13    7.40    2.50
  -4  -5  13    4.80    3.00
   4  -6 -13   34.40    3.40
  -4   6  13   46.60    3.20
   4   6 -13   38.00    3.50
   4  -7 -13    7.10    2.90
   4   7 -13    7.80    3.00
  -4   7  13    6.20    3.00
   4  -8 -13   16.60    3.20
  -4  -8  13   12.50    3.20
   4   8 -13   16.90    3.20
   4   9 -13   16.20    3.00
  -4  -9  13   14.40    2.60
   4  10 -13    3.80    2.90
  -4  10 -13    1.40    3.50
  -4 -10  13    3.50    2.80
   4  11 -13    2.30    2.90
  -4  11 -13   -1.20    3.40
  -4 -11  13    2.60    3.30
  -4  12 -13   26.50    4.20
  -4 -12  13   29.60    3.40
   4 -12 -13   24.70    4.00
   4  12 -13   28.20    3.50
  -4  13 -13   10.60    4.10
   4 -13 -13    9.90    3.80
   4  13 -13   10.40    3.80
  -4 -13  13    8.00    3.60
   4  14 -13    9.00    3.90
  -4  14 -13    3.10    4.00
   4 -14 -13    5.50    4.00
  -4 -14  13    7.00    3.60
   4 -15 -13   -0.30    3.90
  -4  15 -13   -1.10    4.20
   4  15 -13   -0.20    3.80
   4 -16 -13    2.20    5.30
  -4 -17 -13    0.00    4.10
  -4 -18 -13   -2.10    5.00
  -4 -18 -13   -0.80    4.30
  -5   1  13    2.50    2.40
   5  -1 -13    2.80    2.80
  -5  -1  13    1.70    2.40
   5   1 -13    4.40    2.40
  -5  -2  13    0.10    2.80
  -5   2  13   -0.90    2.40
   5  -2 -13   -1.20    2.30
   5   2 -13    0.40    2.30
  -5  -3  13    7.50    2.40
   5  -3 -13    1.50    2.40
  -5   3  13    2.60    2.50
   5   3 -13    1.00    2.80
   5   4 -13   60.89    3.00
   5  -4 -13   37.70    3.10
  -5  -4  13   52.79    3.30
  -5   4  13   73.89    3.20
  -5  -5  13  111.19    4.30
   5  -5 -13  129.29    4.50
   5   5 -13  149.39    3.70
   5  -6 -13    1.00    3.10
  -5   6  13    3.40    2.40
   5   6 -13    0.90    2.40
  -5  -7  13   -2.30    2.50
   5   7 -13    0.10    3.10
  -5   7  13    0.50    2.80
   5  -7 -13   -0.20    2.80
  -5   8  13    3.50    2.80
   5  -8 -13    1.80    2.80
   5   8 -13    4.20    2.50
   5   9 -13    5.60    2.80
   5  -9 -13    5.40    2.90
  -5   9  13    4.20    2.90
  -5 -10  13    1.50    2.80
   5  10 -13    1.50    2.70
   5  11 -13   13.10    3.20
  -5  11 -13    9.40    3.70
  -5 -11  13   11.40    3.30
   5 -12 -13    1.50    3.40
   5  12 -13    0.70    3.80
  -5  12 -13    1.90    3.60
  -5 -12  13    0.60    3.10
  -5 -13  13   -1.10    3.40
   5  13 -13   -0.50    3.60
   5 -13 -13    1.90    3.60
  -5  13 -13   -2.50    4.10
  -5  14 -13   25.60    4.30
   5  14 -13   31.20    3.70
  -5 -14  13   24.70    3.50
   5 -14 -13   30.20    4.40
   5  15 -13   -1.10    3.80
  -5  15 -13   -1.30    4.50
  -5 -15  13    0.00    3.40
   5 -15 -13    1.00    4.20
  -5  16 -13   -0.50    6.30
  -5 -16  13    1.50    3.60
  -5 -18 -13    3.30    4.10
  -5 -18 -13    0.10    4.90
  -6   0  13   -3.10    2.20
   6   0 -13    1.80    2.20
  -6   1  13  134.69    3.80
  -6  -1  13   92.39    3.70
   6   1 -13   90.39    3.80
   6  -1 -13   93.19    3.50
  -6   2  13   20.50    3.20
  -6  -2  13   25.70    2.50
   6  -2 -13   16.30    2.70
   6   2 -13   18.10    3.00
  -6   3  13  226.98    5.00
   6   3 -13  181.38    4.10
  -6  -3  13  265.17    4.70
   6  -3 -13  168.18    4.80
  -6  -4  13   27.00    2.70
   6   4 -13   14.60    2.70
   6  -4 -13   19.30    3.30
  -6   4  13   22.80    2.80
   6   5 -13   11.60    2.50
  -6  -5  13   10.60    2.90
   6  -5 -13   10.10    2.60
  -6  -6  13  141.29    3.70
   6   6 -13  129.09    3.30
   6  -6 -13  146.19    4.10
  -6  -7  13   52.89    3.00
   6   7 -13   45.30    2.80
   6  -7 -13   43.40    3.50
  -6   7  13   40.80    3.60
  -6  -8  13    6.50    2.50
   6   8 -13    0.90    3.10
  -6   8  13    6.00    2.80
   6  -8 -13    3.40    2.90
   6  -9 -13   15.00    3.00
   6   9 -13   16.00    2.60
  -6   9  13   17.30    3.00
  -6 -10  13   12.70    2.50
   6  10 -13   18.50    3.00
  -6  10  13   10.10    3.20
   6  11 -13   11.10    3.40
   6  12 -13   11.20    3.50
   6 -12 -13   11.80    3.70
   6  13 -13    0.60    3.80
  -6  13 -13   -1.90    3.60
  -6 -13  13    1.70    3.30
   6 -13 -13    1.90    3.60
   6  14 -13    0.20    3.70
   6 -14 -13    3.30    3.60
  -6  14 -13    2.20    3.70
  -6 -14  13    2.30    3.50
  -6 -15  13   -0.30    3.40
  -6  15 -13    0.60    4.30
   6 -15 -13    0.70    4.60
  -6 -16  13   -1.00    3.70
  -6  16 -13   -0.20    5.20
  -6  16 -13   -0.50    5.70
  -6 -17  13   -0.90    3.80
  -6 -17 -13    1.50    4.40
  -6 -18 -13    2.00    4.30
   7   1 -13   28.60    2.90
  -7   1  13   34.90    3.10
  -7  -1  13   46.40    2.70
   7  -1 -13   27.70    3.20
   7  -2 -13   20.20    3.10
   7   2 -13   21.40    3.00
  -7  -2  13   24.20    2.60
  -7   2  13   25.20    2.70
   7  -3 -13  136.69    4.60
  -7   3  13  183.58    4.40
  -7  -3  13  130.29    4.40
   7   3 -13  127.69    4.10
   7  -4 -13   17.50    2.70
  -7   4  13   24.50    2.60
   7   4 -13   20.70    2.50
  -7  -4  13   28.90    2.50
  -7   5  13    1.60    2.50
   7  -5 -13    4.60    3.00
   7   5 -13    4.50    2.80
  -7  -5  13    1.20    2.30
   7  -6 -13   72.99    4.00
  -7  -6  13   77.09    3.90
   7   6 -13  110.79    3.30
   7  -7 -13   42.90    3.60
  -7  -7  13   40.60    3.60
   7   7 -13   54.59    2.90
  -7   7  13   47.70    3.30
   7  -8 -13   -1.70    2.90
  -7   8  13   -1.00    2.80
   7   8 -13    0.10    3.00
  -7  -8  13    2.80    3.00
   7  -9 -13   -1.30    3.00
   7   9 -13   -1.20    3.10
  -7   9  13   -0.70    2.70
   7  10 -13   -3.00    2.90
  -7  10  13    1.00    3.00
   7  11 -13    0.90    2.90
  -7  11  13   -0.80    3.10
   7  12 -13   13.20    3.50
  -7 -12  13    7.60    3.10
   7 -13 -13   -1.70    3.80
   7  13 -13   -0.50    3.60
  -7 -13  13    1.90    3.30
   7 -14 -13    2.80    3.90
  -7  14 -13    2.60    3.80
  -7 -14  13    5.50    3.70
   7  14 -13    0.60    4.00
   7 -15 -13    0.40    4.40
  -7  15 -13    0.40    4.40
  -7 -15  13   -1.00    3.60
  -7  16 -13   -1.00    5.60
  -7  16 -13    0.20    4.90
  -7 -16  13   -0.80    4.00
  -7 -17  13    3.10    3.80
  -7 -17 -13    7.30    4.30
  -7 -18  13    1.20    4.00
   8   0 -13   -1.10    2.30
  -8   0  13    1.00    2.20
  -8   1  13   53.29    3.40
   8   1 -13   49.50    2.90
   8  -1 -13   50.19    3.30
  -8  -1  13   64.99    3.10
   8  -2 -13   10.00    2.60
  -8   2  13   13.80    2.80
  -8  -2  13   22.40    2.40
   8   2 -13   17.60    2.40
  -8   3  13    0.00    2.30
   8  -3 -13    2.70    2.70
  -8  -3  13   -0.60    2.30
   8   3 -13   -0.60    2.30
  -8   4  13    1.30    2.80
   8  -4 -13    0.50    2.30
  -8  -4  13   -1.40    2.30
   8   4 -13    1.00    2.30
  -8  -5  13   74.59    3.40
   8  -5 -13   69.09    3.70
   8   5 -13   66.89    3.50
  -8   5  13   73.19    3.80
   8   6 -13   -1.10    2.50
  -8  -6  13   -0.50    2.40
   8  -6 -13    0.50    3.00
  -8  -7  13    1.90    3.10
   8  -7 -13    1.80    3.00
   8   7 -13    2.30    2.40
   8  -8 -13   33.40    3.10
   8   8 -13   29.90    2.70
   8   9 -13   10.30    2.50
  -8  -9  13    6.50    2.60
   8  -9 -13    7.60    3.00
  -8   9  13    5.40    3.00
   8  10 -13   12.40    3.00
  -8  10  13    7.80    3.30
   8 -10 -13   11.80    3.60
   8  11 -13   35.90    3.20
  -8  11  13   24.50    3.50
   8  12 -13    0.40    3.10
  -8  12  13    0.60    3.50
   8 -13 -13   12.80    3.70
   8  13 -13   16.90    3.80
  -8 -14  13    3.70    3.50
   8 -14 -13    1.70    3.90
  -8  15 -13    2.70    4.40
  -8 -15  13    5.00    3.50
  -8  16 -13    1.50    5.10
  -8 -16  13   -1.60    3.80
  -8  16 -13    2.70    4.60
  -8 -17 -13    4.40    4.20
  -8  17 -13    2.20    6.50
  -8  17 -13    1.90    6.60
  -8 -17  13    2.50    3.80
  -9   1  13    4.60    2.30
   9  -1 -13    1.80    2.80
   9   1 -13    4.50    2.70
  -9  -1  13    8.60    2.30
  -9   2  13    3.70    2.30
  -9  -2  13    0.80    2.20
   9  -2 -13    0.40    2.70
   9   2 -13   -3.40    2.40
  -9   3  13    2.40    2.80
  -9  -3  13    4.20    2.60
   9  -3 -13    0.60    2.40
   9   3 -13    1.60    2.30
  -9   4  13    1.60    2.40
  -9  -4  13   -1.10    2.30
   9  -4 -13    0.60    2.40
   9   4 -13   -1.60    2.30
  -9   5  13   10.40    3.10
   9  -5 -13    9.30    2.60
   9   5 -13   11.10    2.60
  -9  -5  13   13.80    2.50
  -9  -6  13    4.60    3.00
   9  -6 -13    2.80    2.90
   9   6 -13    5.30    2.80
  -9   7  13    8.80    2.70
   9   7 -13    9.70    3.00
   9  -7 -13    5.90    2.50
   9   8 -13   -0.40    2.50
   9  -8 -13    0.70    2.90
   9  -9 -13    9.90    3.10
   9   9 -13   13.70    2.70
  -9   9  13    9.30    3.10
   9 -10 -13   -0.50    3.20
   9  10 -13   -2.30    2.90
  -9  10  13   -0.50    3.10
   9  11 -13   11.20    3.30
  -9  11  13   10.40    3.50
   9 -11 -13   10.40    3.60
   9  12 -13    6.20    3.50
  -9  12  13    7.30    3.60
  -9  13  13    0.40    3.40
  -9 -14  13    1.10    3.50
  -9 -15  13   -1.10    3.20
  -9  15 -13    3.60    4.90
  -9  16 -13    3.40    4.70
  -9  16 -13    2.20    4.70
  -9 -16 -13    3.80    4.10
  -9 -16  13    0.50    3.40
  -9 -17 -13    3.70    3.80
  -9  17 -13   -0.90    5.80
  -9 -17  13   -2.90    3.50
 -10   0  13    2.20    2.70
  10   0 -13    2.40    2.30
 -10   1  13   52.09    3.00
 -10  -1  13   50.09    2.90
  10  -1 -13   42.10    3.30
  10   1 -13   52.69    2.80
  10   2 -13    3.30    2.40
 -10   2  13    6.30    2.50
  10  -2 -13    8.30    2.90
 -10  -2  13    6.70    2.30
  10   3 -13   40.30    3.20
 -10  -3  13   73.19    2.90
  10  -3 -13   41.00    3.00
  10   4 -13    0.20    2.90
 -10   4  13    0.90    2.90
 -10  -4  13    5.70    2.30
  10  -4 -13    7.50    2.40
  10   5 -13   11.10    2.90
  10  -5 -13    9.50    2.70
 -10  -5  13   12.30    2.50
  10  -6 -13    2.10    2.80
 -10   6  13    0.80    2.40
  10   6 -13    2.00    2.50
 -10  -6  13   -0.20    2.50
  10  -7 -13   81.69    3.40
  10   7 -13   64.09    3.80
  10  -8 -13    4.30    2.90
  10   8 -13    2.10    2.50
  10   9 -13  120.59    3.40
  10  -9 -13  127.69    4.70
  10  10 -13    1.00    2.40
  10 -10 -13   -0.10    3.40
 -10  10  13   -1.30    3.20
  10 -11 -13    1.60    3.40
  10  11 -13    0.60    2.90
 -10  11  13    1.00    3.50
  10  12 -13    0.90    3.20
 -10  12  13    0.20    3.50
 -10  13  13    1.20    3.30
 -10  14  13    1.50    3.80
 -10  15 -13    3.30    4.40
 -10 -15  13   -2.20    3.60
 -10 -16  13    1.00    3.40
 -10 -16 -13    0.80    3.80
 -10  16 -13   -0.30    5.00
 -10  16 -13    3.00    4.70
  11  -1 -13    0.70    2.30
  11   1 -13    0.40    2.70
 -11   1  13    2.40    2.30
 -11  -1  13   -0.40    2.30
  11  -2 -13   -1.90    2.40
  11   2 -13    0.00    2.30
 -11   2  13   -1.10    2.80
 -11  -2  13    8.60    2.80
  11   3 -13   23.90    2.50
  11  -3 -13   18.70    3.20
  11  -4 -13   32.50    2.90
 -11   4  13   44.50    3.00
  11   4 -13   30.60    3.10
  11  -5 -13   -1.00    3.00
 -11  -5  13    0.90    2.40
  11   5 -13    0.00    2.50
 -11   6  13    2.20    2.40
  11   6 -13   -0.30    2.40
  11  -6 -13   -0.30    3.00
  11  -7 -13   26.90    3.30
 -11   7  13   23.20    2.70
 -11  -7  13   31.60    2.80
  11   7 -13   28.10    3.20
  11   8 -13    3.40    2.60
 -11  -8  13    2.50    2.40
  11  -8 -13    3.20    2.80
  11  -9 -13   18.30    3.40
 -11  -9  13   17.40    2.70
  11   9 -13   19.50    3.20
  11 -10 -13    1.40    3.40
 -11 -10  13    2.20    2.40
  11  10 -13   -2.20    3.00
  11  11 -13    0.40    3.30
  11 -11 -13   -0.10    3.70
 -11  11  13   -3.20    3.60
  11 -12 -13   -0.40    3.40
 -11 -12  13    2.00    2.60
 -11  12  13    0.80    3.20
 -11  13  13    0.20    3.40
 -11  14 -13    3.00    4.30
 -11  14  13    1.00    3.60
 -11  15 -13    3.30    4.30
 -11  15  13    0.90    4.10
 -11 -15 -13    3.80    3.70
 -11 -16  13   -0.80    3.70
 -12   0  13    1.10    2.30
  12   0 -13   -1.60    2.90
  12  -1 -13    5.90    2.90
  12   1 -13    8.80    2.40
  12   2 -13   13.40    2.50
  12  -2 -13   16.50    3.20
  12  -3 -13   77.99    3.60
  12   3 -13   81.49    3.20
  12   4 -13    1.10    2.70
  12  -4 -13   -0.10    2.50
  12   5 -13   32.00    2.90
 -12   5  13   28.50    2.80
 -12  -5  13   27.60    2.60
  12  -5 -13   25.70    2.80
  12   6 -13   13.20    2.70
 -12  -6  13   16.10    2.50
  12  -6 -13   11.40    3.00
  12  -7 -13   59.89    3.30
  12   7 -13   62.59    3.00
 -12  -7  13   76.79    3.20
  12  -8 -13   23.70    2.80
  12   8 -13   20.80    3.30
  12   9 -13    6.50    2.60
  12  -9 -13    6.80    3.20
 -12  10  13    4.20    3.30
  12  10 -13    3.80    3.10
  12 -10 -13    9.10    3.50
 -12  11  13   -2.70    3.50
 -12 -11  13    3.90    2.70
  12 -11 -13    2.30    3.60
 -12  12  13   -1.90    3.30
 -12  13 -13    1.70    3.70
 -12  13  13    0.40    3.60
 -12  14  13    1.00    3.90
 -12  14 -13   -1.30    4.10
 -12 -14 -13   -0.30    3.50
 -12 -15 -13    1.30    3.70
 -12  15  13    2.10    3.90
 -12  15 -13    0.70    4.20
  13   1 -13    6.80    2.60
 -13  -1  13   11.60    2.60
  13  -1 -13   16.30    2.90
  13  -2 -13    4.20    2.90
  13   2 -13    0.40    2.50
  13  -3 -13    8.50    2.50
  13   3 -13    7.80    2.70
  13   4 -13   -1.20    2.90
  13  -4 -13   -1.60    2.40
  13  -5 -13   18.60    2.70
 -13  -5  13   23.10    2.70
  13   5 -13   22.50    3.00
  13   6 -13   -3.20    2.90
  13  -6 -13   -0.90    2.90
 -13   7  13   21.40    2.70
 -13  -7  13   24.20    2.80
  13  -7 -13   21.00    3.00
  13   8 -13    6.00    2.70
 -13   8  13    1.80    2.50
 -13  -8  13    2.40    2.60
  13  -8 -13    4.90    2.90
  13  -9 -13    1.30    3.20
 -13  11  13    2.60    3.20
 -13 -11  13    3.10    2.90
 -13  12 -13    3.70    3.80
 -13  12  13   -1.40    3.10
 -13  13  13    2.00    3.40
 -13  13 -13    0.40    4.00
 -13  14 -13    1.80    3.70
 -13  14  13    2.00    3.80
 -13 -14 -13    5.40    3.40
  14   0 -13   -0.70    2.50
  14  -1 -13   55.69    3.00
 -14   1  13   60.29    3.10
 -14  -1  13   59.29    3.30
  14   1 -13   57.79    3.70
 -14  -2  13    0.30    2.70
  14   2 -13    3.00    2.80
  14  -2 -13   -1.00    2.80
  14   3 -13    6.70    3.00
 -14  -3  13    4.60    2.70
  14  -3 -13   -0.60    3.00
  14  -4 -13    8.60    2.70
 -14  -4  13   10.60    2.60
  14   4 -13    9.00    2.60
  14  -5 -13   30.60    3.40
 -14   5  13   30.90    3.00
  14   5 -13   30.40    2.90
 -14  -6  13   11.50    2.70
  14  -6 -13   11.90    3.30
 -14   7  13    0.70    2.40
  14   7 -13   -0.30    2.70
  14  -7 -13    4.60    3.00
  14  -8 -13    2.10    2.80
 -14  -9  13    4.50    2.70
 -14  11 -13    2.80    3.40
 -14  12  13   -1.60    3.40
 -14  12 -13    0.30    3.40
 -14  13 -13    4.00    3.90
 -14  13  13    0.10    3.40
  15  -1 -13   -3.30    2.40
  15  -3 -13    0.30    2.90
 -15   3  13    3.60    2.50
  15   4 -13    0.80    3.20
 -15   4  13   -1.90    2.50
  15  -4 -13   -2.60    2.60
  15  -5 -13    3.00    3.20
 -15  -5  13    5.10    2.60
  15  -6 -13    1.40    2.70
 -15  -7  13    9.60    2.80
 -15  10 -13    1.20    3.30
 -15  11 -13    2.60    3.70
 -15  12  13    1.20    3.70
 -15  12 -13    8.90    3.80
 -16   0  13   -4.00    2.60
 -16   2  13    2.10    2.60
 -16   8 -13    3.40    3.50
   0   0 -14   32.50    3.70
   0  -1 -14    2.10    3.10
   0   1 -14    0.00    2.50
   0   2 -14   67.19    4.10
   0  -2 -14   71.29    3.80
   0  -3 -14    0.70    3.10
   0   3 -14    1.80    3.00
   0   4 -14    3.70    3.10
   0  -4 -14    2.10    3.00
   0   5 -14    0.50    3.10
   0  -5 -14    1.60    2.50
   0  -6 -14    5.00    3.10
   0   6 -14    3.30    3.00
   0  -7 -14   -0.40    2.90
   0   7 -14    1.20    2.80
   0   8 -14   19.70    3.00
   0  -8 -14   14.60    2.90
   0   9 -14    0.10    2.80
   0  -9 -14   -0.80    2.80
   0  10 -14   32.80    3.80
   0  11 -14    0.10    2.90
   0  12 -14    0.00    3.60
   0 -13 -14    0.60    3.50
   0  13 -14    0.20    3.50
   0 -14 -14   -0.60    3.50
   0  14 -14    2.00    3.80
   0 -15 -14   -1.30    3.70
   0  15 -14   -0.90    3.80
   0 -16 -14   14.80    4.60
   0  16 -14   15.40    5.50
   0 -17 -14    0.90    4.80
   1   1 -14   -2.70    3.00
   1  -1 -14   -2.40    3.00
  -1   2 -14   16.40    2.80
   1  -2 -14   16.50    2.80
   1   2 -14   28.00    2.80
   1  -3 -14   14.70    3.20
  -1   3 -14   13.80    3.20
   1   3 -14   15.70    2.80
  -1   4 -14    0.40    2.50
   1  -4 -14    0.00    3.00
   1   4 -14    0.50    2.90
   1   5 -14   -1.40    2.90
  -1   5 -14    2.00    3.10
   1  -5 -14    3.20    2.50
   1   6 -14    0.60    3.10
  -1   6 -14    4.80    3.10
   1  -6 -14    2.20    3.00
   1   7 -14    0.30    2.80
  -1   7 -14   -0.30    2.60
   1  -7 -14    3.20    3.00
   1   8 -14   24.10    3.20
   1  -8 -14   18.90    2.90
  -1   8 -14   18.90    3.20
  -1   9 -14    3.40    3.20
  -1  -9 -14    2.50    2.70
   1   9 -14    6.90    2.80
   1  -9 -14    3.30    2.90
  -1  10 -14   48.80    4.00
   1  10 -14   48.30    3.30
  -1  11 -14    6.50    3.50
   1  11 -14   10.10    3.40
   1  12 -14    1.70    3.50
   1 -12 -14    0.20    3.30
  -1  12 -14   -0.90    3.40
  -1  13 -14   18.10    4.00
   1 -13 -14   18.30    3.80
  -1 -13 -14   16.70    3.60
   1  13 -14   20.30    4.00
   1 -14 -14    0.30    3.70
  -1 -14 -14   -1.30    3.40
   1  14 -14    0.80    3.90
  -1  14 -14   -2.30    4.10
   1  15 -14   -0.20    3.90
  -1  15 -14   -0.40    3.80
   1 -15 -14    0.40    3.70
  -1 -15 -14   -0.60    3.60
  -1 -16 -14    3.40    4.10
  -1  16 -14    9.90    5.20
   1  16 -14    4.00    4.80
   1 -16 -14    3.10    4.40
   1 -17 -14    1.30    5.20
  -1 -17 -14    2.20    4.30
  -1 -18 -14   10.10    5.70
   2   0 -14   47.90    3.40
  -2   0  14   39.70    3.70
   2   1 -14    1.40    2.50
  -2   1  14    0.10    2.50
  -2  -1  14    2.20    2.50
   2  -1 -14   -0.30    2.50
   2   2 -14   13.00    3.10
  -2  -2  14   23.30    2.70
  -2   2  14   21.50    3.20
   2  -2 -14   15.20    3.20
   2   3 -14   -0.50    3.00
  -2  -3  14    2.30    2.50
   2  -3 -14    0.60    2.90
   2   4 -14   16.10    3.10
  -2  -4  14   13.40    2.80
   2  -4 -14   16.30    3.20
   2   5 -14   60.29    3.20
  -2   5 -14   73.39    3.90
  -2  -5  14   75.19    3.50
   2  -5 -14   48.30    3.90
   2   6 -14   31.10    3.40
  -2   6 -14   39.20    3.50
  -2  -6  14   27.40    3.40
   2  -6 -14   25.20    3.40
   2  -7 -14   27.40    3.30
  -2  -7  14   25.80    3.40
   2   7 -14   28.90    3.40
  -2   7 -14   30.50    3.20
   2   8 -14    4.90    2.90
   2  -8 -14    2.50    2.80
  -2   8 -14    5.00    3.00
  -2  -8  14    2.30    2.90
  -2  -9  14    9.70    3.00
   2   9 -14    9.40    2.90
   2  -9 -14   10.50    2.90
  -2   9 -14    8.30    3.00
   2  10 -14    6.10    2.80
  -2  10 -14    4.40    3.30
  -2  11 -14    7.30    3.10
   2  11 -14    5.70    3.10
   2  12 -14   13.50    3.50
  -2  12 -14   15.20    4.00
   2 -12 -14   11.00    3.50
   2  13 -14   -0.20    3.40
  -2  13 -14    1.30    3.40
   2 -13 -14    0.10    3.70
   2 -14 -14   23.40    4.10
  -2 -14 -14   19.20    3.80
  -2  14 -14   24.50    4.20
   2  14 -14   26.00    4.10
  -2  15 -14    2.20    4.20
   2 -15 -14    2.60    3.70
   2  15 -14    5.60    4.00
  -2 -15 -14    1.90    3.40
   2 -16 -14    0.40    4.70
  -2 -16 -14   -0.70    3.90
  -2  16 -14    0.10    5.40
   2  16 -14    0.50    4.50
  -2 -17 -14   -0.50    4.20
   2 -17 -14    0.30    5.60
  -2 -18 -14    1.20    4.90
  -2 -19 -14    2.70    7.60
  -2 -19 -14    1.00    7.20
   3  -1 -14   -0.70    2.90
   3   1 -14    2.80    2.90
  -3   1  14   -0.60    2.40
  -3  -1  14   -0.90    2.40
   3  -2 -14   96.09    4.10
   3   2 -14   99.59    3.70
   3   3 -14   18.80    3.30
   3  -3 -14   20.90    2.90
   3  -4 -14   40.90    3.30
   3   4 -14   38.30    3.60
  -3   4  14   47.00    3.30
   3  -5 -14   73.29    4.00
  -3   5  14   89.59    4.10
   3   5 -14   71.49    3.90
   3   6 -14    3.40    2.50
   3  -6 -14    2.60    2.90
  -3  -6  14    2.20    3.10
   3  -7 -14    0.30    3.00
   3   7 -14    0.30    2.80
  -3  -7  14    1.20    3.00
   3  -8 -14    4.10    2.90
  -3   8 -14    4.50    3.20
  -3  -8  14    6.80    3.10
   3   8 -14    2.70    2.80
   3  -9 -14   21.30    3.20
  -3   9 -14   26.70    3.20
   3   9 -14   28.50    3.20
  -3 -10  14    2.80    2.90
  -3  10 -14    3.70    3.20
   3  10 -14    5.20    2.80
   3  11 -14    2.50    3.00
  -3 -11  14    0.00    3.50
  -3  11 -14    3.00    3.50
  -3  12 -14   18.20    3.90
  -3 -12  14   19.00    3.40
   3  12 -14   21.20    3.90
   3 -12 -14   18.70    3.70
  -3  13 -14    5.90    4.10
   3 -13 -14    6.50    3.70
   3  13 -14    5.70    3.40
   3  14 -14   -0.20    3.70
  -3  14 -14    2.20    3.70
   3 -14 -14    1.20    3.50
   3 -15 -14    3.10    4.10
  -3 -15 -14    4.20    3.70
  -3  15 -14    6.40    4.40
   3  15 -14    6.50    4.10
  -3  16 -14    0.40    5.40
  -3 -16 -14   -1.30    3.80
   3 -16 -14   -0.90    4.70
   3  16 -14   -0.70    4.30
  -3 -17 -14    1.70    4.10
   3 -17 -14   -1.00    6.40
  -3 -18 -14    1.60    4.40
   4   0 -14    5.70    2.50
  -4   0  14   12.10    2.50
   4  -1 -14    7.10    2.90
   4   1 -14    3.30    2.40
   4  -2 -14    3.40    2.40
   4   2 -14    4.30    2.80
  -4   2  14    6.20    2.40
  -4  -2  14    4.10    2.40
   4  -3 -14   26.70    3.00
   4   3 -14   31.50    2.90
  -4  -3  14   33.80    3.40
   4  -4 -14   10.30    2.60
   4   4 -14   11.30    2.90
   4  -5 -14    1.10    3.10
   4   5 -14    1.40    2.80
  -4   5  14    2.00    2.40
  -4  -5  14    0.60    2.50
   4  -6 -14    8.80    3.10
  -4   6  14    6.50    3.10
   4   6 -14    9.90    2.60
   4   7 -14   20.50    3.20
   4  -7 -14   19.40    3.30
  -4   7  14   21.00    3.30
   4  -8 -14    1.80    2.80
   4   8 -14    1.60    2.90
  -4  -8  14   -1.80    3.00
   4  -9 -14   -0.50    2.80
  -4  -9  14   -1.60    2.70
   4   9 -14    0.90    2.80
  -4  10 -14    7.50    3.00
   4  10 -14   11.20    3.00
  -4 -10  14    9.30    3.00
   4  11 -14    6.70    3.10
  -4  11 -14    7.20    3.40
  -4 -11  14   10.60    3.10
  -4 -12  14   -1.70    3.30
   4  12 -14    3.00    3.60
   4 -12 -14    1.50    3.50
  -4  12 -14   -1.30    3.70
  -4  13 -14    1.30    3.60
  -4 -13  14    3.70    3.70
   4  13 -14    5.80    3.30
   4 -13 -14    5.30    3.40
  -4  14 -14    2.70    3.90
   4 -14 -14    3.50    3.80
   4  14 -14    2.50    3.70
  -4 -14  14    4.30    3.60
   4 -15 -14    2.60    3.80
   4  15 -14    3.00    3.80
  -4  15 -14    1.10    4.40
  -4  16 -14    0.50    5.40
   4 -16 -14    0.80    4.70
  -4 -17 -14    0.60    3.80
  -4 -18 -14    4.70    4.60
  -4 -18 -14   19.10    5.30
  -5  -1  14   -1.00    2.60
   5  -1 -14    1.00    2.30
   5   1 -14    1.00    2.20
  -5   1  14    2.60    2.30
  -5  -2  14  112.39    3.20
   5  -2 -14   60.99    3.70
   5   2 -14   61.39    3.50
  -5   2  14   78.49    3.80
   5  -3 -14   28.10    3.30
   5   3 -14   29.10    2.70
  -5   3  14   37.30    3.00
  -5  -3  14   24.20    2.80
   5  -4 -14   24.90    3.20
   5   4 -14   25.40    3.20
  -5   4  14   34.80    3.00
  -5  -4  14   28.20    2.80
  -5  -5  14    3.40    2.40
   5  -5 -14    0.50    2.90
   5   5 -14    5.30    2.50
  -5   6  14    8.00    2.60
   5   6 -14   10.60    2.80
   5  -6 -14   11.60    2.60
   5  -7 -14    6.70    2.80
  -5   7  14    5.40    2.80
   5   7 -14    4.70    3.00
   5   8 -14    3.70    2.80
   5  -8 -14    3.90    3.00
  -5   8  14    5.40    3.00
   5   9 -14    0.90    2.50
   5  -9 -14    0.10    2.80
  -5  -9  14    1.50    2.30
  -5   9  14    0.00    2.60
   5  10 -14    8.70    2.90
  -5 -10  14    7.40    3.00
  -5  11 -14   11.90    3.70
   5  11 -14   21.10    3.30
  -5 -11  14   17.70    3.40
   5 -12 -14   23.10    3.90
  -5  12 -14   23.40    3.90
  -5 -12  14   27.90    3.80
   5  12 -14   28.50    3.60
  -5 -13  14   -0.50    3.20
   5  13 -14    1.70    3.30
   5 -13 -14   -0.90    3.60
  -5  13 -14   -0.40    3.70
  -5  14 -14   -2.60    4.10
   5 -14 -14    1.00    3.50
  -5 -14  14    0.90    3.70
   5  14 -14   -2.50    3.70
   5  15 -14    2.10    3.60
   5 -15 -14    1.80    4.30
  -5  15 -14    2.10    4.40
  -5 -15  14    2.10    3.40
  -5  16 -14    1.40    5.00
   5 -16 -14    2.70    4.90
  -5 -18 -14    2.80    3.90
  -5 -18 -14    1.60    4.60
  -6   0  14    3.50    2.40
   6   0 -14   16.10    2.30
  -6  -1  14    1.90    2.20
   6   1 -14   -0.40    2.20
  -6   1  14    0.20    2.30
   6  -1 -14    1.70    2.80
  -6   2  14    6.90    2.50
  -6  -2  14    2.00    2.30
   6   2 -14    4.80    2.30
   6  -2 -14    2.90    2.90
  -6   3  14   36.00    3.20
  -6  -3  14   28.10    3.30
   6  -3 -14   31.40    3.30
   6   3 -14   38.50    2.80
  -6  -4  14   12.30    2.90
   6  -4 -14    9.90    2.90
   6   4 -14    8.80    3.00
  -6  -5  14   -0.40    2.40
   6  -5 -14   -1.40    2.70
   6   5 -14    0.80    2.20
   6   6 -14   -0.90    2.40
  -6  -6  14  -11.90    3.30
   6  -6 -14    1.10    2.40
  -6   6  14    0.00    2.40
   6   7 -14   47.00    2.80
  -6   7  14   37.50    3.50
   6  -7 -14   37.10    3.30
   6   8 -14    3.60    2.90
  -6   8  14    0.90    2.90
   6  -8 -14   -0.10    3.00
   6   9 -14   46.70    2.80
  -6   9  14   35.90    3.30
   6  -9 -14   36.10    3.30
   6 -10 -14    2.80    3.00
  -6  10  14    4.60    3.30
   6  10 -14    2.20    3.00
  -6 -11  14    1.90    3.00
   6  11 -14    0.80    3.10
  -6 -12  14   -1.70    3.20
  -6  12 -14   -2.20    3.80
   6  12 -14   -0.30    3.30
  -6  13 -14   16.00    3.80
  -6 -13  14   15.20    3.60
   6 -13 -14   14.10    3.90
   6  13 -14   14.40    3.70
   6 -14 -14   -0.10    3.80
   6  14 -14    1.20    3.50
  -6 -14  14   -1.00    3.60
  -6  14 -14    2.80    3.80
  -6 -15  14    1.60    3.30
  -6  15 -14    1.00    4.40
   6  15 -14    0.50    3.20
   6 -15 -14    1.00    4.30
   6 -16 -14   10.20    5.10
  -6  16 -14    7.80    5.30
  -6 -16  14   10.90    3.40
  -6 -17  14   12.70    4.20
  -6 -18 -14   -0.80    4.30
  -7   1  14    1.00    2.30
   7   1 -14    2.00    2.30
  -7  -1  14    2.50    2.80
   7  -1 -14    3.30    2.20
   7   2 -14   35.10    2.60
  -7   2  14   40.70    2.90
  -7  -2  14   43.70    2.60
   7  -2 -14   32.80    3.20
  -7  -3  14   15.10    2.60
  -7   3  14   14.70    2.90
   7   3 -14   12.10    2.40
   7  -3 -14   13.80    2.50
   7   4 -14   -2.30    2.40
  -7  -4  14    0.90    2.30
   7  -4 -14   -2.30    2.40
  -7  -5  14    5.50    2.80
   7   5 -14    8.70    2.40
   7  -5 -14    7.20    3.00
   7  -6 -14   21.70    3.20
  -7  -6  14   21.30    2.80
   7   6 -14   22.30    3.20
   7  -7 -14    3.70    3.10
  -7  -7  14    4.30    2.50
   7   7 -14    1.70    2.90
  -7   7  14    0.70    3.00
  -7  -8  14    0.40    2.50
   7  -8 -14    1.60    2.60
   7   8 -14   -0.20    3.10
  -7   8  14   -1.00    2.70
   7  -9 -14   -2.00    2.70
   7   9 -14    1.50    2.80
  -7   9  14    0.30    2.80
   7 -10 -14   30.50    3.80
  -7  10  14   28.30    3.80
   7  10 -14   39.30    3.20
   7  11 -14   -2.10    2.90
  -7  11  14   -3.10    3.50
   7  12 -14    1.00    3.40
  -7 -12  14   -2.20    3.20
   7 -13 -14   11.30    3.80
   7  13 -14   14.40    3.60
  -7  13 -14    8.50    3.80
  -7 -13  14   10.00    3.50
   7  14 -14    4.10    3.80
  -7  14 -14    0.20    3.80
  -7 -14  14   -0.70    3.70
   7 -14 -14    3.30    3.80
  -7 -15  14    1.60    3.20
  -7  15 -14    2.00    4.30
   7 -15 -14    2.30    4.40
  -7  16 -14    0.70    4.80
  -7 -16  14   -0.90    3.60
  -7  17 -14   -0.60    6.40
  -7 -17  14   -1.70    3.80
  -7  17 -14    0.20    6.90
   8   0 -14    6.70    2.30
  -8   0  14    7.10    2.40
  -8   1  14    8.60    2.40
   8  -1 -14   -0.70    2.80
   8   1 -14    1.90    2.80
  -8  -1  14    5.10    2.30
   8  -2 -14    2.00    2.70
  -8   2  14    0.30    2.30
   8   2 -14    1.50    2.20
  -8  -2  14    3.40    2.70
  -8   3  14   36.60    3.20
   8  -3 -14   30.20    3.10
   8   3 -14   46.80    2.80
  -8  -3  14   34.30    2.80
   8  -4 -14    4.10    2.50
  -8  -4  14    7.50    2.80
   8   4 -14    6.60    2.80
  -8   4  14    9.70    2.50
  -8   5  14   63.69    3.20
   8  -5 -14   45.90    3.50
  -8  -5  14   87.69    3.10
   8   5 -14   57.49    2.90
  -8   6  14   -1.30    2.40
   8   6 -14    0.10    3.00
   8  -6 -14    0.20    2.90
  -8  -7  14    5.60    2.40
   8  -7 -14    4.50    3.00
   8   7 -14    0.10    2.50
  -8   8  14   -2.10    2.70
  -8  -8  14   -0.80    2.50
   8  -8 -14    0.00    2.70
   8   8 -14    0.30    2.50
  -8  -9  14    0.00    2.50
   8   9 -14    0.90    2.90
   8  -9 -14    2.60    3.00
  -8   9  14    2.40    3.00
   8  10 -14    7.10    3.00
  -8  10  14   10.90    3.10
   8 -10 -14    3.10    3.10
  -8  11  14   13.30    3.50
   8  11 -14    9.10    3.10
   8  12 -14   14.60    3.30
  -8  12  14   14.00    3.40
   8  13 -14    5.40    3.30
   8 -13 -14    3.30    3.20
  -8 -14  14   -1.20    3.50
  -8  14 -14   -1.50    3.60
   8 -14 -14   -0.30    3.90
   8  14 -14   -2.40    3.80
   8 -15 -14   20.40    4.70
  -8  15 -14   19.60    4.60
  -8 -15  14   29.50    3.80
  -8  16 -14    2.30    4.70
  -8 -16  14    0.60    3.90
  -8  16 -14    1.70    4.40
  -8  17 -14    1.20    5.70
  -8  17 -14    1.90    5.80
  -8 -17 -14    0.20    4.50
  -8 -17  14    4.20    4.00
  -9   1  14    2.30    2.70
  -9  -1  14    4.60    2.60
   9  -1 -14    1.70    2.40
   9   1 -14    3.20    2.20
  -9   2  14    0.10    2.60
  -9  -2  14   -0.20    2.30
   9  -2 -14   -0.50    2.20
   9   2 -14    0.60    2.60
  -9   3  14    8.70    2.50
  -9  -3  14   12.60    2.40
   9  -3 -14    8.80    2.40
   9   3 -14    6.50    2.40
  -9  -4  14   -0.20    2.30
   9  -4 -14    1.40    2.90
   9   4 -14    0.70    2.30
   9  -5 -14    2.80    2.40
   9   5 -14    0.10    2.90
  -9   5  14    3.10    2.30
  -9   6  14    3.60    2.50
  -9  -6  14    4.40    2.60
   9  -6 -14    1.40    2.70
   9   6 -14    5.30    2.60
   9   7 -14   14.70    3.20
   9  -7 -14   13.40    2.70
   9   8 -14    0.10    3.00
   9  -8 -14    0.10    2.90
   9   9 -14   10.20    3.20
  -9   9  14   11.20    3.20
   9  -9 -14   12.30    3.10
  -9 -10  14    9.10    2.40
   9 -10 -14    9.30    3.10
   9  10 -14    6.90    3.00
  -9  10  14    8.50    3.20
   9  11 -14    2.70    2.90
   9 -11 -14    5.70    3.50
  -9  11  14    3.70    3.50
  -9  12  14    0.20    3.20
   9  12 -14    0.30    3.30
   9  13 -14    8.30    3.10
  -9  13  14    6.80    3.40
  -9 -14  14    1.70    3.30
   9 -14 -14    0.60    3.90
  -9  15 -14    4.20    4.30
  -9 -15  14    7.80    3.30
  -9  16 -14    1.70    4.80
  -9  16 -14   -0.10    4.60
  -9 -16  14    0.40    3.40
  -9  17 -14   -0.80    5.70
 -10   0  14    9.10    2.30
  10   0 -14   10.10    2.30
 -10   1  14    8.20    2.80
 -10  -1  14   10.20    2.80
  10   1 -14   19.20    2.80
  10  -1 -14   12.40    2.40
 -10   2  14   13.60    3.00
 -10  -2  14   12.80    2.40
  10  -2 -14   11.90    2.50
  10   2 -14   13.10    2.40
 -10  -3  14    5.70    2.30
  10  -3 -14    2.00    2.50
  10   3 -14    5.70    2.30
 -10   4  14   -0.50    2.50
 -10  -4  14    4.20    2.30
  10  -4 -14    6.20    3.00
  10   4 -14   -0.50    2.40
 -10  -5  14   17.90    3.20
  10  -5 -14   17.90    2.70
  10   5 -14   18.90    2.70
  10   6 -14   -2.10    2.80
 -10  -6  14    4.40    2.40
  10  -6 -14    2.70    2.40
  10   7 -14   13.00    2.60
  10  -7 -14   10.80    2.60
  10  -8 -14    7.40    3.00
  10   8 -14    8.10    3.10
  10  -9 -14   69.09    3.80
 -10   9  14   62.89    3.60
  10   9 -14   52.49    3.50
  10  10 -14    1.10    2.70
 -10 -10  14    4.10    2.30
  10 -10 -14   -2.00    3.00
 -10  10  14   -2.50    3.10
  10  11 -14   10.60    3.10
 -10  11  14    4.30    3.70
  10 -11 -14    8.60    3.60
  10  12 -14   -0.80    3.00
 -10  12  14    1.90    3.10
 -10  13  14    4.80    3.40
 -10  14  14    1.50    3.40
 -10 -15  14   -0.40    3.30
 -10  15 -14    0.80    4.60
 -10  16 -14    2.20    4.60
 -10 -16 -14    5.10    3.90
 -10  16 -14    1.80    4.60
 -10 -16  14   -1.70    3.50
  11   1 -14   -2.20    2.30
  11  -1 -14    3.20    2.80
 -11   1  14    2.10    2.30
 -11  -1  14   -0.70    2.30
  11  -2 -14    3.10    3.00
  11   2 -14   -0.60    2.80
 -11  -2  14    0.50    2.30
 -11   2  14    1.20    2.50
  11  -3 -14    3.40    2.50
  11   3 -14    0.60    2.30
 -11   3  14   -1.60    2.50
  11  -4 -14    2.50    2.60
  11   4 -14    3.00    2.50
 -11   4  14    5.90    2.60
 -11  -4  14    7.40    2.40
  11  -5 -14    0.90    2.40
  11   5 -14    1.30    2.30
 -11  -5  14    3.30    2.40
  11  -6 -14   -1.20    3.10
  11   6 -14   -1.30    2.80
  11  -7 -14    4.40    3.10
 -11  -7  14    7.80    2.60
  11   7 -14    6.00    2.80
  11   8 -14    0.70    2.80
 -11  -8  14    2.90    2.40
  11  -8 -14    3.60    2.50
 -11   9  14   -1.50    2.60
  11   9 -14    0.10    2.60
 -11  -9  14   -0.90    2.50
  11  -9 -14   -1.70    3.20
  11 -10 -14   10.20    3.50
  11  10 -14   16.20    3.00
 -11  10  14   19.30    3.50
  11  11 -14   -1.80    3.00
  11 -11 -14    1.50    3.60
 -11  11  14   -2.30    3.60
 -11  12  14   10.80    3.20
  11  12 -14   11.60    3.00
 -11 -12  14    8.70    2.60
  11 -12 -14   11.50    3.80
 -11  13  14    1.40    3.30
 -11  14  14   -1.20    3.80
 -11 -15 -14   -2.90    3.70
 -11  15  14    0.10    3.90
 -11  15 -14   -1.30    4.30
  12   0 -14    7.00    2.50
 -12   0  14   11.90    2.50
  12   1 -14    2.70    2.30
  12  -1 -14    1.80    2.40
 -12   1  14   -1.20    2.30
 -12  -1  14   -2.60    2.20
  12  -2 -14   -2.80    2.30
  12   2 -14   -1.70    2.30
  12  -3 -14   24.00    2.70
  12   3 -14   28.30    3.00
  12  -4 -14   -0.10    3.00
  12   4 -14    4.40    2.40
 -12   5  14    1.90    2.40
 -12  -5  14    7.40    2.50
  12  -5 -14    6.70    2.50
  12   5 -14    4.00    2.40
  12   6 -14   14.90    2.80
  12  -6 -14   18.00    2.60
  12   7 -14   18.90    3.30
 -12  -7  14   21.10    2.80
  12  -7 -14   20.50    2.60
  12  -8 -14   21.80    3.20
  12   8 -14   21.50    2.80
  12   9 -14    4.00    3.40
  12  -9 -14    1.20    3.10
  12  10 -14    8.60    3.10
 -12  10  14    7.30    3.20
  12 -10 -14    6.00    3.30
  12  11 -14    7.60    3.10
 -12  11  14    6.10    3.50
 -12 -11  14    7.30    2.80
  12 -11 -14    6.60    3.70
 -12  12  14    0.50    3.30
 -12  13  14   -1.70    3.60
 -12  14 -14    1.90    4.30
 -12  14  14   -0.50    3.80
  13  -1 -14    6.10    2.50
 -13   1  14    5.00    2.50
 -13  -1  14    1.90    2.50
  13   1 -14   -0.90    2.60
  13  -2 -14    2.20    2.30
  13   2 -14    5.60    3.00
  13   3 -14    1.70    2.50
  13  -3 -14   -0.70    2.50
  13   4 -14    7.00    2.50
  13  -4 -14    0.50    2.80
  13  -5 -14    1.00    2.80
  13   5 -14    0.90    2.50
 -13   5  14    1.60    2.40
 -13  -5  14    2.80    2.40
  13  -6 -14   -2.20    2.60
  13   6 -14   -0.50    2.50
 -13   7  14    6.40    2.50
  13  -7 -14    9.00    2.60
 -13  -7  14    8.30    2.70
  13  -8 -14    2.30    3.10
 -13   8  14    3.70    2.50
  13   8 -14    1.00    3.20
  13   9 -14    2.20    2.80
  13  -9 -14   -3.70    3.00
  13 -10 -14    4.20    3.30
 -13  11  14   18.90    3.40
 -13  12  14    0.70    3.20
 -13  13 -14    0.10    4.00
 -13  13  14   -2.10    3.70
 -13  14 -14    0.90    4.00
 -13 -14 -14    0.30    3.70
 -13  14  14    1.30    3.70
  14   0 -14   -5.20    2.50
  14   1 -14   -2.40    2.60
  14  -1 -14    0.00    2.50
 -14   1  14    6.70    2.50
 -14  -1  14   -1.70    2.50
  14  -2 -14    7.20    2.60
  14   2 -14    1.40    3.40
 -14  -2  14    5.50    2.80
  14  -3 -14    1.40    2.60
  14   3 -14    1.40    2.60
 -14  -3  14    0.10    2.60
  14   4 -14    1.30    2.80
 -14  -4  14    4.20    2.50
  14  -4 -14    2.60    3.10
  14   5 -14    9.80    3.10
 -14   5  14   11.70    2.70
  14  -5 -14    8.70    3.00
  14   6 -14    3.70    3.00
  14  -6 -14    5.00    2.70
  14   7 -14    3.40    3.10
  14  -7 -14   -1.20    2.50
 -14   7  14    1.70    2.40
 -14  -8  14    3.00    2.70
  14  -8 -14    6.40    3.10
  14  -9 -14    4.40    3.50
 -14  11  14    0.90    3.00
 -14  12 -14    6.80    3.70
 -14  12  14    5.50    3.50
 -14  13 -14    3.50    3.90
 -14 -13 -14    1.40    3.40
 -14  13  14    4.10    3.80
  15  -1 -14    4.10    3.00
  15  -2 -14    4.20    2.90
 -15   2  14    1.00    2.50
  15  -3 -14    0.60    2.70
  15   3 -14    2.40    3.20
 -15   3  14    2.10    2.50
 -15   4  14    3.90    2.50
  15  -4 -14    1.10    3.20
 -15   5  14    8.50    2.60
  15  -5 -14    5.30    2.80
  15  -6 -14    1.40    2.70
 -15   7  14    1.20    2.70
  15  -7 -14    1.10    3.30
 -15  11 -14    4.30    3.70
 -15  12 -14    1.30    3.90
  16   2 -14    2.90    3.10
 -16   9 -14   -0.50    3.50
 -16  10 -14   -2.00    3.40
 -17   1  14    4.10    2.60
 -19  -1 -14    4.20    3.70
  -1   1 -15  636.84    7.50
   1  -1 -15  434.36    6.70
   1   1 -15  410.86    7.20
  -1   2 -15    0.90    2.80
   1  -2 -15    2.50    2.30
   1   2 -15    0.10    2.30
  -1   3 -15  162.68    5.20
   1  -3 -15  162.28    5.10
   1   3 -15  167.38    4.80
   1  -4 -15   19.60    3.30
   1   4 -15   22.80    2.80
  -1   4 -15   24.70    3.30
   1   5 -15   87.79    4.00
   1  -5 -15   59.19    3.60
  -1   5 -15   67.89    3.60
   1   6 -15    5.00    2.50
  -1   6 -15    2.80    2.50
   1  -6 -15    7.20    3.00
   1   7 -15    0.60    2.40
  -1   7 -15    2.00    2.70
   1  -7 -15    0.20    2.90
   1   8 -15    6.80    3.00
  -1  -8 -15    9.30    3.00
  -1   8 -15    7.80    3.00
   1  -8 -15    7.60    2.90
   1   9 -15   15.80    3.00
  -1  -9 -15   17.60    3.10
   1  -9 -15   14.70    3.10
  -1   9 -15   16.90    3.00
  -1  10 -15   18.90    3.50
   1  10 -15   20.30    3.00
  -1 -10 -15   18.00    2.90
  -1  11 -15   17.70    3.30
   1  11 -15   20.90    3.70
  -1  12 -15    2.30    3.50
   1  12 -15    2.30    3.50
   1 -13 -15   -2.00    3.50
  -1  13 -15    0.20    3.70
   1  13 -15   -2.20    3.60
   1 -14 -15    2.90    3.50
   1  14 -15    0.60    3.70
  -1  14 -15    4.20    3.80
  -1 -14 -15    3.00    3.50
  -1 -15 -15    0.60    3.40
  -1  15 -15    1.20    4.10
   1 -15 -15    1.50    3.70
   1  15 -15    0.20    3.90
  -1 -16 -15   -0.90    3.90
  -1  16 -15   -1.40    4.80
   1  16 -15   -1.50    4.70
   1 -16 -15    0.10    4.30
  -1 -17 -15   -0.50    4.50
  -1  17 -15    1.00    5.70
   1 -17 -15   -0.60    4.90
   1  17 -15   -0.80    5.20
   1 -18 -15    0.40    6.80
  -1 -18 -15    0.10    5.00
  -2   0  15   -0.30    2.40
   2   0 -15   -0.60    2.90
   2   1 -15   36.30    2.90
  -2  -1  15   55.99    3.10
   2  -1 -15   35.50    3.10
  -2   1  15   49.90    3.70
   2   2 -15    5.30    2.40
  -2  -2  15    4.20    2.40
   2  -2 -15    5.00    2.50
   2  -3 -15   -0.10    2.50
  -2  -3  15    5.00    2.90
   2   3 -15    6.00    2.40
   2   4 -15   35.60    2.90
  -2  -4  15   36.80    3.40
   2  -4 -15   30.10    3.10
   2   5 -15  174.98    4.60
  -2   5 -15  188.28    4.80
  -2  -5  15  133.19    5.00
   2  -5 -15  137.89    5.00
   2   6 -15   16.00    3.20
   2  -6 -15   14.20    2.70
  -2  -6  15   16.00    3.20
  -2   6 -15   14.30    2.70
   2  -7 -15    2.20    2.70
   2   7 -15    0.90    3.00
  -2  -7  15    3.60    3.00
  -2   7 -15    1.20    2.90
   2  -8 -15    5.50    2.90
  -2  -8  15    5.20    3.00
   2   8 -15    3.70    3.00
  -2   8 -15    4.40    3.00
   2  -9 -15    2.00    2.90
   2   9 -15    3.60    2.90
  -2   9 -15   -0.50    2.80
   2  10 -15    1.20    2.80
  -2  10 -15   -0.80    3.10
  -2  11 -15    0.80    3.30
   2  11 -15    2.00    2.90
  -2  12 -15   35.70    4.10
   2  12 -15   41.50    4.10
   2  13 -15   -0.50    3.40
  -2  13 -15    0.90    3.40
   2 -13 -15   -0.90    3.40
   2 -14 -15    3.70    3.50
  -2  14 -15   -0.10    3.90
   2  14 -15    2.00    4.00
  -2 -14 -15    2.60    3.50
   2  15 -15    0.40    3.60
   2 -15 -15   -0.10    3.90
  -2 -15 -15    2.20    3.40
  -2  15 -15   -0.10    4.20
   2 -16 -15    7.30    4.60
  -2  16 -15   10.00    4.90
  -2 -16 -15    7.60    4.00
   2  16 -15    8.50    4.50
  -2 -17 -15    1.30    4.40
   2 -17 -15   -0.20    5.00
  -2  17 -15    0.90    6.20
  -2 -18 -15    1.10    4.50
  -3  -1  15  225.58    4.60
   3  -1 -15  141.59    4.20
   3   1 -15  141.69    4.40
  -3   1  15  233.78    4.60
   3  -2 -15   -0.50    2.80
   3   2 -15    3.10    2.30
   3  -3 -15  261.97    5.60
   3   3 -15  235.98    5.40
  -3   3  15  323.27    5.80
   3  -4 -15   11.20    2.60
   3   4 -15    7.90    3.00
  -3   4  15    7.70    3.10
   3  -5 -15   13.90    3.30
   3   5 -15    8.10    3.20
   3  -6 -15   10.70    3.10
   3   6 -15   12.80    2.90
  -3  -6  15   11.00    3.00
   3  -7 -15    5.80    3.10
  -3   7 -15    9.20    3.00
   3   7 -15    8.70    3.10
  -3  -7  15    9.40    2.50
   3  -8 -15    4.60    3.00
   3   8 -15    6.50    3.00
  -3   8 -15    4.90    2.90
  -3  -8  15    6.30    3.00
   3  -9 -15    2.90    2.80
   3   9 -15    5.30    2.80
  -3   9 -15    4.60    2.90
  -3 -10  15    2.10    2.90
   3  10 -15    4.70    2.80
  -3  10 -15    2.30    3.30
   3  11 -15    0.70    3.00
  -3 -11  15   -0.70    3.00
  -3  11 -15    2.50    3.50
  -3  12 -15    8.20    3.80
   3  12 -15   11.20    3.40
  -3  13 -15   14.90    3.90
   3  13 -15   12.20    3.80
   3 -13 -15   12.40    3.60
  -3  14 -15    0.80    3.80
   3 -14 -15   -0.80    3.60
   3  14 -15    0.90    3.80
  -3  15 -15    2.30    4.30
   3  15 -15   -1.10    3.70
  -3 -15 -15    0.30    3.50
   3 -15 -15    0.10    3.90
  -3  16 -15    2.70    4.90
   3 -16 -15    4.50    4.30
  -3 -16 -15   -0.20    3.70
   3  16 -15    3.50    4.30
   3 -17 -15    0.40    5.20
  -3 -17 -15   -0.70    3.80
  -3 -18 -15   -0.30    4.40
   4   0 -15    1.90    2.20
   4  -1 -15   24.10    3.10
   4   1 -15   32.80    2.80
   4  -2 -15   83.39    3.70
   4   2 -15  122.49    3.50
  -4   2  15   78.49    3.70
  -4  -2  15  114.79    3.60
   4  -3 -15   33.80    3.10
   4   3 -15   38.50    3.20
  -4  -3  15   33.50    3.00
   4  -4 -15   10.10    2.70
   4   4 -15   13.00    3.00
  -4   4  15   12.10    3.20
  -4  -4  15    9.90    2.50
   4  -5 -15    0.10    3.00
   4   5 -15   -1.30    2.70
  -4   5  15    0.10    2.90
  -4  -5  15    0.60    2.30
   4  -6 -15   10.30    2.90
  -4   6  15    9.10    3.10
   4   6 -15   11.80    3.00
   4  -7 -15   18.20    3.20
   4   7 -15   20.40    2.60
  -4  -7  15   14.20    3.30
   4  -8 -15    7.80    3.10
  -4  -8  15    4.80    3.00
   4   8 -15    8.50    3.10
   4  -9 -15    3.50    2.80
   4   9 -15    3.10    2.80
  -4   9 -15    1.50    2.70
  -4  -9  15    2.20    2.70
   4  10 -15    2.40    2.80
  -4  10 -15    4.80    2.90
  -4 -10  15    1.00    2.80
  -4  11 -15    2.30    3.60
   4  11 -15    6.70    3.10
  -4 -11  15    6.90    3.20
   4  12 -15    4.20    3.70
  -4 -12  15    6.50    3.60
  -4  12 -15    1.80    3.40
  -4 -13  15    3.20    3.30
   4  13 -15    3.80    3.60
   4 -13 -15    2.20    3.40
  -4  13 -15    3.10    3.50
   4 -14 -15   -1.30    3.70
   4  14 -15    1.90    3.50
  -4  14 -15    1.70    3.80
   4 -15 -15   -0.80    3.90
  -4  15 -15    0.60    4.50
   4  15 -15   -2.60    3.70
  -4 -16 -15    1.70    3.80
   4  16 -15    5.50    4.10
  -4  16 -15    4.90    5.20
   4 -16 -15    1.30    4.40
  -4 -17 -15    2.50    4.10
   4 -17 -15    1.40    5.10
  -4 -18 -15   -0.60    4.20
   5  -1 -15  127.49    4.30
   5   1 -15  134.89    3.90
  -5  -1  15  131.09    3.80
   5  -2 -15   -0.80    2.30
   5   2 -15    2.40    2.30
  -5   2  15    0.00    2.30
  -5  -2  15   -0.70    2.30
   5   3 -15   84.69    3.90
   5  -3 -15   86.19    3.80
  -5  -3  15  133.49    4.00
   5  -4 -15   20.70    3.20
  -5   4  15   27.50    2.80
   5   4 -15   22.40    2.60
  -5  -4  15   22.90    2.70
   5  -5 -15   16.70    2.60
   5   5 -15   17.10    2.70
  -5   5  15   19.30    3.20
  -5  -6  15    7.30    2.50
   5  -6 -15   11.90    3.10
  -5   6  15   13.10    2.90
   5   6 -15   11.00    3.00
   5  -7 -15    9.90    3.10
  -5   7  15   12.20    3.10
   5   7 -15   13.70    2.50
  -5   8  15    2.70    2.80
   5  -8 -15    3.20    2.80
  -5  -8  15    0.50    2.40
   5   8 -15   -2.70    3.00
   5  -9 -15   25.60    3.10
   5   9 -15   25.60    2.90
  -5  -9  15   25.80    3.00
   5  10 -15   55.29    2.80
  -5 -10  15   42.50    3.50
   5 -10 -15   56.69    3.90
   5  11 -15   15.40    3.20
  -5  11 -15   10.80    3.30
  -5 -11  15   15.50    3.30
  -5  12 -15   -3.50    3.40
  -5 -12  15   -5.20    3.60
   5  12 -15   -0.70    3.40
   5 -13 -15    7.30    3.80
   5  13 -15   14.30    3.50
  -5 -13  15   10.80    3.70
  -5  13 -15   13.90    3.70
   5 -14 -15   26.50    3.90
   5  14 -15   28.70    3.70
  -5 -14  15   29.70    3.80
  -5  14 -15   25.80    4.00
  -5  15 -15    4.20    4.30
   5  15 -15    2.50    3.70
  -5 -15  15    2.80    3.50
   5 -15 -15   -1.90    4.00
  -5  16 -15    1.40    4.80
   5 -16 -15    3.20    4.50
   5  16 -15    0.00    4.00
  -5  17 -15    2.00    6.60
   5 -17 -15   -0.20    5.50
  -5 -18 -15   -0.40    4.10
  -6   0  15    1.50    2.20
   6   0 -15    0.40    2.20
  -6   1  15   10.90    2.40
  -6  -1  15    8.70    2.90
   6  -1 -15    8.50    2.40
   6   1 -15    9.60    2.80
  -6  -2  15   13.30    2.40
   6   2 -15   13.40    2.70
   6  -2 -15   13.50    2.50
  -6  -3  15   36.90    2.90
   6  -3 -15   24.50    2.80
   6   3 -15   35.40    3.20
  -6   3  15   30.80    2.80
  -6  -4  15   28.00    2.60
   6   4 -15   23.80    2.60
   6  -4 -15   21.20    2.70
   6  -5 -15    1.90    2.90
   6   5 -15    1.10    2.80
  -6  -6  15   45.10    2.90
  -6   6  15   36.80    2.90
   6  -6 -15   29.70    3.30
   6   6 -15   28.10    3.30
   6   7 -15   53.79    3.50
   6  -7 -15   46.80    3.60
  -6   7  15   48.90    3.70
   6   8 -15    4.20    2.80
   6  -8 -15   -1.20    2.60
  -6   8  15    0.40    2.80
   6   9 -15   14.30    3.00
  -6   9  15   16.20    3.00
   6  -9 -15   14.20    3.00
  -6  -9  15   14.20    2.70
   6  10 -15   15.50    2.90
  -6  10  15   11.00    3.20
   6 -10 -15    9.90    3.20
  -6 -11  15    5.10    3.10
   6  11 -15    7.90    2.90
   6  12 -15   -0.10    3.40
  -6  12 -15    3.80    3.50
   6  13 -15    6.80    3.60
   6 -13 -15    2.30    3.50
  -6  13 -15    4.50    3.80
  -6 -13  15    4.10    3.50
   6  14 -15    1.60    3.80
  -6  14 -15    2.90    3.70
   6 -14 -15    2.60    3.80
  -6 -14  15    4.60    3.40
   6  15 -15   -0.80    3.50
  -6  15 -15   -1.20    4.20
   6 -15 -15    0.90    4.30
  -6 -15  15   -0.70    3.30
  -6  16 -15   -0.70    5.00
   6 -16 -15   -1.80    4.70
  -6 -16  15    3.80    3.90
  -6  17 -15   -0.20    6.10
  -6  17 -15   -0.40    6.50
  -7   1  15   19.00    3.00
  -7  -1  15   12.10    2.50
   7  -1 -15   16.00    2.90
   7   1 -15   13.10    2.90
  -7   2  15   52.79    3.40
  -7  -2  15   48.30    3.10
   7  -2 -15   48.20    2.90
   7   2 -15   45.30    2.90
   7   3 -15    2.90    2.70
  -7   3  15    3.70    2.30
  -7  -3  15    2.70    2.80
   7  -3 -15    3.50    2.40
   7   4 -15    0.70    2.70
  -7  -4  15    2.20    2.70
   7  -4 -15    6.40    2.90
   7   5 -15  105.09    3.30
  -7  -5  15  124.19    3.60
   7  -5 -15   81.59    3.50
   7   6 -15   25.70    2.60
   7  -6 -15   16.30    2.80
  -7  -7  15    2.00    2.40
  -7   7  15    4.70    2.90
   7   7 -15    0.70    3.00
   7  -7 -15    1.90    2.50
   7  -8 -15   14.60    3.10
   7   8 -15   18.10    3.10
  -7   8  15   20.90    3.00
   7  -9 -15    7.70    2.80
   7   9 -15    5.70    2.50
  -7   9  15    1.90    3.00
   7 -10 -15    1.30    3.20
   7  10 -15   -1.30    2.90
  -7  10  15   -0.10    3.00
   7  11 -15   -4.20    3.00
  -7  11  15   -0.30    3.20
   7  12 -15   14.60    3.40
  -7 -12  15   16.40    3.40
  -7  13 -15    4.00    3.70
   7  13 -15    1.60    3.80
   7 -13 -15    6.60    3.40
  -7 -13  15    4.50    3.60
   7 -14 -15   -0.80    3.70
   7  14 -15    0.30    3.50
  -7  14 -15   -3.70    3.50
  -7 -14  15   -0.10    3.40
   7 -15 -15    1.40    4.10
  -7  15 -15    0.00    4.40
  -7 -15  15   -0.10    3.10
   7  15 -15   -0.20    3.30
  -7  16 -15    5.90    4.80
  -7 -16  15    7.90    3.60
   7 -16 -15    4.10    5.00
  -7  17 -15    3.50    5.40
  -7 -17  15    1.60    3.80
  -7  17 -15    3.80    5.80
   8   0 -15   -0.40    2.80
  -8   0  15    0.30    2.30
   8  -1 -15   57.59    3.00
   8   1 -15   57.59    3.00
  -8   1  15   65.49    3.50
  -8  -1  15   62.69    3.20
   8  -2 -15   25.60    2.70
   8   2 -15   26.60    2.60
  -8  -2  15   25.60    2.70
  -8   2  15   30.00    3.20
   8  -3 -15   27.50    2.70
  -8   3  15   33.80    2.80
  -8  -3  15   31.30    2.70
   8   3 -15   27.10    2.60
   8  -4 -15    8.20    3.00
  -8  -4  15   14.20    2.40
   8   4 -15   12.70    2.40
   8  -5 -15   17.10    2.70
  -8  -5  15   21.50    2.60
   8   5 -15   24.80    2.60
  -8   5  15   17.60    2.70
   8  -6 -15   26.00    3.20
   8   6 -15   24.70    3.00
  -8   6  15   29.20    2.90
   8   7 -15    1.10    3.00
   8  -7 -15    2.00    2.80
   8  -8 -15    0.70    2.80
   8   8 -15    2.00    2.90
  -8   8  15    2.00    2.70
   8  -9 -15    3.20    2.90
   8   9 -15    1.80    2.90
  -8   9  15    1.90    2.80
   8  10 -15   -0.60    2.80
  -8  10  15    0.90    3.10
   8 -10 -15    3.40    3.00
   8  11 -15    1.10    3.20
  -8  11  15    4.90    3.80
   8 -11 -15    1.70    3.80
  -8 -12  15   -1.00    2.60
  -8  12  15    1.20    3.40
   8  12 -15    1.20    3.10
   8  13 -15    2.30    3.50
  -8 -13  15    1.80    3.40
   8  14 -15   -1.60    3.30
  -8 -14  15    2.00    3.30
  -8  14 -15   -1.80    3.70
   8 -14 -15   -1.50    3.40
   8 -15 -15   -0.90    4.30
  -8  15 -15   -2.20    4.40
  -8 -15  15   -0.80    3.30
  -8 -16  15    1.60    3.40
  -8  16 -15    1.30    4.30
  -8  17 -15   -0.20    5.40
  -8 -17  15    0.10    3.80
  -9   1  15  115.99    3.50
  -9  -1  15   93.49    3.30
   9   1 -15  115.99    3.30
   9  -1 -15   93.59    3.60
  -9   2  15    2.80    2.30
   9  -2 -15   -0.20    2.70
   9   2 -15    1.00    2.20
  -9   3  15   76.19    3.40
  -9  -3  15   80.49    3.10
   9  -3 -15   67.79    3.60
   9   3 -15   61.79    3.30
   9  -4 -15    3.40    2.40
   9   4 -15    0.50    2.40
   9  -5 -15    7.30    3.00
   9   5 -15    1.50    2.50
  -9   5  15    4.30    2.50
  -9   6  15   -0.30    2.50
  -9  -6  15    1.40    2.50
   9  -6 -15    0.50    2.80
   9   6 -15    4.20    3.00
  -9  -7  15   61.69    3.30
   9  -7 -15   49.30    3.30
   9   7 -15   54.69    3.10
   9   8 -15    1.70    2.90
   9  -8 -15    1.30    2.90
  -9   8  15    3.00    2.90
   9  -9 -15   10.30    3.10
   9   9 -15   11.90    3.00
  -9   9  15   10.30    3.20
  -9 -10  15    2.80    2.30
   9  10 -15    3.90    2.80
  -9  10  15    4.90    3.20
   9 -10 -15    0.90    3.20
   9 -11 -15   38.50    4.00
  -9  11  15   39.70    3.90
   9  11 -15   43.00    3.20
   9  12 -15   24.40    3.40
  -9  12  15   20.30    4.00
  -9  13  15    6.20    3.20
   9  13 -15    3.70    3.40
  -9 -13  15    3.20    3.10
   9  14 -15    5.40    3.40
   9 -14 -15    4.80    4.20
  -9 -14  15    5.70    3.20
   9 -15 -15    2.40    4.20
  -9  15 -15    3.60    4.00
  -9 -15  15    5.30    3.30
  -9  16 -15    3.30    4.40
  -9 -16  15   -1.00    3.70
  -9  16 -15   -1.90    4.90
 -10   0  15   -2.50    2.20
  10   0 -15    1.70    2.70
 -10   1  15   67.39    3.00
 -10  -1  15   44.80    2.70
  10  -1 -15   38.30    3.00
  10   1 -15   44.20    2.70
 -10   2  15    5.60    2.40
  10  -2 -15    4.70    2.70
  10   2 -15    6.50    2.80
  10  -3 -15    2.50    3.10
 -10   3  15    4.70    2.60
  10   3 -15    6.00    2.70
 -10   4  15   69.69    3.40
  10  -4 -15   56.79    3.30
  10   4 -15   58.89    3.30
  10  -5 -15   12.80    3.10
 -10  -5  15   13.80    2.60
  10   5 -15    9.20    3.20
  10  -6 -15    6.70    2.80
 -10  -6  15    8.60    2.50
  10   6 -15    8.80    2.50
  10  -7 -15   -1.30    2.90
  10   7 -15   -1.20    2.50
 -10  -7  15   -3.00    2.40
  10   8 -15    7.10    2.50
  10  -8 -15    2.60    2.90
 -10   8  15    5.40    2.40
  10  -9 -15   10.50    3.10
  10   9 -15   13.00    3.10
 -10 -10  15   22.90    2.60
  10 -10 -15   18.10    3.70
  10  10 -15   20.30    3.10
 -10  10  15   24.60    3.60
  10  11 -15    0.90    2.80
  10 -11 -15   -1.90    3.60
 -10  11  15    0.70    3.50
  10  12 -15    3.70    3.00
  10 -12 -15   11.80    3.60
 -10  12  15   10.20    3.30
  10  13 -15    2.90    3.40
 -10  13  15    3.60    3.20
  10 -14 -15    2.50    4.10
 -10  14  15    0.40    3.90
 -10 -15  15    1.40    3.40
 -10  16 -15    0.60    4.90
 -10  16 -15    2.90    4.30
 -10 -16  15   -1.20    3.50
 -11   1  15   10.30    2.40
 -11  -1  15   13.80    2.40
  11  -1 -15   11.80    2.40
  11   1 -15    6.80    2.90
 -11   2  15   -0.50    2.40
 -11  -2  15    3.50    2.20
  11  -2 -15    1.10    2.40
  11   2 -15   -0.30    2.30
  11   3 -15   18.60    2.60
 -11   3  15   19.80    2.70
 -11  -3  15   24.20    2.60
  11  -3 -15   18.10    2.70
  11   4 -15    6.90    2.70
 -11  -4  15    2.70    2.30
  11  -4 -15    2.80    3.10
  11   5 -15   40.20    3.00
 -11  -5  15   36.60    2.70
  11  -5 -15   41.00    2.90
  11  -6 -15   52.69    3.00
  11   6 -15   55.59    2.90
  11  -7 -15   10.20    2.60
  11   7 -15   12.50    2.50
 -11  -8  15    2.60    2.50
  11  -8 -15    7.10    3.00
  11   8 -15    3.20    3.00
  11   9 -15   12.80    3.20
 -11  -9  15   14.10    2.70
  11  -9 -15   13.80    3.40
  11  10 -15   22.10    3.10
  11 -10 -15   17.20    3.60
 -11  10  15   13.30    3.50
  11  11 -15   -1.20    3.00
  11 -11 -15    2.70    3.60
 -11  11  15    0.90    3.50
  11  12 -15    0.40    3.40
 -11  12  15   -0.40    3.10
 -11 -12  15   -0.10    2.70
  11 -12 -15    0.30    3.60
 -11  13  15   -0.50    3.60
 -11  14  15    0.90    3.80
 -11  15 -15   -2.60    4.50
  12   0 -15   -1.70    2.90
 -12   0  15   -3.60    2.30
  12   1 -15    3.40    2.40
  12  -1 -15   -0.90    2.70
 -12   1  15   -1.10    2.20
 -12  -1  15   -3.50    2.40
  12   2 -15    3.70    2.30
  12  -2 -15    0.40    2.70
  12  -3 -15   77.29    3.60
  12   3 -15   75.79    3.20
  12  -4 -15    4.70    2.40
  12   4 -15    2.70    2.80
 -12   5  15    1.40    2.50
  12  -5 -15    1.40    3.00
 -12  -5  15   -4.10    2.50
  12   5 -15   -0.60    2.80
  12  -6 -15   -0.70    2.90
  12   6 -15    2.20    2.50
 -12  -7  15    4.40    2.60
  12   7 -15    8.70    2.60
  12  -7 -15    8.10    3.00
  12   8 -15    6.10    3.20
  12  -8 -15    6.30    3.10
  12  -9 -15    2.00    2.90
  12   9 -15    2.50    2.50
  12  10 -15    2.30    3.00
  12 -10 -15   -0.30    3.30
 -12  10  15    1.00    3.10
  12  11 -15    7.20    3.70
 -12 -11  15    5.50    2.90
  12 -11 -15   11.00    3.40
 -12  11  15    7.10    3.40
  12 -12 -15    6.10    3.40
 -12  12  15   -0.60    3.20
 -12  13  15    2.50    3.40
 -12  14  15   -2.90    4.00
 -12  14 -15   -1.20    3.80
  13   1 -15   53.19    3.20
 -13   1  15   63.09    3.20
 -13  -1  15   85.49    3.30
  13  -1 -15   46.80    3.50
  13   2 -15    2.70    2.70
  13  -2 -15   -2.00    3.00
  13  -3 -15   10.30    2.60
  13   3 -15    8.00    2.60
  13   4 -15    9.70    2.90
  13  -4 -15    4.20    2.50
  13   5 -15   12.70    3.10
 -13   5  15   15.40    2.50
 -13  -5  15   17.10    2.60
  13  -5 -15   10.40    2.60
  13   6 -15    7.60    3.00
  13  -6 -15    4.40    3.10
  13  -7 -15   17.20    3.10
 -13   7  15   13.30    2.50
 -13  -7  15    9.50    2.70
  13   7 -15   15.00    3.10
 -13   8  15    0.90    2.50
  13  -8 -15   -1.00    3.00
  13   8 -15   -0.50    2.60
  13  -9 -15    9.00    3.00
  13   9 -15    6.20    3.40
 -13  10  15    2.40    3.10
  13  10 -15    3.70    2.70
  13 -10 -15    0.30    3.10
  13 -11 -15    3.00    3.10
 -13  11  15    0.10    3.20
 -13  12  15   -1.60    3.20
 -13  13  15   -0.30    3.60
  14   0 -15   -4.10    3.00
  14  -1 -15   36.80    3.40
  14   1 -15   42.70    3.10
 -14   1  15   43.40    3.00
 -14  -1  15   49.20    3.00
  14   2 -15   14.00    3.00
  14  -2 -15   17.00    3.30
 -14  -2  15   23.50    2.90
  14   3 -15    0.70    2.90
 -14  -3  15    1.10    2.50
  14  -3 -15    0.20    2.50
  14  -4 -15    7.80    2.70
  14   4 -15    9.10    2.60
 -14  -4  15    7.00    2.60
  14  -5 -15   33.30    3.00
  14   5 -15   35.60    3.00
  14  -6 -15    0.30    3.10
  14   6 -15   -2.80    2.60
  14  -7 -15    6.50    3.10
  14  -8 -15    0.80    3.30
  14  -9 -15   -1.70    3.20
  14 -10 -15    2.20    3.40
 -14  11  15    1.70    3.20
 -14  12  15    0.60    3.50
  15  -1 -15   10.30    2.60
  15   1 -15    4.30    3.30
 -15   2  15    3.80    2.40
  15   2 -15    1.90    2.60
  15  -2 -15   -0.30    2.90
  15  -3 -15    1.90    3.10
  15  -4 -15   11.90    2.70
  15  -5 -15    0.90    3.20
 -15   5  15   -2.40    2.60
  15   6 -15    0.10    3.20
 -15  -6  15    1.60    2.60
  15  -6 -15    3.80    3.20
  15   7 -15    1.90    3.30
  15  -7 -15    4.60    3.60
  15  -8 -15    4.90    3.80
 -15  11  15    1.50    3.40
 -16   1  15    2.50    2.60
 -16  -2  15   -0.60    2.70
 -16  -3  15    5.40    2.70
 -16  -4  15    2.80    2.60
  16   4 -15    5.90    3.00
 -16  10 -15    1.80    3.80
   0   0 -16  176.68    4.60
   0  -1 -16    0.20    2.30
   0   1 -16    0.80    2.30
   0  -2 -16  100.69    3.80
   0   2 -16  185.38    4.10
   0  -3 -16   -0.60    2.30
   0   3 -16    1.40    2.30
   0  -4 -16   70.09    4.00
   0   4 -16   81.29    3.80
   0  -5 -16   -0.20    3.10
   0   5 -16   -0.40    3.00
   0   6 -16    5.10    2.50
   0  -6 -16    3.80    2.50
   0  -7 -16   -1.70    2.70
   0   7 -16    0.90    2.70
   0   8 -16    2.70    2.80
   0  -8 -16   -1.50    2.40
   0   9 -16    0.20    2.90
   0  -9 -16    2.00    2.80
   0  10 -16   10.40    2.90
   0 -10 -16    9.70    2.90
   0  11 -16    1.10    2.90
   0  12 -16   -0.30    3.20
   0  13 -16   -0.30    3.40
   0 -14 -16   11.50    3.70
   0  14 -16   10.70    3.90
   0 -15 -16   -1.60    3.70
   0  15 -16   -1.40    3.70
   0 -16 -16   -0.50    4.00
   0  16 -16   -0.20    4.60
   0 -17 -16   -1.70    4.60
   0  17 -16    0.50    5.00
   0 -18 -16    2.50    4.90
   1  -1 -16   -2.00    2.30
  -1   1 -16   -4.80    2.40
   1   1 -16    0.20    2.30
  -1   2 -16   -0.50    2.90
   1  -2 -16    1.90    2.40
   1   2 -16    1.70    2.40
  -1   3 -16   94.39    4.20
   1  -3 -16   84.79    3.80
   1   3 -16   96.79    3.50
   1   4 -16   45.10    3.40
   1  -4 -16   35.20    3.30
  -1   4 -16   36.50    3.50
  -1   5 -16   41.00    3.50
   1  -5 -16   36.30    3.40
   1   5 -16   42.40    3.00
   1   6 -16    1.90    2.90
  -1   6 -16    0.30    2.90
   1  -6 -16    1.30    2.40
  -1  -7 -16   -0.60    2.40
   1   7 -16   -1.50    2.90
   1  -7 -16    1.90    2.70
  -1   7 -16    3.50    2.90
   1   8 -16    2.60    2.90
  -1  -8 -16    1.90    2.90
   1  -8 -16   -0.30    2.30
  -1   8 -16    1.20    2.90
  -1  -9 -16    9.60    3.00
   1   9 -16   13.00    3.00
   1  -9 -16   12.30    3.00
  -1   9 -16   11.60    3.00
  -1  10 -16    0.30    2.90
   1  10 -16   -0.10    2.80
  -1 -10 -16   -1.80    2.80
   1 -10 -16    0.20    2.70
  -1  11 -16   -0.40    3.00
   1  11 -16    0.90    3.00
  -1 -11 -16    3.70    2.90
   1  12 -16    7.30    3.60
  -1  12 -16    5.80    3.20
   1 -13 -16   31.40    3.70
  -1  13 -16   31.80    3.80
   1  13 -16   37.00    3.90
   1  14 -16   -0.30    3.70
  -1 -14 -16   -1.40    3.50
   1 -14 -16   -0.30    3.60
  -1  14 -16    0.10    3.50
   1 -15 -16    3.40    3.50
   1  15 -16   10.00    3.90
  -1 -15 -16    7.60    3.50
  -1  15 -16    7.90    3.90
  -1 -16 -16    1.20    3.70
   1  16 -16   -2.50    4.40
  -1  16 -16    2.20    4.40
   1 -16 -16   -0.90    4.10
  -1 -17 -16    5.90    4.50
   1 -17 -16    6.30    4.70
   1  17 -16    8.30    5.10
  -1  17 -16    6.90    5.20
   1 -18 -16    0.80    5.30
  -1 -18 -16    1.30    4.60
  -2   0  16   11.10    2.90
   2   0 -16   10.60    2.90
   2   1 -16   18.40    3.10
   2  -1 -16   16.80    3.10
  -2  -1  16   14.00    2.60
  -2  -2  16   50.09    3.10
   2   2 -16   42.40    3.00
   2  -2 -16   41.20    3.10
   2   3 -16   23.30    3.10
  -2  -3  16   35.40    2.80
   2  -3 -16   18.00    2.70
   2   4 -16  344.27    5.60
  -2  -4  16  362.16    5.80
  -2   4 -16  202.58    5.50
   2  -4 -16  204.58    5.40
   2   5 -16    8.70    3.20
  -2  -5  16   10.40    3.20
  -2   5 -16    8.90    2.60
   2  -5 -16    9.90    3.00
   2   6 -16   -1.50    2.80
  -2  -6  16    1.10    2.40
  -2   6 -16   -0.90    3.00
   2  -6 -16   -0.50    2.50
  -2  -7  16    1.70    3.00
   2   7 -16    3.10    3.00
   2  -7 -16    2.60    2.80
  -2   7 -16    3.00    2.90
   2  -8 -16    1.60    2.80
   2   8 -16   -0.70    2.90
  -2   8 -16    1.10    2.70
   2  -9 -16    6.20    3.00
   2   9 -16    6.90    2.80
  -2   9 -16    5.20    2.80
   2 -10 -16    2.60    2.80
   2  10 -16    2.20    3.00
  -2  10 -16    0.90    3.00
  -2  11 -16    0.70    3.30
   2  11 -16   -1.20    3.20
  -2  12 -16   23.40    3.90
   2  12 -16   28.40    3.90
  -2  13 -16    2.70    3.40
   2 -13 -16   -0.70    3.40
   2  13 -16    1.20    3.50
   2  14 -16    8.00    3.60
   2 -14 -16    5.90    3.90
  -2  14 -16    5.50    3.60
  -2  15 -16    0.30    4.10
   2 -15 -16   -0.20    3.70
  -2 -15 -16   -2.50    3.30
   2  15 -16   -0.90    3.50
  -2  16 -16   -0.90    4.60
   2  16 -16   -0.80    4.30
   2 -16 -16   -0.20    4.40
  -2 -16 -16    0.90    3.80
  -2 -17 -16   -1.30    4.20
  -2  17 -16   -0.40    5.40
   2 -17 -16    1.00    4.70
   2  17 -16   -0.40    4.60
   2 -18 -16    1.20    5.80
  -2 -18 -16   -0.40    4.40
   3   1 -16   41.00    3.00
  -3   1  16   46.60    3.10
   3  -1 -16   66.89    3.10
  -3  -1  16   43.80    3.00
   3  -2 -16   41.30    3.10
   3   2 -16   66.99    3.00
  -3   2  16   59.39    3.30
   3  -3 -16   78.69    4.10
  -3   3  16   81.69    3.80
   3   3 -16   89.69    3.70
   3  -4 -16    2.40    2.90
   3   4 -16    1.50    2.80
  -3   4  16    3.70    2.80
   3  -5 -16   92.19    4.00
   3   5 -16  107.19    4.00
   3  -6 -16   -0.50    3.00
   3   6 -16   -1.70    2.90
  -3  -6  16    1.30    2.30
   3  -7 -16   -1.70    3.00
   3   7 -16   -1.50    2.40
  -3   7 -16    1.60    2.90
  -3  -7  16    0.10    2.30
   3  -8 -16    6.80    2.90
   3   8 -16    6.60    2.50
  -3   8 -16    6.50    3.00
  -3  -8  16    3.50    2.60
   3  -9 -16   18.80    3.10
  -3  -9  16   20.00    3.00
  -3   9 -16   21.20    3.10
   3   9 -16   22.90    2.90
  -3 -10  16    6.30    3.10
   3 -10 -16    3.90    2.80
   3  10 -16   11.00    2.80
  -3  10 -16    4.30    3.00
  -3  11 -16   42.50    3.90
   3  11 -16   42.50    3.50
  -3  12 -16    2.20    3.40
   3  12 -16   -0.50    3.30
  -3  13 -16    4.40    3.70
   3  13 -16    2.60    3.70
   3 -13 -16    4.30    3.40
  -3  14 -16    0.60    3.80
   3 -14 -16    0.40    3.80
   3  14 -16    3.40    3.10
   3  15 -16   14.70    3.90
  -3  15 -16   11.00    4.50
   3 -15 -16   13.20    3.90
  -3 -15 -16   11.60    3.70
   3 -16 -16    0.80    4.50
  -3 -16 -16    2.30    3.60
  -3  16 -16   -2.10    4.90
   3  16 -16    0.40    4.30
   3 -17 -16    0.50    4.70
  -3  17 -16    1.90    5.60
  -3 -17 -16    1.40    3.70
   3  17 -16    2.50    4.40
   3 -18 -16   -0.30    6.90
  -3 -18 -16   -0.10    4.10
   4   0 -16    2.70    2.20
   4  -1 -16   -2.70    2.70
   4   1 -16    2.30    2.20
   4  -2 -16  135.49    4.10
   4   2 -16  173.08    4.00
  -4  -2  16  141.69    4.10
   4  -3 -16    2.40    2.30
   4   3 -16   -0.20    2.90
  -4  -3  16   -0.70    2.30
   4  -4 -16  104.39    4.30
   4   4 -16  188.28    4.20
  -4   4  16  137.89    4.30
  -4  -4  16  213.38    4.20
   4  -5 -16    3.50    2.90
   4   5 -16    1.40    2.30
  -4   5  16    0.20    2.70
  -4  -5  16    0.40    2.20
   4  -6 -16   16.40    2.90
   4   6 -16   17.20    2.50
  -4   6  16   19.70    3.10
   4   7 -16   23.70    3.10
   4  -7 -16   21.70    3.10
  -4  -7  16   21.90    3.20
   4  -8 -16   24.60    3.20
  -4  -8  16   21.60    3.30
   4   8 -16   21.40    2.70
   4  -9 -16    6.30    2.70
  -4   9 -16    4.80    3.10
  -4  -9  16    4.50    2.30
   4   9 -16    3.00    2.80
   4 -10 -16    6.80    3.20
  -4  10 -16    8.40    3.20
  -4 -10  16    8.90    2.90
   4  10 -16    8.60    2.80
  -4  11 -16    1.00    3.10
   4  11 -16   -1.20    3.10
  -4 -11  16   -0.10    3.00
   4  12 -16    7.70    3.40
  -4 -12  16    9.30    3.30
  -4  12 -16    7.20    3.50
  -4 -13  16   -0.80    3.80
   4  13 -16    0.50    3.50
   4 -13 -16   -1.30    3.40
  -4  13 -16    0.10    3.70
   4  14 -16    1.00    3.80
   4 -14 -16    1.60    3.70
  -4  14 -16    1.10    3.80
   4 -15 -16   -2.30    3.60
  -4  15 -16    0.90    4.30
   4  15 -16    2.40    3.50
   4  16 -16   -0.90    4.10
  -4 -16 -16    0.00    3.60
  -4  16 -16    0.50    4.60
   4 -16 -16    2.30    4.50
  -4  17 -16   -0.70    5.50
   4 -17 -16    0.50    4.90
  -4 -17 -16   -0.10    3.90
  -4  18 -16    0.00    1.50
  -4 -18 -16   -0.40    3.90
   5  -1 -16    0.10    2.80
   5   1 -16    1.10    2.20
  -5  -1  16    3.30    2.30
   5  -2 -16   10.60    2.40
   5   2 -16    9.60    2.40
  -5   2  16    8.70    2.50
   5  -3 -16    2.60    2.30
   5   3 -16    0.60    2.30
  -5  -3  16    4.70    2.30
   5  -4 -16   61.49    3.30
  -5   4  16   87.29    3.50
   5   4 -16   64.29    3.60
   5  -5 -16   48.80    3.40
   5   5 -16   54.49    3.20
  -5   5  16   59.59    3.40
   5   6 -16   19.10    3.00
   5  -6 -16   18.40    3.20
  -5   6  16   17.30    3.20
  -5  -6  16   17.50    2.60
   5  -7 -16    2.30    3.00
   5   7 -16    0.20    2.90
  -5   7  16    0.00    2.90
  -5  -7  16    2.20    2.40
  -5   8  16    3.00    2.70
   5  -8 -16    5.00    2.80
  -5  -8  16    5.90    2.40
   5   8 -16    1.60    2.80
   5   9 -16    2.90    2.90
   5  -9 -16    3.70    2.80
  -5  -9  16    4.30    2.80
   5  10 -16   26.30    3.10
   5 -10 -16   21.40    3.20
  -5 -10  16   11.50    3.40
   5  11 -16   17.80    3.30
  -5  11 -16   15.70    3.40
  -5 -11  16   15.70    3.20
  -5 -12  16   11.30    3.30
  -5  12 -16    6.50    3.40
   5  12 -16   10.80    3.30
   5 -13 -16    4.90    3.50
  -5 -13  16    3.40    3.60
  -5  13 -16    5.50    3.50
   5  13 -16    6.30    3.50
  -5 -14  16    0.10    3.40
   5  14 -16    1.00    3.70
   5 -14 -16   -0.60    3.60
  -5  14 -16   -2.20    4.00
   5  15 -16    2.80    3.10
   5 -15 -16    6.00    4.00
  -5 -15  16    6.90    3.30
  -5  15 -16    3.60    4.10
   5 -16 -16   -0.50    4.50
  -5  16 -16    0.10    4.70
   5  16 -16    2.20    4.30
   5 -17 -16   -1.40    4.90
  -5  17 -16    1.90    5.20
  -5 -18 -16    0.60    3.90
   6   0 -16   64.99    3.40
   6   1 -16    7.20    2.40
   6  -1 -16    8.60    2.40
  -6  -1  16    8.30    2.40
   6  -2 -16   76.29    3.30
   6   2 -16   95.79    3.50
  -6  -3  16   -1.20    2.30
   6  -3 -16    0.40    2.60
   6   3 -16    1.30    2.30
  -6   3  16    2.10    2.40
   6   4 -16   63.59    3.40
   6  -4 -16   59.99    3.20
   6  -5 -16    8.00    2.90
   6   5 -16    3.90    2.40
   6  -6 -16   15.50    2.60
  -6   6  16   16.60    2.60
   6   6 -16   16.20    2.60
  -6  -6  16   19.30    2.70
   6  -7 -16   20.10    2.70
  -6   7  16   18.10    3.30
  -6  -7  16   26.00    2.80
   6   7 -16   24.50    2.60
   6   8 -16   -0.30    2.90
  -6   8  16   -0.60    2.80
   6  -8 -16    0.50    2.80
   6   9 -16   -0.10    2.90
  -6   9  16    2.40    2.90
   6  -9 -16    2.80    3.00
  -6  -9  16   -1.70    2.30
   6  10 -16   23.30    2.90
   6 -10 -16   26.70    3.40
   6  11 -16    1.50    3.00
  -6  12 -16   11.60    3.70
   6  12 -16   19.80    3.30
   6  13 -16    0.60    3.50
  -6 -13  16   -1.10    3.40
  -6  13 -16   -1.00    3.40
   6 -14 -16    1.90    3.50
  -6 -14  16    3.80    3.30
   6  14 -16    2.60    3.70
  -6  14 -16    3.70    3.70
  -6  15 -16   -0.90    4.10
   6 -15 -16   -0.50    3.80
   6  15 -16    2.00    3.60
  -6 -15  16    0.10    3.20
  -6  16 -16   -0.60    4.70
  -6 -16  16    1.60    3.70
   6 -16 -16    1.20    4.50
   6  16 -16   -0.90    3.90
  -6  17 -16   -1.20    5.30
   6 -17 -16    0.60    4.90
  -7   1  16   14.60    2.50
   7   1 -16   10.60    2.40
   7  -1 -16   13.20    2.50
   7   2 -16    2.20    2.10
  -7  -2  16    2.00    2.20
  -7   2  16   -1.40    2.30
   7  -2 -16    1.40    2.30
  -7  -3  16   19.00    2.60
   7   3 -16   13.70    2.60
   7  -3 -16   16.10    2.50
  -7   3  16   17.30    2.60
  -7  -4  16   79.49    3.10
   7  -4 -16   52.29    3.10
  -7   4  16   62.89    3.20
   7   4 -16   71.89    3.00
   7   5 -16    6.60    2.90
  -7  -5  16   11.60    2.50
   7  -5 -16    9.20    3.00
   7   6 -16   14.10    2.90
   7  -6 -16   17.00    3.10
   7   7 -16    9.10    2.60
  -7   7  16    6.10    2.90
   7  -7 -16    6.90    3.10
   7   8 -16   47.30    2.90
  -7   8  16   35.90    3.30
   7  -8 -16   33.90    3.20
   7  -9 -16    0.40    3.00
   7   9 -16    2.10    2.90
  -7   9  16    5.60    2.70
   7 -10 -16    7.60    3.00
  -7  10  16    5.10    3.10
   7  10 -16    9.60    2.70
   7 -11 -16   10.10    3.60
   7  11 -16   12.50    3.20
   7  12 -16    5.50    3.40
   7  13 -16   -2.50    3.70
  -7 -13  16   10.30    3.40
  -7  13 -16    9.90    3.60
   7 -14 -16    2.80    3.50
  -7  14 -16    0.40    3.70
  -7 -14  16    0.50    3.40
   7  14 -16    1.20    3.50
   7  15 -16    1.40    3.40
  -7 -15  16    1.30    3.50
   7 -15 -16    1.30    4.20
  -7  15 -16    2.90    4.00
  -7  16 -16   -1.90    4.70
   7 -16 -16    0.40    4.30
  -7 -16  16    3.80    3.90
  -7  17 -16    2.60    5.30
  -7 -17  16   -0.50    3.80
   8   0 -16    6.40    2.30
  -8   0  16    5.30    2.50
   8  -1 -16   15.10    2.80
   8   1 -16    9.10    2.80
  -8   1  16   14.20    2.50
  -8   2  16    9.30    2.50
   8   2 -16    7.40    2.80
  -8  -2  16    9.70    2.40
   8  -2 -16   13.00    2.90
   8  -3 -16   12.80    2.90
  -8   3  16   12.10    2.60
  -8  -3  16   18.20    2.50
   8   3 -16   12.70    2.40
   8  -4 -16   27.50    2.80
   8   4 -16   28.80    3.10
  -8  -4  16   33.70    2.80
   8  -5 -16   68.29    3.70
   8   5 -16   81.29    3.00
  -8  -6  16    4.40    2.50
   8  -6 -16    1.80    2.90
   8   6 -16    2.50    2.50
   8  -7 -16   -0.10    2.90
   8   7 -16    1.60    2.40
   8  -8 -16   22.50    3.10
  -8   8  16   18.00    3.00
   8   8 -16   26.30    2.60
   8  -9 -16   -1.00    3.00
   8   9 -16    0.50    2.50
  -8   9  16    0.70    3.00
   8 -10 -16   25.50    3.50
  -8  10  16   19.80    3.20
   8  10 -16   30.90    3.00
   8  11 -16   30.70    3.40
   8 -11 -16   23.70    3.80
  -8  11  16   23.00    3.80
   8  12 -16    1.40    3.20
  -8  12  16    0.50    3.30
   8  13 -16   -0.80    3.10
  -8 -13  16   -3.40    3.10
   8 -14 -16    0.40    3.60
   8  14 -16    4.10    3.40
  -8  14 -16   -0.80    3.60
  -8 -14  16    2.70    3.30
   8 -15 -16   -1.40    3.90
  -8 -15  16   -3.90    3.20
  -8  15 -16    0.20    4.10
   8  15 -16    1.00    3.50
   8 -16 -16   -0.80    4.60
  -8  16 -16    0.90    4.40
  -8 -16  16   -1.60    3.70
  -9   1  16   87.39    3.40
   9   1 -16   75.49    3.10
  -9  -1  16  103.59    3.40
   9  -1 -16   77.69    3.20
  -9   2  16   56.39    3.10
   9  -2 -16   48.60    3.10
   9   2 -16   50.59    3.20
   9  -3 -16   22.10    2.80
   9   3 -16   25.40    2.60
   9  -4 -16    0.70    2.80
   9   4 -16   -0.30    2.30
  -9  -5  16   30.60    2.80
   9  -5 -16   23.40    2.80
   9   5 -16   24.80    3.20
   9   6 -16    2.50    2.50
   9  -6 -16    0.40    2.90
  -9  -7  16    0.80    2.60
   9  -7 -16    0.30    3.00
   9   7 -16    4.10    3.20
  -9  -8  16   18.00    2.60
   9  -8 -16   16.30    2.60
   9   8 -16   20.40    3.00
  -9   8  16   17.80    3.00
  -9  -9  16   41.20    3.00
   9  -9 -16   30.90    3.50
  -9   9  16   33.30    3.30
   9   9 -16   47.40    2.80
   9 -10 -16    0.60    3.20
  -9 -10  16    1.00    2.30
   9  10 -16    5.40    2.80
  -9  10  16    0.70    3.10
   9  11 -16   -0.40    3.10
   9 -11 -16    3.40    3.40
  -9  11  16   -0.80    3.40
   9 -12 -16    2.20    3.70
   9  12 -16    0.40    2.60
  -9  12  16   -0.60    3.20
  -9 -13  16    4.80    3.00
   9  13 -16   -4.30    3.30
  -9  13  16    3.70    3.00
   9 -14 -16   -0.40    3.60
   9  14 -16   -3.70    3.50
  -9 -14  16    0.80    3.40
  -9  15 -16    2.60    4.00
  -9 -15  16    3.40    3.30
   9 -15 -16    0.70    4.40
  -9  16 -16   -1.00    4.30
  -9 -16  16   -2.00    3.70
  10   0 -16   -0.80    2.30
 -10   1  16   11.80    2.40
 -10  -1  16    8.20    2.40
  10  -1 -16    7.90    2.40
  10   1 -16    5.70    2.80
 -10   2  16   35.00    2.90
  10  -2 -16   27.30    2.80
  10   2 -16   29.10    2.60
 -10   3  16   18.60    2.80
  10   3 -16   20.00    2.50
  10  -3 -16   15.80    2.70
  10  -4 -16   -1.30    2.80
  10   4 -16    1.20    2.40
 -10   5  16   27.50    2.90
 -10  -5  16   28.90    2.70
  10  -5 -16   27.00    2.80
  10   5 -16   27.50    2.80
  10  -6 -16    1.00    2.80
  10   6 -16   -2.10    2.80
 -10  -7  16   13.20    2.50
  10  -7 -16   10.40    3.10
  10   7 -16    9.80    2.90
  10  -8 -16    3.00    2.50
  10   8 -16    3.20    3.10
 -10  -8  16    4.50    2.40
  10   9 -16    1.60    2.60
  10  -9 -16    0.90    3.10
 -10 -10  16   -0.30    2.40
  10 -10 -16    0.40    3.20
  10  10 -16    0.40    2.40
 -10  10  16    0.10    3.10
  10  11 -16    1.90    3.00
  10 -11 -16    4.10    3.60
 -10  11  16    3.80    3.60
 -10  12  16    6.70    3.50
  10  12 -16    7.60    3.30
  10 -12 -16    4.10    3.50
 -10  13  16    0.50    3.40
  10  13 -16   -1.00    3.20
  10  14 -16   -0.60    3.50
  10 -15 -16   -0.80    3.70
 -10 -15  16    0.30    3.30
  11  -1 -16   67.99    3.40
 -11  -1  16   83.09    3.10
  11   1 -16   79.59    3.00
 -11   2  16    1.00    2.40
 -11  -2  16    2.80    2.20
  11  -2 -16    3.10    2.90
  11   2 -16   -0.10    2.60
 -11   3  16   33.70    2.80
 -11  -3  16   43.60    2.80
  11  -3 -16   32.10    2.70
  11   3 -16   29.20    3.00
 -11  -4  16   -0.30    2.30
  11  -4 -16    0.60    2.40
  11   4 -16    1.00    2.30
 -11   5  16    0.90    2.30
 -11  -5  16    0.60    2.30
  11  -5 -16   -0.90    2.80
  11   5 -16   -3.40    2.30
  11   6 -16   44.70    3.30
  11  -6 -16   32.70    3.40
  11   7 -16   16.80    2.50
  11  -7 -16   13.90    3.00
  11  -8 -16    6.70    3.00
 -11  -8  16    1.60    2.50
  11   8 -16   -3.80    3.00
 -11  -9  16    5.70    2.50
  11  -9 -16    4.10    3.00
  11   9 -16    6.70    2.80
  11  10 -16   -1.40    2.80
 -11 -10  16    0.50    2.50
  11 -10 -16   -2.30    3.20
 -11  10  16   -1.70    3.10
 -11  11  16   -1.50    3.30
  11  11 -16    0.40    3.00
  11 -11 -16   -1.60    3.30
  11  12 -16   -2.90    2.90
  11 -12 -16    0.40    3.30
 -11  12  16    2.90    3.30
  11 -13 -16   -0.50    3.80
 -11  13  16    1.90    3.40
  11  13 -16    3.20    3.50
 -11  14  16   -1.60    3.90
 -11 -15  16   -2.60    3.50
  12   0 -16    9.80    2.50
 -12   0  16   17.00    2.60
  12  -1 -16   14.00    2.40
  12   1 -16   17.50    3.10
 -12   1  16   23.00    2.50
 -12  -1  16   24.00    2.60
  12  -2 -16    3.60    2.30
  12   2 -16    2.10    2.50
  12  -3 -16   25.40    2.70
  12   3 -16   27.30    3.30
  12  -4 -16    1.70    3.00
 -12   4  16    1.10    2.30
  12   4 -16   -0.30    2.80
  12  -5 -16   -3.90    2.50
 -12   5  16   -0.30    2.40
 -12  -5  16   -2.70    2.40
  12   5 -16   -0.30    2.80
  12  -6 -16   17.60    2.60
  12   6 -16   18.50    3.20
 -12  -7  16    1.00    2.50
  12  -7 -16    2.60    2.30
  12   7 -16    0.40    2.90
  12  -8 -16    0.90    2.40
  12   8 -16    3.30    2.50
  12   9 -16   -0.30    2.90
  12  -9 -16   -2.00    3.10
  12 -10 -16    0.70    3.00
 -12  10  16    1.70    3.10
  12  10 -16    0.70    2.90
  12  11 -16    3.10    3.30
  12 -11 -16    0.10    3.10
 -12  11  16   -1.00    3.10
  12  12 -16    2.60    3.40
  12 -12 -16    0.30    3.40
 -12  12  16    3.70    3.20
 -12  13  16    1.40    3.60
  12 -13 -16    0.00    3.60
 -12  14  16   -1.80    3.80
  13  -1 -16  107.09    3.50
 -13  -1  16  158.08    4.00
  13   1 -16   94.99    4.00
  13  -2 -16    4.80    2.50
  13   2 -16    2.90    2.80
  13  -3 -16    8.80    3.10
  13   3 -16    1.10    3.00
  13  -4 -16   -1.10    2.50
  13   4 -16   -1.90    2.40
 -13  -5  16   10.30    2.50
  13  -5 -16    4.90    3.20
  13   5 -16    8.30    2.50
  13  -6 -16   -4.50    2.70
  13   6 -16   -4.30    2.60
 -13   7  16    1.70    2.50
  13   7 -16    8.20    2.90
  13  -7 -16    4.90    2.60
  13  -8 -16   -0.20    3.00
  13   8 -16    1.00    3.00
  13  -9 -16    2.00    3.20
  13   9 -16    3.80    2.70
  13  10 -16    0.20    3.00
  13 -10 -16   -2.70    3.30
 -13  10  16   -1.20    3.20
  13  11 -16    3.40    3.60
 -13  11  16   -0.80    3.10
  13 -11 -16    0.30    3.50
 -13  12  16   -2.00    3.30
  13 -12 -16   -2.30    3.70
 -13  13  16   -5.50    3.40
  14   0 -16    3.50    2.60
 -14   1  16    5.20    2.40
 -14  -1  16    0.20    2.60
  14  -1 -16    1.60    2.40
  14   1 -16   -0.40    3.10
  14  -2 -16    8.90    2.60
  14   2 -16    6.30    2.80
  14   3 -16   26.20    3.20
  14  -3 -16   27.30    3.20
  14   4 -16   -1.20    2.50
  14  -4 -16    0.30    2.50
  14  -5 -16    0.50    3.10
  14   5 -16    6.10    2.50
 -14  -5  16   -1.50    2.50
  14  -6 -16    6.20    2.70
  14   6 -16    6.30    2.70
  14  -7 -16   -2.50    2.70
 -14  -7  16   -4.60    2.50
  14  -8 -16    3.30    3.20
  14   9 -16    7.10    3.40
  14  -9 -16   -0.70    3.40
  14 -10 -16   -0.60    3.30
  14 -11 -16    1.20    3.00
 -14  11  16    2.00    3.30
 -14  12  16   -0.10    3.50
  15   2 -16   -0.20    3.40
 -15  -3  16    2.20    2.80
  15  -3 -16   -1.20    2.90
  15   4 -16   16.20    3.10
  15  -4 -16    8.60    3.20
  15   5 -16    7.30    3.30
  15  -5 -16    9.90    3.10
  15   6 -16   11.40    3.20
  15  -6 -16   11.60    2.90
  15   7 -16   -1.30    3.00
  15  -7 -16   -1.50    2.80
  15   8 -16    5.80    3.30
  15  -8 -16    3.10    3.10
  15  -9 -16    0.60    3.70
  16   0 -16    2.30    3.00
  16  -1 -16   -0.30    3.00
  16   3 -16   18.00    3.10
  16  -4 -16    4.00    3.30
  16  -6 -16    0.70    2.90
  16  -7 -16    3.10    3.40
  17   2 -16    6.90    3.30
  17  -3 -16    1.20    3.20
  -1  -1 -17   77.49    3.20
  -1   1 -17   55.29    3.20
   1   1 -17   54.39    3.00
   1  -1 -17   56.29    3.00
   1  -2 -17    1.00    2.80
  -1   2 -17    0.80    2.80
  -1  -2 -17   -0.80    2.30
   1   2 -17    0.40    2.30
  -1   3 -17   28.00    3.00
   1  -3 -17   26.70    2.80
   1   3 -17   29.00    3.20
  -1   4 -17   30.40    2.80
   1  -4 -17   25.80    2.80
   1   4 -17   30.20    3.10
   1  -5 -17    1.30    2.90
  -1   5 -17    1.60    2.50
   1   5 -17    2.00    2.90
  -1  -6 -17    1.90    2.70
   1   6 -17    0.40    2.30
  -1   6 -17   -1.80    2.80
   1  -6 -17   -0.10    2.30
   1   7 -17    0.70    2.80
  -1  -7 -17    0.40    2.30
   1  -7 -17    1.30    2.30
  -1   7 -17    0.10    2.80
   1   8 -17    3.70    3.00
  -1   8 -17    1.10    3.10
   1  -8 -17    1.60    2.80
  -1  -8 -17    0.20    3.00
   1   9 -17    2.30    2.70
  -1  -9 -17   -0.30    2.80
   1  -9 -17    2.90    2.80
  -1   9 -17    2.70    2.70
   1 -10 -17    0.60    2.80
   1  10 -17   -0.20    2.80
  -1 -10 -17    0.30    2.70
  -1  10 -17    1.40    2.90
  -1  11 -17   13.10    3.40
   1  11 -17   16.30    3.10
  -1 -11 -17   12.00    3.10
   1 -11 -17    7.70    3.00
  -1  12 -17    5.80    3.20
   1  12 -17    7.20    3.20
  -1  13 -17    0.10    3.20
   1  13 -17   -1.00    3.70
   1  14 -17    0.60    3.70
   1 -14 -17    0.80    3.60
  -1  14 -17   -1.30    3.70
   1 -15 -17    4.00    3.50
   1  15 -17    6.00    3.60
  -1  15 -17    2.10    3.90
  -1 -15 -17    5.60    3.50
  -1 -16 -17   -2.50    4.00
  -1  16 -17    0.50    4.60
   1 -16 -17    0.40    4.30
   1  16 -17    0.30    4.30
  -1 -17 -17    2.00    4.30
   1  17 -17   -0.80    4.50
   1 -17 -17   -0.90    4.40
  -1  17 -17    0.00    5.10
   1 -18 -17   -0.30    5.10
  -1 -18 -17   -1.10    4.70
  -1  18 -17    0.20    6.30
   2   0 -17   -0.80    2.20
  -2  -1  17   41.30    2.80
   2  -1 -17   33.90    3.10
   2   1 -17   45.50    2.90
   2   2 -17    1.80    2.80
   2  -2 -17    0.50    2.40
  -2  -2  17    0.00    2.30
   2   3 -17   -0.90    2.30
  -2  -3  17    1.60    2.90
   2  -3 -17   -0.80    2.30
   2   4 -17    4.30    2.40
   2  -4 -17    1.00    2.40
  -2   4 -17    0.60    2.40
  -2  -4  17   -1.10    3.00
  -2  -5  17   71.49    3.60
   2   5 -17   80.09    3.50
  -2   5 -17   72.79    3.40
   2  -5 -17   66.79    3.50
  -2   6 -17    0.90    2.90
   2   6 -17    0.80    2.30
   2  -6 -17    2.50    2.70
   2   7 -17    2.10    2.90
  -2   7 -17    0.40    2.90
   2  -7 -17    2.30    2.90
   2  -8 -17    5.50    3.00
   2   8 -17    2.00    3.00
  -2   8 -17    4.00    3.00
   2  -9 -17    3.80    2.80
   2   9 -17    4.80    2.90
  -2   9 -17    5.90    2.90
   2 -10 -17    0.70    3.00
   2  10 -17    3.70    2.80
  -2  10 -17    3.00    2.80
  -2  11 -17   13.10    3.40
   2  11 -17   21.50    3.30
  -2 -11 -17   14.40    3.40
  -2  12 -17    4.30    3.20
  -2 -12 -17    2.50    3.30
   2  12 -17    1.70    3.20
   2  13 -17   -0.60    3.50
  -2  13 -17    0.40    3.60
   2  14 -17    0.70    3.10
   2 -14 -17   -0.20    3.50
  -2  14 -17   -0.80    3.70
   2 -15 -17    2.40    3.40
   2  15 -17    0.40    3.50
  -2  15 -17    2.70    4.00
  -2 -15 -17    0.40    3.50
  -2  16 -17    0.60    4.60
   2  16 -17   -0.80    4.10
   2 -16 -17   -0.80    4.20
  -2 -16 -17    0.50    3.60
  -2 -17 -17    0.60    4.00
   2 -17 -17    0.30    4.30
   2  17 -17    3.00    4.30
  -2  17 -17    1.80    4.90
  -2 -18 -17   -0.40    4.40
   2 -18 -17   -1.50    5.00
   3  -1 -17   69.69    3.30
   3   1 -17   68.19    3.40
  -3   1  17   84.89    3.70
  -3  -1  17   83.69    3.60
   3  -2 -17   12.90    2.50
   3   2 -17   12.80    3.00
  -3   2  17   10.50    2.90
   3  -3 -17   12.40    2.50
   3   3 -17   12.40    2.50
  -3  -3  17   13.00    2.50
  -3   3  17   15.40    2.60
   3  -4 -17   21.00    2.70
   3   4 -17   21.20    3.00
  -3  -4  17   20.60    2.70
   3  -5 -17    0.70    2.80
   3   5 -17   -0.10    2.90
  -3  -5  17    3.30    2.30
   3  -6 -17    1.00    2.40
   3   6 -17   -0.20    2.80
  -3  -6  17    3.20    2.70
   3   7 -17    1.20    2.40
  -3   7 -17    2.80    2.90
  -3  -7  17    1.20    2.80
   3  -7 -17    1.10    2.30
  -3   8 -17    3.10    2.80
   3  -8 -17   -0.60    3.00
  -3  -8  17    4.10    3.00
   3   8 -17    1.10    3.00
  -3  -9  17   -1.90    2.80
   3  -9 -17    0.00    2.80
   3   9 -17   -1.50    2.80
  -3   9 -17   -0.20    2.90
   3 -10 -17    5.60    3.10
  -3 -10  17    5.70    3.00
   3  10 -17    7.80    2.90
  -3  10 -17    5.50    3.00
   3  11 -17    4.60    3.10
  -3  11 -17    5.30    3.60
   3  12 -17   53.59    4.00
  -3  12 -17   50.69    3.90
  -3  13 -17    2.40    3.70
   3  13 -17    2.50    3.30
  -3  14 -17    4.90    3.80
   3  14 -17    1.30    3.20
   3 -14 -17    1.50    3.50
  -3  15 -17   -0.40    4.10
   3 -15 -17   -1.60    3.50
   3  15 -17    1.40    3.60
   3 -16 -17    2.20    4.20
   3  16 -17    2.80    4.10
  -3  16 -17    3.10    4.60
  -3 -16 -17   -0.60    3.90
  -3  17 -17    0.90    4.80
   3 -17 -17   -0.30    4.40
   3  17 -17    2.00    4.40
  -3 -17 -17   -1.30    4.00
   3 -18 -17    0.40    5.30
  -3 -18 -17    0.10    4.20
   4   0 -17    4.50    2.60
   4  -1 -17   91.89    3.40
   4   1 -17  100.69    3.40
   4  -2 -17    1.00    2.70
   4   2 -17    0.30    2.70
  -4  -2  17   -1.60    2.20
  -4   3  17   22.90    2.60
   4  -3 -17   24.80    2.60
   4   3 -17   26.30    2.60
   4  -4 -17   23.60    3.00
   4   4 -17   24.50    2.70
  -4   4  17   24.30    2.60
   4  -5 -17   12.80    2.50
   4   5 -17   14.90    2.50
  -4   5  17   13.10    2.50
  -4  -5  17   17.10    2.50
   4  -6 -17    6.80    3.10
   4   6 -17   11.90    2.60
  -4   6  17   14.40    2.60
   4  -7 -17   -0.50    2.90
   4   7 -17    1.70    2.70
  -4  -7  17    0.80    2.90
   4  -8 -17   -0.10    3.00
   4   8 -17    1.20    2.80
  -4  -8  17   -0.10    2.90
  -4   9 -17    1.40    3.00
   4  -9 -17    2.00    2.70
  -4  -9  17    0.40    2.80
   4   9 -17   -0.10    2.80
   4 -10 -17    1.50    3.00
  -4 -10  17    2.40    2.70
  -4  10 -17   -0.80    3.00
   4  10 -17    0.30    2.80
   4  11 -17    1.10    3.00
  -4 -11  17   -1.70    2.80
  -4  11 -17    0.20    3.50
  -4 -12  17   -0.70    3.40
   4  12 -17    0.50    3.40
  -4  12 -17    0.00    3.10
   4  13 -17    4.10    3.70
  -4  13 -17    4.70    3.50
  -4  14 -17   -0.30    3.70
   4  14 -17    0.00    3.60
   4 -14 -17    0.70    3.50
   4 -15 -17    0.30    4.10
   4  15 -17    2.00    3.50
  -4  15 -17    1.70    4.00
   4 -16 -17    2.50    4.10
  -4  16 -17    0.40    4.40
  -4 -16 -17    3.30    3.60
   4  16 -17    0.90    3.90
   4  17 -17    1.70    4.20
  -4 -17 -17    0.60    3.80
   4 -17 -17    0.70    4.60
  -4  17 -17   -1.40    5.10
   4 -18 -17    1.10    5.70
   5  -1 -17   -1.10    2.80
   5   1 -17   -0.50    2.10
  -5  -1  17    3.30    2.20
   5  -2 -17    7.00    2.30
   5   2 -17    6.40    2.40
   5  -3 -17    1.60    2.20
   5   3 -17    4.20    2.30
   5   4 -17    5.40    2.70
   5  -4 -17    4.10    2.30
  -5   4  17    6.50    2.30
   5  -5 -17   -0.90    2.80
   5   5 -17   -0.40    2.20
  -5   5  17   -0.20    2.30
   5   6 -17   -1.00    2.40
   5  -6 -17   -1.30    2.80
  -5  -6  17    1.10    2.30
  -5   6  17   -0.10    2.40
   5  -7 -17    4.60    3.00
  -5   7  17    5.70    3.00
   5   7 -17    8.30    2.50
   5  -8 -17    2.50    2.90
  -5  -8  17    4.60    2.50
   5   8 -17    2.10    3.00
  -5  -9  17    3.90    2.40
   5  -9 -17    3.50    2.80
   5   9 -17    3.10    2.30
   5 -10 -17   33.70    3.40
  -5  10 -17   32.80    3.40
  -5 -10  17   28.90    3.20
   5  10 -17   31.70    3.20
   5  11 -17   -0.70    3.00
  -5 -11  17   -1.20    2.80
  -5  11 -17    1.90    3.10
   5 -11 -17   -1.40    3.40
   5  12 -17   12.00    3.20
  -5 -12  17    9.00    3.20
  -5  12 -17   11.00    3.60
  -5 -13  17    3.00    3.50
   5  13 -17   13.00    3.50
  -5  13 -17    6.10    3.60
   5  14 -17    7.50    3.70
   5 -14 -17    6.80    3.50
  -5 -14  17    9.80    3.50
  -5  14 -17    5.50    3.70
  -5  15 -17    4.00    4.20
   5 -15 -17    1.60    3.70
   5  15 -17    0.50    3.30
   5 -16 -17    0.40    4.30
  -5  16 -17    1.70    4.50
   5  16 -17   -0.60    4.10
  -5 -17 -17   -1.90    3.70
   5 -17 -17    1.30    4.70
  -5  17 -17    0.50    5.10
   5  17 -17   -2.30    4.00
   6   0 -17   -1.10    2.10
   6   1 -17   12.50    2.30
   6  -1 -17    8.60    2.40
  -6  -1  17    4.40    2.30
   6  -2 -17    5.00    2.80
   6   2 -17    6.00    2.30
   6  -3 -17   16.40    3.00
   6   3 -17   16.20    2.50
  -6   3  17   21.50    2.60
   6  -4 -17    2.90    2.30
   6   4 -17    1.00    2.70
   6   5 -17    0.40    2.40
   6  -5 -17    1.70    2.40
  -6   6  17   11.20    3.00
  -6  -6  17   10.50    2.50
   6  -6 -17    8.90    2.50
   6   6 -17   10.90    2.90
   6  -7 -17    4.00    2.80
  -6   7  17    1.70    2.40
  -6  -7  17   -0.70    2.40
   6   7 -17   -1.30    3.00
   6   8 -17    2.40    2.80
  -6   8  17    0.10    2.80
   6  -8 -17    1.00    2.50
  -6   9  17   17.30    3.00
   6   9 -17   18.70    2.40
   6  -9 -17   15.70    3.10
  -6  -9  17   16.00    2.60
   6  10 -17    6.30    2.90
   6 -10 -17    7.40    3.00
  -6 -10  17    2.60    2.90
   6  11 -17   16.50    3.10
   6 -11 -17    8.90    3.40
   6  12 -17    1.40    3.40
  -6 -12  17    1.90    3.30
  -6  12 -17    2.40    3.60
  -6  13 -17   -1.70    3.70
  -6 -13  17    4.20    3.30
   6  13 -17    2.00    3.60
   6  14 -17    6.90    3.50
   6 -14 -17   10.10    3.60
  -6  14 -17   11.60    3.70
  -6 -14  17   10.40    3.40
  -6  15 -17    0.70    3.80
   6 -15 -17   -1.00    3.80
  -6 -15  17   -0.30    3.40
   6  15 -17   -1.30    3.90
  -6 -16  17    2.40    3.90
  -6  16 -17   -1.10    4.20
   6 -16 -17    0.60    4.40
   6  16 -17   -1.50    3.90
   6 -17 -17    3.90    4.90
  -6  17 -17    0.40    5.10
   7  -1 -17   11.80    2.40
   7   1 -17    7.50    2.20
  -7   1  17    7.40    2.30
  -7  -2  17   14.30    2.50
   7  -2 -17   12.10    2.90
   7   2 -17   14.40    2.80
  -7   2  17   16.90    2.50
  -7  -3  17    4.00    2.30
   7  -3 -17    0.80    2.70
   7   3 -17    2.40    2.30
  -7  -4  17   21.50    2.60
   7  -4 -17   17.40    2.70
  -7   4  17   17.80    2.70
   7   4 -17   23.90    2.60
   7   5 -17    0.40    2.70
   7  -5 -17   -0.10    2.90
  -7  -6  17    8.70    2.50
   7   6 -17    9.30    2.60
   7  -6 -17    9.10    2.60
   7   7 -17   43.60    3.40
  -7   7  17   50.19    3.20
   7  -7 -17   48.60    3.10
   7   8 -17   -2.30    2.80
   7  -8 -17   -2.20    2.90
  -7   8  17    0.40    2.90
  -7   9  17   21.80    3.20
   7   9 -17   31.40    2.60
   7  -9 -17   19.10    3.20
   7 -10 -17    3.20    3.10
  -7  10  17    1.00    3.00
   7  10 -17   -0.50    2.90
   7 -11 -17    4.20    3.50
   7  11 -17    5.20    2.90
   7  12 -17   13.40    3.40
   7  13 -17   -4.20    3.40
  -7  13 -17   -1.80    3.50
  -7 -13  17   -0.30    3.10
  -7  14 -17    1.40    3.70
  -7 -14  17   -1.50    3.30
   7  14 -17   -1.40    3.60
   7 -14 -17    0.70    3.40
   7 -15 -17   -0.60    3.70
   7  15 -17   -0.10    3.40
  -7 -15  17   -2.10    3.50
  -7  15 -17   -0.80    4.10
  -7  16 -17    5.30    4.30
  -7 -16  17    4.20    3.50
   7 -16 -17   -2.00    4.20
   7  16 -17    4.00    4.00
  -7 -17  17   -2.80    3.90
  -8   0  17   -0.10    2.30
   8   0 -17   -0.40    2.30
  -8   1  17   15.00    2.50
   8  -1 -17   14.80    2.80
   8   1 -17   12.50    2.30
   8   2 -17   -1.20    2.30
  -8   2  17    2.30    2.30
  -8  -2  17   -1.10    2.30
   8  -2 -17    3.30    2.30
  -8   3  17   17.50    2.50
   8   3 -17   14.40    2.50
  -8  -3  17   15.00    2.50
   8  -3 -17   14.60    2.90
  -8  -4  17    0.80    2.30
   8   4 -17    3.10    2.30
   8  -4 -17    5.20    2.90
   8   5 -17   36.40    3.20
   8  -5 -17   33.50    2.90
  -8  -6  17    9.40    2.70
   8  -6 -17   12.10    3.00
   8   6 -17   10.50    2.60
   8  -7 -17   63.29    3.50
   8   7 -17   62.99    3.80
   8  -8 -17   -0.30    2.40
   8   8 -17   -2.00    3.00
  -8   8  17   -2.20    2.70
   8  -9 -17   12.70    3.20
  -8   9  17    9.50    3.20
   8   9 -17   18.10    3.10
  -8  10  17    8.00    3.30
   8 -10 -17    5.70    3.30
   8  10 -17    7.20    2.90
  -8  11  17    3.20    3.50
   8 -11 -17    4.20    3.40
   8  11 -17    3.10    2.50
   8  12 -17    0.50    3.10
   8 -12 -17    0.40    3.70
   8  13 -17    2.10    3.20
  -8 -13  17    0.60    3.10
   8  14 -17   -1.70    3.40
   8 -14 -17    1.40    3.70
  -8  14 -17    0.60    3.90
  -8 -14  17   -1.40    3.20
  -8  15 -17   -1.10    3.90
   8 -15 -17    0.70    4.00
   8  15 -17    0.00    3.40
  -8 -15  17   -1.50    3.20
  -8 -16  17    0.50    3.70
  -8  16 -17    0.70    4.40
   8 -16 -17    1.00    4.30
  -9  -1  17    3.40    2.20
   9  -1 -17    1.40    2.70
   9   1 -17   -0.50    2.50
  -9  -2  17    6.70    2.30
   9  -2 -17    6.40    2.90
   9   2 -17    9.70    2.30
  -9   2  17    5.30    2.50
   9  -3 -17    8.90    2.90
   9   3 -17    9.60    2.40
  -9   4  17   14.80    2.70
  -9  -4  17   20.90    2.50
   9  -4 -17   12.00    2.70
   9   4 -17   13.50    2.60
  -9  -5  17   79.99    3.40
   9  -5 -17   63.89    3.70
   9   5 -17   85.19    3.30
   9  -6 -17   -0.60    2.70
   9   6 -17    0.40    2.90
  -9  -7  17    0.30    2.40
   9  -7 -17    0.10    2.70
   9   7 -17   -1.60    2.50
  -9  -8  17   15.20    2.60
   9  -8 -17    9.80    2.90
  -9   8  17    9.40    3.00
   9   8 -17   14.50    2.90
  -9  -9  17    9.80    2.70
   9  -9 -17   11.80    3.00
  -9   9  17   11.60    3.20
   9   9 -17   14.30    2.90
  -9 -10  17    1.30    2.30
   9  10 -17    0.70    2.70
   9 -10 -17   -0.50    3.20
  -9  10  17   -0.10    3.10
   9  11 -17    3.30    2.60
  -9  11  17    1.20    3.50
   9 -11 -17    1.70    3.50
   9 -12 -17   -0.60    3.50
  -9  12  17    2.20    3.40
   9  12 -17    0.20    3.20
   9  13 -17    2.80    3.00
  -9 -13  17    1.50    3.10
   9  14 -17    2.00    3.20
  -9 -14  17    0.90    3.10
   9 -15 -17   -0.10    3.80
  -9  15 -17   -0.70    3.90
  -9 -15  17    2.20    3.20
   9  15 -17   -0.60    3.60
   9 -16 -17    2.40    4.40
  -9  16 -17    4.60    4.30
  -9 -16  17    1.00    3.50
  10   0 -17    0.80    2.20
 -10   1  17   14.20    2.40
 -10  -1  17   16.50    2.40
  10   1 -17   12.10    2.30
  10  -1 -17   13.20    3.00
 -10   2  17    4.80    2.50
 -10  -2  17   10.60    2.40
  10  -2 -17   11.30    3.00
  10   2 -17   11.50    2.40
 -10   3  17    7.00    2.50
  10  -3 -17    9.30    2.80
  10   3 -17    1.90    2.70
 -10  -4  17    2.10    2.30
  10   4 -17   -2.20    2.80
  10  -4 -17    1.40    2.50
 -10   5  17   10.20    2.60
 -10  -5  17   15.20    2.40
  10  -5 -17   11.80    3.10
  10   5 -17    8.80    2.80
  10   6 -17   -0.10    2.40
  10  -6 -17    1.20    2.80
 -10  -7  17   -0.30    2.40
  10  -7 -17    2.90    2.70
  10   7 -17    2.50    3.00
  10  -8 -17    0.50    2.80
  10   8 -17    5.60    2.40
  10   9 -17    1.30    2.90
 -10   9  17    1.10    3.20
  10  -9 -17   -2.70    3.00
 -10  10  17   -1.00    3.10
  10  10 -17   -0.20    3.00
  10 -10 -17    0.00    3.20
  10 -11 -17   14.80    3.70
  10  11 -17   18.00    3.10
 -10  11  17    7.00    3.70
  10  12 -17    6.90    2.80
  10 -12 -17    4.60    3.40
 -10  12  17    3.80    3.40
  10  13 -17    0.20    3.40
 -10  13  17    1.60    3.30
  10  14 -17    0.70    3.20
 -10 -14  17    4.60    3.20
  10 -15 -17    0.80    4.00
 -10 -15  17    2.30    3.50
 -11  -1  17    0.10    2.30
  11   1 -17    2.30    2.20
  11  -1 -17    5.00    2.30
 -11   2  17   13.60    2.50
 -11  -2  17   11.40    2.40
  11  -2 -17    7.20    2.40
  11   2 -17    3.90    2.70
 -11   3  17    2.70    2.40
 -11  -3  17    3.10    2.40
  11   3 -17    1.00    2.40
  11  -3 -17   -1.60    3.00
 -11  -4  17    0.30    2.30
  11   4 -17    0.40    2.30
  11  -4 -17    3.40    2.80
 -11   5  17    0.00    2.30
 -11  -5  17    1.70    2.30
  11  -5 -17   -0.50    2.70
  11   5 -17    4.70    2.40
  11  -6 -17   -0.70    2.30
  11   6 -17    1.10    2.50
  11   7 -17    3.10    3.10
  11  -7 -17    2.80    2.40
  11  -8 -17    2.40    2.90
 -11  -8  17    1.40    2.50
  11   8 -17    5.80    2.70
 -11  -9  17    6.60    2.70
  11   9 -17    4.90    3.30
  11  -9 -17    1.30    3.20
 -11   9  17    3.30    2.90
 -11 -10  17    2.70    2.50
  11 -10 -17    3.90    3.20
  11  10 -17    0.00    3.00
 -11  10  17   -3.80    3.10
  11  11 -17    2.80    3.40
  11 -11 -17   -2.30    3.10
 -11  11  17   -2.90    3.20
  11  12 -17    7.80    3.40
 -11  12  17   10.90    3.30
  11 -12 -17    8.60    3.40
  11 -13 -17   -0.40    3.70
  11  13 -17    1.90    3.40
 -11  13  17   -0.80    3.70
 -11  14  17   -0.30    3.90
  12   0 -17    2.80    2.50
 -12   1  17   14.40    2.50
 -12  -1  17   12.60    2.70
  12   1 -17    7.80    2.60
  12  -1 -17    6.40    2.80
  12   2 -17    6.20    3.00
  12  -2 -17    9.60    2.80
  12   3 -17   36.20    2.90
  12  -3 -17   37.30    2.80
  12   4 -17    6.50    2.50
  12  -4 -17    7.30    2.60
  12  -5 -17    6.80    2.50
 -12   5  17    9.60    2.50
  12   5 -17   13.50    2.50
 -12  -5  17    9.20    2.50
  12  -6 -17   36.00    3.50
  12   6 -17   49.40    3.00
  12  -7 -17   24.70    3.00
 -12  -7  17   26.90    2.70
  12   7 -17   20.30    3.10
  12   8 -17    1.10    2.90
  12  -8 -17    0.20    3.00
  12   9 -17    0.40    3.00
  12  -9 -17    4.90    2.50
 -12   9  17    3.20    3.00
  12  10 -17   -0.50    2.70
  12 -10 -17    2.00    3.20
 -12  10  17    0.90    2.90
  12  11 -17    0.60    2.90
  12 -11 -17   -1.30    3.30
 -12  11  17    3.90    3.30
  12  12 -17    2.10    3.00
  12 -12 -17   -2.70    3.40
 -12  12  17    0.70    3.30
  12  13 -17    3.20    3.20
 -12  13  17   -0.30    3.40
  12 -13 -17    2.00    3.90
 -12  14  17   -3.30    3.70
  13   1 -17    1.80    2.60
  13  -1 -17    3.10    2.60
  13  -2 -17   11.20    2.50
  13   2 -17    7.60    2.80
  13  -3 -17   -0.60    2.50
  13   3 -17   -2.70    2.50
  13  -4 -17   10.30    3.10
  13   4 -17    8.70    2.60
  13  -5 -17    7.20    2.50
  13   5 -17    4.00    2.60
 -13  -6  17    4.90    2.50
  13  -6 -17    4.20    3.00
  13   6 -17    5.10    2.50
  13  -7 -17   -0.50    2.80
  13   7 -17    1.70    2.60
  13  -8 -17    0.60    2.90
  13   8 -17    4.80    3.30
  13  -9 -17    2.00    3.10
  13   9 -17    0.90    2.70
  13  10 -17    1.30    3.20
  13 -10 -17    4.00    3.40
 -13  10  17    3.70    3.30
  13  11 -17   -0.80    3.40
 -13  11  17    0.80    3.10
  13 -11 -17    5.10    3.40
  13  12 -17   -1.80    3.10
 -13  12  17    2.20    3.40
  13 -12 -17    3.00    3.70
 -13  13  17    1.60    3.80
  14   0 -17   -2.80    2.50
  14   1 -17   13.50    2.90
  14  -1 -17   13.30    2.80
  14  -2 -17    3.50    2.70
  14   2 -17    4.30    3.10
  14  -3 -17    2.80    2.50
  14   3 -17    2.20    2.70
  14  -4 -17   16.20    3.10
  14   4 -17   16.90    2.70
  14   5 -17   22.90    3.10
  14  -5 -17   25.80    2.90
  14   6 -17   10.50    3.00
  14  -6 -17   10.10    2.70
  14  -7 -17    3.60    2.90
  14  -8 -17    4.80    3.40
  14   9 -17   10.20    3.20
  14  -9 -17    6.80    3.20
  14  10 -17   -0.40    3.20
  14 -10 -17   -0.60    3.50
  14 -11 -17    1.30    3.70
 -14  11  17    3.00    3.20
 -14  12  17    2.60    3.70
 -15   1  17   -1.20    2.50
  15   2 -17    8.20    3.10
 -15  -2  17    2.30    2.70
  15  -4 -17    0.80    3.30
 -15  -4  17   -3.00    2.60
  15   4 -17    1.40    3.20
  15  -5 -17    0.10    2.60
  15   5 -17   -3.50    2.70
  15  -6 -17    4.10    3.00
  15  -7 -17   -2.80    3.50
  15   8 -17   11.80    3.20
  15  -8 -17    4.60    3.40
  15   9 -17    1.50    3.20
  15  -9 -17    5.20    3.10
  15 -10 -17   -4.10    3.80
 -16   0  17   -0.40    2.60
  16   0 -17    3.40    3.10
  16   1 -17    0.40    3.00
  16  -1 -17    8.20    3.20
  16  -2 -17   -1.60    3.20
  16   3 -17    4.50    3.30
  16  -5 -17    6.20    3.10
  16  -6 -17    1.90    3.30
  16   6 -17    1.30    3.20
  16   7 -17    7.20    3.50
  16  -7 -17    2.30    3.60
  16  -8 -17   -1.80    3.80
  17   2 -17    3.50    3.50
  17  -3 -17    3.20    3.20
  17   4 -17   -3.80    3.50
  17  -5 -17    5.70    3.40
   0   0 -18   11.60    2.30
   0   1 -18   -0.30    2.20
   0  -1 -18    0.80    2.10
   0  -2 -18   10.40    2.50
   0   2 -18   13.60    2.50
   0  -3 -18   -2.10    2.80
   0   3 -18    1.10    2.30
   0  -4 -18   28.80    3.10
   0   4 -18   29.60    3.20
   0  -5 -18    0.50    2.70
   0   5 -18    0.70    2.80
   0   6 -18   12.50    2.50
   0  -6 -18   13.10    2.80
   0  -7 -18    1.20    2.40
   0   7 -18    0.90    2.90
   0   8 -18   24.40    3.20
   0  -8 -18   20.00    3.00
   0   9 -18    1.70    2.80
   0  -9 -18    0.10    2.70
   0  10 -18    1.40    2.80
   0 -10 -18    4.00    2.70
   0  11 -18   -0.70    3.40
   0 -11 -18    0.00    3.20
   0  12 -18   -1.70    3.70
   0  13 -18   -2.00    3.10
   0  14 -18   -0.50    3.40
   0 -15 -18   -2.30    3.30
   0  15 -18   -0.10    3.60
   0 -16 -18    0.20    4.10
   0  16 -18    0.50    4.50
   0 -17 -18    0.50    3.90
   0  17 -18   -2.10    4.50
   0  18 -18    2.10    5.40
   0 -18 -18   -0.10    4.80
  -1   1 -18    1.20    2.30
  -1  -1 -18   -0.40    2.20
   1  -1 -18   -1.30    2.20
   1   1 -18   -0.50    2.10
  -1   2 -18   -1.80    2.30
  -1  -2 -18    0.20    2.30
   1  -2 -18    0.20    2.30
   1   2 -18    1.10    2.30
  -1   3 -18    1.60    2.30
   1   3 -18    0.90    2.30
  -1  -3 -18    3.70    2.70
   1  -3 -18   -4.50    2.80
  -1   4 -18   -1.30    2.80
  -1  -4 -18    0.00    2.80
   1  -4 -18    1.60    2.80
   1   4 -18    1.20    2.80
  -1  -5 -18    2.90    2.40
  -1   5 -18    4.90    2.90
   1  -5 -18    6.50    2.30
   1   5 -18    5.70    2.80
   1   6 -18   17.80    2.90
  -1  -6 -18   17.90    2.90
  -1   6 -18   16.40    2.60
   1  -6 -18   16.00    3.10
   1   7 -18    6.70    2.90
  -1  -7 -18    4.50    2.40
  -1   7 -18    5.50    2.90
   1  -7 -18    2.60    2.80
   1   8 -18    0.40    2.50
  -1  -8 -18   -1.80    2.40
  -1   8 -18    0.10    2.90
   1  -8 -18    2.10    2.90
   1   9 -18    3.00    2.60
  -1  -9 -18   -1.50    2.70
  -1   9 -18    1.60    2.80
   1  -9 -18    0.30    2.80
  -1  10 -18    2.30    3.00
   1  10 -18   -0.40    3.00
  -1 -10 -18    0.60    2.70
   1 -10 -18    3.80    2.90
  -1  11 -18   -4.10    3.00
   1  11 -18    1.00    3.40
  -1 -11 -18   -1.50    2.90
   1 -11 -18   -0.30    3.00
   1  12 -18   25.50    3.70
  -1  12 -18   19.60    3.50
  -1 -12 -18   22.60    3.50
  -1  13 -18    2.00    3.50
   1  13 -18    4.40    3.20
   1 -14 -18    3.40    3.40
  -1  14 -18    7.30    3.60
   1  14 -18    4.30    3.40
   1  15 -18    1.40    3.70
   1 -15 -18   -0.70    3.50
  -1  15 -18    0.90    3.80
  -1 -15 -18    2.00    3.40
  -1 -16 -18   -1.10    3.80
  -1  16 -18   -1.50    4.30
   1 -16 -18    0.00    4.10
   1  16 -18   -2.00    4.20
  -1 -17 -18   -0.70    3.80
   1  17 -18   -0.70    4.30
   1 -17 -18   -0.50    4.10
  -1  17 -18    0.20    4.60
  -1 -18 -18   -0.60    4.50
   1 -18 -18    1.60    4.90
  -1  18 -18    1.60    5.70
   1  18 -18    0.50    5.40
   2   0 -18   -1.30    2.10
   2  -1 -18    0.20    2.60
   2   1 -18    1.60    2.20
   2   2 -18   10.80    2.40
   2  -2 -18   11.40    2.40
   2   3 -18    3.50    2.70
  -2   3 -18    2.40    2.30
   2  -3 -18    1.60    2.20
   2   4 -18   10.20    2.90
   2  -4 -18   10.50    2.40
  -2   4 -18   11.40    2.40
   2  -5 -18    1.40    2.30
   2   5 -18    2.60    2.70
  -2   5 -18    0.90    2.30
  -2   6 -18    2.50    2.80
   2   6 -18    3.40    2.90
   2  -6 -18    2.50    2.90
   2   7 -18    2.80    2.40
  -2   7 -18    7.30    2.80
   2  -7 -18    4.40    2.90
   2  -8 -18   10.00    3.10
   2   8 -18   12.60    3.10
  -2   8 -18   12.20    2.80
   2  -9 -18    4.90    2.30
   2   9 -18    6.10    2.80
  -2   9 -18    3.50    2.70
   2 -10 -18    8.80    3.10
  -2 -10 -18   10.50    2.80
   2  10 -18   12.30    3.00
  -2  10 -18    9.50    3.10
  -2 -11 -18   -0.50    3.10
   2 -11 -18   -1.70    3.00
   2  11 -18   -0.10    3.00
  -2  11 -18   -2.70    3.10
  -2  12 -18    6.60    3.60
  -2 -12 -18    4.00    3.60
   2  12 -18    6.80    3.70
  -2  13 -18    3.20    3.60
   2  13 -18    3.10    3.50
   2  14 -18   10.40    3.20
   2 -14 -18    9.00    3.60
  -2  14 -18   11.20    3.80
   2  15 -18   -0.60    3.40
   2 -15 -18    2.90    3.50
  -2  15 -18    2.40    3.70
   2  16 -18    4.70    4.00
   2 -16 -18    2.30    4.10
  -2  16 -18    3.10    4.70
  -2 -16 -18   -0.20    3.80
  -2  17 -18    0.10    4.50
   2  17 -18   -0.40    4.40
   2 -17 -18    1.40    4.00
  -2 -17 -18   -0.60    3.80
  -2 -18 -18   -0.20    4.50
   2 -18 -18    1.40    5.10
   2  18 -18    5.10    4.90
  -2  18 -18    0.30    5.70
   3  -1 -18    0.70    2.60
   3   1 -18    2.50    2.20
  -3  -1  18    2.50    2.20
  -3   1  18    3.20    2.20
   3  -2 -18    2.50    2.30
  -3   2  18    7.30    2.30
  -3  -2  18    4.90    2.40
   3   2 -18    2.60    2.30
   3  -3 -18    4.50    2.40
   3   3 -18    1.30    2.80
  -3  -3  18    5.90    2.80
   3  -4 -18    2.00    2.30
   3   4 -18    1.90    2.30
  -3  -4  18    3.20    2.70
   3  -5 -18    5.70    2.40
   3   5 -18    4.50    2.40
  -3  -5  18    7.00    2.40
   3   6 -18   21.10    2.60
   3  -6 -18   23.40    3.00
  -3   6 -18   19.00    3.20
  -3  -6  18   21.70    3.10
   3  -7 -18   -5.00    3.00
   3   7 -18   -0.60    2.70
  -3  -7  18   -0.70    2.30
  -3   7 -18    4.20    2.90
   3  -8 -18    6.40    3.00
   3   8 -18    2.10    3.10
  -3  -8  18    7.50    2.40
  -3   8 -18    5.10    2.80
   3  -9 -18    6.90    2.80
   3   9 -18    6.70    2.90
  -3  -9  18    5.30    3.00
  -3   9 -18    4.60    2.80
   3 -10 -18   10.90    3.00
   3  10 -18   11.30    2.90
  -3  10 -18    6.00    3.30
   3 -11 -18    3.30    3.40
   3  11 -18    5.60    3.00
  -3  11 -18    3.50    3.50
   3  12 -18    1.90    3.50
  -3  12 -18    0.50    3.10
  -3  13 -18   21.30    3.80
  -3 -13 -18   19.40    3.60
   3  13 -18   26.40    3.60
  -3  14 -18    6.70    3.40
   3  14 -18    3.80    3.20
   3 -14 -18    1.40    3.40
  -3  15 -18    0.10    3.80
   3 -15 -18    1.60    3.60
   3  15 -18    3.60    3.70
   3  16 -18    2.40    4.00
  -3  16 -18   -0.70    4.20
  -3 -16 -18   -2.00    3.70
   3 -16 -18   -0.60    4.10
  -3  17 -18    0.40    4.70
   3 -17 -18    1.20    4.50
  -3 -17 -18   -0.60    3.70
   3  17 -18    0.10    4.00
  -3 -18 -18    0.80    4.00
   4   0 -18   -0.50    2.20
  -4   0  18    2.00    2.30
   4  -1 -18    6.40    2.40
   4   1 -18    6.70    2.60
  -4   1  18    9.10    2.30
   4  -2 -18    3.50    2.40
   4   2 -18    3.60    2.70
  -4   2  18    2.50    2.40
  -4  -2  18    1.80    2.40
   4  -3 -18    2.30    2.50
   4   3 -18    0.70    2.30
  -4   3  18    1.20    2.70
   4  -4 -18   12.60    2.40
   4   4 -18   14.10    2.80
  -4   4  18   14.90    2.40
   4  -5 -18   -0.20    2.30
   4   5 -18   -0.50    2.40
  -4  -5  18    0.30    2.40
  -4   5  18    1.70    2.30
   4  -6 -18    3.60    2.80
   4   6 -18    4.50    2.50
  -4  -6  18    5.10    2.90
   4  -7 -18    0.70    2.90
   4   7 -18    1.10    2.70
  -4  -7  18    2.20    2.30
   4  -8 -18    0.50    2.90
  -4  -8  18    4.80    2.50
  -4   8 -18    4.40    2.80
   4   8 -18    2.90    3.00
   4  -9 -18    3.10    2.90
  -4   9 -18    0.70    2.70
  -4  -9  18    0.40    2.80
   4   9 -18    1.10    2.80
   4 -10 -18    0.40    2.80
  -4  10 -18   -0.50    3.00
  -4 -10  18   -1.30    2.80
   4  10 -18    0.20    2.70
   4 -11 -18   -0.10    3.50
  -4 -11  18    2.90    2.90
  -4  11 -18    1.10    3.20
   4  11 -18   -1.30    3.00
  -4  12 -18    1.40    3.40
   4  12 -18   -1.50    3.30
  -4 -12  18    3.20    3.20
   4  13 -18    0.90    3.60
  -4  13 -18    0.80    3.10
  -4  14 -18    2.30    3.50
   4 -14 -18    2.80    3.40
   4  14 -18    2.40    3.60
  -4  15 -18   12.20    4.20
   4  15 -18   15.30    3.60
   4 -15 -18   14.60    4.00
   4 -16 -18   -0.90    4.20
  -4  16 -18    1.50    4.30
   4  16 -18   -0.20    4.10
   4  17 -18    2.80    3.90
   4 -17 -18    1.70    4.60
  -4 -17 -18    0.00    3.70
  -4  17 -18   -0.60    4.80
   5  -1 -18    5.00    2.80
   5   1 -18    4.80    2.40
  -5  -1  18    4.00    2.30
   5  -2 -18    2.30    2.60
   5   2 -18    0.30    2.20
   5  -3 -18   11.10    2.50
   5   3 -18   17.30    2.30
   5  -4 -18    3.50    2.90
   5   4 -18    5.70    2.80
  -5   4  18    3.30    2.70
   5  -5 -18    9.40    2.50
   5   5 -18   15.30    2.60
  -5   5  18   10.90    3.00
   5  -6 -18    3.40    3.00
   5   6 -18    3.50    2.50
  -5   6  18    2.30    2.90
  -5  -6  18    3.50    2.50
   5  -7 -18   33.00    3.20
   5   7 -18   35.90    2.80
  -5   7  18   33.30    2.80
   5  -8 -18    4.70    3.00
   5   8 -18    6.40    2.90
  -5  -8  18    2.50    3.10
   5   9 -18   10.00    2.90
   5  -9 -18    9.90    2.80
  -5  -9  18    6.90    2.80
   5  10 -18    1.90    2.80
   5 -10 -18    3.30    3.00
  -5  10 -18    4.80    3.00
  -5 -10  18   -1.20    2.70
  -5 -11  18    0.40    2.80
   5  11 -18    3.90    3.00
  -5  11 -18    3.20    3.60
   5 -11 -18   -0.60    3.20
   5  12 -18    4.30    3.30
  -5 -12  18    5.10    3.30
  -5  12 -18    3.50    3.20
  -5 -13  18   -3.90    3.50
   5  13 -18    0.60    3.50
  -5  13 -18    0.20    3.50
   5 -14 -18    2.00    3.40
  -5 -14  18   -1.10    3.20
   5  14 -18   -1.60    3.20
  -5  14 -18   -1.40    3.40
  -5  15 -18    1.50    4.10
   5 -15 -18    0.60    3.60
   5  15 -18    0.50    3.20
  -5  16 -18    8.30    4.50
   5 -16 -18    8.70    4.20
   5  16 -18    7.90    3.90
   5 -17 -18   -0.40    4.50
  -5  17 -18    0.00    4.90
   5  17 -18   -2.00    4.20
  -5 -17 -18   -0.40    3.70
   6   0 -18    3.90    2.30
   6  -1 -18   -0.20    2.30
   6   1 -18   -0.30    2.10
  -6  -1  18   -1.30    2.30
   6  -2 -18    5.30    2.80
   6   2 -18    8.20    2.20
   6  -3 -18    0.80    2.70
   6   3 -18    2.10    2.30
  -6   3  18    1.60    2.20
   6  -4 -18   10.20    2.50
   6   4 -18    9.30    2.40
   6  -5 -18    2.00    2.40
  -6   5  18    6.90    3.00
   6   5 -18    7.20    2.50
   6  -6 -18    2.90    2.40
  -6   6  18    0.40    3.00
   6   6 -18    2.60    2.90
  -6  -6  18    3.00    2.40
   6  -7 -18    0.80    2.80
  -6   7  18    0.20    2.90
   6   7 -18   -1.80    3.00
   6  -8 -18    8.70    2.80
  -6   8  18    5.20    3.00
   6   8 -18    8.00    3.00
   6   9 -18    2.90    2.90
   6  -9 -18    1.20    2.90
  -6  -9  18    2.60    2.30
   6  10 -18   11.80    2.80
   6 -10 -18   12.50    2.90
   6  11 -18    4.10    3.00
  -6  11 -18    3.20    3.90
  -6 -11  18    4.40    3.10
   6 -11 -18    6.70    3.30
   6  12 -18    0.70    3.20
  -6  12 -18    2.30    3.50
  -6 -12  18    2.80    3.30
  -6 -13  18   23.40    3.70
  -6  13 -18   23.10    3.60
   6  13 -18   24.50    3.80
   6  14 -18    0.50    3.40
   6 -14 -18    1.20    3.30
  -6 -14  18   -1.00    3.50
  -6  14 -18   -1.50    3.60
   6  15 -18    1.00    3.70
   6 -15 -18    0.80    3.90
  -6 -15  18   -0.90    3.20
  -6  15 -18    1.80    4.10
   6 -16 -18    7.00    4.40
  -6  16 -18    8.70    4.30
   6  16 -18   13.00    4.30
  -6  17 -18    3.40    4.90
   6 -17 -18    0.30    4.60
   6  17 -18    3.50    3.60
   7   1 -18    2.70    2.20
   7  -1 -18    2.30    2.30
  -7   1  18    2.40    2.30
   7  -2 -18    2.20    2.70
   7   2 -18   -1.10    2.70
  -7   2  18   -2.30    2.30
  -7  -2  18   -1.20    2.30
   7  -3 -18    7.90    2.90
   7   3 -18    4.20    2.80
  -7  -3  18    7.70    2.40
   7  -4 -18    6.80    2.80
   7   4 -18    3.30    2.50
  -7  -4  18    2.50    2.40
   7  -5 -18   40.10    3.00
   7   5 -18   50.89    3.00
   7  -6 -18    2.80    2.60
  -7   6  18    8.50    3.10
  -7  -6  18    6.30    2.50
   7   6 -18    8.30    2.80
   7   7 -18   -2.80    3.00
  -7   7  18    1.70    2.80
   7  -7 -18   -0.40    2.70
   7   8 -18    0.40    3.00
  -7   8  18    0.40    2.70
   7  -8 -18   -3.00    2.40
   7   9 -18    0.80    3.00
  -7   9  18    1.80    2.60
   7  -9 -18    2.40    3.00
   7 -10 -18   35.80    3.50
  -7  10  18   32.00    3.50
   7  10 -18   34.90    3.10
   7 -11 -18    1.30    3.30
   7  11 -18    1.10    3.10
   7 -12 -18   23.70    3.70
  -7  12 -18   23.70    3.60
   7  12 -18   21.50    3.30
   7  13 -18   -0.90    3.10
  -7  13 -18   -1.30    3.40
  -7 -13  18   -4.10    3.30
  -7  14 -18    4.50    3.50
  -7 -14  18    0.80    3.40
   7  14 -18    0.90    3.30
  -7 -15  18   11.00    3.40
  -7  15 -18    7.60    4.10
   7 -15 -18    6.30    3.80
   7  15 -18    8.20    3.50
  -7  16 -18    3.80    4.50
   7  16 -18    3.00    3.80
   7 -16 -18    7.50    4.00
  -7 -16  18    3.10    3.70
  -7 -17  18   -0.80    3.80
  -8   0  18   23.10    2.60
   8   0 -18   24.40    2.90
  -8   1  18    0.10    2.20
  -8  -1  18   -0.20    2.10
   8  -1 -18    1.60    2.20
   8   1 -18    2.30    2.20
   8  -2 -18   -2.40    2.40
   8   2 -18   -1.00    2.20
  -8   2  18   -0.80    2.30
   8   3 -18   17.00    2.50
  -8  -3  18   19.10    2.50
   8  -3 -18   14.80    2.50
  -8   3  18   19.70    2.60
  -8  -4  18    2.70    2.30
   8   4 -18   -1.80    2.30
   8  -4 -18    1.70    3.00
   8   5 -18   12.60    2.60
   8  -5 -18    9.20    2.60
  -8  -6  18    1.60    2.40
   8   6 -18   -1.30    3.00
   8  -6 -18   -1.70    3.00
   8  -7 -18    8.10    3.00
   8   7 -18    5.70    3.00
  -8   7  18    8.90    2.90
   8  -8 -18   -4.20    2.90
   8   8 -18   -0.60    2.40
  -8   8  18    0.90    2.80
   8  -9 -18   30.50    3.20
   8   9 -18   21.20    2.80
  -8   9  18   29.90    3.30
   8 -10 -18   -1.60    3.10
   8  10 -18   -0.10    2.70
  -8  10  18    2.30    3.10
   8  11 -18   -0.10    3.10
   8 -11 -18    1.40    3.40
  -8  11  18    2.50    3.40
   8  12 -18   -4.80    3.00
   8 -12 -18   -2.50    3.80
   8  13 -18    6.70    3.10
  -8 -13  18   13.60    3.30
  -8  14 -18   -1.70    3.90
   8  14 -18    1.00    3.20
  -8 -14  18    2.20    3.20
   8 -15 -18    1.90    3.90
   8  15 -18    3.90    3.70
  -8 -15  18    2.80    3.40
  -8  15 -18    1.60    4.00
   8 -16 -18   -1.30    4.10
  -8 -16  18    1.10    3.30
  -8  16 -18   -1.00    4.30
   8  16 -18   -2.70    3.60
  -9  -1  18    3.10    2.30
   9   1 -18    1.10    2.30
   9  -1 -18    1.00    2.70
  -9  -2  18    0.90    2.30
   9  -2 -18   -1.10    2.60
   9   2 -18    2.20    2.30
  -9  -3  18    0.50    2.30
   9  -3 -18    2.80    3.00
   9   3 -18    2.50    2.40
  -9  -4  18    1.10    2.40
   9  -4 -18   10.60    2.90
   9   4 -18    1.60    2.30
  -9  -5  18    0.20    2.40
   9  -5 -18   -1.50    2.50
   9   5 -18    0.10    2.40
   9  -6 -18    2.00    2.50
   9   6 -18    3.00    2.40
  -9  -7  18   -0.80    2.40
   9  -7 -18   -2.10    2.40
   9   7 -18    3.70    2.40
  -9  -8  18    4.70    2.50
   9  -8 -18    2.30    2.30
   9   8 -18    1.20    3.00
  -9   8  18    1.60    2.80
   9  -9 -18   12.50    3.20
  -9   9  18   13.20    2.70
   9   9 -18   19.60    3.00
   9 -10 -18    6.80    3.00
  -9  10  18    2.30    3.30
   9  10 -18    3.20    2.90
  -9  11  18   10.90    3.50
   9  11 -18   18.10    3.20
   9 -11 -18    5.60    3.60
   9  12 -18    3.20    2.70
   9 -12 -18    6.90    3.50
  -9  12  18    6.20    3.40
   9  13 -18    1.80    3.20
  -9 -13  18   -0.70    3.10
  -9  14 -18    0.40    3.30
   9  14 -18    2.10    3.30
  -9 -14  18   -1.80    3.30
   9 -15 -18    3.90    3.80
   9  15 -18    3.90    3.70
  -9  15 -18    5.20    3.90
  -9 -15  18    1.00    3.40
  10   0 -18    2.30    2.70
 -10   1  18    1.50    2.40
 -10  -1  18   21.10    2.40
  10   1 -18    5.50    2.40
  10  -1 -18    6.30    2.80
 -10  -2  18   21.20    2.50
  10  -2 -18   22.20    2.90
  10   2 -18   23.90    2.80
 -10   2  18   21.20    2.70
 -10   3  18    0.20    2.30
  10  -3 -18    2.60    2.90
  10   3 -18    4.10    2.70
 -10  -4  18    1.10    2.30
  10  -4 -18    0.10    2.80
  10   4 -18    0.80    2.30
 -10  -5  18   30.90    2.60
  10  -5 -18   22.40    3.10
  10   5 -18   27.90    3.00
  10  -6 -18   -2.10    2.40
  10   6 -18    3.00    2.70
 -10  -7  18   11.80    2.50
  10  -7 -18    9.60    2.60
  10   7 -18    8.90    2.50
  10  -8 -18    7.60    2.50
  10   8 -18    6.20    2.80
  10   9 -18    0.30    3.10
  10  -9 -18   -2.40    3.10
 -10   9  18   -1.90    2.90
  10  10 -18    1.90    3.10
 -10  10  18    0.30    3.00
  10 -10 -18    0.60    3.00
  10  11 -18    0.00    3.20
 -10  11  18   -1.20    3.20
  10 -11 -18    0.60    3.20
  10 -12 -18   14.50    3.50
 -10  12  18   16.60    3.50
  10  12 -18   20.50    3.50
  10  13 -18    7.40    3.20
  10 -13 -18    5.00    3.40
 -10  13  18    3.40    3.40
  10  14 -18   -0.60    3.50
 -10 -14  18    1.20    3.10
 -10  15 -18   -0.70    3.90
 -10 -15  18   -3.20    3.30
  10  15 -18    0.40    3.80
  10 -15 -18    0.20    4.00
  11  -1 -18   -0.50    2.30
  11   1 -18   -1.60    2.70
 -11   2  18   -0.60    2.20
 -11  -2  18    2.40    2.30
  11  -2 -18    3.90    2.20
  11   2 -18    5.30    2.30
 -11   3  18    6.20    2.50
 -11  -3  18    2.90    2.50
  11  -3 -18    1.80    2.30
  11   3 -18    0.20    2.60
  11  -4 -18   -0.40    3.00
 -11  -4  18    6.60    2.50
  11   4 -18    3.30    2.80
 -11  -5  18    6.80    2.50
  11  -5 -18    4.20    2.50
  11   5 -18    7.70    2.80
  11   6 -18    0.70    2.50
  11  -6 -18   -1.70    2.80
  11  -7 -18    0.10    2.80
  11   7 -18    1.40    2.50
 -11  -8  18   -0.50    2.50
  11   8 -18   -1.90    3.00
  11  -8 -18    2.60    2.70
  11   9 -18    1.10    3.00
 -11   9  18   -4.10    3.10
  11  -9 -18    0.50    2.50
  11 -10 -18    7.60    3.20
  11  10 -18    8.80    2.60
 -11  10  18    5.20    3.00
  11 -11 -18    1.00    3.20
 -11  11  18    4.10    3.20
  11  11 -18    1.60    2.80
  11  12 -18    2.50    3.20
 -11  12  18    0.40    2.90
  11 -12 -18    4.10    3.30
  11  13 -18    2.60    3.60
  11 -13 -18   -1.00    3.50
 -11  13  18    0.70    3.40
 -11  14  18   -1.40    3.50
 -11 -14  18    1.50    3.10
  11  14 -18   -0.90    3.40
  12   0 -18    9.90    2.90
 -12   1  18    1.50    2.40
 -12  -1  18   -1.20    2.50
  12   1 -18   -1.00    2.50
  12  -1 -18   -1.20    2.80
  12  -2 -18    2.30    2.90
  12   2 -18    2.00    3.20
  12  -3 -18    5.00    2.90
  12   3 -18    5.60    2.50
  12   4 -18   25.30    2.70
  12  -4 -18   18.90    2.70
 -12   5  18    1.10    2.40
  12   5 -18    0.60    2.40
  12  -5 -18    5.80    3.10
  12  -6 -18   -2.00    3.00
  12   6 -18    2.20    2.50
  12  -7 -18   18.50    2.80
  12   7 -18   16.30    2.70
  12  -8 -18    1.10    2.90
  12   8 -18    3.10    3.00
  12  -9 -18   -1.60    3.20
  12   9 -18    2.40    2.60
 -12   9  18   -0.30    3.10
  12  10 -18    3.00    2.90
 -12  10  18   -1.80    2.90
  12 -10 -18   -1.60    3.00
 -12  11  18    2.00    3.40
  12  11 -18   14.00    3.70
  12 -11 -18    8.90    3.40
  12  12 -18   -2.60    3.70
  12 -12 -18   -0.50    3.60
 -12  12  18   -2.10    3.30
  12  13 -18   -3.10    3.70
 -12  13  18   -0.90    3.40
  12 -13 -18    1.70    3.50
  13   1 -18   -0.30    2.70
  13  -1 -18    0.60    2.40
  13  -2 -18    0.90    2.50
  13   2 -18    0.00    3.20
  13  -3 -18    2.00    2.50
  13   3 -18    4.80    2.50
  13  -4 -18    3.00    2.90
  13   4 -18    1.80    2.50
  13  -5 -18    4.10    2.60
  13   5 -18    3.10    2.50
 -13   6  18    0.60    2.60
 -13  -6  18   -3.90    2.50
  13  -6 -18    1.40    3.10
  13   6 -18   -2.50    2.50
  13  -7 -18   -1.50    3.10
  13  -8 -18    7.70    3.30
  13   8 -18    8.80    2.80
 -13  -9  18    0.40    2.60
  13   9 -18    1.70    2.90
  13  -9 -18   -0.50    3.10
  13 -10 -18    6.80    3.40
  13  10 -18    7.20    3.10
 -13  10  18    5.90    3.20
  13  11 -18    3.30    2.90
  13 -11 -18    1.40    3.30
 -13  11  18   -1.00    3.30
  13  12 -18    2.20    3.40
  13 -12 -18   -0.80    3.60
 -13  12  18   -1.10    3.40
 -14   0  18    9.00    2.70
  14   0 -18   10.40    2.60
  14  -1 -18    0.20    2.40
  14  -2 -18    4.30    2.60
  14   2 -18    1.30    3.30
  14  -3 -18    5.10    2.60
  14  -4 -18    4.10    2.80
  14   4 -18    0.70    3.00
  14  -5 -18    5.90    2.70
  14   5 -18    6.70    3.30
  14   6 -18   15.50    3.30
 -14  -6  18   13.50    2.70
  14  -6 -18   11.60    3.20
  14   7 -18   -2.20    3.10
  14  -7 -18    3.70    3.30
  14  -8 -18   -1.80    3.40
  14   8 -18    1.40    2.70
  14  -9 -18    3.40    3.30
  14   9 -18    6.10    2.70
  14  10 -18   -1.40    3.00
  14 -10 -18    2.70    3.60
 -14  10  18    0.40    3.50
  14  11 -18    2.00    3.30
  14 -11 -18   -1.50    3.40
 -14  11  18   -1.60    3.10
 -15  -1  18    2.50    2.60
  15  -1 -18    1.70    3.00
  15   2 -18    1.80    2.80
  15  -2 -18    5.80    3.00
  15   3 -18    4.40    2.70
  15  -4 -18    2.60    3.00
  15   4 -18   -1.70    3.00
  15  -5 -18    5.20    2.70
  15  -6 -18   -0.30    3.10
  15  -7 -18   -1.40    3.50
  15   8 -18    4.80    2.80
  15  -8 -18    5.10    3.60
  15   9 -18    0.30    3.40
  15  -9 -18   -0.20    3.40
 -15  10  18    1.20    2.80
  15 -10 -18    0.00    3.30
  16   0 -18   -3.20    3.10
  16   1 -18    1.00    3.00
  16  -1 -18   -1.20    3.10
  16  -2 -18   -0.90    3.20
  16  -3 -18    3.20    2.90
  16   3 -18    3.00    3.00
  16   5 -18   -2.30    3.20
  16  -5 -18    0.30    3.20
  16  -6 -18    2.20    3.20
  16   6 -18   -1.40    3.40
  16   7 -18   -3.30    3.50
  16  -7 -18   -1.80    3.30
  16   8 -18   -2.80    3.50
  16  -8 -18    1.10    3.40
  17   2 -18    4.30    3.40
  17  -3 -18    6.00    3.10
  17   4 -18   -2.60    3.20
  17  -5 -18    2.20    3.10
  18   0 -18    0.90    3.60
  18  -1 -18   -6.20    3.60
  18   1 -18    2.10    3.30
  18  -2 -18    2.00    3.30
  18   3 -18   -0.50    3.10
  -1   1 -19   96.79    3.30
  -1  -1 -19  105.99    3.70
   1  -1 -19   94.79    3.50
   1   1 -19  133.89    3.60
  -1   2 -19    7.30    2.30
  -1  -2 -19    5.50    2.30
   1  -2 -19    9.90    2.30
   1   2 -19    5.10    2.90
  -1   3 -19   13.80    2.90
  -1  -3 -19   17.00    2.90
   1  -3 -19   12.70    2.50
   1   3 -19   18.10    2.50
  -1  -4 -19   -2.60    2.70
  -1   4 -19    0.80    2.20
   1  -4 -19   -0.40    2.20
   1   4 -19    0.20    2.80
  -1  -5 -19   75.89    3.40
   1  -5 -19   69.49    3.30
  -1   5 -19   82.89    3.50
   1   5 -19   78.89    3.50
   1   6 -19   22.80    3.20
  -1  -6 -19   20.40    3.00
  -1   6 -19   23.40    3.10
   1  -6 -19   20.70    2.90
   1   7 -19   27.10    2.60
  -1  -7 -19   23.50    2.60
  -1   7 -19   23.40    2.80
   1  -7 -19   23.80    3.10
   1   8 -19    6.40    3.00
  -1  -8 -19    7.40    2.50
  -1   8 -19    4.80    2.90
   1  -8 -19    6.40    3.00
   1   9 -19   14.70    3.10
  -1  -9 -19   16.70    2.90
   1  -9 -19   11.50    2.90
  -1   9 -19   14.30    3.00
  -1  10 -19   11.20    3.10
   1  10 -19    9.80    3.00
  -1 -10 -19   11.30    2.90
   1 -10 -19    7.80    3.00
  -1  11 -19   26.60    3.90
   1  11 -19   28.20    3.30
  -1 -11 -19   25.80    3.20
   1 -11 -19   26.70    3.30
   1 -12 -19   11.70    3.50
  -1  12 -19   11.90    3.60
   1  12 -19   13.00    3.80
  -1 -12 -19   13.40    3.40
  -1  13 -19    0.70    3.10
   1  13 -19   -1.30    3.40
  -1  14 -19    0.60    3.40
   1  14 -19    3.20    3.30
   1  15 -19    8.50    3.70
  -1  15 -19    8.30    3.70
   1 -15 -19    7.80    3.60
  -1 -15 -19    9.50    3.60
  -1 -16 -19    2.40    3.70
   1 -16 -19    1.90    3.80
   1  16 -19    0.60    4.00
  -1  16 -19   -0.50    4.00
  -1 -17 -19    0.10    3.90
   1  17 -19   -0.10    4.50
  -1  17 -19   -0.90    4.40
   1 -17 -19    0.10    4.40
   2   0 -19   -0.10    2.20
   2  -1 -19   -2.30    2.60
   2   1 -19   -0.60    2.10
   2   2 -19    2.00    2.50
   2  -2 -19    5.10    2.30
   2   3 -19    0.50    2.70
  -2   3 -19   -1.20    2.20
   2  -3 -19   -2.00    2.20
   2   4 -19    7.80    2.30
  -2   4 -19    3.30    2.60
   2  -4 -19    6.40    2.30
   2   5 -19   53.79    2.90
  -2   5 -19   45.80    3.20
   2  -5 -19   52.99    3.00
   2   6 -19   18.00    2.50
  -2   6 -19   17.20    2.50
   2  -6 -19   19.00    3.00
   2   7 -19    9.20    3.00
   2  -7 -19    8.40    3.00
  -2   7 -19    8.90    3.10
   2  -8 -19    5.60    2.90
   2   8 -19    5.10    2.50
  -2   8 -19    7.60    2.90
   2  -9 -19   -0.70    2.80
   2   9 -19    1.70    2.90
  -2   9 -19    1.40    2.90
   2 -10 -19   -0.90    3.00
   2  10 -19    3.00    2.90
  -2 -10 -19    1.30    2.70
  -2  10 -19   -0.50    2.90
  -2  11 -19    5.60    3.30
   2 -11 -19    4.60    3.30
   2  11 -19    0.30    3.30
  -2 -11 -19    3.10    2.90
  -2  12 -19    9.20    3.30
   2 -12 -19    5.90    3.40
  -2 -12 -19    7.30    3.10
   2  12 -19    8.60    3.50
  -2  13 -19    4.10    3.50
  -2 -13 -19    3.20    3.30
   2  13 -19    5.10    3.40
   2  14 -19    7.10    3.70
  -2  14 -19    7.20    3.60
   2  15 -19    0.70    3.30
   2 -15 -19    3.50    3.50
  -2  15 -19    1.00    3.70
   2 -16 -19   -0.20    3.70
   2  16 -19   -3.30    4.00
  -2  16 -19    1.30    4.30
  -2 -16 -19    0.80    3.90
  -2  17 -19   -1.30    4.60
   2  17 -19    1.70    4.30
   2 -17 -19    0.10    4.10
  -2 -17 -19    3.80    3.80
   3  -1 -19   32.80    2.80
   3   1 -19   32.50    2.90
  -3   1  19   36.50    2.80
  -3  -1  19   34.70    2.70
   3  -2 -19    1.80    2.40
   3   2 -19    1.60    2.20
  -3  -2  19    2.40    2.30
   3  -3 -19   18.80    3.10
   3   3 -19   27.50    2.60
  -3  -3  19   34.90    2.70
   3  -4 -19   -1.50    2.60
   3   4 -19   -1.30    2.80
  -3  -4  19   -2.80    2.30
   3  -5 -19    1.10    2.40
   3   5 -19    3.90    2.80
  -3  -5  19    5.70    2.70
  -3   6 -19    9.80    3.00
   3  -6 -19    6.40    2.90
   3   6 -19    4.80    2.80
  -3  -6  19    4.20    2.80
   3  -7 -19   13.30    3.00
  -3  -7  19   10.40    3.00
   3   7 -19    5.10    3.10
  -3   7 -19   10.30    2.90
  -3  -8  19    3.70    3.00
   3  -8 -19    5.30    3.00
   3   8 -19    5.50    2.50
  -3   8 -19    5.60    2.80
   3  -9 -19   45.80    3.40
   3   9 -19   54.29    3.40
  -3   9 -19   51.79    3.20
   3  10 -19    1.10    2.90
   3 -10 -19    2.30    3.00
  -3  10 -19    0.40    3.00
   3 -11 -19   -2.00    3.20
  -3  11 -19   -2.60    3.50
   3  11 -19   -2.20    2.90
   3 -12 -19    0.10    3.40
   3  12 -19    2.70    3.40
  -3  12 -19    5.30    3.50
   3  13 -19   17.80    3.60
  -3  13 -19   11.30    3.80
  -3 -13 -19   16.50    3.60
  -3  14 -19   -1.10    3.50
   3  14 -19   -0.10    3.40
  -3  15 -19    0.30    3.80
   3  15 -19    4.50    3.50
   3 -15 -19    3.50    3.80
  -3  16 -19    0.10    4.30
  -3 -16 -19    2.20    3.70
   3 -16 -19    2.20    3.80
   3  16 -19   -1.80    4.00
   3 -17 -19    3.00    4.40
   3  17 -19    0.00    4.30
  -3 -17 -19    2.00    3.90
  -3  17 -19    1.40    4.90
   4   0 -19   -0.70    2.30
  -4   0  19    0.90    2.10
   4  -1 -19   28.50    2.60
   4   1 -19   29.60    2.70
  -4   1  19   30.00    3.10
   4  -2 -19    1.20    2.60
   4   2 -19    0.40    2.30
  -4  -2  19    0.60    2.70
  -4   2  19   -0.40    2.10
  -4   3  19   -1.60    2.30
   4  -3 -19   -0.80    2.40
   4   3 -19    0.30    2.10
   4  -4 -19   24.70    3.00
   4   4 -19   20.40    2.40
  -4   4  19   24.00    3.00
  -4  -4  19   23.60    2.90
   4  -5 -19   22.60    3.10
   4   5 -19   20.10    3.20
  -4  -5  19   25.00    3.20
   4  -6 -19   17.30    2.90
   4   6 -19   18.70    2.70
   4  -7 -19    2.10    2.40
   4   7 -19    3.50    2.80
  -4  -7  19    6.20    2.80
   4   8 -19    4.80    3.00
   4  -8 -19    5.10    2.50
  -4   8 -19    2.60    2.90
  -4  -8  19    4.20    3.10
  -4   9 -19    4.50    2.90
   4  -9 -19    5.70    2.90
  -4  -9  19    4.60    2.70
   4   9 -19    5.40    2.40
   4 -10 -19    3.10    2.80
   4  10 -19   -1.20    2.60
  -4  10 -19    0.30    3.00
  -4 -10  19   -1.00    2.80
  -4 -11  19    3.30    2.70
   4 -11 -19    1.60    3.30
  -4  11 -19   -0.40    3.50
   4  11 -19    2.70    2.80
   4  12 -19   16.60    3.40
   4 -12 -19   12.20    3.50
  -4  12 -19   12.20    3.60
   4  13 -19   -0.20    3.40
  -4  13 -19    1.00    3.20
  -4  14 -19    1.60    3.40
   4  14 -19    2.90    3.20
  -4  15 -19    2.30    4.10
   4  15 -19    2.60    3.20
   4 -15 -19   -0.10    3.60
   4 -16 -19   -0.90    4.20
   4  16 -19    2.00    4.00
  -4  16 -19    3.20    3.90
   4 -17 -19    1.50    4.40
  -4  17 -19   -0.50    4.80
  -4 -17 -19   -0.30    3.80
   4  17 -19   -1.10    4.20
   5  -1 -19    6.60    2.30
   5   1 -19    7.40    2.20
   5  -2 -19    2.80    2.70
   5   2 -19    2.60    2.30
   5  -3 -19    2.20    2.80
   5   3 -19   -1.70    2.20
   5  -4 -19    1.90    2.80
   5   4 -19    0.60    2.60
  -5   4  19   -2.80    2.40
   5  -5 -19   13.30    2.60
   5   5 -19   12.70    2.60
  -5   5  19   19.10    2.70
   5  -6 -19   24.80    3.10
  -5   6  19   22.00    2.80
   5   6 -19   28.80    2.70
  -5  -6  19   20.90    2.70
   5  -7 -19   36.80    3.40
   5   7 -19   52.19    3.00
   5   8 -19    1.40    2.50
   5  -8 -19    5.20    2.90
  -5  -8  19    5.60    3.00
   5  -9 -19   11.40    2.40
  -5  -9  19    9.10    2.90
   5   9 -19    9.50    2.90
   5 -10 -19    3.30    3.00
  -5  10 -19   -0.90    3.00
  -5 -10  19    3.50    2.60
   5  10 -19    2.50    2.30
   5  11 -19    8.50    3.00
   5 -11 -19    9.30    3.30
  -5  11 -19    7.70    3.50
  -5 -11  19    6.30    3.10
   5  12 -19    2.60    3.00
  -5  12 -19    3.20    3.50
  -5 -12  19    3.50    3.20
   5 -12 -19   -2.20    3.70
   5  13 -19    1.10    3.30
  -5 -13  19    4.00    3.50
  -5  13 -19    2.50    3.30
   5  14 -19    1.60    3.30
  -5  14 -19    0.80    3.30
   5  15 -19    2.80    3.40
  -5  15 -19    1.80    3.90
   5 -15 -19    4.20    3.90
   5  16 -19   -1.60    3.90
  -5  16 -19   -1.00    4.30
   5 -16 -19   -0.90    4.10
   5  17 -19    4.50    3.90
  -5  17 -19    5.60    5.00
   5 -17 -19    3.80    4.40
   6   0 -19    3.60    2.60
   6  -1 -19   26.80    2.70
   6   1 -19   30.90    2.70
  -6  -1  19   43.20    2.70
   6   2 -19   21.90    2.50
   6  -2 -19   19.00    2.50
  -6   3  19    3.40    2.30
   6  -3 -19    0.90    2.40
   6   3 -19    5.10    2.30
   6  -4 -19   30.40    2.80
   6   4 -19   31.60    2.70
   6  -5 -19    8.00    2.80
   6   5 -19    8.60    2.50
  -6   5  19   11.40    2.40
   6  -6 -19   11.70    2.60
  -6   6  19   12.30    2.60
   6   6 -19   16.00    3.00
  -6  -6  19   14.00    2.60
   6  -7 -19   17.70    3.00
  -6   7  19   12.30    3.00
   6   7 -19   18.40    3.00
  -6   8  19   15.30    3.00
   6  -8 -19   12.30    2.80
   6   8 -19   18.70    2.90
   6   9 -19    0.80    3.00
   6  -9 -19   -2.80    3.00
   6  10 -19   13.60    2.50
   6 -10 -19    8.00    3.00
   6  11 -19    0.80    3.10
  -6  11 -19   -0.60    3.30
  -6 -11  19   -1.00    3.10
   6 -11 -19    0.10    3.20
   6  12 -19   -4.70    3.20
  -6  12 -19    2.10    3.60
  -6 -12  19    0.40    2.90
   6 -12 -19   -1.40    3.70
  -6 -13  19   -1.20    3.10
   6  13 -19    2.10    3.40
  -6  13 -19    0.70    3.40
  -6 -14  19    0.80    3.30
  -6  14 -19    2.40    3.70
   6  14 -19    4.00    3.20
   6  15 -19   -0.10    3.40
   6 -15 -19   -0.10    4.00
  -6 -15  19    2.80    3.50
  -6  15 -19    1.20    3.70
  -6  16 -19   -0.20    4.30
   6 -16 -19   -0.30    3.80
   6  16 -19   -0.60    4.10
   7  -1 -19    5.00    2.30
   7   1 -19    4.30    2.20
  -7   1  19    1.20    2.40
   7   2 -19   15.10    2.80
  -7   2  19   15.90    2.60
  -7  -2  19   18.80    2.50
   7  -2 -19   13.20    2.90
   7  -3 -19   21.30    3.10
   7   3 -19   20.30    3.00
  -7  -3  19   23.60    2.60
   7  -4 -19    1.10    2.70
   7   4 -19    3.10    2.70
  -7  -4  19    0.70    2.30
   7  -5 -19   12.60    2.50
   7   5 -19   15.20    2.70
   7  -6 -19   11.30    2.70
  -7   6  19   15.40    3.10
   7   6 -19   17.10    3.30
   7   7 -19    6.40    2.80
   7  -7 -19    4.30    2.90
  -7   7  19    1.30    2.90
  -7   8  19   -3.40    2.80
   7   8 -19    8.90    2.40
   7  -8 -19   -0.40    2.70
   7   9 -19   19.80    2.90
  -7   9  19   13.70    3.10
   7  -9 -19   12.90    3.00
   7  10 -19    3.40    2.90
   7 -10 -19    4.20    3.30
   7 -11 -19   13.60    3.40
   7  11 -19    8.80    2.70
   7 -12 -19    0.20    3.50
  -7  12 -19    3.00    3.30
   7  12 -19   -0.30    3.20
  -7 -12  19   -1.50    3.20
  -7  13 -19    9.40    3.10
  -7 -13  19   10.40    3.30
   7  13 -19   12.90    3.30
  -7 -14  19   -1.20    3.20
   7  14 -19   -0.80    3.30
  -7  14 -19    0.80    3.50
   7  15 -19    1.20    3.70
   7 -15 -19    4.20    3.80
  -7 -15  19   -0.50    3.10
  -7  15 -19    1.80    3.90
  -7  16 -19    0.00    4.30
   7 -16 -19   -0.30    4.10
   7  16 -19   -1.00    3.60
  -7 -16  19    0.60    3.40
   8   0 -19   -0.80    2.60
  -8   0  19   -1.20    2.20
   8  -1 -19   51.09    2.70
   8   1 -19   46.90    2.70
  -8   1  19   47.10    3.10
   8  -2 -19    6.70    2.40
   8   2 -19    5.80    2.40
  -8   2  19    3.60    2.40
  -8  -3  19   10.50    2.30
   8  -3 -19   10.00    2.50
  -8   3  19   12.90    2.50
   8   3 -19    8.90    2.70
   8   4 -19    2.90    2.50
  -8  -4  19    8.00    2.50
   8  -4 -19    5.00    2.90
   8   5 -19    0.30    2.50
   8  -5 -19    0.90    2.80
   8   6 -19   23.00    3.10
  -8   6  19   17.20    2.60
   8  -6 -19   18.30    3.20
  -8  -6  19   21.80    2.60
   8   7 -19    9.60    2.50
  -8   7  19    6.60    2.50
   8  -7 -19   10.10    3.00
   8  -8 -19   21.20    3.10
   8   8 -19   24.10    2.60
  -8   8  19   17.50    3.20
   8  -9 -19   -0.30    2.80
   8   9 -19    1.80    2.70
  -8   9  19   -0.20    2.80
   8 -10 -19    3.20    3.20
   8  10 -19    2.40    2.30
  -8  10  19   -1.20    3.30
   8 -11 -19    7.30    3.50
  -8  11  19    6.10    3.40
   8  11 -19    7.50    3.00
   8 -12 -19    3.20    3.40
  -8 -12  19    3.00    3.10
   8  12 -19    6.20    3.10
   8  13 -19    2.60    3.20
  -8  13 -19    0.50    3.60
  -8 -13  19    3.10    3.10
  -8  14 -19    0.20    3.60
  -8 -14  19    1.10    3.20
   8  14 -19    2.50    3.30
   8  15 -19   -1.70    3.40
   8 -15 -19    1.70    3.80
  -8 -15  19    2.40    3.20
  -8  15 -19   -0.30    3.80
   8  16 -19    1.60    3.70
  -8 -16  19    0.40    3.70
   8 -16 -19   -0.70    4.40
  -9  -1  19    3.70    2.30
   9   1 -19    2.30    2.20
   9  -1 -19    3.70    2.70
   9  -2 -19   -1.20    2.30
  -9  -2  19   -3.40    2.20
   9   2 -19    1.70    2.20
  -9  -3  19    6.90    2.30
   9  -3 -19    9.40    2.80
   9   3 -19    5.40    2.70
  -9  -4  19    3.70    2.30
   9  -4 -19    2.30    2.90
   9   4 -19   -2.80    2.70
  -9  -5  19   21.00    2.60
   9  -5 -19   14.00    2.80
   9   5 -19   22.50    2.50
   9  -6 -19    0.30    2.80
   9   6 -19    2.20    2.40
  -9  -7  19   22.00    2.70
   9  -7 -19   17.20    3.20
   9   7 -19   23.20    3.10
  -9   7  19   22.40    2.70
   9  -8 -19    3.20    2.60
   9   8 -19    2.40    2.70
  -9   8  19    1.00    2.50
   9  -9 -19   20.00    2.80
   9   9 -19   26.80    2.80
  -9   9  19   19.90    3.30
   9 -10 -19    1.90    3.20
  -9  10  19    5.50    3.20
   9  10 -19    1.90    2.40
   9  11 -19    2.50    3.10
   9 -11 -19    3.90    3.40
  -9  11  19    6.10    3.40
   9  12 -19    0.40    3.20
  -9  12  19    2.80    3.40
   9 -12 -19    0.70    3.30
   9  13 -19    7.20    3.10
  -9 -13  19    6.20    3.20
   9 -13 -19   -1.70    3.30
   9  14 -19   -1.20    3.20
  -9  14 -19   -0.90    3.70
  -9 -14  19   -0.90    3.20
  -9  15 -19    5.30    4.00
   9 -15 -19    4.20    3.80
  -9 -15  19    3.20    3.50
   9  15 -19    1.50    3.30
  10   0 -19   -1.10    2.80
 -10   1  19   13.20    2.50
 -10  -1  19   12.90    2.40
  10  -1 -19    8.80    2.40
  10   1 -19   12.30    2.40
 -10   2  19    0.10    2.30
 -10  -2  19    0.00    2.30
  10  -2 -19    0.50    2.30
  10   2 -19   -0.10    2.70
 -10   3  19    0.30    2.30
  10  -3 -19    1.50    2.30
  10   3 -19    2.80    2.30
  10  -4 -19   14.20    3.20
  10   4 -19   14.20    2.40
 -10  -5  19   26.30    2.70
  10  -5 -19   18.40    2.60
  10   5 -19   19.40    2.60
  10   6 -19    3.70    3.00
  10  -6 -19    5.70    2.90
  10  -7 -19    3.20    2.80
  10   7 -19    3.70    2.50
  10  -8 -19   11.30    2.80
  10   8 -19   10.40    3.20
  10  -9 -19   -0.40    2.50
 -10   9  19    6.20    2.90
  10   9 -19    0.20    2.90
  10  10 -19    1.60    2.40
 -10  10  19    0.00    3.10
  10 -10 -19   -0.50    3.00
  10  11 -19   -0.40    2.60
  10 -11 -19    6.20    3.20
 -10  11  19    0.20    3.20
  10 -12 -19    0.40    3.20
 -10  12  19   -2.50    3.20
  10  12 -19    0.30    3.40
  10 -13 -19    3.20    3.50
  10  13 -19   -0.50    3.20
  10  14 -19    3.10    3.60
 -10 -14  19    2.90    3.40
 -10 -15  19    1.30    3.50
  11  -1 -19    6.30    2.40
  11   1 -19    5.80    3.00
 -11   2  19    5.20    2.40
 -11  -2  19    9.10    2.40
  11  -2 -19    5.80    2.40
  11   2 -19    4.40    2.50
 -11   3  19   53.39    3.10
 -11  -3  19   68.79    3.10
  11   3 -19   54.39    3.00
  11  -3 -19   50.49    3.00
 -11  -4  19    1.80    2.40
  11  -4 -19    1.70    2.80
  11   4 -19   -2.80    2.90
 -11  -5  19    6.70    2.40
  11   5 -19    6.40    2.90
  11  -5 -19    5.40    2.40
  11  -6 -19    0.90    3.00
  11   6 -19    4.10    2.80
 -11  -7  19   17.20    2.70
  11  -7 -19   12.10    3.00
  11   7 -19   13.50    2.70
  11   8 -19    2.80    3.00
  11  -8 -19   -2.80    2.80
  11   9 -19    2.90    2.60
 -11   9  19    2.50    3.00
  11  -9 -19    1.90    2.90
  11 -10 -19    3.00    3.20
  11  10 -19    1.80    2.50
 -11  10  19    3.20    2.90
  11 -11 -19    5.40    3.00
 -11  11  19    3.40    3.10
  11  11 -19    5.30    3.20
  11  12 -19   -1.20    2.90
  11 -12 -19    2.50    3.40
 -11  12  19    2.50    3.20
 -11  13  19    0.30    3.30
  11  13 -19    1.70    3.40
  11 -13 -19    1.30    3.40
  11  14 -19    2.00    3.70
 -11 -14  19   -1.20    3.50
 -12   0  19   -2.10    2.40
  12   0 -19   -1.00    2.90
  12  -1 -19   33.00    3.10
  12   1 -19   29.70    2.90
  12  -2 -19    0.00    2.70
  12   2 -19   -0.80    3.00
  12  -3 -19    8.40    3.00
  12   3 -19    7.00    2.50
  12  -4 -19    9.00    2.60
  12   4 -19   13.00    2.60
  12  -5 -19   -0.90    3.00
  12   5 -19   -1.60    2.90
  12   6 -19   -1.30    2.50
 -12  -6  19   -0.40    2.50
  12  -6 -19    0.30    2.60
  12   7 -19   14.30    2.70
  12  -7 -19    5.60    2.50
  12  -8 -19    2.20    2.60
  12   8 -19    2.50    3.00
  12  -9 -19    0.50    3.10
  12   9 -19    1.40    2.50
 -12   9  19   -1.50    2.90
  12 -10 -19    5.90    3.30
  12  10 -19    4.70    3.20
 -12  10  19    3.60    3.30
  12  11 -19    3.20    3.60
  12 -11 -19    2.70    3.40
 -12  11  19   -0.20    3.20
  12  12 -19    0.60    3.60
 -12  12  19    2.30    3.40
  12 -12 -19    3.70    3.50
  12 -13 -19   -1.40    3.60
  12  13 -19    0.10    3.60
 -12  13  19   -0.20    3.40
  13   1 -19   18.20    3.10
  13  -1 -19   22.90    3.00
  13  -2 -19    4.20    2.80
  13   2 -19    1.90    3.20
  13  -3 -19   -2.20    2.60
  13   3 -19    0.30    2.50
 -13   3  19    1.10    2.40
  13  -4 -19    3.20    2.50
  13   4 -19    3.10    2.50
  13  -5 -19   18.20    3.10
  13   5 -19   19.30    3.00
  13  -6 -19    4.40    2.90
  13   6 -19    7.30    2.90
  13  -7 -19    1.50    2.80
  13  -8 -19    0.80    3.10
  13   8 -19    1.30    2.70
  13   9 -19    2.00    3.20
  13  -9 -19    2.30    3.20
  13  10 -19    4.60    2.70
  13 -10 -19    3.50    2.90
 -13  10  19    0.80    3.40
  13 -11 -19    4.80    3.50
  13  11 -19    4.70    3.40
 -13  11  19   -1.60    3.50
  13  12 -19   -5.20    3.40
  13 -12 -19    2.90    3.60
 -13  12  19   -0.20    3.70
  14   0 -19   -1.50    2.60
  14  -1 -19    3.00    2.90
  14  -2 -19    0.70    2.80
  14   2 -19   -4.20    3.10
 -14   3  19    1.90    2.50
  14  -3 -19   -1.20    2.40
  14  -4 -19    8.00    2.70
  14   4 -19    8.80    3.00
  14   5 -19   -0.10    3.10
  14  -5 -19   -1.50    3.00
  14  -6 -19    2.20    3.20
  14   6 -19    4.60    3.00
  14   7 -19    1.00    3.10
  14  -7 -19    1.40    3.20
  14   8 -19   11.40    3.10
  14  -8 -19   11.10    3.40
  14  -9 -19    4.70    3.60
  14   9 -19   -3.10    2.80
  14  10 -19    3.90    3.40
  14 -10 -19    1.50    3.00
 -14  10  19    1.80    2.80
  14  11 -19    4.40    2.90
 -14  11  19   -2.10    3.40
  14 -11 -19    0.60    3.60
  15  -1 -19   -2.40    3.20
  15   2 -19    7.10    2.70
  15  -2 -19    0.70    2.90
  15  -3 -19    1.70    2.60
  15   3 -19    3.60    2.70
  15   4 -19   -1.10    3.00
  15  -4 -19    3.70    2.60
  15  -5 -19   -0.60    3.00
  15  -6 -19    0.80    3.10
  15  -7 -19   -0.80    3.20
  15  -8 -19   -0.10    3.30
  15   9 -19    4.80    3.50
  15  -9 -19    2.70    3.60
  15 -10 -19    7.10    3.40
 -15  10  19    0.10    3.40
  16   0 -19   -1.70    3.20
  16   1 -19    2.10    3.00
  16  -1 -19    0.80    3.10
  16  -2 -19    5.60    3.00
  16  -3 -19    1.20    2.90
  16   3 -19    1.10    3.20
  16  -5 -19    3.10    3.20
  16   5 -19    8.20    3.20
  16   6 -19    8.40    3.60
  16  -6 -19    7.10    3.10
  16   7 -19   -0.20    3.60
  16  -7 -19    2.40    2.90
  16   8 -19   -1.00    3.60
  16  -8 -19    5.00    3.10
  17   2 -19   -1.80    3.50
  17  -3 -19    5.20    3.20
  17  -4 -19    0.80    3.20
  17   4 -19    3.20    3.30
  17  -5 -19   -0.70    3.20
  18   0 -19   -1.80    3.60
  18   1 -19   -5.10    3.40
  18  -1 -19    0.10    3.60
  18  -2 -19    0.00    3.30
   0   0 -20    8.80    2.40
   0   1 -20    0.60    2.30
   0  -1 -20   -0.20    2.60
   0  -2 -20  297.67    4.90
   0   2 -20  353.06    5.60
   0  -3 -20   -3.60    2.30
   0   3 -20    1.00    2.70
   0  -4 -20   51.79    3.00
   0   4 -20   63.89    3.20
   0  -5 -20    2.40    2.40
   0   5 -20    0.40    2.30
   0  -6 -20  128.89    4.20
   0   6 -20  149.88    4.00
   0  -7 -20    0.50    2.80
   0   7 -20    1.00    2.90
   0   8 -20    2.60    2.80
   0  -8 -20    3.40    2.80
   0   9 -20    0.00    2.30
   0  -9 -20   -0.40    2.80
   0  10 -20   26.80    3.10
   0 -10 -20   20.30    3.00
   0  11 -20    2.10    3.10
   0 -11 -20    2.80    3.00
   0  12 -20   26.50    3.70
   0 -12 -20   25.80    3.60
   0  13 -20    0.70    3.10
   0 -13 -20    2.40    3.50
   0  14 -20    1.10    3.30
   0  15 -20   -3.90    3.70
   0  16 -20    5.90    4.10
   0 -16 -20    4.20    4.00
   0 -17 -20    3.90    3.90
   0  17 -20   -2.40    4.40
  -1  -1 -20    4.60    2.20
  -1   1 -20    9.40    2.30
   1  -1 -20    7.30    2.30
   1   1 -20    7.00    2.80
  -1  -2 -20   -3.50    2.80
   1  -2 -20   -1.30    2.80
  -1   2 -20    1.40    2.30
   1   2 -20    1.80    2.70
  -1   3 -20    0.40    2.30
  -1  -3 -20    1.60    2.80
   1  -3 -20    2.10    2.70
   1   3 -20    1.20    2.20
  -1  -4 -20    1.80    2.80
   1   4 -20    2.60    2.70
  -1   4 -20    3.70    2.30
   1  -4 -20    0.30    2.60
  -1  -5 -20    7.90    2.90
  -1   5 -20    7.40    2.90
   1  -5 -20    3.50    3.00
   1   5 -20   11.60    3.00
   1   6 -20   14.50    3.10
  -1  -6 -20   11.90    2.50
  -1   6 -20   12.70    2.40
   1  -6 -20   11.50    2.50
   1   7 -20   14.70    2.90
  -1  -7 -20   10.40    2.50
   1  -7 -20   14.90    2.60
  -1   7 -20   12.00    2.80
   1   8 -20   37.70    3.30
  -1  -8 -20   30.50    3.20
   1  -8 -20   31.30    3.20
  -1   8 -20   32.60    3.20
   1   9 -20    8.60    2.80
  -1  -9 -20    3.90    2.30
   1  -9 -20    5.50    2.40
  -1   9 -20    8.40    2.90
  -1  10 -20   27.00    3.50
   1  10 -20   27.20    3.10
  -1 -10 -20   26.20    3.10
   1 -10 -20   21.80    3.30
  -1  11 -20    7.70    3.20
   1  11 -20    6.90    3.30
  -1 -11 -20    4.30    2.90
   1 -11 -20    5.10    3.20
   1 -12 -20    9.60    3.50
  -1  12 -20    8.80    3.50
   1  12 -20   11.80    3.50
  -1 -12 -20    7.20    3.50
  -1  13 -20   21.40    3.50
   1  13 -20   21.80    3.90
  -1 -13 -20   23.00    3.60
  -1  14 -20   -1.10    3.30
   1  14 -20   -1.40    3.30
   1  15 -20    0.60    3.80
   1 -15 -20    1.80    3.60
  -1  15 -20    2.20    3.60
  -1 -16 -20    2.80    3.90
   1  16 -20    1.40    4.00
   1 -16 -20   -1.60    3.90
  -1  16 -20   -1.50    3.90
  -1 -17 -20    0.70    4.00
   1  17 -20    1.00    4.20
  -1  17 -20    2.10    4.30
   1 -17 -20    1.60    4.10
   2   0 -20    8.60    2.30
   2  -1 -20   36.00    3.00
   2   1 -20   38.80    2.60
   2   2 -20   -0.10    2.30
  -2   2 -20    0.40    2.70
   2  -2 -20   -1.20    2.20
   2   3 -20   80.09    3.60
   2  -3 -20   83.79    3.20
  -2   3 -20   85.39    3.10
   2   4 -20   71.29    3.30
  -2   4 -20   76.79    3.60
   2  -4 -20   77.09    3.10
   2   5 -20    4.90    2.80
  -2   5 -20    7.30    3.00
   2  -5 -20    4.30    2.50
   2   6 -20    1.70    2.90
  -2   6 -20    0.40    2.90
   2  -6 -20    3.80    2.80
   2   7 -20   12.30    2.50
  -2   7 -20   15.20    2.60
   2  -7 -20   13.00    3.00
   2  -8 -20   35.90    3.30
   2   8 -20   48.80    3.40
  -2   8 -20   40.80    3.40
   2  -9 -20    2.20    2.80
   2   9 -20    0.70    2.50
  -2  -9 -20   -0.60    2.70
  -2   9 -20   -1.00    2.80
   2 -10 -20   10.80    3.10
   2  10 -20   11.40    2.90
  -2 -10 -20   12.00    2.80
  -2  10 -20   14.10    3.10
  -2  11 -20    4.30    3.20
   2 -11 -20    6.50    3.30
  -2 -11 -20    5.60    3.00
   2  11 -20    6.70    3.00
  -2  12 -20    4.10    3.40
   2 -12 -20    6.00    3.70
  -2 -12 -20   12.30    3.10
   2  12 -20    8.30    3.50
  -2  13 -20    0.50    3.10
  -2 -13 -20    3.20    3.60
   2  13 -20   -0.30    3.40
  -2  14 -20    3.20    3.40
   2  14 -20    2.90    3.10
   2  15 -20    0.10    3.60
   2 -15 -20    1.80    3.60
  -2  15 -20    0.30    3.80
   2 -16 -20    0.30    3.90
   2  16 -20    4.30    4.00
  -2  16 -20   -1.60    4.10
  -2 -16 -20   -0.80    3.60
  -2  17 -20    0.30    4.50
   2  17 -20   -1.80    4.00
   2 -17 -20   -1.50    4.20
  -2 -17 -20   -3.30    3.90
   3  -1 -20    5.90    2.40
  -3  -1  20    3.30    2.20
   3   1 -20    4.10    2.60
   3  -2 -20    4.60    2.90
   3   2 -20   10.00    2.80
  -3  -2  20   14.80    2.80
   3  -3 -20    8.90    2.80
   3   3 -20   11.20    2.70
  -3  -3  20   11.60    2.90
   3  -4 -20   24.30    3.00
   3   4 -20   24.70    2.60
  -3  -4  20   29.20    3.00
   3  -5 -20    0.40    2.40
   3   5 -20    1.30    2.40
  -3   5 -20   -0.20    2.90
  -3  -5  20    1.00    2.80
   3  -6 -20    1.30    2.80
   3   6 -20    2.70    2.80
  -3   6 -20   -2.20    2.90
  -3  -6  20    3.10    2.40
   3  -7 -20   -2.70    2.50
   3   7 -20    2.30    2.50
  -3  -7  20    2.00    2.50
  -3   7 -20    1.70    2.40
   3  -8 -20   17.40    2.60
   3   8 -20   15.20    2.50
  -3   8 -20   13.70    2.90
   3  -9 -20    2.70    2.80
   3   9 -20   -0.10    2.80
  -3   9 -20    3.60    2.90
   3 -10 -20    0.50    2.80
   3  10 -20    1.40    2.90
  -3  10 -20   -1.10    3.00
   3 -11 -20   13.40    3.30
   3  11 -20   18.10    3.30
  -3  11 -20   16.50    3.50
   3 -12 -20    3.00    3.30
  -3 -12 -20   -0.90    3.10
   3  12 -20    3.90    3.20
  -3  12 -20    0.30    3.20
  -3  13 -20    1.60    3.20
  -3 -13 -20    5.40    3.50
   3  13 -20    1.60    3.50
   3  14 -20    0.40    3.30
  -3  14 -20    1.70    3.40
  -3 -14 -20    2.40    3.50
   3 -15 -20    8.70    3.70
  -3  15 -20    7.50    3.90
   3  15 -20   10.40    3.40
  -3  16 -20    0.30    4.20
   3 -16 -20    1.00    4.00
   3  16 -20   -1.00    3.90
   3  17 -20    2.90    3.90
  -3  17 -20    1.20    4.50
  -3 -17 -20   -1.00    3.60
   3 -17 -20    0.70    4.10
   4   0 -20   18.30    2.40
  -4   0  20   15.50    2.50
   4  -1 -20   21.80    2.40
   4   1 -20   20.40    2.80
  -4   1  20   23.00    2.60
  -4  -1  20   16.30    2.90
   4  -2 -20    4.30    2.30
   4   2 -20    1.80    2.60
  -4   2  20    4.90    2.40
  -4  -2  20    5.10    2.20
   4  -3 -20   45.60    2.70
   4   3 -20   47.40    2.80
  -4   3  20   42.50    3.20
   4  -4 -20   -1.00    2.40
   4   4 -20   -0.90    2.20
  -4   4  20    1.80    2.40
  -4  -4  20   -0.90    2.30
   4  -5 -20    0.10    2.40
   4   5 -20    2.20    2.80
  -4  -5  20    2.30    2.40
   4  -6 -20   46.40    3.20
   4   6 -20   57.69    3.40
   4  -7 -20    5.80    3.10
   4   7 -20   10.10    3.00
  -4   7 -20    9.20    2.60
  -4  -7  20    6.60    2.90
   4  -8 -20   35.60    3.10
   4   8 -20   29.70    3.10
  -4   8 -20   34.10    3.20
  -4  -8  20   34.40    3.20
  -4  -9  20    4.60    2.80
   4  -9 -20    4.70    2.80
   4   9 -20    2.60    2.70
  -4   9 -20   -0.40    2.90
  -4 -10  20   12.90    2.90
   4 -10 -20   13.00    3.10
   4  10 -20   12.10    3.00
  -4  10 -20   11.60    3.10
   4 -11 -20    0.20    3.10
  -4  11 -20    2.70    3.50
   4  11 -20    1.60    3.20
   4 -12 -20    7.20    3.30
  -4  12 -20    1.80    3.30
   4  12 -20    2.30    3.40
   4  13 -20    1.10    3.50
  -4  13 -20   -0.20    3.00
  -4  14 -20    3.80    3.50
   4  14 -20    4.70    3.50
  -4 -14 -20    3.80    3.30
   4  15 -20    1.30    3.70
  -4  15 -20    1.20    3.80
   4 -15 -20   -1.30    3.70
   4 -16 -20    0.70    4.20
   4  16 -20    0.00    3.90
  -4  16 -20    1.10    3.90
   4 -17 -20    1.20    4.20
   4  17 -20   -0.80    4.00
  -4  17 -20   -0.10    4.50
  -4 -17 -20    0.20    3.80
   5  -1 -20    3.30    2.70
   5   1 -20    3.70    2.60
  -5   1  20    2.10    2.30
   5  -2 -20    2.00    2.30
   5   2 -20    1.20    2.70
  -5   2  20    0.10    2.30
   5  -3 -20   12.90    2.40
   5   3 -20   14.30    2.80
  -5   3  20   13.90    2.50
  -5  -3  20   18.10    2.30
   5  -4 -20    4.90    2.50
   5   4 -20    4.20    2.40
  -5   4  20    6.00    2.50
  -5  -4  20    3.40    2.40
  -5   5  20   10.10    3.00
   5  -5 -20   13.20    3.00
   5   5 -20   13.50    3.10
   5   6 -20    7.90    2.50
  -5   6  20    8.00    3.00
   5  -6 -20    6.50    2.60
  -5  -6  20   12.90    3.10
   5  -7 -20    3.10    2.80
   5   7 -20    5.60    2.60
  -5  -7  20    4.70    2.80
  -5  -8  20    3.30    2.40
   5  -8 -20   -0.80    2.70
   5   8 -20   -1.70    2.40
   5  -9 -20   15.40    2.80
  -5   9 -20   12.60    3.00
  -5  -9  20   18.20    2.60
   5   9 -20   15.30    3.10
   5 -10 -20    5.00    2.80
  -5 -10  20   -1.90    2.80
   5  10 -20    1.00    2.40
  -5  10 -20    0.80    2.90
   5  11 -20    5.80    3.20
   5 -11 -20    6.10    3.20
  -5 -11  20    3.70    3.00
  -5  11 -20    4.20    3.50
   5  12 -20   -0.40    3.30
   5 -12 -20    2.30    3.40
  -5  12 -20    1.20    3.30
  -5 -12  20    1.20    3.20
   5  13 -20    9.50    3.70
  -5 -13  20    9.70    3.50
  -5  13 -20    8.80    3.20
   5  14 -20    0.20    3.20
  -5  14 -20    4.00    3.60
   5 -15 -20    3.70    3.90
  -5  15 -20   -0.40    4.10
   5  15 -20   -0.80    3.70
  -5  16 -20    2.00    4.10
   5 -16 -20   -1.70    3.90
   5  16 -20    4.20    4.40
  -5  17 -20   -0.60    4.80
   6   0 -20    5.70    2.20
   6  -1 -20    9.10    2.30
   6   1 -20    7.80    2.60
   6  -2 -20    6.50    2.30
   6   2 -20    8.30    2.30
   6   3 -20   34.80    2.60
   6  -3 -20   29.90    2.70
  -6   3  20   31.90    3.30
   6  -4 -20    0.60    2.40
   6   4 -20   -0.80    2.80
   6  -5 -20   19.50    3.10
   6   5 -20   18.30    2.70
  -6   5  20   20.70    3.10
   6  -6 -20   44.40    3.00
  -6   6  20   45.50    3.50
   6   6 -20   45.90    3.40
   6  -7 -20    9.10    2.50
  -6   7  20    9.20    3.00
   6   7 -20   12.80    2.90
  -6   8  20   -0.30    2.40
   6  -8 -20    4.40    2.40
  -6  -8  20   -4.80    3.00
   6   8 -20   -1.70    2.80
   6  -9 -20   -0.40    2.90
   6   9 -20    1.20    2.90
   6  10 -20   34.20    3.00
   6 -10 -20   28.70    3.40
  -6 -10  20   26.80    3.10
   6  11 -20    1.90    3.20
  -6  11 -20    0.50    3.60
  -6 -11  20    2.20    2.90
   6 -11 -20    1.10    3.10
   6  12 -20    5.40    2.90
  -6  12 -20    3.60    3.40
  -6 -12  20    5.90    3.10
   6 -12 -20    1.70    3.50
  -6 -13  20   -3.50    3.20
   6  13 -20   -0.30    3.10
  -6  13 -20    0.90    3.30
  -6 -14  20   -0.40    3.20
  -6  14 -20    1.20    3.20
   6  14 -20    2.30    3.30
   6  15 -20   -4.30    3.60
   6 -15 -20    0.30    3.70
  -6  15 -20    1.30    3.70
  -6  16 -20    2.20    4.30
   6 -16 -20   -2.00    4.00
   6  16 -20    1.10    3.70
   7  -1 -20   21.50    2.50
   7   1 -20   24.60    2.50
   7  -2 -20    5.20    2.80
   7   2 -20    4.20    2.60
  -7  -2  20    7.00    2.30
   7   3 -20   23.30    2.90
   7  -3 -20   19.30    3.10
  -7   3  20   32.50    2.70
  -7  -3  20   33.30    2.70
   7  -4 -20   11.50    2.60
   7   4 -20   14.10    2.50
  -7  -4  20   16.10    2.60
   7  -5 -20   38.80    3.20
   7   5 -20   44.10    2.90
  -7   6  20   26.80    2.80
   7  -6 -20   27.10    2.80
   7   6 -20   25.10    3.30
  -7   7  20    5.20    2.50
   7  -7 -20    6.50    2.80
   7   7 -20    4.00    2.50
   7   8 -20    2.10    2.40
   7  -8 -20    1.70    2.70
  -7   8  20   -5.70    2.70
   7   9 -20   14.90    2.50
  -7   9  20    9.80    2.80
   7  -9 -20    9.90    2.50
   7  10 -20   -1.60    2.80
   7 -10 -20    2.00    3.20
   7  11 -20    2.40    2.90
  -7 -11  20    2.30    3.20
   7 -11 -20    3.80    3.20
   7 -12 -20    2.20    3.40
   7  12 -20    2.60    3.20
  -7  12 -20   -2.10    3.40
   7 -13 -20    1.20    3.20
  -7  13 -20   -2.30    3.20
  -7 -13  20   -1.60    2.90
   7  13 -20    1.10    3.20
   7  14 -20    2.50    3.30
  -7 -14  20    0.50    3.30
  -7  14 -20    0.60    3.90
   7  15 -20   -0.40    3.40
   7 -15 -20    2.70    3.80
  -7 -15  20   -0.70    3.30
  -7  15 -20    0.90    3.90
  -7  16 -20    1.10    4.20
   7 -16 -20    0.60    4.10
  -7 -16  20    3.50    3.60
   8   0 -20    4.30    2.70
  -8   0  20    2.70    2.30
   8  -1 -20   -0.20    2.20
   8   1 -20    1.80    2.20
  -8   1  20    0.50    2.30
   8  -2 -20    7.30    2.40
   8   2 -20    8.90    2.40
   8  -3 -20    3.50    2.40
  -8   3  20    3.60    2.40
   8   3 -20    3.00    2.30
  -8  -3  20    0.10    2.40
  -8  -4  20   26.20    2.70
   8  -4 -20   24.90    3.00
   8   4 -20   20.10    2.60
   8   5 -20   -1.20    2.40
   8  -5 -20   -0.30    2.50
   8   6 -20    9.70    3.00
   8  -6 -20    6.60    3.00
   8   7 -20   16.20    2.50
  -8   7  20   15.40    3.10
   8  -7 -20   14.10    2.90
   8   8 -20   11.50    2.90
  -8   8  20   16.10    2.80
   8  -8 -20    7.50    2.90
   8  -9 -20    0.70    3.10
   8   9 -20    4.70    2.80
  -8   9  20    3.10    3.00
   8 -10 -20    9.60    3.30
   8  10 -20   10.00    3.00
  -8  10  20    7.90    2.70
   8 -11 -20    3.40    3.00
   8  11 -20    0.70    2.50
  -8 -11  20    5.30    3.00
   8  12 -20    0.30    3.10
   8 -12 -20    0.00    3.40
  -8 -12  20    0.40    2.90
   8  13 -20    2.80    3.00
   8 -13 -20    0.80    3.20
  -8  13 -20    5.00    3.40
  -8 -13  20    4.40    2.90
   8  14 -20    3.50    3.50
  -8  14 -20    4.20    3.70
  -8 -14  20    1.60    3.00
   8 -15 -20    0.90    3.80
  -8 -15  20   -0.80    3.50
  -8  15 -20   -1.30    3.70
   8  15 -20    1.20    3.60
  -9  -1  20  148.09    3.50
   9   1 -20  144.69    3.60
   9  -1 -20  124.69    3.60
   9   2 -20    3.80    2.30
   9  -2 -20    6.00    2.40
   9  -3 -20   33.60    3.00
   9   3 -20   36.20    3.00
   9  -4 -20    0.60    2.90
   9   4 -20   -3.90    2.80
  -9  -5  20    6.20    2.40
   9  -5 -20   13.50    2.50
   9   5 -20   14.70    2.30
   9  -6 -20    9.90    2.90
   9   6 -20    9.10    2.50
   9  -7 -20    4.40    2.80
   9   7 -20   -2.70    3.00
  -9   7  20    0.90    2.80
   9  -8 -20    2.60    2.80
   9   8 -20   -1.70    2.40
  -9   8  20   -0.90    2.70
   9  -9 -20    0.50    2.80
   9   9 -20    0.90    2.60
  -9   9  20   -3.00    2.80
   9 -10 -20    4.60    3.10
  -9  10  20    7.50    2.90
   9  10 -20    6.40    2.50
   9 -11 -20    4.20    3.30
   9  11 -20    5.90    2.60
  -9  11  20   10.40    3.30
   9  12 -20    0.80    3.20
   9 -12 -20   -1.50    3.30
  -9 -12  20   -2.90    3.20
   9  13 -20    3.30    3.20
  -9 -13  20    2.10    2.70
   9 -13 -20    4.30    3.30
  -9  14 -20    4.10    3.90
  -9 -14  20    2.60    3.20
   9  14 -20    1.00    3.40
   9  15 -20    0.20    3.90
  -9  15 -20   -2.30    3.70
  -9 -15  20   -3.00    3.70
  10   0 -20   17.60    3.00
 -10   1  20   -3.80    2.30
 -10  -1  20   -1.50    2.20
  10  -1 -20   -0.30    2.30
  10   1 -20    0.70    2.40
 -10   2  20   -1.00    2.20
  10  -2 -20    2.80    2.20
  10   2 -20   -1.80    2.90
  10  -3 -20   12.30    2.40
  10   3 -20   16.30    2.60
 -10   3  20   16.50    2.50
  10  -4 -20   77.89    3.80
  10   4 -20   96.09    3.30
  10  -5 -20   12.30    2.50
  10   5 -20   15.40    2.50
  10  -6 -20    6.50    2.90
  10   6 -20    6.00    2.80
  10  -7 -20   28.70    3.10
  10   7 -20   27.70    2.80
  10  -8 -20   14.80    3.00
  10   8 -20   21.50    3.10
  10  -9 -20    0.80    2.90
 -10   9  20    1.50    3.10
  10   9 -20    0.90    2.60
 -10  10  20    2.90    2.80
  10 -10 -20   -1.60    3.20
  10  10 -20    0.10    2.50
  10  11 -20    1.90    2.80
 -10  11  20    1.80    3.10
  10 -11 -20   -3.40    3.00
 -10  12  20    4.10    3.20
  10  12 -20    2.90    2.70
  10 -12 -20    1.40    3.20
  10 -13 -20    0.60    3.30
  10  13 -20    4.00    3.50
  10  14 -20    3.20    3.30
 -10 -14  20   -1.10    3.40
 -11  -1  20    3.50    2.50
  11  -1 -20    6.70    2.50
  11   1 -20    6.40    3.20
 -11   2  20    3.50    2.50
 -11  -2  20    0.60    2.60
  11  -2 -20    0.20    2.40
  11   2 -20    0.40    2.50
 -11   3  20   20.30    2.80
  11  -3 -20   24.00    2.70
  11   3 -20   23.30    3.00
  11  -4 -20    0.30    2.40
  11   4 -20   -0.90    2.90
  11   5 -20    0.80    2.90
 -11  -5  20   -1.10    2.30
  11  -5 -20   -3.70    2.70
  11  -6 -20   16.90    3.00
  11   6 -20   17.90    2.90
  11  -7 -20   -1.20    2.90
  11   7 -20    2.80    2.60
  11  -8 -20   -0.80    2.80
  11   8 -20    2.60    3.00
  11   9 -20    0.20    2.60
 -11   9  20    2.70    2.50
  11  -9 -20    0.50    3.10
  11  10 -20   -0.30    2.80
 -11  10  20   -3.00    3.10
  11 -10 -20    3.90    2.60
  11 -11 -20    3.50    3.30
  11  11 -20    0.20    3.40
 -11  11  20    2.70    3.00
  11 -12 -20   -0.10    3.40
 -11  12  20   -1.80    3.40
  11  12 -20    0.70    3.30
  11  13 -20    0.70    3.00
 -11  13  20    0.60    3.40
  11 -13 -20    2.30    3.40
  11 -14 -20   -0.20    3.60
 -12   0  20    3.00    2.30
  12   0 -20    3.20    2.90
  12  -1 -20    3.90    2.80
  12   1 -20    8.70    2.70
  12  -2 -20   35.70    2.70
  12   2 -20   31.20    3.00
  12  -3 -20    0.00    2.90
  12   3 -20   -0.80    2.50
  12   4 -20    3.10    2.70
  12  -4 -20    2.10    2.80
  12  -5 -20    7.30    2.60
  12   5 -20   13.40    2.90
  12  -6 -20    7.90    2.70
  12   6 -20    8.60    2.90
  12   7 -20    0.50    2.50
  12  -7 -20   -2.00    2.80
  12   8 -20   -1.30    3.10
  12  -8 -20    1.30    3.00
  12  -9 -20    2.10    2.70
  12   9 -20   -1.30    2.90
 -12   9  20    0.60    3.00
  12  10 -20   -0.50    3.10
  12 -10 -20    2.80    3.30
 -12  10  20   -0.50    3.00
  12  11 -20    0.60    3.30
  12 -11 -20    2.10    3.10
 -12  11  20   -1.50    3.20
  12  12 -20    6.00    3.40
 -12  12  20   -1.00    3.30
  12 -12 -20   -2.20    3.30
  12 -13 -20   -0.70    3.80
  13   1 -20    0.40    2.70
  13  -1 -20   -2.10    2.90
  13   2 -20    4.50    3.10
 -13   2  20    6.40    2.60
 -13  -2  20    5.20    2.70
  13  -2 -20    4.90    3.10
 -13  -3  20   -1.00    2.60
  13  -3 -20    4.50    2.50
  13   4 -20    3.30    2.60
 -13  -4  20    7.70    2.50
  13  -4 -20    4.40    2.50
  13  -5 -20    3.20    3.10
  13   5 -20    4.80    2.80
  13  -6 -20    6.60    2.60
  13   6 -20    6.20    3.20
  13  -7 -20    2.30    2.60
  13   7 -20    2.80    2.80
  13  -8 -20    1.40    2.80
  13   8 -20    0.70    2.70
  13  -9 -20    6.30    3.20
  13   9 -20    4.30    3.20
  13  10 -20   -1.70    2.60
  13 -10 -20    0.10    3.30
 -13  10  20    0.30    3.30
  13  11 -20    0.00    3.20
 -13  11  20   -0.70    3.20
  13 -11 -20    0.90    3.50
  13 -12 -20   -3.00    3.70
  14   0 -20   12.40    2.70
  14  -1 -20   15.60    3.00
 -14  -2  20   -4.00    2.70
  14  -2 -20   -1.10    2.80
  14   2 -20   -0.10    3.00
  14  -3 -20    4.90    2.60
 -14  -4  20   -1.70    2.70
  14  -4 -20    1.80    2.70
  14   4 -20    1.60    3.00
  14  -5 -20    5.10    3.10
  14   5 -20    3.60    3.00
  14  -6 -20   -1.20    2.90
  14   6 -20   -0.30    2.90
  14  -7 -20    0.50    2.80
  14   7 -20    6.90    3.10
  14   8 -20   -3.70    3.00
  14  -8 -20   -0.10    3.30
  14  -9 -20    1.50    3.60
  14 -10 -20    1.20    3.30
  14  10 -20   -4.40    3.50
 -14  10  20    0.40    3.40
  15   1 -20    2.50    2.60
  15  -1 -20    5.70    3.30
  15  -2 -20    3.40    3.00
  15   2 -20    0.40    2.70
  15  -3 -20    2.80    2.50
  15   3 -20    1.20    3.00
  15  -4 -20    3.10    2.60
  15   4 -20    0.90    3.10
  15  -5 -20    4.90    3.00
  15  -6 -20   -1.80    2.90
  15  -7 -20    3.40    2.70
  15  -8 -20    0.40    2.90
  15   9 -20    0.30    3.50
  15  -9 -20    0.20    3.30
  16   0 -20    4.00    3.20
  16   1 -20    4.30    3.10
  16  -1 -20    3.90    3.10
  16  -2 -20    7.00    3.10
  16  -3 -20   -3.00    3.00
  16   3 -20    0.90    3.20
  16  -5 -20    8.10    3.30
  16   5 -20    5.90    3.40
  16  -6 -20   11.10    2.80
  16   6 -20    4.40    3.60
  16   7 -20   16.00    3.70
  16  -7 -20   11.40    3.00
  17   2 -20   -4.20    3.40
  17  -3 -20    4.20    3.30
  17   4 -20   -5.30    3.60
  17  -4 -20   -1.90    3.20
  17  -5 -20    0.80    3.20
  -1  -1 -21   36.80    2.60
   1   1 -21   38.90    2.70
  -1   1 -21   32.00    3.10
   1  -1 -21   33.40    3.00
  -1  -2 -21   -2.00    2.70
  -1   2 -21    4.80    2.60
   1  -2 -21    4.30    2.30
   1   2 -21    2.20    2.20
  -1  -3 -21   22.80    2.80
  -1   3 -21   22.50    2.60
   1  -3 -21   19.90    2.50
   1   3 -21   25.00    2.50
  -1   4 -21    0.90    2.80
  -1  -4 -21    1.20    2.70
   1  -4 -21    3.30    2.20
   1   4 -21    0.80    2.60
  -1  -5 -21    1.10    2.90
  -1   5 -21   -2.10    2.70
   1  -5 -21   -1.00    2.30
   1   5 -21    4.50    2.90
   1   6 -21   -1.90    2.90
  -1  -6 -21   -1.60    2.30
  -1   6 -21    0.10    2.80
   1  -6 -21   -3.40    2.90
   1   7 -21    9.90    3.10
  -1  -7 -21   11.60    3.00
   1  -7 -21    8.40    2.50
  -1   7 -21    8.10    3.00
   1   8 -21   24.10    2.70
  -1  -8 -21   23.00    3.10
   1  -8 -21   22.20    2.70
  -1   8 -21   24.80    2.60
   1   9 -21    1.30    2.80
  -1  -9 -21    1.20    2.70
   1  -9 -21   -0.30    2.80
  -1   9 -21    0.80    2.70
  -1  10 -21   31.00    3.20
   1  10 -21   29.20    3.30
  -1 -10 -21   24.60    3.10
   1 -10 -21   27.10    3.20
  -1  11 -21    7.30    3.30
   1  11 -21    6.50    3.30
  -1 -11 -21    9.40    3.10
   1 -11 -21    8.20    3.30
   1 -12 -21    6.70    3.40
  -1  12 -21   10.10    3.60
   1  12 -21   10.30    3.50
  -1 -12 -21    5.80    3.30
   1 -13 -21    1.50    3.30
  -1  13 -21   -1.60    3.60
   1  13 -21   -2.20    3.70
  -1 -13 -21   -1.30    3.40
  -1  14 -21    3.60    3.30
   1  14 -21    1.60    3.60
  -1  15 -21    1.90    3.90
   1  15 -21    1.50    3.40
  -1 -16 -21    1.00    3.80
   1  16 -21   -0.70    3.80
   1 -16 -21    2.80    3.80
  -1  16 -21    4.30    4.20
  -1 -17 -21    1.50    4.00
  -1  17 -21   -1.30    4.40
   1 -17 -21    0.60    3.80
   1  17 -21    0.60    4.00
  -2   0 -21   -0.10    2.10
   2   0 -21   -0.40    2.10
  -2   1 -21    4.20    2.70
   2  -1 -21    3.90    2.50
   2   1 -21    1.70    2.30
   2   2 -21    2.20    2.10
  -2   2 -21   -1.00    2.70
   2  -2 -21    1.70    2.20
   2   3 -21    3.80    2.60
  -2   3 -21    3.10    2.40
   2  -3 -21    4.20    2.40
   2   4 -21    1.40    2.20
  -2   4 -21    1.30    2.90
   2  -4 -21   -0.60    2.30
   2   5 -21    6.80    2.90
  -2   5 -21    6.70    3.00
   2  -5 -21    1.60    2.80
   2   6 -21    3.50    2.90
  -2   6 -21   -0.40    2.90
   2  -6 -21    2.30    2.30
   2   7 -21    2.50    3.00
  -2  -7 -21    2.40    2.50
  -2   7 -21    0.60    3.00
   2  -7 -21    5.60    3.00
   2  -8 -21    6.40    3.00
   2   8 -21    7.80    2.40
  -2  -8 -21    4.30    2.90
  -2   8 -21    6.80    2.80
   2  -9 -21    2.20    2.80
   2   9 -21    2.80    2.80
  -2  -9 -21    2.70    2.70
  -2   9 -21    1.10    2.30
   2 -10 -21    6.80    2.80
  -2 -10 -21    8.40    2.70
   2  10 -21    5.50    3.00
  -2  10 -21    6.10    2.90
  -2  11 -21    0.00    3.20
   2 -11 -21    0.10    3.00
   2  11 -21   -1.40    3.20
  -2 -11 -21    0.70    3.10
  -2  12 -21   -3.80    3.70
   2 -12 -21    5.60    3.60
   2  12 -21    3.60    3.30
  -2 -12 -21    1.70    3.30
  -2  13 -21    0.20    3.10
   2  13 -21   -0.10    3.70
   2 -13 -21   -0.10    3.20
  -2 -13 -21   -2.60    3.50
  -2  14 -21    2.10    3.30
  -2 -14 -21   -0.20    3.30
   2  14 -21    1.10    3.60
   2  15 -21    3.00    3.40
  -2  15 -21    0.60    3.60
   2  16 -21   -0.30    3.90
   2 -16 -21    2.10    3.90
  -2  16 -21    2.80    4.00
   2  17 -21   -2.30    4.10
  -2  17 -21    1.00    4.40
   2 -17 -21    1.70    3.90
  -2 -17 -21   -1.40    3.50
   3  -1 -21    1.20    2.20
   3   1 -21    0.10    2.10
   3  -2 -21    2.10    2.70
   3   2 -21    2.70    2.30
  -3  -2  21   -0.30    2.30
   3  -3 -21   -0.10    2.70
   3   3 -21    3.20    2.80
  -3  -3  21    2.50    2.30
   3  -4 -21    5.10    2.80
  -3  -4  21    0.30    2.30
   3   4 -21   -0.10    2.30
  -3   4 -21   -1.20    2.40
   3  -5 -21    2.40    2.70
  -3  -5  21    2.00    2.30
   3   5 -21    1.20    2.90
  -3   5 -21    4.60    2.90
   3  -6 -21    6.50    2.40
   3   6 -21    5.60    2.70
  -3   6 -21    3.70    3.00
   3  -7 -21   15.80    2.60
   3   7 -21   15.20    3.00
  -3   7 -21   12.80    3.00
   3  -8 -21    0.40    2.30
  -3   8 -21    6.40    2.80
   3   8 -21    1.40    2.90
   3  -9 -21   10.10    2.70
   3   9 -21   11.30    2.50
  -3   9 -21   13.30    2.80
   3 -10 -21    0.50    3.00
   3  10 -21    3.40    2.80
  -3  10 -21    1.00    2.90
   3 -11 -21   38.30    3.60
   3  11 -21   36.40    3.70
  -3  11 -21   34.50    3.60
   3 -12 -21    4.20    3.30
  -3 -12 -21    2.20    3.30
   3  12 -21    2.20    3.30
  -3  12 -21    2.80    3.40
  -3  13 -21    0.90    3.10
   3 -13 -21   -0.20    3.10
  -3 -13 -21   -4.70    3.50
   3  13 -21    0.80    3.40
   3  14 -21   -2.10    3.50
  -3  14 -21    1.90    3.40
  -3 -14 -21   -2.10    3.30
  -3  15 -21    5.40    4.10
   3  15 -21    6.20    3.80
   3 -15 -21    3.00    3.60
  -3  16 -21   -1.20    4.10
   3  16 -21    1.60    3.80
   3 -16 -21   -0.20    3.80
   3  17 -21    0.20    4.20
  -3 -17 -21    3.30    3.60
   3 -17 -21    1.80    4.10
   4   0 -21    2.40    2.60
  -4   0  21    1.00    2.20
   4  -1 -21   -2.10    2.30
   4   1 -21   -1.30    2.20
  -4   1  21    0.10    2.70
  -4  -1  21   -2.30    2.20
   4  -2 -21   -1.60    2.60
   4   2 -21    0.80    2.20
  -4   2  21   -4.40    2.70
  -4  -2  21   -1.90    2.30
  -4   3  21   -0.10    2.30
   4  -3 -21   -1.50    2.70
   4   3 -21    0.20    2.60
  -4  -3  21    0.60    2.70
   4  -4 -21   14.90    3.00
   4   4 -21    9.50    2.80
  -4  -4  21    9.60    3.00
   4  -5 -21   15.10    2.60
   4   5 -21   16.40    2.60
  -4  -5  21   14.20    2.60
   4  -6 -21    7.20    3.00
   4   6 -21    8.20    2.50
  -4  -6  21    3.40    2.50
   4  -7 -21   13.10    2.60
   4   7 -21   15.10    2.70
  -4   7 -21   21.50    2.90
  -4  -7  21   16.30    3.00
   4  -8 -21    7.40    2.70
   4   8 -21    6.90    2.40
  -4  -8  21    7.10    2.90
  -4   8 -21    4.10    2.80
   4  -9 -21   11.50    2.90
   4   9 -21   13.60    2.90
  -4   9 -21   10.10    3.00
  -4  -9  21   11.00    2.90
   4 -10 -21    1.80    2.80
  -4 -10  21    2.50    2.30
   4  10 -21   -1.00    2.80
  -4  10 -21    2.80    3.00
   4 -11 -21    5.30    3.30
  -4  11 -21    4.50    3.30
   4  11 -21    3.80    3.20
   4 -12 -21    1.80    3.40
  -4  12 -21    3.20    3.30
   4  12 -21    1.50    3.20
   4  13 -21    3.70    3.60
   4 -13 -21    1.00    3.50
  -4  13 -21    3.40    3.10
  -4  14 -21    0.20    3.30
   4  14 -21   -1.00    3.20
  -4 -14 -21    1.40    3.20
  -4 -15 -21    2.90    3.50
  -4  15 -21   -2.00    3.70
   4  15 -21   -2.40    3.50
   4 -15 -21    1.60    3.90
  -4  16 -21   -0.20    3.90
   4  16 -21    2.00    3.70
   4 -16 -21    0.70    3.80
   5  -1 -21    3.40    2.30
   5   1 -21    3.70    2.20
  -5   1  21    3.80    2.70
  -5  -1  21    0.90    2.20
   5  -2 -21   23.90    2.90
   5   2 -21   24.60    2.50
  -5  -2  21   27.30    2.60
  -5   2  21   24.60    3.00
   5  -3 -21    3.10    2.80
   5   3 -21    6.10    2.30
  -5   3  21    1.30    2.40
  -5  -3  21    3.80    2.70
   5  -4 -21    2.80    2.70
   5   4 -21    2.40    2.30
  -5   4  21    1.60    2.40
  -5  -4  21    2.20    2.70
   5  -5 -21   15.20    2.60
   5   5 -21   16.30    2.70
  -5   5  21   14.50    2.60
  -5  -5  21   13.90    2.70
   5   6 -21    7.20    3.00
   5  -6 -21    7.90    3.00
  -5  -6  21    5.50    2.50
   5  -7 -21    3.20    2.70
   5   7 -21    1.20    2.40
  -5  -7  21    3.30    2.50
   5  -8 -21    4.50    2.70
   5   8 -21    1.60    2.80
  -5  -8  21    4.60    3.00
  -5   9 -21    2.70    3.00
   5  -9 -21    8.90    2.90
  -5  -9  21    5.60    3.10
   5   9 -21   10.70    3.00
   5 -10 -21    2.50    3.00
  -5 -10  21    1.10    2.40
  -5  10 -21    0.80    3.40
   5  10 -21    3.10    2.40
   5 -11 -21    4.60    3.30
  -5 -11  21    4.90    3.20
  -5  11 -21    8.20    3.40
   5  11 -21    4.10    3.10
   5  12 -21    1.70    3.20
  -5 -12  21   -0.50    2.80
   5 -12 -21   -0.40    3.40
  -5  12 -21    0.30    3.40
   5  13 -21    2.10    3.30
   5 -13 -21    0.10    3.20
  -5  13 -21    1.20    3.60
   5  14 -21    1.60    3.20
  -5  14 -21    1.80    3.30
  -5  15 -21    2.20    4.00
   5  15 -21    0.80    3.40
   5 -15 -21   -0.60    3.60
   5  16 -21   -0.40    3.70
   5 -16 -21    2.50    3.90
  -5  16 -21    3.20    4.20
  -5 -16 -21   -1.30    3.70
   6   0 -21    2.10    2.20
   6  -1 -21    2.80    2.60
   6   1 -21   -0.60    2.20
  -6   1  21    0.10    2.20
   6  -2 -21    1.00    2.60
   6   2 -21    0.60    2.70
  -6   2  21   -0.70    2.40
   6   3 -21    1.40    2.70
   6  -3 -21    5.50    2.70
  -6   3  21    1.90    2.40
   6   4 -21    7.50    2.80
   6  -4 -21    6.20    3.10
  -6   4  21    6.00    3.10
   6  -5 -21    5.10    2.50
  -6   5  21    7.60    2.60
   6   5 -21    3.00    2.60
   6  -6 -21    5.70    3.00
  -6   6  21    6.00    2.40
   6   6 -21    6.90    3.10
  -6   7  21   11.80    2.50
   6  -7 -21   14.60    3.00
   6   7 -21   19.40    3.10
   6  -8 -21    0.90    2.60
  -6  -8  21    3.20    2.30
   6   8 -21    2.50    2.80
   6  -9 -21    0.70    3.00
  -6  -9  21   -1.20    2.30
   6   9 -21   -0.70    2.80
   6  10 -21   10.70    3.00
  -6  10 -21    9.90    3.30
   6 -10 -21    8.60    3.10
  -6 -10  21    7.90    2.80
   6  11 -21    1.30    3.00
  -6 -11  21   -0.90    3.00
   6 -11 -21   -2.80    3.20
  -6  11 -21    2.20    3.40
   6  12 -21    4.60    3.00
  -6 -12  21    3.10    2.90
  -6  12 -21    6.70    3.40
   6 -12 -21    3.60    3.40
   6  13 -21   -1.40    3.20
  -6 -13  21    3.10    3.30
  -6  13 -21    1.30    3.10
   6 -13 -21    1.70    3.40
  -6 -14  21    3.40    3.20
   6  14 -21   -2.60    3.30
  -6  14 -21   -0.80    3.90
   6  15 -21   -3.70    3.40
   6 -15 -21   -0.50    3.70
  -6  15 -21    1.70    4.00
  -6  16 -21   -0.50    4.00
   6 -16 -21   -3.30    4.00
   6  16 -21    0.20    3.80
   7  -1 -21    2.70    2.30
   7   1 -21    0.20    2.30
   7   2 -21    5.30    2.30
  -7  -2  21    0.90    2.30
   7  -2 -21    3.20    2.30
   7  -3 -21    5.20    2.40
   7   3 -21   -4.70    2.40
   7   4 -21   12.80    2.50
  -7   4  21   15.60    2.60
   7  -4 -21   10.40    2.60
   7  -5 -21   17.10    3.20
  -7   5  21    9.10    3.20
   7   5 -21   13.40    2.50
  -7  -5  21   16.50    2.60
   7  -6 -21    6.20    2.40
  -7   6  21    1.80    3.00
   7   6 -21    6.50    2.80
  -7   7  21    4.80    3.10
   7  -7 -21    4.30    2.50
   7   7 -21   11.80    2.80
  -7   8  21   33.80    3.20
   7  -8 -21   34.70    2.80
   7   8 -21   42.10    2.70
   7   9 -21   11.10    2.50
   7  -9 -21   11.10    2.90
   7  10 -21   32.10    2.90
   7 -10 -21   27.50    3.40
  -7 -11  21    5.10    2.90
   7  11 -21    4.50    3.20
   7 -11 -21    7.30    3.40
   7 -12 -21   20.10    3.60
  -7  12 -21   18.30    3.60
   7  12 -21    5.70    3.20
   7 -13 -21    0.20    3.50
   7  13 -21    2.60    3.10
  -7 -13  21    0.40    3.10
  -7  13 -21   -0.40    3.20
  -7 -14  21    2.00    3.20
  -7  14 -21    3.60    3.40
   7  14 -21    4.80    3.10
   7  15 -21    0.90    3.70
  -7 -15  21    3.70    3.40
  -7  15 -21    3.40    3.70
   8   0 -21    1.00    2.20
  -8   0  21    0.60    2.20
   8   1 -21    0.90    2.20
   8  -1 -21    0.30    2.80
   8  -2 -21    1.90    2.30
   8   2 -21   -0.80    2.20
   8  -3 -21    2.10    2.40
   8   3 -21   -1.70    2.30
  -8  -3  21    0.50    2.30
   8   4 -21    4.30    2.30
   8  -4 -21    6.00    2.90
  -8  -4  21   11.20    2.30
   8  -5 -21    2.80    2.40
   8   5 -21   -0.70    2.40
   8   6 -21   -0.30    2.90
   8  -6 -21    0.40    2.90
   8   7 -21    1.30    2.40
  -8   7  21   -1.20    2.40
   8  -7 -21    3.00    2.70
   8   8 -21    2.50    2.80
  -8   8  21   10.10    2.90
   8  -8 -21    6.00    2.90
   8   9 -21    4.70    2.90
  -8   9  21    2.30    3.00
   8  -9 -21    0.10    3.00
   8 -10 -21   -0.20    2.80
   8  10 -21   -4.20    2.90
  -8  10  21   -2.50    3.00
   8 -11 -21   -1.30    3.00
   8  11 -21   -2.30    3.00
  -8 -11  21   -3.50    3.00
   8 -12 -21    6.60    3.20
   8  12 -21   -1.10    3.20
  -8 -12  21    1.00    3.20
   8 -13 -21   -0.40    3.10
  -8  13 -21   -0.60    3.30
  -8 -13  21    2.20    3.20
   8  13 -21    0.50    3.20
   8  14 -21   -0.50    3.40
  -8  14 -21    4.30    3.70
  -8 -14  21    3.10    3.40
  -8 -15  21    1.40    3.50
  -8  15 -21    0.50    3.60
   8  15 -21    0.00    3.70
  -9  -1  21   -3.30    2.20
   9   1 -21   -1.00    2.20
   9  -1 -21   -3.80    2.80
   9   2 -21   -0.40    2.40
  -9   2  21    4.50    2.30
   9  -2 -21    6.10    2.60
   9   3 -21   -1.30    2.60
   9  -3 -21    4.90    2.90
   9   4 -21   -0.10    2.60
   9  -4 -21   -2.60    3.00
   9   5 -21    0.40    2.30
   9  -5 -21    3.40    2.30
   9  -6 -21    1.60    3.00
   9   6 -21    1.70    2.50
   9  -7 -21   26.20    3.20
   9   7 -21   37.90    3.20
  -9   7  21   28.60    3.00
   9  -8 -21    3.20    2.80
   9   8 -21   -0.10    2.60
  -9   8  21    3.70    2.70
   9  -9 -21    1.70    2.90
   9   9 -21    6.60    2.60
  -9   9  21    3.80    3.00
  -9  10  21    8.10    3.30
   9 -10 -21    8.20    3.00
   9  10 -21   16.10    2.90
   9 -11 -21    0.90    2.90
  -9  11  21   -1.70    2.90
   9  11 -21    0.40    2.70
   9  12 -21    0.30    3.10
   9 -12 -21   -0.90    3.30
  -9 -12  21    1.70    2.70
   9  13 -21    3.50    3.40
   9 -13 -21    0.10    3.30
  -9 -13  21    4.60    3.20
   9  14 -21    0.60    3.50
  -9  14 -21    1.20    3.90
  -9 -14  21    2.50    3.40
  -9 -15  21   -1.00    3.60
  10   0 -21    0.50    3.00
  10   1 -21    2.50    2.30
  10  -1 -21   -4.30    2.70
 -10   1  21   -3.40    2.40
  10  -2 -21    2.00    2.20
  10   2 -21    2.80    2.90
  10  -3 -21   -1.90    2.80
  10   3 -21   -1.30    2.40
  10  -4 -21   13.10    3.10
  10   4 -21   17.10    2.50
  10  -5 -21    2.20    2.30
  10   5 -21    0.40    2.30
 -10  -6  21   -0.50    2.40
  10  -6 -21   -0.30    3.00
  10   6 -21    4.50    3.00
  10  -7 -21   20.60    3.20
  10   7 -21   21.40    2.80
 -10   7  21   16.00    3.00
  10  -8 -21   11.40    3.00
  10   8 -21    7.60    3.00
  10  -9 -21    1.80    3.10
  10   9 -21    0.10    2.60
 -10   9  21    2.10    2.40
  10 -10 -21    0.30    3.00
 -10  10  21    0.80    3.10
  10  10 -21   -3.20    3.00
  10  11 -21    0.60    3.10
 -10  11  21    2.60    3.00
  10 -11 -21    3.00    3.00
  10  12 -21    3.90    2.80
 -10  12  21    4.00    3.00
  10 -12 -21   -0.50    3.00
  10 -13 -21    2.20    3.00
  10  13 -21   -1.30    3.50
 -10 -13  21    0.10    3.10
  10 -14 -21    2.00    3.80
 -10 -14  21   -3.80    2.80
  10  14 -21   -2.20    3.40
 -11   1  21    1.80    2.40
 -11  -1  21    0.20    2.60
  11  -1 -21    2.30    2.50
  11   1 -21    3.80    3.20
  11  -2 -21    2.60    2.30
  11   2 -21    0.90    2.50
  11  -3 -21    4.10    2.40
  11   3 -21    2.00    2.50
  11  -4 -21    8.50    2.60
  11   4 -21   11.00    3.00
  11  -5 -21   -0.50    2.90
  11   5 -21   -3.40    3.00
  11  -6 -21    1.50    2.90
  11   6 -21    0.00    2.80
  11  -7 -21    0.70    2.50
  11   7 -21    0.70    2.50
  11  -8 -21   -0.20    2.80
 -11   8  21   -1.50    3.20
  11   8 -21    0.00    2.90
  11  -9 -21    1.10    3.20
 -11   9  21    0.40    3.20
  11   9 -21    4.20    2.60
  11  10 -21    8.00    3.10
 -11  10  21    4.90    2.90
  11 -10 -21    8.60    3.10
  11  11 -21    1.30    3.40
 -11  11  21    1.80    3.40
  11 -11 -21   -2.60    3.40
  11 -12 -21    0.60    3.40
 -11  12  21   -1.40    3.40
  11  12 -21    1.70    3.50
  11 -13 -21   -0.90    3.50
 -11  13  21    0.80    3.40
  11  13 -21    0.20    3.20
  12   0 -21   -1.90    3.00
  12   1 -21   -1.80    2.60
  12  -1 -21    3.00    2.80
  12   2 -21    1.80    3.00
  12  -2 -21    5.70    2.80
 -12  -3  21    2.30    2.60
  12  -3 -21    4.40    3.00
  12   3 -21   10.00    2.50
  12  -4 -21    1.20    2.80
  12   4 -21    3.60    2.50
  12  -5 -21    3.40    2.50
  12   5 -21   -0.40    2.80
  12  -6 -21    1.70    2.50
  12   6 -21    0.10    2.80
  12  -7 -21    3.60    2.80
  12   7 -21   -3.00    2.70
  12   8 -21    4.80    3.10
  12  -8 -21   -1.60    3.40
  12   9 -21    2.80    2.90
 -12   9  21   -0.60    3.20
  12  -9 -21    1.50    2.60
  12 -10 -21    3.90    3.30
  12  10 -21    3.70    3.20
 -12  10  21    8.00    3.00
  12 -11 -21   -0.40    3.20
 -12  11  21    0.50    3.30
  12  11 -21   -1.30    3.20
  12  12 -21    4.00    3.00
  12 -12 -21   -1.30    3.50
 -12  12  21   -1.00    3.10
 -13   1  21    1.50    2.40
  13   1 -21    3.10    2.70
  13  -1 -21    4.90    3.00
  13  -2 -21   -0.80    2.90
  13   2 -21    4.10    3.30
  13  -3 -21   -0.20    2.80
  13   4 -21    9.50    2.50
  13  -4 -21    8.00    2.60
  13   5 -21    1.10    2.90
  13  -5 -21    2.00    3.20
  13   6 -21    3.70    2.90
  13  -6 -21    3.20    2.50
  13  -7 -21    1.70    2.60
  13   7 -21   -0.20    2.90
  13  -8 -21    9.40    2.90
  13   8 -21    4.10    2.80
  13  -9 -21   -2.90    3.30
  13   9 -21    2.50    3.20
 -13   9  21    3.00    3.40
  13 -10 -21    0.50    3.50
 -13  10  21   -1.10    3.20
  13  10 -21    1.70    2.70
  13  11 -21    3.40    3.30
 -13  11  21    0.40    3.50
  13 -11 -21    3.80    3.30
  14   0 -21   -3.00    2.60
  14  -1 -21    1.60    2.90
  14  -2 -21   -0.80    2.80
  14   2 -21   -2.50    3.00
  14  -3 -21   -1.20    2.50
  14  -4 -21   13.70    2.70
  14   4 -21    5.10    3.00
  14  -5 -21   -0.90    3.10
  14   5 -21    6.00    3.20
  14  -6 -21   -1.10    2.80
  14   6 -21   -2.90    2.80
  14  -7 -21   -1.50    2.80
  14   7 -21    0.70    3.10
  14  -8 -21    1.30    2.90
  14   8 -21   -0.60    3.10
  14  -9 -21    0.60    3.30
  14  10 -21    0.10    3.60
 -14  10  21   -1.50    3.10
  14 -10 -21    2.30    3.40
  15  -1 -21    4.90    3.20
  15   2 -21    5.90    2.70
  15  -2 -21    3.60    2.90
  15  -3 -21   -2.90    2.50
  15   3 -21    2.30    2.60
  15  -4 -21   -1.00    2.50
  15   4 -21    2.10    3.10
  15  -5 -21   -3.60    3.00
  15   5 -21   -2.00    2.60
  15  -6 -21    2.40    3.00
  15  -7 -21    3.00    2.90
  15   8 -21    0.40    2.90
  15  -8 -21    0.60    2.80
  16   0 -21    0.40    3.30
  16   1 -21   -0.70    3.10
  16  -1 -21    5.70    3.20
  16  -2 -21    1.30    3.30
  16   3 -21    4.70    3.20
  16  -3 -21    4.00    3.10
  16  -5 -21    0.10    3.30
  16   5 -21   -2.30    2.90
  16  -6 -21    0.10    2.80
  16   6 -21   -1.90    3.40
  17   1 -21    1.00    2.90
  17   2 -21   -2.60    3.20
  17  -3 -21    5.40    3.30
  17  -4 -21    1.10    3.30
  17   4 -21    1.60    3.30
   0   0 -22   16.20    2.80
   0  -1 -22    0.80    2.20
   0   1 -22    3.20    2.20
   0  -2 -22   61.99    3.20
   0   2 -22   66.29    2.90
   0  -3 -22    1.80    2.30
   0   3 -22   -0.60    2.80
   0  -4 -22    3.70    2.40
   0   4 -22    6.00    2.40
   0  -5 -22   -0.30    2.80
   0   5 -22    2.40    2.70
   0  -6 -22    0.30    2.50
   0   6 -22    5.40    2.90
   0  -7 -22    2.80    2.90
   0   7 -22    1.00    2.80
   0   8 -22    9.00    2.50
   0  -8 -22   10.80    3.00
   0   9 -22   -0.10    2.80
   0  -9 -22    5.00    2.80
   0  10 -22   54.49    3.50
   0 -10 -22   52.79    3.30
   0  11 -22    0.80    3.00
   0 -11 -22    0.00    3.10
   0  12 -22    3.70    3.40
   0 -12 -22   -0.20    3.20
   0  13 -22   -1.70    3.30
   0 -13 -22    1.90    3.40
   0 -14 -22    2.10    3.40
   0  14 -22   -1.90    3.50
   0  15 -22    3.90    3.60
   0 -16 -22    1.60    3.70
   0  16 -22   -1.60    3.80
   0 -17 -22   -1.20    3.70
  -1  -1 -22    2.80    2.30
  -1   1 -22    4.80    2.70
   1  -1 -22    3.60    2.30
   1   1 -22    5.00    2.30
  -1   2 -22    2.20    2.60
  -1  -2 -22    2.40    2.80
   1  -2 -22    0.10    2.60
   1   2 -22    2.40    2.30
  -1  -3 -22   16.40    2.50
  -1   3 -22   14.20    2.80
   1  -3 -22   15.90    2.50
   1   3 -22   17.50    2.90
  -1   4 -22    9.00    2.50
   1  -4 -22   10.20    2.50
  -1  -4 -22    8.20    2.80
   1   4 -22    8.30    2.40
  -1  -5 -22   17.60    3.10
  -1   5 -22   21.00    2.50
   1  -5 -22   14.30    3.10
   1   5 -22   15.80    3.10
   1   6 -22   -3.30    2.90
  -1  -6 -22   -0.30    2.40
  -1   6 -22    1.00    2.40
   1  -6 -22    1.30    2.40
   1   7 -22    2.20    3.00
  -1  -7 -22    4.90    2.90
  -1   7 -22    1.60    2.40
   1  -7 -22    2.90    3.00
   1   8 -22    0.40    2.40
  -1  -8 -22    5.20    3.00
   1  -8 -22    0.10    2.90
  -1   8 -22   -0.40    2.90
  -1  -9 -22    9.10    2.90
   1   9 -22    6.30    2.80
   1  -9 -22    3.90    2.80
  -1   9 -22    6.10    2.50
  -1  10 -22   13.70    3.10
   1  10 -22   21.50    3.10
  -1 -10 -22   12.60    2.90
   1 -10 -22   15.80    2.90
  -1  11 -22   -0.40    3.10
   1  11 -22   -1.60    3.10
  -1 -11 -22    1.90    3.20
   1 -11 -22    3.00    3.10
   1 -12 -22   -0.90    3.30
  -1  12 -22    0.90    3.30
   1  12 -22    3.40    3.40
  -1 -12 -22    1.40    3.20
   1 -13 -22   -0.50    3.40
  -1  13 -22    2.00    3.30
   1  13 -22    2.20    3.80
  -1 -13 -22    2.40    3.40
   1  14 -22    1.10    3.40
  -1  14 -22   -1.80    3.10
  -1 -14 -22   -2.20    3.10
  -1  15 -22    1.80    3.80
   1  15 -22    1.30    3.40
   1  16 -22    5.20    4.00
   1 -16 -22    0.40    3.80
  -1  16 -22    0.60    4.20
   1 -17 -22    1.20    4.00
  -2   0 -22   32.70    2.60
   2   0 -22   32.50    2.80
  -2  -1 -22    0.70    2.10
  -2   1 -22    0.80    2.60
   2  -1 -22   -0.90    2.30
   2   1 -22    1.00    2.20
   2   2 -22    7.50    2.40
  -2  -2 -22    9.40    2.30
  -2   2 -22   11.00    2.70
   2  -2 -22    8.70    2.80
   2   3 -22    3.60    2.70
  -2   3 -22    2.60    2.30
   2  -3 -22    1.20    2.30
   2   4 -22   -0.60    2.40
   2  -4 -22    2.50    2.30
  -2   4 -22    3.00    2.80
   2   5 -22    4.00    2.90
  -2  -5 -22    4.50    2.40
  -2   5 -22    5.90    2.30
   2  -5 -22    5.90    2.90
   2   6 -22   14.30    2.60
  -2  -6 -22   15.70    2.60
  -2   6 -22   18.80    2.60
   2  -6 -22   15.80    2.80
   2   7 -22    7.90    2.80
  -2  -7 -22    9.40    2.50
  -2   7 -22    5.90    2.80
   2  -7 -22    5.20    2.80
   2  -8 -22    8.60    2.90
   2   8 -22    8.30    3.10
  -2  -8 -22    8.10    3.00
  -2   8 -22   10.40    2.90
   2  -9 -22   -1.90    2.60
   2   9 -22   -0.10    2.30
  -2  -9 -22   -0.40    2.60
  -2   9 -22    0.30    2.80
   2 -10 -22    4.10    2.90
   2  10 -22    6.60    3.00
  -2 -10 -22    5.20    2.40
  -2  10 -22    8.10    3.00
  -2  11 -22   10.90    3.30
   2 -11 -22   11.90    3.40
   2  11 -22   16.20    3.40
  -2 -11 -22   11.50    3.30
  -2  12 -22    4.40    3.50
   2 -12 -22    0.80    3.40
   2  12 -22   -0.30    3.40
  -2 -12 -22    0.60    3.20
  -2  13 -22    5.70    3.50
   2 -13 -22    8.00    3.70
   2  13 -22    4.80    3.50
  -2 -13 -22    2.90    3.50
  -2  14 -22    0.90    3.40
  -2 -14 -22   -1.10    3.20
   2  14 -22   -2.50    3.50
   2  15 -22    1.40    3.80
  -2  15 -22   -1.80    3.70
   2  16 -22    3.40    3.80
   2 -16 -22    3.00    3.70
  -2  16 -22    3.90    3.90
  -2 -17 -22    3.50    3.60
   3  -1 -22   -3.40    2.30
   3   1 -22    2.90    2.30
   3  -2 -22   12.80    2.80
   3   2 -22   10.50    2.40
   3  -3 -22    1.40    2.60
   3   3 -22    3.50    2.30
   3  -4 -22   18.90    3.00
   3   4 -22   17.30    3.00
  -3   4 -22   19.70    2.50
   3  -5 -22   -0.30    2.80
   3   5 -22    6.20    2.40
  -3   5 -22    0.30    2.90
   3  -6 -22   -1.80    2.50
   3   6 -22    3.50    2.40
  -3   6 -22    4.30    3.00
   3  -7 -22    2.50    2.40
   3   7 -22    3.10    2.40
  -3   7 -22    5.40    2.80
   3  -8 -22    9.00    2.80
   3   8 -22    7.30    2.50
  -3   8 -22    7.20    2.40
   3  -9 -22    3.70    2.40
   3   9 -22    6.70    3.00
  -3   9 -22   11.30    2.90
   3 -10 -22   22.90    3.20
   3  10 -22   24.40    2.80
  -3  10 -22   21.00    3.40
   3 -11 -22   25.90    3.40
   3  11 -22   23.50    3.60
  -3 -11 -22   27.30    2.90
  -3  11 -22   26.30    3.60
   3 -12 -22    1.40    3.20
  -3 -12 -22    0.90    3.10
   3  12 -22    1.20    3.20
  -3  12 -22    2.10    3.50
  -3  13 -22   -0.40    3.10
  -3 -13 -22   -0.30    3.30
   3 -13 -22   -2.60    3.20
   3  13 -22    2.60    3.50
   3  14 -22    0.40    3.20
  -3  14 -22    0.80    3.50
  -3 -14 -22    1.40    3.10
   3  15 -22   -0.70    3.50
  -3  15 -22   -1.00    3.40
  -3 -15 -22    2.30    3.30
  -3  16 -22    2.10    4.00
   3  16 -22   -2.50    3.90
   3 -16 -22    0.10    3.70
   4   0 -22    8.50    2.30
  -4   0  22    8.60    2.30
   4  -1 -22   -0.50    2.30
   4   1 -22    0.40    2.20
  -4  -1  22    1.70    2.60
  -4   1  22    1.60    2.30
   4  -2 -22    1.20    2.70
   4   2 -22    3.70    2.20
  -4   2  22    0.40    2.20
  -4  -2  22   -0.40    2.30
   4  -3 -22    2.70    2.30
   4   3 -22    6.60    2.30
  -4  -3  22    1.30    2.20
   4  -4 -22    2.40    3.00
   4   4 -22   -0.60    2.30
  -4  -4  22   -0.80    2.30
   4  -5 -22    1.00    2.80
   4   5 -22   -0.40    2.50
  -4  -5  22    0.20    2.50
   4  -6 -22   13.10    2.60
  -4  -6  22   11.50    3.00
   4   6 -22   14.00    3.00
  -4   6 -22   13.10    2.60
   4  -7 -22    0.70    2.50
   4   7 -22   -0.60    2.80
  -4   7 -22    1.00    2.70
  -4  -7  22    2.10    2.90
   4  -8 -22    3.10    2.70
  -4  -8  22    4.80    2.50
   4   8 -22    6.20    2.80
  -4   8 -22    3.10    2.80
   4  -9 -22    1.30    2.50
   4   9 -22    3.90    2.90
  -4   9 -22    0.60    2.90
  -4  -9  22    6.40    2.30
   4 -10 -22   -2.70    3.10
   4  10 -22    0.80    2.50
  -4  10 -22   -0.40    3.20
   4 -11 -22   22.50    3.20
   4  11 -22   17.80    3.40
  -4  11 -22   22.60    3.50
   4 -12 -22    3.10    3.50
   4  12 -22    1.70    3.20
  -4  12 -22    1.70    3.70
   4  13 -22    5.70    3.40
   4 -13 -22    5.20    3.20
  -4 -13 -22    5.70    3.20
  -4  13 -22    6.00    3.20
  -4  14 -22   -1.60    3.80
   4  14 -22    1.00    3.10
  -4 -14 -22   -1.10    3.20
  -4  15 -22    5.50    4.00
   4  15 -22    2.20    3.50
  -4 -15 -22    0.90    3.30
  -4  16 -22    3.30    3.70
   4  16 -22    3.70    4.20
   4 -16 -22   -0.10    3.90
   5  -1 -22   -2.50    2.60
   5   1 -22   -1.10    2.50
  -5   1  22   -0.50    2.20
  -5  -1  22    2.40    2.10
   5  -2 -22   15.80    2.40
   5   2 -22   19.00    2.80
  -5   2  22   16.60    2.50
   5  -3 -22   -0.70    2.30
   5   3 -22    4.40    2.70
  -5   3  22    0.50    2.20
  -5  -3  22    2.00    2.30
   5  -4 -22   -3.30    2.50
   5   4 -22   -1.60    2.50
  -5   4  22    0.80    3.00
  -5  -4  22   -0.30    2.30
  -5   5  22    7.80    2.50
   5  -5 -22    9.40    3.00
   5   5 -22    9.60    2.50
  -5  -5  22    5.30    2.90
   5  -6 -22   34.00    2.80
   5   6 -22   29.00    3.20
  -5  -6  22   31.30    2.90
   5  -7 -22   13.80    2.90
   5   7 -22   16.20    3.00
  -5  -7  22   19.80    2.90
   5  -8 -22   20.70    3.00
  -5   8 -22   22.90    3.10
  -5  -8  22   22.90    2.70
   5   8 -22   25.40    3.10
   5  -9 -22    1.60    2.40
  -5   9 -22    0.20    2.50
  -5  -9  22    0.70    2.30
   5   9 -22   -0.90    2.80
  -5 -10  22    2.00    2.90
   5 -10 -22    0.40    3.20
  -5  10 -22    2.90    3.00
   5  10 -22    5.30    2.50
   5 -11 -22   -0.60    3.00
  -5 -11  22    1.60    3.00
  -5  11 -22   -1.10    3.40
   5  11 -22    3.70    3.10
   5  12 -22    8.00    3.20
   5 -12 -22    8.40    3.60
  -5  12 -22   10.40    3.40
   5  13 -22   -1.10    3.30
   5 -13 -22    2.60    3.10
  -5  13 -22    0.40    3.10
   5  14 -22    1.50    3.20
  -5  14 -22    1.00    3.40
  -5  15 -22    6.80    3.80
  -5 -15 -22    3.10    3.30
   5  15 -22    5.20    3.80
   5  16 -22   -1.80    3.90
   5 -16 -22   -2.50    3.60
  -5  16 -22   -2.70    4.10
  -5 -16 -22    1.20    3.70
   6   0 -22   -2.50    2.70
   6  -1 -22    4.20    2.30
   6   1 -22    1.70    2.30
  -6   1  22   -0.80    2.70
   6  -2 -22    3.50    2.30
   6   2 -22    1.40    2.30
   6  -3 -22    1.00    2.50
   6   3 -22   -0.30    2.30
  -6   3  22    1.80    2.90
   6  -4 -22    0.90    2.50
   6   4 -22   -2.80    2.40
  -6   4  22   -0.60    2.40
   6  -5 -22    3.70    2.90
   6   5 -22    2.60    2.80
  -6   5  22    4.30    3.10
   6  -6 -22    6.70    2.80
  -6   6  22   10.80    2.80
   6   6 -22    9.00    2.50
   6   7 -22    1.90    3.00
   6  -7 -22    5.30    3.00
   6  -8 -22   18.00    3.00
  -6  -8  22   19.80    3.00
   6   8 -22   15.60    3.10
   6  -9 -22   -0.90    2.90
  -6  -9  22   -3.80    2.80
   6   9 -22   -1.00    2.90
  -6  10 -22    3.30    3.30
   6 -10 -22    4.40    3.00
  -6 -10  22    0.20    2.70
   6  10 -22    4.00    2.80
   6  11 -22    2.00    2.90
  -6 -11  22    4.10    2.50
  -6  11 -22    3.80    3.50
   6 -11 -22    0.90    3.00
   6  12 -22    1.40    2.90
  -6 -12  22    5.70    3.20
  -6  12 -22    3.20    3.40
   6 -12 -22    0.50    3.50
   6  13 -22    2.10    3.20
  -6 -13  22   -0.20    3.10
  -6  13 -22   -0.70    3.40
   6 -13 -22    0.00    3.40
   6  14 -22    2.00    3.30
  -6  14 -22   -0.90    3.60
   6  15 -22   -0.70    3.50
  -6  15 -22    0.20    3.90
   6 -16 -22    1.40    3.80
   7  -1 -22    1.10    2.80
   7   1 -22    2.70    2.70
   7  -2 -22   15.70    2.40
   7   2 -22   14.00    2.40
   7  -3 -22   -0.60    2.30
   7   3 -22   -1.40    2.30
   7   4 -22    3.00    2.30
  -7   4  22    2.20    2.70
   7  -4 -22    0.40    2.90
  -7   5  22    4.40    2.40
   7   5 -22    2.70    2.90
   7  -5 -22   -0.40    2.40
   7  -6 -22   18.90    2.90
  -7   6  22   17.80    2.60
   7   6 -22   22.40    2.60
   7  -7 -22   30.60    2.80
  -7   7  22   34.80    2.70
   7   7 -22   27.20    3.20
  -7   8  22   13.80    2.40
   7  -8 -22   10.50    2.40
   7   8 -22   10.50    2.50
   7   9 -22    1.00    2.70
   7  -9 -22   -0.20    2.90
  -7  -9  22   -3.10    2.90
   7  10 -22   44.40    3.10
  -7 -10  22   30.00    3.20
   7 -10 -22   31.30    3.40
   7  11 -22    1.20    3.20
  -7  11 -22    5.10    3.40
  -7 -11  22    1.80    3.00
   7 -11 -22    0.50    3.20
   7  12 -22    3.20    2.60
  -7 -12  22   -0.40    3.20
  -7  12 -22   -0.40    3.40
   7 -12 -22    4.00    3.30
   7 -13 -22   -0.90    3.10
   7  13 -22   -0.30    3.30
  -7 -13  22   -2.00    2.70
  -7  13 -22    1.90    3.50
  -7 -14  22   -0.60    3.10
  -7  14 -22    4.50    3.90
   7  14 -22    0.90    3.30
   7  15 -22    2.00    3.60
  -7 -15  22    1.50    3.70
  -7  15 -22    0.90    3.70
   8   0 -22   16.10    2.30
   8  -1 -22    0.50    2.60
   8   1 -22    1.40    2.80
   8  -2 -22    5.70    2.80
   8   2 -22    5.20    2.30
   8  -3 -22   -0.50    2.90
   8   3 -22    3.20    2.30
   8  -4 -22    0.00    2.70
   8   4 -22    2.50    2.20
   8  -5 -22    6.90    2.50
  -8  -5  22    5.30    2.30
   8   5 -22   10.20    2.30
  -8   6  22    0.60    2.40
   8  -6 -22    2.40    2.90
   8   6 -22    0.60    3.00
   8   7 -22   -0.20    2.30
  -8   7  22    2.60    2.60
   8  -7 -22   -0.10    2.80
   8   8 -22    1.30    2.50
  -8   8  22   -2.10    2.60
   8  -8 -22    3.60    2.80
   8   9 -22    0.70    3.00
  -8   9  22   -0.10    2.50
   8  -9 -22    1.70    3.00
   8 -10 -22    1.60    2.90
   8  10 -22   -4.00    3.00
  -8 -10  22   -2.10    2.90
   8 -11 -22   -1.80    3.10
   8  11 -22   -2.80    3.10
  -8 -11  22    0.80    3.00
   8 -12 -22    0.90    3.30
  -8  12 -22    2.60    3.20
   8  12 -22   -2.00    3.10
  -8 -12  22   -2.80    3.20
   8 -13 -22    0.10    3.30
  -8 -13  22   -0.60    2.60
   8  13 -22   -1.00    3.40
  -8  13 -22    0.90    3.20
   8  14 -22    0.70    3.50
   8 -14 -22    0.80    3.40
  -8 -14  22    2.60    3.30
  -8  14 -22   -0.50    3.60
  -8 -15  22    0.30    3.30
   9  -1 -22    1.30    2.60
   9   1 -22    0.90    2.80
   9  -2 -22    0.40    2.80
   9   2 -22    0.80    2.50
   9   3 -22    9.50    2.50
   9  -3 -22    6.30    2.90
   9   4 -22    2.00    2.40
   9  -4 -22    6.40    2.50
   9   5 -22    1.30    2.40
   9  -5 -22   -1.90    2.30
   9   6 -22    8.80    2.50
  -9   6  22   11.90    2.60
   9  -6 -22   13.30    2.90
   9  -7 -22   -1.50    2.90
   9   7 -22   -0.20    3.00
  -9   7  22    0.10    2.30
   9  -8 -22    6.40    2.80
   9   8 -22    3.80    2.60
  -9   8  22   -1.40    2.40
   9  -9 -22    6.20    2.90
   9   9 -22    4.90    2.50
  -9   9  22    8.70    2.90
   9  10 -22    1.00    2.90
   9 -10 -22    2.70    2.90
  -9  10  22    0.40    3.10
   9 -11 -22    6.40    3.00
   9  11 -22    0.90    3.20
  -9 -11  22    3.20    3.20
   9 -12 -22   -3.20    3.30
  -9 -12  22    5.00    3.10
   9  12 -22    0.50    3.10
   9 -13 -22    0.60    3.30
   9  13 -22    0.30    3.50
  -9  13 -22    1.20    3.30
  -9 -13  22    0.70    3.40
   9  14 -22   -0.40    3.30
  -9  14 -22    0.60    3.70
  -9 -14  22    1.60    2.70
   9 -14 -22   -3.20    3.50
  10   0 -22    4.10    2.50
 -10   0  22    8.60    2.50
  10   1 -22    2.90    2.60
  10  -1 -22    2.60    2.90
  10  -2 -22   11.20    2.70
  10   2 -22   10.60    2.60
  10  -3 -22    5.80    3.00
  10   3 -22    7.10    2.80
  10  -4 -22   -0.20    2.80
  10   4 -22    0.10    2.30
  10  -5 -22    5.20    2.40
  10   5 -22    3.70    2.80
  10  -6 -22    1.80    2.90
  10   6 -22    7.20    3.00
  10  -7 -22    3.00    3.00
  10   7 -22   -0.20    2.50
 -10   7  22   -0.40    3.00
  10  -8 -22    1.20    2.90
  10   8 -22    2.80    2.90
 -10   8  22    3.50    3.00
  10  -9 -22    1.50    3.10
  10   9 -22   -0.20    2.70
 -10   9  22    1.40    3.10
  10 -10 -22   11.20    3.00
 -10  10  22   10.80    3.00
  10  10 -22   15.40    3.10
  10 -11 -22   -2.70    3.30
 -10  11  22   -2.80    3.30
  10  11 -22   -2.30    3.20
  10  12 -22    5.40    3.40
  10 -12 -22    2.30    3.30
  10  13 -22   -0.10    3.40
 -10 -13  22   -2.10    3.20
  10 -13 -22   -2.80    3.40
  11  -1 -22    3.30    2.40
  11   1 -22    0.60    3.10
  11  -2 -22    5.80    2.50
  11   2 -22   22.90    2.80
  11  -3 -22    1.70    2.40
  11   3 -22    1.40    2.40
  11  -4 -22    5.50    2.80
  11   4 -22   -1.50    2.70
  11  -5 -22   -2.70    2.80
  11   5 -22   -3.00    2.90
  11  -6 -22    3.80    3.20
  11   6 -22    0.90    2.80
  11  -7 -22    1.40    2.40
  11   7 -22   -0.30    2.60
  11  -8 -22   26.30    3.00
 -11   8  22   23.90    3.00
  11   8 -22   32.00    3.40
  11  -9 -22   -1.30    3.20
 -11   9  22   -0.40    3.00
  11   9 -22   -1.00    2.70
  11  10 -22    7.60    3.10
  11 -10 -22    7.40    3.30
 -11  10  22    0.50    3.20
  11  11 -22    1.80    3.50
 -11  11  22    2.20    3.10
  11 -11 -22    0.90    3.40
  11 -12 -22   11.70    3.60
  11  12 -22   10.00    3.60
 -11  12  22    4.80    3.50
  11 -13 -22   -0.60    3.70
 -11 -13  22   -0.70    3.20
  12   0 -22    9.30    2.90
  12   1 -22    3.30    2.70
  12  -1 -22    5.50    2.70
  12  -2 -22    2.70    2.80
  12   2 -22   -0.90    3.00
  12  -3 -22   -0.20    2.90
  12   3 -22   -2.00    2.60
  12  -4 -22    0.70    2.50
  12   4 -22    8.00    2.60
 -12  -5  22   -1.10    2.40
  12  -5 -22    1.10    2.80
  12   5 -22    0.30    2.50
  12  -6 -22   -1.00    2.50
  12   6 -22    3.90    2.50
  12  -7 -22    0.60    3.00
  12   7 -22    2.70    2.50
  12   8 -22    5.40    3.00
  12  -8 -22    2.40    3.30
  12   9 -22   -1.90    2.90
 -12   9  22   -1.00    2.80
  12  -9 -22    2.50    3.10
  12 -10 -22    0.20    3.20
  12  10 -22    1.10    3.30
 -12  10  22    4.20    3.40
  12 -11 -22    4.70    3.30
  12  11 -22    4.90    2.80
 -12  11  22   -1.10    3.30
  12 -12 -22    1.60    3.50
 -12  12  22    0.30    3.50
  12  12 -22    3.10    3.00
  13   1 -22   -5.00    2.70
  13  -1 -22    1.00    2.80
  13  -2 -22    5.10    2.80
  13   2 -22    6.90    3.30
  13  -3 -22   -1.50    2.60
  13   3 -22    4.00    2.60
  13  -4 -22   11.50    2.70
  13   4 -22    8.40    2.80
  13  -5 -22    2.30    3.20
  13   5 -22   -1.40    2.90
  13   6 -22    2.80    2.90
  13  -6 -22    4.10    2.60
  13   7 -22    2.90    2.60
  13  -7 -22    5.50    2.60
  13  -8 -22   -2.20    2.80
  13   8 -22   -1.80    2.70
  13  -9 -22    1.40    2.90
  13   9 -22    1.00    3.20
 -13   9  22   -0.80    3.20
  13 -10 -22    1.90    3.60
  13  10 -22    4.20    2.70
 -13  10  22   -0.90    3.50
  13 -11 -22   -0.30    2.90
  14   0 -22    4.10    2.50
  14   1 -22   -2.20    2.70
  14  -1 -22    2.70    2.60
  14  -2 -22    4.00    2.60
  14   2 -22    4.00    3.20
  14  -3 -22    2.30    2.50
  14  -4 -22    1.40    2.50
  14   4 -22    0.90    2.70
  14  -5 -22    2.70    2.90
  14   5 -22    0.80    3.20
  14  -6 -22    1.10    2.80
  14   6 -22    1.70    3.20
  14  -7 -22    1.60    2.80
  14   7 -22   -0.10    3.20
  14  -8 -22    1.20    2.80
  14   8 -22   -3.40    3.10
  14  -9 -22    2.40    3.30
  14   9 -22    3.40    2.80
 -14   9  22    1.60    3.20
  15  -1 -22    2.60    2.90
  15  -2 -22    7.10    3.10
  15   2 -22   12.20    3.10
  15  -3 -22    2.10    2.60
  15  -4 -22    0.50    2.70
  15   4 -22    2.20    3.40
  15  -5 -22    0.70    2.90
  15   5 -22   -5.70    2.80
  15  -6 -22    2.00    3.10
  15   6 -22    7.90    2.90
  15  -7 -22    2.30    2.80
  15   7 -22    1.40    2.90
  15  -8 -22    0.90    3.00
  16   0 -22    1.50    3.30
  16  -1 -22   -0.70    3.40
  16  -2 -22    3.90    3.40
  16  -3 -22    1.60    2.80
  16   3 -22   -0.20    3.20
  16  -5 -22    1.80    3.30
  16   6 -22    4.20    3.20
  16  -6 -22    1.60    2.90
  17   1 -22    2.50    3.30
  17  -2 -22    8.00    2.90
  -1  -1 -23    1.30    2.20
  -1   1 -23    0.50    2.30
   1  -1 -23    1.90    2.20
   1   1 -23    2.50    2.70
  -1  -2 -23    9.20    2.70
  -1   2 -23   11.00    2.30
   1  -2 -23    7.70    2.30
   1   2 -23    8.90    2.80
  -1  -3 -23   17.70    2.40
  -1   3 -23   17.20    2.80
   1  -3 -23   13.60    2.80
   1   3 -23   12.80    2.60
  -1  -4 -23    4.00    2.30
  -1   4 -23    1.30    2.50
   1  -4 -23    5.10    2.70
   1   4 -23    5.50    2.30
  -1   5 -23   -2.30    2.90
  -1  -5 -23    2.60    2.80
   1  -5 -23   -0.20    2.40
   1   5 -23    0.30    2.80
   1   6 -23    4.60    3.00
  -1  -6 -23    2.00    2.40
  -1   6 -23   -0.40    2.80
   1  -6 -23    0.30    2.80
   1   7 -23   38.60    3.30
   1  -7 -23   36.30    2.80
  -1   7 -23   36.60    3.20
  -1  -7 -23   34.20    3.20
   1   8 -23   11.90    2.80
  -1  -8 -23   12.60    2.90
   1  -8 -23   11.40    2.90
  -1   8 -23   11.70    3.00
   1   9 -23   17.40    2.80
  -1  -9 -23   13.90    2.80
   1  -9 -23   13.90    2.50
  -1   9 -23   16.60    2.80
  -1  10 -23   -3.30    2.50
   1  10 -23   -2.40    2.80
  -1 -10 -23   -2.40    2.90
   1 -10 -23    2.40    2.80
  -1  11 -23    6.60    3.00
   1  11 -23    4.70    3.00
  -1 -11 -23    5.00    2.60
   1 -11 -23    6.80    3.20
   1 -12 -23    0.00    3.30
  -1  12 -23    2.30    3.50
   1  12 -23   -0.10    3.00
  -1 -12 -23   -0.90    3.20
   1 -13 -23    0.60    3.50
  -1  13 -23    4.00    3.30
   1  13 -23    0.80    3.40
  -1 -13 -23    1.30    3.40
   1 -14 -23    1.70    3.10
  -1  14 -23   -0.30    3.50
   1  14 -23   -0.80    3.50
  -1 -14 -23   -1.50    3.30
  -1  15 -23   -0.90    3.70
   1  15 -23   -1.40    3.80
   1  16 -23   -0.80    4.00
  -1  16 -23    1.60    3.90
  -2   0 -23   -3.30    2.20
   2   0 -23    0.60    2.60
   2   1 -23    2.40    2.50
  -2  -1 -23   -1.00    2.20
  -2   1 -23   -2.40    2.60
   2  -1 -23   -1.90    2.20
   2   2 -23    2.40    2.20
  -2  -2 -23    2.70    2.20
   2  -2 -23    2.20    2.60
  -2   2 -23    3.70    2.70
   2   3 -23   17.80    3.00
  -2  -3 -23   15.90    2.70
  -2   3 -23   13.70    2.50
   2  -3 -23   19.20    3.00
   2   4 -23   -0.40    2.30
  -2  -4 -23   -1.40    2.70
  -2   4 -23   -0.20    2.40
   2  -4 -23    2.00    2.80
   2   5 -23    2.90    2.90
  -2  -5 -23    6.30    2.60
  -2   5 -23    4.90    2.40
   2  -5 -23    5.80    2.40
   2   6 -23    3.90    2.50
  -2  -6 -23   -0.10    2.40
  -2   6 -23    2.40    2.80
   2  -6 -23    1.10    2.40
   2   7 -23    0.20    2.30
  -2  -7 -23    0.70    2.40
  -2   7 -23   -0.40    2.40
   2  -7 -23   -1.20    2.30
   2  -8 -23    4.20    2.80
  -2  -8 -23    3.80    3.00
   2   8 -23    0.50    2.80
  -2   8 -23    4.30    2.70
   2  -9 -23    0.00    2.70
   2   9 -23   -0.10    2.80
  -2  -9 -23    2.30    2.80
  -2   9 -23   -0.20    2.80
   2 -10 -23    4.00    2.80
   2  10 -23    3.50    2.90
  -2 -10 -23    2.70    2.50
  -2  10 -23    1.10    3.10
  -2  11 -23   -1.00    3.30
   2 -11 -23    1.00    3.20
   2  11 -23   -1.90    2.60
  -2 -11 -23   -0.40    3.10
  -2  12 -23    0.70    3.50
   2 -12 -23    1.60    3.30
  -2 -12 -23    5.30    2.80
   2  12 -23    4.30    3.30
  -2  13 -23    1.30    3.20
   2 -13 -23    3.60    3.40
   2  13 -23    0.10    3.40
  -2 -13 -23    1.10    3.40
   2 -14 -23    6.90    3.60
  -2  14 -23   13.00    3.70
  -2 -14 -23   14.30    3.20
   2  14 -23   10.30    3.50
   2  15 -23   -2.30    4.10
  -2  15 -23    4.10    3.80
  -2 -15 -23    4.40    3.30
   2  16 -23    2.10    3.80
   2 -16 -23    3.10    3.80
  -2  16 -23    2.60    3.90
   3  -1 -23    2.00    2.20
   3   1 -23   -0.10    2.20
   3  -2 -23    4.70    2.80
   3   2 -23    6.80    2.30
   3  -3 -23    1.40    2.70
   3   3 -23    0.20    2.30
  -3   3 -23    0.60    2.80
   3  -4 -23    5.00    3.00
   3   4 -23    9.90    2.90
  -3   4 -23    8.70    2.60
   3  -5 -23   49.10    3.30
   3   5 -23   48.40    3.00
  -3   5 -23   48.50    3.40
   3  -6 -23   10.60    2.50
   3   6 -23    7.20    3.10
  -3   6 -23    9.00    2.90
   3  -7 -23    5.00    2.80
   3   7 -23    5.30    3.00
  -3   7 -23    4.20    2.90
   3  -8 -23    6.80    3.00
   3   8 -23    6.80    3.10
  -3   8 -23    8.60    2.70
   3  -9 -23   39.70    3.00
   3   9 -23   42.00    3.00
  -3   9 -23   44.30    3.30
   3 -10 -23    0.00    2.80
   3  10 -23    0.80    2.90
  -3 -10 -23   -1.20    2.90
  -3  10 -23    0.50    2.90
   3 -11 -23    3.50    3.30
  -3 -11 -23   -0.40    2.50
  -3  11 -23    2.90    3.20
   3  11 -23    1.20    2.50
  -3 -12 -23    3.10    3.10
   3 -12 -23    3.20    3.30
   3  12 -23    4.50    3.10
  -3  12 -23    1.40    3.50
  -3  13 -23   10.50    3.20
   3  13 -23    6.70    3.40
   3 -13 -23   10.60    3.50
  -3 -13 -23   10.40    3.30
  -3  14 -23    1.80    3.30
   3 -14 -23   -1.20    3.50
  -3 -14 -23    0.60    3.20
   3  14 -23   -1.90    3.20
   3  15 -23    1.10    3.40
  -3  15 -23    2.10    3.90
  -3 -15 -23   -0.90    3.30
   3  16 -23    0.80    3.60
  -3  16 -23   -0.80    4.00
   3 -16 -23    0.50    3.50
   4   0 -23    1.70    2.10
  -4   0  23    0.70    2.60
   4  -1 -23    2.90    2.60
   4   1 -23   -0.10    2.20
  -4   1  23   -0.80    2.20
  -4  -1  23    4.50    2.20
   4  -2 -23   15.50    2.40
   4   2 -23   12.50    2.70
  -4  -2  23   15.40    2.80
   4  -3 -23    7.40    2.40
   4   3 -23    5.20    2.70
  -4  -3  23   11.30    2.90
   4  -4 -23    6.90    2.50
   4   4 -23    5.00    2.50
  -4  -4  23    5.60    3.00
   4  -5 -23    9.20    3.10
   4   5 -23    3.20    2.80
  -4  -5  23    7.40    3.00
   4  -6 -23   -2.60    2.50
   4   6 -23    0.90    2.50
  -4  -6  23    0.70    2.50
  -4   6 -23    1.70    2.40
   4  -7 -23    1.10    3.00
   4   7 -23   -2.10    2.80
  -4  -7  23    0.60    3.00
  -4   7 -23    0.80    2.80
   4  -8 -23    3.10    2.90
   4   8 -23    3.60    2.60
  -4   8 -23   -1.50    2.80
   4  -9 -23   -2.40    2.80
   4   9 -23   -2.50    2.30
  -4   9 -23   -1.30    2.50
   4 -10 -23   18.30    2.80
   4  10 -23   22.80    3.10
  -4  10 -23   23.50    3.30
   4 -11 -23    2.40    3.30
   4  11 -23    4.50    2.90
  -4  11 -23    3.10    3.00
   4 -12 -23    0.90    3.40
   4  12 -23    3.50    2.90
  -4  12 -23    1.00    3.50
   4 -13 -23    1.00    3.20
  -4 -13 -23   -1.80    3.10
   4  13 -23    3.30    2.90
  -4  13 -23    2.80    3.30
  -4  14 -23    3.40    3.80
   4  14 -23    3.90    3.30
   4 -14 -23    5.00    3.60
  -4 -14 -23    7.40    3.30
  -4  15 -23    2.60    3.70
   4  15 -23    0.00    3.40
  -4 -15 -23   -0.60    3.30
  -4  16 -23    5.70    4.10
  -4 -16 -23    1.90    3.70
   4 -16 -23    2.90    3.40
   4  16 -23    5.40    3.60
   5  -1 -23    3.40    2.30
   5   1 -23    0.60    2.30
  -5   1  23    0.30    2.70
  -5  -1  23    1.80    2.30
   5  -2 -23    1.70    2.30
   5   2 -23    1.90    2.30
  -5   2  23    0.80    2.90
   5  -3 -23    3.10    2.40
   5   3 -23   -1.60    2.30
  -5   3  23   -2.30    2.90
  -5  -3  23    3.60    2.60
   5  -4 -23    0.00    2.40
   5   4 -23    2.80    2.40
  -5  -4  23   -0.90    2.80
  -5   4  23    2.60    2.40
   5  -5 -23   26.30    2.80
   5   5 -23   26.80    3.00
  -5  -5  23   31.60    2.80
   5  -6 -23   18.30    2.90
   5   6 -23   16.10    2.60
  -5  -6  23   13.50    2.60
   5  -7 -23    2.80    3.00
   5   7 -23    2.20    2.40
  -5  -7  23    0.40    2.40
   5  -8 -23    1.00    2.60
  -5   8 -23    1.00    2.90
   5   8 -23   -0.10    2.40
  -5  -8  23   -1.80    2.80
   5  -9 -23    7.80    3.00
  -5  -9  23    5.90    2.90
  -5   9 -23    7.80    2.60
   5   9 -23    6.10    2.40
  -5 -10  23    0.90    2.90
   5 -10 -23    3.40    3.00
  -5  10 -23    4.10    3.10
   5  10 -23    5.90    2.80
   5 -11 -23   15.10    3.30
  -5  11 -23   11.70    3.50
   5  11 -23   11.90    3.20
   5  12 -23    3.40    3.10
   5 -12 -23   -0.40    3.30
  -5  12 -23    1.20    3.40
   5  13 -23    1.30    3.10
   5 -13 -23   -0.70    3.10
  -5  13 -23    0.30    3.10
   5  14 -23    0.50    3.30
   5 -14 -23    3.10    3.60
  -5  14 -23   -1.40    3.80
  -5  15 -23    0.90    3.80
  -5 -15 -23   -2.10    3.40
   5  15 -23    1.40    3.70
  -5 -16 -23    3.40    3.60
   6   0 -23    0.30    2.20
   6  -1 -23    3.70    2.60
   6   1 -23    8.20    2.60
  -6   1  23    6.10    2.30
  -6  -1  23    3.50    2.30
   6  -2 -23    8.10    2.70
   6   2 -23    6.60    2.60
   6  -3 -23   13.00    2.90
   6   3 -23   16.70    2.80
  -6   3  23   12.80    2.60
   6  -4 -23    4.60    2.90
  -6   4  23    5.30    3.00
   6   4 -23    5.70    2.90
   6  -5 -23   26.80    2.70
  -6   5  23   28.60    2.80
   6   5 -23   27.30    2.60
   6  -6 -23    0.80    2.70
  -6   6  23    0.00    2.90
   6   6 -23    3.20    2.40
  -6  -6  23   -0.90    2.40
   6  -7 -23    0.70    2.30
   6   7 -23   -1.20    2.50
  -6  -7  23    0.80    2.90
   6  -8 -23   27.60    2.60
   6   8 -23   31.30    3.10
   6  -9 -23    5.80    2.40
  -6   9 -23    3.10    2.80
  -6  -9  23    4.70    2.30
   6   9 -23    2.90    2.70
  -6  10 -23    9.90    3.10
   6 -10 -23    7.40    3.20
  -6 -10  23    2.00    2.80
   6  10 -23    3.80    2.40
   6  11 -23   -0.40    3.10
  -6 -11  23    1.50    3.00
  -6  11 -23   -3.40    3.30
   6 -11 -23    0.70    2.90
   6  12 -23    2.50    2.90
  -6 -12  23   -1.20    2.80
  -6  12 -23    1.50    3.30
   6 -12 -23   -2.60    3.50
   6  13 -23    5.30    3.30
  -6 -13  23    0.80    3.20
  -6  13 -23   -1.00    3.20
   6 -13 -23   -1.30    3.10
   6  14 -23   -2.90    3.40
  -6  14 -23   -2.70    3.80
   6 -14 -23   -1.00    3.60
   6  15 -23   -2.30    3.60
  -6  15 -23    0.10    3.80
   7  -1 -23   -4.50    2.40
   7   1 -23    3.60    2.20
   7  -2 -23    3.40    2.30
   7   2 -23   -1.20    2.80
  -7   2  23    1.40    2.40
  -7   3  23   12.50    2.40
   7   3 -23   16.50    2.80
   7  -3 -23   16.90    2.80
   7  -4 -23    7.80    2.40
   7   4 -23    8.90    2.80
  -7   4  23    4.80    2.40
   7  -5 -23    0.00    2.40
  -7   5  23    0.10    2.60
   7   5 -23    5.10    2.70
   7  -6 -23    6.50    2.80
  -7   6  23    2.00    2.80
   7   6 -23    5.60    2.50
  -7  -6  23    5.80    2.40
  -7   7  23   83.19    3.60
   7  -7 -23   85.89    3.60
   7   7 -23   90.99    3.50
   7  -8 -23   17.30    3.00
   7   8 -23   22.50    3.20
   7   9 -23    7.60    2.90
   7  -9 -23    3.70    2.80
  -7  -9  23    6.50    2.60
   7  10 -23    1.90    3.00
  -7 -10  23    1.80    2.40
   7 -10 -23    1.10    2.50
  -7  11 -23    0.60    3.30
   7  11 -23   -0.40    3.20
  -7 -11  23    0.20    3.10
   7 -11 -23    3.80    3.10
   7  12 -23    0.40    2.70
  -7  12 -23    0.60    3.20
  -7 -12  23    1.10    3.00
   7 -12 -23    1.50    3.10
   7 -13 -23    0.90    3.20
   7  13 -23    0.50    3.40
  -7 -13  23    2.10    3.30
  -7  13 -23    4.50    3.50
   7 -14 -23    5.60    3.60
  -7 -14  23    2.30    3.30
   7  14 -23    4.70    3.40
  -7  14 -23    4.70    3.90
   7  15 -23   -0.90    3.80
  -7  15 -23    1.70    3.60
   8   0 -23    0.40    2.70
   8  -1 -23   10.40    2.40
   8   1 -23    8.20    2.40
   8  -2 -23   13.40    2.30
   8   2 -23   14.50    3.00
   8  -3 -23    4.90    2.30
   8   3 -23    8.40    2.70
   8  -4 -23   -3.40    2.40
   8   4 -23    3.90    2.70
   8  -5 -23   13.20    3.00
   8   5 -23    8.50    3.00
  -8   6  23    8.30    2.80
   8  -6 -23    7.30    2.50
   8   6 -23    6.60    2.50
   8   7 -23    0.20    2.90
  -8   7  23    0.40    2.30
   8  -7 -23   -0.10    2.70
   8   8 -23   -1.50    2.60
  -8   8  23    2.40    2.60
   8  -8 -23    4.90    2.80
   8   9 -23    8.40    3.00
  -8   9  23   10.90    3.10
   8  -9 -23   10.20    2.90
   8  10 -23   -1.40    3.00
  -8 -10  23   -4.60    2.80
   8 -10 -23    3.70    2.90
   8 -11 -23   -0.40    2.90
   8  11 -23    3.40    3.00
  -8 -11  23    5.90    3.20
   8 -12 -23    1.10    3.20
   8  12 -23    1.50    3.10
  -8  12 -23    2.30    3.20
  -8 -12  23    0.50    3.00
   8 -13 -23   -0.70    3.00
  -8  13 -23    0.80    3.30
  -8 -13  23    1.90    3.30
   8  13 -23   -0.90    3.40
   8  14 -23    0.60    3.40
   8 -14 -23    2.40    3.50
  -8 -14  23   -1.40    3.20
  -8  14 -23    4.10    3.80
   9  -1 -23    1.20    2.40
   9   1 -23    1.80    2.80
   9  -2 -23    3.10    2.40
   9   2 -23   -0.30    2.80
   9  -3 -23    1.10    2.30
   9   3 -23   -0.60    2.40
   9   4 -23    9.50    2.50
   9  -4 -23    9.80    2.50
   9   5 -23   10.80    2.50
   9  -5 -23   10.50    3.00
   9   6 -23   -1.70    2.80
  -9   6  23   -0.20    3.10
   9  -6 -23    1.70    2.50
   9   7 -23   -2.80    2.50
  -9   7  23   -1.60    3.00
   9  -7 -23   -3.70    2.80
   9  -8 -23    0.60    2.70
   9   8 -23    3.90    2.90
  -9   8  23    4.30    2.90
   9  -9 -23   -1.80    2.90
   9   9 -23    2.30    2.60
  -9   9  23    2.60    3.20
  -9  10  23    5.40    3.00
   9 -10 -23    2.00    3.20
   9  10 -23    3.10    3.00
  -9 -10  23   -1.20    3.00
   9 -11 -23    0.20    3.00
   9  11 -23    1.10    3.30
  -9 -11  23    3.80    3.20
   9 -12 -23    0.10    3.20
  -9 -12  23    2.00    3.10
   9  12 -23   -3.10    2.80
   9  13 -23    0.50    3.50
   9 -13 -23    1.10    3.40
  -9  13 -23    0.20    3.60
  -9 -13  23    2.20    3.20
  10   0 -23   -0.50    2.50
  10  -1 -23    9.80    2.80
  10   1 -23   11.60    3.00
  10  -2 -23    2.00    2.80
  10   2 -23    0.30    2.50
  10  -3 -23    1.30    2.80
  10   3 -23    4.30    2.70
  10  -4 -23    1.10    2.50
  10   4 -23    2.30    2.90
  10  -5 -23    4.60    2.90
  10   5 -23    3.30    3.00
  10  -6 -23    2.00    2.70
  10   6 -23   -0.80    2.80
  10  -7 -23    3.20    3.00
  10   7 -23    8.20    2.60
 -10   7  23    5.20    2.50
  10  -8 -23   -1.20    3.10
  10   8 -23   -0.50    3.10
 -10   8  23    0.10    3.00
  10  -9 -23    2.10    3.00
  10   9 -23    3.00    2.60
 -10   9  23    1.90    2.70
  10 -10 -23   -1.50    2.70
 -10  10  23    1.30    3.20
  10  10 -23   -0.70    2.70
  10 -11 -23    1.90    3.40
 -10  11  23    2.00    3.10
  10  11 -23   -0.30    3.30
  10  12 -23    1.80    3.30
  10 -12 -23    1.20    3.40
 -10 -12  23    2.20    2.90
  10  13 -23    0.60    3.20
  10 -13 -23   -1.30    3.60
 -10 -13  23    1.20    3.30
  11  -1 -23   16.00    2.50
  11   1 -23   10.40    2.80
  11  -2 -23    4.90    2.40
  11   2 -23    2.00    3.00
  11  -3 -23    1.40    2.30
  11   3 -23   -2.60    2.50
  11  -4 -23    0.90    3.00
  11   4 -23    1.50    2.50
  11  -5 -23    3.20    2.40
  11   5 -23    2.50    2.40
  11  -6 -23   -0.10    3.00
  11   6 -23    1.80    2.40
  11  -7 -23    9.90    2.90
  11   7 -23    8.70    2.70
  11  -8 -23   -1.30    3.20
  11   8 -23   -1.90    3.30
 -11   8  23   -2.20    3.40
  11  -9 -23    2.60    3.30
 -11   9  23    4.10    3.20
  11   9 -23    1.70    2.60
  11 -10 -23   -1.70    3.00
 -11  10  23    2.10    3.00
  11  10 -23    1.70    3.10
  11  11 -23   -1.20    3.40
 -11  11  23    1.00    3.40
  11 -11 -23   -1.30    3.50
  11  12 -23    5.20    3.50
 -11  12  23   -0.50    3.10
 -11 -12  23    2.30    2.80
  11 -12 -23    1.20    3.20
  12   0 -23    1.90    2.50
  12   1 -23    5.70    2.70
  12  -1 -23    5.00    2.90
  12  -2 -23    4.50    2.90
  12   2 -23    5.00    3.00
  12  -3 -23   -0.70    2.80
  12   3 -23    3.70    2.60
  12  -4 -23    1.00    2.60
  12   4 -23    2.20    2.50
  12  -5 -23    1.50    2.90
  12   5 -23    4.80    2.50
  12  -6 -23    1.60    2.40
  12   6 -23    1.30    2.50
  12  -7 -23   -2.70    2.80
  12   7 -23    1.40    2.50
  12  -8 -23   -0.50    3.30
 -12   8  23   -1.90    3.40
  12   8 -23    2.40    3.20
  12   9 -23   -0.30    2.50
  12  -9 -23   -1.30    3.20
 -12   9  23   -1.10    3.50
  12  10 -23    2.10    3.40
 -12  10  23   -1.40    3.30
  12 -10 -23    3.00    3.30
  12 -11 -23   -1.30    3.40
  12  11 -23   -0.10    3.20
 -12  11  23    3.70    3.20
  13   1 -23    0.80    2.60
  13  -1 -23   -1.30    2.60
  13  -2 -23    0.90    2.50
  13   2 -23    1.30    2.60
  13  -3 -23    0.80    2.50
  13   3 -23    3.90    2.90
  13  -4 -23   -1.00    2.50
  13   4 -23   -3.30    2.80
  13  -5 -23   -1.40    3.00
  13   5 -23   -0.60    2.50
  13  -6 -23   -3.00    2.80
  13   6 -23    0.70    2.50
  13   7 -23    5.10    2.50
  13  -7 -23   -0.60    2.70
  13   8 -23   -3.30    2.70
 -13   8  23    0.70    2.80
  13  -8 -23    2.50    2.80
  13  -9 -23    1.60    2.90
  13   9 -23   -1.60    3.20
 -13   9  23    0.80    3.20
  13 -10 -23   -0.60    3.40
  13  10 -23   -0.30    2.80
 -13  10  23   -2.40    3.10
  14   0 -23   -0.50    2.50
  14   1 -23    4.80    2.50
  14  -1 -23   -0.30    2.60
  14   2 -23    1.20    2.50
  14  -2 -23    4.50    2.60
  14   3 -23   -1.90    2.70
  14  -3 -23    0.30    2.50
  14  -4 -23    0.30    2.90
  14  -5 -23   -2.90    2.60
  14   5 -23    3.70    3.10
  14  -6 -23   10.10    3.20
  14   6 -23    4.90    3.10
  14  -7 -23    3.40    2.80
  14   7 -23   -0.60    3.10
  14  -8 -23    1.50    3.20
  14   8 -23    1.70    2.80
  14  -9 -23    2.20    3.30
  14   9 -23    3.50    2.80
  15   1 -23   -1.70    2.80
  15  -1 -23   -2.30    2.80
  15  -2 -23    1.30    2.70
  15   2 -23    3.90    3.30
  15  -3 -23    2.30    2.70
  15  -4 -23    0.90    3.00
  15   4 -23   -0.80    3.20
  15  -5 -23   -0.10    2.70
  15   5 -23   -0.70    3.20
  15  -6 -23    8.20    3.30
  15   6 -23   -0.90    3.20
  15  -7 -23    1.90    3.30
  15   7 -23    4.60    3.40
  16   0 -23   -3.60    2.80
  16  -1 -23   -2.40    3.30
  16  -2 -23    0.90    2.90
  16   2 -23    0.10    3.20
  16  -3 -23    2.10    2.90
  16   3 -23   -0.50    2.90
  16  -4 -23    4.10    2.90
  16   4 -23    2.30    3.20
  16  -5 -23   -2.30    3.20
   0   0 -24    6.60    2.60
   0  -1 -24    1.80    2.20
   0   1 -24   -0.20    2.60
   0  -2 -24  133.89    3.70
   0   2 -24  140.89    3.80
   0  -3 -24    1.30    2.70
   0   3 -24    0.90    2.80
   0  -4 -24   -0.40    2.90
   0   4 -24   -0.20    2.40
   0  -5 -24    0.80    2.80
   0   5 -24   -0.50    3.00
   0  -6 -24  195.88    4.10
   0   6 -24  204.48    4.20
   0  -7 -24   -2.40    2.80
   0   7 -24   -0.90    2.40
   0   8 -24   52.89    3.40
   0  -8 -24   48.60    3.30
   0   9 -24   -2.40    2.70
   0  -9 -24   -1.00    2.80
   0  10 -24    4.40    3.10
   0 -10 -24    3.70    2.70
   0  11 -24   -1.90    3.10
   0 -11 -24   -3.60    3.00
   0  12 -24   15.60    3.50
   0 -12 -24   11.60    3.20
   0  13 -24   -0.80    3.40
   0 -13 -24   -0.30    3.00
   0 -14 -24    2.40    3.40
   0  14 -24   -0.60    3.30
   0 -15 -24    0.00    3.30
   0  15 -24    3.10    3.60
   0  16 -24    3.60    3.90
  -1  -1 -24   15.20    2.80
  -1   1 -24   17.10    2.40
   1  -1 -24   18.00    2.70
   1   1 -24   16.70    2.40
  -1  -2 -24   -1.00    2.20
  -1   2 -24   -0.40    2.30
   1  -2 -24    1.40    2.20
   1   2 -24   -1.10    2.20
  -1  -3 -24    0.40    2.30
  -1   3 -24    0.30    2.30
   1  -3 -24    0.40    2.30
   1   3 -24   -0.60    2.30
  -1  -4 -24    2.30    2.40
  -1   4 -24    1.50    3.00
   1  -4 -24    5.10    2.40
   1   4 -24    2.80    2.80
  -1  -5 -24    0.20    2.40
  -1   5 -24    1.70    2.50
   1  -5 -24   -0.80    2.80
   1   5 -24    1.80    2.50
   1   6 -24   38.60    3.40
  -1  -6 -24   38.90    3.40
  -1   6 -24   39.00    3.30
   1  -6 -24   40.50    3.30
   1   7 -24    8.90    3.10
  -1  -7 -24    7.50    2.50
  -1   7 -24    9.60    2.90
   1  -7 -24    5.90    3.00
   1   8 -24   55.79    3.30
  -1  -8 -24   55.49    2.90
   1  -8 -24   51.49    3.30
  -1   8 -24   61.29    3.00
   1   9 -24    2.00    2.30
  -1  -9 -24    4.10    2.20
   1  -9 -24    2.00    2.60
  -1   9 -24   -0.40    2.90
  -1  10 -24    1.80    2.90
   1  10 -24    8.10    3.00
  -1 -10 -24    2.50    2.80
   1 -10 -24    2.20    2.90
  -1  11 -24    6.10    3.00
   1  11 -24   10.10    3.20
  -1 -11 -24    6.90    3.10
   1 -11 -24    9.50    2.60
   1 -12 -24    0.60    3.20
  -1  12 -24    0.90    3.30
   1  12 -24    2.70    3.30
  -1 -12 -24    1.00    3.00
   1 -13 -24   -0.60    3.30
  -1  13 -24    0.20    3.30
   1  13 -24   -0.20    3.30
  -1 -13 -24   -0.10    3.20
   1 -14 -24   -0.60    3.20
  -1  14 -24   -4.20    3.30
   1  14 -24    6.50    3.30
  -1 -14 -24    1.00    3.10
  -1  15 -24    2.80    3.90
   1  15 -24    2.70    3.80
  -1 -15 -24    0.40    3.70
   1  16 -24    1.50    3.60
  -1  16 -24   -0.60    3.70
  -2   0 -24   53.59    2.70
   2   0 -24   52.09    2.60
   2   1 -24    1.60    2.60
  -2  -1 -24   -0.70    2.20
  -2   1 -24    1.10    2.70
   2  -1 -24   -0.30    2.20
   2   2 -24   23.40    2.80
  -2  -2 -24   19.20    2.30
  -2   2 -24   20.80    2.90
   2  -2 -24   23.00    2.40
   2   3 -24   18.40    3.00
  -2  -3 -24   19.40    2.90
  -2   3 -24   17.10    2.50
   2  -3 -24   15.20    2.50
   2   4 -24   68.89    3.20
  -2  -4 -24   64.59    3.30
  -2   4 -24   64.99    3.10
   2  -4 -24   65.79    3.10
   2   5 -24    4.30    2.80
  -2  -5 -24    3.80    2.50
  -2   5 -24    2.70    2.90
   2  -5 -24    3.70    2.50
   2   6 -24    3.30    2.50
  -2  -6 -24   -1.20    2.80
  -2   6 -24    3.50    3.00
   2  -6 -24    0.60    3.00
   2   7 -24    0.30    2.30
  -2  -7 -24    1.30    2.30
  -2   7 -24   -2.90    3.00
   2  -7 -24   -0.60    2.40
   2  -8 -24   13.40    2.40
   2   8 -24   15.70    2.50
  -2  -8 -24   14.90    3.00
  -2   8 -24   16.80    3.00
   2  -9 -24    3.10    2.40
   2   9 -24    2.90    2.80
  -2  -9 -24    4.30    2.70
  -2   9 -24    3.40    2.80
   2 -10 -24   15.40    3.20
   2  10 -24   16.00    3.00
  -2 -10 -24   14.10    2.90
  -2  10 -24   18.80    3.10
  -2  11 -24    1.00    3.20
   2 -11 -24   -0.50    3.20
   2  11 -24    1.40    3.00
  -2 -11 -24   -1.70    2.80
  -2  12 -24    2.40    3.60
   2 -12 -24    1.60    3.30
   2  12 -24    3.40    3.20
  -2 -12 -24    0.80    2.90
  -2  13 -24   -1.30    3.20
   2 -13 -24    3.60    3.20
   2  13 -24   -0.30    3.40
  -2 -13 -24   -1.20    3.10
   2 -14 -24    3.10    3.50
  -2  14 -24    5.00    3.40
   2  14 -24    2.60    3.60
  -2 -14 -24    1.80    3.20
  -2  15 -24    1.10    3.90
  -2 -15 -24   -0.40    3.60
   2  15 -24    1.00    3.80
   2  16 -24   -3.00    3.80
  -2  16 -24    0.80    3.70
   3  -1 -24   36.20    2.60
   3   1 -24   30.40    2.60
   3  -2 -24    0.10    2.80
   3   2 -24   -2.40    2.30
  -3   2 -24    3.40    2.60
   3  -3 -24   21.40    3.10
   3   3 -24   26.80    2.50
  -3   3 -24   22.20    3.00
   3  -4 -24   11.30    3.10
   3   4 -24   10.60    2.90
  -3   4 -24   12.30    2.50
   3  -5 -24    1.40    2.50
   3   5 -24   -0.40    2.40
  -3   5 -24    4.80    3.10
   3  -6 -24   23.20    2.70
   3   6 -24   18.30    3.20
  -3   6 -24   22.50    2.90
   3  -7 -24    0.20    2.50
   3   7 -24    2.00    2.30
  -3   7 -24    3.00    2.80
   3  -8 -24   24.20    3.10
   3   8 -24   30.00    2.90
  -3   8 -24   26.80    3.00
   3  -9 -24   19.70    2.80
   3   9 -24   20.00    3.00
  -3  -9 -24   17.00    2.90
  -3   9 -24   19.30    2.70
   3 -10 -24    1.80    2.50
   3  10 -24    3.90    2.80
  -3 -10 -24    5.30    2.80
  -3  10 -24    2.40    3.20
   3 -11 -24   12.10    3.20
   3  11 -24   10.80    3.10
  -3 -11 -24    7.40    2.60
  -3  11 -24    9.60    3.30
  -3 -12 -24    0.60    3.10
   3 -12 -24   -0.60    3.20
   3  12 -24    3.70    3.10
  -3  12 -24    5.80    3.40
  -3  13 -24   -1.70    3.20
   3 -13 -24    1.30    3.20
  -3 -13 -24    1.60    3.00
   3  13 -24   -1.20    3.20
  -3  14 -24    0.00    3.50
   3 -14 -24   -1.50    3.20
  -3 -14 -24    1.20    3.20
   3  14 -24    1.60    3.20
   3  15 -24    0.10    3.40
  -3  15 -24   -0.60    3.80
  -3 -15 -24    2.10    3.30
  -3  16 -24    0.70    3.70
   4   0 -24   28.70    2.50
   4  -1 -24    3.80    2.70
   4   1 -24    4.40    2.60
  -4  -1  24    1.60    2.20
   4  -2 -24   42.60    2.70
   4   2 -24   41.40    3.10
  -4  -2  24   41.40    2.60
   4  -3 -24    9.90    2.50
   4   3 -24    6.10    2.90
  -4  -3  24    9.60    2.40
   4  -4 -24   60.09    2.90
   4   4 -24   57.69    3.30
  -4  -4  24   61.09    3.00
  -4  -5  24    5.20    2.40
   4  -5 -24    7.50    3.10
   4   5 -24    5.90    2.40
  -4   5 -24   11.10    3.10
   4  -6 -24   19.60    2.70
   4   6 -24   20.60    3.20
  -4   6 -24   26.80    3.00
   4  -7 -24    2.50    2.90
   4   7 -24   -2.70    2.90
  -4   7 -24    1.30    2.80
   4  -8 -24   17.30    3.10
   4   8 -24   16.20    2.90
  -4   8 -24   22.20    2.90
   4  -9 -24   -2.70    2.90
   4   9 -24   -0.40    2.80
  -4   9 -24    0.40    2.80
   4 -10 -24   20.50    3.10
   4  10 -24   21.20    3.00
  -4  10 -24   21.40    3.40
   4 -11 -24    0.10    3.10
   4  11 -24    0.00    2.90
  -4  11 -24   -1.20    3.30
   4 -12 -24   -1.10    3.00
  -4 -12 -24    1.80    3.00
   4  12 -24    1.70    2.90
  -4  12 -24   -1.50    3.40
   4 -13 -24    4.00    3.20
  -4 -13 -24    4.00    3.20
   4  13 -24    2.50    3.20
  -4  13 -24    1.00    3.20
  -4  14 -24    0.30    3.80
   4  14 -24    3.70    3.40
   4 -14 -24   -0.80    3.30
  -4 -14 -24    2.60    3.40
  -4  15 -24    1.90    3.60
   4  15 -24   -2.10    3.40
  -4 -15 -24   -1.00    3.40
   5  -1 -24   13.80    2.30
   5   1 -24   13.00    2.30
  -5   1  24   14.00    2.40
  -5  -1  24   12.30    2.70
   5  -2 -24    4.10    2.60
   5   2 -24    3.70    2.30
  -5   2  24    6.60    2.40
   5  -3 -24    4.00    3.00
   5   3 -24    4.70    2.40
  -5   3  24    6.20    2.40
  -5  -3  24    6.80    2.30
   5  -4 -24   13.70    2.90
   5   4 -24    9.90    2.40
  -5  -4  24   11.80    2.50
   5  -5 -24    0.50    2.40
   5   5 -24   -0.90    2.40
  -5  -5  24    1.60    2.70
   5  -6 -24    7.50    3.00
   5   6 -24    6.90    2.80
  -5  -6  24   12.40    2.90
   5  -7 -24   20.70    2.50
   5   7 -24   20.30    3.10
  -5   7 -24   15.50    3.10
  -5  -7  24   19.10    3.00
   5  -8 -24   -1.80    2.30
  -5   8 -24    2.10    2.70
   5   8 -24   -1.00    2.80
  -5  -8  24    1.00    2.30
  -5  -9  24    0.30    2.30
   5  -9 -24    0.20    2.40
  -5   9 -24    0.50    2.80
   5   9 -24    0.70    2.60
  -5 -10  24   -1.10    2.40
   5 -10 -24    0.60    3.10
  -5  10 -24    2.70    3.20
   5  10 -24    0.60    2.80
   5 -11 -24   -1.80    2.90
  -5  11 -24   -1.60    3.20
   5  11 -24   -0.40    2.50
   5 -12 -24   -2.90    3.20
  -5  12 -24   -1.20    3.40
   5  12 -24   -0.90    3.10
   5  13 -24   -1.10    3.30
   5 -13 -24    2.90    3.20
  -5  13 -24    3.10    3.20
   5  14 -24    0.10    3.40
  -5 -14 -24    0.40    3.20
   5 -14 -24   -0.40    3.30
  -5  14 -24   -1.10    3.70
  -5  15 -24    3.10    3.40
   5  15 -24   -1.30    3.50
  -5 -15 -24    0.50    3.50
   6   0 -24   11.80    2.60
   6  -1 -24   -0.10    2.20
   6   1 -24    2.40    2.30
  -6   1  24    5.10    2.70
   6  -2 -24   18.90    2.50
   6   2 -24   19.60    2.50
  -6   2  24   21.00    3.00
   6  -3 -24   -1.90    2.30
   6   3 -24    0.60    2.40
  -6   3  24   -0.10    2.80
   6  -4 -24   54.19    2.80
   6   4 -24   54.09    2.70
  -6   4  24   44.40    2.80
   6  -5 -24    9.60    3.00
   6   5 -24   12.90    2.40
  -6   5  24   12.30    2.80
   6  -6 -24   12.60    2.50
   6   6 -24   13.60    2.90
   6  -7 -24    5.40    2.80
  -6  -7  24    3.80    2.40
   6   7 -24    4.70    2.90
   6  -8 -24    7.50    2.80
   6   8 -24    5.80    2.50
   6  -9 -24    1.70    2.90
  -6  -9  24    0.50    3.00
   6   9 -24   -0.20    2.40
  -6   9 -24    3.90    2.80
  -6 -10  24    1.70    3.00
   6 -10 -24    5.80    2.90
  -6  10 -24    5.10    3.00
   6  10 -24    3.70    2.50
   6  11 -24    5.40    3.20
  -6 -11  24    7.60    2.90
   6 -11 -24    1.50    3.20
  -6  11 -24    5.50    3.10
   6  12 -24    1.40    2.70
  -6 -12  24    1.70    3.20
   6 -12 -24    3.60    3.10
  -6  12 -24    3.80    3.00
   6  13 -24    0.30    3.30
   6 -13 -24   -0.10    3.10
  -6  13 -24    0.80    3.20
   6  14 -24   -1.10    3.30
  -6  14 -24   -2.50    3.70
   6 -14 -24    1.80    3.60
   6  15 -24    0.40    3.70
  -6  15 -24    2.50    3.40
   7   1 -24   10.70    2.50
   7  -1 -24   11.40    2.70
   7  -2 -24    1.50    2.30
   7   2 -24    3.90    2.30
   7  -3 -24    3.00    2.30
   7   3 -24    3.40    2.30
  -7   3  24    0.30    2.70
  -7  -3  24   -1.00    2.30
   7   4 -24   34.20    2.70
  -7   4  24   30.00    3.10
   7  -4 -24   39.70    3.00
   7  -5 -24    1.90    2.70
  -7   5  24   -0.40    2.30
   7   5 -24    4.30    2.40
   7  -6 -24    2.40    2.30
  -7   6  24    5.00    2.70
  -7  -6  24    2.10    2.90
   7   6 -24    2.20    3.00
  -7   7  24   12.60    3.00
   7  -7 -24   10.40    2.50
   7   7 -24    6.50    2.50
   7  -8 -24   -3.40    2.60
   7   8 -24   -4.10    3.00
  -7  -9  24    9.40    3.00
   7  -9 -24   10.50    2.50
   7   9 -24    9.40    3.10
   7  10 -24    1.30    3.10
  -7  10 -24   -1.40    3.00
  -7 -10  24    0.50    3.00
   7 -10 -24    1.60    3.00
   7  11 -24    3.10    3.10
  -7  11 -24    2.80    3.00
  -7 -11  24    4.40    3.00
   7 -11 -24    5.70    3.10
   7  12 -24    3.80    3.00
  -7 -12  24   -0.60    3.00
  -7  12 -24    5.50    3.30
   7 -12 -24    4.10    3.20
   7  13 -24   -1.10    3.40
  -7 -13  24    0.80    3.30
  -7  13 -24    2.00    3.20
   7 -13 -24   -2.20    3.20
   7 -14 -24   -0.70    3.70
  -7 -14  24   -1.50    3.40
   7  14 -24   -1.90    3.50
  -7  14 -24    0.80    3.50
   8   0 -24   17.50    2.60
   8   1 -24   48.80    2.90
   8  -1 -24   43.00    3.10
   8  -2 -24   66.69    2.90
   8   2 -24   59.79    3.10
   8  -3 -24   13.40    2.50
   8   3 -24   13.50    2.50
   8  -4 -24   -2.00    2.90
   8   4 -24   -2.00    2.70
  -8   5  24   18.90    2.50
   8  -5 -24   12.30    2.50
   8   5 -24   18.70    2.50
  -8   6  24   17.40    2.60
   8  -6 -24   17.30    2.90
   8   6 -24   19.70    2.60
  -8   7  24    0.50    2.90
   8  -7 -24   -0.30    2.40
  -8  -7  24    1.80    2.50
   8   7 -24   -1.20    3.00
   8   8 -24   16.10    2.80
  -8   8  24   14.20    2.90
   8  -8 -24   14.50    2.40
   8   9 -24   -0.10    2.50
   8  -9 -24    1.00    2.60
   8  10 -24    0.00    2.80
  -8 -10  24    0.10    2.90
   8 -10 -24    0.80    3.10
   8  11 -24   -1.30    2.90
  -8 -11  24    2.80    2.80
   8 -11 -24   -0.70    3.00
   8 -12 -24    2.20    3.20
   8  12 -24    4.40    3.10
  -8  12 -24    2.30    3.20
  -8 -12  24    0.10    3.20
   8 -13 -24    1.00    3.10
  -8 -13  24    2.10    3.20
  -8  13 -24    2.00    3.30
   8  13 -24    3.00    3.50
   8 -14 -24   -0.30    3.40
  -8 -14  24   -5.20    3.50
  -8  14 -24    0.70    3.80
   9  -1 -24    2.10    2.30
   9   1 -24    5.50    2.70
   9  -2 -24   27.30    2.70
   9   2 -24   32.20    3.10
   9  -3 -24    0.00    2.40
   9   3 -24    0.30    2.80
   9   4 -24    5.60    2.70
   9  -4 -24    6.10    2.80
   9   5 -24    0.80    2.80
   9  -5 -24   -1.70    2.80
   9   6 -24   -0.10    2.90
   9  -6 -24   -0.20    2.90
  -9   7  24   49.20    3.00
   9   7 -24   49.70    3.00
   9  -7 -24   51.49    3.10
   9   8 -24    5.90    3.10
  -9   8  24    1.60    2.90
   9  -8 -24   -0.70    2.50
  -9   9  24   -3.30    2.60
   9  -9 -24   -2.60    2.50
   9   9 -24   -0.60    2.50
   9 -10 -24   -1.10    3.20
   9  10 -24   -0.70    2.80
   9 -11 -24    7.30    2.90
   9  11 -24    0.00    3.00
  -9 -11  24    0.90    3.50
   9 -12 -24   -0.10    3.20
  -9 -12  24    1.20    3.20
   9  12 -24    0.10    3.30
   9 -13 -24    0.00    3.70
  -9  13 -24    0.20    3.80
  -9 -13  24    1.80    3.20
   9  13 -24   -0.60    3.40
  10   0 -24   85.69    3.20
  10  -1 -24   -0.90    2.40
  10   1 -24   -6.90    3.00
  10  -2 -24    0.00    2.40
  10   2 -24    0.10    2.40
  10  -3 -24   10.00    2.50
  10   3 -24   10.20    2.50
  10  -4 -24   26.10    2.70
  10   4 -24   26.10    2.70
  10  -5 -24    1.00    3.10
  10   5 -24   -1.00    2.40
  10  -6 -24    8.90    2.70
  10   6 -24   11.50    2.60
  10  -7 -24    2.90    2.50
  10   7 -24    3.00    2.50
 -10   7  24   -1.90    3.00
  10  -8 -24    5.50    3.20
  10   8 -24    6.40    3.00
 -10   8  24    2.90    3.20
  10  -9 -24    3.10    2.70
  10   9 -24   -1.50    2.90
 -10   9  24   -1.70    3.30
  10 -10 -24    2.90    3.00
 -10  10  24   -1.70    3.20
  10  10 -24   -0.60    2.70
  10 -11 -24   -0.10    3.40
  10  11 -24    5.70    2.90
  10 -12 -24   -5.70    3.40
 -10 -12  24   -1.70    3.40
  10  12 -24    0.00    2.90
  10 -13 -24   -0.90    3.70
  11   1 -24   24.60    2.90
  11  -1 -24   20.70    3.10
  11  -2 -24   22.30    2.90
  11   2 -24   22.20    3.20
  11  -3 -24   -3.20    3.00
  11   3 -24    3.40    2.40
  11  -4 -24    6.00    2.50
  11   4 -24    8.00    2.50
  11  -5 -24    1.80    2.40
  11   5 -24    4.20    2.40
  11  -6 -24   -0.30    2.90
  11   6 -24    0.30    2.50
  11  -7 -24    3.60    2.90
 -11   7  24    1.30    2.80
  11   7 -24   -1.50    2.90
  11   8 -24    0.90    3.00
  11  -8 -24   -1.70    3.40
 -11   8  24    1.60    2.70
  11  -9 -24   -1.70    3.50
 -11   9  24    0.90    2.80
  11   9 -24   -1.30    2.50
  11 -10 -24    0.70    3.30
 -11  10  24    6.40    3.20
  11  10 -24   -0.50    2.80
  11  11 -24    1.90    3.10
 -11  11  24   -0.30    3.50
  11 -11 -24    0.90    3.40
  11  12 -24    3.10    3.50
 -11 -12  24    1.60    3.40
  12   0 -24   12.20    2.60
  12  -1 -24   10.80    2.50
  12   1 -24   14.80    3.10
  12  -2 -24   11.00    2.60
  12   2 -24    5.80    2.70
  12  -3 -24    5.80    2.50
  12   3 -24    2.80    2.90
  12  -4 -24   -0.20    2.50
  12   4 -24   -1.40    2.60
  12  -5 -24    2.40    3.20
  12   5 -24    1.00    2.50
  12  -6 -24    8.10    2.60
  12   6 -24    2.00    2.60
  12  -7 -24    0.10    2.60
  12   7 -24    1.90    2.90
  12  -8 -24    1.90    3.10
 -12   8  24    2.40    2.80
  12   8 -24   -1.60    3.20
  12  -9 -24    0.40    2.80
 -12   9  24   -0.50    2.80
  12   9 -24    1.00    2.60
  12  10 -24   -5.20    3.40
 -12  10  24   -2.20    3.20
  12 -10 -24    0.30    3.30
 -12  11  24    3.10    3.40
  12 -11 -24    1.50    3.30
  13  -1 -24    6.30    2.50
  13   1 -24    2.80    3.20
  13  -2 -24    2.60    2.70
  13   2 -24   10.40    2.70
  13  -3 -24    9.00    2.50
  13   3 -24   10.80    3.10
  13  -4 -24    3.50    3.10
  13   4 -24    5.90    2.70
  13  -5 -24    5.60    2.70
  13   5 -24   -1.40    2.70
  13  -6 -24    2.60    3.00
  13   6 -24   -1.60    2.50
  13  -7 -24    0.10    3.00
  13   7 -24   -1.90    2.60
  13   8 -24   -0.20    3.10
 -13   8  24   -1.20    3.30
  13  -8 -24   -2.50    2.80
  13  -9 -24    3.60    3.20
  13   9 -24   -1.40    3.10
 -13   9  24    0.90    3.20
  14   0 -24   12.40    2.80
  14  -1 -24    0.60    2.60
  14   1 -24    0.10    3.20
  14  -2 -24    3.80    2.60
  14   2 -24    1.60    2.60
  14   3 -24   -0.40    3.20
  14  -3 -24   -1.30    2.90
  14  -4 -24   -1.60    3.10
  14   5 -24    4.70    2.70
  14  -5 -24    4.60    2.80
  14  -6 -24    1.80    3.10
  14   6 -24    1.30    2.90
  14  -7 -24    5.90    3.10
  14   7 -24   -0.40    2.80
  14  -8 -24    4.70    3.30
  14   8 -24    5.40    3.00
 -14   8  24    1.40    3.00
  15  -1 -24   -3.20    2.70
  15   1 -24    3.70    3.10
  15  -2 -24    7.40    2.70
  15   2 -24    3.50    2.80
  15  -3 -24   -2.10    2.80
  15   3 -24   -3.30    2.80
  15  -4 -24   -0.80    3.20
  15  -5 -24   -1.60    2.90
  15   5 -24    1.20    3.20
  15  -6 -24    4.10    3.40
  15   6 -24    5.00    3.40
  16   0 -24    0.10    2.80
  16  -2 -24    3.40    2.70
  16   2 -24   -0.30    3.40
  16  -3 -24    5.40    3.00
  16   3 -24    3.20    3.00
  -1  -1 -25    0.70    2.70
  -1   1 -25    2.80    2.40
   1  -1 -25    3.20    2.30
   1   1 -25    3.40    2.70
  -1  -2 -25   26.80    2.50
  -1   2 -25   23.60    2.90
   1  -2 -25   24.20    2.50
   1   2 -25   28.10    2.60
  -1  -3 -25    2.00    2.30
  -1   3 -25    4.70    2.40
   1  -3 -25    7.80    2.90
   1   3 -25    3.70    2.80
  -1  -4 -25   10.40    2.50
  -1   4 -25    8.80    2.40
   1  -4 -25   12.00    3.00
   1   4 -25   10.60    2.80
  -1  -5 -25    0.40    2.40
  -1   5 -25    6.70    3.10
   1  -5 -25    0.40    2.40
   1   5 -25   -0.40    2.40
   1   6 -25   54.29    3.00
  -1  -6 -25   50.09    3.40
  -1   6 -25   55.79    3.30
   1  -6 -25   48.90    2.90
   1   7 -25    0.30    2.90
  -1  -7 -25   -0.40    2.40
  -1   7 -25    2.80    2.40
   1  -7 -25    3.50    2.40
   1   8 -25   17.40    2.90
  -1  -8 -25   21.00    2.90
   1  -8 -25   23.80    3.10
  -1   8 -25   18.30    3.00
   1   9 -25    2.90    2.40
  -1  -9 -25    4.70    2.60
   1  -9 -25    5.10    2.80
  -1   9 -25    2.60    2.90
  -1  10 -25    0.50    3.00
   1  10 -25    1.50    3.00
  -1 -10 -25   -0.90    2.40
   1 -10 -25    0.80    2.70
   1 -11 -25   -0.30    3.00
  -1  11 -25    1.10    2.90
   1  11 -25    1.90    2.90
  -1 -11 -25    2.50    3.00
   1 -12 -25    3.40    3.00
  -1  12 -25    0.00    3.20
   1  12 -25    2.80    3.00
  -1 -12 -25   -1.90    2.90
   1 -13 -25   -0.60    3.00
  -1  13 -25    4.40    3.20
   1  13 -25   -3.20    3.20
  -1 -13 -25   -0.30    3.10
   1 -14 -25   -2.50    3.20
  -1  14 -25   -0.60    3.60
   1  14 -25   -2.30    3.20
  -1 -14 -25   -0.10    3.20
   1 -15 -25    2.30    3.40
  -1  15 -25    1.60    3.80
   1  15 -25    4.90    3.50
  -1 -15 -25    4.30    3.60
  -2   0 -25    2.50    2.30
   2   0 -25    1.40    2.20
   2   1 -25    7.30    2.30
  -2  -1 -25    8.60    2.30
  -2   1 -25   -0.20    2.80
   2  -1 -25    3.00    2.80
   2   2 -25   -0.40    2.70
  -2  -2 -25    2.10    2.30
  -2   2 -25    2.70    2.90
   2  -2 -25    1.90    2.30
   2   3 -25    6.20    2.40
  -2  -3 -25    7.30    2.70
  -2   3 -25    7.30    3.00
   2  -3 -25    7.90    2.40
   2   4 -25    3.10    2.40
  -2  -4 -25    3.90    2.80
  -2   4 -25    5.60    2.40
   2  -4 -25    2.40    2.40
   2   5 -25    0.00    2.90
  -2  -5 -25    0.00    2.40
  -2   5 -25   -1.60    3.00
   2  -5 -25   -1.50    2.70
   2   6 -25    1.00    2.40
  -2  -6 -25   -2.40    2.80
  -2   6 -25    1.30    2.30
   2  -6 -25    0.70    2.70
   2  -7 -25    8.10    2.90
   2   7 -25   10.70    2.40
  -2  -7 -25    6.70    2.50
  -2   7 -25    7.30    2.40
   2  -8 -25    3.20    2.60
   2   8 -25    2.80    2.40
  -2  -8 -25    6.70    2.80
  -2   8 -25    4.20    2.70
   2  -9 -25   12.80    2.70
   2   9 -25   12.80    2.50
  -2  -9 -25   11.50    2.90
  -2   9 -25   17.50    3.00
   2 -10 -25   10.50    3.30
   2  10 -25   11.20    3.10
  -2 -10 -25    9.20    3.00
  -2  10 -25   12.90    3.00
  -2  11 -25    0.10    2.90
   2 -11 -25    0.40    2.90
   2  11 -25    8.10    2.90
  -2 -11 -25    3.10    2.50
  -2  12 -25    2.90    3.00
   2 -12 -25   -2.50    3.10
   2  12 -25    1.70    2.80
  -2 -12 -25    3.10    3.00
  -2  13 -25   -1.00    3.10
   2 -13 -25   -0.70    3.10
   2  13 -25   -2.20    3.30
  -2 -13 -25    1.70    3.10
   2 -14 -25    0.60    3.20
  -2  14 -25    0.20    3.40
   2  14 -25    5.10    3.10
  -2 -14 -25    0.80    3.30
   2 -15 -25    1.70    3.40
  -2  15 -25    0.40    3.60
  -2 -15 -25    0.80    3.30
   2  15 -25    1.40    3.70
   3  -1 -25   13.70    2.40
   3   1 -25   17.90    2.40
  -3   1 -25   16.70    2.80
   3  -2 -25    3.50    2.70
   3   2 -25    1.30    2.30
  -3   2 -25    1.80    2.80
   3  -3 -25    5.00    2.80
   3   3 -25    0.30    2.30
  -3   3 -25    8.10    3.00
   3  -4 -25    1.10    2.70
   3   4 -25    1.20    2.40
  -3   4 -25    4.40    2.40
   3  -5 -25    1.70    2.50
   3   5 -25    2.90    2.70
  -3   5 -25    0.90    3.00
   3  -6 -25    1.40    2.70
   3   6 -25   -0.70    2.40
  -3   6 -25   -1.60    2.40
   3  -7 -25    2.60    2.40
   3   7 -25   -2.50    2.40
  -3  -7 -25    5.30    2.40
  -3   7 -25    2.30    2.30
   3  -8 -25    4.30    2.70
   3   8 -25    3.10    2.40
  -3  -8 -25    5.70    3.00
  -3   8 -25    1.90    2.60
   3  -9 -25   -1.40    2.70
  -3  -9 -25    2.90    2.80
   3   9 -25   -0.50    2.20
  -3   9 -25   -0.60    2.90
   3 -10 -25    1.50    2.50
   3  10 -25   -1.70    3.00
  -3 -10 -25    2.50    2.90
  -3  10 -25    3.60    2.80
   3 -11 -25    1.60    3.10
   3  11 -25    4.90    2.90
  -3 -11 -25    4.60    2.40
  -3  11 -25    2.30    2.90
  -3  12 -25   -2.60    3.30
   3 -12 -25   -1.20    2.90
   3  12 -25    1.20    3.00
  -3 -12 -25    1.90    3.10
  -3  13 -25   -0.60    3.20
   3 -13 -25    1.70    2.90
  -3 -13 -25    2.60    3.20
   3  13 -25    0.10    3.20
  -3  14 -25    2.30    3.40
   3 -14 -25    2.00    3.30
  -3 -14 -25    2.30    3.30
   3  14 -25    0.60    3.30
   3  15 -25   -2.20    3.40
  -3  15 -25   -1.80    3.60
  -3 -15 -25    0.90    3.40
   4   0 -25   -0.70    2.20
   4  -1 -25   -5.90    2.60
   4   1 -25    0.60    2.80
   4  -2 -25    1.90    2.30
   4   2 -25   -3.90    2.60
   4  -3 -25   13.80    2.40
   4   3 -25   15.50    2.70
   4  -4 -25    3.20    2.30
   4   4 -25    3.10    2.80
  -4   4 -25    1.10    2.40
   4  -5 -25    6.50    2.70
   4   5 -25    0.30    2.30
  -4   5 -25    6.10    3.00
   4  -6 -25   -0.90    2.30
   4   6 -25   -0.20    2.70
  -4   6 -25   -0.50    2.80
   4  -7 -25   -0.20    2.80
   4   7 -25   -1.00    2.30
  -4   7 -25    0.20    2.30
   4  -8 -25   20.80    2.70
   4   8 -25   18.40    2.60
  -4   8 -25   15.70    2.80
   4  -9 -25   20.30    3.00
   4   9 -25   21.50    2.50
  -4   9 -25   18.90    3.10
   4 -10 -25    1.90    3.10
   4  10 -25    1.80    2.70
  -4  10 -25    1.80    2.90
   4 -11 -25    1.90    2.50
  -4 -11 -25    1.50    2.50
   4  11 -25   -0.30    3.10
  -4  11 -25    0.00    2.50
   4 -12 -25    1.50    3.10
  -4 -12 -25    0.00    3.10
   4  12 -25    2.60    3.10
  -4  12 -25    1.50    3.10
   4 -13 -25    0.30    3.20
  -4 -13 -25   -0.30    3.30
   4  13 -25    4.50    3.20
  -4  13 -25    1.70    3.10
  -4  14 -25   -0.90    3.30
   4  14 -25    0.40    3.40
   4 -14 -25    0.10    3.60
  -4 -14 -25    1.60    3.30
  -4  15 -25    1.20    3.50
   4  15 -25    5.20    3.50
  -4 -15 -25    3.00    3.50
   5  -1 -25    2.30    2.30
   5   1 -25   -1.70    2.20
  -5   1  25    2.40    2.30
  -5  -1  25    1.10    2.30
   5  -2 -25   -1.50    2.80
   5   2 -25    1.70    2.80
  -5   2  25    2.30    2.30
   5  -3 -25    1.60    2.60
   5   3 -25    1.40    2.80
  -5  -3  25    3.20    2.80
   5  -4 -25   16.80    2.90
   5   4 -25    9.50    2.80
   5  -5 -25    1.80    2.70
   5   5 -25   -1.30    2.30
  -5  -5  25    1.20    2.70
   5  -6 -25    2.60    2.40
   5   6 -25    0.90    2.70
  -5  -6  25    2.30    2.30
   5  -7 -25    0.80    2.40
   5   7 -25    3.80    2.50
  -5   7 -25    0.00    2.90
  -5  -7  25   -0.50    2.90
   5  -8 -25    1.60    2.80
   5   8 -25    3.40    2.90
  -5   8 -25    4.50    2.80
  -5  -8  25    0.60    3.00
   5  -9 -25   21.60    2.90
   5   9 -25   23.30    3.00
  -5   9 -25   29.70    3.10
   5 -10 -25   10.60    2.60
   5  10 -25    9.80    3.00
  -5  10 -25   12.40    3.20
   5 -11 -25   -3.00    3.10
  -5  11 -25    1.80    3.10
   5  11 -25   -0.10    3.00
   5 -12 -25    3.00    3.10
  -5  12 -25    5.30    3.30
   5  12 -25    0.10    3.00
   5  13 -25    0.60    3.40
   5 -13 -25    2.10    3.30
  -5  13 -25    2.50    3.20
   5  14 -25    2.00    3.30
  -5 -14 -25    0.90    3.30
   5 -14 -25    1.80    3.40
  -5  14 -25    1.20    3.40
   5  15 -25   -3.60    3.70
  -5 -15 -25    1.10    3.60
   6   0 -25    0.70    2.20
   6  -1 -25    7.10    2.30
   6   1 -25    5.40    2.30
  -6   1  25    8.90    2.30
   6  -2 -25    9.40    2.60
   6   2 -25    7.10    2.70
  -6   2  25    8.20    2.30
   6  -3 -25    0.00    2.60
   6   3 -25    3.30    2.80
  -6   3  25    5.20    2.20
   6  -4 -25    1.40    2.40
   6   4 -25    0.40    2.80
  -6   4  25   -0.60    2.40
   6  -5 -25    5.00    2.40
   6   5 -25    9.40    2.60
   6  -6 -25   27.20    3.10
   6   6 -25   31.50    2.70
   6  -7 -25    1.60    2.50
   6   7 -25    4.20    2.80
   6  -8 -25    0.30    2.30
  -6   8 -25    1.20    2.30
  -6  -8  25    1.50    2.60
   6   8 -25    6.30    3.10
   6  -9 -25    2.70    2.70
  -6   9 -25    1.10    3.10
  -6  -9  25   -0.40    2.50
   6   9 -25    2.40    3.00
   6 -10 -25    6.20    3.10
  -6 -10  25    4.90    2.60
  -6  10 -25    9.20    2.90
   6  10 -25    6.40    3.10
  -6 -11  25    0.80    3.10
   6 -11 -25   -2.60    2.90
  -6  11 -25   -3.70    3.10
   6  11 -25    2.80    3.10
   6  12 -25   -0.10    3.00
   6 -12 -25    3.20    3.20
  -6  12 -25    0.70    3.30
   6  13 -25    1.60    3.40
   6 -13 -25    0.10    3.40
  -6  13 -25    0.90    3.20
   6  14 -25   -1.60    3.40
   6 -14 -25    0.00    3.30
  -6  14 -25    1.00    3.50
   7  -1 -25    2.80    2.40
  -7   1  25   -0.30    2.40
   7   1 -25    0.90    2.40
   7  -2 -25    1.60    2.40
   7   2 -25    6.00    3.00
   7  -3 -25   -1.30    2.30
   7   3 -25    2.80    2.70
  -7   3  25    1.10    2.30
  -7  -3  25   -0.80    2.90
   7  -4 -25   10.10    2.50
  -7   4  25   10.80    2.50
   7   4 -25   11.60    2.80
   7  -5 -25    4.60    2.50
  -7   5  25    9.50    2.80
   7   5 -25    7.10    2.90
  -7   6  25    0.30    2.50
   7  -6 -25   -2.00    2.80
  -7  -6  25    1.90    2.40
   7   6 -25   -0.30    2.50
   7  -7 -25    5.80    3.10
  -7  -7  25    6.70    3.10
   7   7 -25   10.90    3.10
   7  -8 -25    7.10    2.70
  -7  -8  25    2.50    2.60
   7   8 -25    2.00    2.70
   7  -9 -25    2.50    3.10
  -7  -9  25    1.00    2.50
   7   9 -25   -0.50    2.50
   7  10 -25    3.70    3.10
  -7  10 -25    8.40    3.20
  -7 -10  25    2.10    2.80
   7 -10 -25    5.00    3.20
   7  11 -25   -1.00    2.80
  -7 -11  25    1.10    3.10
  -7  11 -25    1.60    2.90
   7 -11 -25    2.70    2.90
   7  12 -25    2.70    3.20
  -7  12 -25    1.00    3.20
  -7 -12  25   -0.40    3.10
   7 -12 -25   -2.00    3.00
   7  13 -25   -3.10    3.30
  -7 -13  25   -0.40    3.20
  -7  13 -25    2.40    3.30
   7 -13 -25    1.00    3.40
   7 -14 -25    3.40    3.40
   7  14 -25    3.00    3.50
  -7  14 -25    5.50    3.80
   8   0 -25   -0.10    2.50
  -8   0  25    0.50    2.40
   8  -1 -25   10.30    2.50
   8   1 -25   11.50    2.70
   8  -2 -25    0.00    2.30
   8   2 -25    1.70    2.80
   8  -3 -25    9.30    2.40
   8   3 -25    5.10    2.50
  -8  -3  25    9.60    2.50
   8  -4 -25   -0.50    2.30
   8   4 -25    3.10    2.30
  -8  -4  25    0.60    2.30
  -8   5  25    6.30    2.90
   8  -5 -25    7.40    2.50
   8   5 -25    4.40    2.50
  -8   6  25   -0.50    2.50
   8  -6 -25    3.40    2.80
   8   6 -25    0.70    2.90
  -8   7  25    7.10    2.50
   8  -7 -25    6.30    3.00
  -8  -7  25    6.90    2.50
   8   7 -25    6.80    2.50
   8   8 -25   16.60    3.10
  -8   8  25   11.20    2.80
  -8  -8  25   10.00    3.20
   8  -8 -25   13.50    3.00
   8   9 -25    1.10    3.00
  -8  -9  25    0.80    2.80
   8  -9 -25    1.80    3.10
   8  10 -25   -1.20    2.70
  -8 -10  25   -3.10    3.00
   8 -10 -25    1.70    3.20
   8  11 -25    2.40    2.90
  -8  11 -25   -4.20    3.10
  -8 -11  25   -1.60    3.40
   8 -11 -25   -3.70    3.30
   8 -12 -25    0.50    3.40
   8  12 -25    1.90    3.50
  -8  12 -25    1.90    3.40
  -8 -12  25   -3.80    3.20
   8 -13 -25   -4.60    3.50
   8  13 -25    0.80    3.50
  -8 -13  25    2.50    3.20
  -8  13 -25    0.00    3.70
   9  -1 -25    1.10    2.30
   9   1 -25    3.00    3.00
   9  -2 -25   10.40    2.90
   9   2 -25   12.90    2.60
   9  -3 -25    0.10    2.80
   9   3 -25   -2.30    2.40
   9  -4 -25    0.50    2.40
   9   4 -25    0.90    2.80
   9   5 -25   10.20    2.50
   9  -5 -25    7.00    2.50
   9   6 -25    8.10    2.50
   9  -6 -25    7.20    2.90
   9   7 -25    0.80    2.80
  -9   7  25   -0.20    2.80
   9  -7 -25    0.90    3.00
   9   8 -25   -2.60    2.60
  -9   8  25    3.90    2.50
   9  -8 -25   -1.70    3.00
   9  -9 -25    3.00    3.20
   9   9 -25    5.10    3.20
  -9   9  25    8.40    3.10
   9 -10 -25    3.30    3.20
   9  10 -25    5.50    3.20
   9 -11 -25    0.70    3.10
   9  11 -25   -1.10    3.00
  -9 -11  25    6.70    2.90
   9 -12 -25   -0.30    3.10
  -9  12 -25    1.30    3.40
   9  12 -25    1.70    3.20
  -9 -12  25    4.70    3.20
   9 -13 -25    2.00    3.40
  -9  13 -25   -1.80    3.60
  -9 -13  25   -2.30    3.30
   9  13 -25   -2.40    3.50
  10   0 -25    1.60    2.80
  10   1 -25    0.00    2.70
  10  -1 -25    2.40    2.70
  10   2 -25    1.40    3.10
  10  -2 -25    2.70    2.40
  10  -3 -25    1.10    2.80
  10   3 -25   -0.20    2.40
  10  -4 -25    1.00    3.00
  10   4 -25    0.60    2.40
  10  -5 -25   -2.10    2.50
  10   5 -25    0.30    2.50
  10  -6 -25    2.10    3.10
  10   6 -25   -2.60    2.50
  10  -7 -25    1.50    2.50
  10   7 -25    1.60    3.20
 -10   7  25    1.20    2.50
  10  -8 -25    0.40    2.70
  10   8 -25   -0.20    2.70
 -10   8  25    5.20    3.10
  10  -9 -25    0.40    2.80
  10   9 -25   -2.00    3.00
 -10   9  25   -2.80    3.30
  10 -10 -25   -3.30    3.30
  10  10 -25   -0.80    2.70
 -10  10  25    1.00    2.80
  10 -11 -25    0.10    3.20
  10  11 -25    3.10    2.90
  10 -12 -25    2.00    3.40
 -10 -12  25   -1.30    2.90
  10  12 -25    3.40    2.80
  11  -1 -25   -2.10    2.40
  11   1 -25    0.70    3.00
  11  -2 -25    0.00    2.40
  11   2 -25    1.50    2.80
  11  -3 -25   -1.00    2.40
  11   3 -25    2.30    2.90
  11  -4 -25    4.00    2.40
  11   4 -25    0.30    2.80
  11  -5 -25    2.90    3.10
  11   5 -25    1.70    2.50
  11  -6 -25    1.70    2.50
  11   6 -25    8.90    2.90
 -11   6  25    2.80    2.50
  11  -7 -25    2.30    2.80
  11   7 -25    0.60    3.10
 -11   7  25   -0.40    2.80
  11  -8 -25    4.60    3.40
  11   8 -25    3.30    2.70
 -11   8  25    5.10    3.40
  11  -9 -25    2.30    3.60
 -11   9  25    3.40    3.50
  11   9 -25    8.50    3.10
  11 -10 -25    0.50    3.00
 -11  10  25   -0.20    3.50
  11  10 -25    0.50    2.80
 -11  11  25   -0.20    2.80
  11 -11 -25   -1.00    3.50
  11  11 -25    0.40    3.20
  12   0 -25    1.80    2.80
  12  -1 -25   -0.70    2.50
  12   1 -25    1.00    3.00
  12  -2 -25    0.40    2.50
  12   2 -25    1.50    2.50
  12  -3 -25    4.40    2.40
  12   3 -25    7.10    2.50
  12  -4 -25    0.50    3.10
  12   4 -25    3.80    3.10
  12  -5 -25   -0.60    2.60
  12   5 -25    0.90    2.80
  12  -6 -25    0.70    3.00
  12   6 -25    1.60    2.80
  12  -7 -25    0.70    2.50
  12   7 -25   -4.60    3.00
  12  -8 -25   -1.50    2.80
 -12   8  25   -5.00    3.40
  12   8 -25    1.70    2.70
  12  -9 -25    1.70    3.00
 -12   9  25    2.10    3.50
  12   9 -25    2.70    3.00
  12  10 -25   -0.60    3.30
 -12  10  25   -0.30    3.40
  12 -10 -25    3.70    3.40
  13   1 -25    0.90    2.50
  13  -1 -25    2.90    3.00
  13   2 -25    0.30    2.50
  13  -2 -25    2.40    2.80
  13   3 -25   -2.20    2.60
  13  -3 -25    0.00    3.00
  13  -4 -25    2.90    2.80
  13   4 -25    2.30    3.40
  13  -5 -25    8.20    2.70
  13   5 -25    2.30    3.10
  13  -6 -25    1.60    3.00
  13   6 -25    0.30    3.10
  13  -7 -25    1.70    3.30
  13   7 -25    0.90    3.00
  13   8 -25   -2.70    3.10
 -13   8  25   -0.50    2.80
  13  -8 -25   -0.80    3.10
  13   9 -25    1.30    2.90
 -13   9  25   -0.10    3.10
  13  -9 -25    1.50    3.50
  14   0 -25   -2.30    3.30
  14   1 -25    2.70    2.70
  14  -1 -25   -0.80    3.10
  14   2 -25   -0.10    2.70
  14  -2 -25    0.70    3.00
  14  -3 -25   -0.90    3.30
  14   3 -25    0.60    2.80
  14   4 -25    3.70    3.20
  14  -4 -25    0.00    2.60
  14  -5 -25    0.40    2.70
  14   5 -25   -1.10    2.80
  14   6 -25   -2.00    2.80
  14  -6 -25   -1.70    2.60
  14  -7 -25   -2.00    3.40
  14   7 -25    0.00    3.00
  15   1 -25    0.20    3.20
  15  -1 -25   -5.50    3.10
  15   2 -25   -1.50    2.80
  15  -2 -25    4.50    3.00
  15  -3 -25    4.40    3.50
  15   3 -25    2.20    3.40
  15  -4 -25    0.60    2.80
  15  -5 -25    2.90    2.80
  15   5 -25    1.70    2.80
  16   0 -25    2.00    2.80
  16   1 -25   -0.50    3.20
   0   0 -26  115.69    3.10
   0  -1 -26   -0.50    2.60
   0   1 -26    1.60    2.70
   0  -2 -26   22.80    2.50
   0   2 -26   21.30    3.10
   0  -3 -26   -1.90    2.40
   0   3 -26   -1.60    2.80
   0  -4 -26   10.20    2.40
   0   4 -26   12.30    2.50
   0  -5 -26   -1.00    2.30
   0   5 -26    1.90    2.40
   0  -6 -26    8.10    3.00
   0   6 -26    7.80    2.50
   0  -7 -26    0.60    2.30
   0   7 -26    1.20    2.70
   0   8 -26   10.80    2.80
   0  -8 -26    3.60    2.70
   0   9 -26   -1.70    2.30
   0  -9 -26    1.80    2.80
   0  10 -26    1.00    3.20
   0 -10 -26   -0.80    2.90
   0  11 -26    0.40    2.80
   0 -11 -26    1.00    2.80
   0  12 -26    5.40    2.90
   0 -12 -26    2.80    3.10
   0  13 -26    1.90    3.00
   0 -13 -26   -1.30    3.20
   0 -14 -26   -1.80    3.30
   0  14 -26    1.40    3.30
   0 -15 -26   -2.50    3.30
   0  15 -26    1.50    3.50
  -1  -1 -26    0.30    2.20
  -1   1 -26    1.90    2.70
   1  -1 -26   -2.10    2.80
   1   1 -26   -0.20    2.20
  -1  -2 -26    0.50    2.30
  -1   2 -26    4.40    2.70
   1  -2 -26   -0.30    2.30
   1   2 -26   -0.70    2.70
  -1  -3 -26   14.30    2.80
  -1   3 -26    9.70    2.90
   1  -3 -26   12.80    2.40
   1   3 -26   15.90    2.50
  -1  -4 -26   15.10    2.80
  -1   4 -26   12.50    2.80
   1  -4 -26   15.40    2.40
   1   4 -26   18.20    2.50
   1   5 -26    9.00    2.80
  -1  -5 -26    6.80    2.40
  -1   5 -26   20.80    2.50
   1  -5 -26    2.20    3.00
   1   6 -26    0.70    2.40
  -1  -6 -26    2.10    2.40
  -1   6 -26   -0.80    2.40
   1  -6 -26    0.10    2.70
   1   7 -26   11.20    2.80
  -1  -7 -26    9.40    2.40
  -1   7 -26   12.10    2.90
   1  -7 -26    8.70    2.90
   1   8 -26    2.80    2.60
  -1  -8 -26    0.10    3.00
   1  -8 -26    1.20    2.30
  -1   8 -26    6.40    2.70
   1   9 -26    4.10    2.40
  -1  -9 -26    4.60    2.80
   1  -9 -26    8.20    2.40
  -1   9 -26    5.30    2.50
  -1  10 -26    1.00    3.10
   1  10 -26    0.40    3.00
  -1 -10 -26   -0.60    2.80
   1 -10 -26    2.70    2.90
   1 -11 -26    1.60    3.10
  -1  11 -26    2.50    3.00
   1  11 -26    2.50    2.50
  -1 -11 -26    4.10    2.50
   1 -12 -26    1.50    2.80
  -1  12 -26    5.80    3.00
   1  12 -26    6.50    3.10
  -1 -12 -26   -1.00    3.10
   1 -13 -26    2.00    3.00
  -1  13 -26    7.50    3.20
   1  13 -26    3.90    3.10
  -1 -13 -26    2.20    3.30
   1 -14 -26    0.20    3.20
  -1  14 -26    0.20    3.60
   1  14 -26   -1.00    3.20
  -1 -14 -26    0.00    3.40
   1 -15 -26    1.20    3.30
  -1  15 -26    1.50    3.50
   1  15 -26   -1.20    3.70
  -1 -15 -26    1.80    3.40
   2   0 -26   44.60    2.90
  -2   0 -26   41.00    2.60
   2   1 -26   -1.50    2.20
  -2  -1 -26    0.40    2.30
  -2   1 -26   -2.10    2.80
   2  -1 -26    0.10    2.20
   2   2 -26   44.20    2.80
  -2  -2 -26   48.90    2.70
  -2   2 -26   46.60    3.00
   2  -2 -26   44.10    3.20
   2   3 -26    1.70    2.30
  -2  -3 -26    0.80    2.70
  -2   3 -26   -0.20    2.80
   2  -3 -26   -0.60    2.70
   2   4 -26    7.50    2.50
  -2  -4 -26    6.00    2.70
  -2   4 -26    9.60    2.70
   2  -4 -26    7.70    2.90
   2   5 -26    1.20    2.90
  -2  -5 -26   -0.20    2.30
  -2   5 -26   -0.70    2.40
   2  -5 -26    2.20    2.80
   2   6 -26    3.70    2.50
  -2  -6 -26    7.80    2.50
  -2   6 -26    2.10    2.50
   2  -6 -26    6.00    2.50
   2  -7 -26    1.60    3.00
   2   7 -26   -1.30    2.30
  -2  -7 -26   -0.70    2.30
  -2   7 -26    3.00    2.80
   2  -8 -26   15.40    3.00
   2   8 -26   15.90    2.90
  -2  -8 -26   22.00    3.10
  -2   8 -26   17.00    2.80
   2  -9 -26    4.80    2.70
   2   9 -26    1.00    2.30
  -2  -9 -26   -0.50    2.80
  -2   9 -26   -1.10    2.40
   2 -10 -26    5.70    3.10
   2  10 -26   13.30    2.90
  -2 -10 -26    6.60    3.00
  -2  10 -26    5.20    3.00
  -2  11 -26   -2.90    3.10
   2 -11 -26    0.60    2.50
   2  11 -26   -0.50    2.80
  -2 -11 -26    3.10    2.80
  -2  12 -26   -1.50    3.10
   2 -12 -26   -2.60    3.10
   2  12 -26   -1.40    3.10
  -2 -12 -26    0.90    3.00
  -2  13 -26   -1.80    3.20
   2 -13 -26   -2.50    3.30
   2  13 -26    2.20    3.20
  -2 -13 -26   -2.00    3.10
   2 -14 -26    0.30    3.20
  -2  14 -26    1.90    3.60
   2  14 -26    2.90    3.20
  -2 -14 -26    1.50    3.40
   2 -15 -26   -0.80    3.40
  -2  15 -26    3.10    3.60
   2  15 -26   -0.80    3.40
  -2 -15 -26    5.30    3.50
   3  -1 -26   -2.40    2.20
   3   1 -26    0.30    2.20
  -3  -1 -26    5.00    2.50
  -3   1 -26   -2.20    2.80
   3  -2 -26   14.10    2.40
   3   2 -26   15.40    2.50
  -3  -2 -26   15.90    2.50
  -3   2 -26   19.80    3.00
   3  -3 -26    9.40    2.30
   3   3 -26   10.30    2.30
  -3  -3 -26    7.40    2.30
  -3   3 -26    8.60    2.80
   3  -4 -26    6.40    2.40
  -3  -4 -26    6.10    2.30
   3   4 -26    3.40    2.30
  -3   4 -26    2.60    2.40
   3  -5 -26   13.50    2.50
   3   5 -26   12.70    2.90
  -3  -5 -26   17.90    2.50
  -3   5 -26   19.50    2.90
   3  -6 -26    4.90    2.90
   3   6 -26    3.10    2.40
  -3  -6 -26    2.70    2.80
  -3   6 -26    4.90    2.40
   3  -7 -26    2.30    2.30
   3   7 -26    1.50    2.40
  -3  -7 -26    1.70    2.30
  -3   7 -26    1.40    2.60
   3  -8 -26   -1.80    2.60
   3   8 -26   -0.80    2.70
  -3  -8 -26    1.30    3.00
  -3   8 -26    0.10    2.30
   3  -9 -26   -1.00    2.70
   3   9 -26   -3.20    2.60
  -3  -9 -26    1.20    2.90
  -3   9 -26   -1.70    2.40
   3 -10 -26   -0.50    2.40
   3  10 -26    1.90    2.50
  -3 -10 -26   -0.90    2.90
  -3  10 -26   -0.40    3.10
   3 -11 -26    1.70    3.10
   3  11 -26    0.30    3.10
  -3 -11 -26   -1.20    2.50
  -3  11 -26    0.90    3.10
  -3  12 -26    0.50    3.20
   3 -12 -26    1.10    3.00
   3  12 -26    3.00    2.90
  -3 -12 -26    1.10    3.10
  -3  13 -26    3.30    3.20
   3 -13 -26    2.80    3.00
  -3 -13 -26    2.50    3.00
   3  13 -26    8.40    3.40
  -3  14 -26   -0.30    3.40
   3 -14 -26   -2.40    3.30
  -3 -14 -26    0.90    3.30
   3  14 -26   -0.70    3.50
   3  15 -26    4.70    3.60
  -3  15 -26    1.70    3.80
   3 -15 -26    4.00    3.40
  -3 -15 -26    2.50    3.30
   4   0 -26    3.00    2.20
   4  -1 -26    0.20    2.60
   4   1 -26    0.00    2.70
   4  -2 -26   12.90    2.40
   4   2 -26   11.90    2.40
   4  -3 -26    7.80    2.30
   4   3 -26    8.30    2.30
  -4   3 -26    6.90    2.30
   4  -4 -26   -2.70    2.40
   4   4 -26    3.90    2.50
  -4   4 -26    2.20    2.30
   4  -5 -26    0.00    2.80
   4   5 -26    0.10    2.70
  -4   5 -26    0.70    2.90
   4  -6 -26   -1.00    2.40
   4   6 -26    2.00    2.40
  -4   6 -26    2.20    2.70
   4  -7 -26    4.10    2.90
   4   7 -26    0.30    2.80
  -4   7 -26    1.00    2.30
   4  -8 -26   -1.80    2.60
   4   8 -26    0.60    3.00
  -4   8 -26   -0.60    2.30
   4  -9 -26   11.00    2.80
   4   9 -26    9.30    3.00
  -4   9 -26   13.80    3.10
   4 -10 -26    8.50    3.10
  -4 -10 -26    3.90    2.50
   4  10 -26    8.50    2.90
  -4  10 -26    4.40    2.80
   4 -11 -26    1.90    2.90
  -4 -11 -26    2.80    3.00
   4  11 -26    1.40    3.00
  -4  11 -26    1.50    3.10
   4 -12 -26   -2.10    3.20
  -4 -12 -26    1.20    3.10
   4  12 -26   -0.50    3.20
  -4  12 -26    4.10    3.20
   4 -13 -26   -2.60    3.30
  -4 -13 -26    0.30    3.30
   4  13 -26    2.10    3.30
  -4  13 -26   -1.80    3.30
   4  14 -26   -1.00    3.40
  -4  14 -26   -1.80    3.40
   4 -14 -26    2.60    3.30
  -4 -14 -26   -1.30    3.20
   5  -1 -26    1.80    2.80
   5   1 -26    2.50    2.60
  -5  -1  26   -3.60    2.60
   5  -2 -26   28.40    2.50
   5   2 -26   27.30    2.90
  -5  -2  26   28.30    2.60
   5  -3 -26   -0.20    2.20
   5   3 -26    1.30    2.30
  -5  -3  26   -1.70    2.40
   5  -4 -26   28.30    2.90
   5   4 -26   24.30    2.80
   5  -5 -26    5.20    2.90
   5   5 -26    2.40    3.00
  -5  -5  26    7.10    2.50
   5  -6 -26    1.70    2.40
   5   6 -26    2.80    2.40
  -5   6 -26    4.00    3.00
  -5  -6  26    1.80    2.90
   5  -7 -26    2.90    2.80
   5   7 -26   -0.20    3.00
  -5  -7  26    4.00    2.30
  -5   7 -26    2.50    2.90
   5  -8 -26    3.70    2.80
   5   8 -26    1.60    2.90
  -5   8 -26    3.30    2.80
   5  -9 -26    1.90    2.90
   5   9 -26   -1.00    2.70
  -5   9 -26    2.40    2.80
   5 -10 -26   -1.20    3.00
   5  10 -26    2.00    3.00
  -5  10 -26    1.40    2.90
   5 -11 -26    0.30    2.90
  -5  11 -26    2.30    2.80
   5  11 -26    1.80    3.20
   5 -12 -26    1.30    3.10
  -5  12 -26    0.40    2.90
   5  12 -26    2.30    3.00
   5  13 -26    0.90    3.10
   5 -13 -26   -0.40    3.40
  -5 -13 -26   -1.00    3.20
  -5  13 -26   -0.50    3.20
   5  14 -26    3.40    3.40
  -5 -14 -26   -2.70    3.40
   5 -14 -26   -0.10    3.50
  -5  14 -26   -1.60    3.30
   6   0 -26    1.40    2.40
   6  -1 -26   -2.40    2.80
   6   1 -26   -0.80    2.70
   6  -2 -26   -0.20    2.70
   6   2 -26    0.20    2.40
  -6   2  26    0.10    2.30
  -6  -2  26    6.30    2.40
   6  -3 -26    0.20    2.60
   6   3 -26    0.90    2.40
  -6   3  26   -0.40    2.30
   6  -4 -26   -0.70    3.00
   6   4 -26   -0.40    2.30
   6  -5 -26    9.70    2.50
   6   5 -26    9.40    2.90
   6  -6 -26   -1.60    2.80
   6   6 -26   -0.50    2.40
  -6  -6  26   -1.60    2.80
   6  -7 -26   13.90    2.70
   6   7 -26    8.20    3.00
   6  -8 -26    0.60    2.90
  -6   8 -26    2.60    2.30
  -6  -8  26    5.00    3.10
   6   8 -26    1.90    2.60
  -6  -9  26    0.90    3.00
   6  -9 -26    4.20    2.90
  -6   9 -26    4.60    3.10
   6   9 -26    1.00    2.80
   6 -10 -26   13.00    2.80
  -6 -10  26   23.30    3.50
  -6  10 -26   22.90    3.30
   6  10 -26   18.50    2.90
   6 -11 -26    3.30    3.10
  -6  11 -26    0.80    3.20
   6  11 -26    2.50    2.70
   6  12 -26    1.70    3.30
   6 -12 -26    1.90    3.10
  -6  12 -26    0.50    3.20
   6  13 -26    2.30    2.90
   6 -13 -26   -1.50    3.50
  -6  13 -26    1.40    3.20
   6  14 -26    6.30    3.60
   6 -14 -26    2.40    3.60
  -6  14 -26    5.60    3.70
   7  -1 -26   -1.50    2.80
  -7   1  26   -2.70    2.90
   7   1 -26    4.40    3.10
   7  -2 -26   36.90    3.10
   7   2 -26   31.50    2.80
   7   3 -26    1.00    2.40
   7  -3 -26   -1.40    2.80
  -7  -3  26    5.20    2.40
   7  -4 -26    7.10    3.00
  -7   4  26    4.90    3.00
   7   4 -26    2.50    2.40
   7  -5 -26   -0.10    2.50
  -7   5  26    1.70    2.40
   7   5 -26   -0.70    2.40
  -7  -5  26   -0.40    2.40
   7  -6 -26    3.70    2.90
  -7  -6  26    4.90    3.00
   7   6 -26   -1.80    3.00
   7  -7 -26    0.60    2.40
  -7  -7  26    1.80    2.40
   7   7 -26    0.40    2.50
   7  -8 -26    9.60    2.50
  -7  -8  26   11.80    3.20
   7   8 -26   17.00    3.20
  -7   9 -26    8.60    2.60
   7  -9 -26    4.80    2.70
  -7  -9  26    5.10    3.10
   7   9 -26    8.50    3.00
   7  10 -26    0.00    3.10
  -7  10 -26    6.10    3.20
  -7 -10  26    3.30    3.30
   7 -10 -26    3.40    2.70
   7  11 -26   -1.50    3.30
  -7 -11  26   -1.20    3.50
  -7  11 -26   -0.40    3.10
   7 -11 -26   -0.80    3.10
   7  12 -26    0.30    3.50
  -7 -12  26   -3.10    3.10
  -7  12 -26   -1.60    3.00
   7 -12 -26    1.20    3.20
   7  13 -26    0.00    2.70
  -7  13 -26    0.70    3.40
   7 -13 -26   -1.30    3.40
   8   0 -26    1.20    2.40
  -8   0  26   -2.00    2.50
   8   1 -26    4.20    2.70
   8  -1 -26   -0.10    2.90
  -8  -1  26    2.70    2.70
   8  -2 -26    1.50    2.70
   8   2 -26   -0.70    2.50
   8  -3 -26    2.40    2.70
   8   3 -26   -0.50    2.70
   8  -4 -26    4.30    2.90
   8   4 -26    4.30    2.70
  -8   5  26    3.30    2.50
   8  -5 -26   -2.30    2.50
   8   5 -26   -0.60    2.80
  -8   6  26    1.10    3.10
   8  -6 -26    0.70    2.80
   8   6 -26    1.40    2.50
  -8   7  26   -1.30    2.80
   8  -7 -26    1.50    2.40
   8   7 -26   -2.50    2.80
  -8  -8  26    1.30    2.60
   8  -8 -26    3.10    2.90
   8   8 -26    3.40    2.50
   8   9 -26    1.80    3.00
  -8  -9  26    0.30    2.80
   8  -9 -26    1.60    2.90
   8  10 -26   -0.20    3.30
  -8 -10  26    1.10    3.00
   8 -10 -26   -2.70    2.70
   8  11 -26    2.90    3.60
  -8  11 -26   -1.80    3.40
  -8 -11  26    3.30    3.30
   8 -11 -26    2.80    3.30
   8 -12 -26   -2.30    3.40
   8  12 -26    4.50    3.50
  -8 -12  26    0.20    3.20
  -8  12 -26    1.20    3.20
   8 -13 -26    0.60    3.70
   8  13 -26   -0.30    3.20
  -8 -13  26    1.30    3.40
   9  -1 -26   -0.30    2.50
   9   1 -26    5.60    2.60
   9  -2 -26   22.00    2.60
   9   2 -26   23.90    3.20
   9  -3 -26    1.20    2.40
   9   3 -26    1.40    2.40
   9  -4 -26   12.50    2.50
   9   4 -26   17.00    2.50
   9  -5 -26    2.10    3.00
   9   5 -26    4.20    2.50
   9   6 -26    3.00    2.80
  -9   6  26    1.40    2.50
   9  -6 -26    4.30    2.50
   9   7 -26    6.20    3.10
  -9   7  26    1.50    2.90
   9  -7 -26    5.90    2.90
   9   8 -26   10.40    2.70
  -9   8  26    6.20    3.40
   9  -8 -26    5.80    3.50
   9   9 -26    2.60    2.80
   9  -9 -26    6.30    3.50
   9 -10 -26    4.00    2.70
   9  10 -26    6.90    3.40
  -9 -10  26    2.20    3.10
   9 -11 -26   -0.60    3.40
   9  11 -26   -2.10    3.50
  -9 -11  26   -1.90    3.40
   9 -12 -26    5.50    3.30
  -9  12 -26    6.60    3.30
   9  12 -26    6.30    3.50
  -9 -12  26    1.10    3.50
  10   0 -26   -2.40    2.60
  10   1 -26    2.20    3.20
  10  -1 -26   -1.10    2.40
  10   2 -26    1.10    2.60
  10  -2 -26    2.80    2.70
  10   3 -26    0.80    2.90
  10  -3 -26   -1.40    2.80
  10   4 -26    3.50    3.00
  10  -4 -26   -1.60    2.50
  10  -5 -26    2.90    2.90
  10   5 -26   -0.20    3.10
 -10   5  26   -1.40    2.90
  10  -6 -26    3.90    2.50
  10   6 -26    3.70    2.80
  10  -7 -26    3.20    3.00
  10   7 -26   -0.30    2.60
 -10   7  26    3.80    2.80
  10  -8 -26    4.00    3.30
  10   8 -26    0.90    2.70
 -10   8  26    2.70    2.70
  10  -9 -26   -1.10    3.50
  10   9 -26    3.30    2.90
 -10   9  26    7.60    2.90
  10 -10 -26   -0.20    3.50
  10  10 -26    0.90    3.20
  10 -11 -26    2.00    3.10
  10  11 -26    1.70    3.20
 -10 -11  26    0.80    3.10
  11  -1 -26    1.90    2.50
  11   1 -26   -2.50    2.60
  11  -2 -26    6.40    2.40
  11   2 -26    2.80    2.70
  11  -3 -26    0.00    2.50
  11   3 -26    0.60    2.60
  11  -4 -26    0.40    3.10
  11   4 -26    1.60    2.60
  11  -5 -26    3.00    2.60
  11   5 -26    2.90    2.90
  11  -6 -26   14.70    3.00
  11   6 -26   11.30    3.00
 -11   6  26    4.50    3.00
  11  -7 -26    3.40    2.50
  11   7 -26    1.90    2.50
 -11   7  26   -0.30    2.70
 -11   8  26    0.40    2.80
  11  -8 -26    3.10    2.80
  11   8 -26    2.00    2.60
  11  -9 -26    3.20    2.90
  11   9 -26    3.80    2.90
 -11   9  26   -0.80    3.20
  11 -10 -26    1.20    3.20
 -11  10  26    3.20    2.90
  11  10 -26    8.20    3.20
  12   0 -26    0.60    2.80
  12   1 -26    0.70    2.50
  12  -1 -26   -0.80    3.00
  12  -2 -26    7.70    3.00
  12   2 -26   -3.80    3.00
  12  -3 -26   -0.70    3.00
  12   3 -26   -2.50    2.50
  12  -4 -26   -1.80    2.50
  12   4 -26    0.20    2.70
  12  -5 -26    0.20    2.60
  12   5 -26    5.10    2.90
  12  -6 -26    4.90    2.90
  12   6 -26    6.40    2.80
  12  -7 -26   -0.90    3.20
  12   7 -26    0.60    2.60
  12  -8 -26    2.30    3.10
 -12   8  26    1.60    2.70
  12   8 -26    0.40    2.70
  12  -9 -26   -1.10    3.40
 -12   9  26    1.10    2.70
  12   9 -26   -0.10    3.30
  13   1 -26   -4.40    2.60
  13  -1 -26   -3.90    3.00
  13  -2 -26    6.30    2.90
  13   2 -26   -0.50    3.20
  13  -3 -26    5.10    2.80
  13   3 -26   -1.10    2.70
  13  -4 -26    4.70    2.70
  13   4 -26   12.60    2.80
  13  -5 -26    2.00    3.10
  13   5 -26    0.40    3.00
  13  -6 -26    4.20    2.70
  13   6 -26    8.80    3.50
  13  -7 -26    3.10    3.10
  13   7 -26   -0.10    3.20
 -13   8  26    0.00    3.50
  13  -8 -26    4.20    3.50
  13   8 -26    8.30    3.00
  14   0 -26   -0.20    2.80
  14   1 -26    2.80    2.70
  14  -1 -26   -0.40    3.10
  14  -2 -26    0.80    3.10
  14   2 -26    3.70    3.30
  14  -3 -26    0.10    2.80
  14   3 -26   -2.10    2.80
  14  -4 -26    0.90    2.60
  14   4 -26    0.60    3.30
  14  -5 -26   -0.40    3.30
  14   5 -26   -1.30    3.50
  14   6 -26    1.20    3.10
  14  -6 -26   -0.20    2.80
  15   1 -26   -0.50    2.90
  15  -1 -26    2.80    3.20
  15  -2 -26   14.00    3.10
  15   2 -26   13.50    3.20
  15  -3 -26    4.70    2.80
  15   3 -26   -1.00    2.90
  15  -4 -26   10.20    3.10
  15   4 -26   13.40    3.40
  -1  -1 -27   -1.20    2.30
  -1   1 -27    1.70    2.30
   1  -1 -27   -1.90    2.20
   1   1 -27    1.70    2.20
  -1  -2 -27    5.70    2.70
  -1   2 -27    4.70    2.30
   1  -2 -27    4.10    2.30
   1   2 -27    5.10    2.30
  -1  -3 -27   -0.30    2.70
  -1   3 -27    0.50    2.20
   1  -3 -27    0.60    2.80
   1   3 -27   -0.30    2.20
  -1  -4 -27    1.80    2.80
  -1   4 -27    5.50    2.70
   1  -4 -27    4.90    2.80
   1   4 -27    6.20    2.40
   1   5 -27    5.90    2.70
  -1  -5 -27    6.10    2.80
  -1   5 -27   11.40    2.90
   1  -5 -27    9.00    2.50
   1   6 -27    5.10    2.40
  -1  -6 -27   -0.40    2.40
  -1   6 -27    0.70    2.60
   1  -6 -27    3.20    2.40
   1   7 -27    1.40    2.30
  -1  -7 -27   -2.00    3.00
  -1   7 -27   -0.10    2.50
   1  -7 -27    1.90    2.80
   1   8 -27    0.80    2.40
  -1  -8 -27   -1.70    2.80
   1  -8 -27   -2.90    2.90
  -1   8 -27    1.90    2.30
  -1   9 -27    0.50    2.60
   1   9 -27   -1.00    2.30
  -1  -9 -27   -0.80    2.70
   1  -9 -27    3.50    2.80
  -1  10 -27    0.90    3.00
   1  10 -27    0.00    3.10
  -1 -10 -27   -1.90    2.80
   1 -10 -27    4.40    3.10
   1 -11 -27   -0.60    2.90
  -1  11 -27    1.50    3.20
   1  11 -27    3.50    2.90
  -1 -11 -27   -2.80    3.10
   1 -12 -27   -0.80    3.20
  -1  12 -27   -0.80    3.00
   1  12 -27   -1.30    3.20
  -1 -12 -27    0.70    2.60
   1 -13 -27    2.40    2.90
  -1  13 -27    2.60    3.30
   1  13 -27    0.90    3.20
  -1 -13 -27    3.30    3.20
   1 -14 -27    2.20    3.40
  -1  14 -27    6.60    3.30
   1  14 -27    3.50    3.40
  -1 -14 -27    1.10    3.30
   2   0 -27    1.70    2.60
  -2   0 -27   -0.90    2.50
   2   1 -27   -2.20    2.60
  -2  -1 -27   -0.80    2.20
  -2   1 -27    3.60    2.60
   2  -1 -27    1.40    2.30
   2   2 -27    1.90    2.20
  -2  -2 -27    4.50    2.30
  -2   2 -27    0.00    2.30
   2  -2 -27    0.90    2.30
   2   3 -27    1.90    2.30
  -2  -3 -27    1.70    2.60
  -2   3 -27    3.60    2.20
   2  -3 -27    6.20    2.20
   2   4 -27    0.70    2.50
  -2  -4 -27    3.10    2.60
  -2   4 -27    0.30    2.80
   2  -4 -27    4.40    2.30
   2   5 -27    0.80    2.70
  -2  -5 -27    3.70    2.40
  -2   5 -27    4.60    2.30
   2  -5 -27    4.20    2.40
   2  -6 -27    3.40    2.70
   2   6 -27   -0.80    2.40
  -2  -6 -27   -0.80    2.40
  -2   6 -27   -0.80    2.90
   2  -7 -27    1.30    2.30
   2   7 -27   -0.50    2.30
  -2  -7 -27    1.80    2.70
  -2   7 -27    1.30    2.80
   2  -8 -27   18.70    2.90
   2   8 -27   15.20    3.10
  -2  -8 -27   23.80    3.30
  -2   8 -27   20.80    2.80
   2  -9 -27    2.50    2.80
   2   9 -27    0.40    2.30
  -2  -9 -27    1.60    2.80
  -2   9 -27   -1.30    2.80
   2 -10 -27   -0.40    2.80
   2  10 -27    1.70    2.60
  -2 -10 -27    0.90    3.00
  -2  10 -27    2.10    2.80
  -2  11 -27    1.20    3.00
   2 -11 -27    2.00    2.80
   2  11 -27   -3.90    3.10
  -2 -11 -27   -2.90    3.10
  -2  12 -27   12.30    3.40
   2 -12 -27   11.30    3.20
   2  12 -27   17.20    3.20
  -2 -12 -27    3.40    3.10
  -2  13 -27   -1.20    3.30
   2 -13 -27    0.40    3.20
   2  13 -27    1.60    3.00
  -2 -13 -27   -3.00    3.20
   2 -14 -27    1.00    3.30
  -2  14 -27    7.20    3.50
   2  14 -27    0.90    3.50
  -2 -14 -27    0.80    3.40
   3  -1 -27    1.60    2.30
   3   1 -27   -2.20    2.70
  -3  -1 -27    5.10    2.80
  -3   1 -27   -1.80    2.70
   3  -2 -27    0.90    2.20
   3   2 -27   -4.40    2.40
  -3  -2 -27    1.20    2.40
  -3   2 -27    1.20    2.80
   3  -3 -27   -1.30    2.30
   3   3 -27   -0.60    2.30
  -3   3 -27    2.30    2.70
  -3  -3 -27    1.80    2.30
   3  -4 -27    4.00    2.30
   3   4 -27    1.50    2.70
  -3  -4 -27    6.30    2.40
  -3   4 -27    7.20    2.40
   3  -5 -27    1.70    2.50
   3   5 -27    1.90    2.70
  -3  -5 -27    0.10    2.40
  -3   5 -27    0.30    2.30
   3  -6 -27    0.20    2.80
   3   6 -27   -0.80    2.30
  -3  -6 -27   -0.90    2.90
  -3   6 -27    1.30    2.70
   3  -7 -27    5.30    2.60
   3   7 -27   10.30    2.60
  -3  -7 -27   11.90    2.50
  -3   7 -27    8.70    3.00
   3  -8 -27    0.60    2.40
   3   8 -27   -6.40    3.10
  -3  -8 -27   -3.50    2.90
  -3   8 -27    2.70    2.80
   3  -9 -27    2.10    2.50
   3   9 -27    1.40    2.90
  -3  -9 -27    1.70    2.90
  -3   9 -27   -1.20    2.80
   3 -10 -27    6.90    2.70
   3  10 -27   12.40    3.00
  -3 -10 -27    9.00    3.10
  -3  10 -27    7.40    3.00
   3 -11 -27    0.90    3.10
   3  11 -27    1.90    3.00
  -3 -11 -27    3.50    3.00
  -3  11 -27   -3.00    2.90
  -3  12 -27    0.90    3.20
   3 -12 -27    2.90    2.80
   3  12 -27    2.10    3.20
  -3 -12 -27   -1.80    3.20
  -3  13 -27   -1.20    3.30
   3 -13 -27    0.00    3.00
   3  13 -27   -2.60    3.40
  -3 -13 -27   -1.60    3.10
  -3  14 -27    1.60    3.30
   3 -14 -27    1.40    3.10
  -3 -14 -27    0.00    3.30
   3  14 -27    1.20    3.50
   4   0 -27   -0.80    2.30
   4  -1 -27   -2.10    2.90
   4   1 -27    0.40    2.90
   4  -2 -27   -1.90    2.30
   4   2 -27    3.10    2.50
  -4   2 -27   -3.00    2.30
   4  -3 -27   -2.00    2.30
   4   3 -27    2.80    2.40
  -4   3 -27    6.10    2.30
   4  -4 -27    1.60    2.30
   4   4 -27    0.80    2.30
  -4   4 -27    2.90    2.30
   4  -5 -27   -0.60    2.80
   4   5 -27   -0.10    2.90
  -4   5 -27    2.70    2.80
   4  -6 -27   -0.20    2.30
   4   6 -27    0.90    2.40
  -4   6 -27    1.30    2.40
   4  -7 -27    0.60    3.00
   4   7 -27    1.10    3.10
  -4   7 -27   -1.40    2.40
   4  -8 -27    2.70    2.50
   4   8 -27    2.70    3.00
  -4   8 -27    3.80    2.40
   4  -9 -27    2.00    2.40
   4   9 -27    4.00    2.80
  -4  -9 -27   -0.10    2.60
  -4   9 -27    2.00    2.50
   4 -10 -27   17.30    3.00
  -4 -10 -27   12.00    2.80
   4  10 -27   19.60    3.20
  -4  10 -27   17.20    3.20
   4 -11 -27   -2.40    3.20
  -4 -11 -27   -3.00    3.00
   4  11 -27   -1.10    3.10
  -4  11 -27   -1.90    3.00
   4 -12 -27    2.70    3.40
  -4 -12 -27    1.20    3.20
   4  12 -27   -0.10    3.00
  -4  12 -27    2.60    3.10
  -4  13 -27    1.60    3.30
   4 -13 -27    3.70    3.10
  -4 -13 -27    2.40    3.30
   4  13 -27    4.80    3.20
  -4  14 -27    1.20    3.50
   4 -14 -27    3.80    3.60
  -4 -14 -27    3.60    3.20
   4  14 -27    7.30    3.30
   5  -1 -27   -1.70    3.00
   5   1 -27    0.60    2.90
   5  -2 -27   14.60    2.50
   5   2 -27   14.90    2.60
   5  -3 -27    2.10    2.40
   5   3 -27   -0.50    2.40
  -5  -3  27   -2.20    2.30
   5  -4 -27    1.80    2.40
   5   4 -27   -4.30    2.30
  -5  -4  27    5.00    2.30
   5  -5 -27    4.90    2.90
   5   5 -27   -1.40    2.70
  -5   5 -27    4.20    2.30
   5  -6 -27    1.90    2.50
   5   6 -27   -0.50    2.80
  -5   6 -27   -1.30    2.80
   5  -7 -27    8.90    3.20
   5   7 -27   12.10    3.00
  -5   7 -27    3.30    3.10
   5  -8 -27    3.30    2.90
   5   8 -27    3.40    2.60
  -5   8 -27    8.10    2.90
   5  -9 -27    0.60    2.80
   5   9 -27    1.80    2.40
  -5   9 -27   -1.10    3.10
   5 -10 -27    2.70    3.10
   5  10 -27   -0.20    2.60
  -5  10 -27    0.80    2.50
   5 -11 -27    1.80    3.00
  -5  11 -27   -1.90    3.10
   5  11 -27    1.40    3.00
   5 -12 -27    1.10    3.30
  -5 -12 -27    1.10    3.00
  -5  12 -27    0.90    3.20
   5  12 -27    0.60    3.30
   5  13 -27    3.70    3.20
   5 -13 -27    0.10    3.40
  -5 -13 -27    0.20    3.20
  -5  13 -27    0.50    3.40
  -5  14 -27    1.40    3.80
   5  14 -27    1.40    3.50
  -5 -14 -27   -1.80    3.50
   5 -14 -27   -1.80    3.50
   6   0 -27   -3.60    2.60
  -6   0  27    1.20    2.50
   6  -1 -27   -0.80    2.90
   6   1 -27    4.30    2.90
   6  -2 -27    0.00    2.30
   6   2 -27   -1.80    2.50
  -6   2  27    1.80    2.80
   6  -3 -27   12.60    2.50
   6   3 -27    7.10    2.50
  -6  -3  27   10.10    2.50
   6  -4 -27    6.00    2.50
   6   4 -27    5.10    2.50
  -6  -4  27    5.30    2.30
   6  -5 -27    9.80    3.00
   6   5 -27   14.50    2.50
   6  -6 -27   -1.50    2.40
   6   6 -27   -2.80    3.00
  -6  -6  27    3.10    2.80
   6  -7 -27   15.90    3.20
  -6   7 -27   12.30    3.00
  -6  -7  27   14.10    2.60
   6   7 -27   12.00    2.60
   6  -8 -27    3.80    2.90
  -6  -8  27    4.20    2.50
  -6   8 -27    0.50    2.70
   6   8 -27    5.30    3.10
   6  -9 -27    0.60    3.10
  -6   9 -27    2.20    3.10
  -6  -9  27    0.00    3.00
   6   9 -27    1.80    3.00
   6 -10 -27   -2.00    3.20
  -6  10 -27    0.80    3.20
   6  10 -27   -2.90    3.00
   6 -11 -27    0.60    2.60
  -6  11 -27    0.70    3.30
   6  11 -27    2.90    3.50
   6  12 -27    1.60    3.30
   6 -12 -27    3.40    3.30
  -6  12 -27    4.90    3.00
   6  13 -27    1.10    3.40
   6 -13 -27    0.10    3.40
  -6  13 -27    0.80    3.40
  -7   1  27   -0.40    2.30
   7   1 -27    1.20    2.60
   7  -1 -27    2.50    2.70
   7  -2 -27   -0.60    2.40
   7   2 -27    0.60    2.40
   7  -3 -27   -0.50    2.40
   7   3 -27    1.50    2.70
  -7   4  27    1.50    2.40
   7  -4 -27   -0.40    2.40
   7   4 -27    1.00    2.80
   7  -5 -27    7.30    3.00
  -7   5  27    6.00    2.40
   7   5 -27    6.10    2.90
  -7  -5  27   11.80    3.00
   7  -6 -27   -0.70    2.40
  -7  -6  27   -1.90    2.40
   7   6 -27    2.70    2.40
   7  -7 -27   -0.20    2.90
   7   7 -27    3.90    2.90
   7  -8 -27    2.00    3.00
  -7  -8  27    0.00    2.60
   7   8 -27    3.00    2.60
  -7   9 -27    2.00    3.00
  -7  -9  27    2.40    2.90
   7  -9 -27    0.10    3.20
   7   9 -27    4.00    2.90
  -7 -10  27    2.10    3.00
  -7  10 -27   -1.60    3.20
   7 -10 -27    1.20    3.20
   7  10 -27   -0.60    3.40
   7  11 -27    7.40    3.60
  -7 -11  27   -0.50    2.90
  -7  11 -27   -0.70    3.10
   7 -11 -27    1.30    3.00
   7  12 -27    4.90    2.90
  -7  12 -27    2.20    3.20
   7 -12 -27    1.20    3.40
   7  13 -27    1.30    3.50
  -7  13 -27    1.20    3.60
   7 -13 -27    1.30    3.50
   8   0 -27   -0.40    2.80
  -8   0  27    1.20    2.40
   8  -1 -27   -1.70    2.30
   8   1 -27    3.60    2.50
  -8  -1  27   -3.10    2.50
   8  -2 -27   -2.00    2.40
  -8   2  27    1.70    2.30
   8   2 -27   -0.30    2.90
  -8  -2  27    2.80    2.60
   8  -3 -27    3.30    2.50
  -8   3  27    5.30    2.50
   8   3 -27   10.50    2.50
  -8   4  27    2.00    2.50
   8  -4 -27   10.20    2.40
   8   4 -27    3.70    2.40
  -8   5  27   -1.90    2.90
   8  -5 -27    0.60    3.00
  -8  -5  27    0.50    2.40
   8   5 -27    2.00    2.40
  -8   6  27    2.80    2.50
   8  -6 -27    2.70    2.60
   8   6 -27   -0.30    2.90
   8  -7 -27    8.50    3.00
   8   7 -27    1.80    2.70
  -8  -8  27    1.60    3.00
   8  -8 -27    2.60    3.10
   8   8 -27    2.90    2.90
   8   9 -27    0.40    2.50
  -8  -9  27    1.30    2.50
   8  -9 -27    0.60    3.40
   8  10 -27    2.20    3.10
  -8  10 -27    3.80    3.20
  -8 -10  27   -1.20    2.80
   8 -10 -27    3.70    3.30
   8  11 -27    0.10    3.20
  -8  11 -27    0.00    3.20
  -8 -11  27   -0.90    3.20
   8 -11 -27    0.70    2.80
   8  12 -27   -0.30    3.20
  -8 -12  27    0.80    3.40
  -8  12 -27    2.50    3.20
   8 -12 -27   -0.10    3.40
  -9   1  27    2.40    2.50
   9  -1 -27    0.00    2.40
   9   1 -27   -0.80    3.10
   9  -2 -27   -2.80    2.70
   9   2 -27   -2.00    2.50
   9  -3 -27    4.40    2.80
   9   3 -27   10.60    2.50
   9  -4 -27    2.40    2.40
   9   4 -27    3.50    2.90
  -9   5  27    0.40    2.50
   9  -5 -27   -4.10    2.40
   9   5 -27    5.50    2.80
  -9   6  27    1.80    3.00
  -9  -6  27    5.80    2.50
   9  -6 -27    5.50    2.80
   9   6 -27    2.50    2.50
   9   7 -27    0.70    2.60
   9  -7 -27    4.90    2.80
  -9   7  27    2.70    2.60
   9   8 -27   -3.20    3.20
  -9   8  27   -2.30    2.90
  -9  -8  27   -0.50    2.60
   9  -8 -27   -0.20    2.80
   9   9 -27    0.70    2.50
   9  -9 -27    1.90    3.30
   9 -10 -27   -2.50    3.50
   9  10 -27    0.30    3.10
  -9 -10  27    2.90    3.10
   9 -11 -27    3.40    3.10
   9  11 -27    0.60    3.30
  -9  11 -27    0.60    3.40
  -9 -11  27    0.20    3.20
   9 -12 -27    1.00    3.50
   9  12 -27   -2.50    3.20
  -9 -12  27   -3.40    2.90
  10   0 -27   -5.00    3.10
  10  -1 -27    1.20    2.50
  10   1 -27    2.30    2.60
  10   2 -27    4.40    3.20
  10  -2 -27   -0.20    2.40
  10   3 -27    0.00    2.50
  10  -3 -27    0.30    2.50
  10   4 -27    0.80    2.50
  10  -4 -27   -1.80    2.90
  10   5 -27    0.10    2.40
 -10   5  27   -0.40    2.60
  10  -5 -27   -5.10    3.00
  10  -6 -27    0.90    3.00
  10   6 -27    0.10    2.50
 -10   6  27    1.80    2.50
  10  -7 -27    3.10    2.50
  10   7 -27   -1.40    2.60
 -10   7  27    0.90    2.90
  10  -8 -27   -1.10    3.00
  10   8 -27   -2.50    3.10
 -10   8  27    0.10    3.40
  10  -9 -27   -2.30    3.20
  10   9 -27   -0.10    2.50
 -10   9  27   -0.10    3.50
  10 -10 -27    1.70    3.00
  10  10 -27   -0.80    3.20
  10 -11 -27   -1.40    3.40
  10  11 -27    3.10    3.50
 -10 -11  27    6.30    3.50
  11   1 -27    2.30    2.50
  11  -1 -27   -1.30    2.80
  11  -2 -27   -0.50    3.00
  11   2 -27   -1.40    2.50
 -11   2  27    3.10    2.50
  11  -3 -27    5.20    2.80
  11   3 -27    5.60    2.80
  11  -4 -27    2.40    2.50
  11   4 -27   -1.10    2.70
  11  -5 -27    2.70    2.60
  11   5 -27    5.00    2.50
  11  -6 -27   -1.10    2.90
  11   6 -27   -0.20    2.60
 -11   6  27    2.30    2.50
  11  -7 -27   -2.00    3.10
  11   7 -27    0.90    2.90
 -11   7  27    0.20    2.80
  11  -8 -27    0.60    3.20
  11   8 -27    3.10    3.30
 -11   8  27   -0.80    3.10
  11  -9 -27    0.10    3.30
  11   9 -27   -0.10    2.70
 -11   9  27    0.20    3.20
  11 -10 -27    1.40    3.40
 -11  10  27   -0.10    3.10
  11  10 -27    0.60    3.50
  12   0 -27    0.40    2.50
  12  -1 -27    0.80    2.60
  12   1 -27    5.40    3.10
  12  -2 -27    0.00    2.50
  12   2 -27   -3.50    2.50
  12  -3 -27    0.80    2.40
  12   3 -27   -0.40    3.20
  12  -4 -27    2.40    2.50
  12   4 -27    0.40    2.80
  12  -5 -27   -0.10    3.10
  12   5 -27   -1.50    2.70
  12  -6 -27    0.30    2.50
  12   6 -27   -1.60    2.70
  12  -7 -27    2.80    3.00
  12   7 -27   -1.50    2.60
  12  -8 -27    0.80    3.40
 -12   8  27    2.00    3.40
  12   8 -27    5.60    3.40
  12  -9 -27   -0.90    3.40
  13  -1 -27    1.30    2.60
  13   1 -27   -1.90    3.20
  13  -2 -27   -1.00    2.70
  13   2 -27    3.30    2.60
  13  -3 -27   -0.40    2.60
  13   3 -27   -0.90    3.30
  13  -4 -27    7.80    3.00
  13   4 -27    5.40    2.80
  13  -5 -27   -0.90    3.00
  13   5 -27    3.50    2.90
  13  -6 -27   -0.60    3.00
  13   6 -27    0.30    2.80
  13  -7 -27    2.30    2.80
 -13   7  27   -1.40    3.10
  13   7 -27   -3.50    3.00
  14   0 -27    2.30    2.80
  14  -1 -27   -1.40    2.80
  14   1 -27    0.80    3.40
  14  -2 -27   -1.50    2.70
  14   2 -27   -2.70    2.70
  14  -3 -27    2.60    2.90
  14   3 -27    4.50    3.10
  14  -4 -27    1.70    3.40
  14   4 -27    0.00    2.80
  14  -5 -27    0.70    2.80
  14   5 -27    1.90    2.80
  15   1 -27    0.80    3.30
  15  -1 -27    1.20    2.80
   0   0 -28   59.09    2.80
   0  -1 -28    2.20    2.80
   0   1 -28    0.20    2.30
   0  -2 -28   18.30    2.60
   0   2 -28   19.20    2.80
   0  -3 -28   -2.90    2.30
   0   3 -28   -3.30    2.60
   0  -4 -28   23.80    2.60
   0   4 -28   20.00    2.50
   0  -5 -28   -1.00    2.70
   0   5 -28   -2.70    2.40
   0  -6 -28    0.90    2.80
   0   6 -28    2.50    2.80
   0   7 -28   -4.00    3.00
   0  -7 -28   -0.70    2.50
   0   8 -28    0.90    2.90
   0  -8 -28   10.90    2.50
   0   9 -28    3.40    2.90
   0  -9 -28    0.50    2.70
   0  10 -28   13.10    3.10
   0 -10 -28    9.50    2.70
   0  11 -28   -0.60    3.00
   0 -11 -28   -3.50    3.00
   0  12 -28   -0.30    3.20
   0 -12 -28    4.50    3.10
   0 -13 -28   -1.10    3.30
   0  13 -28   -0.80    3.20
   0 -14 -28    3.10    3.50
   0  14 -28    0.20    3.50
  -1  -1 -28    2.40    2.30
  -1   1 -28    5.00    2.40
   1  -1 -28   -4.10    2.90
   1   1 -28    0.70    2.70
  -1  -2 -28   -1.70    3.00
  -1   2 -28    0.40    2.30
   1  -2 -28   -2.60    2.30
   1   2 -28    4.50    2.80
  -1  -3 -28    5.10    2.30
  -1   3 -28    2.50    2.30
   1  -3 -28    0.70    2.40
   1   3 -28    2.90    2.80
  -1  -4 -28    3.60    2.70
  -1   4 -28    1.50    2.40
   1  -4 -28   -0.40    2.40
   1   4 -28    2.20    2.70
   1   5 -28    6.20    2.50
  -1  -5 -28    5.90    3.00
  -1   5 -28    5.90    2.70
   1  -5 -28    8.50    2.80
   1   6 -28   16.30    3.00
  -1  -6 -28   22.20    2.60
  -1   6 -28   15.00    2.70
   1  -6 -28   13.10    2.90
   1   7 -28   10.30    2.60
  -1  -7 -28    2.10    2.90
   1  -7 -28    2.00    2.60
  -1   7 -28    3.60    3.00
   1   8 -28    1.00    2.50
  -1  -8 -28   -0.90    2.50
   1  -8 -28    1.40    2.40
  -1   8 -28   -0.60    3.00
  -1   9 -28    2.30    2.90
   1   9 -28   -0.60    2.40
  -1  -9 -28    3.80    2.40
   1  -9 -28    0.00    2.40
  -1  10 -28    1.30    2.60
   1  10 -28    5.00    3.20
  -1 -10 -28    3.80    2.50
   1 -10 -28    0.90    2.60
   1 -11 -28    2.80    2.90
  -1  11 -28    0.00    3.20
   1  11 -28   -3.20    3.00
  -1 -11 -28   -1.00    2.90
   1 -12 -28    6.30    3.30
  -1  12 -28    0.60    3.30
   1  12 -28    3.30    3.30
  -1 -12 -28   -3.00    3.10
   1 -13 -28    0.30    3.20
  -1  13 -28   -1.50    3.30
   1  13 -28   -0.90    3.40
  -1 -13 -28   -4.50    3.20
   1 -14 -28   -0.60    3.50
  -1  14 -28    0.30    3.50
   1  14 -28    1.30    3.50
  -1 -14 -28    0.00    3.20
   2   0 -28   23.80    2.50
  -2   0 -28   23.20    3.10
   2  -1 -28   28.60    3.20
   2   1 -28   32.60    3.10
  -2  -1 -28   35.10    2.70
  -2   1 -28   31.10    2.80
   2   2 -28   31.80    3.20
  -2  -2 -28   37.20    2.70
  -2   2 -28   31.70    2.70
   2  -2 -28   32.20    2.70
   2   3 -28   -0.20    2.70
  -2  -3 -28    0.10    2.90
  -2   3 -28    0.10    2.30
   2  -3 -28   -1.40    2.30
   2   4 -28   43.90    3.20
  -2  -4 -28   44.10    3.20
  -2   4 -28   42.60    2.80
   2  -4 -28   47.50    2.80
   2  -5 -28   -0.70    2.80
   2   5 -28    2.10    2.50
  -2  -5 -28    2.40    2.40
  -2   5 -28   -0.80    2.90
   2  -6 -28   38.10    3.00
   2   6 -28   33.90    3.10
  -2  -6 -28   36.00    2.70
  -2   6 -28   37.30    2.80
   2  -7 -28    7.60    2.90
   2   7 -28    1.20    2.60
  -2  -7 -28    4.80    3.00
  -2   7 -28    2.60    2.60
   2  -8 -28   13.30    2.70
   2   8 -28   18.30    3.00
  -2  -8 -28   20.50    3.10
  -2   8 -28   12.20    2.90
   2  -9 -28   -1.40    2.40
   2   9 -28   -1.70    2.70
  -2  -9 -28    0.00    2.40
  -2   9 -28   -0.90    2.50
   2 -10 -28    4.20    2.60
   2  10 -28    7.10    2.60
  -2 -10 -28    3.90    3.00
  -2  10 -28    7.90    3.00
  -2  11 -28    2.00    3.00
   2 -11 -28    1.60    3.20
   2  11 -28    2.40    3.20
  -2 -11 -28    3.10    3.20
  -2  12 -28    3.40    3.40
   2 -12 -28    8.90    3.10
   2  12 -28    6.20    3.10
  -2 -12 -28    1.70    3.00
  -2  13 -28   -0.40    3.30
   2 -13 -28    5.80    3.30
   2  13 -28    3.70    3.30
  -2 -13 -28    2.30    3.30
   2 -14 -28    2.30    3.60
  -2  14 -28    5.00    3.60
   2  14 -28    0.40    3.70
  -2 -14 -28   -0.80    3.40
   3  -1 -28   18.40    3.10
   3   1 -28   20.20    3.00
  -3  -1 -28   19.00    3.10
  -3   1 -28   21.70    3.00
   3  -2 -28    7.60    2.50
   3   2 -28    8.70    2.80
  -3  -2 -28    8.30    2.50
  -3   2 -28    9.20    2.90
   3  -3 -28    2.20    2.40
   3   3 -28    5.60    2.70
  -3  -3 -28    2.30    2.40
  -3   3 -28    5.40    2.80
   3  -4 -28   -2.20    2.40
   3   4 -28   -1.70    2.90
  -3  -4 -28    1.40    2.40
  -3   4 -28   -4.10    2.80
   3  -5 -28   -1.10    2.80
   3   5 -28   -0.10    2.70
  -3  -5 -28   -0.10    2.30
  -3   5 -28   -0.40    2.40
   3  -6 -28    5.00    2.50
   3   6 -28    9.90    2.60
  -3  -6 -28    4.30    3.00
  -3   6 -28    9.60    3.00
   3  -7 -28    1.90    2.90
   3   7 -28   -1.00    2.90
  -3  -7 -28    2.60    2.50
  -3   7 -28    4.80    2.90
   3  -8 -28    2.20    2.50
   3   8 -28    0.90    3.00
  -3  -8 -28    6.60    2.90
  -3   8 -28    4.50    2.80
   3  -9 -28   -0.50    2.40
   3   9 -28   -0.50    2.80
  -3  -9 -28   -1.70    2.90
  -3   9 -28    2.20    3.10
   3 -10 -28   -0.10    3.00
   3  10 -28   -0.70    3.20
  -3 -10 -28   -0.30    3.30
  -3  10 -28    1.10    3.10
   3 -11 -28   -1.10    3.20
   3  11 -28   -3.00    3.00
  -3 -11 -28   -0.10    3.00
  -3  11 -28   -2.30    3.20
  -3  12 -28    3.50    3.10
   3 -12 -28   -0.60    2.80
   3  12 -28   -1.50    3.20
  -3 -12 -28    3.10    2.90
  -3  13 -28   -2.60    3.10
   3 -13 -28    2.70    3.40
   3  13 -28   -1.10    3.10
  -3 -13 -28    3.20    3.40
  -3  14 -28   -0.80    3.50
   3 -14 -28   -1.50    3.60
  -3 -14 -28    2.30    3.40
   3  14 -28    4.70    3.60
   4   0 -28   73.89    3.20
   4  -1 -28    8.60    3.00
   4   1 -28    6.20    3.00
  -4   1 -28    9.70    2.50
   4  -2 -28   16.30    2.50
   4   2 -28   21.00    2.60
  -4   2 -28   22.40    2.50
   4  -3 -28    0.70    2.30
   4   3 -28   -0.10    2.40
  -4   3 -28   -1.30    2.40
   4  -4 -28    4.20    2.50
   4   4 -28    2.00    2.40
  -4   4 -28    7.80    2.40
   4  -5 -28    7.80    3.00
   4   5 -28    9.40    3.00
  -4   5 -28    4.50    3.00
   4  -6 -28    7.00    2.50
   4   6 -28    8.80    2.50
  -4   6 -28    5.30    2.50
   4  -7 -28   -1.40    3.10
   4   7 -28   -0.80    3.00
  -4   7 -28    2.30    2.50
   4  -8 -28   11.60    2.90
   4   8 -28   12.20    2.70
  -4  -8 -28   14.60    3.00
  -4   8 -28   10.70    2.80
   4  -9 -28   -0.70    2.50
   4   9 -28    3.70    2.60
  -4  -9 -28    2.40    2.50
  -4   9 -28    3.50    2.90
   4 -10 -28    1.10    3.00
   4  10 -28    0.20    2.80
  -4 -10 -28   -0.60    2.60
  -4  10 -28    3.00    3.00
   4 -11 -28    1.10    3.20
  -4 -11 -28   -1.70    3.20
   4  11 -28    0.80    3.00
  -4  11 -28   -1.90    3.20
   4 -12 -28   -0.60    3.10
  -4 -12 -28   -1.60    3.30
   4  12 -28    1.60    3.30
  -4  12 -28   -3.10    3.30
  -4  13 -28    1.90    3.40
   4 -13 -28    1.60    3.10
  -4 -13 -28    0.40    3.20
   4  13 -28    0.70    3.40
  -4 -14 -28   -0.10    3.10
   5  -1 -28   16.30    3.10
   5   1 -28   15.30    2.90
   5  -2 -28   32.70    2.70
   5   2 -28   35.00    2.70
   5  -3 -28   10.00    2.40
   5   3 -28    8.40    2.50
   5  -4 -28   24.70    2.60
   5   4 -28   25.20    2.50
  -5   4 -28   18.90    2.60
   5  -5 -28   -1.70    3.00
   5   5 -28    5.80    2.40
  -5   5 -28   -2.40    2.80
   5  -6 -28    2.00    2.50
   5   6 -28    4.20    3.00
  -5   6 -28    9.80    2.80
   5  -7 -28    9.40    3.20
   5   7 -28   12.00    2.70
  -5   7 -28   16.30    3.10
   5  -8 -28   11.80    2.90
   5   8 -28   11.10    2.90
  -5   8 -28   13.90    3.00
   5  -9 -28    0.10    3.00
   5   9 -28   -3.90    3.00
  -5   9 -28   -0.80    3.10
   5 -10 -28   -0.40    3.10
   5  10 -28    0.40    3.30
  -5  10 -28   -0.90    3.00
   5 -11 -28    1.20    3.10
  -5 -11 -28    1.60    2.80
   5  11 -28    4.30    3.40
  -5  11 -28   -2.40    3.20
   5 -12 -28   -2.00    3.40
  -5 -12 -28    1.00    3.40
   5  12 -28    6.10    2.90
  -5  12 -28   -0.30    3.00
   5 -13 -28    0.10    3.10
  -5 -13 -28   -1.90    3.30
  -5  13 -28   -1.10    3.50
   5  13 -28    0.60    3.40
   6   0 -28  102.89    3.70
  -6   0  28  101.59    3.80
   6  -1 -28   15.50    2.50
   6   1 -28   16.90    2.80
  -6   1  28   18.90    2.50
  -6  -1  28   12.00    2.80
   6  -2 -28   -0.90    2.40
   6   2 -28   -0.20    2.40
   6  -3 -28   -0.10    2.40
   6   3 -28    2.70    2.70
  -6  -3  28    2.50    2.80
   6  -4 -28   39.00    2.70
   6   4 -28   33.50    3.10
  -6  -4  28   36.90    3.10
   6  -5 -28   -2.60    2.80
   6   5 -28    3.40    2.40
   6  -6 -28   12.90    2.50
   6   6 -28    8.60    2.60
  -6  -6  28   11.60    2.70
  -6   7 -28    3.40    2.80
   6  -7 -28   -0.80    2.90
  -6  -7  28    1.10    3.00
   6   7 -28   -2.50    3.10
   6  -8 -28    2.50    2.80
  -6  -8  28    2.80    2.60
  -6   8 -28    5.30    2.90
   6   8 -28    3.50    2.60
   6  -9 -28    4.50    3.10
  -6   9 -28    5.10    3.20
   6   9 -28    6.30    2.70
   6 -10 -28   -0.90    3.20
  -6  10 -28    0.90    3.20
   6  10 -28   -0.20    3.20
   6 -11 -28    0.10    3.30
  -6  11 -28    2.30    3.10
   6  11 -28    0.50    3.00
   6  12 -28    2.30    3.30
   6 -12 -28    2.00    3.40
  -6  12 -28    1.50    3.10
   6  13 -28   -2.50    3.50
   6 -13 -28    0.20    3.20
  -6  13 -28    3.60    3.40
   7  -1 -28    7.80    2.40
   7   1 -28    8.00    2.60
  -7   1  28    0.30    2.70
  -7  -1  28    1.80    2.70
   7  -2 -28   31.50    2.70
   7   2 -28   40.20    3.20
  -7   2  28   34.00    2.70
  -7  -2  28   33.60    2.80
   7  -3 -28    1.60    2.40
  -7   3  28   -1.70    2.50
   7   3 -28    6.90    2.70
   7  -4 -28    6.90    2.50
  -7   4  28    3.80    2.40
   7   4 -28    7.70    2.50
   7  -5 -28    1.10    2.70
  -7  -5  28   -0.50    2.40
   7   5 -28    2.20    2.80
   7  -6 -28    3.00    2.80
   7   6 -28    0.50    3.00
   7  -7 -28    0.80    2.80
   7   7 -28   -2.10    2.60
  -7   8 -28    0.10    3.10
   7  -8 -28    0.50    2.50
  -7  -8  28    1.70    2.90
   7   8 -28    5.40    3.10
  -7  -9  28    1.00    2.50
  -7   9 -28    3.20    3.00
   7  -9 -28    1.80    2.80
   7   9 -28   -0.60    2.90
  -7 -10  28   -0.60    2.80
  -7  10 -28    0.50    3.20
   7 -10 -28   -3.10    3.40
   7  10 -28   -0.10    2.80
   7  11 -28   -2.00    3.20
  -7  11 -28    0.60    3.20
   7 -11 -28   -3.90    3.50
   7  12 -28    1.30    3.10
  -7  12 -28    2.30    3.30
   7 -12 -28   -2.30    3.40
   8   0 -28    1.30    2.50
  -8   0  28    0.60    2.50
   8  -1 -28   15.00    2.50
   8   1 -28    7.00    3.40
  -8  -1  28   11.80    2.70
   8  -2 -28   38.10    3.20
  -8   2  28   30.70    3.20
   8   2 -28   45.50    2.80
  -8  -2  28   42.10    3.30
  -8   3  28    3.30    2.90
   8  -3 -28    7.40    2.80
   8   3 -28   -0.10    2.50
  -8   4  28    3.20    3.00
   8  -4 -28    5.80    2.50
   8   4 -28    5.90    2.40
  -8   5  28    2.20    2.50
   8  -5 -28    3.10    2.50
  -8  -5  28   -0.90    2.90
   8   5 -28   -1.90    2.50
  -8   6  28    4.10    2.50
   8  -6 -28    2.40    3.00
   8   6 -28    4.40    2.50
   8  -7 -28   -1.00    2.50
  -8  -7  28    0.90    2.60
   8   7 -28    3.80    3.00
  -8  -8  28   -1.20    2.60
   8  -8 -28    1.30    2.70
   8   8 -28   -0.60    2.60
   8   9 -28   -1.50    3.00
  -8  -9  28    0.90    3.00
   8  -9 -28   -1.70    2.80
   8  10 -28   -0.20    3.10
  -8  10 -28   -0.50    3.40
  -8 -10  28   -2.40    3.40
   8 -10 -28    3.70    2.70
   8  11 -28    3.80    2.80
  -8 -11  28   -2.70    3.40
  -8  11 -28    4.10    3.10
   8 -11 -28    3.00    3.50
   8  12 -28    1.60    3.20
  -8 -12  28    1.60    3.10
  -8  12 -28   -3.90    3.20
   8 -12 -28   -1.00    3.20
   9   1 -28    4.90    2.70
   9  -1 -28    8.40    2.80
   9  -2 -28    9.10    2.50
   9   2 -28    5.80    3.10
  -9   3  28   -0.90    2.50
   9  -3 -28    0.90    2.40
   9   3 -28   -1.60    2.80
  -9   4  28   -1.30    2.50
  -9  -4  28    3.20    2.40
   9  -4 -28    0.10    2.80
   9   4 -28   -1.70    2.50
  -9   5  28   -0.90    3.10
   9  -5 -28    3.70    3.10
   9   5 -28    4.70    2.60
  -9   6  28   -0.90    2.80
   9  -6 -28    1.30    2.50
   9   6 -28   -0.40    2.80
   9   7 -28    3.70    3.10
  -9   7  28   -1.80    2.80
  -9  -7  28   -1.90    2.40
   9  -7 -28    3.50    2.50
   9   8 -28    0.40    2.60
  -9  -8  28   -0.30    3.10
   9  -8 -28   -2.20    3.30
   9   9 -28    2.80    3.10
   9  -9 -28    2.60    3.50
   9  10 -28    6.00    3.10
  -9 -10  28   -0.40    2.70
   9 -10 -28    3.00    3.30
   9 -11 -28   -0.30    3.10
   9  11 -28   -0.20    2.90
  -9  11 -28    2.60    3.40
  -9 -11  28   -1.40    2.80
  10   0 -28    9.20    2.50
  10  -1 -28   -3.70    2.50
  10   1 -28    1.60    3.10
  10  -2 -28   37.50    3.20
  10   2 -28   37.50    2.90
  10   3 -28    0.70    2.80
 -10   3  28   -1.00    2.50
  10  -3 -28    2.10    2.40
  10   4 -28    0.40    3.20
 -10   4  28    1.90    2.50
  10  -4 -28    1.60    2.50
  10   5 -28   10.20    3.10
 -10   5  28    9.00    2.60
  10  -5 -28   11.40    2.90
  10   6 -28    5.60    3.10
 -10   6  28   -5.90    3.10
  10  -6 -28    2.00    2.90
  10  -7 -28    6.20    3.00
  10   7 -28   -1.40    2.80
 -10   7  28   -0.50    2.50
  10  -8 -28   -1.40    3.00
  10   8 -28    1.20    2.70
 -10   8  28   -1.40    3.10
  10  -9 -28    0.30    3.20
  10   9 -28   -1.90    3.30
  10 -10 -28    0.30    3.40
  10  10 -28    3.80    2.80
 -10 -10  28    5.60    2.80
  11  -1 -28    2.80    2.50
  11   1 -28    5.40    2.60
  11  -2 -28   -1.70    2.50
  11   2 -28   -0.60    2.50
  11  -3 -28    2.80    2.40
  11   3 -28    1.40    2.50
 -11   3  28    1.20    2.50
  11  -4 -28   -0.20    2.80
  11   4 -28    1.80    2.90
 -11   4  28    0.90    2.50
  11  -5 -28    3.30    2.90
  11   5 -28    3.70    3.20
  11  -6 -28   -1.50    2.50
  11   6 -28   -0.40    3.20
 -11   6  28   -3.70    3.00
  11  -7 -28    0.90    2.60
  11   7 -28    3.00    3.00
 -11   7  28    0.90    2.70
  11  -8 -28   -3.10    3.10
  11   8 -28    0.60    2.80
 -11   8  28   -3.20    3.10
  11  -9 -28    3.40    3.20
  11   9 -28    2.30    3.30
 -11   9  28    3.20    3.40
  12   0 -28   10.70    3.00
  12   1 -28    2.40    2.60
  12  -1 -28   -2.10    3.00
  12  -2 -28    0.60    3.00
  12   2 -28    2.50    3.00
  12  -3 -28   -1.50    2.90
  12   3 -28   -1.00    2.60
  12  -4 -28    2.60    2.90
  12   4 -28    1.70    3.00
  12  -5 -28    0.60    2.70
  12   5 -28   -6.10    3.30
 -12   5  28    0.50    3.30
  12  -6 -28    2.50    3.10
  12   6 -28    4.30    3.50
  12  -7 -28    2.60    2.80
  12   7 -28    4.40    3.30
 -12   7  28   -0.40    3.20
  12  -8 -28    0.60    2.90
  12   8 -28   -0.30    2.90
 -12   8  28    0.40    3.10
  13   1 -28    5.80    2.80
  13  -1 -28   10.40    3.30
  13  -2 -28    2.10    3.20
  13   2 -28   -0.30    3.10
  13  -3 -28   -2.80    3.20
  13   3 -28    0.80    2.80
  13  -4 -28    1.40    2.60
  13   4 -28   -1.60    3.20
  13  -5 -28   -1.90    2.60
  13   5 -28    4.60    3.10
  13  -6 -28    7.20    3.10
  13   6 -28    2.40    3.10
  14   0 -28    3.70    3.20
  14   1 -28   -1.00    2.90
  14  -1 -28    3.20    3.40
  14  -2 -28   -0.60    3.40
  14   2 -28    2.10    3.10
  14  -3 -28    0.60    3.20
  14   3 -28    3.70    2.90
  14  -4 -28    2.60    2.90
  14   4 -28   -1.70    3.40
  -1  -1 -29    4.50    3.00
  -1   1 -29    1.60    2.80
   1  -1 -29    2.10    2.40
   1   1 -29    2.50    2.40
  -1  -2 -29    3.20    2.40
  -1   2 -29   -0.90    2.80
   1  -2 -29   -1.00    2.40
   1   2 -29   -0.20    2.40
  -1  -3 -29    1.00    2.30
  -1   3 -29    1.60    2.80
   1  -3 -29    4.90    2.70
   1   3 -29    4.10    2.30
  -1  -4 -29   -1.70    2.40
  -1   4 -29    2.20    2.70
   1  -4 -29    1.70    2.70
   1   4 -29    2.30    2.40
   1   5 -29   -1.60    2.70
  -1  -5 -29    0.80    2.40
  -1   5 -29   -1.30    2.40
   1  -5 -29    0.40    2.40
   1   6 -29    1.60    2.50
  -1  -6 -29    0.20    2.90
  -1   6 -29    0.00    3.10
   1  -6 -29    0.10    2.50
   1   7 -29    3.50    3.00
  -1  -7 -29   -0.40    2.50
  -1   7 -29   -1.10    2.60
   1  -7 -29    2.10    2.80
   1   8 -29    3.60    2.80
  -1  -8 -29   -0.70    2.50
   1  -8 -29    0.10    2.90
  -1   8 -29    0.90    2.40
  -1   9 -29    1.50    2.60
   1   9 -29   -0.10    2.90
  -1  -9 -29   -2.20    2.90
   1  -9 -29    4.70    2.80
   1 -10 -29   -1.50    3.20
  -1  10 -29    2.20    2.90
   1  10 -29    3.00    3.20
  -1 -10 -29    0.50    3.20
   1 -11 -29    0.50    3.10
  -1  11 -29    3.70    3.10
   1  11 -29   -1.60    3.20
  -1 -11 -29    0.10    3.00
   1 -12 -29    0.20    2.70
  -1  12 -29   -2.40    3.30
   1  12 -29    1.30    3.30
  -1 -12 -29    1.90    3.00
   1 -13 -29   -2.20    3.40
  -1  13 -29    2.20    3.30
   1  13 -29   -0.10    3.10
  -1 -13 -29   -0.80    3.20
   1 -14 -29    1.90    3.50
   1  14 -29   -1.20    3.80
  -1 -14 -29    0.40    3.50
   2   0 -29   -0.90    3.00
  -2   0 -29   -1.70    3.00
   2  -1 -29    4.50    2.50
   2   1 -29    3.80    2.50
  -2  -1 -29    4.10    2.60
  -2   1 -29    5.20    2.50
   2  -2 -29    0.80    2.70
   2   2 -29    1.10    2.40
  -2  -2 -29   -0.40    2.80
  -2   2 -29    0.70    2.30
   2  -3 -29    9.80    2.80
   2   3 -29   10.40    2.70
  -2  -3 -29    8.80    2.90
  -2   3 -29    8.70    2.40
   2  -4 -29    1.50    2.90
   2   4 -29    3.90    2.40
  -2  -4 -29    3.10    2.90
  -2   4 -29    5.70    2.50
   2  -5 -29   20.70    2.90
   2   5 -29   24.20    2.70
  -2  -5 -29   22.60    2.90
  -2   5 -29   23.80    3.00
   2  -6 -29   26.20    2.70
   2   6 -29   22.90    3.20
  -2  -6 -29   26.50    2.70
  -2   6 -29   33.50    2.90
   2  -7 -29    8.70    2.80
   2   7 -29    5.10    2.60
  -2  -7 -29    3.30    3.00
  -2   7 -29    1.60    3.10
   2  -8 -29    3.10    2.80
   2   8 -29    1.70    2.50
  -2  -8 -29   -2.30    2.50
  -2   8 -29    1.50    2.90
   2  -9 -29   13.90    3.10
   2   9 -29   19.50    3.10
  -2  -9 -29   16.50    2.70
  -2   9 -29   15.20    3.20
   2 -10 -29   -0.30    3.00
   2  10 -29    0.30    2.60
  -2 -10 -29    2.30    2.70
  -2  10 -29   -0.40    3.20
  -2  11 -29    1.80    3.00
   2 -11 -29    0.60    3.20
   2  11 -29    4.70    3.00
  -2 -11 -29    6.30    3.00
  -2  12 -29    0.80    3.10
   2 -12 -29    0.60    3.10
   2  12 -29   -0.30    3.50
  -2 -12 -29   -1.10    3.40
  -2  13 -29   -0.90    3.10
   2 -13 -29    0.60    3.40
   2  13 -29    1.30    3.40
  -2 -13 -29   -2.00    3.20
   3  -1 -29    0.60    2.40
   3   1 -29    2.80    2.40
  -3  -1 -29   -1.20    3.10
  -3   1 -29   -0.80    2.80
   3  -2 -29    0.60    2.90
   3   2 -29    3.10    2.90
  -3  -2 -29    3.90    2.40
  -3   2 -29    0.10    2.80
   3  -3 -29    3.70    2.70
   3   3 -29   -0.60    2.80
  -3  -3 -29   -0.10    2.40
  -3   3 -29    2.70    2.80
   3  -4 -29    7.00    2.90
   3   4 -29    3.00    2.90
  -3  -4 -29    4.90    2.30
  -3   4 -29    4.00    3.00
   3  -5 -29    9.60    2.80
   3   5 -29   11.00    2.50
  -3  -5 -29    9.00    2.50
  -3   5 -29   11.20    2.60
   3  -6 -29    1.60    2.50
   3   6 -29    3.00    2.50
  -3  -6 -29   16.40    3.00
  -3   6 -29    5.30    2.90
   3  -7 -29    0.80    3.00
   3   7 -29   -3.00    2.80
  -3  -7 -29   -1.50    2.50
  -3   7 -29    0.00    2.50
   3  -8 -29    0.50    2.80
   3   8 -29    5.00    3.00
  -3  -8 -29   -2.30    2.80
  -3   8 -29   -0.40    2.40
   3  -9 -29    3.80    3.10
   3   9 -29    1.40    2.80
  -3  -9 -29   -2.20    3.00
  -3   9 -29    1.70    2.60
   3 -10 -29    2.50    3.20
   3  10 -29    1.30    3.30
  -3 -10 -29    3.40    3.20
  -3  10 -29    1.20    3.00
   3 -11 -29    3.00    3.10
   3  11 -29    0.70    3.30
  -3 -11 -29   -0.20    3.50
  -3  11 -29    0.00    3.20
  -3  12 -29   -0.30    3.20
   3 -12 -29    0.40    3.30
   3  12 -29    1.10    2.80
  -3 -12 -29   -0.50    2.90
  -3  13 -29    3.70    3.50
   3 -13 -29    4.60    3.30
   3  13 -29    2.60    3.40
  -3 -13 -29    2.80    3.40
   4   0 -29   -2.80    2.60
  -4   0 -29   -0.60    3.00
   4  -1 -29   -0.90    2.80
   4   1 -29    2.40    2.80
  -4  -1 -29    0.30    2.60
  -4   1 -29   -0.70    2.40
   4  -2 -29   -0.60    2.70
   4   2 -29   -0.50    2.70
  -4  -2 -29   -0.20    2.50
  -4   2 -29   -0.10    2.30
   4  -3 -29   11.30    2.50
   4   3 -29    8.40    2.40
  -4  -3 -29    9.30    2.40
  -4   3 -29    8.90    2.40
   4  -4 -29    1.40    2.70
   4   4 -29    0.20    2.40
  -4  -4 -29    2.00    2.40
  -4   4 -29    3.00    2.50
   4  -5 -29    6.30    3.00
   4   5 -29    8.10    2.90
  -4  -5 -29    8.00    2.40
  -4   5 -29   12.30    3.10
   4  -6 -29    3.40    2.50
   4   6 -29    0.40    2.50
  -4  -6 -29    1.30    2.40
  -4   6 -29   -1.00    2.50
   4  -7 -29    2.30    3.00
   4   7 -29    0.30    2.70
  -4  -7 -29    1.40    2.80
  -4   7 -29    0.60    2.80
   4  -8 -29   10.50    2.90
   4   8 -29    5.70    2.70
  -4  -8 -29    4.60    2.90
  -4   8 -29    9.40    3.00
   4  -9 -29   -0.60    3.20
   4   9 -29   -0.40    2.80
  -4  -9 -29   -2.80    2.50
  -4   9 -29   -0.20    3.10
   4 -10 -29    3.80    3.10
   4  10 -29    5.60    3.00
  -4  10 -29    2.50    3.00
  -4 -10 -29    4.10    2.70
   4 -11 -29    1.30    3.20
   4  11 -29   -0.40    2.80
  -4 -11 -29    2.40    3.30
  -4  11 -29   -3.00    3.40
   4 -12 -29    1.90    2.80
  -4 -12 -29    3.30    3.50
   4  12 -29    0.60    3.50
  -4  12 -29    0.90    3.10
  -4  13 -29    0.90    3.70
   4 -13 -29    1.10    3.10
  -4 -13 -29   -1.20    3.20
   4  13 -29    1.40    3.10
   5  -1 -29   -0.10    2.90
   5   1 -29    4.30    2.90
   5  -2 -29    7.50    2.40
   5   2 -29    7.10    2.40
   5  -3 -29    1.00    2.30
   5   3 -29    3.50    2.40
  -5   3 -29    3.80    2.40
   5  -4 -29   -2.90    2.30
   5   4 -29   -1.20    2.30
  -5   4 -29   -1.90    2.40
   5  -5 -29   -1.90    3.00
   5   5 -29    0.60    2.40
  -5   5 -29    3.00    2.80
   5  -6 -29   -0.20    2.50
   5   6 -29    2.70    2.80
  -5   6 -29   -1.70    2.60
   5  -7 -29   -0.10    3.00
   5   7 -29    1.70    2.40
  -5   7 -29    0.40    3.00
   5  -8 -29    0.40    2.40
   5   8 -29    3.00    3.00
  -5   8 -29    1.70    3.10
   5  -9 -29    4.20    2.70
   5   9 -29    5.30    2.80
  -5   9 -29    5.50    3.30
   5 -10 -29    1.10    3.10
  -5 -10 -29   -1.50    2.60
   5  10 -29    1.10    2.70
  -5  10 -29    0.40    3.20
   5 -11 -29   -3.90    3.50
  -5 -11 -29   -0.40    2.90
   5  11 -29    1.70    3.40
  -5  11 -29    2.00    3.00
   5 -12 -29    0.20    3.10
  -5 -12 -29    4.50    3.40
   5  12 -29    1.00    3.40
  -5  12 -29    0.30    3.40
   5 -13 -29    2.10    3.20
  -5 -13 -29   -1.90    3.20
   6   0 -29    0.90    3.10
  -6  -1  29    2.30    2.60
   6  -1 -29   -0.50    2.40
   6   1 -29    4.90    2.60
   6  -2 -29    3.90    2.50
   6   2 -29    4.40    2.50
  -6  -2  29    4.60    2.50
   6  -3 -29    3.00    2.40
   6   3 -29    0.70    2.80
  -6  -3  29   -0.30    2.30
   6  -4 -29   -3.90    2.50
   6   4 -29    1.50    2.90
  -6  -4  29    0.10    2.50
   6  -5 -29   -2.30    2.80
   6   5 -29    0.30    2.80
  -6  -5  29    2.60    2.40
   6  -6 -29    2.10    2.80
   6   6 -29    0.80    2.50
  -6   6 -29    4.00    2.50
   6  -7 -29    0.70    2.80
  -6   7 -29    2.00    3.00
   6   7 -29   -0.60    2.90
   6  -8 -29    2.40    2.60
  -6   8 -29   -0.10    3.00
   6   8 -29    2.70    2.60
   6  -9 -29    2.10    2.70
  -6   9 -29    2.70    3.50
   6   9 -29    0.60    3.10
   6 -10 -29    0.20    3.10
  -6  10 -29    2.50    3.30
   6  10 -29   -2.70    3.40
   6 -11 -29    8.40    3.50
  -6  11 -29    4.60    3.20
   6  11 -29    8.20    3.60
   6 -12 -29    0.70    2.70
  -6  12 -29    2.30    3.50
   6  12 -29    6.20    3.20
   7  -1 -29    0.80    2.40
   7   1 -29    0.10    2.70
  -7   1  29    1.80    2.80
  -7  -1  29   -4.40    3.10
   7  -2 -29   -1.10    2.40
   7   2 -29    1.50    2.80
  -7  -2  29   -1.30    2.50
   7  -3 -29    1.70    2.80
   7   3 -29    2.90    2.50
  -7  -3  29    3.00    2.50
   7  -4 -29    2.60    2.40
   7   4 -29    1.00    2.40
  -7  -4  29   -0.30    2.30
   7  -5 -29    0.90    2.40
  -7  -5  29    2.50    2.80
   7   5 -29    1.60    2.50
   7  -6 -29   10.60    3.10
   7   6 -29    8.90    2.90
   7  -7 -29   -0.90    2.40
  -7  -7  29   -3.30    2.60
   7   7 -29    5.60    3.00
   7  -8 -29   -2.20    2.60
  -7   8 -29    0.70    3.30
  -7  -8  29   -1.10    2.90
   7   8 -29   -5.00    2.60
  -7  -9  29    3.90    3.00
   7  -9 -29   -1.40    2.80
  -7   9 -29    1.20    3.50
   7   9 -29    3.00    2.50
   7 -10 -29    1.40    2.90
  -7  10 -29   -1.80    3.50
   7  10 -29    2.00    3.30
   7  11 -29    4.00    3.40
  -7  11 -29    0.10    2.80
   7 -11 -29    1.40    3.20
   7  12 -29    0.80    3.20
   7 -12 -29    2.50    3.20
   8   0 -29    3.70    2.60
  -8   0  29    0.50    3.00
   8   1 -29    0.80    2.50
  -8   1  29   -2.50    2.40
   8  -1 -29    0.40    3.00
  -8  -1  29   -1.40    2.70
  -8   2  29   -3.60    2.50
   8  -2 -29    0.40    2.70
  -8  -2  29    1.30    2.60
   8   2 -29    0.90    2.50
  -8   3  29    1.30    2.50
   8  -3 -29    5.30    2.80
   8   3 -29    0.70    3.00
  -8   4  29    2.70    2.40
   8  -4 -29    2.60    2.90
   8   4 -29   -4.10    3.00
  -8   5  29    7.00    2.70
   8  -5 -29    7.30    2.70
  -8  -5  29    2.80    2.50
   8   5 -29   -1.10    3.10
   8  -6 -29    3.10    2.60
  -8  -6  29    0.40    2.40
   8   6 -29    1.40    2.80
  -8  -7  29    3.30    3.10
   8  -7 -29    1.80    2.50
   8   7 -29   -1.00    2.60
  -8  -8  29   -0.70    2.60
   8  -8 -29    0.20    3.30
   8   8 -29    0.60    3.10
  -8   9 -29    3.80    3.50
  -8  -9  29    1.10    2.60
   8  -9 -29    0.50    3.50
   8   9 -29    5.10    2.60
   8  10 -29    5.00    3.20
  -8  10 -29    3.40    3.30
  -8 -10  29    2.60    3.00
   8 -10 -29    1.40    3.50
   8  11 -29    0.20    3.40
  -8 -11  29   -0.30    2.90
  -8  11 -29   -2.40    3.20
   8 -11 -29    0.80    2.80
   9  -1 -29    1.90    2.40
   9   1 -29   -1.20    2.90
   9  -2 -29    4.20    2.40
   9   2 -29   -1.30    2.60
  -9   3  29    1.00    3.00
   9  -3 -29    2.70    2.40
   9   3 -29    0.30    2.60
  -9   4  29    2.40    3.00
  -9  -4  29    1.00    3.10
   9  -4 -29   -0.40    2.40
   9   4 -29   -2.10    2.60
  -9   5  29    0.90    2.80
   9  -5 -29    3.70    2.90
   9   5 -29    3.90    2.50
  -9   6  29   -1.30    2.60
   9  -6 -29    0.40    2.70
   9   6 -29    5.30    2.50
   9  -7 -29   -0.30    2.90
   9   7 -29   -0.20    2.50
   9   8 -29    0.90    3.10
  -9  -8  29    2.10    2.60
   9  -8 -29    1.50    3.00
   9   9 -29    1.70    2.60
   9  -9 -29    3.30    3.20
   9  10 -29    2.10    3.10
  -9  10 -29   -0.10    3.10
  -9 -10  29   -1.00    3.40
   9 -10 -29   -1.20    3.40
  10   0 -29   -2.40    2.80
  10   1 -29    0.50    2.50
  10  -1 -29    1.80    2.90
  10  -2 -29    0.80    2.80
  10   2 -29    0.80    3.10
 -10   3  29    2.20    2.90
  10  -3 -29    2.30    2.90
  10   3 -29    2.50    2.50
  10   4 -29    1.50    2.60
 -10   4  29    3.30    3.10
  10  -4 -29    0.10    3.10
  10   5 -29    2.40    2.50
 -10   5  29    1.90    3.10
  10  -5 -29   -2.10    2.60
  10   6 -29    0.40    2.50
 -10   6  29    0.40    2.50
  10  -6 -29    2.90    2.80
  10   7 -29    0.00    2.60
 -10   7  29    4.20    2.90
  10  -7 -29    1.50    2.50
  10  -8 -29    0.50    3.10
  10   8 -29   -0.10    3.20
 -10   8  29   -1.70    2.70
  10  -9 -29    0.70    3.20
  10   9 -29    3.50    2.80
  10  10 -29   -1.20    3.20
  11  -1 -29    0.90    2.60
  11   1 -29    2.30    2.90
  11  -2 -29   -3.00    2.80
  11   2 -29   -3.20    2.60
 -11  -2  29   -6.30    2.70
  11  -3 -29    4.00    2.90
  11   3 -29   -3.20    3.00
 -11   3  29   -0.90    3.00
  11  -4 -29    2.30    2.50
  11   4 -29   -2.60    2.70
 -11   4  29    1.10    3.00
  11  -5 -29    1.50    2.50
  11   5 -29    9.50    2.60
  11  -6 -29    5.70    2.90
  11   6 -29   -1.20    2.80
 -11   6  29    2.70    2.60
  11  -7 -29   -0.70    3.00
  11   7 -29    3.20    2.70
 -11   7  29   -0.30    3.00
  11  -8 -29    2.20    2.70
  11   8 -29    3.00    3.40
 -11   8  29    0.20    2.80
  12   0 -29    3.40    2.70
  12  -1 -29    0.10    2.70
  12   1 -29   -2.10    3.00
  12  -2 -29    2.80    2.50
  12   2 -29    1.40    2.80
  12  -3 -29    0.80    2.70
  12   3 -29   -0.30    3.30
  12  -4 -29   -1.80    2.60
  12   4 -29    1.50    2.80
  12  -5 -29    5.90    3.20
  12   5 -29   -1.00    2.70
 -12   5  29    2.60    2.60
  12  -6 -29    1.50    2.80
  12   6 -29    7.40    2.90
 -12   6  29    4.40    2.80
  12  -7 -29    3.00    3.50
  12   7 -29    1.10    2.80
 -12   7  29    2.90    3.50
  13  -1 -29    0.60    2.80
  13   1 -29   -1.70    3.30
  13  -2 -29   -2.70    2.70
  13   2 -29   -0.50    2.70
  13  -3 -29    1.80    2.80
  13   3 -29    8.90    3.20
  13  -4 -29    2.00    3.20
  13   4 -29   -4.20    2.90
  13  -5 -29   -3.90    3.20
  13   5 -29    0.10    2.80
  14   0 -29   -2.10    2.90
  14  -1 -29    1.40    2.80
  14   1 -29    1.10    3.20
   0   0 -30   22.20    3.10
   0  -1 -30    1.10    2.50
   0   1 -30    0.90    2.40
   0  -2 -30   11.60    2.80
   0   2 -30   15.50    2.50
   0  -3 -30   -2.10    2.80
   0   3 -30    0.80    2.70
   0  -4 -30   23.10    3.10
   0   4 -30   25.80    2.70
   0  -5 -30    0.00    2.70
   0   5 -30    2.40    2.40
   0  -6 -30    4.00    2.50
   0   6 -30   -0.90    3.00
   0   7 -30   -0.60    2.50
   0  -7 -30   -1.50    3.00
   0   8 -30   11.50    2.60
   0  -8 -30    8.40    2.50
   0   9 -30    2.40    2.60
   0  -9 -30    0.60    2.60
   0  10 -30    1.00    2.80
   0 -10 -30   -3.00    2.70
   0  11 -30   -0.30    3.20
   0 -11 -30    1.40    3.00
   0  12 -30   -1.50    3.30
   0 -12 -30   -0.20    3.40
   0 -13 -30    2.30    3.10
   0  13 -30   -0.50    3.40
  -1  -1 -30   -0.10    2.80
  -1   1 -30    2.00    2.70
   1  -1 -30   -2.00    3.00
   1   1 -30   -5.80    2.80
  -1  -2 -30    8.60    2.30
  -1   2 -30    9.30    2.40
   1  -2 -30    6.70    2.40
   1   2 -30    9.40    2.70
  -1  -3 -30    1.60    2.30
  -1   3 -30    0.90    2.30
   1  -3 -30    3.90    2.30
   1   3 -30    0.30    2.70
   1   4 -30    0.40    3.00
  -1  -4 -30   -0.20    2.40
  -1   4 -30    0.50    2.40
   1  -4 -30   -1.70    2.30
   1   5 -30   -2.40    2.70
  -1  -5 -30   -0.70    2.30
  -1   5 -30    0.00    2.90
   1  -5 -30    2.20    2.70
   1   6 -30    3.30    2.50
  -1  -6 -30    0.40    2.80
  -1   6 -30    3.70    2.50
   1  -6 -30    4.40    2.80
   1   7 -30    2.40    2.80
  -1  -7 -30   -3.60    2.50
   1  -7 -30    4.60    2.50
  -1   7 -30    2.90    3.00
   1   8 -30    5.70    3.00
  -1  -8 -30   -0.20    3.00
   1  -8 -30    1.90    2.50
  -1   8 -30    2.50    3.00
  -1   9 -30   -0.30    3.20
   1   9 -30   -4.50    3.20
  -1  -9 -30   -2.30    2.80
   1  -9 -30    3.50    2.90
   1 -10 -30    1.50    3.20
  -1  10 -30    1.20    3.20
   1  10 -30   -4.50    3.50
  -1 -10 -30    1.00    3.20
   1 -11 -30   -1.80    2.80
  -1  11 -30   -0.80    3.00
   1  11 -30    0.00    3.10
  -1 -11 -30   -2.10    3.40
   1 -12 -30   -1.20    3.40
  -1  12 -30    0.70    3.40
   1  12 -30    0.20    3.20
  -1 -12 -30   -2.40    3.20
   1 -13 -30    2.90    2.80
  -1  13 -30    3.50    3.50
   1  13 -30    1.40    3.20
  -1 -13 -30    1.90    3.40
   2   0 -30    9.50    2.80
  -2   0 -30   11.00    2.70
   2  -1 -30    0.40    2.80
   2   1 -30    3.70    2.90
  -2  -1 -30    5.30    2.60
  -2   1 -30    3.00    2.40
   2  -2 -30   13.30    2.40
   2   2 -30   10.20    2.40
  -2  -2 -30   13.90    3.00
  -2   2 -30   10.90    2.40
   2  -3 -30    1.80    2.30
   2   3 -30    3.60    2.50
  -2  -3 -30    3.40    2.70
  -2   3 -30    2.30    2.70
   2  -4 -30   -0.60    2.40
   2   4 -30    1.40    2.30
  -2  -4 -30   -0.60    2.70
  -2   4 -30   -1.00    2.30
   2  -5 -30    1.70    2.50
   2   5 -30    3.80    2.80
  -2  -5 -30    6.10    2.80
  -2   5 -30    0.90    2.50
   2  -6 -30   14.10    3.10
   2   6 -30   21.20    2.90
  -2  -6 -30   17.60    2.70
  -2   6 -30   18.60    3.10
   2  -7 -30    1.00    2.60
   2   7 -30    3.10    2.50
  -2  -7 -30    1.60    2.80
  -2   7 -30    2.80    2.50
   2  -8 -30   -1.00    2.90
   2   8 -30    2.90    2.60
  -2  -8 -30    0.30    2.50
  -2   8 -30    0.50    2.50
   2  -9 -30   -3.50    3.30
   2   9 -30    1.20    2.70
  -2  -9 -30    1.30    2.50
  -2   9 -30    4.40    2.70
  -2  10 -30    1.50    3.00
   2 -10 -30   -6.80    3.50
   2  10 -30   -1.90    2.90
  -2 -10 -30   -0.50    3.10
  -2  11 -30   -1.40    3.30
   2 -11 -30   -2.60    3.00
   2  11 -30    0.40    3.10
  -2 -11 -30    0.50    2.80
  -2  12 -30    0.00    3.20
   2 -12 -30   -0.50    3.40
   2  12 -30    0.60    3.40
  -2 -12 -30   -4.30    3.30
   2 -13 -30    0.90    3.10
  -2  13 -30   -1.90    3.50
   2  13 -30    0.90    3.10
  -2 -13 -30    3.90    3.10
   3  -1 -30    1.20    2.50
   3   1 -30    0.20    2.40
  -3  -1 -30   -0.30    3.20
  -3   1 -30    1.10    2.70
   3  -2 -30    9.10    2.40
   3   2 -30    8.20    2.40
  -3  -2 -30    5.00    2.40
  -3   2 -30   10.10    2.70
   3  -3 -30   -0.10    2.80
   3   3 -30    2.60    2.70
  -3  -3 -30    1.40    2.40
  -3   3 -30    0.30    2.80
   3  -4 -30    0.30    2.40
   3   4 -30    3.80    2.80
  -3  -4 -30    2.10    2.30
  -3   4 -30   -4.20    2.90
   3  -5 -30   -0.20    2.40
   3   5 -30    0.40    2.40
  -3  -5 -30    1.40    2.40
  -3   5 -30    5.00    2.80
   3  -6 -30    0.10    2.70
   3   6 -30    0.40    2.40
  -3  -6 -30    3.40    3.00
  -3   6 -30   -1.20    2.50
   3  -7 -30   -0.90    2.50
   3   7 -30    0.60    2.50
  -3  -7 -30    2.70    2.50
  -3   7 -30    0.60    2.80
   3  -8 -30    4.50    3.00
   3   8 -30    4.90    3.00
  -3  -8 -30    5.40    2.80
  -3   8 -30   -1.70    3.00
   3  -9 -30   15.40    3.40
   3   9 -30   11.50    3.00
  -3  -9 -30    5.80    3.10
  -3   9 -30    5.80    3.40
   3 -10 -30   -1.40    3.40
   3  10 -30    0.20    3.20
  -3 -10 -30   -4.40    3.40
  -3  10 -30   -1.40    3.00
   3 -11 -30    3.50    3.20
   3  11 -30   -2.00    3.60
  -3 -11 -30   -0.40    3.60
  -3  11 -30   10.90    3.20
  -3  12 -30    0.10    3.40
   3 -12 -30   -3.00    3.20
   3  12 -30    0.50    3.20
  -3 -12 -30   -0.10    3.20
   3 -13 -30    2.00    3.20
   4   0 -30    0.80    2.60
  -4   0 -30    1.20    2.50
   4  -1 -30   -0.20    2.30
   4   1 -30   -0.80    2.60
  -4  -1 -30   -0.30    2.60
  -4   1 -30    2.50    2.80
   4  -2 -30    6.60    2.90
   4   2 -30    2.80    2.90
  -4  -2 -30    2.30    2.50
  -4   2 -30    3.80    2.50
   4  -3 -30   -2.20    2.90
   4   3 -30    2.50    2.70
  -4  -3 -30   -0.90    2.30
  -4   3 -30   -1.60    2.50
   4  -4 -30   -0.60    2.90
   4   4 -30    1.60    2.70
  -4  -4 -30    0.80    2.30
  -4   4 -30    1.50    2.40
   4  -5 -30    0.70    2.40
   4   5 -30   -0.60    2.90
  -4  -5 -30   -3.90    2.50
  -4   5 -30    1.40    2.90
   4  -6 -30    4.60    2.40
   4   6 -30    4.20    2.40
  -4  -6 -30    2.60    2.80
  -4   6 -30    0.80    2.50
   4  -7 -30   -0.20    2.80
   4   7 -30    1.60    2.50
  -4  -7 -30    0.70    2.50
  -4   7 -30   -4.30    3.00
   4  -8 -30    9.90    3.00
   4   8 -30   12.00    2.70
  -4  -8 -30   12.10    3.20
  -4   8 -30   11.20    3.10
   4  -9 -30    2.80    2.90
   4   9 -30    3.10    2.90
  -4  -9 -30    4.50    2.80
  -4   9 -30    0.40    3.30
   4 -10 -30    2.70    3.30
   4  10 -30    5.90    3.50
  -4 -10 -30    3.10    2.90
  -4  10 -30    6.70    3.30
   4 -11 -30   -0.50    3.50
   4  11 -30    2.20    3.20
  -4 -11 -30    1.10    3.20
  -4  11 -30   -0.20    3.20
   4 -12 -30    2.30    2.80
   4  12 -30   -2.20    2.90
  -4 -12 -30    0.60    3.50
  -4  12 -30    9.70    3.40
   5  -1 -30    8.20    3.00
   5   1 -30    9.00    3.10
   5  -2 -30    4.00    2.30
   5   2 -30    5.60    2.40
  -5   2 -30    2.50    2.50
   5  -3 -30    1.30    2.50
   5   3 -30    2.50    2.30
  -5   3 -30    1.20    2.40
   5  -4 -30    8.90    2.40
   5   4 -30   12.00    2.50
  -5   4 -30    2.20    2.50
   5  -5 -30   -0.30    3.00
   5   5 -30   -4.20    2.50
  -5   5 -30   -1.10    2.90
   5  -6 -30    0.10    2.50
   5   6 -30    0.90    2.90
  -5   6 -30    0.90    2.50
   5  -7 -30    2.90    2.90
   5   7 -30   -1.80    2.90
  -5   7 -30   -0.50    3.00
   5  -8 -30    3.90    2.50
   5   8 -30    5.60    2.90
  -5   8 -30    4.30    3.10
   5  -9 -30    0.20    2.70
  -5  -9 -30   -1.60    2.40
   5   9 -30   -1.70    2.50
  -5   9 -30   -2.30    3.20
   5 -10 -30   -2.10    2.90
  -5 -10 -30   -1.80    2.70
   5  10 -30   -2.60    2.70
  -5  10 -30   -0.60    3.30
   5 -11 -30    1.30    3.50
  -5 -11 -30    3.90    3.20
   5  11 -30   -1.20    2.80
  -5  11 -30    1.80    3.20
   5 -12 -30   -2.80    3.20
  -5 -12 -30    1.20    3.40
   5  12 -30    1.30    3.20
  -5  12 -30    0.20    3.40
   6   0 -30    3.40    3.10
   6  -1 -30   -0.10    2.40
   6   1 -30    2.10    2.60
   6  -2 -30    1.20    2.30
   6   2 -30    0.50    2.70
   6  -3 -30   -1.30    2.40
   6   3 -30   -1.70    2.90
   6  -4 -30   -2.60    2.40
   6   4 -30    0.80    2.80
   6  -5 -30   -1.60    2.50
   6   5 -30   -1.00    2.90
  -6   5 -30    1.20    3.00
   6  -6 -30    2.70    2.90
   6   6 -30    3.10    2.90
  -6   6 -30    2.00    2.50
   6  -7 -30    0.60    2.80
   6   7 -30   -0.30    2.70
  -6   7 -30    0.20    3.00
   6  -8 -30    1.50    2.60
   6   8 -30   -2.70    3.10
  -6   8 -30   -0.80    3.10
   6  -9 -30   -2.00    2.80
  -6   9 -30    3.50    3.30
   6   9 -30    1.70    2.80
   6 -10 -30    2.50    2.90
  -6  10 -30   -3.20    3.50
   6  10 -30    0.80    2.80
   6 -11 -30    4.30    3.20
  -6  11 -30    0.00    3.10
   6  11 -30   -1.90    3.20
  -6 -12 -30   -1.40    3.40
   7  -1 -30    0.30    2.40
   7   1 -30    2.40    3.10
  -7   1  30   -2.30    2.50
  -7  -1  30    4.10    2.60
   7  -2 -30    9.40    2.90
   7   2 -30    9.20    2.60
  -7  -2  30    1.80    3.00
   7  -3 -30   -1.50    2.90
   7   3 -30    3.80    2.50
  -7  -3  30    0.40    3.00
   7  -4 -30    0.50    2.80
   7   4 -30   -1.60    2.40
  -7  -4  30   -5.60    3.10
   7  -5 -30    6.10    2.60
  -7  -5  30    5.50    2.70
   7   5 -30    2.70    2.40
   7  -6 -30   -0.50    3.00
  -7  -6  30    0.50    2.50
   7   6 -30   -1.50    2.50
   7  -7 -30    6.80    2.50
  -7   7 -30    4.80    2.90
  -7  -7  30    2.50    3.10
   7   7 -30    2.30    2.90
  -7  -8  30    1.40    2.60
   7  -8 -30   -0.40    3.10
  -7   8 -30   -0.10    3.30
   7   8 -30   -1.40    2.50
   7  -9 -30    0.10    3.40
  -7   9 -30   -0.20    3.50
   7   9 -30   -0.40    3.10
   7 -10 -30    2.70    3.30
  -7  10 -30   -3.10    3.50
   7  10 -30    3.30    3.10
   7  11 -30    1.00    3.30
   7 -11 -30    2.10    2.90
  -7  11 -30    2.20    3.20
  -8   0  30    1.60    2.60
   8   0 -30   -2.90    2.90
   8  -1 -30    4.90    2.50
  -8   1  30    0.50    3.00
   8   1 -30    1.20    2.60
  -8  -1  30   -3.90    3.20
  -8   2  30    1.80    2.50
   8  -2 -30    2.50    2.50
  -8  -2  30    0.20    2.60
   8   2 -30    1.00    2.90
  -8   3  30   -0.80    2.40
   8  -3 -30    2.00    2.40
  -8  -3  30    1.40    2.50
   8   3 -30    0.10    2.80
  -8   4  30    2.70    2.30
   8  -4 -30    1.00    2.40
  -8  -4  30   -3.60    2.50
   8   4 -30   -0.60    2.50
   8  -5 -30    2.50    3.10
   8   5 -30    1.00    2.50
  -8  -6  30    0.10    3.00
   8  -6 -30    0.00    2.60
   8   6 -30    0.90    2.80
  -8  -7  30   -3.20    2.50
   8  -7 -30    4.90    3.00
   8   7 -30   -0.30    2.90
  -8  -8  30   -1.40    3.10
   8  -8 -30    1.20    3.00
   8   8 -30   -1.10    2.60
  -8   9 -30   -2.50    3.20
  -8  -9  30    3.20    3.00
   8  -9 -30    0.90    3.10
   8   9 -30   -1.60    3.10
   8  10 -30    2.00    3.20
  -8 -10  30    4.20    3.10
  -8  10 -30    4.00    3.20
   8 -10 -30    2.90    3.50
   9  -1 -30    1.40    2.50
   9   1 -30   -0.20    2.90
  -9   2  30   -0.90    2.60
  -9  -2  30    3.30    2.60
   9  -2 -30    4.80    2.90
   9   2 -30    9.20    2.60
  -9   3  30    2.50    2.50
  -9  -3  30    4.50    2.50
   9  -3 -30    1.10    2.90
   9   3 -30    4.50    2.80
  -9   4  30   -0.40    2.50
  -9  -4  30    0.40    2.50
   9  -4 -30    3.70    2.40
   9   4 -30    4.70    3.10
  -9   5  30   -1.40    2.60
  -9  -5  30   -2.50    2.50
   9  -5 -30    1.20    2.50
   9   5 -30   -1.30    3.00
   9  -6 -30    5.00    3.10
   9   6 -30    5.40    3.00
   9  -7 -30    2.20    2.50
   9   7 -30   -3.40    2.80
   9   8 -30    2.30    2.70
   9  -8 -30    2.80    2.70
   9   9 -30    1.40    3.00
  -9  -9  30   -5.10    2.70
   9  -9 -30   -0.30    3.20
  10   0 -30    5.00    2.90
  10  -1 -30    5.60    2.60
  10   1 -30    0.60    2.50
 -10   2  30    2.30    2.50
 -10  -2  30   -2.20    2.50
  10  -2 -30    2.00    2.50
  10   2 -30    3.00    2.60
 -10   3  30   -1.20    2.50
  10  -3 -30    1.30    2.40
  10   3 -30   -2.20    2.70
  10   4 -30    2.50    3.00
 -10   4  30    0.30    2.40
  10  -4 -30    3.00    2.40
  10   5 -30    6.40    3.10
 -10   5  30   -2.00    2.60
 -10  -5  30   -0.30    2.60
  10  -5 -30    5.10    3.00
  10   6 -30    3.80    3.10
 -10   6  30    3.30    2.50
  10  -6 -30   -2.90    2.60
  10   7 -30   -0.10    2.70
 -10   7  30   -4.90    2.90
  10  -7 -30    3.70    3.10
  10  -8 -30    0.20    3.30
  10   8 -30   -1.40    2.70
  11   1 -30    5.30    2.70
  11  -1 -30    0.00    3.00
  11  -2 -30   -0.10    2.60
  11   2 -30   -1.80    3.10
 -11   2  30   -0.90    2.50
  11  -3 -30   -1.50    3.00
  11   3 -30   -0.30    2.60
 -11   3  30   -0.20    2.60
  11  -4 -30    2.50    3.20
  11   4 -30    5.50    2.70
 -11   4  30    0.40    2.70
  11  -5 -30    2.30    2.70
  11   5 -30    0.50    3.00
 -11   5  30   -1.40    2.70
  11  -6 -30    3.50    3.00
  11   6 -30   -0.90    3.30
 -11   6  30    3.50    3.00
  11  -7 -30    1.20    2.80
  11   7 -30    2.80    3.20
 -11   7  30   -5.50    3.10
  12   0 -30    0.10    3.10
 -12   0  30   -0.40    2.70
  12   1 -30    0.40    2.70
  12  -1 -30    8.40    3.40
  12  -2 -30   -0.20    3.00
  12   2 -30    5.30    3.10
  12  -3 -30    0.60    3.40
  12   3 -30    1.40    2.90
  12  -4 -30   -1.30    3.20
  12   4 -30    5.70    3.20
  12  -5 -30    1.10    2.80
  12   5 -30    2.30    3.50
 -12   5  30   -2.90    3.20
  12  -6 -30   -2.30    3.30
 -12   6  30   -1.50    3.40
  13   1 -30    0.20    2.70
  13  -1 -30   -3.00    3.30
  13  -2 -30   12.40    3.50
  13   2 -30    7.70    3.20
  13   3 -30   -2.80    3.00
  -1  -1 -31   -1.90    2.50
  -1   1 -31   -2.10    2.30
   1  -1 -31    0.00    2.40
   1   1 -31    1.30    2.40
  -1  -2 -31    1.30    2.40
  -1   2 -31    5.00    2.40
   1  -2 -31    0.30    2.40
   1   2 -31   -0.60    2.40
  -1  -3 -31   -0.40    2.70
  -1   3 -31    2.10    2.40
   1  -3 -31    1.40    2.70
   1   3 -31   -0.30    2.30
   1   4 -31    1.50    2.40
  -1  -4 -31    1.40    2.70
  -1   4 -31    3.50    2.50
   1  -4 -31    3.70    2.80
   1   5 -31   -1.20    2.40
  -1  -5 -31   -1.00    2.50
  -1   5 -31   -0.60    2.40
   1  -5 -31   -1.80    2.40
   1   6 -31    5.80    3.00
  -1  -6 -31    0.80    2.40
  -1   6 -31    5.10    3.00
   1  -6 -31    0.90    2.40
   1   7 -31    1.00    2.50
  -1  -7 -31    0.20    3.00
  -1   7 -31    0.90    2.50
   1  -7 -31    0.20    2.90
   1   8 -31   -0.10    2.80
  -1  -8 -31    1.80    2.80
   1  -8 -31    2.10    3.00
  -1   8 -31    1.60    2.50
   1  -9 -31    3.90    3.00
  -1   9 -31    1.40    3.00
   1   9 -31    2.20    3.40
  -1  -9 -31    0.60    2.60
   1 -10 -31   -1.60    3.30
  -1  10 -31    0.70    3.00
   1  10 -31   -0.40    3.50
  -1 -10 -31    1.20    2.80
   1 -11 -31    4.70    3.70
  -1  11 -31    5.90    3.30
   1  11 -31    0.90    3.30
  -1 -11 -31   -1.10    3.30
   1 -12 -31    1.00    3.20
  -1  12 -31    0.80    3.40
   1  12 -31   -1.20    3.20
  -1 -12 -31    1.50    3.40
   2   0 -31   -0.20    2.50
  -2   0 -31    1.90    2.50
   2  -1 -31   -0.40    2.40
   2   1 -31   -0.90    2.50
  -2  -1 -31    0.00    2.60
  -2   1 -31   -1.50    2.40
   2  -2 -31    1.40    2.90
   2   2 -31    1.10    2.90
  -2  -2 -31    0.40    2.70
  -2   2 -31    1.40    2.80
   2  -3 -31    3.60    2.80
   2   3 -31    9.90    2.80
  -2  -3 -31    5.90    2.50
  -2   3 -31    8.20    3.00
   2  -4 -31    8.30    2.80
   2   4 -31    8.60    2.80
  -2  -4 -31    2.50    2.50
  -2   4 -31   14.50    2.90
   2  -5 -31   -2.30    3.00
   2   5 -31    0.50    3.00
  -2  -5 -31   -0.30    2.90
  -2   5 -31    3.10    2.40
   2  -6 -31   -0.60    2.40
   2   6 -31   -2.30    2.40
  -2  -6 -31    1.60    2.40
  -2   6 -31    3.20    2.50
   2  -7 -31   -1.80    3.00
   2   7 -31   -0.50    3.00
  -2  -7 -31    0.10    2.50
  -2   7 -31    0.60    2.80
   2  -8 -31    4.70    2.60
   2   8 -31    8.70    2.50
  -2  -8 -31    5.00    2.60
  -2   8 -31    7.30    3.00
   2  -9 -31    2.90    2.80
   2   9 -31   -2.80    2.70
  -2  -9 -31    1.10    3.00
  -2   9 -31   -2.50    3.30
  -2  10 -31    1.10    3.50
   2 -10 -31    1.60    3.00
   2  10 -31   -0.60    2.90
  -2 -10 -31    4.10    3.40
  -2  11 -31    1.60    3.30
   2 -11 -31   -2.40    3.30
   2  11 -31   -1.20    3.00
  -2 -11 -31    3.70    3.10
  -2  12 -31    2.70    3.40
   2 -12 -31   -1.70    3.40
   2  12 -31    0.40    3.40
  -2 -12 -31    0.70    2.80
   3  -1 -31   14.60    2.80
   3   1 -31    9.60    3.00
  -3  -1 -31   10.10    3.20
  -3   1 -31   13.80    3.00
   3  -2 -31   -1.40    2.30
   3   2 -31    7.50    2.50
  -3  -2 -31    3.30    2.50
  -3   2 -31   -0.60    2.70
   3  -3 -31    0.90    2.30
   3   3 -31    2.80    2.30
  -3  -3 -31    5.40    2.40
  -3   3 -31    3.30    2.40
   3  -4 -31   -0.50    2.30
   3   4 -31   -0.90    2.50
  -3  -4 -31    1.60    2.40
  -3   4 -31   -2.50    2.80
   3  -5 -31   14.20    2.50
   3   5 -31   11.50    2.50
  -3  -5 -31   10.00    2.60
  -3   5 -31   12.50    3.00
   3  -6 -31    4.30    3.00
   3   6 -31    5.40    3.00
  -3  -6 -31    4.90    3.00
  -3   6 -31    2.70    2.60
   3  -7 -31    1.00    2.50
   3   7 -31    1.00    2.60
  -3  -7 -31    2.40    2.50
  -3   7 -31    0.60    2.90
   3  -8 -31    6.00    2.80
   3   8 -31   -0.90    3.10
  -3  -8 -31    1.50    3.10
  -3   8 -31   -1.30    2.80
   3  -9 -31   -0.60    3.30
   3   9 -31    5.60    3.10
  -3  -9 -31    4.70    2.90
  -3   9 -31    3.20    3.10
   3 -10 -31    1.20    3.50
   3  10 -31   -0.20    3.20
  -3 -10 -31   -0.80    3.00
  -3  10 -31    0.60    3.40
   3 -11 -31   -0.80    2.80
   3  11 -31    2.50    3.50
  -3 -11 -31   -1.20    3.40
  -3  11 -31    0.30    3.40
  -3  12 -31   -1.70    3.40
   3 -12 -31   -1.10    3.40
   3  12 -31   -1.70    3.40
  -3 -12 -31    3.80    3.40
   4   0 -31   -7.10    2.90
  -4   0 -31   -0.50    2.50
   4  -1 -31    1.80    2.50
   4   1 -31    0.40    2.50
  -4  -1 -31   -1.50    3.00
  -4   1 -31    1.20    2.90
   4  -2 -31   -0.40    2.40
   4   2 -31    2.30    2.80
  -4  -2 -31   -1.30    2.40
  -4   2 -31    0.50    2.30
   4  -3 -31    1.00    2.70
   4   3 -31    4.00    2.70
  -4  -3 -31    7.70    2.50
  -4   3 -31    2.50    2.40
   4  -4 -31    1.90    2.80
   4   4 -31    3.20    2.80
  -4  -4 -31    0.90    2.50
  -4   4 -31    2.10    2.50
   4  -5 -31    1.30    2.40
   4   5 -31    1.80    2.90
  -4  -5 -31    5.30    2.40
  -4   5 -31    0.80    2.90
   4  -6 -31   15.10    3.00
   4   6 -31   14.90    2.80
  -4  -6 -31   21.50    3.30
  -4   6 -31   17.70    2.70
   4  -7 -31   -2.20    2.60
   4   7 -31   -0.80    2.60
  -4  -7 -31   -1.30    2.60
  -4   7 -31   -3.00    3.00
   4  -8 -31    6.00    3.10
   4   8 -31    4.30    2.50
  -4  -8 -31    5.60    3.20
  -4   8 -31    4.70    2.70
   4  -9 -31    1.70    3.40
   4   9 -31    4.50    3.20
  -4  -9 -31    1.10    2.80
  -4   9 -31   -2.90    2.90
   4 -10 -31    3.00    3.50
   4  10 -31    1.70    3.40
  -4 -10 -31    4.60    2.70
  -4  10 -31    0.00    3.30
   4 -11 -31   -0.70    3.50
   4  11 -31    1.70    3.50
  -4 -11 -31   -1.30    3.20
  -4  11 -31   -0.20    3.50
   4 -12 -31   -1.20    2.80
   4  12 -31    3.10    3.20
  -4 -12 -31   -2.80    3.30
   5  -1 -31    0.70    2.80
   5   1 -31    2.20    3.00
  -5   1 -31    1.00    2.90
   5  -2 -31   13.70    2.80
   5   2 -31   19.20    2.60
  -5   2 -31   16.80    2.60
   5  -3 -31   -4.70    2.50
   5   3 -31   -0.30    2.40
  -5   3 -31    2.40    2.30
   5  -4 -31    2.20    2.70
   5   4 -31   -4.30    2.40
  -5   4 -31    0.40    2.50
   5  -5 -31   -0.80    2.80
   5   5 -31   -2.30    2.50
  -5   5 -31    5.50    3.20
   5  -6 -31    0.70    2.60
   5   6 -31   -1.50    2.50
  -5   6 -31   -1.00    2.60
   5  -7 -31   -2.70    3.00
   5   7 -31    1.80    3.10
  -5  -7 -31   -5.40    2.60
  -5   7 -31   -1.00    3.10
   5  -8 -31    0.90    2.80
   5   8 -31   -1.70    2.50
  -5  -8 -31    2.80    3.10
  -5   8 -31    4.00    2.70
   5  -9 -31    3.90    2.80
   5   9 -31    0.60    2.60
  -5  -9 -31    4.20    2.90
  -5   9 -31    2.10    2.90
   5 -10 -31    1.30    2.80
  -5 -10 -31    0.00    3.10
   5  10 -31    1.40    3.10
  -5  10 -31   -0.90    3.30
   5 -11 -31    1.50    3.40
  -5 -11 -31    0.00    3.10
   5  11 -31    0.30    3.40
  -5  11 -31   -1.60    3.40
   6   0 -31   -0.90    3.20
   6  -1 -31   -2.70    2.60
   6   1 -31    1.70    2.60
   6  -2 -31   -3.50    2.40
   6   2 -31    0.00    2.90
   6  -3 -31   -0.10    2.40
   6   3 -31   -1.70    2.80
   6  -4 -31   -0.90    2.40
   6   4 -31   -0.20    2.80
  -6   4 -31   -5.10    2.80
   6  -5 -31    5.60    2.60
   6   5 -31    0.20    2.80
  -6   5 -31    2.30    3.20
   6  -6 -31    0.00    2.80
   6   6 -31    0.10    3.00
  -6   6 -31    3.30    2.60
   6  -7 -31    6.60    2.60
   6   7 -31    7.00    2.70
  -6   7 -31    6.60    3.10
   6  -8 -31   10.20    2.70
   6   8 -31   11.60    3.00
  -6   8 -31   10.40    3.10
   6  -9 -31   -0.30    3.00
   6   9 -31    1.30    2.70
  -6   9 -31    0.50    3.20
   6 -10 -31    4.30    3.20
   6  10 -31    1.30    3.10
  -6  10 -31   -0.30    3.20
   6 -11 -31   -0.40    3.10
  -6 -11 -31    2.50    3.40
  -6  11 -31    1.70    3.30
   6  11 -31    3.90    3.20
   7  -1 -31    5.10    2.90
   7   1 -31    4.50    3.10
  -7  -1  31    0.60    2.60
   7  -2 -31   -2.00    3.10
   7   2 -31   -1.60    2.50
  -7  -2  31   -2.70    2.50
   7  -3 -31    4.90    3.00
   7   3 -31    3.10    2.50
  -7  -3  31    3.10    2.60
   7  -4 -31   11.40    3.00
  -7  -4  31    4.80    2.70
   7   4 -31    4.90    2.90
   7  -5 -31    1.60    2.50
  -7  -5  31    1.20    2.50
   7   5 -31    1.90    2.80
   7  -6 -31    5.60    2.90
  -7  -6  31   -2.50    2.40
  -7   6 -31    0.60    2.90
   7   6 -31    0.70    2.50
   7  -7 -31    4.50    2.50
  -7   7 -31    4.20    2.80
   7   7 -31    3.10    2.60
   7  -8 -31    2.50    3.20
  -7   8 -31   -0.10    3.30
   7   8 -31   -0.20    3.00
   7  -9 -31    4.50    3.30
  -7   9 -31   -0.90    3.40
   7   9 -31    4.10    2.60
   7 -10 -31    5.60    3.40
  -7  10 -31    2.90    3.40
   7  10 -31    3.60    2.80
  -8   0  31   -2.60    2.50
   8   0 -31    5.60    2.90
  -8   1  31    0.90    2.50
  -8  -1  31   -0.40    2.60
   8  -1 -31    2.30    2.50
   8   1 -31    1.10    2.60
  -8   2  31   -2.00    3.10
   8  -2 -31   -2.00    2.50
  -8  -2  31   -0.60    3.10
   8   2 -31    1.30    2.90
   8  -3 -31    0.00    2.50
  -8  -3  31    4.70    2.90
   8   3 -31    1.50    2.60
   8  -4 -31    0.70    2.50
  -8  -4  31    1.00    2.90
   8   4 -31    1.00    2.50
   8  -5 -31   -0.70    2.70
   8   5 -31    0.10    2.50
  -8  -6  31    0.50    2.50
   8  -6 -31    4.70    2.50
   8   6 -31   -1.80    2.50
  -8  -7  31   -0.80    2.80
   8  -7 -31   -4.90    2.90
   8   7 -31    0.60    3.00
  -8   8 -31    0.00    2.70
  -8  -8  31    1.30    2.70
   8  -8 -31    2.30    2.60
   8   8 -31   -0.40    2.90
  -8  -9  31    1.00    3.20
  -8   9 -31    2.10    3.20
   8  -9 -31    3.40    2.90
   8   9 -31   -2.30    3.10
  -8  10 -31    0.30    3.30
   8 -10 -31    0.20    2.90
   9   1 -31   -1.20    2.60
   9  -1 -31    5.00    3.00
   9  -2 -31   -1.00    2.80
   9   2 -31   -0.10    2.80
  -9   3  31   -0.60    2.50
   9  -3 -31    1.40    2.80
   9   3 -31    1.30    2.90
  -9   4  31   -1.10    2.40
   9  -4 -31    5.00    3.00
   9   4 -31    4.10    2.60
   9  -5 -31    1.90    2.50
   9   5 -31    1.80    2.70
   9  -6 -31   -1.80    2.90
   9   6 -31    1.70    2.60
  -9  -7  31   -1.50    2.60
   9  -7 -31    3.80    2.50
   9   7 -31    4.50    3.00
   9   8 -31    0.30    3.10
   9  -8 -31    5.80    3.30
  -9   9 -31    1.90    3.40
  -9  -9  31    2.00    3.20
   9  -9 -31    0.60    3.50
 -10   0  31    0.00    2.70
  10   0 -31   -0.10    2.70
  10  -1 -31    3.00    2.80
  10   1 -31   -0.70    3.00
  10  -2 -31   -4.50    2.90
  10   2 -31    2.70    2.70
 -10   3  31   -1.50    2.50
  10  -3 -31    0.10    2.90
  10   3 -31   -0.70    3.30
  10   4 -31    0.30    3.00
 -10   4  31   -5.00    2.60
  10  -4 -31    3.60    2.50
  10   5 -31    2.40    2.70
 -10   5  31    1.30    2.70
  10  -5 -31    0.90    2.70
  10   6 -31    0.20    3.10
 -10   6  31    3.30    3.10
  10  -6 -31    5.00    2.90
  10   7 -31    3.60    3.20
 -10  -7  31   -0.80    2.80
  10  -7 -31    0.50    3.10
  10   8 -31   -2.30    3.20
  10  -8 -31    3.90    2.80
  11  -1 -31    6.10    2.70
  11   1 -31    4.30    3.10
 -11  -1  31   -1.80    2.70
  11  -2 -31    3.00    2.70
  11   2 -31   -0.20    2.70
 -11   2  31    5.90    3.20
  11  -3 -31    2.10    2.70
  11   3 -31   -0.40    3.20
  11  -4 -31    5.00    2.60
  11   4 -31    0.30    3.10
 -11   4  31    1.20    2.60
  11  -5 -31   10.30    3.30
  11   5 -31    1.20    2.70
 -11   5  31    1.10    3.00
  11  -6 -31    3.10    2.80
  11   6 -31    7.50    2.80
 -11   6  31    0.50    3.30
 -11  -6  31   -2.10    2.70
  12   0 -31    2.70    2.80
 -12   0  31   -0.80    2.90
  12  -1 -31   -2.30    2.80
  12   1 -31   -0.10    3.10
  12  -2 -31   -2.10    2.80
  12   2 -31    4.40    2.90
  12  -3 -31    1.90    2.80
  12   3 -31    0.10    3.20
  12  -4 -31    1.60    3.20
  12   4 -31   -2.80    3.10
 -12   5  31    1.60    3.10
   0   0 -32   67.19    3.60
   0  -1 -32   -2.50    2.60
   0   1 -32    1.50    2.40
   0  -2 -32   13.30    2.60
   0   2 -32   10.10    2.50
   0  -3 -32    0.80    2.40
   0   3 -32    0.40    2.30
   0  -4 -32   39.40    2.90
   0   4 -32   34.90    2.90
   0  -5 -32   -1.90    2.40
   0   5 -32    0.00    2.40
   0   6 -32   11.20    3.20
   0  -6 -32    3.00    3.10
   0   7 -32   -1.90    2.60
   0  -7 -32    2.30    2.60
   0   8 -32    2.40    3.10
   0  -8 -32    1.80    3.00
   0   9 -32    1.30    3.30
   0  -9 -32   -3.00    3.00
   0  10 -32    0.60    3.50
   0 -10 -32    2.70    2.80
   0  11 -32   -2.10    3.40
   0 -11 -32    2.40    3.20
   0 -12 -32   -2.90    3.40
  -1  -1 -32    3.30    2.50
  -1   1 -32    4.10    2.50
   1  -1 -32    5.40    2.90
   1   1 -32    2.20    2.80
   1   2 -32    2.80    2.70
  -1  -2 -32   -1.10    2.90
  -1   2 -32    1.40    2.80
   1  -2 -32    2.30    2.70
  -1  -3 -32    2.30    2.70
  -1   3 -32    0.00    3.00
   1  -3 -32    3.00    2.40
   1   3 -32   -1.60    2.40
   1   4 -32   -5.50    2.50
  -1  -4 -32   -2.30    2.90
  -1   4 -32    2.00    3.00
   1  -4 -32   -3.60    2.40
   1   5 -32    1.50    2.90
  -1  -5 -32   -0.30    3.10
  -1   5 -32   -2.30    2.80
   1  -5 -32    2.30    2.90
   1   6 -32    0.00    2.70
  -1  -6 -32    2.10    2.60
  -1   6 -32    1.60    2.50
   1  -6 -32    1.50    2.70
   1   7 -32    1.70    2.90
  -1  -7 -32   -0.90    3.00
  -1   7 -32   -0.60    2.90
   1  -7 -32   -0.20    2.90
  -1   8 -32   11.80    2.90
   1   8 -32   13.80    2.60
  -1  -8 -32    8.30    2.50
   1  -8 -32   11.00    2.60
   1  -9 -32    1.20    3.00
  -1   9 -32   -1.40    3.10
   1   9 -32    2.80    3.10
  -1  -9 -32    0.80    2.80
   1 -10 -32    2.50    3.10
  -1  10 -32   -1.20    3.20
   1  10 -32    2.10    3.10
  -1 -10 -32   -3.10    3.10
   1 -11 -32   -0.60    3.10
  -1  11 -32   -2.40    3.50
   1  11 -32   -0.40    2.80
  -1 -11 -32   -1.30    3.20
  -1  12 -32   -0.80    3.20
   2   0 -32    7.00    3.10
  -2   0 -32    8.40    2.70
   2  -1 -32    6.50    2.60
   2   1 -32    7.50    2.60
  -2  -1 -32   10.90    3.00
  -2   1 -32    4.60    2.90
   2  -2 -32   32.50    2.70
   2   2 -32   24.70    2.70
  -2  -2 -32   26.80    2.70
  -2   2 -32   30.60    2.90
   2  -3 -32   -1.30    2.40
   2   3 -32    2.50    2.70
  -2  -3 -32   -0.10    2.40
  -2   3 -32   -0.80    2.40
   2  -4 -32   -2.00    2.40
   2   4 -32   -3.30    2.70
  -2  -4 -32   -0.10    2.30
  -2   4 -32    0.80    2.80
   2  -5 -32    0.90    2.40
   2   5 -32    2.10    2.50
  -2  -5 -32   -2.20    2.80
  -2   5 -32    1.60    3.10
   2  -6 -32   -1.00    2.90
   2   6 -32   -2.60    2.60
  -2  -6 -32   -1.20    2.80
  -2   6 -32   -0.90    2.60
   2  -7 -32   10.90    2.70
   2   7 -32    8.30    3.20
  -2  -7 -32   10.10    2.80
  -2   7 -32   15.10    3.10
   2  -8 -32   17.00    3.20
   2   8 -32   22.20    3.00
  -2  -8 -32   19.40    2.90
  -2   8 -32    9.10    2.80
   2  -9 -32    0.50    3.00
   2   9 -32    1.30    2.70
  -2  -9 -32   -0.90    3.10
  -2   9 -32    1.00    2.80
  -2  10 -32    1.00    2.90
   2 -10 -32   -0.30    3.20
   2  10 -32    2.30    2.80
  -2 -10 -32    3.10    3.40
  -2  11 -32   -4.00    3.40
   2 -11 -32   -3.00    3.50
   2  11 -32   -0.60    2.90
  -2 -11 -32   -1.60    3.40
   2 -12 -32   -0.90    3.20
  -2 -12 -32    1.10    3.20
   3  -1 -32    7.10    2.90
   3   1 -32    5.10    2.90
  -3  -1 -32    3.30    3.10
  -3   1 -32    2.20    3.00
   3  -2 -32    0.40    2.80
   3   2 -32    0.80    2.50
  -3  -2 -32    3.80    2.40
  -3   2 -32    4.20    2.40
   3  -3 -32   -0.80    2.80
   3   3 -32    0.60    2.30
  -3  -3 -32    2.30    2.40
  -3   3 -32    0.40    2.40
   3  -4 -32    3.50    2.80
   3   4 -32    4.00    2.50
  -3  -4 -32    2.50    2.40
  -3   4 -32   -0.80    2.40
   3  -5 -32   -0.60    3.00
   3   5 -32    0.50    2.40
  -3  -5 -32   -3.20    2.40
  -3   5 -32    3.00    2.80
   3  -6 -32    2.20    2.50
   3   6 -32    1.90    3.10
  -3  -6 -32   -0.40    2.90
  -3   6 -32   -0.10    2.90
   3  -7 -32    4.00    3.10
   3   7 -32    0.30    2.60
  -3  -7 -32    0.30    2.50
  -3   7 -32    4.00    2.90
   3  -8 -32    5.10    2.50
   3   8 -32    5.90    3.00
  -3  -8 -32    2.60    3.10
  -3   8 -32   -1.10    2.60
   3  -9 -32    0.70    2.70
   3   9 -32    1.90    3.10
  -3  -9 -32   -1.30    2.80
  -3   9 -32    2.50    3.10
   3 -10 -32    0.10    2.80
   3  10 -32    2.30    3.10
  -3 -10 -32   -1.80    3.10
  -3  10 -32   -0.70    2.90
  -3  11 -32    6.90    3.20
   3 -11 -32    6.20    2.80
   3  11 -32    7.90    3.20
  -3 -11 -32    1.90    3.20
   4   0 -32    1.60    3.10
  -4   0 -32    1.90    2.60
   4  -1 -32   -2.00    2.50
   4   1 -32    1.90    2.70
  -4  -1 -32   -0.10    3.20
  -4   1 -32    3.10    3.00
   4  -2 -32    2.00    2.50
   4   2 -32    6.00    2.50
  -4  -2 -32    2.90    2.50
  -4   2 -32    0.20    2.50
   4  -3 -32   -0.80    2.40
   4   3 -32   -0.20    3.00
  -4  -3 -32   -2.80    2.40
  -4   3 -32   -0.40    2.50
   4  -4 -32   19.20    2.70
   4   4 -32   27.80    3.20
  -4  -4 -32   24.90    2.60
  -4   4 -32   26.40    2.60
   4  -5 -32    0.50    2.50
   4   5 -32    1.20    2.80
  -4  -5 -32   -0.30    2.40
  -4   5 -32   -1.00    2.90
   4  -6 -32    0.60    3.20
   4   6 -32   -1.50    2.60
  -4  -6 -32    1.70    3.00
  -4   6 -32    1.40    2.90
   4  -7 -32    4.30    2.60
   4   7 -32    5.40    3.00
  -4  -7 -32    5.90    2.60
  -4   7 -32    5.40    2.90
   4  -8 -32    1.90    2.80
   4   8 -32    0.10    2.50
  -4  -8 -32   -0.10    3.10
  -4   8 -32    0.00    2.70
   4  -9 -32    4.40    3.40
   4   9 -32    3.80    3.30
  -4  -9 -32    5.90    3.00
  -4   9 -32    2.90    3.20
   4 -10 -32   -1.70    3.50
   4  10 -32   -1.40    3.30
  -4 -10 -32    3.90    2.70
  -4  10 -32    0.00    3.20
   4 -11 -32   -0.60    3.10
   4  11 -32   -1.60    3.40
  -4 -11 -32   -0.50    3.10
  -4  11 -32    0.00    3.10
   5  -1 -32    2.50    2.50
   5   1 -32    2.00    3.10
  -5  -1 -32   -2.10    3.20
  -5   1 -32    1.80    3.00
   5  -2 -32   11.10    3.10
   5   2 -32   15.40    2.70
  -5  -2 -32   18.70    2.70
  -5   2 -32   20.80    3.00
   5  -3 -32   -0.40    2.80
   5   3 -32    0.10    2.50
  -5  -3 -32    1.50    2.40
  -5   3 -32   -3.10    2.60
   5  -4 -32    4.60    3.00
   5   4 -32    4.90    2.50
  -5  -4 -32    3.10    2.50
  -5   4 -32    1.00    2.50
   5  -5 -32   -1.00    2.80
   5   5 -32    2.00    2.40
  -5  -5 -32    0.20    2.50
  -5   5 -32    2.40    3.20
   5  -6 -32   -2.20    2.50
   5   6 -32    0.40    2.50
  -5  -6 -32    1.10    3.00
  -5   6 -32   -0.40    2.60
   5  -7 -32   -1.80    2.80
   5   7 -32   -1.50    3.20
  -5  -7 -32    2.20    2.60
  -5   7 -32    3.40    2.70
   5  -8 -32    0.60    2.80
   5   8 -32    0.70    2.50
  -5  -8 -32   -0.90    3.00
  -5   8 -32    2.00    2.70
   5  -9 -32   -3.10    2.80
   5   9 -32    4.20    2.90
  -5  -9 -32   -3.90    2.80
  -5   9 -32   -0.20    2.80
   5 -10 -32    3.50    2.90
  -5 -10 -32   -0.10    3.10
   5  10 -32   -5.30    3.50
  -5  10 -32    1.30    2.80
   5 -11 -32    0.60    3.40
   5  11 -32   -1.70    3.40
   6   0 -32   15.30    3.20
   6  -1 -32   15.50    2.70
   6   1 -32   14.50    2.70
   6  -2 -32    6.00    2.60
   6   2 -32    6.70    2.90
   6  -3 -32    0.10    2.60
   6   3 -32   -0.90    2.80
  -6   3 -32   -0.80    3.00
   6  -4 -32    1.10    2.50
   6   4 -32   -1.10    2.50
  -6   4 -32    3.50    3.00
   6  -5 -32    2.80    2.50
   6   5 -32   -3.40    2.80
  -6   5 -32   -0.10    2.90
   6  -6 -32   -1.40    2.90
   6   6 -32    2.20    3.00
  -6   6 -32   -0.60    2.60
   6  -7 -32   -2.70    2.50
   6   7 -32    0.90    2.60
  -6   7 -32    2.30    3.00
   6  -8 -32    7.40    2.70
   6   8 -32    7.80    2.60
  -6   8 -32    5.90    3.20
   6  -9 -32    0.10    3.00
   6   9 -32    2.80    2.70
  -6   9 -32    2.10    2.80
   6 -10 -32    4.70    3.10
  -6 -10 -32   -0.30    3.30
   6  10 -32    0.60    3.30
  -6  10 -32   -0.10    3.20
   7  -1 -32    9.20    2.90
   7   1 -32   15.20    3.00
   7  -2 -32   15.60    3.20
   7   2 -32   14.40    2.60
   7  -3 -32    4.00    2.90
   7   3 -32    0.40    2.90
   7  -4 -32    0.10    3.00
   7   4 -32    1.20    3.10
   7  -5 -32   -2.30    2.40
  -7   5 -32   -1.50    2.50
   7   5 -32    2.10    3.00
   7  -6 -32    3.00    2.60
  -7   6 -32    1.20    3.10
   7   6 -32    2.10    2.80
   7  -7 -32   -0.10    2.90
  -7   7 -32   -1.30    2.60
   7   7 -32   -9.20    2.80
   7  -8 -32    0.40    3.20
  -7   8 -32   -1.80    3.40
   7   8 -32   -0.80    3.20
   7  -9 -32    1.30    3.10
  -7   9 -32   -0.60    3.40
   7   9 -32    0.40    2.80
  -8   0  32   -1.40    3.10
   8   0 -32   -2.80    2.50
  -8   1  32   14.90    2.60
  -8  -1  32   17.10    2.60
   8  -1 -32   10.60    2.60
   8   1 -32   10.40    3.00
  -8  -2  32    0.10    2.50
   8  -2 -32    2.00    2.50
   8   2 -32    6.40    2.50
  -8  -3  32    0.80    2.60
   8  -3 -32    3.00    2.50
   8   3 -32    0.40    2.70
  -8  -4  32    2.10    2.60
   8  -4 -32    1.20    2.50
   8   4 -32    1.00    2.50
  -8  -5  32    7.40    2.60
   8  -5 -32    9.00    2.50
   8   5 -32    6.80    3.00
  -8  -6  32    0.40    2.60
   8  -6 -32    5.50    2.80
   8   6 -32    2.50    2.60
  -8   7 -32    1.40    3.20
  -8  -7  32    3.60    3.20
   8  -7 -32   -0.50    2.60
   8   7 -32   -0.70    2.70
  -8  -8  32    0.30    2.70
  -8   8 -32    3.30    2.80
   8  -8 -32    1.20    2.80
   8   8 -32   -5.60    3.20
   8  -9 -32   -0.40    3.20
   8   9 -32   -2.80    2.90
  -9   1  32    3.10    2.80
  -9  -1  32    4.00    2.70
   9   1 -32    5.10    2.70
   9  -1 -32   11.40    3.10
   9  -2 -32   -0.50    2.50
   9   2 -32    2.10    3.20
   9  -3 -32   -0.20    2.60
   9   3 -32   -2.10    2.70
   9  -4 -32    2.20    2.90
   9   4 -32   -0.70    2.60
   9  -5 -32   -1.10    2.90
   9   5 -32   -3.50    2.70
  -9  -6  32   -1.40    2.70
   9  -6 -32    0.80    2.70
   9   6 -32    3.80    2.80
   9  -7 -32   -3.20    3.20
   9   7 -32   -0.90    2.80
  -9  -8  32   -1.20    2.80
   9  -8 -32    0.30    3.10
 -10   0  32    1.70    3.00
  10   0 -32    8.60    2.70
 -10   1  32   -1.00    2.70
 -10  -1  32    2.10    2.60
  10   1 -32   -0.90    2.60
  10  -1 -32    0.30    3.20
  10  -2 -32   -0.20    3.10
  10   2 -32   -1.10    3.00
 -10   3  32    2.20    3.20
  10  -3 -32    4.00    3.20
  10   3 -32    6.30    2.80
  10  -4 -32    0.90    3.10
  10   4 -32    3.30    2.80
  10   5 -32   -0.90    2.80
 -10   5  32    1.70    3.30
  10  -5 -32   -0.10    2.70
  10   6 -32    4.80    2.80
 -10  -6  32    3.50    2.80
  10  -6 -32    0.90    3.00
 -10  -7  32    2.20    3.40
  11   1 -32   -0.10    2.70
  11  -1 -32   -0.40    3.20
  11  -2 -32    9.70    3.20
  11   2 -32    2.00    2.80
 -11   2  32   -0.10    2.80
 -11  -2  32    2.00    2.80
  11  -3 -32    3.40    3.10
  11   3 -32    2.80    3.20
 -11  -3  32    0.80    2.80
  11  -4 -32   -3.30    2.80
  11   4 -32    5.20    2.80
 -11   4  32    2.00    3.10
 -11  -4  32    1.80    2.80
  11  -5 -32    1.80    2.80
  11   5 -32   -1.70    2.80
 -11  -5  32   -2.50    2.80
  12   0 -32    4.00    2.80
 -12   0  32   -3.20    2.80
  12   1 -32    1.00    2.80
  12  -1 -32    2.40    2.80
  -1  -1 -33    0.40    3.00
  -1   1 -33    3.30    2.90
   1  -1 -33    1.20    2.70
   1   1 -33    4.30    2.60
   1   2 -33    2.00    2.40
  -1  -2 -33    0.10    2.80
  -1   2 -33   -1.10    2.50
   1  -2 -33   -2.20    2.50
   1   3 -33    5.10    2.60
  -1  -3 -33    2.90    2.50
  -1   3 -33    2.50    2.40
   1  -3 -33    0.90    2.50
   1   4 -33    8.90    2.90
  -1  -4 -33    2.20    2.50
  -1   4 -33    4.20    2.50
   1  -4 -33    7.20    2.40
   1   5 -33   -3.00    2.40
  -1  -5 -33   -0.70    2.80
  -1   5 -33   -2.90    2.70
   1  -5 -33   -1.90    2.40
   1   6 -33    3.80    2.60
  -1  -6 -33    0.30    2.90
  -1   6 -33    2.20    3.00
   1  -6 -33    5.50    2.90
   1   7 -33    9.30    3.20
  -1  -7 -33    3.40    2.60
  -1   7 -33   -0.50    2.50
   1  -7 -33    4.90    2.60
   1  -8 -33    7.00    3.00
  -1   8 -33    1.30    2.50
   1   8 -33    5.70    2.80
  -1  -8 -33    8.20    2.80
   1  -9 -33   -3.00    3.00
  -1   9 -33    0.00    3.40
   1   9 -33    1.20    2.80
  -1  -9 -33   -0.70    3.20
   1 -10 -33    2.60    2.70
  -1  10 -33   -0.30    3.40
   1  10 -33    0.30    2.80
  -1 -10 -33   -4.90    3.30
   1 -11 -33   -1.00    3.10
  -1  11 -33    5.70    3.20
   1  11 -33    7.70    3.00
  -1 -11 -33    1.80    3.40
   2   0 -33    1.40    2.60
  -2   0 -33    3.20    2.60
   2  -1 -33    2.20    2.90
   2   1 -33    0.60    3.20
  -2  -1 -33    0.10    3.00
  -2   1 -33   -0.20    3.10
   2  -2 -33   -1.30    2.70
   2   2 -33   -1.60    2.50
  -2  -2 -33    1.50    2.50
  -2   2 -33    2.30    2.40
   2  -3 -33   -0.10    2.50
   2   3 -33    4.00    2.40
  -2  -3 -33   -0.70    2.50
  -2   3 -33   -1.80    2.40
   2  -4 -33    3.50    2.40
   2   4 -33    7.20    2.40
  -2  -4 -33    6.30    2.50
  -2   4 -33    4.60    2.60
   2  -5 -33    5.50    3.00
   2   5 -33    3.70    2.50
  -2  -5 -33    1.30    2.50
  -2   5 -33   -1.20    2.60
   2  -6 -33   -0.50    2.60
   2   6 -33   -0.20    3.10
  -2  -6 -33    3.50    3.00
  -2   6 -33    2.00    3.10
   2  -7 -33    3.50    3.00
   2   7 -33    4.90    2.70
  -2  -7 -33    2.40    2.60
  -2   7 -33    3.20    2.50
   2  -8 -33   -0.20    2.50
   2   8 -33    3.40    3.10
  -2  -8 -33    3.40    3.00
  -2   8 -33    2.40    3.00
   2  -9 -33   -0.70    3.00
   2   9 -33   -0.40    2.80
  -2  -9 -33    1.80    3.00
  -2   9 -33    4.80    3.40
  -2  10 -33    1.00    3.40
   2 -10 -33   -0.50    3.40
   2  10 -33   -1.00    2.90
  -2 -10 -33    1.80    2.70
  -2  11 -33    3.70    3.20
   2 -11 -33    4.70    3.10
   2  11 -33   -1.00    3.20
  -2 -11 -33   -0.90    3.20
   3  -1 -33   -2.00    2.50
   3   1 -33   -0.10    2.50
  -3  -1 -33   -1.50    2.90
  -3   1 -33   -2.30    2.90
   3  -2 -33    0.90    2.30
   3   2 -33    0.00    2.80
  -3  -2 -33   -2.10    2.60
  -3   2 -33    3.10    2.50
   3  -3 -33   -1.20    2.70
   3   3 -33   -0.50    2.80
  -3  -3 -33    3.20    2.50
  -3   3 -33   -2.70    2.40
   3  -4 -33   -1.80    2.80
   3   4 -33   -3.80    2.80
  -3  -4 -33    3.20    2.50
  -3   4 -33   -0.40    2.30
   3  -5 -33   -0.90    2.50
   3   5 -33    1.10    3.00
  -3  -5 -33    1.70    2.40
  -3   5 -33   -1.30    2.60
   3  -6 -33    0.90    2.50
   3   6 -33   -0.20    2.80
  -3  -6 -33   -3.90    2.80
  -3   6 -33    1.20    3.10
   3  -7 -33    4.40    2.90
   3   7 -33    4.70    2.60
  -3  -7 -33   -0.50    2.70
  -3   7 -33    2.40    2.50
   3  -8 -33    5.10    3.00
   3   8 -33   -0.10    2.90
  -3  -8 -33    0.30    3.10
  -3   8 -33    4.60    3.10
   3  -9 -33    3.20    3.10
   3   9 -33    4.60    3.10
  -3  -9 -33    5.00    2.70
  -3   9 -33    5.70    3.40
   3 -10 -33    3.10    3.20
   3  10 -33    8.20    3.20
  -3 -10 -33    1.80    2.80
  -3  10 -33    5.40    3.30
  -3  11 -33    0.30    3.40
  -3 -11 -33    2.30    2.80
   4   0 -33   -3.10    2.60
  -4   0 -33   -1.40    2.50
   4  -1 -33   -1.50    2.80
   4   1 -33    0.00    2.80
  -4  -1 -33   -0.40    3.10
  -4   1 -33    1.60    3.10
   4  -2 -33   -1.40    2.50
   4   2 -33    1.30    2.60
  -4  -2 -33    1.70    2.50
  -4   2 -33   -1.40    2.50
   4  -3 -33    0.10    2.50
   4   3 -33    5.10    2.50
  -4  -3 -33    4.90    2.50
  -4   3 -33    0.70    2.50
   4  -4 -33   10.80    2.60
   4   4 -33    7.90    3.00
  -4  -4 -33    9.30    2.70
  -4   4 -33   11.80    2.60
   4  -5 -33    3.80    2.80
   4   5 -33    2.30    2.50
  -4  -5 -33    1.40    2.50
  -4   5 -33   19.00    2.60
   4  -6 -33   10.60    3.00
   4   6 -33    6.20    2.60
  -4  -6 -33    7.60    3.00
  -4   6 -33    7.70    3.30
   4  -7 -33    3.40    2.90
   4   7 -33    0.50    3.00
  -4  -7 -33    2.50    2.60
  -4   7 -33    6.20    2.60
   4  -8 -33    1.20    2.50
   4   8 -33    2.60    2.60
  -4  -8 -33   -1.80    3.00
  -4   8 -33    1.30    3.10
   4  -9 -33    6.10    3.10
   4   9 -33    3.40    3.30
  -4  -9 -33    0.60    2.80
  -4   9 -33    6.50    3.30
   4 -10 -33    3.00    3.20
   4  10 -33   -2.90    3.10
  -4 -10 -33    0.40    2.70
  -4  10 -33    0.80    3.40
   5  -1 -33    3.00    2.50
   5   1 -33    1.50    2.90
  -5  -1 -33    4.10    2.90
  -5   1 -33    0.20    2.80
   5  -2 -33    3.70    2.80
   5   2 -33    1.40    2.80
  -5  -2 -33    4.20    2.90
  -5   2 -33   -0.70    2.90
   5  -3 -33    1.90    2.80
   5   3 -33    3.90    2.50
  -5  -3 -33   -1.70    2.50
  -5   3 -33    3.60    2.40
   5  -4 -33    1.80    2.80
   5   4 -33    1.70    2.50
  -5  -4 -33   -0.30    2.50
  -5   4 -33   -2.90    2.80
   5  -5 -33   15.60    2.70
   5   5 -33   20.90    2.70
  -5  -5 -33   12.70    3.00
  -5   5 -33   13.90    3.20
   5  -6 -33   -2.80    2.50
   5   6 -33    2.50    2.50
  -5  -6 -33   -0.50    2.80
  -5   6 -33    6.00    2.90
   5  -7 -33    2.30    2.80
   5   7 -33   -1.70    3.10
  -5  -7 -33    0.90    2.40
  -5   7 -33   -0.40    2.80
   5  -8 -33   -0.60    3.20
   5   8 -33    3.80    2.60
  -5  -8 -33    1.50    2.90
  -5   8 -33   -0.70    2.80
   5  -9 -33   -2.00    3.10
   5   9 -33   -0.50    3.30
  -5  -9 -33    1.80    3.20
  -5   9 -33    1.60    3.30
   5  10 -33   -2.30    3.20
  -5 -10 -33   -5.00    3.10
  -5  10 -33   -0.20    3.10
   6   0 -33    1.20    3.10
   6  -1 -33    3.10    2.50
   6   1 -33   -0.80    2.50
  -6   1 -33   -1.20    2.50
   6  -2 -33    1.80    2.60
   6   2 -33    1.30    2.80
  -6   2 -33   -0.20    2.50
   6  -3 -33    5.00    2.40
   6   3 -33    2.80    2.90
  -6   3 -33   -3.60    3.00
   6  -4 -33    1.10    2.50
   6   4 -33   -5.30    2.50
  -6   4 -33   -0.30    3.00
   6  -5 -33    1.40    2.80
   6   5 -33    0.00    2.40
  -6   5 -33    0.10    2.90
   6  -6 -33    2.50    2.80
   6   6 -33    1.70    2.80
  -6   6 -33    3.10    2.60
   6  -7 -33    0.10    2.80
   6   7 -33    0.10    3.00
  -6   7 -33    1.80    3.20
   6  -8 -33   -0.50    2.70
  -6  -8 -33    3.30    2.70
   6   8 -33   -0.70    2.50
  -6   8 -33   -2.00    2.80
   6  -9 -33    7.00    3.10
  -6  -9 -33    3.50    3.00
   6   9 -33    1.70    3.20
  -6   9 -33    4.70    2.90
   6 -10 -33   -0.80    3.20
   7  -1 -33    4.60    2.80
   7   1 -33   -2.30    2.80
   7  -2 -33   -1.10    2.90
   7   2 -33    2.70    2.60
   7  -3 -33   -2.90    2.90
   7   3 -33    0.90    3.10
   7  -4 -33   -0.50    3.10
  -7   4 -33   -0.20    2.50
   7   4 -33    1.60    3.10
   7  -5 -33    2.40    2.50
  -7   5 -33    2.70    2.70
   7   5 -33    0.30    2.90
   7  -6 -33    2.60    2.60
  -7   6 -33   -0.90    3.00
   7   6 -33    1.80    3.10
   7  -7 -33   -0.70    2.90
  -7   7 -33   -0.10    2.70
   7   7 -33    3.60    2.60
   7  -8 -33   -1.70    3.30
  -7   8 -33    1.20    3.30
   7   8 -33   -0.80    2.60
   8   0 -33    0.00    2.60
   8  -1 -33    2.90    2.70
   8   1 -33    3.20    3.00
  -8  -2  33    3.30    2.60
   8  -2 -33    0.80    2.60
   8   2 -33   -0.50    2.70
  -8  -3  33   -0.80    2.60
   8  -3 -33   -1.40    2.50
   8   3 -33    4.80    2.70
  -8  -4  33    5.00    2.70
   8  -4 -33   -0.90    2.60
   8   4 -33    2.70    3.00
  -8  -5  33    2.60    2.70
   8  -5 -33    6.30    2.70
   8   5 -33    2.60    3.20
  -8   6 -33   -3.70    2.60
   8  -6 -33   -0.10    3.20
   8   6 -33   -1.20    3.00
  -8   7 -33    2.30    3.30
   8  -7 -33    0.10    2.70
   8   7 -33    7.30    2.70
   8  -8 -33   -1.90    3.10
   8   8 -33   -0.30    2.80
  -9   1  33    0.80    2.80
   9  -1 -33    1.60    2.60
   9   1 -33   -1.00    2.60
  -9   2  33   -0.30    2.70
  -9  -2  33   -0.70    2.60
   9  -2 -33    0.40    2.70
   9   2 -33    4.50    3.00
  -9  -3  33   -0.10    2.80
   9  -3 -33    0.70    2.70
   9   3 -33    0.90    2.80
  -9  -4  33   -1.50    2.90
   9  -4 -33    0.20    2.60
   9   4 -33    1.50    2.80
  -9  -5  33    0.80    2.70
   9  -5 -33    2.90    3.20
   9   5 -33   -7.60    3.10
  -9  -6  33    0.50    3.10
   9  -6 -33   -0.70    2.70
   9   6 -33    0.50    3.10
   9  -7 -33    6.10    3.40
 -10   0  33    0.50    2.80
  10   0 -33   -0.40    3.10
  10   1 -33   -1.10    2.70
  10  -1 -33   -6.40    3.10
 -10   2  33   -0.60    2.70
 -10  -2  33   -0.90    2.80
  10  -2 -33    2.70    2.80
  10   2 -33    1.70    3.10
 -10   3  33    3.00    2.80
 -10  -3  33   -4.80    2.90
  10  -3 -33   -2.70    2.80
  10   3 -33   -0.20    2.80
 -10  -4  33    5.70    2.90
  10  -4 -33    1.20    3.30
  10   4 -33    1.10    2.80
  10   5 -33    2.80    3.00
 -10  -5  33   -4.30    2.80
  10  -5 -33    2.80    3.20
  11   1 -33   -2.10    2.80
  11  -1 -33    2.40    3.40
  11  -2 -33    0.60    3.10
  11   2 -33    1.40    3.40
 -11   2  33   -4.70    2.80
  11  -3 -33    5.30    3.10
  11   3 -33    2.90    2.90
   0   0 -34   -0.90    2.60
   0  -1 -34   -5.40    3.10
   0   1 -34   -0.60    3.00
   0  -2 -34   -1.10    2.50
   0   2 -34    1.90    2.50
   0  -3 -34    1.10    2.50
   0   3 -34    0.50    2.60
   0  -4 -34    0.40    2.50
   0   4 -34    2.00    2.50
   0  -5 -34   -1.20    2.80
   0   5 -34    2.20    2.50
   0   6 -34    1.70    2.80
   0  -6 -34    0.60    3.00
   0   7 -34   -2.60    2.50
   0  -7 -34   -1.60    2.60
   0   8 -34   10.00    3.10
   0  -8 -34    5.20    3.00
   0   9 -34    2.20    2.70
   0  -9 -34   -2.30    3.20
   0  10 -34    6.80    3.00
   0 -10 -34    8.60    3.40
   1   1 -34    4.50    2.80
  -1   1 -34   -3.00    2.50
  -1  -1 -34    1.10    2.80
   1  -1 -34    0.20    2.50
   1   2 -34   -1.60    2.80
  -1  -2 -34    1.00    2.50
  -1   2 -34    4.60    2.40
   1  -2 -34   -1.60    3.10
   1   3 -34   -0.70    2.50
  -1  -3 -34    5.10    2.50
  -1   3 -34   -3.50    2.50
   1  -3 -34   -2.30    2.90
   1   4 -34    0.10    2.50
  -1  -4 -34   -0.40    2.60
  -1   4 -34   -0.20    2.50
   1  -4 -34    1.10    2.70
   1   5 -34    3.80    2.80
  -1  -5 -34   -0.80    2.50
  -1   5 -34   -3.40    2.50
   1  -5 -34    5.30    2.90
   1   6 -34   -0.70    3.00
  -1  -6 -34   -4.70    2.80
  -1   6 -34   -2.60    2.90
   1  -6 -34    2.50    2.50
   1  -7 -34   -0.50    2.80
   1   7 -34    3.30    2.50
  -1  -7 -34    4.20    2.50
  -1   7 -34    2.70    2.80
   1  -8 -34    0.90    2.50
  -1   8 -34    1.20    3.00
   1   8 -34    4.00    3.20
  -1  -8 -34   -0.90    3.10
   1  -9 -34    3.80    3.10
  -1   9 -34   -2.60    2.80
   1   9 -34    1.60    3.10
  -1  -9 -34   -1.10    2.60
   1 -10 -34    2.80    3.40
  -1  10 -34    1.20    2.90
   1  10 -34    0.00    3.20
  -1 -10 -34   -1.70    2.70
   2   0 -34    1.70    2.90
  -2   0 -34    1.60    2.90
   2  -1 -34   -0.10    2.60
   2   1 -34    4.30    2.50
  -2  -1 -34    1.50    2.50
  -2   1 -34   -0.80    2.50
   2  -2 -34   -0.60    2.50
   2   2 -34    3.50    2.80
  -2  -2 -34    0.30    2.50
  -2   2 -34    1.90    2.40
   2  -3 -34    3.40    2.90
   2   3 -34    3.20    2.90
  -2  -3 -34   -1.20    2.50
  -2   3 -34    2.40    2.50
   2  -4 -34   -2.70    2.80
   2   4 -34    2.80    2.80
  -2  -4 -34    3.40    2.40
  -2   4 -34    0.50    2.50
   2  -5 -34   -2.80    2.50
   2   5 -34   -0.50    3.00
  -2  -5 -34    4.10    2.60
  -2   5 -34   -2.30    2.50
   2  -6 -34    4.60    2.50
   2   6 -34    3.90    2.50
  -2  -6 -34    6.20    2.80
  -2   6 -34    4.90    2.60
   2  -7 -34   -0.90    2.80
   2   7 -34   -1.00    2.50
  -2  -7 -34   -1.00    2.80
  -2   7 -34    1.10    2.90
   2  -8 -34    5.90    2.90
   2   8 -34    0.20    2.90
  -2  -8 -34    1.80    2.80
  -2   8 -34    6.30    3.00
   2  -9 -34   -3.30    2.60
   2   9 -34   -0.70    3.20
  -2  -9 -34   -1.30    2.60
  -2   9 -34   -1.30    2.70
  -2  10 -34   -0.10    2.90
   2 -10 -34    0.10    2.90
   2  10 -34    3.10    3.20
  -2 -10 -34    4.80    2.80
   3   1 -34    2.10    2.50
   3  -1 -34    4.20    2.90
  -3  -1 -34    5.40    2.60
  -3   1 -34    2.90    2.50
   3  -2 -34   -5.40    2.60
   3   2 -34    2.40    2.50
  -3  -2 -34    0.80    2.50
  -3   2 -34   -1.00    2.50
   3  -3 -34    0.40    2.50
   3   3 -34    1.20    2.60
  -3  -3 -34   -1.70    2.50
  -3   3 -34    0.60    2.50
   3  -4 -34   -0.30    2.40
   3   4 -34    2.80    2.90
  -3  -4 -34    2.20    2.50
  -3   4 -34    1.00    2.50
   3  -5 -34    5.30    2.80
   3   5 -34    0.70    2.80
  -3  -5 -34   -1.50    2.50
  -3   5 -34    2.80    2.50
   3  -6 -34    0.30    3.10
   3   6 -34    3.80    2.50
  -3  -6 -34   -1.30    2.80
  -3   6 -34    1.30    2.90
   3  -7 -34    2.00    2.50
   3   7 -34    2.80    2.90
  -3  -7 -34    1.90    2.50
  -3   7 -34    0.50    2.90
   3  -8 -34    3.50    2.80
   3   8 -34    3.00    2.60
  -3  -8 -34    4.30    2.80
  -3   8 -34   -0.90    3.00
   3  -9 -34   -4.20    3.30
   3   9 -34    0.70    3.40
  -3  -9 -34    1.30    2.70
  -3   9 -34    0.00    2.80
   3 -10 -34    0.30    3.50
  -3 -10 -34    2.70    2.70
  -3  10 -34   -1.20    2.70
   4   0 -34    0.90    2.50
  -4   0 -34   -0.10    2.50
   4  -1 -34    0.60    2.80
   4   1 -34   -0.40    3.00
  -4  -1 -34   -2.40    3.10
  -4   1 -34    2.50    3.00
   4  -2 -34   -0.60    3.00
   4   2 -34    5.60    2.50
  -4  -2 -34   -6.20    2.50
  -4   2 -34   -1.60    2.60
   4  -3 -34    3.90    2.80
   4   3 -34   -0.20    2.60
  -4  -3 -34    3.60    2.50
  -4   3 -34   -2.60    2.60
   4  -4 -34    1.10    3.10
   4   4 -34   -0.70    2.50
  -4  -4 -34    6.80    2.50
  -4   4 -34    3.30    2.40
   4  -5 -34    3.90    2.80
   4   5 -34    1.60    2.40
  -4  -5 -34    5.40    2.60
  -4   5 -34    0.70    2.50
   4  -6 -34   -0.60    2.40
   4   6 -34   -1.60    2.50
  -4  -6 -34   -2.40    3.00
  -4   6 -34    3.30    3.10
   4  -7 -34    1.00    3.00
   4   7 -34    3.80    3.20
  -4  -7 -34    1.50    2.60
  -4   7 -34   -4.20    2.70
   4  -8 -34   11.20    2.70
   4   8 -34   13.60    2.80
  -4  -8 -34    9.90    3.30
  -4   8 -34   13.90    3.40
   4  -9 -34   -1.00    2.80
   4   9 -34    1.90    3.40
  -4  -9 -34    1.40    2.70
  -4   9 -34   -2.30    3.20
   5  -1 -34   -1.10    2.40
   5   1 -34    1.50    2.50
  -5  -1 -34   -1.70    2.50
  -5   1 -34    3.20    2.80
   5  -2 -34    0.80    2.60
   5   2 -34    1.90    3.00
  -5  -2 -34   -2.10    3.10
  -5   2 -34   -3.80    3.10
   5  -3 -34   -0.30    2.50
   5   3 -34   -0.20    2.60
  -5  -3 -34   -2.80    2.90
  -5   3 -34    2.30    2.90
   5  -4 -34    0.70    2.40
   5   4 -34   -4.60    2.60
  -5  -4 -34   -1.50    2.80
  -5   4 -34    0.70    2.70
   5  -5 -34    2.00    2.40
   5   5 -34   -0.80    2.60
  -5  -5 -34   -1.90    3.00
  -5   5 -34   -2.40    2.90
   5  -6 -34   -0.70    2.90
   5   6 -34   -0.30    2.80
  -5  -6 -34    0.50    2.50
  -5   6 -34   -1.30    2.80
   5  -7 -34    3.20    2.50
   5   7 -34    1.40    3.30
  -5  -7 -34   -0.20    2.60
  -5   7 -34    2.40    2.50
   5  -8 -34   -1.70    3.20
   5   8 -34   -1.60    2.70
  -5  -8 -34   -0.90    3.00
  -5   8 -34   -0.20    3.10
   5  -9 -34    0.90    3.10
   5   9 -34    4.90    3.50
  -5  -9 -34    7.60    3.40
  -5   9 -34   -0.20    3.50
   6   0 -34   -4.70    2.90
   6   1 -34    3.50    2.60
   6  -1 -34    1.30    2.90
  -6  -1 -34   -1.90    2.60
  -6   1 -34   -0.80    2.60
   6  -2 -34   -0.30    2.70
   6   2 -34   -0.40    2.90
  -6  -2 -34    1.30    2.50
  -6   2 -34   -1.50    2.50
   6  -3 -34    1.50    2.50
   6   3 -34   -3.00    3.10
  -6  -3 -34   -1.30    2.70
  -6   3 -34   -3.30    2.80
   6  -4 -34   -1.10    2.50
   6   4 -34    3.50    2.60
  -6  -4 -34   -1.60    2.70
  -6   4 -34    1.60    2.80
   6  -5 -34    0.50    2.80
   6   5 -34    2.80    2.50
  -6  -5 -34    3.10    2.50
  -6   5 -34    1.20    2.50
   6  -6 -34    1.20    2.70
   6   6 -34    1.40    2.90
  -6  -6 -34    2.20    2.80
  -6   6 -34   -0.10    2.50
   6  -7 -34    1.00    3.00
  -6  -7 -34    1.80    3.00
   6   7 -34    1.30    3.00
  -6   7 -34    5.20    3.20
   6  -8 -34   -5.80    2.90
  -6  -8 -34   -0.20    2.70
   6   8 -34   -1.40    2.70
  -6   8 -34    2.90    2.70
   7  -1 -34   -1.30    3.00
   7   1 -34   -1.90    2.90
   7  -2 -34    4.40    3.20
   7   2 -34    4.50    2.70
   7  -3 -34    1.40    3.00
  -7   3 -34   -0.80    2.60
   7   3 -34   -2.80    3.00
   7  -4 -34    5.00    3.20
  -7   4 -34    2.70    2.60
   7   4 -34    4.20    3.00
   7  -5 -34   -0.60    2.50
  -7   5 -34    3.40    3.00
   7   5 -34    3.30    3.10
   7  -6 -34   -1.10    2.70
  -7   6 -34    4.40    3.10
   7   6 -34   -4.20    3.30
   7  -7 -34    2.40    3.00
  -7   7 -34    2.40    2.80
   7   7 -34   -2.60    3.20
   8   0 -34    3.10    2.60
   8  -1 -34    3.20    2.60
   8   1 -34   -0.50    3.20
   8  -2 -34    0.60    3.00
   8   2 -34    2.30    2.60
   8  -3 -34   -0.70    3.00
   8   3 -34    3.60    2.70
   8  -4 -34    3.70    2.70
   8   4 -34   -0.70    3.40
  -8   5 -34   -0.70    2.60
   8  -5 -34    1.60    2.60
   8   5 -34    1.80    3.30
  -8   6 -34    0.00    2.90
   8  -6 -34    3.50    3.30
   8   6 -34    1.10    3.50
   8   7 -34    4.10    3.20
   9  -1 -34   -1.80    2.80
   9   1 -34   -0.10    3.10
   9  -2 -34   -6.70    2.90
   9   2 -34    2.00    2.80
  -9  -3  34   -0.70    2.70
   9  -3 -34   -1.50    2.80
   9   3 -34    5.20    2.70
  -9  -4  34    3.00    2.80
   9  -4 -34    3.10    2.80
   9   4 -34    6.10    3.10
   9  -5 -34    0.50    3.10
   9   5 -34    3.20    3.30
   9  -6 -34    1.30    3.00
 -10   0  34   -0.10    2.80
  10   0 -34    1.40    3.20
  10  -1 -34    0.90    2.70
  10   1 -34    3.70    2.70
 -10   2  34    8.50    2.80
 -10  -2  34    2.80    3.40
  10  -2 -34   -0.50    2.80
  10   2 -34    1.30    2.80
 -10   3  34    2.70    2.70
  10  -3 -34    0.50    2.70
  10   3 -34   -4.90    2.70
   1   1 -35   16.70    2.70
  -1  -1 -35    6.40    2.60
  -1   1 -35    8.00    2.50
   1  -1 -35   11.80    2.60
   1   2 -35    9.30    2.50
  -1  -2 -35    3.70    2.50
  -1   2 -35    3.10    2.60
   1  -2 -35    4.70    2.50
   1   3 -35    7.30    2.90
  -1  -3 -35    3.20    2.90
  -1   3 -35    9.50    3.10
   1  -3 -35    3.30    2.60
   1   4 -35    9.90    2.80
  -1  -4 -35   13.70    3.00
  -1   4 -35    7.70    3.10
   1  -4 -35    5.80    2.60
   1   5 -35    9.00    2.80
  -1  -5 -35    5.50    2.40
  -1   5 -35    0.70    2.90
   1  -5 -35    6.20    2.40
   1  -6 -35    0.90    3.00
   1   6 -35    3.20    2.60
  -1  -6 -35    4.70    2.50
  -1   6 -35    2.30    2.50
   1  -7 -35    7.50    2.70
  -1   7 -35   10.50    2.90
   1   7 -35    2.70    3.00
  -1  -7 -35    2.80    3.30
   1  -8 -35   -2.20    3.10
  -1   8 -35    1.90    2.70
   1   8 -35    1.40    2.60
  -1  -8 -35    1.70    2.60
   1  -9 -35    0.10    3.10
  -1   9 -35    7.00    3.40
   1   9 -35    8.80    3.40
  -1  -9 -35    2.10    2.90
   2   0 -35   -1.30    2.50
  -2   0 -35   -3.20    3.00
   2  -1 -35    4.40    3.10
   2   1 -35    0.90    2.80
  -2  -1 -35    1.30    2.50
  -2   1 -35   -0.30    2.40
   2  -2 -35    1.70    2.50
   2   2 -35    2.00    2.40
  -2  -2 -35   -0.60    2.40
  -2   2 -35   -4.40    2.60
   2  -3 -35   -1.70    2.50
   2   3 -35   -3.40    2.50
  -2  -3 -35    0.10    2.90
  -2   3 -35   -2.40    3.00
   2  -4 -35    5.30    2.50
   2   4 -35    3.80    2.40
  -2  -4 -35    4.60    2.90
  -2   4 -35    0.90    3.00
   2  -5 -35    1.80    2.80
   2   5 -35    3.00    2.50
  -2  -5 -35    7.80    2.50
  -2   5 -35    1.60    2.80
   2  -6 -35    0.20    2.80
   2   6 -35   -0.90    2.50
  -2  -6 -35    0.90    2.50
  -2   6 -35    1.50    2.60
   2  -7 -35   -1.90    2.60
   2   7 -35   -1.00    3.10
  -2  -7 -35    5.10    3.20
  -2   7 -35    1.60    3.00
   2  -8 -35    1.40    3.00
   2   8 -35   -1.50    2.70
  -2  -8 -35   -0.10    2.60
  -2   8 -35    3.00    2.70
  -2   9 -35    3.00    3.20
   2  -9 -35    4.50    3.30
   2   9 -35    0.70    3.40
  -2  -9 -35    0.40    2.80
   3  -1 -35   -1.10    2.50
   3   1 -35   -1.10    2.90
  -3  -1 -35   -0.30    2.50
  -3   1 -35    0.10    2.50
   3  -2 -35    2.20    3.20
   3   2 -35   -4.90    2.50
  -3  -2 -35    5.90    2.50
  -3   2 -35    1.50    2.60
   3  -3 -35   -1.00    2.90
   3   3 -35    9.30    2.50
  -3  -3 -35    3.80    2.60
  -3   3 -35    6.30    2.80
   3  -4 -35    0.00    3.00
   3   4 -35    2.70    2.50
  -3  -4 -35    1.80    2.60
  -3   4 -35    8.50    2.80
   3  -5 -35    5.20    2.90
   3   5 -35   10.70    2.60
  -3  -5 -35    7.80    2.50
  -3   5 -35    9.50    2.60
   3  -6 -35    0.10    2.60
   3   6 -35    3.00    2.60
  -3  -6 -35    5.00    2.50
  -3   6 -35    2.50    2.70
   3  -7 -35   -4.10    3.10
   3   7 -35   -6.20    3.30
  -3  -7 -35   -0.70    3.00
  -3   7 -35   -1.80    3.10
   3  -8 -35   -4.10    2.80
   3   8 -35    0.20    2.70
  -3  -8 -35   -1.10    2.50
  -3   8 -35    1.00    2.90
   3  -9 -35    0.50    2.80
   3   9 -35   -4.90    3.50
  -3  -9 -35    0.80    2.80
  -3   9 -35    4.40    3.30
   4   0 -35   -1.50    2.90
  -4   0 -35    1.20    2.60
   4  -1 -35    0.10    2.60
   4   1 -35    5.60    2.60
  -4  -1 -35    2.50    3.00
  -4   1 -35   -1.80    2.90
   4  -2 -35    0.90    2.70
   4   2 -35    1.20    3.10
  -4  -2 -35    1.30    2.60
  -4   2 -35    0.70    2.40
   4  -3 -35   -2.20    2.90
   4   3 -35   -0.30    2.70
  -4  -3 -35    0.00    2.70
  -4   3 -35   -0.10    2.60
   4  -4 -35   -1.30    2.50
   4   4 -35    1.10    2.60
  -4  -4 -35   -1.70    2.50
  -4   4 -35    0.40    2.50
   4  -5 -35    1.00    2.50
   4   5 -35    2.00    2.60
  -4  -5 -35    3.00    2.60
  -4   5 -35    1.00    2.60
   4  -6 -35   -2.50    3.00
   4   6 -35    3.80    2.60
  -4  -6 -35   -3.80    3.10
  -4   6 -35    1.50    2.90
   4  -7 -35    1.00    2.60
   4   7 -35    2.20    3.30
  -4  -7 -35   -1.00    2.60
  -4   7 -35   -1.60    3.00
   4  -8 -35    2.20    3.30
   4   8 -35   -2.30    2.70
  -4  -8 -35    5.20    3.30
  -4   8 -35   -1.50    3.20
   5  -1 -35   -4.10    2.80
   5   1 -35   -0.80    2.60
  -5  -1 -35    0.20    2.60
  -5   1 -35   -5.70    2.80
   5  -2 -35    1.50    2.70
   5   2 -35    6.00    3.00
  -5  -2 -35   -4.60    3.30
  -5   2 -35    2.20    3.10
   5  -3 -35    9.10    2.70
   5   3 -35   23.80    3.10
  -5  -3 -35   15.90    3.20
  -5   3 -35   18.40    3.10
   5  -4 -35   -0.20    2.60
   5   4 -35    0.70    2.70
  -5  -4 -35    4.80    3.00
  -5   4 -35    0.90    2.40
   5  -5 -35   -1.30    2.60
   5   5 -35    0.20    2.80
  -5  -5 -35    0.80    3.10
  -5   5 -35   -0.20    2.90
   5  -6 -35   -2.40    2.90
   5   6 -35   -2.40    2.90
  -5  -6 -35    0.50    2.70
  -5   6 -35    0.30    3.20
   5  -7 -35    5.50    2.60
   5   7 -35    2.60    3.10
  -5  -7 -35    3.70    2.70
  -5   7 -35    0.90    2.70
   5  -8 -35    5.60    3.20
   5   8 -35    3.00    2.70
  -5  -8 -35    1.20    2.70
  -5   8 -35    3.30    3.40
   6   0 -35    0.00    2.60
   6   1 -35   -0.60    2.70
   6  -1 -35   -1.00    2.90
  -6   1 -35    5.10    2.70
  -6  -1 -35   -3.90    3.00
   6  -2 -35    1.30    2.60
   6   2 -35   -1.50    2.70
  -6  -2 -35   -0.20    2.70
  -6   2 -35    3.30    2.60
   6  -3 -35    1.20    2.60
   6   3 -35   -0.60    3.20
  -6  -3 -35   -1.30    2.70
  -6   3 -35    0.50    3.00
   6  -4 -35    4.80    3.10
   6   4 -35   -1.40    3.00
  -6  -4 -35   -1.20    2.70
  -6   4 -35   -0.60    2.90
   6  -5 -35    5.00    3.10
   6   5 -35    3.40    3.20
  -6  -5 -35   -1.10    2.60
  -6   5 -35   -1.50    2.70
   6  -6 -35    1.60    2.60
   6   6 -35    1.00    3.10
  -6  -6 -35   -0.30    3.10
  -6   6 -35    0.90    2.50
   6  -7 -35   -1.90    3.30
   6   7 -35    2.70    3.20
  -6  -7 -35    3.40    3.20
  -6   7 -35    1.40    3.50
   7  -1 -35    5.80    3.10
   7   1 -35   11.10    3.10
  -7   1 -35    5.10    2.80
   7  -2 -35    2.80    3.20
   7   2 -35   -1.20    2.70
  -7   2 -35    5.00    3.20
   7  -3 -35    2.00    3.20
   7   3 -35   -1.80    3.20
  -7   3 -35    0.10    3.00
   7  -4 -35    0.70    3.40
   7   4 -35    8.90    3.10
  -7   4 -35    5.60    3.20
   7  -5 -35    6.10    2.80
   7   5 -35    8.60    3.10
  -7   5 -35    6.20    3.30
   7  -6 -35    4.80    2.80
  -7   6 -35    2.80    3.10
   7   6 -35    0.90    3.20
   8   0 -35    0.80    2.70
   8  -1 -35   -2.70    2.80
   8   1 -35   -0.90    3.30
   8  -2 -35   -1.30    3.10
   8   2 -35   -0.90    2.80
   8  -3 -35   -1.30    3.10
   8   3 -35   -3.00    3.10
  -8   4 -35    1.80    2.80
   8  -4 -35    0.30    2.80
   8   4 -35    4.70    3.40
  -8   5 -35    3.20    2.80
   8  -5 -35    0.10    2.90
   8   5 -35    2.30    3.10
   9  -1 -35    0.40    2.70
   9   1 -35    0.10    3.00
   9  -2 -35    0.30    2.80
   9   2 -35   -1.40    2.80
   9  -3 -35    0.30    2.70
   9   3 -35    4.70    3.10
  10   1 -35    0.70    3.20
   0   0 -36    6.30    2.70
   0  -1 -36    0.80    2.60
   0   1 -36   -0.30    2.60
   0  -2 -36    9.80    3.20
   0   2 -36    9.20    3.20
   0  -3 -36   -3.50    3.20
   0   3 -36    1.80    2.60
   0  -4 -36   11.40    3.20
   0   4 -36   13.40    2.70
   0   5 -36   -1.40    2.50
   0  -5 -36    0.30    3.00
   0   6 -36    4.40    3.10
   0  -6 -36   -0.30    2.60
   0   7 -36    1.20    2.60
   0  -7 -36   -9.10    3.10
   0   8 -36   -0.80    3.20
   0  -8 -36   -0.20    2.70
   1  -1 -36   -0.80    2.60
   1   1 -36   -0.30    2.50
  -1  -1 -36    2.20    2.60
  -1   1 -36   -4.30    2.70
   1  -2 -36    4.00    3.00
   1   2 -36    4.60    3.20
  -1  -2 -36    6.10    3.20
  -1   2 -36    4.20    3.10
   1  -3 -36    7.00    3.20
   1   3 -36    7.30    2.60
  -1  -3 -36    4.40    3.00
  -1   3 -36    2.70    2.60
   1  -4 -36    2.50    3.10
   1   4 -36    0.30    2.50
  -1  -4 -36   -0.40    2.90
  -1   4 -36   -2.50    2.50
   1  -5 -36    1.60    2.90
   1   5 -36    1.90    2.50
  -1  -5 -36    3.00    3.00
  -1   5 -36    2.80    2.50
   1  -6 -36    7.60    2.70
   1   6 -36    7.20    3.30
  -1  -6 -36   11.70    2.70
  -1   6 -36   10.50    3.30
  -1   7 -36    2.70    2.70
   1  -7 -36    1.00    3.20
   1   7 -36   -1.10    3.00
  -1  -7 -36    0.40    3.00
   1  -8 -36    2.60    2.80
  -1   8 -36    5.40    3.40
   1   8 -36    5.60    3.20
  -1  -8 -36   -1.00    2.80
   2   0 -36    1.90    2.90
  -2   0 -36    0.30    2.90
   2  -1 -36    0.70    2.60
   2   1 -36   -3.30    2.60
  -2  -1 -36   -1.30    2.50
  -2   1 -36   -2.10    2.50
   2  -2 -36    4.80    2.80
   2   2 -36   14.10    3.40
  -2  -2 -36   12.10    3.10
  -2   2 -36   13.20    3.30
   2  -3 -36   -0.90    2.90
   2   3 -36    1.30    2.50
  -2  -3 -36   -0.50    3.20
  -2   3 -36    1.20    2.90
   2  -4 -36   -0.10    2.90
   2   4 -36    0.60    2.70
  -2  -4 -36    2.30    3.10
  -2   4 -36    1.60    2.50
   2  -5 -36   -2.50    2.60
   2   5 -36    0.80    2.60
  -2  -5 -36    6.60    3.00
  -2   5 -36    3.00    2.80
   2  -6 -36    0.40    2.60
   2   6 -36   -2.00    3.20
  -2  -6 -36    0.20    2.60
  -2   6 -36    4.20    3.30
   2  -7 -36   -5.20    3.00
   2   7 -36   -2.20    3.00
  -2  -7 -36    1.60    3.00
  -2   7 -36    1.70    2.70
   2  -8 -36    2.70    2.60
  -2  -8 -36   -3.00    2.70
  -2   8 -36    0.50    3.50
   3  -1 -36    0.90    2.60
   3   1 -36   -0.30    2.60
  -3  -1 -36   -0.80    2.60
  -3   1 -36    1.80    2.60
   3  -2 -36    0.70    2.70
   3   2 -36   -1.50    3.10
  -3  -2 -36   -0.10    2.70
  -3   2 -36    2.70    2.90
   3  -3 -36    3.90    2.50
   3   3 -36    4.80    3.00
  -3  -3 -36   -2.40    2.70
  -3   3 -36    1.20    3.20
   3  -4 -36    0.90    2.60
   3   4 -36   -1.70    2.60
  -3  -4 -36    1.80    2.60
  -3   4 -36   -2.00    3.20
   3  -5 -36   -2.20    2.60
   3   5 -36   -1.10    3.10
  -3  -5 -36    2.30    2.60
  -3   5 -36   -4.30    3.10
   3  -6 -36   -0.80    3.00
   3   6 -36    1.00    3.10
  -3  -6 -36   -2.60    2.70
  -3   6 -36    5.80    2.70
   3  -7 -36    4.70    2.70
   3   7 -36    7.90    3.20
  -3  -7 -36    6.30    3.40
  -3   7 -36   12.40    2.70
   3  -8 -36   -0.30    3.50
  -3  -8 -36    1.60    2.70
   4   0 -36    4.60    3.00
  -4   0 -36    9.80    2.60
   4   1 -36    5.00    2.70
   4  -1 -36    2.60    3.00
  -4  -1 -36    0.40    3.00
  -4   1 -36   -4.20    3.00
   4  -2 -36    3.50    2.60
   4   2 -36   -1.80    2.60
  -4  -2 -36    2.00    2.70
  -4   2 -36   -0.30    2.70
   4  -3 -36   -3.00    2.60
   4   3 -36   -5.20    3.20
  -4  -3 -36   -0.50    2.70
  -4   3 -36    0.60    2.70
   4  -4 -36    1.30    2.60
   4   4 -36    2.10    3.10
  -4  -4 -36    0.10    2.60
  -4   4 -36   -0.90    2.70
   4  -5 -36   -0.10    3.00
   4   5 -36    7.20    3.20
  -4  -5 -36    0.80    2.70
  -4   5 -36    4.20    2.60
   4  -6 -36   11.40    3.10
   4   6 -36    6.20    3.30
  -4  -6 -36   10.50    3.40
  -4   6 -36    4.60    2.70
   4  -7 -36    3.00    2.70
   4   7 -36   -2.60    3.10
  -4  -7 -36   -1.10    2.80
  -4   7 -36    0.30    3.30
   5   1 -36    3.90    2.70
   5  -1 -36    0.40    3.30
  -5  -1 -36    3.70    2.70
  -5   1 -36    3.50    2.70
   5  -2 -36    3.10    2.60
   5   2 -36    0.90    2.70
  -5  -2 -36   -4.90    3.10
  -5   2 -36    0.30    3.30
   5  -3 -36    2.00    2.70
   5   3 -36    2.70    3.30
  -5  -3 -36    4.20    3.30
  -5   3 -36    0.20    2.80
   5  -4 -36    1.00    2.60
   5   4 -36    3.30    3.00
  -5  -4 -36    1.90    3.30
  -5   4 -36    2.70    2.80
   5  -5 -36    1.30    3.30
   5   5 -36   -2.50    3.00
  -5  -5 -36   -3.90    3.10
  -5   5 -36    0.70    3.00
   5  -6 -36    1.30    2.80
   5   6 -36    2.20    3.40
  -5  -6 -36   -1.80    2.80
  -5   6 -36   -4.90    3.30
   6   0 -36    3.60    2.80
  -6   0 -36    7.00    2.70
   6  -1 -36    0.70    3.10
   6   1 -36   -1.50    3.00
  -6  -1 -36   -2.30    3.10
  -6   1 -36   -2.20    3.10
   6  -2 -36   -0.30    3.00
   6   2 -36    0.40    2.80
  -6  -2 -36   -1.00    2.70
  -6   2 -36    2.40    2.90
   6  -3 -36    2.80    3.00
   6   3 -36    7.10    3.20
  -6  -3 -36    3.60    2.90
  -6   3 -36    3.30    2.90
   6  -4 -36    2.80    3.30
   6   4 -36    2.00    3.10
  -6  -4 -36    0.00    2.90
  -6   4 -36   -2.10    2.80
   6  -5 -36    2.70    3.10
   6   5 -36    1.70    3.20
  -6  -5 -36    3.40    2.70
  -6   5 -36    1.70    2.80
   6  -6 -36   -0.10    2.80
  -6  -6 -36    2.80    3.40
  -6   6 -36    6.80    2.70
   7  -1 -36    3.40    2.70
   7   1 -36   -3.50    3.30
  -7  -1 -36    4.60    2.80
  -7   1 -36    2.30    2.90
   7  -2 -36    0.40    3.20
   7   2 -36   -3.20    2.80
  -7  -2 -36    1.20    2.80
  -7   2 -36    2.80    3.20
   7  -3 -36    0.20    3.30
   7   3 -36   -1.90    3.10
  -7  -3 -36   -0.40    2.90
  -7   3 -36    0.90    3.30
   7  -4 -36    6.70    3.10
  -7  -4 -36    9.00    2.70
   7   4 -36    2.90    3.40
  -7   4 -36   -0.60    3.20
  -7  -5 -36   -4.50    2.80
   8   0 -36    1.70    2.80
   8  -1 -36   -1.50    2.80
   8   1 -36   -1.20    3.30
   8  -2 -36    0.30    2.80
   8   2 -36   -1.70    2.80
  -8   3 -36    3.50    3.10
   8  -3 -36   -2.20    3.10
   1  -1 -37    2.80    3.30
   1   1 -37    5.90    3.10
  -1  -1 -37    0.80    3.00
  -1   1 -37    2.00    3.20
   1  -2 -37    0.50    2.80
   1   2 -37    3.60    2.70
  -1  -2 -37   -0.50    2.80
  -1   2 -37    4.60    2.80
   1  -3 -37   -5.10    2.70
   1   3 -37    0.50    2.70
  -1  -3 -37   -1.70    2.60
  -1   3 -37    5.20    2.60
   1  -4 -37   -0.90    2.70
   1   4 -37    0.20    3.00
  -1  -4 -37   -1.10    2.70
  -1   4 -37   -1.20    2.80
   1  -5 -37   -1.70    3.20
   1   5 -37    6.10    3.00
  -1  -5 -37    1.80    3.20
  -1   5 -37    2.20    2.80
   1  -6 -37    3.90    3.10
   1   6 -37   -0.10    2.80
  -1  -6 -37    0.20    3.20
  -1   6 -37    2.20    2.80
   1  -7 -37    2.10    2.80
  -1   7 -37    3.50    3.40
   1   7 -37    1.70    2.80
  -1  -7 -37   -5.80    2.80
   2   0 -37   -0.20    2.50
  -2   0 -37   -1.50    2.70
   2  -1 -37   -0.80    3.30
   2   1 -37   -0.10    3.00
  -2  -1 -37    1.00    2.70
  -2   1 -37   -2.40    3.00
   2  -2 -37    1.60    2.60
   2   2 -37    2.10    2.60
  -2  -2 -37   -0.20    3.30
  -2   2 -37    3.00    2.70
   2  -3 -37    0.20    2.60
   2   3 -37   -0.70    3.10
  -2  -3 -37    1.20    3.00
  -2   3 -37   -1.00    2.60
   2  -4 -37   -2.10    2.70
   2   4 -37   -1.10    3.10
  -2  -4 -37   -3.60    3.00
  -2   4 -37    2.10    2.80
   2  -5 -37    1.40    3.10
   2   5 -37   -0.90    3.10
  -2  -5 -37    4.60    3.40
  -2   5 -37   -1.10    2.60
   2  -6 -37    3.40    3.10
   2   6 -37    0.20    2.80
  -2  -6 -37    0.00    2.90
  -2   6 -37   -0.30    3.10
   2  -7 -37    2.60    2.90
   2   7 -37    4.40    2.80
  -2  -7 -37    2.90    2.80
   3  -1 -37    2.80    3.20
   3   1 -37    4.00    3.10
  -3  -1 -37    4.30    2.70
  -3   1 -37    3.80    2.70
   3  -2 -37   -0.50    3.00
   3   2 -37   -0.90    2.80
  -3  -2 -37   -1.90    2.70
  -3   2 -37   -3.00    3.30
   3  -3 -37    8.00    2.80
   3   3 -37   10.00    3.10
  -3  -3 -37   14.60    3.20
  -3   3 -37    8.30    3.00
   3  -4 -37   -0.30    3.10
   3   4 -37   -0.60    3.10
  -3  -4 -37    2.50    3.20
  -3   4 -37   -0.60    3.20
   3  -5 -37    3.40    3.40
   3   5 -37    0.40    3.20
  -3  -5 -37    2.00    2.70
  -3   5 -37    1.10    3.00
   3  -6 -37    1.90    2.90
   3   6 -37    1.10    3.20
  -3  -6 -37    2.60    2.90
  -3   6 -37   -1.90    3.40
   4   0 -37   -0.40    2.70
  -4   0 -37   -0.70    2.70
   4  -1 -37    0.50    3.10
   4   1 -37   -8.00    3.10
  -4   1 -37    1.30    2.80
  -4  -1 -37   -0.10    3.10
   4  -2 -37    0.60    3.10
   4   2 -37    2.90    2.80
  -4  -2 -37   -3.70    2.70
  -4   2 -37   -2.60    2.70
   4  -3 -37    3.20    3.20
   4   3 -37    0.90    2.80
  -4  -3 -37    6.20    2.80
  -4   3 -37    6.60    2.80
   4  -4 -37    0.00    3.10
   4   4 -37   -2.40    3.10
  -4  -4 -37   -1.80    2.80
  -4   4 -37    1.70    3.10
   4  -5 -37    2.50    3.20
   4   5 -37    1.40    3.40
  -4  -5 -37   -3.10    2.70
  -4   5 -37   -0.70    3.10
   4  -6 -37    0.90    2.90
   4   6 -37    2.00    3.30
  -4  -6 -37    0.80    3.30
  -4   6 -37    2.00    2.80
   5  -1 -37    3.40    2.80
   5   1 -37    0.90    3.40
  -5  -1 -37    3.50    2.70
  -5   1 -37    3.30    2.80
   5  -2 -37   -0.20    3.30
   5   2 -37    4.30    2.80
  -5  -2 -37    0.30    3.10
  -5   2 -37   -0.60    3.40
   5  -3 -37    4.20    3.40
   5   3 -37   -4.20    2.80
  -5  -3 -37    4.60    3.30
  -5   3 -37   -2.70    2.70
   5  -4 -37   -7.50    3.30
   5   4 -37   -0.50    3.20
  -5  -4 -37   -1.60    3.30
  -5   4 -37   -0.80    2.80
   5  -5 -37    6.40    2.80
   5   5 -37    2.20    3.40
  -5  -5 -37    4.90    3.00
  -5   5 -37    4.20    2.80
   6   0 -37   -1.90    2.90
  -6   0 -37    0.90    2.80
   6  -1 -37    2.80    2.90
   6   1 -37    4.20    3.40
  -6  -1 -37   -3.90    3.30
  -6   1 -37    0.10    3.20
   6  -2 -37    1.70    3.20
   6   2 -37    2.50    2.90
  -6  -2 -37    0.90    2.90
  -6   2 -37    1.40    2.80
   6  -3 -37   -2.10    3.10
   6   3 -37    0.00    2.80
  -6  -3 -37   -2.10    2.80
  -6   3 -37   -2.70    2.70
   6  -4 -37   -1.10    3.00
   6   4 -37   -3.60    3.40
  -6  -4 -37   -1.10    2.70
   7  -1 -37   -3.40    2.80
   7   1 -37   -2.70    3.10
  -7  -1 -37   -1.90    2.80
  -7   1 -37   -1.60    2.70
   7   2 -37    3.00    2.90
  -7  -2 -37    0.20    2.80
  -7   2 -37    4.50    2.80
   0   0 -38    5.60    3.30
   0  -1 -38    2.20    2.70
   0   1 -38   -3.70    2.90
   0   2 -38    4.90    3.20
   0  -2 -38    1.40    2.90
   0   3 -38   -0.80    3.20
   0  -3 -38    0.80    2.80
   0   4 -38   -2.60    3.10
   0  -4 -38    0.10    2.80
   0   5 -38   -0.30    3.30
   0  -5 -38    0.30    2.70
   0   6 -38    1.20    3.30
   1  -1 -38   -1.80    2.70
   1   1 -38    4.40    2.80
  -1  -1 -38    1.00    2.70
  -1   1 -38    4.20    2.80
   1  -2 -38   -1.10    2.80
   1   2 -38    1.10    3.40
  -1  -2 -38    1.20    2.90
  -1   2 -38    1.30    2.80
   1  -3 -38    2.70    2.80
   1   3 -38    2.10    2.80
  -1  -3 -38   -3.50    2.80
  -1   3 -38    0.50    3.10
   1  -4 -38    0.00    2.70
   1   4 -38   -4.50    2.90
  -1  -4 -38    0.60    2.80
  -1   4 -38    1.60    3.30
   1  -5 -38    2.50    2.70
   1   5 -38    1.20    2.80
  -1  -5 -38   -1.30    2.80
  -1   5 -38   -1.20    3.40
   2   0 -38    4.10    3.00
  -2   0 -38    3.20    2.70
   2  -1 -38    0.30    2.80
   2   1 -38   -0.90    2.80
  -2  -1 -38    2.30    3.30
  -2   1 -38    1.30    3.20
   2  -2 -38    0.80    2.70
   2   2 -38    2.90    3.20
  -2  -2 -38    1.60    3.20
  -2   2 -38   -0.40    2.80
   2  -3 -38   -1.50    3.10
   2   3 -38   -1.80    2.80
  -2  -3 -38    1.30    2.70
  -2   3 -38   -2.60    2.80
   2  -4 -38    1.30    3.00
   2   4 -38    0.80    2.60
  -2  -4 -38    1.30    2.80
  -2   4 -38    0.90    3.10
   2  -5 -38   -0.30    2.80
   2   5 -38    1.00    2.90
  -2  -5 -38    3.70    3.10
  -2   5 -38    3.50    2.80
   3  -1 -38    0.30    2.80
   3   1 -38    1.80    2.80
  -3  -1 -38   -1.90    2.80
  -3   1 -38    2.40    2.80
   3  -2 -38   -0.90    2.70
   3   2 -38    0.30    3.10
  -3  -2 -38   -1.40    3.10
  -3   2 -38   -0.90    3.20
   3  -3 -38   -0.30    3.10
   3   3 -38   -0.40    2.80
  -3  -3 -38   -3.80    3.40
  -3   3 -38    1.10    2.70
   3  -4 -38    3.20    3.00
   3   4 -38    3.80    2.70
  -3  -4 -38    0.20    3.40
  -3   4 -38    1.10    2.70
   3  -5 -38    0.90    2.80
  -3  -5 -38   -0.70    3.00
  -3   5 -38    0.50    2.90
   4   0 -38    3.00    3.10
  -4   0 -38    0.50    2.80
   4  -1 -38    2.80    2.70
   4   1 -38    0.80    2.90
  -4   1 -38    3.20    2.80
  -4  -1 -38   -2.10    3.00
   4  -2 -38   -2.10    2.80
   4   2 -38    3.80    3.20
  -4  -2 -38    0.00    2.80
  -4   2 -38    1.30    2.80
   4  -3 -38   -0.30    2.80
   4   3 -38    4.30    2.80
  -4  -3 -38   -2.30    2.70
  -4   3 -38   -4.40    3.10
   4  -4 -38   -3.00    2.80
   4   4 -38   -0.70    2.80
  -4  -4 -38   -1.00    2.70
  -4   4 -38    1.50    3.30
   5  -1 -38   -0.50    2.90
   5   1 -38   -0.50    2.80
  -5  -1 -38   -2.70    2.80
  -5   1 -38   -0.20    2.80
   5  -2 -38    1.00    2.80
   5   2 -38   -2.30    2.90
  -5  -2 -38   -1.60    3.10
  -5   2 -38    0.40    3.10
   5   3 -38   -3.70    2.80
  -5   3 -38    1.70    2.70
   6   1 -38   -4.60    3.20
  -6  -1 -38   -2.50    3.10
   1  -1 -39    4.20    3.20
   1   1 -39   -0.40    3.50
  -1  -1 -39    3.30    2.80
  -1   1 -39    5.00    2.90
   1  -2 -39   -0.60    3.20
   1   2 -39    0.30    2.80
  -1  -2 -39    2.50    2.90
  -1   2 -39    7.50    3.40
   1  -3 -39   11.40    3.20
   1   3 -39   11.70    2.90
  -1  -3 -39    5.80    3.10
  -1   3 -39    3.50    3.20
  -1  -4 -39    5.20    3.20
   2   0 -39   -2.60    2.80
  -2   0 -39   -2.20    2.80
   2  -1 -39    2.30    3.40
   2   1 -39    1.00    3.10
  -2   1 -39    1.10    2.90
  -2  -1 -39   -1.20    3.10
   2  -2 -39    1.90    2.80
   2   2 -39   -2.60    2.70
  -2  -2 -39    1.00    2.90
  -2   2 -39    1.50    2.80
   2  -3 -39   -5.30    2.80
  -2  -3 -39    1.50    2.70
  -2   3 -39   -0.90    3.20
   3   1 -39   23.40    3.00
   3  -1 -39   19.60    3.30
  -3  -1 -39   14.30    3.00
  -3   1 -39   18.00    3.40
   3  -2 -39    0.80    2.70
  -3   2 -39    1.40    2.70
   0   0   0    0.00    0.00

_computing_structure_solution     'SHELXT 2014/5 (Sheldrick, 2014)'
;
_shelx_hkl_checksum              62954
loop_
_space_group_symop_operation_xyz
'x, y, z'
'-x+1/2, -y, z+1/2'
'-x, y+1/2, -z+1/2'
'x+1/2, -y+1/2, -z'
'-x, -y, -z'
'x-1/2, y, -z-1/2'
'x, -y-1/2, z-1/2'
'-x-1/2, y-1/2, z'
loop_
_atom_site_label
_atom_site_type_symbol
_atom_site_fract_x
_atom_site_fract_y
_atom_site_fract_z
_atom_site_U_iso_or_equiv
_atom_site_adp_type
_atom_site_occupancy
_atom_site_site_symmetry_order
_atom_site_calc_flag
_atom_site_refinement_flags_posn
_atom_site_refinement_flags_adp
N1 N 0.7410(2) 0.7763(3) 0.61660(13) 0.0423(12) Uani 1 1 d . .
N2 N 0.7309(3) 0.9014(3) 0.53357(14) 0.0447(12) Uani 1 1 d . .
N3 N 0.6437(2) 0.8159(3) 0.54395(13) 0.0440(13) Uani 1 1 d . .
C1 C 0.7885(3) 0.7163(4) 0.63474(17) 0.0459(15) Uani 1 1 d . .
C2 C 0.8343(4) 0.6883(4) 0.59929(19) 0.0552(17) Uani 1 1 d . .
H2A H 0.8090 0.6437 0.5871 0.066 Uiso 1 1 calc R U
H2B H 0.8855 0.6725 0.6078 0.066 Uiso 1 1 calc R U
C3 C 0.8398(3) 0.7548(4) 0.56923(18) 0.0443(15) Uani 1 1 d . .
C4 C 0.7665(3) 0.7973(3) 0.58003(17) 0.0413(14) Uani 1 1 d . .
C5 C 0.7170(3) 0.8363(3) 0.55283(16) 0.0411(14) Uani 1 1 d . .
C6 C 0.6670(3) 0.9240(4) 0.51199(16) 0.0486(16) Uani 1 1 d . .
C7 C 0.6132(3) 0.8708(4) 0.51907(17) 0.0463(15) Uani 1 1 d . .
C8 C 0.6905(3) 0.8302(4) 0.63840(17) 0.0492(16) Uani 1 1 d . .
H8 H 0.6566 0.8537 0.6182 0.059 Uiso 1 1 calc R U
C9 C 0.7323(4) 0.8961(4) 0.6575(2) 0.0648(19) Uani 1 1 d . .
H9A H 0.7560 0.8784 0.6820 0.097 Uiso 1 1 calc R U
H9B H 0.6966 0.9374 0.6635 0.097 Uiso 1 1 calc R U
H9C H 0.7714 0.9150 0.6396 0.097 Uiso 1 1 calc R U
C10 C 0.6387(4) 0.7893(4) 0.66730(19) 0.0632(19) Uani 1 1 d . .
H10A H 0.6143 0.7459 0.6541 0.095 Uiso 1 1 calc R U
H10B H 0.6000 0.8250 0.6768 0.095 Uiso 1 1 calc R U
H10C H 0.6685 0.7706 0.6896 0.095 Uiso 1 1 calc R U
C11 C 0.7435(4) 0.6496(4) 0.6511(2) 0.0608(18) Uani 1 1 d . .
H11A H 0.7231 0.6634 0.6770 0.091 Uiso 1 1 calc R U
H11B H 0.7765 0.6048 0.6538 0.091 Uiso 1 1 calc R U
H11C H 0.7017 0.6375 0.6332 0.091 Uiso 1 1 calc R U
C12 C 0.8397(4) 0.7490(5) 0.6675(2) 0.067(2) Uani 1 1 d . .
H12A H 0.8685 0.7925 0.6572 0.100 Uiso 1 1 calc R U
H12B H 0.8748 0.7092 0.6765 0.100 Uiso 1 1 calc R U
H12C H 0.8084 0.7659 0.6897 0.100 Uiso 1 1 calc R U
C13 C 0.8380(3) 0.7267(4) 0.52762(18) 0.0549(17) Uani 1 1 d . .
H13A H 0.7922 0.6962 0.5234 0.082 Uiso 1 1 calc R U
H13B H 0.8827 0.6951 0.5226 0.082 Uiso 1 1 calc R U
H13C H 0.8379 0.7706 0.5096 0.082 Uiso 1 1 calc R U
C14 C 0.9133(3) 0.8016(4) 0.57554(19) 0.0530(17) Uani 1 1 d . .
H14A H 0.9202 0.8372 0.5535 0.080 Uiso 1 1 calc R U
H14B H 0.9566 0.7667 0.5769 0.080 Uiso 1 1 calc R U
H14C H 0.9096 0.8305 0.6002 0.080 Uiso 1 1 calc R U
C15 C 0.8009(3) 0.9478(4) 0.5408(2) 0.0538(17) Uani 1 1 d . .
H15 H 0.8318 0.9187 0.5604 0.065 Uiso 1 1 calc R U
C16 C 0.7815(4) 1.0235(4) 0.5597(2) 0.0623(19) Uani 1 1 d . .
H16A H 0.7627 1.0589 0.5396 0.094 Uiso 1 1 calc R U
H16B H 0.8268 1.0451 0.5720 0.094 Uiso 1 1 calc R U
H16C H 0.7424 1.0157 0.5797 0.094 Uiso 1 1 calc R U
C17 C 0.8489(4) 0.9545(4) 0.5037(2) 0.066(2) Uani 1 1 d . .
H17A H 0.8584 0.9033 0.4930 0.098 Uiso 1 1 calc R U
H17B H 0.8971 0.9791 0.5102 0.098 Uiso 1 1 calc R U
H17C H 0.8220 0.9854 0.4841 0.098 Uiso 1 1 calc R U
C18 C 0.6604(4) 0.9962(4) 0.4891(2) 0.069(2) Uani 1 1 d . .
H18A H 0.6180 0.9921 0.4706 0.103 Uiso 1 1 calc R U
H18B H 0.7073 1.0051 0.4745 0.103 Uiso 1 1 calc R U
H18C H 0.6514 1.0390 0.5071 0.103 Uiso 1 1 calc R U
C19 C 0.5334(3) 0.8718(4) 0.5049(2) 0.0621(19) Uani 1 1 d . .
H19A H 0.5286 0.9087 0.4833 0.093 Uiso 1 1 calc R U
H19B H 0.4999 0.8866 0.5265 0.093 Uiso 1 1 calc R U
H19C H 0.5195 0.8207 0.4954 0.093 Uiso 1 1 calc R U
C20 C 0.6094(3) 0.7419(4) 0.55531(17) 0.0483(16) Uani 1 1 d . .
H20 H 0.6445 0.7176 0.5747 0.058 Uiso 1 1 calc R U
C21 C 0.6048(4) 0.6884(4) 0.52014(19) 0.0612(19) Uani 1 1 d . .
H21A H 0.5718 0.7108 0.5000 0.092 Uiso 1 1 calc R U
H21B H 0.5842 0.6389 0.5285 0.092 Uiso 1 1 calc R U
H21C H 0.6555 0.6808 0.5092 0.092 Uiso 1 1 calc R U
C22 C 0.5334(3) 0.7516(5) 0.57603(19) 0.065(2) Uani 1 1 d . .
H22A H 0.5369 0.7933 0.5953 0.097 Uiso 1 1 calc R U
H22B H 0.5201 0.7039 0.5896 0.097 Uiso 1 1 calc R U
H22C H 0.4943 0.7639 0.5565 0.097 Uiso 1 1 calc R U
N4 N 0.7341(2) 0.7497(3) 0.36700(13) 0.0428(12) Uani 1 1 d . .
N5 N 0.7296(2) 0.8692(3) 0.28132(14) 0.0456(13) Uani 1 1 d . .
N6 N 0.6451(2) 0.7803(3) 0.29000(14) 0.0436(12) Uani 1 1 d . .
C23 C 0.7804(3) 0.6901(4) 0.38691(17) 0.0471(15) Uani 1 1 d . .
C24 C 0.8312(3) 0.6633(4) 0.35268(18) 0.0500(16) Uani 1 1 d . .
H24A H 0.8815 0.6482 0.3628 0.060 Uiso 1 1 calc R U
H24B H 0.8082 0.6183 0.3395 0.060 Uiso 1 1 calc R U
C25 C 0.8393(3) 0.7290(4) 0.32353(17) 0.0442(15) Uani 1 1 d . .
C26 C 0.7628(3) 0.7689(3) 0.33083(16) 0.0425(15) Uani 1 1 d . .
C27 C 0.7161(3) 0.8054(4) 0.30174(16) 0.0413(14) Uani 1 1 d . .
C28 C 0.6682(3) 0.8881(4) 0.25698(18) 0.0456(15) Uani 1 1 d . .
C29 C 0.6166(3) 0.8316(4) 0.26322(17) 0.0462(16) Uani 1 1 d . .
C30 C 0.6822(3) 0.8054(4) 0.38680(17) 0.0459(16) Uani 1 1 d . .
H30 H 0.6478 0.8256 0.3659 0.055 Uiso 1 1 calc R U
C31 C 0.6318(4) 0.7684(5) 0.41770(19) 0.067(2) Uani 1 1 d . .
H31A H 0.6054 0.7245 0.4061 0.101 Uiso 1 1 calc R U
H31B H 0.5946 0.8058 0.4271 0.101 Uiso 1 1 calc R U
H31C H 0.6628 0.7510 0.4399 0.101 Uiso 1 1 calc R U
C32 C 0.7243(4) 0.8745(4) 0.4037(2) 0.0656(19) Uani 1 1 d . .
H32A H 0.7502 0.8596 0.4280 0.098 Uiso 1 1 calc R U
H32B H 0.6881 0.9155 0.4094 0.098 Uiso 1 1 calc R U
H32C H 0.7615 0.8927 0.3844 0.098 Uiso 1 1 calc R U
C33 C 0.7328(4) 0.6223(4) 0.4008(2) 0.0637(19) Uani 1 1 d . .
H33A H 0.7036 0.6373 0.4241 0.095 Uiso 1 1 calc R U
H33B H 0.7661 0.5794 0.4075 0.095 Uiso 1 1 calc R U
H33C H 0.6981 0.6068 0.3798 0.095 Uiso 1 1 calc R U
C34 C 0.8254(4) 0.7215(5) 0.42167(18) 0.066(2) Uani 1 1 d . .
H34A H 0.8576 0.7637 0.4127 0.099 Uiso 1 1 calc R U
H34B H 0.8570 0.6807 0.4327 0.099 Uiso 1 1 calc R U
H34C H 0.7905 0.7401 0.4419 0.099 Uiso 1 1 calc R U
C35 C 0.9077(3) 0.7803(4) 0.3333(2) 0.0562(18) Uani 1 1 d . .
H35A H 0.9124 0.8204 0.3133 0.084 Uiso 1 1 calc R U
H35B H 0.9538 0.7492 0.3337 0.084 Uiso 1 1 calc R U
H35C H 0.9002 0.8039 0.3592 0.084 Uiso 1 1 calc R U
C36 C 0.8468(3) 0.7018(4) 0.28139(18) 0.0545(17) Uani 1 1 d . .
H36A H 0.8010 0.6739 0.2738 0.082 Uiso 1 1 calc R U
H36B H 0.8907 0.6680 0.2791 0.082 Uiso 1 1 calc R U
H36C H 0.8534 0.7461 0.2640 0.082 Uiso 1 1 calc R U
C37 C 0.7956(3) 0.9187(3) 0.29030(18) 0.0460(15) Uani 1 1 d . .
H37 H 0.8253 0.8919 0.3112 0.055 Uiso 1 1 calc R U
C38 C 0.7712(3) 0.9947(4) 0.3075(2) 0.0557(16) Uani 1 1 d . .
H38A H 0.7438 1.0241 0.2875 0.084 Uiso 1 1 calc R U
H38B H 0.8159 1.0235 0.3160 0.084 Uiso 1 1 calc R U
H38C H 0.7380 0.9857 0.3301 0.084 Uiso 1 1 calc R U
C39 C 0.8488(3) 0.9280(4) 0.2548(2) 0.0591(18) Uani 1 1 d . .
H39A H 0.8614 0.8775 0.2442 0.089 Uiso 1 1 calc R U
H39B H 0.8952 0.9541 0.2631 0.089 Uiso 1 1 calc R U
H39C H 0.8236 0.9585 0.2344 0.089 Uiso 1 1 calc R U
C40 C 0.6614(4) 0.9567(4) 0.2317(2) 0.0595(18) Uani 1 1 d . .
H40A H 0.6240 0.9472 0.2110 0.089 Uiso 1 1 calc R U
H40B H 0.7105 0.9680 0.2196 0.089 Uiso 1 1 calc R U
H40C H 0.6453 1.0005 0.2477 0.089 Uiso 1 1 calc R U
C41 C 0.5393(3) 0.8271(4) 0.2441(2) 0.0583(18) Uani 1 1 d . .
H41A H 0.5002 0.8387 0.2637 0.087 Uiso 1 1 calc R U
H41B H 0.5312 0.7754 0.2337 0.087 Uiso 1 1 calc R U
H41C H 0.5363 0.8642 0.2226 0.087 Uiso 1 1 calc R U
C42 C 0.6114(3) 0.7063(4) 0.30299(18) 0.0489(16) Uani 1 1 d . .
H42 H 0.6459 0.6842 0.3234 0.059 Uiso 1 1 calc R U
C43 C 0.6077(3) 0.6495(4) 0.26936(19) 0.0563(18) Uani 1 1 d . .
H43A H 0.5741 0.6693 0.2488 0.084 Uiso 1 1 calc R U
H43B H 0.5882 0.6005 0.2791 0.084 Uiso 1 1 calc R U
H43C H 0.6585 0.6420 0.2584 0.084 Uiso 1 1 calc R U
C44 C 0.5345(3) 0.7175(5) 0.3223(2) 0.067(2) Uani 1 1 d . .
H44A H 0.5381 0.7579 0.3423 0.100 Uiso 1 1 calc R U
H44B H 0.5185 0.6696 0.3348 0.100 Uiso 1 1 calc R U
H44C H 0.4974 0.7324 0.3023 0.100 Uiso 1 1 calc R U
S1 S 0.47934(10) 0.48281(12) 0.35804(5) 0.0624(5) Uani 1 1 d . .
O1 O 0.5359(3) 0.4949(4) 0.32868(16) 0.114(2) Uani 1 1 d . .
O2 O 0.4242(3) 0.5417(3) 0.36199(18) 0.0921(18) Uani 1 1 d . .
O3 O 0.4512(3) 0.4069(3) 0.35925(17) 0.0851(16) Uani 1 1 d . .
F1 F 0.4909(3) 0.4758(4) 0.43470(13) 0.1169(19) Uani 1 1 d . .
F2 F 0.5597(3) 0.5602(3) 0.40911(17) 0.1123(18) Uani 1 1 d . .
F3 F 0.5900(3) 0.4437(3) 0.40449(16) 0.1132(19) Uani 1 1 d . .
C45 C 0.5322(4) 0.4913(5) 0.4032(2) 0.069(2) Uani 1 1 d . .
S2 S 0.49034(10) 0.99550(12) 0.39474(6) 0.0660(6) Uani 1 1 d . .
O4 O 0.5447(4) 1.0493(4) 0.40644(18) 0.116(2) Uani 1 1 d . .
O5 O 0.5039(3) 0.9208(4) 0.40901(19) 0.106(2) Uani 1 1 d . .
O6 O 0.4121(3) 1.0170(4) 0.39712(19) 0.108(2) Uani 1 1 d . .
F4 F 0.4599(3) 0.9363(4) 0.32668(17) 0.135(2) Uani 1 1 d . .
F5 F 0.5763(3) 0.9643(4) 0.33461(17) 0.124(2) Uani 1 1 d . .
F6 F 0.4976(4) 1.0502(4) 0.32371(16) 0.130(2) Uani 1 1 d . .
C46 C 0.5046(4) 0.9858(5) 0.3442(2) 0.075(2) Uani 1 1 d . .
loop_
_atom_site_aniso_label
_atom_site_aniso_U_11
_atom_site_aniso_U_22
_atom_site_aniso_U_33
_atom_site_aniso_U_23
_atom_site_aniso_U_13
_atom_site_aniso_U_12
N1 0.026(3) 0.046(3) 0.055(3) 0.000(2) -0.006(2) 0.007(2)
N2 0.024(3) 0.041(3) 0.069(3) -0.001(2) -0.001(2) -0.002(2)
N3 0.017(3) 0.054(4) 0.061(3) 0.006(2) 0.000(2) -0.005(2)
C1 0.032(4) 0.043(4) 0.063(4) 0.004(3) -0.004(3) 0.003(3)
C2 0.039(4) 0.057(5) 0.070(4) -0.002(3) -0.007(3) 0.002(3)
C3 0.018(3) 0.048(4) 0.067(4) -0.002(3) 0.001(3) 0.007(3)
C4 0.027(3) 0.040(4) 0.057(4) 0.005(3) -0.006(3) 0.002(3)
C5 0.026(4) 0.041(4) 0.056(3) -0.001(3) 0.008(3) -0.003(3)
C6 0.034(4) 0.061(5) 0.051(4) 0.004(3) -0.001(3) 0.009(3)
C7 0.025(4) 0.053(5) 0.060(4) 0.001(3) -0.004(3) 0.005(3)
C8 0.038(4) 0.053(5) 0.056(4) 0.001(3) 0.002(3) 0.009(3)
C9 0.051(4) 0.071(6) 0.072(5) -0.011(4) -0.001(3) 0.007(4)
C10 0.048(4) 0.080(6) 0.062(4) -0.002(4) 0.012(3) 0.005(4)
C11 0.050(4) 0.053(5) 0.080(5) 0.008(3) -0.004(3) 0.004(3)
C12 0.047(4) 0.082(6) 0.070(4) 0.003(4) -0.014(3) 0.007(4)
C13 0.028(4) 0.066(5) 0.070(4) -0.007(3) 0.006(3) 0.007(3)
C14 0.022(3) 0.065(5) 0.072(4) -0.004(3) 0.001(3) 0.003(3)
C15 0.033(4) 0.050(5) 0.078(5) 0.000(3) 0.002(3) -0.010(3)
C16 0.044(4) 0.053(5) 0.089(5) -0.005(4) -0.003(3) -0.004(3)
C17 0.049(4) 0.071(5) 0.077(5) 0.005(4) 0.005(3) -0.012(4)
C18 0.050(5) 0.065(5) 0.091(5) 0.013(4) -0.012(4) 0.014(4)
C19 0.027(4) 0.075(5) 0.084(5) 0.006(4) -0.008(3) 0.010(3)
C20 0.022(3) 0.063(5) 0.060(4) 0.013(3) -0.001(3) 0.001(3)
C21 0.034(4) 0.080(6) 0.070(4) 0.010(4) -0.005(3) -0.010(3)
C22 0.022(4) 0.095(6) 0.077(5) 0.008(4) 0.002(3) -0.008(3)
N4 0.029(3) 0.050(3) 0.050(3) 0.002(2) -0.003(2) 0.007(2)
N5 0.024(3) 0.050(4) 0.063(3) 0.002(2) 0.000(2) 0.000(2)
N6 0.018(3) 0.049(4) 0.064(3) 0.006(2) -0.003(2) -0.004(2)
C23 0.031(3) 0.054(5) 0.057(4) 0.004(3) -0.001(3) 0.003(3)
C24 0.038(4) 0.049(5) 0.062(4) 0.002(3) -0.006(3) 0.003(3)
C25 0.017(3) 0.054(4) 0.062(4) 0.001(3) -0.004(2) 0.006(3)
C26 0.029(3) 0.046(4) 0.052(4) 0.001(3) -0.005(3) 0.009(3)
C27 0.026(3) 0.046(4) 0.052(3) 0.005(3) 0.003(3) 0.001(3)
C28 0.023(3) 0.050(5) 0.064(4) -0.002(3) -0.005(3) 0.006(3)
C29 0.024(4) 0.055(5) 0.059(4) 0.009(3) 0.000(3) 0.001(3)
C30 0.025(3) 0.057(5) 0.057(4) -0.002(3) 0.002(3) 0.007(3)
C31 0.042(4) 0.094(6) 0.066(4) 0.007(4) 0.013(3) 0.010(4)
C32 0.061(5) 0.059(5) 0.077(5) -0.015(4) 0.005(4) 0.007(4)
C33 0.052(4) 0.056(5) 0.083(5) 0.011(3) 0.007(4) 0.006(4)
C34 0.047(4) 0.097(6) 0.053(4) 0.001(4) -0.004(3) 0.004(4)
C35 0.017(3) 0.067(5) 0.085(5) -0.001(3) -0.007(3) -0.001(3)
C36 0.029(4) 0.065(5) 0.069(4) -0.006(3) 0.000(3) 0.014(3)
C37 0.026(3) 0.038(4) 0.073(4) -0.001(3) 0.001(3) -0.005(3)
C38 0.040(4) 0.046(5) 0.080(4) -0.006(3) 0.002(3) -0.005(3)
C39 0.037(4) 0.062(5) 0.078(5) 0.005(3) 0.009(3) -0.006(3)
C40 0.046(4) 0.056(5) 0.077(5) 0.005(3) -0.001(3) 0.011(3)
C41 0.024(4) 0.065(5) 0.086(5) 0.005(3) -0.010(3) 0.001(3)
C42 0.028(4) 0.057(5) 0.062(4) 0.007(3) -0.006(3) -0.004(3)
C43 0.031(4) 0.065(5) 0.073(4) 0.008(3) -0.004(3) -0.002(3)
C44 0.033(4) 0.089(6) 0.078(5) 0.003(4) 0.008(3) -0.006(4)
S1 0.0445(11) 0.0655(14) 0.0771(11) -0.0018(9) -0.0009(8) 0.0056(9)
O1 0.105(5) 0.163(7) 0.074(4) 0.022(4) 0.035(3) 0.015(4)
O2 0.057(3) 0.073(4) 0.147(5) -0.019(3) -0.021(3) 0.033(3)
O3 0.061(3) 0.065(4) 0.129(5) -0.012(3) -0.021(3) -0.008(3)
F1 0.099(4) 0.181(6) 0.071(3) -0.004(3) 0.014(3) -0.030(4)
F2 0.065(3) 0.102(5) 0.170(5) -0.033(3) -0.009(3) -0.031(3)
F3 0.062(3) 0.137(5) 0.141(4) -0.022(3) -0.036(3) 0.045(3)
C45 0.053(5) 0.062(6) 0.093(6) -0.006(4) 0.000(4) 0.001(4)
S2 0.0483(12) 0.0692(14) 0.0805(12) 0.0038(10) -0.0025(9) -0.0043(10)
O4 0.120(5) 0.124(6) 0.104(4) -0.022(4) 0.010(4) -0.080(4)
O5 0.077(4) 0.097(5) 0.144(5) 0.049(4) -0.016(4) 0.002(3)
O6 0.048(3) 0.146(6) 0.131(5) 0.013(4) 0.018(3) 0.040(3)
F4 0.115(4) 0.169(6) 0.120(4) -0.046(4) -0.011(3) -0.055(4)
F5 0.065(4) 0.169(6) 0.137(5) -0.021(4) 0.026(3) 0.023(3)
F6 0.129(5) 0.152(6) 0.109(4) 0.046(4) 0.003(3) 0.020(4)
C46 0.041(5) 0.071(6) 0.114(6) 0.014(5) -0.027(4) -0.013(4)
loop_
_atom_type_symbol
_atom_type_description
_atom_type_scat_dispersion_real
_atom_type_scat_dispersion_imag
_atom_type_scat_source
C C 0.0033 0.0016 'International Tables Vol C Tables 4.2.6.8 and 6.1.1.4'
H H 0.0000 0.0000 'International Tables Vol C Tables 4.2.6.8 and 6.1.1.4'
N N 0.0061 0.0033 'International Tables Vol C Tables 4.2.6.8 and 6.1.1.4'
O O 0.0106 0.0060 'International Tables Vol C Tables 4.2.6.8 and 6.1.1.4'
F F 0.0171 0.0103 'International Tables Vol C Tables 4.2.6.8 and 6.1.1.4'
S S 0.1246 0.1234 'International Tables Vol C Tables 4.2.6.8 and 6.1.1.4'
loop_
_geom_angle_atom_site_label_1
_geom_angle_atom_site_label_2
_geom_angle_atom_site_label_3
_geom_angle
C4 N1 C1 112.3(4)
C4 N1 C8 118.6(5)
C1 N1 C8 125.4(5)
C5 N2 C6 110.4(5)
C5 N2 C15 122.2(5)
C6 N2 C15 126.7(5)
C5 N3 C7 108.7(5)
C5 N3 C20 123.7(5)
C7 N3 C20 127.1(5)
N1 C1 C11 113.5(5)
N1 C1 C2 101.5(5)
C11 C1 C2 108.7(5)
N1 C1 C12 111.8(5)
C11 C1 C12 109.1(5)
C2 C1 C12 112.1(5)
C1 C2 C3 108.2(5)
C13 C3 C4 111.4(5)
C13 C3 C14 108.8(5)
C4 C3 C14 114.8(5)
C13 C3 C2 112.1(5)
C4 C3 C2 98.7(4)
C14 C3 C2 110.9(5)
N1 C4 C5 120.4(5)
N1 C4 C3 111.4(5)
C5 C4 C3 125.9(5)
N2 C5 N3 106.6(5)
N2 C5 C4 127.2(5)
N3 C5 C4 126.1(5)
C7 C6 N2 106.2(5)
C7 C6 C18 128.4(6)
N2 C6 C18 125.2(6)
C6 C7 N3 108.0(5)
C6 C7 C19 126.9(6)
N3 C7 C19 125.0(6)
N1 C8 C9 113.6(5)
N1 C8 C10 112.6(5)
C9 C8 C10 111.9(5)
N2 C15 C16 110.8(5)
N2 C15 C17 111.5(5)
C16 C15 C17 114.2(6)
N3 C20 C21 110.8(5)
N3 C20 C22 112.6(5)
C21 C20 C22 112.5(5)
C26 N4 C23 112.0(4)
C26 N4 C30 118.2(5)
C23 N4 C30 126.0(4)
C27 N5 C28 111.4(5)
C27 N5 C37 121.3(5)
C28 N5 C37 126.3(5)
C29 N6 C27 108.5(5)
C29 N6 C42 128.0(5)
C27 N6 C42 123.4(5)
N4 C23 C34 112.9(5)
N4 C23 C33 112.3(5)
C34 C23 C33 109.0(5)
N4 C23 C24 101.0(4)
C34 C23 C24 112.9(5)
C33 C23 C24 108.6(5)
C25 C24 C23 108.4(5)
C36 C25 C24 112.8(5)
C36 C25 C26 111.7(4)
C24 C25 C26 98.8(5)
C36 C25 C35 108.5(5)
C24 C25 C35 111.8(5)
C26 C25 C35 113.0(5)
N4 C26 C27 120.7(5)
N4 C26 C25 111.1(5)
C27 C26 C25 126.5(5)
N5 C27 N6 106.0(5)
N5 C27 C26 128.7(5)
N6 C27 C26 125.3(5)
C29 C28 N5 104.8(5)
C29 C28 C40 128.5(6)
N5 C28 C40 126.6(6)
C28 C29 N6 109.2(5)
C28 C29 C41 125.2(6)
N6 C29 C41 125.5(5)
N4 C30 C31 113.2(5)
N4 C30 C32 112.5(5)
C31 C30 C32 111.2(5)
N5 C37 C38 111.4(5)
N5 C37 C39 112.4(5)
C38 C37 C39 112.6(5)
N6 C42 C43 111.2(5)
N6 C42 C44 111.9(5)
C43 C42 C44 111.8(5)
O3 S1 O2 115.7(3)
O3 S1 O1 113.9(4)
O2 S1 O1 116.0(4)
O3 S1 C45 103.6(4)
O2 S1 C45 102.4(4)
O1 S1 C45 102.7(4)
F2 C45 F3 106.5(6)
F2 C45 F1 105.6(7)
F3 C45 F1 105.7(7)
F2 C45 S1 113.5(6)
F3 C45 S1 112.2(6)
F1 C45 S1 112.7(5)
O4 S2 O5 113.9(4)
O4 S2 O6 118.0(5)
O5 S2 O6 112.8(4)
O4 S2 C46 104.2(4)
O5 S2 C46 102.9(4)
O6 S2 C46 102.7(4)
F4 C46 F6 105.2(7)
F4 C46 F5 105.6(7)
F6 C46 F5 101.2(7)
F4 C46 S2 115.0(6)
F6 C46 S2 114.9(6)
F5 C46 S2 113.5(5)
loop_
_geom_bond_atom_site_label_1
_geom_bond_atom_site_label_2
_geom_bond_distance
N1 C4 1.372(7)
N1 C1 1.479(7)
N1 C8 1.493(7)
N2 C5 1.334(7)
N2 C6 1.404(7)
N2 C15 1.499(7)
N3 C5 1.379(7)
N3 C7 1.386(7)
N3 C20 1.479(8)
C1 C11 1.517(9)
C1 C2 1.531(9)
C1 C12 1.545(9)
C2 C3 1.550(9)
C3 C13 1.497(8)
C3 C4 1.538(8)
C3 C14 1.550(8)
C4 C5 1.444(8)
C6 C7 1.353(9)
C6 C18 1.485(9)
C7 C19 1.491(8)
C8 C9 1.514(9)
C8 C10 1.521(9)
C15 C16 1.510(9)
C15 C17 1.524(9)
C20 C21 1.520(9)
C20 C22 1.528(8)
N4 C26 1.371(7)
N4 C23 1.487(7)
N4 C30 1.497(7)
N5 C27 1.334(7)
N5 C28 1.404(7)
N5 C37 1.485(7)
N6 C29 1.374(7)
N6 C27 1.388(7)
N6 C42 1.491(8)
C23 C34 1.526(9)
C23 C33 1.528(9)
C23 C24 1.543(8)
C24 C25 1.523(9)
C25 C36 1.514(8)
C25 C26 1.541(8)
C25 C35 1.542(8)
C26 C27 1.438(8)
C28 C29 1.361(8)
C28 C40 1.479(9)
C29 C41 1.515(8)
C30 C31 1.522(9)
C30 C32 1.529(9)
C37 C38 1.512(8)
C37 C39 1.538(8)
C42 C43 1.515(9)
C42 C44 1.523(8)
S1 O3 1.417(6)
S1 O2 1.424(5)
S1 O1 1.428(5)
S1 C45 1.803(8)
F1 C45 1.323(8)
F2 C45 1.312(9)
F3 C45 1.319(8)
S2 O4 1.401(5)
S2 O5 1.413(6)
S2 O6 1.436(5)
S2 C46 1.743(9)
F4 C46 1.316(9)
F5 C46 1.362(9)
F6 C46 1.329(9)
